
 OpenBabel10282417203D

 36 38  0  0  0  0  0  0  0  0999 V2000
    1.0272   -0.7353    0.0041 C   0  0  0  0  0  0  0  0  0  0  0  0
    1.1295    0.6788    0.0016 C   0  0  0  0  0  0  0  0  0  0  0  0
   -0.1600    1.1824   -0.0194 C   0  0  0  0  0  0  0  0  0  0  0  0
   -1.0422    0.1257   -0.0111 O   0  0  0  0  0  0  0  0  0  0  0  0
   -0.3159   -1.0215   -0.0027 C   0  0  0  0  0  0  0  0  0  0  0  0
   -0.6969    2.5276   -0.0562 C   0  0  0  0  0  0  0  0  0  0  0  0
   -1.8942    2.8045   -0.0675 O   0  0  0  0  0  0  0  0  0  0  0  0
    0.3462    3.4731   -0.0984 O   0  0  0  0  0  0  0  0  0  0  0  0
    0.0093    4.8449   -0.0611 C   0  0  0  0  0  0  0  0  0  0  0  0
   -0.9481    5.3256    0.8211 C   0  0  0  0  0  0  0  0  0  0  0  0
   -1.2736    6.6798    0.8220 C   0  0  0  0  0  0  0  0  0  0  0  0
   -0.6149    7.5970   -0.0055 C   0  0  0  0  0  0  0  0  0  0  0  0
    0.3728    7.1119   -0.8929 C   0  0  0  0  0  0  0  0  0  0  0  0
    0.6869    5.7310   -0.9048 C   0  0  0  0  0  0  0  0  0  0  0  0
    1.1012    8.0316   -1.8479 C   0  0  0  0  0  0  0  0  0  0  0  0
    0.8530    9.5083   -1.5718 C   0  0  0  0  0  0  0  0  0  0  0  0
   -0.5975    9.7295   -1.1970 C   0  0  0  0  0  0  0  0  0  0  0  0
   -0.9319    9.0020    0.0362 N   0  0  0  0  0  0  0  0  0  0  0  0
   -1.4531    9.6015    1.2000 C   0  0  0  0  0  0  0  0  0  0  0  0
   -1.6371    8.9843    2.2601 O   0  0  0  0  0  0  0  0  0  0  0  0
   -1.7675   11.0936    1.2324 C   0  0  0  0  0  0  0  0  0  0  0  0
   -0.2882   12.0644    1.1037 Cl  0  0  0  0  0  0  0  0  0  0  0  0
   -3.0244   11.5209    0.0613 Cl  0  0  0  0  0  0  0  0  0  0  0  0
    1.8307   -1.4589    0.0077 H   0  0  0  0  0  0  0  0  0  0  0  0
    2.0353    1.2674    0.0047 H   0  0  0  0  0  0  0  0  0  0  0  0
   -0.8843   -1.9431   -0.0059 H   0  0  0  0  0  0  0  0  0  0  0  0
   -1.4823    4.6680    1.4998 H   0  0  0  0  0  0  0  0  0  0  0  0
   -2.0908    6.9821    1.4693 H   0  0  0  0  0  0  0  0  0  0  0  0
    1.4560    5.3569   -1.5766 H   0  0  0  0  0  0  0  0  0  0  0  0
    0.7725    7.8014   -2.8691 H   0  0  0  0  0  0  0  0  0  0  0  0
    2.1808    7.8475   -1.7966 H   0  0  0  0  0  0  0  0  0  0  0  0
    1.1092   10.1073   -2.4535 H   0  0  0  0  0  0  0  0  0  0  0  0
    1.4974    9.8495   -0.7518 H   0  0  0  0  0  0  0  0  0  0  0  0
   -0.7622   10.7991   -1.1103 H   0  0  0  0  0  0  0  0  0  0  0  0
   -1.2781    9.3834   -1.9853 H   0  0  0  0  0  0  0  0  0  0  0  0
   -2.1840   11.3218    2.2176 H   0  0  0  0  0  0  0  0  0  0  0  0
  1  2  1  0  0  0  0
  1  5  2  0  0  0  0
  1 24  1  0  0  0  0
  2  3  2  0  0  0  0
  2 25  1  0  0  0  0
  3  4  1  0  0  0  0
  3  6  1  0  0  0  0
  4  5  1  0  0  0  0
  5 26  1  0  0  0  0
  6  7  2  0  0  0  0
  6  8  1  0  0  0  0
  8  9  1  0  0  0  0
  9 10  2  0  0  0  0
  9 14  1  0  0  0  0
 10 11  1  0  0  0  0
 10 27  1  0  0  0  0
 11 12  2  0  0  0  0
 11 28  1  0  0  0  0
 12 13  1  0  0  0  0
 12 18  1  0  0  0  0
 13 14  2  0  0  0  0
 13 15  1  0  0  0  0
 14 29  1  0  0  0  0
 15 16  1  0  0  0  0
 15 30  1  0  0  0  0
 15 31  1  0  0  0  0
 16 17  1  0  0  0  0
 16 32  1  0  0  0  0
 16 33  1  0  0  0  0
 17 18  1  0  0  0  0
 17 34  1  0  0  0  0
 17 35  1  0  0  0  0
 18 19  1  0  0  0  0
 19 20  2  0  0  0  0
 19 21  1  0  0  0  0
 21 22  1  0  0  0  0
 21 23  1  0  0  0  0
 21 36  1  0  0  0  0
M  END
>  <DRUGBANK_ID>
DB12780

>  <COMMON_NAME>
Quinfamide

>  <CAS_NUMBER>
62265-68-3

>  <UNII>
O1ZB1046R1

>  <SYNONYMS>
Quinfamide

$$$$
