
 OpenBabel10282417153D

 44 45  0  0  0  0  0  0  0  0999 V2000
    1.1269   -0.0741    0.2408 N   0  0  0  0  0  0  0  0  0  0  0  0
   -2.1679    0.2884   -2.8324 C   0  0  0  0  0  0  0  0  0  0  0  0
   -2.5463    1.5088   -3.3135 C   0  0  0  0  0  0  0  0  0  0  0  0
   -1.9093    2.6461   -2.7959 C   0  0  0  0  0  0  0  0  0  0  0  0
   -0.9017    2.5250   -1.8030 C   0  0  0  0  0  0  0  0  0  0  0  0
   -0.5366    1.2798   -1.2734 C   0  0  0  0  0  0  0  0  0  0  0  0
   -1.2208    0.1922   -1.8237 C   0  0  0  0  0  0  0  0  0  0  0  0
    0.3637    1.1761   -0.0254 C   0  0  0  0  0  0  0  0  0  0  0  0
    0.5069   -1.4068    0.0768 C   0  0  0  0  0  0  0  0  0  0  0  0
    0.8172   -2.1718   -1.3037 C   0  0  0  0  0  0  0  0  0  0  0  0
    2.4972    0.0157    0.5775 C   0  0  0  0  0  0  0  0  0  0  0  0
    4.6392   -1.1597    0.5184 C   0  0  0  0  0  0  0  0  0  0  0  0
    5.2770    0.0217    0.2011 C   0  0  0  0  0  0  0  0  0  0  0  0
    4.4992    1.1633    0.1776 C   0  0  0  0  0  0  0  0  0  0  0  0
    2.2272   -2.4084   -1.6564 N   0  0  0  0  0  0  0  0  0  0  0  0
    2.4232   -3.3861   -2.7214 C   0  0  0  0  0  0  0  0  0  0  0  0
    2.8358   -1.1669   -2.1617 C   0  0  0  0  0  0  0  0  0  0  0  0
   -3.5315    1.6770   -4.2512 O   0  0  0  0  0  0  0  0  0  0  0  0
   -4.0970    0.4576   -4.7498 C   0  0  0  0  0  0  0  0  0  0  0  0
    3.1498    1.1868    0.3702 N   0  0  0  0  0  0  0  0  0  0  0  0
    3.2639   -1.1470    0.7860 C   0  0  0  0  0  0  0  0  0  0  0  0
   -2.6091   -0.6530   -3.1560 H   0  0  0  0  0  0  0  0  0  0  0  0
   -2.2100    3.6280   -3.1409 H   0  0  0  0  0  0  0  0  0  0  0  0
   -0.4410    3.4391   -1.4224 H   0  0  0  0  0  0  0  0  0  0  0  0
   -1.1202   -0.8049   -1.4828 H   0  0  0  0  0  0  0  0  0  0  0  0
   -0.3062    1.3321    0.8302 H   0  0  0  0  0  0  0  0  0  0  0  0
    1.0256    2.0525   -0.0411 H   0  0  0  0  0  0  0  0  0  0  0  0
    0.7482   -2.0601    0.9224 H   0  0  0  0  0  0  0  0  0  0  0  0
   -0.5779   -1.3060    0.2184 H   0  0  0  0  0  0  0  0  0  0  0  0
    0.2718   -3.1253   -1.2334 H   0  0  0  0  0  0  0  0  0  0  0  0
    0.3929   -1.6745   -2.1784 H   0  0  0  0  0  0  0  0  0  0  0  0
    5.1522   -2.1129    0.4057 H   0  0  0  0  0  0  0  0  0  0  0  0
    6.3265    0.0383   -0.0700 H   0  0  0  0  0  0  0  0  0  0  0  0
    4.9456    2.1192   -0.0826 H   0  0  0  0  0  0  0  0  0  0  0  0
    2.1442   -2.9757   -3.6995 H   0  0  0  0  0  0  0  0  0  0  0  0
    3.4904   -3.6368   -2.7542 H   0  0  0  0  0  0  0  0  0  0  0  0
    1.8726   -4.3157   -2.5646 H   0  0  0  0  0  0  0  0  0  0  0  0
    2.5485   -0.8995   -3.1781 H   0  0  0  0  0  0  0  0  0  0  0  0
    2.5303   -0.2904   -1.6192 H   0  0  0  0  0  0  0  0  0  0  0  0
    3.9224   -1.2510   -2.0897 H   0  0  0  0  0  0  0  0  0  0  0  0
   -3.3306   -0.1716   -5.2212 H   0  0  0  0  0  0  0  0  0  0  0  0
   -4.6131   -0.0985   -3.9555 H   0  0  0  0  0  0  0  0  0  0  0  0
   -4.8370    0.7021   -5.5144 H   0  0  0  0  0  0  0  0  0  0  0  0
    2.7965   -2.1200    0.8881 H   0  0  0  0  0  0  0  0  0  0  0  0
  1  9  1  0  0  0  0
  1 11  1  0  0  0  0
  2  3  2  0  0  0  0
  2  7  1  0  0  0  0
  2 22  1  0  0  0  0
  3  4  1  0  0  0  0
  3 18  1  0  0  0  0
  4  5  2  0  0  0  0
  4 23  1  0  0  0  0
  5  6  1  0  0  0  0
  5 24  1  0  0  0  0
  6  7  2  0  0  0  0
  6  8  1  0  0  0  0
  7 25  1  0  0  0  0
  8  1  1  0  0  0  0
  8 26  1  0  0  0  0
  8 27  1  0  0  0  0
  9 10  1  0  0  0  0
  9 28  1  0  0  0  0
  9 29  1  0  0  0  0
 10 15  1  0  0  0  0
 10 30  1  0  0  0  0
 10 31  1  0  0  0  0
 11 21  1  0  0  0  0
 11 20  2  0  0  0  0
 12 13  1  0  0  0  0
 12 32  1  0  0  0  0
 13 14  2  0  0  0  0
 13 33  1  0  0  0  0
 14 20  1  0  0  0  0
 14 34  1  0  0  0  0
 15 16  1  0  0  0  0
 15 17  1  0  0  0  0
 16 35  1  0  0  0  0
 16 36  1  0  0  0  0
 16 37  1  0  0  0  0
 17 38  1  0  0  0  0
 17 39  1  0  0  0  0
 17 40  1  0  0  0  0
 18 19  1  0  0  0  0
 19 41  1  0  0  0  0
 19 42  1  0  0  0  0
 19 43  1  0  0  0  0
 21 12  2  0  0  0  0
 21 44  1  0  0  0  0
M  END
>  <DRUGBANK_ID>
DB06691

>  <COMMON_NAME>
Mepyramine

>  <CAS_NUMBER>
91-84-9

>  <UNII>
HPE317O9TL

>  <SYNONYMS>
Mepiramina; Mepyramine; N-(p-methoxybenzyl)-N',N'-dimethyl-N-(Î±-pyridyl)ethylenediamine; N-[(4-methoxyphenyl)methyl]-N',N'-dimethyl-N-2-pyridinyl-1,2-ethanediamine; N',N'-dimethyl-N-(p-methoxybenzyl)-N-(2-pyridyl)ethylenediamine; Pyranisamine; Pyrilamine

$$$$
