
 OpenBabel10282417183D

 47 47  0  0  0  0  0  0  0  0999 V2000
   -1.7414    0.2047   -0.0829 C   0  0  0  0  0  0  0  0  0  0  0  0
   -1.1331   -1.0997    0.0004 C   0  0  0  0  0  0  0  0  0  0  0  0
   -3.1902    0.4570   -0.0034 C   0  0  0  0  0  0  0  0  0  0  0  0
   -0.9833    1.3590   -0.0946 C   0  0  0  0  0  0  0  0  0  0  0  0
    0.2706   -1.1571   -0.0333 C   0  0  0  0  0  0  0  0  0  0  0  0
   -3.8337   -0.5274    0.1538 O   0  0  0  0  0  0  0  0  0  0  0  0
    1.0297    0.0168   -0.0533 C   0  0  0  0  0  0  0  0  0  0  0  0
   -3.9020    1.6148   -0.1895 O   0  0  0  0  0  0  0  0  0  0  0  0
    0.3921    1.2608   -0.0517 C   0  0  0  0  0  0  0  0  0  0  0  0
   -1.6475   -2.3630    0.2400 O   0  0  0  0  0  0  0  0  0  0  0  0
   -5.6309   -0.8171   -1.7247 N   0  0  0  0  0  0  0  0  0  0  0  0
    2.4059   -0.0221    0.0625 N   0  0  0  0  0  0  0  0  0  0  0  0
   -5.3781    1.3284   -0.0987 C   0  0  0  0  0  0  0  0  0  0  0  0
   -6.0764    0.5664   -1.3422 C   0  0  0  0  0  0  0  0  0  0  0  0
   -6.3581   -1.5757   -2.7108 C   0  0  0  0  0  0  0  0  0  0  0  0
   -4.2448   -0.8451   -2.2328 C   0  0  0  0  0  0  0  0  0  0  0  0
   -3.0228   -2.6412    0.5159 C   0  0  0  0  0  0  0  0  0  0  0  0
   -3.6592   -2.0476    1.8709 C   0  0  0  0  0  0  0  0  0  0  0  0
   -5.9873   -0.9863   -4.0634 C   0  0  0  0  0  0  0  0  0  0  0  0
   -3.2985    0.0103   -3.0523 C   0  0  0  0  0  0  0  0  0  0  0  0
   -3.3328   -0.5967    2.4044 C   0  0  0  0  0  0  0  0  0  0  0  0
   -1.4745    2.3256   -0.0572 H   0  0  0  0  0  0  0  0  0  0  0  0
    0.7713   -2.1259    0.0241 H   0  0  0  0  0  0  0  0  0  0  0  0
    0.9619    2.1810    0.0031 H   0  0  0  0  0  0  0  0  0  0  0  0
    2.9022   -0.8984   -0.0139 H   0  0  0  0  0  0  0  0  0  0  0  0
    2.9259    0.8417   -0.0116 H   0  0  0  0  0  0  0  0  0  0  0  0
   -5.6241    0.8093    0.8440 H   0  0  0  0  0  0  0  0  0  0  0  0
   -5.8491    2.3124   -0.0003 H   0  0  0  0  0  0  0  0  0  0  0  0
   -7.1589    0.5506   -1.1435 H   0  0  0  0  0  0  0  0  0  0  0  0
   -5.8964    1.2182   -2.1935 H   0  0  0  0  0  0  0  0  0  0  0  0
   -5.9874   -2.6148   -2.6397 H   0  0  0  0  0  0  0  0  0  0  0  0
   -7.4270   -1.6157   -2.5032 H   0  0  0  0  0  0  0  0  0  0  0  0
   -4.0644   -0.1055   -1.5616 H   0  0  0  0  0  0  0  0  0  0  0  0
   -3.7928   -1.8195   -2.0758 H   0  0  0  0  0  0  0  0  0  0  0  0
   -3.5789   -2.4291   -0.3905 H   0  0  0  0  0  0  0  0  0  0  0  0
   -3.2097   -3.7293    0.4778 H   0  0  0  0  0  0  0  0  0  0  0  0
   -4.7502   -2.0860    1.7027 H   0  0  0  0  0  0  0  0  0  0  0  0
   -3.3973   -2.7260    2.6706 H   0  0  0  0  0  0  0  0  0  0  0  0
   -4.9416   -1.1992   -4.3038 H   0  0  0  0  0  0  0  0  0  0  0  0
   -6.5132   -1.4342   -4.8882 H   0  0  0  0  0  0  0  0  0  0  0  0
   -6.0923    0.1055   -4.0440 H   0  0  0  0  0  0  0  0  0  0  0  0
   -3.6202    1.0590   -3.0277 H   0  0  0  0  0  0  0  0  0  0  0  0
   -2.3125   -0.0205   -2.5634 H   0  0  0  0  0  0  0  0  0  0  0  0
   -3.1605   -0.3640   -4.0498 H   0  0  0  0  0  0  0  0  0  0  0  0
   -3.9995    0.1501    1.9577 H   0  0  0  0  0  0  0  0  0  0  0  0
   -3.5879   -0.2996    3.4135 H   0  0  0  0  0  0  0  0  0  0  0  0
   -2.2909   -0.3310    2.2176 H   0  0  0  0  0  0  0  0  0  0  0  0
  2  1  1  0  0  0  0
  3  1  1  0  0  0  0
  4  1  2  0  0  0  0
  4 22  1  0  0  0  0
  5  2  2  0  0  0  0
  5 23  1  0  0  0  0
  6  3  2  0  0  0  0
  7  9  2  0  0  0  0
  7  5  1  0  0  0  0
  8  3  1  0  0  0  0
  9  4  1  0  0  0  0
  9 24  1  0  0  0  0
 10  2  1  0  0  0  0
 11 14  1  0  0  0  0
 12  7  1  0  0  0  0
 12 25  1  0  0  0  0
 12 26  1  0  0  0  0
 13  8  1  0  0  0  0
 13 27  1  0  0  0  0
 13 28  1  0  0  0  0
 14 13  1  0  0  0  0
 14 29  1  0  0  0  0
 14 30  1  0  0  0  0
 15 11  1  0  0  0  0
 15 31  1  0  0  0  0
 15 32  1  0  0  0  0
 16 11  1  0  0  0  0
 16 33  1  0  0  0  0
 16 34  1  0  0  0  0
 17 10  1  0  0  0  0
 17 35  1  0  0  0  0
 17 36  1  0  0  0  0
 18 17  1  0  0  0  0
 18 37  1  0  0  0  0
 18 38  1  0  0  0  0
 19 15  1  0  0  0  0
 19 39  1  0  0  0  0
 19 40  1  0  0  0  0
 19 41  1  0  0  0  0
 20 16  1  0  0  0  0
 20 42  1  0  0  0  0
 20 43  1  0  0  0  0
 20 44  1  0  0  0  0
 21 18  1  0  0  0  0
 21 45  1  0  0  0  0
 21 46  1  0  0  0  0
 21 47  1  0  0  0  0
M  END
>  <DRUGBANK_ID>
DB09342

>  <COMMON_NAME>
Propoxycaine

>  <CAS_NUMBER>
86-43-1

>  <UNII>
EPD1EH7F53

>  <SYNONYMS>
Propoxycaine

$$$$
