D55
 OpenBabel10282417163D

 55 56  0  0  0  0  0  0  0  0999 V2000
    0.9871   -0.0810    0.0204 C   0  0  0  0  0  0  0  0  0  0  0  0
    0.4827   -0.8265   -1.1879 C   0  0  0  0  0  0  0  0  0  0  0  0
    0.6960    4.0405    5.2110 C   0  0  0  0  0  0  0  0  0  0  0  0
    0.4953    5.2918    4.3714 C   0  0  0  0  0  0  0  0  0  0  0  0
    2.1758    2.1394    1.3678 C   0  0  0  0  0  0  0  0  0  0  0  0
    2.5042    2.7913    2.5303 C   0  0  0  0  0  0  0  0  0  0  0  0
    1.4528    3.0434    3.3570 C   0  0  0  0  0  0  0  0  0  0  0  0
    0.1153    2.9519    2.9231 C   0  0  0  0  0  0  0  0  0  0  0  0
   -0.2351    2.5762    1.6767 C   0  0  0  0  0  0  0  0  0  0  0  0
   -1.5948    2.6301    1.2921 N   0  0  0  0  0  0  0  0  0  0  0  0
   -2.7422    3.2355    1.8705 C   0  0  0  0  0  0  0  0  0  0  0  0
   -3.8387    2.8912    1.4877 O   0  0  0  0  0  0  0  0  0  0  0  0
   -2.7034    4.3679    2.8921 C   0  0  0  0  0  0  0  0  0  0  0  0
   -2.0169    5.5657    2.6252 C   0  0  0  0  0  0  0  0  0  0  0  0
   -1.8585    6.6301    3.5918 C   0  0  0  0  0  0  0  0  0  0  0  0
   -0.7726    7.6632    3.3027 C   0  0  0  0  0  0  0  0  0  0  0  0
   -2.4750    6.4744    4.8510 C   0  0  0  0  0  0  0  0  0  0  0  0
   -2.1135    7.0515    6.0610 O   0  0  0  0  0  0  0  0  0  0  0  0
   -1.0861    8.0368    6.2691 C   0  0  0  0  0  0  0  0  0  0  0  0
    0.3012    7.6333    6.8828 C   0  0  0  0  0  0  0  0  0  0  0  0
    0.9237    6.3500    6.7671 N   0  0  0  0  0  0  0  0  0  0  0  0
   -3.4035    5.4030    5.0000 C   0  0  0  0  0  0  0  0  0  0  0  0
   -4.5076    5.5160    6.0246 C   0  0  0  0  0  0  0  0  0  0  0  0
    1.7892    3.3928    4.6259 O   0  0  0  0  0  0  0  0  0  0  0  0
   -3.4476    4.3148    4.0768 C   0  0  0  0  0  0  0  0  0  0  0  0
    0.5021    1.2592   -0.1329 O   0  0  0  0  0  0  0  0  0  0  0  0
    0.8153    2.0023    0.9646 C   0  0  0  0  0  0  0  0  0  0  0  0
    0.6087   -0.5420    0.9444 H   0  0  0  0  0  0  0  0  0  0  0  0
    2.0829   -0.1113    0.0281 H   0  0  0  0  0  0  0  0  0  0  0  0
    0.8386   -1.8574   -1.1904 H   0  0  0  0  0  0  0  0  0  0  0  0
   -0.6114   -0.8143   -1.2041 H   0  0  0  0  0  0  0  0  0  0  0  0
    0.8226   -0.3199   -2.0972 H   0  0  0  0  0  0  0  0  0  0  0  0
   -0.2248    3.4431    5.3101 H   0  0  0  0  0  0  0  0  0  0  0  0
    0.9625    4.1583    6.2543 H   0  0  0  0  0  0  0  0  0  0  0  0
    0.1465    5.1426    3.3553 H   0  0  0  0  0  0  0  0  0  0  0  0
   -0.2641    5.8402    4.8744 H   0  0  0  0  0  0  0  0  0  0  0  0
    1.3792    5.8980    4.1643 H   0  0  0  0  0  0  0  0  0  0  0  0
    2.9944    1.6899    0.8202 H   0  0  0  0  0  0  0  0  0  0  0  0
    3.5187    3.0040    2.8548 H   0  0  0  0  0  0  0  0  0  0  0  0
   -0.7074    3.2152    3.5611 H   0  0  0  0  0  0  0  0  0  0  0  0
   -1.8184    2.0533    0.4868 H   0  0  0  0  0  0  0  0  0  0  0  0
   -1.4142    5.5821    1.7175 H   0  0  0  0  0  0  0  0  0  0  0  0
   -1.1607    8.6737    3.1893 H   0  0  0  0  0  0  0  0  0  0  0  0
   -0.0145    7.7038    4.0927 H   0  0  0  0  0  0  0  0  0  0  0  0
   -0.1698    7.3818    2.4328 H   0  0  0  0  0  0  0  0  0  0  0  0
   -1.0080    8.7385    5.4408 H   0  0  0  0  0  0  0  0  0  0  0  0
   -1.4809    8.6736    7.0689 H   0  0  0  0  0  0  0  0  0  0  0  0
    1.0646    8.3666    6.6104 H   0  0  0  0  0  0  0  0  0  0  0  0
    0.1627    7.6167    7.9591 H   0  0  0  0  0  0  0  0  0  0  0  0
    1.5577    6.3084    5.9681 H   0  0  0  0  0  0  0  0  0  0  0  0
    0.1429    5.7080    6.6516 H   0  0  0  0  0  0  0  0  0  0  0  0
   -5.4444    5.6581    5.4696 H   0  0  0  0  0  0  0  0  0  0  0  0
   -4.6002    4.6355    6.6642 H   0  0  0  0  0  0  0  0  0  0  0  0
   -4.3908    6.4019    6.6566 H   0  0  0  0  0  0  0  0  0  0  0  0
   -4.0748    3.4469    4.2934 H   0  0  0  0  0  0  0  0  0  0  0  0
  1 26  1  0  0  0  0
  1 28  1  0  0  0  0
  1 29  1  0  0  0  0
  2  1  1  0  0  0  0
  2 30  1  0  0  0  0
  2 31  1  0  0  0  0
  2 32  1  0  0  0  0
  3  4  1  0  0  0  0
  3 24  1  0  0  0  0
  3 33  1  0  0  0  0
  3 34  1  0  0  0  0
  4 35  1  0  0  0  0
  4 36  1  0  0  0  0
  4 37  1  0  0  0  0
  5 27  2  0  0  0  0
  5 38  1  0  0  0  0
  6  5  1  0  0  0  0
  6 39  1  0  0  0  0
  7  6  2  0  0  0  0
  7  8  1  0  0  0  0
  7 24  1  0  0  0  0
  8 40  1  0  0  0  0
  9 10  1  0  0  0  0
  9  8  2  0  0  0  0
 10 11  1  0  0  0  0
 10 41  1  0  0  0  0
 11 12  2  0  0  0  0
 11 13  1  0  0  0  0
 13 14  1  0  0  0  0
 13 25  2  0  0  0  0
 14 15  2  0  0  0  0
 14 42  1  0  0  0  0
 15 16  1  0  0  0  0
 15 17  1  0  0  0  0
 16 43  1  0  0  0  0
 16 44  1  0  0  0  0
 16 45  1  0  0  0  0
 17 18  1  0  0  0  0
 17 22  2  0  0  0  0
 18 19  1  0  0  0  0
 19 20  1  0  0  0  0
 19 46  1  0  0  0  0
 19 47  1  0  0  0  0
 20 21  1  0  0  0  0
 20 48  1  0  0  0  0
 20 49  1  0  0  0  0
 21 50  1  0  0  0  0
 21 51  1  0  0  0  0
 22 23  1  0  0  0  0
 22 25  1  0  0  0  0
 23 52  1  0  0  0  0
 23 53  1  0  0  0  0
 23 54  1  0  0  0  0
 25 55  1  0  0  0  0
 27  9  1  0  0  0  0
 27 26  1  0  0  0  0
M  END
>  <DRUGBANK_ID>
DB07625

>  <COMMON_NAME>
4-(2-aminoethoxy)-N-(2,5-diethoxyphenyl)-3,5-dimethylbenzamide

$$$$
