
 OpenBabel10282417163D

130132  0  0  0  0  0  0  0  0999 V2000
    1.1974   -0.5259   -0.5672 O   0  0  0  0  0  0  0  0  0  0  0  0
    0.8541   -2.7731   -1.8588 O   0  0  0  0  0  0  0  0  0  0  0  0
    1.7665    3.0874   -3.2218 O   0  0  0  0  0  0  0  0  0  0  0  0
   -0.0335    2.0867    2.2403 O   0  0  0  0  0  0  0  0  0  0  0  0
    1.5482   -5.9181    2.1312 O   0  0  0  0  0  0  0  0  0  0  0  0
   -0.6516   -5.6725    1.8368 O   0  0  0  0  0  0  0  0  0  0  0  0
    5.7089    2.8644    0.0536 O   0  0  0  0  0  0  0  0  0  0  0  0
    1.9569    7.6613    0.5405 O   0  0  0  0  0  0  0  0  0  0  0  0
   -1.1161    7.1519    6.2011 O   0  0  0  0  0  0  0  0  0  0  0  0
    4.8543    4.2973    5.1103 O   0  0  0  0  0  0  0  0  0  0  0  0
    3.0910   -1.5328    0.1869 N   0  0  0  0  0  0  0  0  0  0  0  0
    2.5832    1.5501   -1.7745 N   0  0  0  0  0  0  0  0  0  0  0  0
    0.3961   -3.3301    0.2644 N   0  0  0  0  0  0  0  0  0  0  0  0
    0.5928    3.0348    0.2497 N   0  0  0  0  0  0  0  0  0  0  0  0
    2.6309   -0.3168    2.9286 N   0  0  0  0  0  0  0  0  0  0  0  0
    3.9843    3.0371    1.5256 N   0  0  0  0  0  0  0  0  0  0  0  0
    4.0192    6.5454    0.2598 N   0  0  0  0  0  0  0  0  0  0  0  0
    3.6792    0.7293    4.5752 N   0  0  0  0  0  0  0  0  0  0  0  0
    3.7878    5.9789    4.0410 N   0  0  0  0  0  0  0  0  0  0  0  0
    3.2720    9.8114    4.4999 N   0  0  0  0  0  0  0  0  0  0  0  0
    7.5508    6.3167    3.4463 N   0  0  0  0  0  0  0  0  0  0  0  0
    3.0363    7.5962    5.5206 N   0  0  0  0  0  0  0  0  0  0  0  0
    4.2324    9.0329    6.4445 N   0  0  0  0  0  0  0  0  0  0  0  0
    2.7909   -2.7990   -0.4097 C   0  0  1  0  0  0  0  0  0  0  0  0
    3.5314   -3.7594    0.4896 C   0  0  0  0  0  0  0  0  0  0  0  0
    4.7333   -3.0084    1.0289 C   0  0  0  0  0  0  0  0  0  0  0  0
    4.4270   -1.5468    0.8071 C   0  0  0  0  0  0  0  0  0  0  0  0
    2.4290   -0.5039   -0.4408 C   0  0  0  0  0  0  0  0  0  0  0  0
    3.1377    0.7828   -0.5512 C   0  0  2  0  0  0  0  0  0  0  0  0
    1.2829   -3.0224   -0.7250 C   0  0  0  0  0  0  0  0  0  0  0  0
    2.6469    1.1498    0.8077 C   0  0  0  0  0  0  0  0  0  0  0  0
    1.4069    3.6049   -1.0158 C   0  0  2  0  0  0  0  0  0  0  0  0
    1.8147    2.6539   -2.0633 C   0  0  0  0  0  0  0  0  0  0  0  0
    2.7751    4.2371   -0.8094 C   0  0  0  0  0  0  0  0  0  0  0  0
    0.6773   -3.6512    1.6494 C   0  0  1  0  0  0  0  0  0  0  0  0
    3.2158    0.7396    2.2972 C   0  0  0  0  0  0  0  0  0  0  0  0
    2.3266    3.0634    2.3666 C   0  0  2  0  0  0  0  0  0  0  0  0
    3.8713    4.7296   -1.8313 C   0  0  0  0  0  0  0  0  0  0  0  0
    2.3877    5.0056    0.3351 C   0  0  0  0  0  0  0  0  0  0  0  0
   -0.0414   -2.7791    2.6484 C   0  0  0  0  0  0  0  0  0  0  0  0
    0.8122    2.6488    1.6145 C   0  0  0  0  0  0  0  0  0  0  0  0
    5.1349    5.1332    0.5775 C   0  0  1  0  0  0  0  0  0  0  0  0
    3.9516    1.3232    3.3960 C   0  0  0  0  0  0  0  0  0  0  0  0
    0.4642   -5.1497    1.9003 C   0  0  0  0  0  0  0  0  0  0  0  0
    5.5916    4.8926    2.0284 C   0  0  0  0  0  0  0  0  0  0  0  0
    2.0175    4.3916    2.8089 C   0  0  0  0  0  0  0  0  0  0  0  0
    4.8980    3.6178    0.6161 C   0  0  0  0  0  0  0  0  0  0  0  0
    3.0641   -0.3537    4.2125 C   0  0  0  0  0  0  0  0  0  0  0  0
    3.1915    7.1696    2.7952 C   0  0  2  0  0  0  0  0  0  0  0  0
    0.9191    5.1255    3.4091 C   0  0  0  0  0  0  0  0  0  0  0  0
    6.7088    3.9214    2.4917 C   0  0  0  0  0  0  0  0  0  0  0  0
    5.5373    6.2949    2.1968 C   0  0  0  0  0  0  0  0  0  0  0  0
    2.9624    7.1732    1.0981 C   0  0  0  0  0  0  0  0  0  0  0  0
    4.1712    8.3018    2.5881 C   0  0  0  0  0  0  0  0  0  0  0  0
    3.6962    9.5788    2.0816 C   0  0  0  0  0  0  0  0  0  0  0  0
    0.5587    6.4602    3.1748 C   0  0  0  0  0  0  0  0  0  0  0  0
    0.2687    4.3968    4.3379 C   0  0  0  0  0  0  0  0  0  0  0  0
    2.6800    9.9288    3.1295 C   0  0  0  0  0  0  0  0  0  0  0  0
    0.1883    7.1780    4.2731 C   0  0  0  0  0  0  0  0  0  0  0  0
   -0.5154    5.0837    5.2048 C   0  0  0  0  0  0  0  0  0  0  0  0
    4.9840    5.3353    4.6119 C   0  0  0  0  0  0  0  0  0  0  0  0
   -0.4548    6.4683    5.2435 C   0  0  0  0  0  0  0  0  0  0  0  0
    6.4682    6.1732    4.6148 C   0  0  0  0  0  0  0  0  0  0  0  0
    3.4115    8.8899    5.3851 C   0  0  0  0  0  0  0  0  0  0  0  0
    7.8118    7.5361    2.6630 C   0  0  0  0  0  0  0  0  0  0  0  0
    2.8935    1.1871   -2.6623 H   0  0  0  0  0  0  0  0  0  0  0  0
   -0.5630   -3.4040   -0.0677 H   0  0  0  0  0  0  0  0  0  0  0  0
   -0.3690    2.8314    0.0065 H   0  0  0  0  0  0  0  0  0  0  0  0
    2.1969   -1.0415    2.3886 H   0  0  0  0  0  0  0  0  0  0  0  0
    4.4319    2.1224    1.4919 H   0  0  0  0  0  0  0  0  0  0  0  0
    3.5811    6.5780   -0.6634 H   0  0  0  0  0  0  0  0  0  0  0  0
    3.0311    5.3836    4.4597 H   0  0  0  0  0  0  0  0  0  0  0  0
    7.3713    5.7282    2.6457 H   0  0  0  0  0  0  0  0  0  0  0  0
    3.5218    6.9821    6.1747 H   0  0  0  0  0  0  0  0  0  0  0  0
    3.4068    7.1194    4.7240 H   0  0  0  0  0  0  0  0  0  0  0  0
    4.1836    9.9578    6.8344 H   0  0  0  0  0  0  0  0  0  0  0  0
    4.1490    8.3054    7.1424 H   0  0  0  0  0  0  0  0  0  0  0  0
    2.4478   -5.5513    2.1555 H   0  0  0  0  0  0  0  0  0  0  0  0
   -1.0273    8.0882    5.9515 H   0  0  0  0  0  0  0  0  0  0  0  0
    3.3015   -2.7691   -1.3806 H   0  0  0  0  0  0  0  0  0  0  0  0
    3.0499   -4.0302    1.4055 H   0  0  0  0  0  0  0  0  0  0  0  0
    3.7047   -4.7138    0.0081 H   0  0  0  0  0  0  0  0  0  0  0  0
    4.8367   -3.2012    2.1098 H   0  0  0  0  0  0  0  0  0  0  0  0
    5.6449   -3.3035    0.5254 H   0  0  0  0  0  0  0  0  0  0  0  0
    4.4484   -1.0852    1.7887 H   0  0  0  0  0  0  0  0  0  0  0  0
    5.1779   -1.0081    0.2291 H   0  0  0  0  0  0  0  0  0  0  0  0
    4.2233    0.7877   -0.6023 H   0  0  0  0  0  0  0  0  0  0  0  0
    2.6251    2.1796    0.5937 H   0  0  0  0  0  0  0  0  0  0  0  0
    1.5779    0.9581    0.8490 H   0  0  0  0  0  0  0  0  0  0  0  0
    0.8193    4.4736   -1.3695 H   0  0  0  0  0  0  0  0  0  0  0  0
    3.3204    3.3692   -0.5241 H   0  0  0  0  0  0  0  0  0  0  0  0
    1.6637   -3.3182    1.8917 H   0  0  0  0  0  0  0  0  0  0  0  0
    2.3237    2.5911    3.3620 H   0  0  0  0  0  0  0  0  0  0  0  0
    3.6839    5.6942   -2.2876 H   0  0  0  0  0  0  0  0  0  0  0  0
    4.8969    4.8733   -1.4505 H   0  0  0  0  0  0  0  0  0  0  0  0
    4.1379    3.9387   -2.5259 H   0  0  0  0  0  0  0  0  0  0  0  0
    1.3159    4.9279    0.3753 H   0  0  0  0  0  0  0  0  0  0  0  0
    3.1167    4.8567    1.0972 H   0  0  0  0  0  0  0  0  0  0  0  0
    1.8745    5.7506    0.8927 H   0  0  0  0  0  0  0  0  0  0  0  0
   -1.1181   -2.9202    2.6335 H   0  0  0  0  0  0  0  0  0  0  0  0
    0.3511   -3.0141    3.6463 H   0  0  0  0  0  0  0  0  0  0  0  0
    0.1891   -1.7265    2.4484 H   0  0  0  0  0  0  0  0  0  0  0  0
    6.0356    5.4755    0.0430 H   0  0  0  0  0  0  0  0  0  0  0  0
    4.4344    2.3036    3.5141 H   0  0  0  0  0  0  0  0  0  0  0  0
    4.7963    4.4896    2.6400 H   0  0  0  0  0  0  0  0  0  0  0  0
    3.0033    4.7097    2.8911 H   0  0  0  0  0  0  0  0  0  0  0  0
    1.5307    4.4660    1.9288 H   0  0  0  0  0  0  0  0  0  0  0  0
    2.9777   -1.2062    4.8504 H   0  0  0  0  0  0  0  0  0  0  0  0
    2.3563    7.5726    3.3186 H   0  0  0  0  0  0  0  0  0  0  0  0
    7.6285    4.0832    1.9385 H   0  0  0  0  0  0  0  0  0  0  0  0
    6.9042    4.0066    3.5695 H   0  0  0  0  0  0  0  0  0  0  0  0
    6.4283    2.8718    2.4292 H   0  0  0  0  0  0  0  0  0  0  0  0
    4.5106    6.2155    2.0615 H   0  0  0  0  0  0  0  0  0  0  0  0
    5.4865    6.8205    3.1042 H   0  0  0  0  0  0  0  0  0  0  0  0
    5.9532    6.9455    1.4524 H   0  0  0  0  0  0  0  0  0  0  0  0
    4.7922    8.4264    3.4534 H   0  0  0  0  0  0  0  0  0  0  0  0
    4.7518    8.1384    1.6989 H   0  0  0  0  0  0  0  0  0  0  0  0
    4.6493   10.1148    2.0153 H   0  0  0  0  0  0  0  0  0  0  0  0
    3.3395    9.4965    1.0340 H   0  0  0  0  0  0  0  0  0  0  0  0
    0.8008    7.0888    2.3240 H   0  0  0  0  0  0  0  0  0  0  0  0
    0.4191    3.3265    4.3779 H   0  0  0  0  0  0  0  0  0  0  0  0
    2.4131   10.9412    2.8440 H   0  0  0  0  0  0  0  0  0  0  0  0
    1.7820    9.3236    2.9612 H   0  0  0  0  0  0  0  0  0  0  0  0
    0.4140    8.2414    4.3550 H   0  0  0  0  0  0  0  0  0  0  0  0
   -1.1048    4.4942    5.8725 H   0  0  0  0  0  0  0  0  0  0  0  0
    6.1501    7.1460    4.9713 H   0  0  0  0  0  0  0  0  0  0  0  0
    7.0259    5.6003    5.3474 H   0  0  0  0  0  0  0  0  0  0  0  0
    8.8898    7.5824    2.6506 H   0  0  0  0  0  0  0  0  0  0  0  0
    7.6307    7.4570    1.5562 H   0  0  0  0  0  0  0  0  0  0  0  0
    7.2493    8.4035    2.9914 H   0  0  0  0  0  0  0  0  0  0  0  0
  1 28  2  0  0  0  0
  2 30  2  0  0  0  0
  3 33  2  0  0  0  0
  4 41  2  0  0  0  0
  5 44  1  0  0  0  0
  5 78  1  0  0  0  0
  6 44  2  0  0  0  0
  7 47  2  0  0  0  0
  8 53  2  0  0  0  0
  9 62  1  0  0  0  0
  9 79  1  0  0  0  0
 10 61  2  0  0  0  0
 11 24  1  0  0  0  0
 11 27  1  0  0  0  0
 11 28  1  0  0  0  0
 12 33  1  0  0  0  0
 12 66  1  0  0  0  0
 13 30  1  0  0  0  0
 13 67  1  0  0  0  0
 14 41  1  0  0  0  0
 14 68  1  0  0  0  0
 15 36  1  0  0  0  0
 15 48  1  0  0  0  0
 15 69  1  0  0  0  0
 16 47  1  0  0  0  0
 16 70  1  0  0  0  0
 17 53  1  0  0  0  0
 17 71  1  0  0  0  0
 18 43  1  0  0  0  0
 18 48  2  0  0  0  0
 19 61  1  0  0  0  0
 19 72  1  0  0  0  0
 20 58  1  0  0  0  0
 20 64  2  0  0  0  0
 21 63  1  0  0  0  0
 21 65  1  0  0  0  0
 21 73  1  0  0  0  0
 22 64  1  0  0  0  0
 22 74  1  0  0  0  0
 22 75  1  0  0  0  0
 23 64  1  0  0  0  0
 23 76  1  0  0  0  0
 23 77  1  0  0  0  0
 24 25  1  0  0  0  0
 24 80  1  6  0  0  0
 24 30  1  0  0  0  0
 25 26  1  0  0  0  0
 25 81  1  0  0  0  0
 25 82  1  0  0  0  0
 26 27  1  0  0  0  0
 26 83  1  0  0  0  0
 26 84  1  0  0  0  0
 27 85  1  0  0  0  0
 27 86  1  0  0  0  0
 28 29  1  0  0  0  0
 29 12  1  0  0  0  0
 29 31  1  0  0  0  0
 29 87  1  6  0  0  0
 31 36  1  0  0  0  0
 31 88  1  0  0  0  0
 31 89  1  0  0  0  0
 32 14  1  0  0  0  0
 32 33  1  0  0  0  0
 32 34  1  0  0  0  0
 32 90  1  6  0  0  0
 34 38  1  0  0  0  0
 34 39  1  0  0  0  0
 34 91  1  0  0  0  0
 35 13  1  0  0  0  0
 35 40  1  0  0  0  0
 35 44  1  0  0  0  0
 35 92  1  1  0  0  0
 36 43  2  0  0  0  0
 37 16  1  0  0  0  0
 37 41  1  0  0  0  0
 37 46  1  0  0  0  0
 37 93  1  1  0  0  0
 38 94  1  0  0  0  0
 38 95  1  0  0  0  0
 38 96  1  0  0  0  0
 39 97  1  0  0  0  0
 39 98  1  0  0  0  0
 39 99  1  0  0  0  0
 40100  1  0  0  0  0
 40101  1  0  0  0  0
 40102  1  0  0  0  0
 42 17  1  0  0  0  0
 42 45  1  0  0  0  0
 42 47  1  0  0  0  0
 42103  1  6  0  0  0
 43104  1  0  0  0  0
 45 51  1  0  0  0  0
 45 52  1  0  0  0  0
 45105  1  0  0  0  0
 46 50  1  0  0  0  0
 46106  1  0  0  0  0
 46107  1  0  0  0  0
 48108  1  0  0  0  0
 49 19  1  0  0  0  0
 49 53  1  0  0  0  0
 49 54  1  0  0  0  0
 49109  1  1  0  0  0
 50 56  2  0  0  0  0
 50 57  1  0  0  0  0
 51110  1  0  0  0  0
 51111  1  0  0  0  0
 51112  1  0  0  0  0
 52113  1  0  0  0  0
 52114  1  0  0  0  0
 52115  1  0  0  0  0
 54 55  1  0  0  0  0
 54116  1  0  0  0  0
 54117  1  0  0  0  0
 55 58  1  0  0  0  0
 55118  1  0  0  0  0
 55119  1  0  0  0  0
 56 59  1  0  0  0  0
 56120  1  0  0  0  0
 57 60  2  0  0  0  0
 57121  1  0  0  0  0
 58122  1  0  0  0  0
 58123  1  0  0  0  0
 59 62  2  0  0  0  0
 59124  1  0  0  0  0
 60 62  1  0  0  0  0
 60125  1  0  0  0  0
 61 63  1  0  0  0  0
 63126  1  0  0  0  0
 63127  1  0  0  0  0
 65128  1  0  0  0  0
 65129  1  0  0  0  0
 65130  1  0  0  0  0
M  END
>  <DRUGBANK_ID>
DB06763

>  <COMMON_NAME>
Saralasin

>  <CAS_NUMBER>
34273-10-4

>  <UNII>
H2AFV2HE66

>  <SYNONYMS>
Saralasin

$$$$
