
 OpenBabel10282417133D

139138  0  0  1  0  0  0  0  0999 V2000
    0.9373    0.0035    0.0716 C   0  0  0  0  0  0  0  0  0  0  0  0
    0.9456   -1.8326    1.6797 C   0  0  0  0  0  0  0  0  0  0  0  0
   -7.4770  -10.8546    0.0263 C   0  0  0  0  0  0  0  0  0  0  0  0
   -7.1774   -8.8243   -1.3545 C   0  0  0  0  0  0  0  0  0  0  0  0
   -3.1643   -3.1730   -1.9552 C   0  0  0  0  0  0  0  0  0  0  0  0
   -4.2867   -8.1270    2.9082 C   0  0  0  0  0  0  0  0  0  0  0  0
    1.3039   -7.0331   -2.9574 C   0  0  0  0  0  0  0  0  0  0  0  0
   -0.1511   -9.7080   -1.8855 C   0  0  0  0  0  0  0  0  0  0  0  0
   -0.8865   -7.3372    3.1929 C   0  0  0  0  0  0  0  0  0  0  0  0
   -2.1667   -4.0189    2.6008 C   0  0  0  0  0  0  0  0  0  0  0  0
   -1.6128   -0.9014   -1.0287 C   0  0  0  0  0  0  0  0  0  0  0  0
   -6.1052   -9.6208    2.2186 C   0  0  0  0  0  0  0  0  0  0  0  0
    0.4930   -4.1014   -3.0840 C   0  0  0  0  0  0  0  0  0  0  0  0
   -1.8607  -10.7345    0.8399 C   0  0  0  0  0  0  0  0  0  0  0  0
    1.6852   -6.0298    1.3560 C   0  0  0  0  0  0  0  0  0  0  0  0
   -2.8287   -7.7971   -0.3685 C   0  0  0  0  0  0  0  0  0  0  0  0
   -1.0929   -1.3656    0.3183 C   0  0  0  0  0  0  0  0  0  0  0  0
   -6.6208   -8.8030    1.0504 C   0  0  0  0  0  0  0  0  0  0  0  0
   -1.1148   -1.7280   -2.1773 C   0  0  0  0  0  0  0  0  0  0  0  0
   -4.8511  -10.3502    1.9687 C   0  0  0  0  0  0  0  0  0  0  0  0
   -1.0141   -3.9549   -3.1379 C   0  0  0  0  0  0  0  0  0  0  0  0
   -2.2172  -10.2843    2.1753 C   0  0  0  0  0  0  0  0  0  0  0  0
    1.2893   -4.4605   -1.9059 C   0  0  0  0  0  0  0  0  0  0  0  0
   -2.1034  -10.1887   -0.4831 C   0  0  0  0  0  0  0  0  0  0  0  0
    1.7857   -7.1728   -0.0770 C   0  0  0  0  0  0  0  0  0  0  0  0
   -1.9502   -8.5874   -1.4369 C   0  0  0  0  0  0  0  0  0  0  0  0
    0.3266   -6.0461    1.5518 C   0  0  0  0  0  0  0  0  0  0  0  0
   -2.2482   -6.2310    0.0527 C   0  0  0  0  0  0  0  0  0  0  0  0
   -3.2020   -6.6130    1.2676 C   0  0  0  0  0  0  0  0  0  0  0  0
   -0.1632   -4.2494    1.1697 C   0  0  0  0  0  0  0  0  0  0  0  0
   -4.3982   -6.3485   -0.0926 C   0  0  0  0  0  0  0  0  0  0  0  0
    0.5997   -5.3976   -0.2947 C   0  0  0  0  0  0  0  0  0  0  0  0
   -1.8004   -6.7537   -1.7662 C   0  0  0  0  0  0  0  0  0  0  0  0
   -1.8054   -4.6401   -0.5804 C   0  0  0  0  0  0  0  0  0  0  0  0
    0.4243   -1.3814    0.3418 C   0  0  0  0  0  0  0  0  0  0  0  0
   -6.6283   -9.6288   -0.2104 C   0  0  0  0  0  0  0  0  0  0  0  0
   -1.6439   -3.0557   -2.1207 C   0  0  2  0  0  0  0  0  0  0  0  0
   -3.9030   -9.3804    1.9621 C   0  0  2  0  0  0  0  0  0  0  0  0
    1.2943   -6.2745   -1.8218 C   0  0  2  0  0  0  0  0  0  0  0  0
   -0.9943   -9.3924   -0.7963 C   0  0  2  0  0  0  0  0  0  0  0  0
   -0.5089   -6.8463    1.1513 C   0  0  2  0  0  0  0  0  0  0  0  0
   -2.2766   -4.3558    1.1801 C   0  0  2  0  0  0  0  0  0  0  0  0
   -1.5815   -5.4685   -1.5969 C   0  0  1  0  0  0  0  0  0  0  0  0
    0.0011   -8.2489    2.0198 O   0  0  0  0  0  0  0  0  0  0  0  0
   -2.9078   -6.1766    3.0557 O   0  0  0  0  0  0  0  0  0  0  0  0
   -2.3610   -8.5851    1.6304 O   0  0  0  0  0  0  0  0  0  0  0  0
   -3.7238   -6.8984   -1.7317 O   0  0  0  0  0  0  0  0  0  0  0  0
   -0.3905   -5.1095   -1.2820 O   0  0  0  0  0  0  0  0  0  0  0  0
   -1.2682   -5.5442    1.0765 O   0  0  0  0  0  0  0  0  0  0  0  0
   -1.8449   -7.1489    1.3688 P   0  0  0  0  0  0  0  0  0  0  0  0
   -1.0546   -3.1334   -1.2565 H   0  0  0  0  0  0  0  0  0  0  0  0
   -4.0800   -9.1076    0.8940 H   0  0  0  0  0  0  0  0  0  0  0  0
    0.1223   -6.3720   -2.1262 H   0  0  0  0  0  0  0  0  0  0  0  0
   -0.3437   -9.1787    0.0269 H   0  0  0  0  0  0  0  0  0  0  0  0
   -0.2786   -7.7441    0.4653 H   0  0  0  0  0  0  0  0  0  0  0  0
   -2.9725   -4.9949    0.6990 H   0  0  0  0  0  0  0  0  0  0  0  0
   -1.8306   -5.9211   -2.4806 H   0  0  0  0  0  0  0  0  0  0  0  0
    0.5707    0.6801    0.8441 H   0  0  0  0  0  0  0  0  0  0  0  0
    0.5968    0.3636   -0.8970 H   0  0  0  0  0  0  0  0  0  0  0  0
    2.0224    0.0106    0.0660 H   0  0  0  0  0  0  0  0  0  0  0  0
    0.5697   -1.2127    2.4729 H   0  0  0  0  0  0  0  0  0  0  0  0
    0.6155   -2.7957    1.9660 H   0  0  0  0  0  0  0  0  0  0  0  0
    2.0250   -1.8860    1.6804 H   0  0  0  0  0  0  0  0  0  0  0  0
   -8.4939  -10.5532    0.2834 H   0  0  0  0  0  0  0  0  0  0  0  0
   -7.4944  -11.4784   -0.8598 H   0  0  0  0  0  0  0  0  0  0  0  0
   -7.0814  -11.4562    0.8450 H   0  0  0  0  0  0  0  0  0  0  0  0
   -6.5611   -7.9437   -1.5346 H   0  0  0  0  0  0  0  0  0  0  0  0
   -7.1942   -9.4319   -2.2586 H   0  0  0  0  0  0  0  0  0  0  0  0
   -8.1935   -8.5018   -1.1253 H   0  0  0  0  0  0  0  0  0  0  0  0
   -3.5501   -2.8756   -2.8813 H   0  0  0  0  0  0  0  0  0  0  0  0
   -3.6113   -4.1814   -1.8550 H   0  0  0  0  0  0  0  0  0  0  0  0
   -3.5233   -2.6045   -1.0923 H   0  0  0  0  0  0  0  0  0  0  0  0
   -4.9864   -7.6238    2.2164 H   0  0  0  0  0  0  0  0  0  0  0  0
   -4.5529   -8.3854    3.8541 H   0  0  0  0  0  0  0  0  0  0  0  0
   -3.8891   -7.3830    3.5748 H   0  0  0  0  0  0  0  0  0  0  0  0
    2.2694   -7.1054   -2.6400 H   0  0  0  0  0  0  0  0  0  0  0  0
    0.8024   -7.6789   -2.3973 H   0  0  0  0  0  0  0  0  0  0  0  0
    0.5706   -6.6412   -3.6373 H   0  0  0  0  0  0  0  0  0  0  0  0
   -0.6820   -9.7063   -2.7992 H   0  0  0  0  0  0  0  0  0  0  0  0
    0.3931   -8.9140   -2.1554 H   0  0  0  0  0  0  0  0  0  0  0  0
    0.7270  -10.1194   -1.5302 H   0  0  0  0  0  0  0  0  0  0  0  0
   -1.4652   -6.7106    3.7598 H   0  0  0  0  0  0  0  0  0  0  0  0
   -1.3779   -8.3663    3.2577 H   0  0  0  0  0  0  0  0  0  0  0  0
    0.1113   -7.3801    3.5923 H   0  0  0  0  0  0  0  0  0  0  0  0
   -1.7286   -4.7613    3.3446 H   0  0  0  0  0  0  0  0  0  0  0  0
   -1.4276   -3.4001    2.1855 H   0  0  0  0  0  0  0  0  0  0  0  0
   -3.1932   -3.9533    2.3930 H   0  0  0  0  0  0  0  0  0  0  0  0
   -2.6960   -0.8873   -1.0182 H   0  0  0  0  0  0  0  0  0  0  0  0
   -1.2789    0.1029   -1.2183 H   0  0  0  0  0  0  0  0  0  0  0  0
   -6.7042  -10.4564    2.4331 H   0  0  0  0  0  0  0  0  0  0  0  0
   -6.0852   -9.0025    3.1176 H   0  0  0  0  0  0  0  0  0  0  0  0
    0.7915   -4.8103   -3.8089 H   0  0  0  0  0  0  0  0  0  0  0  0
    0.8332   -3.1315   -3.2146 H   0  0  0  0  0  0  0  0  0  0  0  0
   -2.6005  -11.4444    0.9437 H   0  0  0  0  0  0  0  0  0  0  0  0
   -0.8164  -10.9209    0.9726 H   0  0  0  0  0  0  0  0  0  0  0  0
    1.5373   -6.2695    2.3589 H   0  0  0  0  0  0  0  0  0  0  0  0
    1.6773   -4.8941    1.1017 H   0  0  0  0  0  0  0  0  0  0  0  0
   -3.7139   -8.1536   -0.1024 H   0  0  0  0  0  0  0  0  0  0  0  0
   -2.8852   -6.5417   -0.4749 H   0  0  0  0  0  0  0  0  0  0  0  0
   -1.4805   -2.3409    0.5295 H   0  0  0  0  0  0  0  0  0  0  0  0
   -1.4762   -0.7347    1.1113 H   0  0  0  0  0  0  0  0  0  0  0  0
   -7.6131   -8.4465    1.3022 H   0  0  0  0  0  0  0  0  0  0  0  0
   -6.0357   -7.9161    0.8646 H   0  0  0  0  0  0  0  0  0  0  0  0
   -1.4605   -1.4365   -3.1292 H   0  0  0  0  0  0  0  0  0  0  0  0
   -0.0273   -1.7987   -2.1510 H   0  0  0  0  0  0  0  0  0  0  0  0
   -4.6637  -10.7448    0.9822 H   0  0  0  0  0  0  0  0  0  0  0  0
   -4.2892  -10.7304    2.7805 H   0  0  0  0  0  0  0  0  0  0  0  0
   -1.3932   -4.9114   -3.2844 H   0  0  0  0  0  0  0  0  0  0  0  0
   -1.4583   -3.7536   -4.0470 H   0  0  0  0  0  0  0  0  0  0  0  0
   -2.0861   -9.8876    3.1540 H   0  0  0  0  0  0  0  0  0  0  0  0
   -1.1113   -9.6119    1.9709 H   0  0  0  0  0  0  0  0  0  0  0  0
    2.2834   -4.4965   -1.6757 H   0  0  0  0  0  0  0  0  0  0  0  0
    0.7991   -3.8648   -1.0000 H   0  0  0  0  0  0  0  0  0  0  0  0
   -3.1194   -9.7795   -0.6572 H   0  0  0  0  0  0  0  0  0  0  0  0
   -1.9014  -10.8562   -1.2653 H   0  0  0  0  0  0  0  0  0  0  0  0
    1.2382   -8.1201    0.0738 H   0  0  0  0  0  0  0  0  0  0  0  0
    2.7742   -7.0853    0.0387 H   0  0  0  0  0  0  0  0  0  0  0  0
   -2.4888   -8.1360   -2.3843 H   0  0  0  0  0  0  0  0  0  0  0  0
   -0.5913   -7.9929   -1.4336 H   0  0  0  0  0  0  0  0  0  0  0  0
   -0.6169   -5.4833    2.4909 H   0  0  0  0  0  0  0  0  0  0  0  0
   -0.4804   -6.1247    0.1914 H   0  0  0  0  0  0  0  0  0  0  0  0
   -1.6829   -7.9040    0.1683 H   0  0  0  0  0  0  0  0  0  0  0  0
   -2.2527   -5.7649    1.8064 H   0  0  0  0  0  0  0  0  0  0  0  0
   -3.6449   -7.5753    1.3742 H   0  0  0  0  0  0  0  0  0  0  0  0
   -4.1401   -6.2239    1.7557 H   0  0  0  0  0  0  0  0  0  0  0  0
    0.4434   -4.6759    2.4818 H   0  0  0  0  0  0  0  0  0  0  0  0
    0.3702   -3.6257    0.6128 H   0  0  0  0  0  0  0  0  0  0  0  0
   -5.3790   -6.6070   -0.0760 H   0  0  0  0  0  0  0  0  0  0  0  0
   -4.1678   -5.3658   -0.2084 H   0  0  0  0  0  0  0  0  0  0  0  0
    0.2616   -6.8540   -0.5412 H   0  0  0  0  0  0  0  0  0  0  0  0
    1.8369   -5.4260   -0.3409 H   0  0  0  0  0  0  0  0  0  0  0  0
   -1.2753   -7.1730   -0.7605 H   0  0  0  0  0  0  0  0  0  0  0  0
   -1.1597   -7.5252   -2.6498 H   0  0  0  0  0  0  0  0  0  0  0  0
   -1.3221   -3.8867   -0.1361 H   0  0  0  0  0  0  0  0  0  0  0  0
   -2.8457   -4.5104   -0.6302 H   0  0  0  0  0  0  0  0  0  0  0  0
    0.8051   -2.0482   -0.4318 H   0  0  0  0  0  0  0  0  0  0  0  0
   -5.6129   -9.9348   -0.4694 H   0  0  0  0  0  0  0  0  0  0  0  0
    0.7217   -8.1661    1.4166 H   0  0  0  0  0  0  0  0  0  0  0  0
   -3.4335   -5.4038    2.5311 H   0  0  0  0  0  0  0  0  0  0  0  0
  1 58  1  0  0  0  0
  1 59  1  0  0  0  0
  1 60  1  0  0  0  0
  2 61  1  0  0  0  0
  2 62  1  0  0  0  0
  2 63  1  0  0  0  0
  3 64  1  0  0  0  0
  3 65  1  0  0  0  0
  3 66  1  0  0  0  0
  4 67  1  0  0  0  0
  4 68  1  0  0  0  0
  4 69  1  0  0  0  0
  5 70  1  0  0  0  0
  5 71  1  0  0  0  0
  5 72  1  0  0  0  0
  6 73  1  0  0  0  0
  6 74  1  0  0  0  0
  6 75  1  0  0  0  0
  7 76  1  0  0  0  0
  7 77  1  0  0  0  0
  7 78  1  0  0  0  0
  8 79  1  0  0  0  0
  8 80  1  0  0  0  0
  8 81  1  0  0  0  0
  9 82  1  0  0  0  0
  9 83  1  0  0  0  0
  9 84  1  0  0  0  0
 10 85  1  0  0  0  0
 10 86  1  0  0  0  0
 10 87  1  0  0  0  0
 11 88  1  0  0  0  0
 11 89  1  0  0  0  0
 12 90  1  0  0  0  0
 12 91  1  0  0  0  0
 13 92  1  0  0  0  0
 13 93  1  0  0  0  0
 14 94  1  0  0  0  0
 14 95  1  0  0  0  0
 15 96  1  0  0  0  0
 15 97  1  0  0  0  0
 16 98  1  0  0  0  0
 16 99  1  0  0  0  0
 17 11  1  0  0  0  0
 17100  1  0  0  0  0
 17101  1  0  0  0  0
 18 12  1  0  0  0  0
 18102  1  0  0  0  0
 18103  1  0  0  0  0
 19 11  1  0  0  0  0
 19104  1  0  0  0  0
 19105  1  0  0  0  0
 20 12  1  0  0  0  0
 20106  1  0  0  0  0
 20107  1  0  0  0  0
 21 13  1  0  0  0  0
 21108  1  0  0  0  0
 21109  1  0  0  0  0
 22 14  1  0  0  0  0
 22110  1  0  0  0  0
 22111  1  0  0  0  0
 23 13  1  0  0  0  0
 23112  1  0  0  0  0
 23113  1  0  0  0  0
 24 14  1  0  0  0  0
 24114  1  0  0  0  0
 24115  1  0  0  0  0
 25 15  1  0  0  0  0
 25116  1  0  0  0  0
 25117  1  0  0  0  0
 26 16  1  0  0  0  0
 26118  1  0  0  0  0
 26119  1  0  0  0  0
 27 15  1  0  0  0  0
 27120  1  0  0  0  0
 27121  1  0  0  0  0
 28 16  1  0  0  0  0
 28122  1  0  0  0  0
 28123  1  0  0  0  0
 29124  1  0  0  0  0
 29125  1  0  0  0  0
 30126  1  0  0  0  0
 30127  1  0  0  0  0
 31 29  1  0  0  0  0
 31128  1  0  0  0  0
 31129  1  0  0  0  0
 32 30  1  0  0  0  0
 32130  1  0  0  0  0
 32131  1  0  0  0  0
 33132  1  0  0  0  0
 33133  1  0  0  0  0
 34134  1  0  0  0  0
 34135  1  0  0  0  0
 35  1  1  0  0  0  0
 35  2  1  0  0  0  0
 35 17  1  0  0  0  0
 35136  1  0  0  0  0
 36  3  1  0  0  0  0
 36  4  1  0  0  0  0
 36 18  1  0  0  0  0
 36137  1  0  0  0  0
 37  5  1  0  0  0  0
 37 19  1  0  0  0  0
 37 21  1  0  0  0  0
 37 51  1  1  0  0  0
 38 22  1  0  0  0  0
 38 52  1  6  0  0  0
 38 20  1  0  0  0  0
 38  6  1  0  0  0  0
 39  7  1  0  0  0  0
 39 23  1  0  0  0  0
 39 25  1  0  0  0  0
 39 53  1  1  0  0  0
 40 26  1  0  0  0  0
 40 54  1  1  0  0  0
 40 24  1  0  0  0  0
 40  8  1  0  0  0  0
 41  9  1  0  0  0  0
 41 27  1  0  0  0  0
 41 29  1  0  0  0  0
 41 55  1  6  0  0  0
 42 30  1  0  0  0  0
 42 56  1  6  0  0  0
 42 28  1  0  0  0  0
 42 10  1  0  0  0  0
 43 33  1  0  0  0  0
 43 34  1  0  0  0  0
 43 48  1  0  0  0  0
 43 57  1  6  0  0  0
 44138  1  0  0  0  0
 45139  1  0  0  0  0
 47 31  1  0  0  0  0
 47 33  1  0  0  0  0
 48 32  1  0  0  0  0
 49 34  1  0  0  0  0
 50 44  1  0  0  0  0
 50 45  1  0  0  0  0
 50 46  2  0  0  0  0
 50 49  1  0  0  0  0
M  END
>  <DRUGBANK_ID>
DB03402

>  <SECONDARY_ACCESSION_NUMBERS>
EXPT01989

>  <COMMON_NAME>
1,2-Di-1-(3,7,11,15-Tetramethyl-Hexadecane)-Sn-Glycero-3-Phosphate

$$$$
