HQL
 OpenBabel10282417163D

 55 58  0  0  0  0  0  0  0  0999 V2000
    1.8197    0.3888    0.5211 C   0  0  0  0  0  0  0  0  0  0  0  0
    0.9950   -0.6998    0.5795 C   0  0  0  0  0  0  0  0  0  0  0  0
   -0.2654   -0.4511    0.1056 C   0  0  0  0  0  0  0  0  0  0  0  0
   -0.9859    0.7449   -0.0638 C   0  0  0  0  0  0  0  0  0  0  0  0
   -2.5425    0.7757   -0.2115 C   0  0  0  0  0  0  0  0  0  0  0  0
   -3.2228    1.2073    0.9946 O   0  0  0  0  0  0  0  0  0  0  0  0
   -3.2911    0.3720    2.1854 C   0  0  0  0  0  0  0  0  0  0  0  0
   -1.9608   -0.1877    2.6789 C   0  0  0  0  0  0  0  0  0  0  0  0
   -1.7573   -1.5420    1.9651 C   0  0  0  0  0  0  0  0  0  0  0  0
   -2.6440   -2.5718    1.4106 N   0  0  0  0  0  0  0  0  0  0  0  0
   -2.0720   -3.2749    0.1436 C   0  0  0  0  0  0  0  0  0  0  0  0
   -2.1589   -2.8286   -1.4309 C   0  0  0  0  0  0  0  0  0  0  0  0
   -1.1534   -1.8914   -2.1962 C   0  0  0  0  0  0  0  0  0  0  0  0
    0.3059   -2.2047   -2.1103 C   0  0  0  0  0  0  0  0  0  0  0  0
    1.3131   -1.2534   -2.1832 N   0  0  0  0  0  0  0  0  0  0  0  0
    2.4849   -1.8133   -1.8316 N   0  0  0  0  0  0  0  0  0  0  0  0
    2.1899   -3.0633   -1.5112 N   0  0  0  0  0  0  0  0  0  0  0  0
    0.8543   -3.3244   -1.6972 N   0  0  0  0  0  0  0  0  0  0  0  0
   -3.9775   -1.9941    1.2068 C   0  0  0  0  0  0  0  0  0  0  0  0
   -4.2913   -0.8156    2.1692 C   0  0  0  0  0  0  0  0  0  0  0  0
   -3.0257    1.5378   -1.4573 C   0  0  0  0  0  0  0  0  0  0  0  0
   -2.8580    0.9977   -2.7498 C   0  0  0  0  0  0  0  0  0  0  0  0
   -3.0835    1.7276   -3.9093 C   0  0  0  0  0  0  0  0  0  0  0  0
   -3.6511    2.9807   -3.7986 C   0  0  0  0  0  0  0  0  0  0  0  0
   -4.0080    3.4666   -2.5386 C   0  0  0  0  0  0  0  0  0  0  0  0
   -3.6634    2.7716   -1.3730 C   0  0  0  0  0  0  0  0  0  0  0  0
   -0.1580    1.8415    0.0595 C   0  0  0  0  0  0  0  0  0  0  0  0
    1.2339    1.6239    0.2209 C   0  0  0  0  0  0  0  0  0  0  0  0
    2.8737    0.1910    0.6093 H   0  0  0  0  0  0  0  0  0  0  0  0
    1.3145   -1.7234    0.7557 H   0  0  0  0  0  0  0  0  0  0  0  0
   -0.7369   -1.4087   -0.0703 H   0  0  0  0  0  0  0  0  0  0  0  0
   -2.9405   -0.2146   -0.4302 H   0  0  0  0  0  0  0  0  0  0  0  0
   -3.6235    1.0782    2.9587 H   0  0  0  0  0  0  0  0  0  0  0  0
   -1.1783    0.5453    2.4177 H   0  0  0  0  0  0  0  0  0  0  0  0
   -1.8810   -0.2999    3.7591 H   0  0  0  0  0  0  0  0  0  0  0  0
   -1.8994   -1.0532    1.0521 H   0  0  0  0  0  0  0  0  0  0  0  0
   -0.7443   -1.9074    2.1365 H   0  0  0  0  0  0  0  0  0  0  0  0
   -1.0291   -3.5578    0.3494 H   0  0  0  0  0  0  0  0  0  0  0  0
   -2.6116   -4.2299    0.1527 H   0  0  0  0  0  0  0  0  0  0  0  0
   -2.1229   -3.7584   -2.0131 H   0  0  0  0  0  0  0  0  0  0  0  0
   -3.1609   -2.4174   -1.5989 H   0  0  0  0  0  0  0  0  0  0  0  0
   -1.4008   -1.7562   -3.2564 H   0  0  0  0  0  0  0  0  0  0  0  0
   -1.3332   -0.8965   -1.8273 H   0  0  0  0  0  0  0  0  0  0  0  0
    1.2451   -0.2381   -2.1539 H   0  0  0  0  0  0  0  0  0  0  0  0
   -4.6996   -2.8004    1.3530 H   0  0  0  0  0  0  0  0  0  0  0  0
   -4.1151   -1.6474    0.1836 H   0  0  0  0  0  0  0  0  0  0  0  0
   -4.2848   -1.2326    3.1886 H   0  0  0  0  0  0  0  0  0  0  0  0
   -5.2961   -0.4468    1.9652 H   0  0  0  0  0  0  0  0  0  0  0  0
   -2.5767   -0.0260   -2.9092 H   0  0  0  0  0  0  0  0  0  0  0  0
   -2.8340    1.2982   -4.8773 H   0  0  0  0  0  0  0  0  0  0  0  0
   -3.8434    3.5615   -4.6944 H   0  0  0  0  0  0  0  0  0  0  0  0
   -4.5508    4.4028   -2.4604 H   0  0  0  0  0  0  0  0  0  0  0  0
   -3.9090    3.1902   -0.4006 H   0  0  0  0  0  0  0  0  0  0  0  0
   -0.5840    2.8302    0.0132 H   0  0  0  0  0  0  0  0  0  0  0  0
    1.9101    2.4634    0.0824 H   0  0  0  0  0  0  0  0  0  0  0  0
  1  2  1  0  0  0  0
  1 28  2  0  0  0  0
  1 29  1  0  0  0  0
  2  3  2  0  0  0  0
  2 30  1  0  0  0  0
  3  4  1  0  0  0  0
  3 31  1  0  0  0  0
  4  5  1  0  0  0  0
  4 27  2  0  0  0  0
  5  6  1  0  0  0  0
  5 21  1  0  0  0  0
  5 32  1  0  0  0  0
  6  7  1  0  0  0  0
  7  8  1  0  0  0  0
  7 20  1  0  0  0  0
  7 33  1  0  0  0  0
  8  9  1  0  0  0  0
  8 34  1  0  0  0  0
  8 35  1  0  0  0  0
  9 10  1  0  0  0  0
  9 36  1  0  0  0  0
  9 37  1  0  0  0  0
 10 11  1  0  0  0  0
 10 19  1  0  0  0  0
 11 12  1  0  0  0  0
 11 38  1  0  0  0  0
 11 39  1  0  0  0  0
 12 13  1  0  0  0  0
 12 40  1  0  0  0  0
 12 41  1  0  0  0  0
 13 14  1  0  0  0  0
 13 42  1  0  0  0  0
 13 43  1  0  0  0  0
 14 15  1  0  0  0  0
 14 18  2  0  0  0  0
 15 16  1  0  0  0  0
 15 44  1  0  0  0  0
 16 17  2  0  0  0  0
 17 18  1  0  0  0  0
 19 20  1  0  0  0  0
 19 45  1  0  0  0  0
 19 46  1  0  0  0  0
 20 47  1  0  0  0  0
 20 48  1  0  0  0  0
 21 22  2  0  0  0  0
 21 26  1  0  0  0  0
 22 23  1  0  0  0  0
 22 49  1  0  0  0  0
 23 24  2  0  0  0  0
 23 50  1  0  0  0  0
 24 25  1  0  0  0  0
 24 51  1  0  0  0  0
 25 26  2  0  0  0  0
 25 52  1  0  0  0  0
 26 53  1  0  0  0  0
 27 28  1  0  0  0  0
 27 54  1  0  0  0  0
 28 55  1  0  0  0  0
M  END
>  <DRUGBANK_ID>
DB07917

>  <COMMON_NAME>
4-(BENZHYDRYLOXY)-1-[3-(1H-TETRAAZOL-5-YL)PROPYL]PIPERIDINE

$$$$
