
 OpenBabel10282417233D

 73 75  0  0  1  0  0  0  0  0999 V2000
    4.1335   -0.7551    5.3793 C   0  0  1  0  0  0  0  0  0  0  0  0
    3.1265   -0.0062    4.6138 N   0  0  0  0  0  0  0  0  0  0  0  0
    1.6963   -0.2619    4.8379 C   0  0  0  0  0  0  0  0  0  0  0  0
    0.8139    0.6028    3.9525 C   0  0  2  0  0  0  0  0  0  0  0  0
    1.3179    0.5408    2.5198 C   0  0  0  0  0  0  0  0  0  0  0  0
    1.0300    1.8614    1.8245 C   0  0  0  0  0  0  0  0  0  0  0  0
    1.8398    2.2792    0.8587 C   0  0  0  0  0  0  0  0  0  0  0  0
    1.5204    3.3844    0.1074 C   0  0  0  0  0  0  0  0  0  0  0  0
    0.4122    4.1325    0.3930 C   0  0  0  0  0  0  0  0  0  0  0  0
   -0.4054    3.6453    1.3085 C   0  0  0  0  0  0  0  0  0  0  0  0
   -0.0740    2.6048    2.2083 C   0  0  0  0  0  0  0  0  0  0  0  0
    0.8563    1.9935    4.4271 N   0  0  0  0  0  0  0  0  0  0  0  0
   -0.3801    2.6605    4.8598 C   0  0  0  0  0  0  0  0  0  0  0  0
   -0.3434    3.8627    5.2701 O   0  0  0  0  0  0  0  0  0  0  0  0
   -1.7025    1.9122    4.8166 C   0  0  0  0  0  0  0  0  0  0  0  0
   -1.7545    0.6210    5.2889 C   0  0  0  0  0  0  0  0  0  0  0  0
   -2.8850   -0.0882    5.3031 N   0  0  0  0  0  0  0  0  0  0  0  0
   -3.9884    0.5078    4.8139 C   0  0  0  0  0  0  0  0  0  0  0  0
   -3.8944    1.8053    4.3304 C   0  0  0  0  0  0  0  0  0  0  0  0
   -2.7714    2.5233    4.3265 N   0  0  0  0  0  0  0  0  0  0  0  0
    1.3321   -1.1287    5.6930 O   0  0  0  0  0  0  0  0  0  0  0  0
    5.3047   -1.1000    4.4739 C   0  0  0  0  0  0  0  0  0  0  0  0
    6.5011   -1.7764    5.1231 C   0  0  0  0  0  0  0  0  0  0  0  0
    6.1671   -3.2314    5.4091 C   0  0  0  0  0  0  0  0  0  0  0  0
    7.6944   -1.7056    4.1842 C   0  0  0  0  0  0  0  0  0  0  0  0
    4.6494    0.1403    6.6008 B   0  0  0  0  0  0  0  0  0  0  0  0
    5.9139    0.6058    6.8073 O   0  0  0  0  0  0  0  0  0  0  0  0
    5.8903    1.4165    8.0035 C   0  0  1  0  0  0  0  0  0  0  0  0
    4.5506    1.0623    8.6843 C   0  0  2  0  0  0  0  0  0  0  0  0
    3.8005    0.3771    7.6482 O   0  0  0  0  0  0  0  0  0  0  0  0
    3.8247    2.3194    9.1350 C   0  0  1  0  0  0  0  0  0  0  0  0
    2.7579    1.5902    9.9353 C   0  0  0  0  0  0  0  0  0  0  0  0
    3.3292    1.0802   11.1311 O   0  0  0  0  0  0  0  0  0  0  0  0
    4.3443    3.3924    9.9064 O   0  0  0  0  0  0  0  0  0  0  0  0
    4.6802    0.4648    9.5623 H   0  0  0  0  0  0  0  0  0  0  0  0
    7.0847    1.1510    8.9053 C   0  0  1  0  0  0  0  0  0  0  0  0
    8.3662    1.4917    8.1622 C   0  0  0  0  0  0  0  0  0  0  0  0
    8.3483    2.8623    7.7916 O   0  0  0  0  0  0  0  0  0  0  0  0
    6.9855    1.9554   10.0713 O   0  0  0  0  0  0  0  0  0  0  0  0
    5.9253    2.4569    7.7560 H   0  0  0  0  0  0  0  0  0  0  0  0
    3.6971   -1.6561    5.7568 H   0  0  0  0  0  0  0  0  0  0  0  0
    3.4188    0.6895    3.9276 H   0  0  0  0  0  0  0  0  0  0  0  0
   -0.1930    0.2430    3.9922 H   0  0  0  0  0  0  0  0  0  0  0  0
    2.3725    0.3597    2.5188 H   0  0  0  0  0  0  0  0  0  0  0  0
    0.8195   -0.2514    2.0013 H   0  0  0  0  0  0  0  0  0  0  0  0
    2.7493    1.7504    0.6637 H   0  0  0  0  0  0  0  0  0  0  0  0
    2.1480    3.6636   -0.7131 H   0  0  0  0  0  0  0  0  0  0  0  0
    0.2178    5.0627   -0.0988 H   0  0  0  0  0  0  0  0  0  0  0  0
   -1.3867    4.0667    1.3745 H   0  0  0  0  0  0  0  0  0  0  0  0
   -0.6260    2.4099    3.1039 H   0  0  0  0  0  0  0  0  0  0  0  0
    1.7437    2.4956    4.4561 H   0  0  0  0  0  0  0  0  0  0  0  0
   -0.8572    0.1696    5.6578 H   0  0  0  0  0  0  0  0  0  0  0  0
   -4.9241   -0.0111    4.7981 H   0  0  0  0  0  0  0  0  0  0  0  0
   -4.7798    2.2582    3.9357 H   0  0  0  0  0  0  0  0  0  0  0  0
    5.0674   -1.5982    3.5572 H   0  0  0  0  0  0  0  0  0  0  0  0
    5.5399   -0.0757    4.2726 H   0  0  0  0  0  0  0  0  0  0  0  0
    6.7385   -1.2781    6.0398 H   0  0  0  0  0  0  0  0  0  0  0  0
    5.9297   -3.7296    4.4924 H   0  0  0  0  0  0  0  0  0  0  0  0
    7.0093   -3.7075    5.8661 H   0  0  0  0  0  0  0  0  0  0  0  0
    5.3271   -3.2812    6.0700 H   0  0  0  0  0  0  0  0  0  0  0  0
    7.9296   -0.6813    3.9829 H   0  0  0  0  0  0  0  0  0  0  0  0
    8.5366   -2.1817    4.6413 H   0  0  0  0  0  0  0  0  0  0  0  0
    7.4570   -2.2038    3.2676 H   0  0  0  0  0  0  0  0  0  0  0  0
    3.3941    2.7037    8.2339 H   0  0  0  0  0  0  0  0  0  0  0  0
    1.9680    2.2696   10.1789 H   0  0  0  0  0  0  0  0  0  0  0  0
    2.3663    0.7816    9.3541 H   0  0  0  0  0  0  0  0  0  0  0  0
    4.0674    0.4452   10.9035 H   0  0  0  0  0  0  0  0  0  0  0  0
    4.7466    3.0333   10.7485 H   0  0  0  0  0  0  0  0  0  0  0  0
    7.0981    0.1182    9.1845 H   0  0  0  0  0  0  0  0  0  0  0  0
    9.2070    1.3048    8.7970 H   0  0  0  0  0  0  0  0  0  0  0  0
    8.4409    0.8856    7.2836 H   0  0  0  0  0  0  0  0  0  0  0  0
    7.5625    3.0370    7.1983 H   0  0  0  0  0  0  0  0  0  0  0  0
    6.9730    2.9206    9.8103 H   0  0  0  0  0  0  0  0  0  0  0  0
  1 26  1  0  0  0  0
  1 41  1  1  0  0  0
  1 22  1  0  0  0  0
  1  2  1  0  0  0  0
  2  3  1  0  0  0  0
  2 42  1  0  0  0  0
  3 21  2  0  0  0  0
  4 12  1  0  0  0  0
  4 43  1  1  0  0  0
  4  5  1  0  0  0  0
  4  3  1  0  0  0  0
  5  6  1  0  0  0  0
  5 44  1  0  0  0  0
  5 45  1  0  0  0  0
  6  7  2  0  0  0  0
  6 11  1  0  0  0  0
  7  8  1  0  0  0  0
  7 46  1  0  0  0  0
  8  9  2  0  0  0  0
  8 47  1  0  0  0  0
  9 48  1  0  0  0  0
 10  9  1  0  0  0  0
 10 49  1  0  0  0  0
 11 10  2  0  0  0  0
 11 50  1  0  0  0  0
 12 13  1  0  0  0  0
 12 51  1  0  0  0  0
 13 14  2  0  0  0  0
 13 15  1  0  0  0  0
 15 16  1  0  0  0  0
 15 20  2  0  0  0  0
 16 17  2  0  0  0  0
 16 52  1  0  0  0  0
 17 18  1  0  0  0  0
 18 53  1  0  0  0  0
 19 18  2  0  0  0  0
 19 54  1  0  0  0  0
 20 19  1  0  0  0  0
 22 23  1  0  0  0  0
 22 55  1  0  0  0  0
 22 56  1  0  0  0  0
 23 24  1  0  0  0  0
 23 25  1  0  0  0  0
 23 57  1  0  0  0  0
 24 58  1  0  0  0  0
 24 59  1  0  0  0  0
 24 60  1  0  0  0  0
 25 61  1  0  0  0  0
 25 62  1  0  0  0  0
 25 63  1  0  0  0  0
 26 27  1  0  0  0  0
 26 30  1  0  0  0  0
 27 28  1  0  0  0  0
 28 29  1  0  0  0  0
 28 36  1  0  0  0  0
 28 40  1  6  0  0  0
 29 35  1  1  0  0  0
 29 31  1  0  0  0  0
 30 29  1  0  0  0  0
 31 32  1  0  0  0  0
 31 34  1  0  0  0  0
 31 64  1  6  0  0  0
 32 33  1  0  0  0  0
 32 65  1  0  0  0  0
 32 66  1  0  0  0  0
 33 67  1  0  0  0  0
 34 68  1  0  0  0  0
 36 37  1  0  0  0  0
 36 39  1  0  0  0  0
 36 69  1  1  0  0  0
 37 38  1  0  0  0  0
 37 70  1  0  0  0  0
 37 71  1  0  0  0  0
 38 72  1  0  0  0  0
 39 73  1  0  0  0  0
M  END
>  <DRUGBANK_ID>
DB16741

>  <COMMON_NAME>
Bortezomib D-mannitol

>  <CAS_NUMBER>
444576-08-3

>  <UNII>
P2AWN9VSQ6

>  <SYNONYMS>
Bortezomib D-mannitol ester; Bortezomib D-mannitol symmetrical ester; Bortezomib mannitol boronic ester

$$$$
