
 OpenBabel10282417143D

 35 35  0  0  0  0  0  0  0  0999 V2000
    0.9206   -0.0786    0.0658 N   0  0  0  0  0  0  0  0  0  0  0  0
   -1.3399    2.0990   -2.2528 C   0  0  0  0  0  0  0  0  0  0  0  0
    0.8571    3.4101   -1.5693 C   0  0  0  0  0  0  0  0  0  0  0  0
    0.6278    0.8560   -1.0361 C   0  0  0  0  0  0  0  0  0  0  0  0
   -0.6827    3.4386   -1.8169 C   0  0  0  0  0  0  0  0  0  0  0  0
   -0.8971    0.9771   -1.2599 C   0  0  0  0  0  0  0  0  0  0  0  0
    1.1990    2.2339   -0.6210 C   0  0  0  0  0  0  0  0  0  0  0  0
   -2.8831    2.2092   -2.1722 C   0  0  0  0  0  0  0  0  0  0  0  0
   -1.1072    1.8054   -3.7520 C   0  0  0  0  0  0  0  0  0  0  0  0
    1.7025    3.4005   -2.8575 C   0  0  0  0  0  0  0  0  0  0  0  0
    1.2788    4.7337   -0.8831 C   0  0  0  0  0  0  0  0  0  0  0  0
    1.3025    0.2352   -2.2607 C   0  0  0  0  0  0  0  0  0  0  0  0
    0.6193   -1.0284   -0.2002 H   0  0  0  0  0  0  0  0  0  0  0  0
    1.9308   -0.1546    0.1789 H   0  0  0  0  0  0  0  0  0  0  0  0
   -0.9372    4.2346   -2.5260 H   0  0  0  0  0  0  0  0  0  0  0  0
   -1.1568    3.7317   -0.8656 H   0  0  0  0  0  0  0  0  0  0  0  0
   -1.3596    1.1999   -0.2810 H   0  0  0  0  0  0  0  0  0  0  0  0
   -1.3190    0.0100   -1.5609 H   0  0  0  0  0  0  0  0  0  0  0  0
    2.2841    2.1728   -0.4668 H   0  0  0  0  0  0  0  0  0  0  0  0
    0.7825    2.4815    0.3720 H   0  0  0  0  0  0  0  0  0  0  0  0
   -3.2554    2.9881   -2.8486 H   0  0  0  0  0  0  0  0  0  0  0  0
   -3.3457    1.2630   -2.4847 H   0  0  0  0  0  0  0  0  0  0  0  0
   -3.2377    2.4409   -1.1651 H   0  0  0  0  0  0  0  0  0  0  0  0
   -0.0922    1.9123   -4.1093 H   0  0  0  0  0  0  0  0  0  0  0  0
   -1.4440    0.7961   -4.0116 H   0  0  0  0  0  0  0  0  0  0  0  0
   -1.6661    2.5154   -4.3742 H   0  0  0  0  0  0  0  0  0  0  0  0
    1.4380    4.2483   -3.4985 H   0  0  0  0  0  0  0  0  0  0  0  0
    2.7701    3.4741   -2.6191 H   0  0  0  0  0  0  0  0  0  0  0  0
    1.6210    2.5198   -3.4757 H   0  0  0  0  0  0  0  0  0  0  0  0
    0.7685    4.8937    0.0703 H   0  0  0  0  0  0  0  0  0  0  0  0
    2.3593    4.7397   -0.6882 H   0  0  0  0  0  0  0  0  0  0  0  0
    1.0622    5.5906   -1.5327 H   0  0  0  0  0  0  0  0  0  0  0  0
    2.3963    0.2442   -2.1712 H   0  0  0  0  0  0  0  0  0  0  0  0
    0.9648   -0.7975   -2.4189 H   0  0  0  0  0  0  0  0  0  0  0  0
    1.0608    0.7299   -3.1734 H   0  0  0  0  0  0  0  0  0  0  0  0
  1  4  1  0  0  0  0
  1 13  1  0  0  0  0
  1 14  1  0  0  0  0
  2  5  1  0  0  0  0
  2  6  1  0  0  0  0
  2  8  1  0  0  0  0
  2  9  1  0  0  0  0
  3  5  1  0  0  0  0
  3  7  1  0  0  0  0
  3 10  1  0  0  0  0
  3 11  1  0  0  0  0
  4  6  1  0  0  0  0
  4  7  1  0  0  0  0
  4 12  1  0  0  0  0
  5 15  1  0  0  0  0
  5 16  1  0  0  0  0
  6 17  1  0  0  0  0
  6 18  1  0  0  0  0
  7 19  1  0  0  0  0
  7 20  1  0  0  0  0
  8 21  1  0  0  0  0
  8 22  1  0  0  0  0
  8 23  1  0  0  0  0
  9 24  1  0  0  0  0
  9 25  1  0  0  0  0
  9 26  1  0  0  0  0
 10 27  1  0  0  0  0
 10 28  1  0  0  0  0
 10 29  1  0  0  0  0
 11 30  1  0  0  0  0
 11 31  1  0  0  0  0
 11 32  1  0  0  0  0
 12 33  1  0  0  0  0
 12 34  1  0  0  0  0
 12 35  1  0  0  0  0
M  END
>  <DRUGBANK_ID>
DB04926

>  <COMMON_NAME>
Neramexane

>  <CAS_NUMBER>
219810-59-0

>  <UNII>
856DX0KJ84

>  <SYNONYMS>
Neramexane

$$$$
