
 OpenBabel10282417123D

 85 87  0  0  0  0  0  0  0  0999 V2000
    7.8366    6.7494   -3.2300 C   0  0  2  0  0  0  0  0  0  0  0  0
    7.4437    7.0588   -1.7752 C   0  0  0  0  0  0  0  0  0  0  0  0
    6.6999    3.1647   -3.7027 C   0  0  0  0  0  0  0  0  0  0  0  0
    7.0993    4.3133   -3.1021 N   0  0  0  0  0  0  0  0  0  0  0  0
    9.9202    7.5243   -4.2960 C   0  0  0  0  0  0  0  0  0  0  0  0
    7.1096    5.5783    0.9474 C   0  0  0  0  0  0  0  0  0  0  0  0
    6.4346    6.2864   -1.2340 N   0  0  0  0  0  0  0  0  0  0  0  0
    7.0666    5.5791   -3.8560 C   0  0  3  0  0  0  0  0  0  0  0  0
    9.2989    6.6744   -3.4210 N   0  0  0  0  0  0  0  0  0  0  0  0
    5.9813    2.2698   -3.1340 N   0  0  0  0  0  0  0  0  0  0  0  0
    6.0942    6.4144    0.1717 C   0  0  1  0  0  0  0  0  0  0  0  0
   11.2842    7.4248   -4.3275 N   0  0  0  0  0  0  0  0  0  0  0  0
   12.0646    8.3156   -5.2142 C   0  0  2  0  0  0  0  0  0  0  0  0
   11.6215    9.7909   -5.0771 C   0  0  0  0  0  0  0  0  0  0  0  0
    7.5264    6.1247    2.1556 N   0  0  0  0  0  0  0  0  0  0  0  0
    7.0953    3.0800   -4.9947 N   0  0  0  0  0  0  0  0  0  0  0  0
    7.9746    7.9641   -1.1316 O   0  0  0  0  0  0  0  0  0  0  0  0
    9.3058    8.3412   -4.9730 O   0  0  0  0  0  0  0  0  0  0  0  0
    7.5363    4.5172    0.4890 O   0  0  0  0  0  0  0  0  0  0  0  0
   12.1154    7.8675   -6.6900 C   0  0  0  0  0  0  0  0  0  0  0  0
   11.5373   10.6454   -5.9601 O   0  0  0  0  0  0  0  0  0  0  0  0
    4.6605    5.9534    0.4085 C   0  0  0  0  0  0  0  0  0  0  0  0
    8.8573    5.7854    2.6429 C   0  0  2  0  0  0  0  0  0  0  0  0
    8.3372    3.4599    3.2270 O   0  0  0  0  0  0  0  0  0  0  0  0
    7.4795    5.3877   -5.3146 C   0  0  0  0  0  0  0  0  0  0  0  0
    8.9999    4.2636    2.5804 C   0  0  0  0  0  0  0  0  0  0  0  0
    6.7444    4.1881   -5.8611 C   0  0  0  0  0  0  0  0  0  0  0  0
   11.4299   10.1799   -3.8017 O   0  0  0  0  0  0  0  0  0  0  0  0
    9.1116    6.2864    4.0750 C   0  0  0  0  0  0  0  0  0  0  0  0
   12.9643    8.7449   -7.6011 C   0  0  0  0  0  0  0  0  0  0  0  0
   10.4675    5.9394    4.6682 C   0  0  0  0  0  0  0  0  0  0  0  0
    4.1908    6.1581    1.8552 C   0  0  0  0  0  0  0  0  0  0  0  0
   14.0462    9.5047   -7.1197 C   0  0  0  0  0  0  0  0  0  0  0  0
   12.6463    8.8358   -8.9630 C   0  0  0  0  0  0  0  0  0  0  0  0
   10.8366    6.4989    5.8939 C   0  0  0  0  0  0  0  0  0  0  0  0
   11.3071    4.9528    4.1295 C   0  0  0  0  0  0  0  0  0  0  0  0
    4.3429    7.6172    2.2869 C   0  0  0  0  0  0  0  0  0  0  0  0
    2.7291    5.7402    1.9951 C   0  0  0  0  0  0  0  0  0  0  0  0
   13.3978    9.6506   -9.8142 C   0  0  0  0  0  0  0  0  0  0  0  0
   14.7422   10.3777   -7.9537 C   0  0  0  0  0  0  0  0  0  0  0  0
   12.3271    4.3725    4.8658 C   0  0  0  0  0  0  0  0  0  0  0  0
   11.9478    6.0049    6.5841 C   0  0  0  0  0  0  0  0  0  0  0  0
   12.6692    4.9196    6.0864 C   0  0  0  0  0  0  0  0  0  0  0  0
   14.4197   10.4483   -9.3029 C   0  0  0  0  0  0  0  0  0  0  0  0
    7.4797    7.6373   -3.7720 H   0  0  0  0  0  0  0  0  0  0  0  0
    7.7541    4.1929   -2.3285 H   0  0  0  0  0  0  0  0  0  0  0  0
    6.2422    5.3749   -1.6483 H   0  0  0  0  0  0  0  0  0  0  0  0
    6.0016    5.8517   -3.8457 H   0  0  0  0  0  0  0  0  0  0  0  0
    9.8165    5.9347   -2.9734 H   0  0  0  0  0  0  0  0  0  0  0  0
    5.7307    2.5875   -2.1922 H   0  0  0  0  0  0  0  0  0  0  0  0
    6.2297    7.4636    0.4337 H   0  0  0  0  0  0  0  0  0  0  0  0
   11.7402    6.6138   -3.9382 H   0  0  0  0  0  0  0  0  0  0  0  0
   13.0845    8.2623   -4.8100 H   0  0  0  0  0  0  0  0  0  0  0  0
    7.2077    7.0591    2.3761 H   0  0  0  0  0  0  0  0  0  0  0  0
    6.9875    2.1600   -5.4047 H   0  0  0  0  0  0  0  0  0  0  0  0
   12.5234    6.8488   -6.7532 H   0  0  0  0  0  0  0  0  0  0  0  0
   11.0927    7.8178   -7.0850 H   0  0  0  0  0  0  0  0  0  0  0  0
    4.0071    6.5187   -0.2697 H   0  0  0  0  0  0  0  0  0  0  0  0
    4.5427    4.8966    0.1269 H   0  0  0  0  0  0  0  0  0  0  0  0
    9.5820    6.2556    1.9654 H   0  0  0  0  0  0  0  0  0  0  0  0
    7.2507    6.2887   -5.8934 H   0  0  0  0  0  0  0  0  0  0  0  0
    8.5564    5.1971   -5.3912 H   0  0  0  0  0  0  0  0  0  0  0  0
    9.7615    3.9211    1.8527 H   0  0  0  0  0  0  0  0  0  0  0  0
    5.6597    4.3679   -5.8501 H   0  0  0  0  0  0  0  0  0  0  0  0
    7.0424    3.9920   -6.8934 H   0  0  0  0  0  0  0  0  0  0  0  0
   11.1026   11.0962   -3.9222 H   0  0  0  0  0  0  0  0  0  0  0  0
    8.9636    7.3753    4.1220 H   0  0  0  0  0  0  0  0  0  0  0  0
    8.3475    5.8512    4.7373 H   0  0  0  0  0  0  0  0  0  0  0  0
    4.7870    5.5209    2.5204 H   0  0  0  0  0  0  0  0  0  0  0  0
   14.3271    9.4973   -6.0711 H   0  0  0  0  0  0  0  0  0  0  0  0
   11.7881    8.3022   -9.3660 H   0  0  0  0  0  0  0  0  0  0  0  0
   10.2516    7.3053    6.3314 H   0  0  0  0  0  0  0  0  0  0  0  0
   11.1995    4.5594    3.1320 H   0  0  0  0  0  0  0  0  0  0  0  0
    3.7575    8.2745    1.6361 H   0  0  0  0  0  0  0  0  0  0  0  0
    4.0153    7.7545    3.3197 H   0  0  0  0  0  0  0  0  0  0  0  0
    5.3777    7.9605    2.2447 H   0  0  0  0  0  0  0  0  0  0  0  0
    2.5896    4.6908    1.7169 H   0  0  0  0  0  0  0  0  0  0  0  0
    2.3949    5.8639    3.0302 H   0  0  0  0  0  0  0  0  0  0  0  0
    2.0849    6.3522    1.3546 H   0  0  0  0  0  0  0  0  0  0  0  0
   13.1729    9.6786  -10.8766 H   0  0  0  0  0  0  0  0  0  0  0  0
   15.5239   11.0090   -7.5397 H   0  0  0  0  0  0  0  0  0  0  0  0
   12.8297    3.4921    4.4735 H   0  0  0  0  0  0  0  0  0  0  0  0
   12.2272    6.4385    7.5388 H   0  0  0  0  0  0  0  0  0  0  0  0
   13.5066    4.5043    6.6358 H   0  0  0  0  0  0  0  0  0  0  0  0
   14.9549   11.1354   -9.9513 H   0  0  0  0  0  0  0  0  0  0  0  0
  1  8  1  0  0  0  0
  1 45  1  6  0  0  0
  2  1  1  0  0  0  0
  3  4  1  0  0  0  0
  3 16  1  0  0  0  0
  4  8  1  0  0  0  0
  4 46  1  0  0  0  0
  5  9  1  0  0  0  0
  7  2  1  0  0  0  0
  7 47  1  0  0  0  0
  8 48  1  0  0  0  0
  9  1  1  0  0  0  0
  9 49  1  0  0  0  0
 10  3  2  0  0  0  0
 10 50  1  0  0  0  0
 11 22  1  0  0  0  0
 11 51  1  1  0  0  0
 11  7  1  0  0  0  0
 11  6  1  0  0  0  0
 12  5  1  0  0  0  0
 12 52  1  0  0  0  0
 13 20  1  0  0  0  0
 13 53  1  1  0  0  0
 13 14  1  0  0  0  0
 13 12  1  0  0  0  0
 15  6  1  0  0  0  0
 15 54  1  0  0  0  0
 16 27  1  0  0  0  0
 16 55  1  0  0  0  0
 17  2  2  0  0  0  0
 18  5  2  0  0  0  0
 19  6  2  0  0  0  0
 20 56  1  0  0  0  0
 20 57  1  0  0  0  0
 21 14  2  0  0  0  0
 22 58  1  0  0  0  0
 22 59  1  0  0  0  0
 23 29  1  0  0  0  0
 23 60  1  6  0  0  0
 23 26  1  0  0  0  0
 23 15  1  0  0  0  0
 24 26  2  0  0  0  0
 25  8  1  0  0  0  0
 25 61  1  0  0  0  0
 25 62  1  0  0  0  0
 26 63  1  0  0  0  0
 27 25  1  0  0  0  0
 27 64  1  0  0  0  0
 27 65  1  0  0  0  0
 28 14  1  0  0  0  0
 28 66  1  0  0  0  0
 29 67  1  0  0  0  0
 29 68  1  0  0  0  0
 30 20  1  0  0  0  0
 31 29  1  0  0  0  0
 32 22  1  0  0  0  0
 32 69  1  0  0  0  0
 33 30  2  0  0  0  0
 33 70  1  0  0  0  0
 34 30  1  0  0  0  0
 34 71  1  0  0  0  0
 35 31  1  0  0  0  0
 35 72  1  0  0  0  0
 36 31  2  0  0  0  0
 36 73  1  0  0  0  0
 37 32  1  0  0  0  0
 37 74  1  0  0  0  0
 37 75  1  0  0  0  0
 37 76  1  0  0  0  0
 38 32  1  0  0  0  0
 38 77  1  0  0  0  0
 38 78  1  0  0  0  0
 38 79  1  0  0  0  0
 39 34  2  0  0  0  0
 39 80  1  0  0  0  0
 40 33  1  0  0  0  0
 40 44  2  0  0  0  0
 40 81  1  0  0  0  0
 41 36  1  0  0  0  0
 41 82  1  0  0  0  0
 42 35  2  0  0  0  0
 42 43  1  0  0  0  0
 42 83  1  0  0  0  0
 43 41  2  0  0  0  0
 43 84  1  0  0  0  0
 44 39  1  0  0  0  0
 44 85  1  0  0  0  0
M  END
>  <DRUGBANK_ID>
DB01683

>  <SECONDARY_ACCESSION_NUMBERS>
EXPT00915

>  <COMMON_NAME>
Chymostatin

>  <CAS_NUMBER>
9076-44-2

>  <UNII>
W7MU4REM7L

$$$$
