
 OpenBabel10282417153D

 55 58  0  0  0  0  0  0  0  0999 V2000
    1.2335   -0.8841   -0.3839 C   0  0  1  0  0  0  0  0  0  0  0  0
    0.6805    0.4376    0.2106 C   0  0  2  0  0  0  0  0  0  0  0  0
   -0.7252    0.2549   -0.3282 C   0  0  0  0  0  0  0  0  0  0  0  0
   -1.0000   -1.1096   -0.4798 C   0  0  0  0  0  0  0  0  0  0  0  0
    0.1354   -1.8412   -0.1462 N   0  0  0  0  0  0  0  0  0  0  0  0
    0.2835   -3.2528    0.0468 C   0  0  0  0  0  0  0  0  0  0  0  0
   -2.3034   -1.5024   -0.7836 C   0  0  0  0  0  0  0  0  0  0  0  0
   -3.3387   -0.5491   -0.8602 C   0  0  0  0  0  0  0  0  0  0  0  0
   -3.0402    0.7898   -0.7038 C   0  0  0  0  0  0  0  0  0  0  0  0
   -1.6935    1.2150   -0.5520 C   0  0  0  0  0  0  0  0  0  0  0  0
   -4.2147    1.6499   -0.4066 O   0  0  0  0  0  0  0  0  0  0  0  0
   -5.2443    1.7761    0.6364 C   0  0  0  0  0  0  0  0  0  0  0  0
   -6.0566    2.7309    0.6072 O   0  0  0  0  0  0  0  0  0  0  0  0
   -5.3178    0.9111    1.6971 N   0  0  0  0  0  0  0  0  0  0  0  0
   -4.4144   -0.0912    1.9958 C   0  0  0  0  0  0  0  0  0  0  0  0
   -3.0650    0.2155    2.1913 C   0  0  0  0  0  0  0  0  0  0  0  0
   -2.5106    1.6871    2.2772 C   0  0  0  0  0  0  0  0  0  0  0  0
   -2.8304    2.9908    1.4318 C   0  0  0  0  0  0  0  0  0  0  0  0
   -2.2517   -0.9465    2.3085 C   0  0  0  0  0  0  0  0  0  0  0  0
   -2.7215   -2.2600    2.0468 C   0  0  0  0  0  0  0  0  0  0  0  0
   -4.0560   -2.4924    1.7966 C   0  0  0  0  0  0  0  0  0  0  0  0
   -4.9223   -1.4167    1.8999 C   0  0  0  0  0  0  0  0  0  0  0  0
    1.4828    1.5730   -0.3911 C   0  0  0  0  0  0  0  0  0  0  0  0
    2.9786    1.2142   -0.4055 C   0  0  0  0  0  0  0  0  0  0  0  0
    3.4272   -0.0309    0.2717 N   0  0  0  0  0  0  0  0  0  0  0  0
    2.5211   -1.1994    0.1462 O   0  0  0  0  0  0  0  0  0  0  0  0
    3.6978    0.1121    1.7084 C   0  0  0  0  0  0  0  0  0  0  0  0
    0.8241    0.4726    1.7598 C   0  0  0  0  0  0  0  0  0  0  0  0
    1.3604   -0.8082   -1.4754 H   0  0  0  0  0  0  0  0  0  0  0  0
    0.4444   -3.7842   -0.8913 H   0  0  0  0  0  0  0  0  0  0  0  0
    1.1154   -3.4549    0.7312 H   0  0  0  0  0  0  0  0  0  0  0  0
   -0.5966   -3.6960    0.5215 H   0  0  0  0  0  0  0  0  0  0  0  0
   -2.5988   -2.5432   -0.7542 H   0  0  0  0  0  0  0  0  0  0  0  0
   -4.3859   -0.8356   -0.8169 H   0  0  0  0  0  0  0  0  0  0  0  0
   -1.3325    2.2227   -0.3870 H   0  0  0  0  0  0  0  0  0  0  0  0
   -6.1644    0.9470    2.2503 H   0  0  0  0  0  0  0  0  0  0  0  0
   -2.7545    2.0022    3.2899 H   0  0  0  0  0  0  0  0  0  0  0  0
   -1.4316    1.6470    2.2436 H   0  0  0  0  0  0  0  0  0  0  0  0
   -3.8298    3.3467    1.6421 H   0  0  0  0  0  0  0  0  0  0  0  0
   -2.1302    3.8037    1.6457 H   0  0  0  0  0  0  0  0  0  0  0  0
   -2.7837    3.0100    0.3419 H   0  0  0  0  0  0  0  0  0  0  0  0
   -1.1771   -0.9084    2.4018 H   0  0  0  0  0  0  0  0  0  0  0  0
   -2.0105   -3.0614    1.8539 H   0  0  0  0  0  0  0  0  0  0  0  0
   -4.3829   -3.4521    1.3972 H   0  0  0  0  0  0  0  0  0  0  0  0
   -5.9759   -1.5993    1.7090 H   0  0  0  0  0  0  0  0  0  0  0  0
    1.3034    2.5455    0.0913 H   0  0  0  0  0  0  0  0  0  0  0  0
    1.1336    1.7076   -1.4225 H   0  0  0  0  0  0  0  0  0  0  0  0
    3.5659    2.0565   -0.0129 H   0  0  0  0  0  0  0  0  0  0  0  0
    3.2607    1.1794   -1.4655 H   0  0  0  0  0  0  0  0  0  0  0  0
    3.2007   -0.6616    2.3073 H   0  0  0  0  0  0  0  0  0  0  0  0
    4.7588   -0.0019    1.9310 H   0  0  0  0  0  0  0  0  0  0  0  0
    3.4007    1.0892    2.1045 H   0  0  0  0  0  0  0  0  0  0  0  0
    1.2557   -0.4494    2.1568 H   0  0  0  0  0  0  0  0  0  0  0  0
    1.4016    1.3392    2.0983 H   0  0  0  0  0  0  0  0  0  0  0  0
   -0.0657    0.5604    2.3481 H   0  0  0  0  0  0  0  0  0  0  0  0
  1  2  1  0  0  0  0
  1  5  1  0  0  0  0
  1 26  1  0  0  0  0
  1 29  1  1  0  0  0
  2  3  1  0  0  0  0
  2 23  1  0  0  0  0
  2 28  1  1  0  0  0
  3  4  2  0  0  0  0
  3 10  1  0  0  0  0
  4  5  1  0  0  0  0
  4  7  1  0  0  0  0
  5  6  1  0  0  0  0
  6 30  1  0  0  0  0
  6 31  1  0  0  0  0
  6 32  1  0  0  0  0
  7  8  2  0  0  0  0
  7 33  1  0  0  0  0
  8  9  1  0  0  0  0
  8 34  1  0  0  0  0
  9 10  2  0  0  0  0
  9 11  1  0  0  0  0
 10 35  1  0  0  0  0
 11 12  1  0  0  0  0
 12 13  2  0  0  0  0
 12 14  1  0  0  0  0
 14 15  1  0  0  0  0
 14 36  1  0  0  0  0
 15 16  2  0  0  0  0
 15 22  1  0  0  0  0
 16 17  1  0  0  0  0
 16 19  1  0  0  0  0
 17 18  1  0  0  0  0
 17 37  1  0  0  0  0
 17 38  1  0  0  0  0
 18 39  1  0  0  0  0
 18 40  1  0  0  0  0
 18 41  1  0  0  0  0
 19 20  2  0  0  0  0
 19 42  1  0  0  0  0
 20 21  1  0  0  0  0
 20 43  1  0  0  0  0
 21 22  2  0  0  0  0
 21 44  1  0  0  0  0
 22 45  1  0  0  0  0
 23 24  1  0  0  0  0
 23 46  1  0  0  0  0
 23 47  1  0  0  0  0
 24 25  1  0  0  0  0
 24 48  1  0  0  0  0
 24 49  1  0  0  0  0
 25 26  1  0  0  0  0
 25 27  1  0  0  0  0
 27 50  1  0  0  0  0
 27 51  1  0  0  0  0
 27 52  1  0  0  0  0
 28 53  1  0  0  0  0
 28 54  1  0  0  0  0
 28 55  1  0  0  0  0
M  END
>  <DRUGBANK_ID>
DB06525

>  <COMMON_NAME>
Ganstigmine

>  <CAS_NUMBER>
457075-21-7

>  <UNII>
QRR9SV89XI

>  <SYNONYMS>
Ganstigmine

$$$$
