
 OpenBabel10282417113D

 74 76  0  0  0  0  0  0  0  0999 V2000
    1.9631    3.3058    0.7641 C   0  0  0  0  0  0  0  0  0  0  0  0
    1.6688    6.1415    0.0762 C   0  0  0  0  0  0  0  0  0  0  0  0
    1.2994    5.2489   -2.4060 C   0  0  0  0  0  0  0  0  0  0  0  0
    1.2660    3.8022   -2.9338 C   0  0  0  0  0  0  0  0  0  0  0  0
    1.8769    4.3117    1.8865 C   0  0  0  0  0  0  0  0  0  0  0  0
    1.0582    7.3311   -0.0957 C   0  0  0  0  0  0  0  0  0  0  0  0
    2.2895    5.6738    1.3936 C   0  0  0  0  0  0  0  0  0  0  0  0
    0.9878    8.3603    0.9220 C   0  0  0  0  0  0  0  0  0  0  0  0
    2.0443    8.7711    1.6536 C   0  0  0  0  0  0  0  0  0  0  0  0
    3.4606    8.2305    1.4941 C   0  0  0  0  0  0  0  0  0  0  0  0
    1.9195    9.7961    2.7444 C   0  0  0  0  0  0  0  0  0  0  0  0
    4.5250    9.2866    1.3447 C   0  0  2  0  0  0  0  0  0  0  0  0
    2.9832   10.8829    2.5446 C   0  0  2  0  0  0  0  0  0  0  0  0
    4.4043   10.3067    2.4590 C   0  0  0  0  0  0  0  0  0  0  0  0
    2.9152   11.8347    3.5981 O   0  0  0  0  0  0  0  0  0  0  0  0
   -0.0304    0.9913   -0.4913 C   0  0  0  0  0  0  0  0  0  0  0  0
    0.5414    1.5785   -1.7849 C   0  0  2  0  0  0  0  0  0  0  0  0
    1.3965    0.4589   -2.3189 C   0  0  0  0  0  0  0  0  0  0  0  0
    1.1259   -0.1906   -3.4414 C   0  0  0  0  0  0  0  0  0  0  0  0
   -0.2393   -2.4676   -4.9031 C   0  0  0  0  0  0  0  0  0  0  0  0
    0.9284   -2.6736   -3.9296 C   0  0  0  0  0  0  0  0  0  0  0  0
    1.7149   -3.9309   -4.3137 C   0  0  0  0  0  0  0  0  0  0  0  0
    1.8714   -1.4332   -3.8723 C   0  0  1  0  0  0  0  0  0  0  0  0
    2.5485   -1.1268   -5.2079 C   0  0  0  0  0  0  0  0  0  0  0  0
    1.4038    2.8617   -1.6937 C   0  0  2  0  0  0  0  0  0  0  0  0
    2.4663    2.5599   -1.6845 H   0  0  0  0  0  0  0  0  0  0  0  0
    1.8479    5.0946   -0.9896 C   0  0  2  0  0  0  0  0  0  0  0  0
    2.9358    4.9554   -1.1046 H   0  0  0  0  0  0  0  0  0  0  0  0
    1.1826    3.7894   -0.4852 C   0  0  2  0  0  0  0  0  0  0  0  0
   -0.3128    4.1011   -0.1921 C   0  0  0  0  0  0  0  0  0  0  0  0
    0.3919   -2.9095   -2.6174 O   0  0  0  0  0  0  0  0  0  0  0  0
    4.4131    9.9043    0.0659 O   0  0  0  0  0  0  0  0  0  0  0  0
    3.0240    3.1558    0.5089 H   0  0  0  0  0  0  0  0  0  0  0  0
    1.6121    2.3603    1.1655 H   0  0  0  0  0  0  0  0  0  0  0  0
    0.2900    5.6744   -2.4218 H   0  0  0  0  0  0  0  0  0  0  0  0
    1.9239    5.9015   -3.0253 H   0  0  0  0  0  0  0  0  0  0  0  0
    0.3407    3.6316   -3.4920 H   0  0  0  0  0  0  0  0  0  0  0  0
    2.1000    3.6411   -3.6291 H   0  0  0  0  0  0  0  0  0  0  0  0
    2.5377    4.0234    2.7124 H   0  0  0  0  0  0  0  0  0  0  0  0
    0.8638    4.3564    2.2966 H   0  0  0  0  0  0  0  0  0  0  0  0
    0.5764    7.5821   -1.0392 H   0  0  0  0  0  0  0  0  0  0  0  0
    3.3782    5.6437    1.2514 H   0  0  0  0  0  0  0  0  0  0  0  0
    2.0485    6.3336    2.2253 H   0  0  0  0  0  0  0  0  0  0  0  0
    0.0038    8.8064    1.0677 H   0  0  0  0  0  0  0  0  0  0  0  0
    3.5605    7.6204    0.5964 H   0  0  0  0  0  0  0  0  0  0  0  0
    3.7015    7.6267    2.3802 H   0  0  0  0  0  0  0  0  0  0  0  0
    2.0457    9.3068    3.7210 H   0  0  0  0  0  0  0  0  0  0  0  0
    0.9205   10.2486    2.7712 H   0  0  0  0  0  0  0  0  0  0  0  0
    5.5013    8.7886    1.3768 H   0  0  0  0  0  0  0  0  0  0  0  0
    2.7586   11.4152    1.6137 H   0  0  0  0  0  0  0  0  0  0  0  0
    5.1200   11.1141    2.2847 H   0  0  0  0  0  0  0  0  0  0  0  0
    4.6737    9.8365    3.4146 H   0  0  0  0  0  0  0  0  0  0  0  0
    3.0895   11.3730    4.4349 H   0  0  0  0  0  0  0  0  0  0  0  0
    0.7319    0.9009    0.2814 H   0  0  0  0  0  0  0  0  0  0  0  0
   -0.8776    1.5438   -0.1036 H   0  0  0  0  0  0  0  0  0  0  0  0
   -0.4425   -0.0104   -0.6416 H   0  0  0  0  0  0  0  0  0  0  0  0
   -0.3024    1.7640   -2.4621 H   0  0  0  0  0  0  0  0  0  0  0  0
    2.2043    0.1113   -1.6687 H   0  0  0  0  0  0  0  0  0  0  0  0
    0.2918    0.1442   -4.0578 H   0  0  0  0  0  0  0  0  0  0  0  0
    0.1162   -2.2963   -5.9230 H   0  0  0  0  0  0  0  0  0  0  0  0
   -0.9037   -3.3358   -4.9157 H   0  0  0  0  0  0  0  0  0  0  0  0
   -0.8655   -1.6189   -4.6087 H   0  0  0  0  0  0  0  0  0  0  0  0
    2.5201   -4.1187   -3.5938 H   0  0  0  0  0  0  0  0  0  0  0  0
    1.0692   -4.8151   -4.3015 H   0  0  0  0  0  0  0  0  0  0  0  0
    2.1505   -3.8525   -5.3129 H   0  0  0  0  0  0  0  0  0  0  0  0
    2.6559   -1.6410   -3.1286 H   0  0  0  0  0  0  0  0  0  0  0  0
    3.2084   -0.2575   -5.1241 H   0  0  0  0  0  0  0  0  0  0  0  0
    3.1600   -1.9659   -5.5472 H   0  0  0  0  0  0  0  0  0  0  0  0
    1.8129   -0.9028   -5.9871 H   0  0  0  0  0  0  0  0  0  0  0  0
   -0.8381    4.4520   -1.0841 H   0  0  0  0  0  0  0  0  0  0  0  0
   -0.8855    3.2768    0.1990 H   0  0  0  0  0  0  0  0  0  0  0  0
   -0.4379    4.8634    0.5800 H   0  0  0  0  0  0  0  0  0  0  0  0
   -0.2250   -3.6590   -2.6701 H   0  0  0  0  0  0  0  0  0  0  0  0
    3.4784   10.1439   -0.0690 H   0  0  0  0  0  0  0  0  0  0  0  0
  1  5  1  0  0  0  0
  1 33  1  0  0  0  0
  1 34  1  0  0  0  0
  2  6  2  0  0  0  0
  2  7  1  0  0  0  0
  3  4  1  0  0  0  0
  3 35  1  0  0  0  0
  3 36  1  0  0  0  0
  4 37  1  0  0  0  0
  4 38  1  0  0  0  0
  5  7  1  0  0  0  0
  5 39  1  0  0  0  0
  5 40  1  0  0  0  0
  6  8  1  0  0  0  0
  6 41  1  0  0  0  0
  7 42  1  0  0  0  0
  7 43  1  0  0  0  0
  8  9  2  0  0  0  0
  8 44  1  0  0  0  0
  9 10  1  0  0  0  0
  9 11  1  0  0  0  0
 10 12  1  0  0  0  0
 10 45  1  0  0  0  0
 10 46  1  0  0  0  0
 11 13  1  0  0  0  0
 11 47  1  0  0  0  0
 11 48  1  0  0  0  0
 12 14  1  0  0  0  0
 12 32  1  0  0  0  0
 12 49  1  1  0  0  0
 13 15  1  0  0  0  0
 13 14  1  0  0  0  0
 13 50  1  6  0  0  0
 14 51  1  0  0  0  0
 14 52  1  0  0  0  0
 15 53  1  0  0  0  0
 16 54  1  0  0  0  0
 16 55  1  0  0  0  0
 16 56  1  0  0  0  0
 17 18  1  0  0  0  0
 17 57  1  6  0  0  0
 17 16  1  0  0  0  0
 18 19  2  0  0  0  0
 18 58  1  0  0  0  0
 19 23  1  0  0  0  0
 19 59  1  0  0  0  0
 20 60  1  0  0  0  0
 20 61  1  0  0  0  0
 20 62  1  0  0  0  0
 21 20  1  0  0  0  0
 21 22  1  0  0  0  0
 21 31  1  0  0  0  0
 22 63  1  0  0  0  0
 22 64  1  0  0  0  0
 22 65  1  0  0  0  0
 23 21  1  0  0  0  0
 23 24  1  0  0  0  0
 23 66  1  1  0  0  0
 24 67  1  0  0  0  0
 24 68  1  0  0  0  0
 24 69  1  0  0  0  0
 25  4  1  0  0  0  0
 25 17  1  0  0  0  0
 25 26  1  1  0  0  0
 27 29  1  0  0  0  0
 27  2  1  0  0  0  0
 27  3  1  0  0  0  0
 27 28  1  6  0  0  0
 29 25  1  0  0  0  0
 29  1  1  0  0  0  0
 29 30  1  1  0  0  0
 30 70  1  0  0  0  0
 30 71  1  0  0  0  0
 30 72  1  0  0  0  0
 31 73  1  0  0  0  0
 32 74  1  0  0  0  0
M  END
>  <DRUGBANK_ID>
DB00910

>  <SECONDARY_ACCESSION_NUMBERS>
APRD01165

>  <COMMON_NAME>
Paricalcitol

>  <CAS_NUMBER>
131918-61-1

>  <UNII>
6702D36OG5

>  <SYNONYMS>
19-Nor-1alpha,25-dihydroxyvitamin D2; Paricalcitol

$$$$
