
 OpenBabel10282417133D

 24 24  0  0  0  0  0  0  0  0999 V2000
    1.2565    0.0653    0.2693 C   0  0  1  0  0  0  0  0  0  0  0  0
    1.2646   -1.4252   -0.1398 C   0  0  2  0  0  0  0  0  0  0  0  0
    2.4233    0.7227   -0.2364 O   0  0  0  0  0  0  0  0  0  0  0  0
   -0.0263    0.7666   -0.2265 C   0  0  1  0  0  0  0  0  0  0  0  0
    0.0326   -2.1311    0.2823 N   0  0  0  0  0  0  0  0  0  0  0  0
    2.5066   -2.1299    0.4408 C   0  0  0  0  0  0  0  0  0  0  0  0
   -1.2670   -0.0151    0.2432 C   0  0  2  0  0  0  0  0  0  0  0  0
   -0.0719    2.1232    0.2307 O   0  0  0  0  0  0  0  0  0  0  0  0
   -1.1609   -1.4650   -0.2437 C   0  0  0  0  0  0  0  0  0  0  0  0
   -2.4835    0.5658   -0.2266 O   0  0  0  0  0  0  0  0  0  0  0  0
    2.5381   -3.4932    0.0168 O   0  0  0  0  0  0  0  0  0  0  0  0
    1.3108    0.1548    1.3618 H   0  0  0  0  0  0  0  0  0  0  0  0
    1.3377   -1.5018   -1.2338 H   0  0  0  0  0  0  0  0  0  0  0  0
    2.3592    0.7662   -1.2073 H   0  0  0  0  0  0  0  0  0  0  0  0
   -0.0187    0.8366   -1.3213 H   0  0  0  0  0  0  0  0  0  0  0  0
    0.0524   -3.0844   -0.0815 H   0  0  0  0  0  0  0  0  0  0  0  0
    3.4265   -1.6554    0.0843 H   0  0  0  0  0  0  0  0  0  0  0  0
    2.5136   -2.1031    1.5364 H   0  0  0  0  0  0  0  0  0  0  0  0
   -1.3235    0.0114    1.3389 H   0  0  0  0  0  0  0  0  0  0  0  0
   -0.0487    2.1132    1.2040 H   0  0  0  0  0  0  0  0  0  0  0  0
   -2.0564   -2.0205    0.0560 H   0  0  0  0  0  0  0  0  0  0  0  0
   -1.1515   -1.4904   -1.3423 H   0  0  0  0  0  0  0  0  0  0  0  0
   -2.4347    0.6508   -1.1966 H   0  0  0  0  0  0  0  0  0  0  0  0
    1.8138   -3.9380    0.4917 H   0  0  0  0  0  0  0  0  0  0  0  0
  1  2  1  0  0  0  0
  1  3  1  0  0  0  0
  1  4  1  0  0  0  0
  1 12  1  1  0  0  0
  2  5  1  0  0  0  0
  2  6  1  0  0  0  0
  2 13  1  6  0  0  0
  3 14  1  0  0  0  0
  4  7  1  0  0  0  0
  4  8  1  0  0  0  0
  4 15  1  6  0  0  0
  5  9  1  0  0  0  0
  5 16  1  0  0  0  0
  6 11  1  0  0  0  0
  6 17  1  0  0  0  0
  6 18  1  0  0  0  0
  7 10  1  0  0  0  0
  7  9  1  0  0  0  0
  7 19  1  1  0  0  0
  8 20  1  0  0  0  0
  9 21  1  0  0  0  0
  9 22  1  0  0  0  0
 10 23  1  0  0  0  0
 11 24  1  0  0  0  0
M  END
>  <DRUGBANK_ID>
DB03206

>  <SECONDARY_ACCESSION_NUMBERS>
EXPT01227; EXPT02374; EXPT01236

>  <COMMON_NAME>
Duvoglustat

>  <CAS_NUMBER>
19130-96-2

>  <UNII>
FZ56898FLE

>  <SYNONYMS>
(+)-1-Deoxynojirimycin; 1 deoxynojirimycin; 1-deoxy-nojirimycin; 1-deoxynojirimycin; 1,5-deoxy-1,5-imino-D-mannitol; 1,5-dideoxy-1,5-imino-D-glucitol; 5-amino-1,5-dideoxy-D-glucopyranose; D-1-deoxynojirimycin; Deoxynojirimycin; DNJ; Duvoglustat

$$$$
