
 OpenBabel10282417103D

 63 66  0  0  1  0  0  0  0  0999 V2000
   -0.8051    0.3909    0.6943 N   0  0  0  0  0  0  0  0  0  0  0  0
    0.9319   -1.1334   -0.5357 S   0  0  0  0  0  0  0  0  0  0  0  0
    2.4150    1.0932   -1.0934 C   0  0  0  0  0  0  0  0  0  0  0  0
    1.5243    0.5422    0.0201 C   0  0  0  0  0  0  0  0  0  0  0  0
    2.3502    0.3416    1.3003 C   0  0  0  0  0  0  0  0  0  0  0  0
    0.2072    1.3493    0.2161 C   0  0  2  0  0  0  0  0  0  0  0  0
   -0.4839    3.6022    0.9120 O   0  0  0  0  0  0  0  0  0  0  0  0
    0.3490    2.5657    1.1622 C   0  0  0  0  0  0  0  0  0  0  0  0
    1.1115    2.6305    2.1157 O   0  0  0  0  0  0  0  0  0  0  0  0
   -1.9022   -1.3026    0.0577 C   0  0  2  0  0  0  0  0  0  0  0  0
   -2.0079   -2.0565   -1.2245 N   0  0  0  0  0  0  0  0  0  0  0  0
   -2.2491   -3.4259   -1.1905 C   0  0  0  0  0  0  0  0  0  0  0  0
   -2.4949   -4.0119   -0.1381 O   0  0  0  0  0  0  0  0  0  0  0  0
   -2.2144   -4.1290   -2.5544 C   0  0  1  0  0  0  0  0  0  0  0  0
   -1.9883    0.2448    0.0104 C   0  0  0  0  0  0  0  0  0  0  0  0
   -2.6759    1.0738   -0.5323 O   0  0  0  0  0  0  0  0  0  0  0  0
   -0.4855   -1.0566    0.6168 C   0  0  2  0  0  0  0  0  0  0  0  0
   -0.2977   -1.5115    1.5927 H   0  0  0  0  0  0  0  0  0  0  0  0
   -1.1702   -5.2304   -2.6075 C   0  0  0  0  0  0  0  0  0  0  0  0
   -3.5575   -4.5980   -2.9089 N   0  0  0  0  0  0  0  0  0  0  0  0
    0.8497   -7.1493   -2.9573 C   0  0  0  0  0  0  0  0  0  0  0  0
   -0.4706   -7.4706   -3.2525 C   0  0  0  0  0  0  0  0  0  0  0  0
   -1.4707   -6.5158   -3.0895 C   0  0  0  0  0  0  0  0  0  0  0  0
    0.1661   -4.9308   -2.2953 C   0  0  0  0  0  0  0  0  0  0  0  0
    1.1719   -5.8726   -2.5049 C   0  0  0  0  0  0  0  0  0  0  0  0
   -4.3174   -4.2458   -3.9879 C   0  0  0  0  0  0  0  0  0  0  0  0
   -5.4420   -4.7209   -4.1306 O   0  0  0  0  0  0  0  0  0  0  0  0
   -3.7983   -3.2867   -4.8215 N   0  0  0  0  0  0  0  0  0  0  0  0
   -2.6209   -3.5422   -5.5220 C   0  0  0  0  0  0  0  0  0  0  0  0
   -2.0821   -2.4221   -6.4156 C   0  0  0  0  0  0  0  0  0  0  0  0
   -2.7477   -1.1976   -6.3937 N   0  0  0  0  0  0  0  0  0  0  0  0
   -3.8380   -0.9571   -5.4557 C   0  0  0  0  0  0  0  0  0  0  0  0
   -4.6710   -2.2230   -5.2903 C   0  0  0  0  0  0  0  0  0  0  0  0
   -1.9288   -4.5459   -5.4064 O   0  0  0  0  0  0  0  0  0  0  0  0
   -1.0890   -2.6466   -7.0963 O   0  0  0  0  0  0  0  0  0  0  0  0
   -2.3420   -0.1657   -7.3386 C   0  0  0  0  0  0  0  0  0  0  0  0
   -0.9120    0.3135   -7.1356 C   0  0  0  0  0  0  0  0  0  0  0  0
    2.7781    2.0952   -0.8439 H   0  0  0  0  0  0  0  0  0  0  0  0
    3.2960    0.4563   -1.2473 H   0  0  0  0  0  0  0  0  0  0  0  0
    1.8845    1.1597   -2.0503 H   0  0  0  0  0  0  0  0  0  0  0  0
    3.1609   -0.3816    1.1705 H   0  0  0  0  0  0  0  0  0  0  0  0
    2.8453    1.2733    1.5953 H   0  0  0  0  0  0  0  0  0  0  0  0
    1.7272    0.0130    2.1406 H   0  0  0  0  0  0  0  0  0  0  0  0
   -0.1158    1.7367   -0.7627 H   0  0  0  0  0  0  0  0  0  0  0  0
   -1.1735    3.4695    0.2352 H   0  0  0  0  0  0  0  0  0  0  0  0
   -2.5968   -1.7172    0.7976 H   0  0  0  0  0  0  0  0  0  0  0  0
   -1.7697   -1.6037   -2.1014 H   0  0  0  0  0  0  0  0  0  0  0  0
   -1.9031   -3.3626   -3.2661 H   0  0  0  0  0  0  0  0  0  0  0  0
   -3.9604   -5.3128   -2.3137 H   0  0  0  0  0  0  0  0  0  0  0  0
    1.6296   -7.8921   -3.0916 H   0  0  0  0  0  0  0  0  0  0  0  0
   -0.7252   -8.4507   -3.6454 H   0  0  0  0  0  0  0  0  0  0  0  0
   -2.4808   -6.7802   -3.3934 H   0  0  0  0  0  0  0  0  0  0  0  0
    0.4445   -3.9539   -1.9086 H   0  0  0  0  0  0  0  0  0  0  0  0
    2.2101   -5.6023   -2.3344 H   0  0  0  0  0  0  0  0  0  0  0  0
   -4.4617   -0.1289   -5.8040 H   0  0  0  0  0  0  0  0  0  0  0  0
   -3.3854   -0.6738   -4.4965 H   0  0  0  0  0  0  0  0  0  0  0  0
   -5.1154   -2.5171   -6.2495 H   0  0  0  0  0  0  0  0  0  0  0  0
   -5.4811   -2.0581   -4.5702 H   0  0  0  0  0  0  0  0  0  0  0  0
   -2.4457   -0.5946   -8.3425 H   0  0  0  0  0  0  0  0  0  0  0  0
   -3.0290    0.6834   -7.2692 H   0  0  0  0  0  0  0  0  0  0  0  0
   -0.1825   -0.4924   -7.2566 H   0  0  0  0  0  0  0  0  0  0  0  0
   -0.6619    1.0793   -7.8750 H   0  0  0  0  0  0  0  0  0  0  0  0
   -0.7795    0.7274   -6.1324 H   0  0  0  0  0  0  0  0  0  0  0  0
  1  6  1  0  0  0  0
  2 17  1  0  0  0  0
  2  4  1  0  0  0  0
  3 38  1  0  0  0  0
  3 39  1  0  0  0  0
  3 40  1  0  0  0  0
  4  3  1  0  0  0  0
  4  5  1  0  0  0  0
  5 41  1  0  0  0  0
  5 42  1  0  0  0  0
  5 43  1  0  0  0  0
  6  4  1  0  0  0  0
  6 44  1  6  0  0  0
  6  8  1  0  0  0  0
  7 45  1  0  0  0  0
  8  7  1  0  0  0  0
  8  9  2  0  0  0  0
 10 15  1  0  0  0  0
 10 46  1  1  0  0  0
 10 11  1  0  0  0  0
 11 12  1  0  0  0  0
 11 47  1  0  0  0  0
 12 14  1  0  0  0  0
 12 13  2  0  0  0  0
 14 19  1  0  0  0  0
 14 20  1  0  0  0  0
 14 48  1  6  0  0  0
 15  1  1  0  0  0  0
 15 16  2  0  0  0  0
 17 10  1  0  0  0  0
 17  1  1  0  0  0  0
 17 18  1  1  0  0  0
 19 24  1  0  0  0  0
 20 26  1  0  0  0  0
 20 49  1  0  0  0  0
 21 22  2  0  0  0  0
 21 25  1  0  0  0  0
 21 50  1  0  0  0  0
 22 23  1  0  0  0  0
 22 51  1  0  0  0  0
 23 19  2  0  0  0  0
 23 52  1  0  0  0  0
 24 25  2  0  0  0  0
 24 53  1  0  0  0  0
 25 54  1  0  0  0  0
 26 27  2  0  0  0  0
 26 28  1  0  0  0  0
 29 28  1  0  0  0  0
 29 30  1  0  0  0  0
 29 34  2  0  0  0  0
 30 31  1  0  0  0  0
 30 35  2  0  0  0  0
 31 32  1  0  0  0  0
 31 36  1  0  0  0  0
 32 33  1  0  0  0  0
 32 55  1  0  0  0  0
 32 56  1  0  0  0  0
 33 28  1  0  0  0  0
 33 57  1  0  0  0  0
 33 58  1  0  0  0  0
 36 37  1  0  0  0  0
 36 59  1  0  0  0  0
 36 60  1  0  0  0  0
 37 61  1  0  0  0  0
 37 62  1  0  0  0  0
 37 63  1  0  0  0  0
M  END
>  <DRUGBANK_ID>
DB00319

>  <SECONDARY_ACCESSION_NUMBERS>
APRD00325

>  <COMMON_NAME>
Piperacillin

>  <CAS_NUMBER>
66258-76-2

>  <UNII>
9I628532GX

>  <SYNONYMS>
(2S,5R,6R)-6-{[(2R)-2-{[(4-ethyl-2,3-dioxopiperazin-1-yl)carbonyl]amino}-2-phenylacetyl]amino}-3,3-dimethyl-7-oxo-4-thia-1-azabicyclo[3.2.0]heptane-2-carboxylic acid; Piperacilina; Piperacillin; Piperacillin anhydrous; Piperacillina; Pip√©racilline; Piperacillinum

$$$$
