
 OpenBabel10282417193D

 52 55  0  0  0  0  0  0  0  0999 V2000
    0.9675    0.0508   -0.0085 C   0  0  0  0  0  0  0  0  0  0  0  0
    0.6133   -1.2758   -0.6606 C   0  0  0  0  0  0  0  0  0  0  0  0
    1.0546   -2.5681    0.0507 C   0  0  0  0  0  0  0  0  0  0  0  0
    0.1747   -3.4484    0.6214 C   0  0  0  0  0  0  0  0  0  0  0  0
    0.5951   -4.6324    1.4547 C   0  0  0  0  0  0  0  0  0  0  0  0
    1.5729   -4.5545    2.4490 C   0  0  0  0  0  0  0  0  0  0  0  0
    1.8919   -5.6697    3.2254 C   0  0  0  0  0  0  0  0  0  0  0  0
    1.1609   -6.8568    3.1025 C   0  0  0  0  0  0  0  0  0  0  0  0
    0.1235   -6.9046    2.1662 C   0  0  0  0  0  0  0  0  0  0  0  0
   -0.1017   -5.8413    1.3019 C   0  0  0  0  0  0  0  0  0  0  0  0
    1.5242   -8.0183    3.9290 C   0  0  0  0  0  0  0  0  0  0  0  0
    0.8876   -9.1974    3.8772 C   0  0  0  0  0  0  0  0  0  0  0  0
    1.2380  -10.3846    4.6677 C   0  0  0  0  0  0  0  0  0  0  0  0
    0.6418  -11.4310    4.6129 O   0  0  0  0  0  0  0  0  0  0  0  0
    2.3002  -10.1994    5.4713 O   0  0  0  0  0  0  0  0  0  0  0  0
   -1.2972   -3.2796    0.4430 C   0  0  0  0  0  0  0  0  0  0  0  0
   -1.8875   -3.0305   -0.8115 C   0  0  0  0  0  0  0  0  0  0  0  0
   -3.2584   -2.8100   -0.9314 C   0  0  0  0  0  0  0  0  0  0  0  0
   -3.9886   -3.0458    0.2284 C   0  0  0  0  0  0  0  0  0  0  0  0
   -3.4686   -3.6626    1.3589 C   0  0  0  0  0  0  0  0  0  0  0  0
   -2.1023   -3.5579    1.5641 C   0  0  0  0  0  0  0  0  0  0  0  0
   -4.6205   -3.9782    2.1088 C   0  0  0  0  0  0  0  0  0  0  0  0
   -5.4338   -2.9226    1.9625 N   0  0  0  0  0  0  0  0  0  0  0  0
   -5.2543   -2.7214    0.6392 N   0  0  0  0  0  0  0  0  0  0  0  0
    2.5367   -2.8217    0.1124 C   0  0  0  0  0  0  0  0  0  0  0  0
    3.3739   -1.8217    0.6404 C   0  0  0  0  0  0  0  0  0  0  0  0
    4.7294   -2.0294    0.8675 C   0  0  0  0  0  0  0  0  0  0  0  0
    5.2425   -3.3000    0.7152 C   0  0  0  0  0  0  0  0  0  0  0  0
    4.4446   -4.3383    0.2660 C   0  0  0  0  0  0  0  0  0  0  0  0
    3.1410   -4.0726   -0.1619 C   0  0  0  0  0  0  0  0  0  0  0  0
    2.3533   -5.3563   -1.0249 Cl  0  0  0  0  0  0  0  0  0  0  0  0
    6.5305   -3.5241    0.9955 F   0  0  0  0  0  0  0  0  0  0  0  0
    0.7056    0.0399    1.0556 H   0  0  0  0  0  0  0  0  0  0  0  0
    0.4186    0.8660   -0.4880 H   0  0  0  0  0  0  0  0  0  0  0  0
    2.0164    0.3044   -0.1465 H   0  0  0  0  0  0  0  0  0  0  0  0
   -0.4713   -1.1896   -0.7091 H   0  0  0  0  0  0  0  0  0  0  0  0
    0.9461   -1.3046   -1.7038 H   0  0  0  0  0  0  0  0  0  0  0  0
    2.1317   -3.6370    2.6010 H   0  0  0  0  0  0  0  0  0  0  0  0
    2.7134   -5.5811    3.9316 H   0  0  0  0  0  0  0  0  0  0  0  0
   -0.5358   -7.7604    2.0740 H   0  0  0  0  0  0  0  0  0  0  0  0
   -0.8521   -5.9618    0.5209 H   0  0  0  0  0  0  0  0  0  0  0  0
    2.3806   -7.8877    4.5879 H   0  0  0  0  0  0  0  0  0  0  0  0
    0.0423   -9.3795    3.2270 H   0  0  0  0  0  0  0  0  0  0  0  0
    2.4021  -11.0614    5.9232 H   0  0  0  0  0  0  0  0  0  0  0  0
   -1.2615   -2.8850   -1.6915 H   0  0  0  0  0  0  0  0  0  0  0  0
   -3.6911   -2.4093   -1.8404 H   0  0  0  0  0  0  0  0  0  0  0  0
   -1.6916   -3.7074    2.5584 H   0  0  0  0  0  0  0  0  0  0  0  0
   -5.1936   -4.9081    2.0566 H   0  0  0  0  0  0  0  0  0  0  0  0
   -6.0493   -2.4169    0.1038 H   0  0  0  0  0  0  0  0  0  0  0  0
    2.9994   -0.8619    0.9606 H   0  0  0  0  0  0  0  0  0  0  0  0
    5.3524   -1.2156    1.2228 H   0  0  0  0  0  0  0  0  0  0  0  0
    4.8406   -5.3477    0.2545 H   0  0  0  0  0  0  0  0  0  0  0  0
  1  2  1  0  0  0  0
  1 33  1  0  0  0  0
  1 34  1  0  0  0  0
  1 35  1  0  0  0  0
  2  3  1  0  0  0  0
  2 36  1  0  0  0  0
  2 37  1  0  0  0  0
  3  4  2  0  0  0  0
  3 25  1  0  0  0  0
  4  5  1  0  0  0  0
  4 16  1  0  0  0  0
  5  6  2  0  0  0  0
  5 10  1  0  0  0  0
  6  7  1  0  0  0  0
  6 38  1  0  0  0  0
  7  8  2  0  0  0  0
  7 39  1  0  0  0  0
  8  9  1  0  0  0  0
  8 11  1  0  0  0  0
  9 10  2  0  0  0  0
  9 40  1  0  0  0  0
 10 41  1  0  0  0  0
 11 12  2  0  0  0  0
 11 42  1  0  0  0  0
 12 13  1  0  0  0  0
 12 43  1  0  0  0  0
 13 14  2  0  0  0  0
 13 15  1  0  0  0  0
 15 44  1  0  0  0  0
 16 17  2  0  0  0  0
 16 21  1  0  0  0  0
 17 18  1  0  0  0  0
 17 45  1  0  0  0  0
 18 19  2  0  0  0  0
 18 46  1  0  0  0  0
 19 20  1  0  0  0  0
 19 24  1  0  0  0  0
 20 21  2  0  0  0  0
 20 22  1  0  0  0  0
 21 47  1  0  0  0  0
 22 23  2  0  0  0  0
 22 48  1  0  0  0  0
 23 24  1  0  0  0  0
 24 49  1  0  0  0  0
 25 26  2  0  0  0  0
 25 30  1  0  0  0  0
 26 27  1  0  0  0  0
 26 50  1  0  0  0  0
 27 28  2  0  0  0  0
 27 51  1  0  0  0  0
 28 29  1  0  0  0  0
 28 32  1  0  0  0  0
 29 30  2  0  0  0  0
 29 52  1  0  0  0  0
 30 31  1  0  0  0  0
M  END
>  <DRUGBANK_ID>
DB12253

>  <COMMON_NAME>
GDC-0810

>  <CAS_NUMBER>
1365888-06-7

>  <UNII>
9MM2R1A06R

$$$$
