
 OpenBabel10282417243D

 15 14  0  0  0  0  0  0  0  0999 V2000
    1.0603   -0.0001   -0.0685 C   0  0  0  0  0  0  0  0  0  0  0  0
    0.5392   -0.5025   -1.4118 C   0  0  0  0  0  0  0  0  0  0  0  0
    1.0602   -1.9126   -1.6733 C   0  0  0  0  0  0  0  0  0  0  0  0
   -0.9817   -0.5150   -1.3968 C   0  0  0  0  0  0  0  0  0  0  0  0
   -1.5971    0.2663   -2.3279 N   0  0  0  0  0  0  0  0  0  0  0  0
   -1.6484   -1.1774   -0.6075 O   0  0  0  0  0  0  0  0  0  0  0  0
    0.7205   -0.6414    0.7528 H   0  0  0  0  0  0  0  0  0  0  0  0
    0.7064    1.0152    0.1361 H   0  0  0  0  0  0  0  0  0  0  0  0
    2.1555    0.0093   -0.0550 H   0  0  0  0  0  0  0  0  0  0  0  0
    0.8986    0.1637   -2.2056 H   0  0  0  0  0  0  0  0  0  0  0  0
    0.7205   -2.6101   -0.8992 H   0  0  0  0  0  0  0  0  0  0  0  0
    0.7064   -2.2904   -2.6377 H   0  0  0  0  0  0  0  0  0  0  0  0
    2.1555   -1.9275   -1.6803 H   0  0  0  0  0  0  0  0  0  0  0  0
   -2.6096    0.2696   -2.3319 H   0  0  0  0  0  0  0  0  0  0  0  0
   -1.1096    0.8345   -3.0051 H   0  0  0  0  0  0  0  0  0  0  0  0
  1  2  1  0  0  0  0
  1  7  1  0  0  0  0
  1  8  1  0  0  0  0
  1  9  1  0  0  0  0
  2  3  1  0  0  0  0
  2  4  1  0  0  0  0
  2 10  1  0  0  0  0
  3 11  1  0  0  0  0
  3 12  1  0  0  0  0
  3 13  1  0  0  0  0
  4  5  1  0  0  0  0
  4  6  2  0  0  0  0
  5 14  1  0  0  0  0
  5 15  1  0  0  0  0
M  END
>  <DRUGBANK_ID>
DB17705

>  <COMMON_NAME>
Isobutyramide

>  <CAS_NUMBER>
563-83-7

>  <UNII>
82UOE7B38Z

>  <SYNONYMS>
2-methylpropionamide

$$$$
