304
 OpenBabel10282417163D

 46 47  0  0  0  0  0  0  0  0999 V2000
    0.3001    1.1823    0.0033 C   0  0  0  0  0  0  0  0  0  0  0  0
   -1.0994    1.1482   -0.0012 C   0  0  0  0  0  0  0  0  0  0  0  0
    0.3182   -1.2100   -0.0025 C   0  0  0  0  0  0  0  0  0  0  0  0
   -3.0311   -5.3427   -0.7375 C   0  0  0  0  0  0  0  0  0  0  0  0
    1.0262   -0.0066   -0.0022 C   0  0  0  0  0  0  0  0  0  0  0  0
   -1.8072   -0.0774   -0.0126 C   0  0  0  0  0  0  0  0  0  0  0  0
   -1.0839   -1.2895   -0.0064 C   0  0  0  0  0  0  0  0  0  0  0  0
   -1.9545   -4.9898    0.0412 C   0  0  0  0  0  0  0  0  0  0  0  0
   -2.8118   -7.2715    0.3719 C   0  0  0  0  0  0  0  0  0  0  0  0
    2.5268    0.0353   -0.0150 C   0  0  0  0  0  0  0  0  0  0  0  0
   -1.1110   -3.8157    0.0495 C   0  0  0  0  0  0  0  0  0  0  0  0
   -3.3110   -0.0177   -0.0399 C   0  0  0  0  0  0  0  0  0  0  0  0
   -4.4281  -10.7125    2.5189 C   0  0  0  0  0  0  0  0  0  0  0  0
   -1.7059  -10.5377    1.1675 C   0  0  0  0  0  0  0  0  0  0  0  0
    4.6660   -1.2151   -0.0729 C   0  0  0  0  0  0  0  0  0  0  0  0
   -3.3588   -9.6980    2.9059 C   0  0  0  0  0  0  0  0  0  0  0  0
   -2.3983   -9.3119    1.7661 C   0  0  2  0  0  0  0  0  0  0  0  0
   -3.5172   -6.6308   -0.5388 N   0  0  0  0  0  0  0  0  0  0  0  0
   -1.7435   -2.5651   -0.0101 N   0  0  0  0  0  0  0  0  0  0  0  0
   -3.0931   -8.5503    0.7335 N   0  0  0  0  0  0  0  0  0  0  0  0
    3.2232   -1.1634   -0.0458 N   0  0  0  0  0  0  0  0  0  0  0  0
    3.0921    1.1251   -0.0031 O   0  0  0  0  0  0  0  0  0  0  0  0
    0.1131   -3.9653    0.1155 O   0  0  0  0  0  0  0  0  0  0  0  0
   -1.5250   -6.3275    1.0270 S   0  0  0  0  0  0  0  0  0  0  0  0
   -1.6078   -8.7102    2.2243 H   0  0  0  0  0  0  0  0  0  0  0  0
    0.8191    2.1398    0.0059 H   0  0  0  0  0  0  0  0  0  0  0  0
   -1.6339    2.0987   -0.0003 H   0  0  0  0  0  0  0  0  0  0  0  0
    0.8997   -2.1100   -0.0031 H   0  0  0  0  0  0  0  0  0  0  0  0
   -3.4746   -4.7253   -1.5081 H   0  0  0  0  0  0  0  0  0  0  0  0
   -3.6920   -0.5021   -0.9440 H   0  0  0  0  0  0  0  0  0  0  0  0
   -3.7291   -0.5028    0.8468 H   0  0  0  0  0  0  0  0  0  0  0  0
   -3.6778    1.0167   -0.0484 H   0  0  0  0  0  0  0  0  0  0  0  0
   -3.9889  -11.6611    2.1977 H   0  0  0  0  0  0  0  0  0  0  0  0
   -5.0685  -10.9376    3.3766 H   0  0  0  0  0  0  0  0  0  0  0  0
   -5.0584  -10.3322    1.7106 H   0  0  0  0  0  0  0  0  0  0  0  0
   -2.4017  -11.3277    0.8706 H   0  0  0  0  0  0  0  0  0  0  0  0
   -1.1279  -10.2754    0.2772 H   0  0  0  0  0  0  0  0  0  0  0  0
   -1.0207  -10.9671    1.9080 H   0  0  0  0  0  0  0  0  0  0  0  0
    5.0067   -1.7776    0.8007 H   0  0  0  0  0  0  0  0  0  0  0  0
    4.9737   -1.7470   -0.9774 H   0  0  0  0  0  0  0  0  0  0  0  0
    5.1084   -0.2177   -0.0643 H   0  0  0  0  0  0  0  0  0  0  0  0
   -2.7699  -10.1183    3.7319 H   0  0  0  0  0  0  0  0  0  0  0  0
   -3.8474   -8.7977    3.2989 H   0  0  0  0  0  0  0  0  0  0  0  0
   -2.7560   -2.5525    0.0073 H   0  0  0  0  0  0  0  0  0  0  0  0
   -3.8753   -8.9964    0.2663 H   0  0  0  0  0  0  0  0  0  0  0  0
    2.7529   -2.0565   -0.0546 H   0  0  0  0  0  0  0  0  0  0  0  0
  1  2  2  0  0  0  0
  1  5  1  0  0  0  0
  1 26  1  0  0  0  0
  2  6  1  0  0  0  0
  2 27  1  0  0  0  0
  3  5  2  0  0  0  0
  3  7  1  0  0  0  0
  3 28  1  0  0  0  0
  4  8  2  0  0  0  0
  4 18  1  0  0  0  0
  4 29  1  0  0  0  0
  5 10  1  0  0  0  0
  6  7  2  0  0  0  0
  6 12  1  0  0  0  0
  7 19  1  0  0  0  0
  8 11  1  0  0  0  0
  8 24  1  0  0  0  0
  9 18  2  0  0  0  0
  9 20  1  0  0  0  0
  9 24  1  0  0  0  0
 10 21  1  0  0  0  0
 10 22  2  0  0  0  0
 11 19  1  0  0  0  0
 11 23  2  0  0  0  0
 12 30  1  0  0  0  0
 12 31  1  0  0  0  0
 12 32  1  0  0  0  0
 13 16  1  0  0  0  0
 13 33  1  0  0  0  0
 13 34  1  0  0  0  0
 13 35  1  0  0  0  0
 14 36  1  0  0  0  0
 14 37  1  0  0  0  0
 14 38  1  0  0  0  0
 15 21  1  0  0  0  0
 15 39  1  0  0  0  0
 15 40  1  0  0  0  0
 15 41  1  0  0  0  0
 16 42  1  0  0  0  0
 16 43  1  0  0  0  0
 17 20  1  0  0  0  0
 17 25  1  1  0  0  0
 17 16  1  0  0  0  0
 17 14  1  0  0  0  0
 19 44  1  0  0  0  0
 20 45  1  0  0  0  0
 21 46  1  0  0  0  0
M  END
>  <DRUGBANK_ID>
DB06991

>  <COMMON_NAME>
N-[2-methyl-5-(methylcarbamoyl)phenyl]-2-{[(1R)-1-methylpropyl]amino}-1,3-thiazole-5-carboxamide

$$$$
