548
 OpenBabel10282417103D

 29 28  0  0  0  0  0  0  0  0999 V2000
    0.9910   -0.1355   -0.2499 O   0  0  0  0  0  0  0  0  0  0  0  0
   -4.5362    5.0688    2.3725 O   0  0  0  0  0  0  0  0  0  0  0  0
    1.0888   -2.2658   -0.9059 O   0  0  0  0  0  0  0  0  0  0  0  0
   -3.3825    4.3481    0.5945 O   0  0  0  0  0  0  0  0  0  0  0  0
   -1.7101    1.4187    0.6374 C   0  0  0  0  0  0  0  0  0  0  0  0
   -1.1911    0.2697    1.5096 C   0  0  0  0  0  0  0  0  0  0  0  0
   -3.2418    1.4305    0.6213 C   0  0  0  0  0  0  0  0  0  0  0  0
   -1.5944   -1.0890    0.9272 C   0  0  0  0  0  0  0  0  0  0  0  0
   -3.8089    1.6846    2.0231 C   0  0  0  0  0  0  0  0  0  0  0  0
   -1.0960   -1.2782   -0.5067 C   0  0  0  0  0  0  0  0  0  0  0  0
   -3.3193    3.0073    2.6162 C   0  0  0  0  0  0  0  0  0  0  0  0
    0.4076   -1.3000   -0.5858 C   0  0  0  0  0  0  0  0  0  0  0  0
   -3.7324    4.1830    1.7540 C   0  0  0  0  0  0  0  0  0  0  0  0
    1.9525   -0.3067   -0.1896 H   0  0  0  0  0  0  0  0  0  0  0  0
   -4.7213    4.8719    3.3071 H   0  0  0  0  0  0  0  0  0  0  0  0
   -1.2981    2.3665    0.9968 H   0  0  0  0  0  0  0  0  0  0  0  0
   -1.3378    1.3551   -0.3898 H   0  0  0  0  0  0  0  0  0  0  0  0
   -1.5502    0.3540    2.5397 H   0  0  0  0  0  0  0  0  0  0  0  0
   -0.1081    0.3443    1.6257 H   0  0  0  0  0  0  0  0  0  0  0  0
   -3.5997    2.1762   -0.0920 H   0  0  0  0  0  0  0  0  0  0  0  0
   -3.6425    0.4916    0.2253 H   0  0  0  0  0  0  0  0  0  0  0  0
   -2.6875   -1.1916    0.9431 H   0  0  0  0  0  0  0  0  0  0  0  0
   -1.2233   -1.8902    1.5737 H   0  0  0  0  0  0  0  0  0  0  0  0
   -4.9019    1.6601    1.9851 H   0  0  0  0  0  0  0  0  0  0  0  0
   -3.5274    0.8628    2.6945 H   0  0  0  0  0  0  0  0  0  0  0  0
   -1.4820   -0.5177   -1.1940 H   0  0  0  0  0  0  0  0  0  0  0  0
   -1.4781   -2.2284   -0.8929 H   0  0  0  0  0  0  0  0  0  0  0  0
   -3.6993    3.1106    3.6366 H   0  0  0  0  0  0  0  0  0  0  0  0
   -2.2283    3.0322    2.7194 H   0  0  0  0  0  0  0  0  0  0  0  0
  1 12  1  0  0  0  0
  1 14  1  0  0  0  0
  2 13  1  0  0  0  0
  2 15  1  0  0  0  0
  3 12  2  0  0  0  0
  4 13  2  0  0  0  0
  5  6  1  0  0  0  0
  5  7  1  0  0  0  0
  5 16  1  0  0  0  0
  5 17  1  0  0  0  0
  6  8  1  0  0  0  0
  6 18  1  0  0  0  0
  6 19  1  0  0  0  0
  7  9  1  0  0  0  0
  7 20  1  0  0  0  0
  7 21  1  0  0  0  0
  8 10  1  0  0  0  0
  8 22  1  0  0  0  0
  8 23  1  0  0  0  0
  9 11  1  0  0  0  0
  9 24  1  0  0  0  0
  9 25  1  0  0  0  0
 10 12  1  0  0  0  0
 10 26  1  0  0  0  0
 10 27  1  0  0  0  0
 11 13  1  0  0  0  0
 11 28  1  0  0  0  0
 11 29  1  0  0  0  0
M  END
>  <DRUGBANK_ID>
DB00548

>  <SECONDARY_ACCESSION_NUMBERS>
APRD00812; EXPT00598

>  <COMMON_NAME>
Azelaic acid

>  <CAS_NUMBER>
123-99-9

>  <UNII>
F2VW3D43YT

>  <SYNONYMS>
1,7-dicarboxyheptane; 1,7-Heptanedicarboxylic acid; 1,9-nonanedioic acid; Acide azélaïque; Ácido azelaico; Acidum acelaicum; Acidum azelaicum; Anchoic acid; Azelaic acid; Azelainsäure; Lepargylic acid; n-nonanedioic acid; Nonandisäure; Nonanedioic acid

$$$$
