
 OpenBabel10282417153D

 52 54  0  0  0  0  0  0  0  0999 V2000
    3.4176   -0.0130    0.0249 C   0  0  0  0  0  0  0  0  0  0  0  0
   -3.5758    2.9938   -0.0454 C   0  0  0  0  0  0  0  0  0  0  0  0
   -1.6798   -4.4729   -3.4252 C   0  0  0  0  0  0  0  0  0  0  0  0
    0.7964   -6.7524    2.9770 C   0  0  0  0  0  0  0  0  0  0  0  0
   -2.4157   -7.6208    1.0892 C   0  0  0  0  0  0  0  0  0  0  0  0
   -1.5195   -1.3712    0.0509 C   0  0  0  0  0  0  0  0  0  0  0  0
   -2.5993   -0.4813    0.0332 C   0  0  0  0  0  0  0  0  0  0  0  0
   -0.1528   -4.0059   -1.1545 C   0  0  0  0  0  0  0  0  0  0  0  0
    0.6825   -4.7490    1.0029 C   0  0  0  0  0  0  0  0  0  0  0  0
    1.9636   -0.2694    0.1065 C   0  0  0  0  0  0  0  0  0  0  0  0
    0.6845   -3.8476   -0.0550 C   0  0  0  0  0  0  0  0  0  0  0  0
   -0.2105   -0.8564    0.0745 C   0  0  0  0  0  0  0  0  0  0  0  0
   -2.4171    0.9116    0.0598 C   0  0  0  0  0  0  0  0  0  0  0  0
   -1.0637   -5.0608   -1.1832 C   0  0  0  0  0  0  0  0  0  0  0  0
   -0.2066   -5.8168    0.9911 C   0  0  0  0  0  0  0  0  0  0  0  0
    1.1358   -1.3778    0.0464 C   0  0  0  0  0  0  0  0  0  0  0  0
    1.6428   -2.7394   -0.0058 C   0  0  0  0  0  0  0  0  0  0  0  0
   -0.0813    0.5226    0.1686 C   0  0  0  0  0  0  0  0  0  0  0  0
   -1.1486   -5.9350   -0.0641 C   0  0  0  0  0  0  0  0  0  0  0  0
   -1.1218    1.4582    0.1477 C   0  0  0  0  0  0  0  0  0  0  0  0
    2.8266   -3.0272    0.0554 O   0  0  0  0  0  0  0  0  0  0  0  0
    1.0901    2.6564   -1.3706 O   0  0  0  0  0  0  0  0  0  0  0  0
   -0.1954    4.7597   -1.1849 O   0  0  0  0  0  0  0  0  0  0  0  0
    1.3809    4.0795    0.7621 O   0  0  0  0  0  0  0  0  0  0  0  0
   -3.6139    1.5794    0.0040 O   0  0  0  0  0  0  0  0  0  0  0  0
   -1.8855   -5.2876   -2.2651 O   0  0  0  0  0  0  0  0  0  0  0  0
   -0.1832   -6.7852    1.9544 O   0  0  0  0  0  0  0  0  0  0  0  0
   -2.1905   -6.8427   -0.0875 O   0  0  0  0  0  0  0  0  0  0  0  0
    1.2285    0.8512    0.2779 O   0  0  0  0  0  0  0  0  0  0  0  0
   -0.8980    2.8177    0.2265 O   0  0  0  0  0  0  0  0  0  0  0  0
    0.4223    3.5998   -0.2725 P   0  0  0  0  0  0  0  0  0  0  0  0
    3.6415    0.5466   -0.8916 H   0  0  0  0  0  0  0  0  0  0  0  0
    3.7315    0.6021    0.8733 H   0  0  0  0  0  0  0  0  0  0  0  0
    4.0151   -0.9232    0.0154 H   0  0  0  0  0  0  0  0  0  0  0  0
   -3.1155    3.4012    0.8588 H   0  0  0  0  0  0  0  0  0  0  0  0
   -3.0706    3.3334   -0.9554 H   0  0  0  0  0  0  0  0  0  0  0  0
   -4.6033    3.3653   -0.0801 H   0  0  0  0  0  0  0  0  0  0  0  0
   -2.0099   -3.4459   -3.2322 H   0  0  0  0  0  0  0  0  0  0  0  0
   -0.6360   -4.4838   -3.7666 H   0  0  0  0  0  0  0  0  0  0  0  0
   -2.2879   -4.8674   -4.2449 H   0  0  0  0  0  0  0  0  0  0  0  0
    1.8094   -6.7745    2.5641 H   0  0  0  0  0  0  0  0  0  0  0  0
    0.6390   -5.8867    3.6255 H   0  0  0  0  0  0  0  0  0  0  0  0
    0.6624   -7.6545    3.5820 H   0  0  0  0  0  0  0  0  0  0  0  0
   -1.6194   -8.3640    1.2060 H   0  0  0  0  0  0  0  0  0  0  0  0
   -2.5301   -6.9952    1.9857 H   0  0  0  0  0  0  0  0  0  0  0  0
   -3.3456   -8.1831    0.9798 H   0  0  0  0  0  0  0  0  0  0  0  0
   -1.7386   -2.4335    0.0592 H   0  0  0  0  0  0  0  0  0  0  0  0
   -3.6074   -0.8984    0.0134 H   0  0  0  0  0  0  0  0  0  0  0  0
   -0.1131   -3.2622   -1.9439 H   0  0  0  0  0  0  0  0  0  0  0  0
    1.3754   -4.5898    1.8227 H   0  0  0  0  0  0  0  0  0  0  0  0
    1.6517    2.0480   -0.8441 H   0  0  0  0  0  0  0  0  0  0  0  0
   -1.1585    4.6874   -1.2736 H   0  0  0  0  0  0  0  0  0  0  0  0
  1 32  1  0  0  0  0
  1 33  1  0  0  0  0
  1 34  1  0  0  0  0
  2 35  1  0  0  0  0
  2 36  1  0  0  0  0
  2 37  1  0  0  0  0
  3 38  1  0  0  0  0
  3 39  1  0  0  0  0
  3 40  1  0  0  0  0
  4 41  1  0  0  0  0
  4 42  1  0  0  0  0
  4 43  1  0  0  0  0
  5 44  1  0  0  0  0
  5 45  1  0  0  0  0
  5 46  1  0  0  0  0
  6 47  1  0  0  0  0
  7  6  2  0  0  0  0
  7 48  1  0  0  0  0
  8 49  1  0  0  0  0
  9 50  1  0  0  0  0
 10  1  1  0  0  0  0
 11  8  2  0  0  0  0
 11  9  1  0  0  0  0
 12  6  1  0  0  0  0
 13  7  1  0  0  0  0
 14  8  1  0  0  0  0
 15  9  2  0  0  0  0
 16 10  2  0  0  0  0
 16 12  1  0  0  0  0
 17 11  1  0  0  0  0
 17 16  1  0  0  0  0
 18 12  2  0  0  0  0
 19 14  2  0  0  0  0
 19 15  1  0  0  0  0
 20 13  2  0  0  0  0
 20 18  1  0  0  0  0
 21 17  2  0  0  0  0
 22 51  1  0  0  0  0
 23 52  1  0  0  0  0
 25  2  1  0  0  0  0
 25 13  1  0  0  0  0
 26  3  1  0  0  0  0
 26 14  1  0  0  0  0
 27  4  1  0  0  0  0
 27 15  1  0  0  0  0
 28  5  1  0  0  0  0
 28 19  1  0  0  0  0
 29 10  1  0  0  0  0
 29 18  1  0  0  0  0
 30 20  1  0  0  0  0
 31 22  1  0  0  0  0
 31 23  1  0  0  0  0
 31 24  2  0  0  0  0
 31 30  1  0  0  0  0
M  END
>  <DRUGBANK_ID>
DB06313

>  <COMMON_NAME>
BNC105

>  <CAS_NUMBER>
945772-45-2

>  <UNII>
TO9V2XZF53

$$$$
