
 OpenBabel10282417123D

 23 22  0  0  1  0  0  0  0  0999 V2000
   -1.5354   -0.5557   -7.6844 P   0  0  0  0  0  0  0  0  0  0  0  0
   -1.3688   -1.4214   -6.3096 O   0  0  0  0  0  0  0  0  0  0  0  0
   -0.2216    1.4325   -6.1282 O   0  0  0  0  0  0  0  0  0  0  0  0
   -1.3700    3.5365   -4.0762 O   0  0  0  0  0  0  0  0  0  0  0  0
   -2.7733    1.7972   -3.8004 O   0  0  0  0  0  0  0  0  0  0  0  0
   -1.4387   -1.7126   -8.8215 O   0  0  0  0  0  0  0  0  0  0  0  0
    0.1946   -0.5563   -7.6836 O   0  0  0  0  0  0  0  0  0  0  0  0
   -3.0838   -0.5551   -7.6852 O   0  0  0  0  0  0  0  0  0  0  0  0
   -0.3068    0.5456   -2.5931 N   0  0  0  0  0  0  0  0  0  0  0  0
   -0.3279    0.4557   -5.0669 C   0  0  1  0  0  0  0  0  0  0  0  0
   -0.3619    1.3368   -3.8237 C   0  0  1  0  0  0  0  0  0  0  0  0
   -1.5045   -0.5661   -5.1669 C   0  0  0  0  0  0  0  0  0  0  0  0
   -1.6143    2.2217   -3.8943 C   0  0  0  0  0  0  0  0  0  0  0  0
   -0.1157    1.0990   -7.0325 H   0  0  0  0  0  0  0  0  0  0  0  0
   -0.4292    3.7700   -4.1970 H   0  0  0  0  0  0  0  0  0  0  0  0
   -2.3312   -1.7545   -9.2211 H   0  0  0  0  0  0  0  0  0  0  0  0
    0.7121   -0.4434   -6.8760 H   0  0  0  0  0  0  0  0  0  0  0  0
   -0.6687    1.0966   -1.8163 H   0  0  0  0  0  0  0  0  0  0  0  0
    0.6592    0.3054   -2.3754 H   0  0  0  0  0  0  0  0  0  0  0  0
    0.6053   -0.1251   -5.0512 H   0  0  0  0  0  0  0  0  0  0  0  0
    0.5178    1.9944   -3.8539 H   0  0  0  0  0  0  0  0  0  0  0  0
   -2.4729   -0.0704   -5.2529 H   0  0  0  0  0  0  0  0  0  0  0  0
   -1.5333   -1.2225   -4.2923 H   0  0  0  0  0  0  0  0  0  0  0  0
  1  2  1  0  0  0  0
  1  6  1  0  0  0  0
  1  7  1  0  0  0  0
  1  8  2  0  0  0  0
  2 12  1  0  0  0  0
  3 14  1  0  0  0  0
  4 13  1  0  0  0  0
  4 15  1  0  0  0  0
  5 13  2  0  0  0  0
  6 16  1  0  0  0  0
  7 17  1  0  0  0  0
  9 18  1  0  0  0  0
  9 19  1  0  0  0  0
 10  3  1  0  0  0  0
 10 12  1  0  0  0  0
 10 20  1  1  0  0  0
 11 13  1  0  0  0  0
 11 21  1  6  0  0  0
 11 10  1  0  0  0  0
 11  9  1  0  0  0  0
 12 22  1  0  0  0  0
 12 23  1  0  0  0  0
M  END
>  <DRUGBANK_ID>
DB02609

>  <SECONDARY_ACCESSION_NUMBERS>
EXPT00231

>  <COMMON_NAME>
4-Hydroxy-L-Threonine-5-Monophosphate

$$$$
