1336
 OpenBabel10282417113D

 96102  0  0  1  0  0  0  0  0999 V2000
    5.1714   -1.8729   -4.1794 O   0  0  0  0  0  0  0  0  0  0  0  0
    6.7785   -3.4707   -4.6670 O   0  0  0  0  0  0  0  0  0  0  0  0
    9.1543   -1.4393   -8.4886 O   0  0  0  0  0  0  0  0  0  0  0  0
   11.1360   -3.0282   -7.4880 O   0  0  0  0  0  0  0  0  0  0  0  0
    4.0695   -2.3943   -5.8546 O   0  0  0  0  0  0  0  0  0  0  0  0
    6.1935   -5.7955   -4.1757 O   0  0  0  0  0  0  0  0  0  0  0  0
    6.5467   -6.1555  -10.2073 N   0  3  0  0  0  0  0  0  0  0  0  0
    6.4493    2.2240   -1.9407 N   0  3  0  0  0  0  0  0  0  0  0  0
    6.7574   -4.2718   -9.5361 C   0  0  1  0  0  0  0  0  0  0  0  0
    6.9189    0.7631   -1.9357 C   0  0  2  0  0  0  0  0  0  0  0  0
    6.8296   -6.9218   -9.0420 C   0  0  0  0  0  0  0  0  0  0  0  0
    4.9841    2.3592   -2.0789 C   0  0  0  0  0  0  0  0  0  0  0  0
    7.0996   -3.3693   -7.6309 C   0  0  0  0  0  0  0  0  0  0  0  0
    8.0817   -6.5055   -8.4334 C   0  0  0  0  0  0  0  0  0  0  0  0
    6.3081   -0.0023   -3.0652 C   0  0  0  0  0  0  0  0  0  0  0  0
    5.3724   -3.9383   -9.4429 C   0  0  0  0  0  0  0  0  0  0  0  0
    8.2612   -4.6865   -8.2893 C   0  0  0  0  0  0  0  0  0  0  0  0
    4.3215    1.7183   -3.2162 C   0  0  0  0  0  0  0  0  0  0  0  0
    7.5653   -6.8212  -11.2184 C   0  0  0  0  0  0  0  0  0  0  0  0
    5.1782   -6.6019  -10.9096 C   0  0  0  0  0  0  0  0  0  0  0  0
    6.7056    0.0934   -0.5551 C   0  0  0  0  0  0  0  0  0  0  0  0
    5.0863    0.5546   -3.7759 C   0  0  0  0  0  0  0  0  0  0  0  0
    6.8675    2.9270   -3.1631 C   0  0  0  0  0  0  0  0  0  0  0  0
    7.0257    2.9235   -0.7468 C   0  0  0  0  0  0  0  0  0  0  0  0
    6.3909   -2.0703   -6.1231 C   0  0  0  0  0  0  0  0  0  0  0  0
    5.1547   -4.5004   -8.1019 C   0  0  0  0  0  0  0  0  0  0  0  0
    7.0123   -1.2457   -3.3964 C   0  0  0  0  0  0  0  0  0  0  0  0
    9.5740   -4.6296   -8.0748 C   0  0  0  0  0  0  0  0  0  0  0  0
    5.3130    0.0212   -0.0255 C   0  0  0  0  0  0  0  0  0  0  0  0
    4.3869   -0.0486   -4.9452 C   0  0  0  0  0  0  0  0  0  0  0  0
    8.2557   -2.1350   -6.9333 C   0  0  0  0  0  0  0  0  0  0  0  0
    6.6461   -1.9651   -4.4828 C   0  0  0  0  0  0  0  0  0  0  0  0
    9.5625   -3.2787   -7.7375 C   0  0  0  0  0  0  0  0  0  0  0  0
    5.0302   -1.1786   -5.5428 C   0  0  0  0  0  0  0  0  0  0  0  0
    5.2710   -3.7660   -6.9918 C   0  0  0  0  0  0  0  0  0  0  0  0
    4.8807   -5.7214   -7.6901 C   0  0  0  0  0  0  0  0  0  0  0  0
    4.5969   -1.1654    0.0825 C   0  0  0  0  0  0  0  0  0  0  0  0
    4.5045    1.0280    0.1430 C   0  0  0  0  0  0  0  0  0  0  0  0
    4.0459   -0.9383   -2.5207 C   0  0  0  0  0  0  0  0  0  0  0  0
    5.9858   -4.1769   -5.6824 C   0  0  0  0  0  0  0  0  0  0  0  0
    3.6007   -1.4138   -0.9211 C   0  0  0  0  0  0  0  0  0  0  0  0
    3.6262    0.4447   -1.1220 C   0  0  0  0  0  0  0  0  0  0  0  0
    5.2588   -6.1808   -6.4045 C   0  0  0  0  0  0  0  0  0  0  0  0
    5.8625   -5.4434   -5.4181 C   0  0  0  0  0  0  0  0  0  0  0  0
   10.9344   -0.9268   -8.5358 C   0  0  0  0  0  0  0  0  0  0  0  0
   11.9132   -3.9504   -6.6478 C   0  0  0  0  0  0  0  0  0  0  0  0
    2.9208   -1.9476   -6.4404 C   0  0  0  0  0  0  0  0  0  0  0  0
    5.9590   -7.1431   -3.8890 C   0  0  0  0  0  0  0  0  0  0  0  0
    6.7509   -4.2310  -10.9881 H   0  0  0  0  0  0  0  0  0  0  0  0
    7.9933    0.7754   -2.1801 H   0  0  0  0  0  0  0  0  0  0  0  0
    6.4143   -6.3656   -8.3314 H   0  0  0  0  0  0  0  0  0  0  0  0
    6.3604   -7.8969   -8.9298 H   0  0  0  0  0  0  0  0  0  0  0  0
    4.7056    1.6215   -1.5172 H   0  0  0  0  0  0  0  0  0  0  0  0
    4.5275    3.2201   -1.6193 H   0  0  0  0  0  0  0  0  0  0  0  0
    8.1257   -6.8248   -7.3965 H   0  0  0  0  0  0  0  0  0  0  0  0
    8.7589   -7.2121   -8.9894 H   0  0  0  0  0  0  0  0  0  0  0  0
    4.5701   -4.2342  -10.0847 H   0  0  0  0  0  0  0  0  0  0  0  0
    5.6349   -2.9001   -9.6190 H   0  0  0  0  0  0  0  0  0  0  0  0
    3.2559    1.4946   -3.0153 H   0  0  0  0  0  0  0  0  0  0  0  0
    4.4301    2.4456   -3.9527 H   0  0  0  0  0  0  0  0  0  0  0  0
    7.4291   -7.9306  -11.2163 H   0  0  0  0  0  0  0  0  0  0  0  0
    7.4386   -6.4630  -12.2338 H   0  0  0  0  0  0  0  0  0  0  0  0
    8.5443   -6.5895  -10.8451 H   0  0  0  0  0  0  0  0  0  0  0  0
    4.3717   -6.2078  -10.3241 H   0  0  0  0  0  0  0  0  0  0  0  0
    5.1126   -6.2293  -11.9361 H   0  0  0  0  0  0  0  0  0  0  0  0
    5.0912   -7.7060  -10.9326 H   0  0  0  0  0  0  0  0  0  0  0  0
    7.2876    0.6309    0.1851 H   0  0  0  0  0  0  0  0  0  0  0  0
    7.0953   -0.9207   -0.5918 H   0  0  0  0  0  0  0  0  0  0  0  0
    6.4563    3.9329   -3.1039 H   0  0  0  0  0  0  0  0  0  0  0  0
    7.9361    2.9160   -3.2137 H   0  0  0  0  0  0  0  0  0  0  0  0
    6.4494    2.4162   -4.0249 H   0  0  0  0  0  0  0  0  0  0  0  0
    6.7474    2.4242    0.1776 H   0  0  0  0  0  0  0  0  0  0  0  0
    8.1049    2.8979   -0.8330 H   0  0  0  0  0  0  0  0  0  0  0  0
    6.6341    3.9303   -0.7257 H   0  0  0  0  0  0  0  0  0  0  0  0
    7.8290   -1.6035   -2.8942 H   0  0  0  0  0  0  0  0  0  0  0  0
   10.1376   -5.4079   -7.4623 H   0  0  0  0  0  0  0  0  0  0  0  0
    3.2996   -0.0120   -4.9184 H   0  0  0  0  0  0  0  0  0  0  0  0
    5.3635   -2.6818   -7.4732 H   0  0  0  0  0  0  0  0  0  0  0  0
    4.7631   -6.4527   -8.4845 H   0  0  0  0  0  0  0  0  0  0  0  0
    5.1256   -2.0781    0.1778 H   0  0  0  0  0  0  0  0  0  0  0  0
    4.9505    2.1310    0.0432 H   0  0  0  0  0  0  0  0  0  0  0  0
    2.6958   -1.9873   -0.2197 H   0  0  0  0  0  0  0  0  0  0  0  0
    2.8602    1.5038   -0.2058 H   0  0  0  0  0  0  0  0  0  0  0  0
    4.9731   -7.1761   -6.1882 H   0  0  0  0  0  0  0  0  0  0  0  0
   11.0099   -0.8872   -7.4786 H   0  0  0  0  0  0  0  0  0  0  0  0
   11.8752   -1.5499   -8.8976 H   0  0  0  0  0  0  0  0  0  0  0  0
   11.2597    0.1151   -8.9020 H   0  0  0  0  0  0  0  0  0  0  0  0
   11.2776   -4.2624   -5.8284 H   0  0  0  0  0  0  0  0  0  0  0  0
   12.2966   -4.8309   -7.1862 H   0  0  0  0  0  0  0  0  0  0  0  0
   12.8033   -3.4551   -6.2061 H   0  0  0  0  0  0  0  0  0  0  0  0
    2.2334   -1.8709   -5.6169 H   0  0  0  0  0  0  0  0  0  0  0  0
    3.1023   -1.0011   -6.9317 H   0  0  0  0  0  0  0  0  0  0  0  0
    2.6204   -2.6977   -7.1537 H   0  0  0  0  0  0  0  0  0  0  0  0
    4.9014   -7.3845   -4.0021 H   0  0  0  0  0  0  0  0  0  0  0  0
    6.5625   -7.7732   -4.5431 H   0  0  0  0  0  0  0  0  0  0  0  0
    6.2503   -7.3233   -2.8577 H   0  0  0  0  0  0  0  0  0  0  0  0
  1 25  1  0  0  0  0
  1 39  1  0  0  0  0
  2 32  1  0  0  0  0
  2 40  1  0  0  0  0
  3 31  1  0  0  0  0
  3 45  1  0  0  0  0
  4 33  1  0  0  0  0
  4 46  1  0  0  0  0
  5 34  1  0  0  0  0
  5 47  1  0  0  0  0
  6 44  1  0  0  0  0
  6 48  1  0  0  0  0
  7  9  1  0  0  0  0
  7 11  1  0  0  0  0
  7 19  1  0  0  0  0
  7 20  1  0  0  0  0
  8 10  1  0  0  0  0
  8 12  1  0  0  0  0
  8 23  1  0  0  0  0
  8 24  1  0  0  0  0
  9 13  1  0  0  0  0
  9 16  1  0  0  0  0
  9 49  1  1  0  0  0
 10 15  1  0  0  0  0
 10 21  1  0  0  0  0
 10 50  1  6  0  0  0
 11 14  1  0  0  0  0
 11 51  1  0  0  0  0
 11 52  1  0  0  0  0
 12 18  1  0  0  0  0
 12 53  1  0  0  0  0
 12 54  1  0  0  0  0
 13 17  1  0  0  0  0
 13 25  2  0  0  0  0
 14 17  1  0  0  0  0
 14 55  1  0  0  0  0
 14 56  1  0  0  0  0
 15 22  1  0  0  0  0
 15 27  2  0  0  0  0
 16 26  1  0  0  0  0
 16 57  1  0  0  0  0
 16 58  1  0  0  0  0
 17 28  2  0  0  0  0
 18 22  1  0  0  0  0
 18 59  1  0  0  0  0
 18 60  1  0  0  0  0
 19 61  1  0  0  0  0
 19 62  1  0  0  0  0
 19 63  1  0  0  0  0
 20 64  1  0  0  0  0
 20 65  1  0  0  0  0
 20 66  1  0  0  0  0
 21 29  1  0  0  0  0
 21 67  1  0  0  0  0
 21 68  1  0  0  0  0
 22 30  2  0  0  0  0
 23 69  1  0  0  0  0
 23 70  1  0  0  0  0
 23 71  1  0  0  0  0
 24 72  1  0  0  0  0
 24 73  1  0  0  0  0
 24 74  1  0  0  0  0
 25 31  1  0  0  0  0
 26 35  2  0  0  0  0
 26 36  1  0  0  0  0
 27 32  1  0  0  0  0
 27 75  1  0  0  0  0
 28 33  1  0  0  0  0
 28 76  1  0  0  0  0
 29 37  2  0  0  0  0
 29 38  1  0  0  0  0
 30 34  1  0  0  0  0
 30 77  1  0  0  0  0
 31 33  2  0  0  0  0
 32 34  2  0  0  0  0
 35 40  1  0  0  0  0
 35 78  1  0  0  0  0
 36 43  2  0  0  0  0
 36 79  1  0  0  0  0
 37 41  1  0  0  0  0
 37 80  1  0  0  0  0
 38 42  2  0  0  0  0
 38 81  1  0  0  0  0
 39 41  2  0  0  0  0
 39 42  1  0  0  0  0
 40 44  2  0  0  0  0
 41 82  1  0  0  0  0
 42 83  1  0  0  0  0
 43 44  1  0  0  0  0
 43 84  1  0  0  0  0
 45 85  1  0  0  0  0
 45 86  1  0  0  0  0
 45 87  1  0  0  0  0
 46 88  1  0  0  0  0
 46 89  1  0  0  0  0
 46 90  1  0  0  0  0
 47 91  1  0  0  0  0
 47 92  1  0  0  0  0
 47 93  1  0  0  0  0
 48 94  1  0  0  0  0
 48 95  1  0  0  0  0
 48 96  1  0  0  0  0
M  CHG  2   7   1   8   1
M  END
>  <DRUGBANK_ID>
DB01336

>  <COMMON_NAME>
Metocurine

>  <CAS_NUMBER>
5152-30-7

>  <UNII>
V0M92G2U26

>  <SYNONYMS>
Dimethylchondrocurarine; O,O-Dimethylchondrocurarine

$$$$
