
 OpenBabel10282417133D

 26 25  0  0  0  0  0  0  0  0999 V2000
    0.7425   -0.1022   -0.1537 C   0  0  0  0  0  0  0  0  0  0  0  0
    0.1405    1.3019    0.0168 C   0  0  0  0  0  0  0  0  0  0  0  0
    0.9349    2.2540   -0.6605 O   0  0  0  0  0  0  0  0  0  0  0  0
    2.3625    2.0841   -0.4413 C   0  0  0  0  0  0  0  0  0  0  0  0
    2.9504    1.9570    0.9977 C   0  0  0  0  0  0  0  0  0  0  0  0
    2.6575    1.2087    2.1996 O   0  0  0  0  0  0  0  0  0  0  0  0
    1.3124    1.2612    2.6660 C   0  0  0  0  0  0  0  0  0  0  0  0
    0.6190    2.6540    2.9853 C   0  0  0  0  0  0  0  0  0  0  0  0
    0.9811    3.8354    2.2507 O   0  0  0  0  0  0  0  0  0  0  0  0
    2.2926    4.3365    2.5093 C   0  0  0  0  0  0  0  0  0  0  0  0
    0.5737   -0.4081   -1.1853 H   0  0  0  0  0  0  0  0  0  0  0  0
    0.3504   -0.8485    0.5390 H   0  0  0  0  0  0  0  0  0  0  0  0
    1.8320   -0.1544   -0.0129 H   0  0  0  0  0  0  0  0  0  0  0  0
   -0.9505    1.2854   -0.1030 H   0  0  0  0  0  0  0  0  0  0  0  0
    0.0673    1.7828    0.9727 H   0  0  0  0  0  0  0  0  0  0  0  0
    2.7398    1.3018   -1.0882 H   0  0  0  0  0  0  0  0  0  0  0  0
    2.7778    3.0378   -0.8154 H   0  0  0  0  0  0  0  0  0  0  0  0
    3.9894    2.2435    1.0466 H   0  0  0  0  0  0  0  0  0  0  0  0
    2.3416    2.8356    1.1864 H   0  0  0  0  0  0  0  0  0  0  0  0
    0.9114    0.6865    1.8640 H   0  0  0  0  0  0  0  0  0  0  0  0
    0.9601    0.5019    3.3764 H   0  0  0  0  0  0  0  0  0  0  0  0
   -0.4707    2.5536    2.8514 H   0  0  0  0  0  0  0  0  0  0  0  0
    0.7659    2.8913    4.0401 H   0  0  0  0  0  0  0  0  0  0  0  0
    2.4463    4.5848    3.5638 H   0  0  0  0  0  0  0  0  0  0  0  0
    3.0803    3.5909    2.4675 H   0  0  0  0  0  0  0  0  0  0  0  0
    2.5791    5.0315    1.7204 H   0  0  0  0  0  0  0  0  0  0  0  0
  1  2  1  0  0  0  0
  1 11  1  0  0  0  0
  1 12  1  0  0  0  0
  1 13  1  0  0  0  0
  2  3  1  0  0  0  0
  2 14  1  0  0  0  0
  2 15  1  0  0  0  0
  3  4  1  0  0  0  0
  4  5  1  0  0  0  0
  4 16  1  0  0  0  0
  4 17  1  0  0  0  0
  5  6  1  0  0  0  0
  5 18  1  0  0  0  0
  5 19  1  0  0  0  0
  6  7  1  0  0  0  0
  7  8  1  0  0  0  0
  7 20  1  0  0  0  0
  7 21  1  0  0  0  0
  8  9  1  0  0  0  0
  8 22  1  0  0  0  0
  8 23  1  0  0  0  0
  9 10  1  0  0  0  0
 10 24  1  0  0  0  0
 10 25  1  0  0  0  0
 10 26  1  0  0  0  0
M  END
>  <DRUGBANK_ID>
DB03508

>  <SECONDARY_ACCESSION_NUMBERS>
EXPT02148

>  <COMMON_NAME>
Diethylene glycol ethyl methyl ether

>  <CAS_NUMBER>
1002-67-1

>  <UNII>
LF64ICW5Y3

>  <SYNONYMS>
1-ethoxy-2-(2-methoxyethoxy)ethane

$$$$
