
 OpenBabel10282417123D

 23 23  0  0  1  0  0  0  0  0999 V2000
    1.0360    2.4934   -0.0520 N   0  0  0  0  0  0  0  0  0  0  0  0
    0.5015    1.2271    0.5126 C   0  0  2  0  0  0  0  0  0  0  0  0
    1.0374   -0.0941   -0.1190 C   0  0  0  0  0  0  0  0  0  0  0  0
    1.6039    0.0599   -1.5172 C   0  0  0  0  0  0  0  0  0  0  0  0
    0.9002    0.7817   -2.4923 C   0  0  0  0  0  0  0  0  0  0  0  0
    1.5301    1.2170   -3.6510 C   0  0  0  0  0  0  0  0  0  0  0  0
    2.8348    0.8209   -3.9121 C   0  0  0  0  0  0  0  0  0  0  0  0
    3.5094    0.0026   -3.0054 C   0  0  0  0  0  0  0  0  0  0  0  0
    2.8905   -0.3988   -1.8197 C   0  0  0  0  0  0  0  0  0  0  0  0
   -1.0391    1.2243    0.4608 C   0  0  0  0  0  0  0  0  0  0  0  0
   -1.6459    1.3633    1.6610 O   0  0  0  0  0  0  0  0  0  0  0  0
   -1.6962    1.0982   -0.5687 O   0  0  0  0  0  0  0  0  0  0  0  0
    0.6202    2.6264   -0.9810 H   0  0  0  0  0  0  0  0  0  0  0  0
    2.0259    2.3537   -0.2777 H   0  0  0  0  0  0  0  0  0  0  0  0
    0.8001    1.2339    1.5667 H   0  0  0  0  0  0  0  0  0  0  0  0
    1.8377   -0.4604    0.5404 H   0  0  0  0  0  0  0  0  0  0  0  0
    0.2677   -0.8757   -0.1302 H   0  0  0  0  0  0  0  0  0  0  0  0
   -0.1224    1.1054   -2.3172 H   0  0  0  0  0  0  0  0  0  0  0  0
    1.0058    1.8922   -4.3219 H   0  0  0  0  0  0  0  0  0  0  0  0
    3.3196    1.1434   -4.8283 H   0  0  0  0  0  0  0  0  0  0  0  0
    4.5353   -0.2918   -3.2086 H   0  0  0  0  0  0  0  0  0  0  0  0
    3.4339   -1.0365   -1.1255 H   0  0  0  0  0  0  0  0  0  0  0  0
   -1.0419    1.5328    2.4075 H   0  0  0  0  0  0  0  0  0  0  0  0
  1 13  1  0  0  0  0
  1 14  1  0  0  0  0
  2 10  1  0  0  0  0
  2 15  1  1  0  0  0
  2  3  1  0  0  0  0
  2  1  1  0  0  0  0
  3  4  1  0  0  0  0
  3 16  1  0  0  0  0
  3 17  1  0  0  0  0
  4  5  2  0  0  0  0
  4  9  1  0  0  0  0
  5  6  1  0  0  0  0
  5 18  1  0  0  0  0
  6  7  2  0  0  0  0
  6 19  1  0  0  0  0
  7  8  1  0  0  0  0
  7 20  1  0  0  0  0
  8  9  2  0  0  0  0
  8 21  1  0  0  0  0
  9 22  1  0  0  0  0
 10 11  1  0  0  0  0
 10 12  2  0  0  0  0
 11 23  1  0  0  0  0
M  END
>  <DRUGBANK_ID>
DB02556

>  <SECONDARY_ACCESSION_NUMBERS>
EXPT01257

>  <COMMON_NAME>
D-Phenylalanine

>  <CAS_NUMBER>
673-06-3

>  <UNII>
032K16VRCU

$$$$
