
 OpenBabel10282417133D

 97 99  0  0  0  0  0  0  0  0999 V2000
   -7.1099   11.7614   -0.1704 S   0  0  0  0  0  0  0  0  0  0  0  0
  -12.6329   -0.9346   -3.0149 P   0  0  0  0  0  0  0  0  0  0  0  0
  -13.3921    2.7143   -0.2485 P   0  0  2  0  0  0  0  0  0  0  0  0
  -12.2667    5.1318   -0.7395 P   0  0  2  0  0  0  0  0  0  0  0  0
  -10.1220    0.0104    0.0472 O   0  0  0  0  0  0  0  0  0  0  0  0
  -13.2351    0.2619   -1.9200 O   0  0  0  0  0  0  0  0  0  0  0  0
  -11.9438   -2.2655   -0.9673 O   0  0  0  0  0  0  0  0  0  0  0  0
  -11.8011    2.5089    0.0484 O   0  0  0  0  0  0  0  0  0  0  0  0
  -14.1415   -0.9240   -3.6344 O   0  0  0  0  0  0  0  0  0  0  0  0
  -12.0139    0.3067   -3.8817 O   0  0  0  0  0  0  0  0  0  0  0  0
  -13.2077    3.8701   -1.2464 O   0  0  0  0  0  0  0  0  0  0  0  0
  -13.6791    5.6496    0.1149 O   0  0  0  0  0  0  0  0  0  0  0  0
  -12.0940   -2.0055   -3.9948 O   0  0  0  0  0  0  0  0  0  0  0  0
  -14.0934    3.5665    0.8802 O   0  0  0  0  0  0  0  0  0  0  0  0
  -12.1185    7.6396   -2.4184 O   0  0  0  0  0  0  0  0  0  0  0  0
  -14.4009    1.6611   -0.5382 O   0  0  0  0  0  0  0  0  0  0  0  0
  -12.9801    5.6162   -2.1433 O   0  0  0  0  0  0  0  0  0  0  0  0
  -11.0026    4.6684   -1.5043 O   0  0  0  0  0  0  0  0  0  0  0  0
   -9.7355    8.1305   -0.4860 O   0  0  0  0  0  0  0  0  0  0  0  0
  -11.7588   13.8018   -0.7647 O   0  0  0  0  0  0  0  0  0  0  0  0
   -6.7344   14.1808   -0.8262 O   0  0  0  0  0  0  0  0  0  0  0  0
  -10.2993    9.8277   -3.5166 O   0  5  0  0  0  0  0  0  0  0  0  0
  -10.1305   11.3840   -1.9535 O   0  0  0  0  0  0  0  0  0  0  0  0
  -11.2607   -0.2659    2.1112 N   0  0  0  0  0  0  0  0  0  0  0  0
  -11.1874    1.1878    3.8060 N   0  0  0  0  0  0  0  0  0  0  0  0
  -12.7119   -1.9655    3.0910 N   0  0  0  0  0  0  0  0  0  0  0  0
  -13.3675   -1.3686    5.3633 N   0  0  0  0  0  0  0  0  0  0  0  0
  -12.6634    0.6032    6.4364 N   0  0  0  0  0  0  0  0  0  0  0  0
  -11.2232    9.7822   -0.9631 N   0  0  0  0  0  0  0  0  0  0  0  0
  -10.4504   12.3521    0.4537 N   0  0  0  0  0  0  0  0  0  0  0  0
   -9.7832   10.8131   -2.9597 N   0  3  0  0  0  0  0  0  0  0  0  0
  -12.3153    0.0979   -0.8022 C   0  0  1  0  0  0  0  0  0  0  0  0
  -12.1918   -1.2010   -0.0614 C   0  0  2  0  0  0  0  0  0  0  0  0
  -10.8857    0.5480   -1.0497 C   0  0  1  0  0  0  0  0  0  0  0  0
  -10.9681   -0.8855    0.8280 C   0  0  1  0  0  0  0  0  0  0  0  0
  -10.8796    2.0673   -1.0210 C   0  0  0  0  0  0  0  0  0  0  0  0
  -12.0343   -0.8059    3.1070 C   0  0  0  0  0  0  0  0  0  0  0  0
  -10.7794    0.9304    2.5820 C   0  0  0  0  0  0  0  0  0  0  0  0
  -11.9678    0.1060    4.1498 C   0  0  0  0  0  0  0  0  0  0  0  0
  -13.2647    7.9018   -0.1249 C   0  0  0  0  0  0  0  0  0  0  0  0
  -11.9810    7.6925   -0.9951 C   0  0  2  0  0  0  0  0  0  0  0  0
  -14.2927    6.8206   -0.2482 C   0  0  0  0  0  0  0  0  0  0  0  0
  -12.6679   -0.2121    5.3265 C   0  0  0  0  0  0  0  0  0  0  0  0
  -12.8062    8.0932    1.3350 C   0  0  0  0  0  0  0  0  0  0  0  0
  -14.1430    9.0291   -0.5565 C   0  0  0  0  0  0  0  0  0  0  0  0
  -13.3538   -2.1602    4.2665 C   0  0  0  0  0  0  0  0  0  0  0  0
  -10.8184    8.5168   -0.8015 C   0  0  0  0  0  0  0  0  0  0  0  0
  -12.2683   10.5608   -1.6416 C   0  0  0  0  0  0  0  0  0  0  0  0
  -12.6630   11.6448   -0.6481 C   0  0  0  0  0  0  0  0  0  0  0  0
  -11.5902   12.6596   -0.3183 C   0  0  0  0  0  0  0  0  0  0  0  0
   -9.7191   11.0953    0.8601 C   0  0  0  0  0  0  0  0  0  0  0  0
   -8.4639   10.5989   -0.0106 C   0  0  0  0  0  0  0  0  0  0  0  0
   -8.7459   13.5658   -1.8526 C   0  0  0  0  0  0  0  0  0  0  0  0
   -8.9661   12.9310   -3.2518 C   0  0  0  0  0  0  0  0  0  0  0  0
   -7.5330   13.2603   -0.9965 C   0  0  0  0  0  0  0  0  0  0  0  0
   -8.6061   11.4401   -3.4249 C   0  0  0  0  0  0  0  0  0  0  0  0
  -12.1326    1.4624    6.4043 H   0  0  0  0  0  0  0  0  0  0  0  0
  -13.1777    0.3215    7.2546 H   0  0  0  0  0  0  0  0  0  0  0  0
  -10.3844   10.2894   -0.9496 H   0  0  0  0  0  0  0  0  0  0  0  0
   -9.8689   13.1680    0.5888 H   0  0  0  0  0  0  0  0  0  0  0  0
  -11.0555   -2.1618   -1.3617 H   0  0  0  0  0  0  0  0  0  0  0  0
  -14.6365   -1.6852   -3.2844 H   0  0  0  0  0  0  0  0  0  0  0  0
  -12.0167    1.1660   -3.4388 H   0  0  0  0  0  0  0  0  0  0  0  0
  -14.7901    4.0119    0.3264 H   0  0  0  0  0  0  0  0  0  0  0  0
  -12.8989    8.0608   -2.8211 H   0  0  0  0  0  0  0  0  0  0  0  0
  -13.0024    6.5557   -2.2560 H   0  0  0  0  0  0  0  0  0  0  0  0
  -12.6709    0.6503    0.0459 H   0  0  0  0  0  0  0  0  0  0  0  0
  -13.1190   -1.4016    0.4844 H   0  0  0  0  0  0  0  0  0  0  0  0
  -10.4190    0.1695   -1.9694 H   0  0  0  0  0  0  0  0  0  0  0  0
  -10.3791   -1.7837    1.0204 H   0  0  0  0  0  0  0  0  0  0  0  0
  -11.1353    2.4572   -2.0221 H   0  0  0  0  0  0  0  0  0  0  0  0
   -9.8645    2.4312   -0.7966 H   0  0  0  0  0  0  0  0  0  0  0  0
  -10.1385    1.5787    1.9971 H   0  0  0  0  0  0  0  0  0  0  0  0
  -11.3884    6.8695   -0.6313 H   0  0  0  0  0  0  0  0  0  0  0  0
  -15.1535    7.0118    0.4026 H   0  0  0  0  0  0  0  0  0  0  0  0
  -14.7238    6.7382   -1.2540 H   0  0  0  0  0  0  0  0  0  0  0  0
  -12.0384    8.8685    1.4264 H   0  0  0  0  0  0  0  0  0  0  0  0
  -13.6434    8.4200    1.9525 H   0  0  0  0  0  0  0  0  0  0  0  0
  -12.3728    7.1774    1.7473 H   0  0  0  0  0  0  0  0  0  0  0  0
  -13.5399    9.8085   -0.2175 H   0  0  0  0  0  0  0  0  0  0  0  0
  -14.3689    8.9899   -1.6281 H   0  0  0  0  0  0  0  0  0  0  0  0
  -15.0530    9.2913   -0.0335 H   0  0  0  0  0  0  0  0  0  0  0  0
  -13.9353   -3.0756    4.3454 H   0  0  0  0  0  0  0  0  0  0  0  0
  -12.9346    9.8835   -2.1519 H   0  0  0  0  0  0  0  0  0  0  0  0
  -12.0342   11.0729   -2.5797 H   0  0  0  0  0  0  0  0  0  0  0  0
  -12.9287   11.2995    0.3531 H   0  0  0  0  0  0  0  0  0  0  0  0
  -13.5524   12.1211   -1.0774 H   0  0  0  0  0  0  0  0  0  0  0  0
  -10.4844   10.3331    0.9976 H   0  0  0  0  0  0  0  0  0  0  0  0
   -9.3414   11.2202    1.8727 H   0  0  0  0  0  0  0  0  0  0  0  0
   -8.6066   10.1847   -1.0107 H   0  0  0  0  0  0  0  0  0  0  0  0
   -8.0743    9.6655    0.4336 H   0  0  0  0  0  0  0  0  0  0  0  0
   -9.6239   13.5513   -1.2371 H   0  0  0  0  0  0  0  0  0  0  0  0
   -8.7414   14.6521   -2.0269 H   0  0  0  0  0  0  0  0  0  0  0  0
  -10.0468   13.1118   -3.4766 H   0  0  0  0  0  0  0  0  0  0  0  0
   -8.3830   13.4563   -3.9845 H   0  0  0  0  0  0  0  0  0  0  0  0
   -8.5125   10.9950   -4.3997 H   0  0  0  0  0  0  0  0  0  0  0  0
   -7.8402   11.1079   -2.7299 H   0  0  0  0  0  0  0  0  0  0  0  0
  1 52  1  0  0  0  0
  1 55  1  0  0  0  0
  2  6  1  0  0  0  0
  2  9  1  0  0  0  0
  2 10  1  0  0  0  0
  2 13  2  0  0  0  0
  3  8  1  0  0  0  0
  3 11  1  0  0  0  0
  3 14  1  0  0  0  0
  3 16  2  6  0  0  0
  4 11  1  0  0  0  0
  4 12  1  0  0  0  0
  4 17  1  0  0  0  0
  4 18  2  1  0  0  0
  5 34  1  0  0  0  0
  5 35  1  0  0  0  0
  7 61  1  0  0  0  0
  8 36  1  0  0  0  0
  9 62  1  0  0  0  0
 10 63  1  0  0  0  0
 12 42  1  0  0  0  0
 14 64  1  0  0  0  0
 15 65  1  0  0  0  0
 17 66  1  0  0  0  0
 19 47  2  0  0  0  0
 20 50  2  0  0  0  0
 21 55  2  0  0  0  0
 22 31  1  0  0  0  0
 23 31  2  0  0  0  0
 24 37  1  0  0  0  0
 24 38  1  0  0  0  0
 25 38  2  0  0  0  0
 25 39  1  0  0  0  0
 26 37  2  0  0  0  0
 26 46  1  0  0  0  0
 27 43  1  0  0  0  0
 27 46  2  0  0  0  0
 28 43  1  0  0  0  0
 28 57  1  0  0  0  0
 28 58  1  0  0  0  0
 29 47  1  0  0  0  0
 29 48  1  0  0  0  0
 29 59  1  0  0  0  0
 30 50  1  0  0  0  0
 30 51  1  0  0  0  0
 30 60  1  0  0  0  0
 31 56  1  0  0  0  0
 32  6  1  0  0  0  0
 32 33  1  0  0  0  0
 32 34  1  0  0  0  0
 32 67  1  1  0  0  0
 33  7  1  0  0  0  0
 33 35  1  0  0  0  0
 33 68  1  1  0  0  0
 34 69  1  6  0  0  0
 34 36  1  0  0  0  0
 35 24  1  0  0  0  0
 35 70  1  1  0  0  0
 36 71  1  0  0  0  0
 36 72  1  0  0  0  0
 37 39  1  0  0  0  0
 38 73  1  0  0  0  0
 39 43  2  0  0  0  0
 40 42  1  0  0  0  0
 40 44  1  0  0  0  0
 40 45  1  0  0  0  0
 41 47  1  0  0  0  0
 41 74  1  1  0  0  0
 41 40  1  0  0  0  0
 41 15  1  0  0  0  0
 42 75  1  0  0  0  0
 42 76  1  0  0  0  0
 44 77  1  0  0  0  0
 44 78  1  0  0  0  0
 44 79  1  0  0  0  0
 45 80  1  0  0  0  0
 45 81  1  0  0  0  0
 45 82  1  0  0  0  0
 46 83  1  0  0  0  0
 48 49  1  0  0  0  0
 48 84  1  0  0  0  0
 48 85  1  0  0  0  0
 49 50  1  0  0  0  0
 49 86  1  0  0  0  0
 49 87  1  0  0  0  0
 51 52  1  0  0  0  0
 51 88  1  0  0  0  0
 51 89  1  0  0  0  0
 52 90  1  0  0  0  0
 52 91  1  0  0  0  0
 53 54  1  0  0  0  0
 53 55  1  0  0  0  0
 53 92  1  0  0  0  0
 53 93  1  0  0  0  0
 54 56  1  0  0  0  0
 54 94  1  0  0  0  0
 54 95  1  0  0  0  0
 56 96  1  0  0  0  0
 56 97  1  0  0  0  0
M  CHG  2  22  -1  31   1
M  END
>  <DRUGBANK_ID>
DB03245

>  <SECONDARY_ACCESSION_NUMBERS>
EXPT02298

>  <COMMON_NAME>
S-4-Nitrobutyryl-CoA

$$$$
