231
 OpenBabel10282417103D

 34 36  0  0  1  0  0  0  0  0999 V2000
    1.0484   -0.0649    0.0547 Cl  0  0  0  0  0  0  0  0  0  0  0  0
    6.4225    1.5267   -2.4221 O   0  0  0  0  0  0  0  0  0  0  0  0
    9.0830    0.5717   -0.5022 O   0  0  0  0  0  0  0  0  0  0  0  0
    6.9974   -0.1751    0.1124 N   0  0  0  0  0  0  0  0  0  0  0  0
    6.5718    2.8261   -0.3521 N   0  0  0  0  0  0  0  0  0  0  0  0
    5.5801   -0.0871    0.1027 C   0  0  0  0  0  0  0  0  0  0  0  0
    4.8713    1.1244    0.1944 C   0  0  0  0  0  0  0  0  0  0  0  0
    5.5411    2.4510    0.3207 C   0  0  0  0  0  0  0  0  0  0  0  0
    7.2053    1.9102   -1.3046 C   0  0  3  0  0  0  0  0  0  0  0  0
    7.8520    0.7328   -0.5191 C   0  0  0  0  0  0  0  0  0  0  0  0
    4.9611    3.4115    1.3044 C   0  0  0  0  0  0  0  0  0  0  0  0
    3.4643    1.1217    0.1774 C   0  0  0  0  0  0  0  0  0  0  0  0
    4.8447   -1.2787   -0.0310 C   0  0  0  0  0  0  0  0  0  0  0  0
    7.6309   -1.2913    0.8036 C   0  0  0  0  0  0  0  0  0  0  0  0
    2.7657   -0.0745    0.0642 C   0  0  0  0  0  0  0  0  0  0  0  0
    3.4503   -1.2752   -0.0510 C   0  0  0  0  0  0  0  0  0  0  0  0
    4.6117    4.7127    0.9286 C   0  0  0  0  0  0  0  0  0  0  0  0
    4.7421    2.9722    2.6140 C   0  0  0  0  0  0  0  0  0  0  0  0
    4.1145    5.5941    1.8933 C   0  0  0  0  0  0  0  0  0  0  0  0
    4.1580    3.8269    3.5446 C   0  0  0  0  0  0  0  0  0  0  0  0
    3.8897    5.1502    3.1985 C   0  0  0  0  0  0  0  0  0  0  0  0
    5.6394    1.0754   -2.0833 H   0  0  0  0  0  0  0  0  0  0  0  0
    8.0518    2.4564   -1.7386 H   0  0  0  0  0  0  0  0  0  0  0  0
    2.9064    2.0533    0.2491 H   0  0  0  0  0  0  0  0  0  0  0  0
    5.3499   -2.2321   -0.1747 H   0  0  0  0  0  0  0  0  0  0  0  0
    8.1986   -1.8919    0.0866 H   0  0  0  0  0  0  0  0  0  0  0  0
    8.3197   -0.8871    1.5531 H   0  0  0  0  0  0  0  0  0  0  0  0
    6.9133   -1.9244    1.3327 H   0  0  0  0  0  0  0  0  0  0  0  0
    2.9132   -2.2129   -0.1680 H   0  0  0  0  0  0  0  0  0  0  0  0
    4.7139    5.0417   -0.1029 H   0  0  0  0  0  0  0  0  0  0  0  0
    5.0262    1.9678    2.9143 H   0  0  0  0  0  0  0  0  0  0  0  0
    3.8964    6.6273    1.6316 H   0  0  0  0  0  0  0  0  0  0  0  0
    3.9237    3.4625    4.5411 H   0  0  0  0  0  0  0  0  0  0  0  0
    3.5053    5.8365    3.9494 H   0  0  0  0  0  0  0  0  0  0  0  0
  1 15  1  0  0  0  0
  2  9  1  0  0  0  0
  2 22  1  0  0  0  0
  3 10  2  0  0  0  0
  4  6  1  0  0  0  0
  4 10  1  0  0  0  0
  4 14  1  0  0  0  0
  5  8  2  0  0  0  0
  5  9  1  0  0  0  0
  6  7  2  0  0  0  0
  6 13  1  0  0  0  0
  7  8  1  0  0  0  0
  7 12  1  0  0  0  0
  8 11  1  0  0  0  0
  9 10  1  0  0  0  0
  9 23  1  0  0  0  0
 11 17  2  0  0  0  0
 11 18  1  0  0  0  0
 12 15  2  0  0  0  0
 12 24  1  0  0  0  0
 13 16  2  0  0  0  0
 13 25  1  0  0  0  0
 14 26  1  0  0  0  0
 14 27  1  0  0  0  0
 14 28  1  0  0  0  0
 15 16  1  0  0  0  0
 16 29  1  0  0  0  0
 17 19  1  0  0  0  0
 17 30  1  0  0  0  0
 18 20  2  0  0  0  0
 18 31  1  0  0  0  0
 19 21  2  0  0  0  0
 19 32  1  0  0  0  0
 20 21  1  0  0  0  0
 20 33  1  0  0  0  0
 21 34  1  0  0  0  0
M  END
>  <DRUGBANK_ID>
DB00231

>  <SECONDARY_ACCESSION_NUMBERS>
APRD00676

>  <COMMON_NAME>
Temazepam

>  <CAS_NUMBER>
846-50-4

>  <UNII>
CHB1QD2QSS

>  <SYNONYMS>
Temazepam

$$$$
