AUR
 OpenBabel10282417163D

 65 67  0  0  0  0  0  0  0  0999 V2000
   -0.2390    0.3928   -2.1259 C   0  0  0  0  0  0  0  0  0  0  0  0
   -0.6285    1.8097   -1.9787 C   0  0  0  0  0  0  0  0  0  0  0  0
   -0.6057    2.3612   -0.5927 C   0  0  2  0  0  0  0  0  0  0  0  0
   -1.4959    3.4131   -0.1078 C   0  0  2  0  0  0  0  0  0  0  0  0
   -0.1125    4.8712    0.0732 C   0  0  2  0  0  0  0  0  0  0  0  0
   -0.6310    4.7994   -1.2592 C   0  0  1  0  0  0  0  0  0  0  0  0
   -2.1370    5.5328   -0.5026 C   0  0  2  0  0  0  0  0  0  0  0  0
   -3.1195    4.8888   -1.3781 C   0  0  1  0  0  0  0  0  0  0  0  0
   -2.6760    2.5652    0.6662 C   0  0  0  0  0  0  0  0  0  0  0  0
   -0.4617    4.6882   -2.7663 C   0  0  0  0  0  0  0  0  0  0  0  0
    2.9605    4.6251    0.7671 C   0  0  0  0  0  0  0  0  0  0  0  0
    2.5706    5.6419   -0.2475 C   0  0  0  0  0  0  0  0  0  0  0  0
    0.2655    3.4120   -0.8675 O   0  0  0  0  0  0  0  0  0  0  0  0
   -2.4712    3.6229   -1.3754 O   0  0  0  0  0  0  0  0  0  0  0  0
    1.3179    5.3298   -0.7382 O   0  0  0  0  0  0  0  0  0  0  0  0
   -2.1489    6.9415   -0.3355 O   0  0  0  0  0  0  0  0  0  0  0  0
    3.3115    6.4905   -0.6366 O   0  0  0  0  0  0  0  0  0  0  0  0
   -4.5076    4.4666   -1.5387 C   0  0  0  0  0  0  0  0  0  0  0  0
   -5.5695    4.7609   -0.8019 C   0  0  0  0  0  0  0  0  0  0  0  0
   -6.8709    4.3192   -1.2109 C   0  0  0  0  0  0  0  0  0  0  0  0
   -7.9459    4.7020   -0.5161 C   0  0  0  0  0  0  0  0  0  0  0  0
   -9.2732    4.3429   -0.9133 C   0  0  0  0  0  0  0  0  0  0  0  0
  -10.3704    4.5758   -0.1744 C   0  0  0  0  0  0  0  0  0  0  0  0
  -11.6634    3.9975   -0.5019 C   0  0  0  0  0  0  0  0  0  0  0  0
  -11.8530    2.6958   -0.8189 C   0  0  0  0  0  0  0  0  0  0  0  0
  -13.2100    2.2601   -1.1567 C   0  0  0  0  0  0  0  0  0  0  0  0
  -14.2113    3.1482   -1.1031 C   0  0  0  0  0  0  0  0  0  0  0  0
  -13.9990    4.5470   -0.7109 C   0  0  0  0  0  0  0  0  0  0  0  0
  -10.6929    1.7387   -0.8170 C   0  0  0  0  0  0  0  0  0  0  0  0
  -12.5936   -0.0718   -1.6669 C   0  0  0  0  0  0  0  0  0  0  0  0
  -12.7226    4.9239   -0.4106 O   0  0  0  0  0  0  0  0  0  0  0  0
  -13.5474    0.9708   -1.5489 O   0  0  0  0  0  0  0  0  0  0  0  0
  -14.9458    5.3258   -0.6619 O   0  0  0  0  0  0  0  0  0  0  0  0
   -0.3246    1.6722    0.2209 H   0  0  0  0  0  0  0  0  0  0  0  0
   -0.3163    5.9350    0.2546 H   0  0  0  0  0  0  0  0  0  0  0  0
   -2.2603    5.1957    0.5513 H   0  0  0  0  0  0  0  0  0  0  0  0
   -3.0387    5.5298   -2.2606 H   0  0  0  0  0  0  0  0  0  0  0  0
    0.6976    0.2192   -1.5913 H   0  0  0  0  0  0  0  0  0  0  0  0
   -0.0678    0.2652   -3.1991 H   0  0  0  0  0  0  0  0  0  0  0  0
   -1.0409   -0.2483   -1.7766 H   0  0  0  0  0  0  0  0  0  0  0  0
    0.1996    2.2781   -2.5178 H   0  0  0  0  0  0  0  0  0  0  0  0
   -1.5500    2.0101   -2.5179 H   0  0  0  0  0  0  0  0  0  0  0  0
   -2.3857    1.7821    1.3762 H   0  0  0  0  0  0  0  0  0  0  0  0
   -3.5765    3.0995    1.0133 H   0  0  0  0  0  0  0  0  0  0  0  0
   -3.1783    1.9196   -0.1185 H   0  0  0  0  0  0  0  0  0  0  0  0
    0.4350    4.1270   -3.0614 H   0  0  0  0  0  0  0  0  0  0  0  0
   -1.2799    4.0797   -3.1942 H   0  0  0  0  0  0  0  0  0  0  0  0
   -0.4845    5.6236   -3.3020 H   0  0  0  0  0  0  0  0  0  0  0  0
    3.7558    4.0125    0.3387 H   0  0  0  0  0  0  0  0  0  0  0  0
    3.2434    5.1022    1.7029 H   0  0  0  0  0  0  0  0  0  0  0  0
    2.0881    4.0048    0.9313 H   0  0  0  0  0  0  0  0  0  0  0  0
   -2.1449    7.0852    0.6399 H   0  0  0  0  0  0  0  0  0  0  0  0
   -4.6245    3.8528   -2.4388 H   0  0  0  0  0  0  0  0  0  0  0  0
   -5.4495    5.3889    0.0684 H   0  0  0  0  0  0  0  0  0  0  0  0
   -6.9592    3.7057   -2.1112 H   0  0  0  0  0  0  0  0  0  0  0  0
   -7.8160    5.2877    0.3871 H   0  0  0  0  0  0  0  0  0  0  0  0
   -9.3459    3.7533   -1.8279 H   0  0  0  0  0  0  0  0  0  0  0  0
  -10.3079    5.1517    0.7451 H   0  0  0  0  0  0  0  0  0  0  0  0
  -15.2332    2.8788   -1.3462 H   0  0  0  0  0  0  0  0  0  0  0  0
  -10.8591    0.9287   -0.1118 H   0  0  0  0  0  0  0  0  0  0  0  0
  -10.4847    1.4088   -1.8379 H   0  0  0  0  0  0  0  0  0  0  0  0
   -9.7435    2.1224   -0.4576 H   0  0  0  0  0  0  0  0  0  0  0  0
  -11.8557    0.1634   -2.4376 H   0  0  0  0  0  0  0  0  0  0  0  0
  -12.1565   -0.3043   -0.6941 H   0  0  0  0  0  0  0  0  0  0  0  0
  -13.0744   -0.9957   -1.9886 H   0  0  0  0  0  0  0  0  0  0  0  0
  1  2  1  0  0  0  0
  1 38  1  0  0  0  0
  1 39  1  0  0  0  0
  1 40  1  0  0  0  0
  2 41  1  0  0  0  0
  2 42  1  0  0  0  0
  3  4  1  0  0  0  0
  3 13  1  0  0  0  0
  3  2  1  0  0  0  0
  3 34  1  1  0  0  0
  4  5  1  0  0  0  0
  4 14  1  0  0  0  0
  4  9  1  1  0  0  0
  5  6  1  0  0  0  0
  5 35  1  1  0  0  0
  5 15  1  0  0  0  0
  6  7  1  0  0  0  0
  6 13  1  0  0  0  0
  6 10  1  6  0  0  0
  7  8  1  0  0  0  0
  7 16  1  0  0  0  0
  7 36  1  1  0  0  0
  8 14  1  0  0  0  0
  8 37  1  6  0  0  0
  8 18  1  0  0  0  0
  9 43  1  0  0  0  0
  9 44  1  0  0  0  0
  9 45  1  0  0  0  0
 10 46  1  0  0  0  0
 10 47  1  0  0  0  0
 10 48  1  0  0  0  0
 11 12  1  0  0  0  0
 11 49  1  0  0  0  0
 11 50  1  0  0  0  0
 11 51  1  0  0  0  0
 12 15  1  0  0  0  0
 12 17  2  0  0  0  0
 16 52  1  0  0  0  0
 18 19  2  0  0  0  0
 18 53  1  0  0  0  0
 19 20  1  0  0  0  0
 19 54  1  0  0  0  0
 20 21  2  0  0  0  0
 20 55  1  0  0  0  0
 21 22  1  0  0  0  0
 21 56  1  0  0  0  0
 22 23  2  0  0  0  0
 22 57  1  0  0  0  0
 23 24  1  0  0  0  0
 23 58  1  0  0  0  0
 24 25  2  0  0  0  0
 24 31  1  0  0  0  0
 25 26  1  0  0  0  0
 25 29  1  0  0  0  0
 26 27  2  0  0  0  0
 26 32  1  0  0  0  0
 27 28  1  0  0  0  0
 27 59  1  0  0  0  0
 28 31  1  0  0  0  0
 28 33  2  0  0  0  0
 29 60  1  0  0  0  0
 29 61  1  0  0  0  0
 29 62  1  0  0  0  0
 30 32  1  0  0  0  0
 30 63  1  0  0  0  0
 30 64  1  0  0  0  0
 30 65  1  0  0  0  0
M  END
>  <DRUGBANK_ID>
DB07394

>  <COMMON_NAME>
AUROVERTIN B

$$$$
