
 OpenBabel10282417233D

 20 19  0  0  0  0  0  0  0  0999 V2000
    1.0304   -1.1535    2.1490 C   0  0  2  0  0  0  0  0  0  0  0  0
    0.6014   -1.1936    0.6626 C   0  0  2  0  0  0  0  0  0  0  0  0
    0.1594   -0.2664    3.0779 C   0  0  1  0  0  0  0  0  0  0  0  0
    2.0223   -0.4105   -1.1823 O   0  0  0  0  0  0  0  0  0  0  0  0
    1.3689   -0.1503   -0.1718 C   0  0  0  0  0  0  0  0  0  0  0  0
    2.4254   -0.8499    2.2779 O   0  0  0  0  0  0  0  0  0  0  0  0
   -0.8124   -1.1615    0.4793 O   0  0  0  0  0  0  0  0  0  0  0  0
    0.6522   -0.3275    4.4219 O   0  0  0  0  0  0  0  0  0  0  0  0
   -0.7086    1.4760    1.5264 O   0  0  0  0  0  0  0  0  0  0  0  0
    0.1089    1.2104    2.6608 C   0  0  0  0  0  0  0  0  0  0  0  0
    1.3252    0.8952    0.1701 H   0  0  0  0  0  0  0  0  0  0  0  0
    0.9431   -2.1772    2.5390 H   0  0  0  0  0  0  0  0  0  0  0  0
    0.9257   -2.1545    0.2483 H   0  0  0  0  0  0  0  0  0  0  0  0
   -0.8610   -0.6653    3.1057 H   0  0  0  0  0  0  0  0  0  0  0  0
    2.5947    0.0853    2.0707 H   0  0  0  0  0  0  0  0  0  0  0  0
   -1.3020   -0.6485    1.1464 H   0  0  0  0  0  0  0  0  0  0  0  0
    0.6417   -1.2584    4.7097 H   0  0  0  0  0  0  0  0  0  0  0  0
   -0.5142    0.9323    0.7513 H   0  0  0  0  0  0  0  0  0  0  0  0
   -0.3280    1.8006    3.4703 H   0  0  0  0  0  0  0  0  0  0  0  0
    1.1189    1.6085    2.5099 H   0  0  0  0  0  0  0  0  0  0  0  0
  1  6  1  0  0  0  0
  1 12  1  1  0  0  0
  2  7  1  0  0  0  0
  2 13  1  6  0  0  0
  2  5  1  0  0  0  0
  2  1  1  0  0  0  0
  3  1  1  0  0  0  0
  3  8  1  0  0  0  0
  3 14  1  6  0  0  0
  4  5  2  0  0  0  0
  5 11  1  0  0  0  0
  6 15  1  0  0  0  0
  7 16  1  0  0  0  0
  8 17  1  0  0  0  0
  9 10  1  0  0  0  0
  9 18  1  0  0  0  0
 10  3  1  0  0  0  0
 10 19  1  0  0  0  0
 10 20  1  0  0  0  0
M  END
>  <DRUGBANK_ID>
DB16873

>  <COMMON_NAME>
L-Arabinose

>  <CAS_NUMBER>
5328-37-0

>  <UNII>
B40ROO395Z

>  <SYNONYMS>
Arabinose, L-; Pectinose

$$$$
