
 OpenBabel10282417223D

 19 18  0  0  0  0  0  0  0  0999 V2000
    0.9387    0.0796    0.3298 C   0  0  3  0  0  0  0  0  0  0  0  0
    0.5704   -0.3610    1.7395 C   0  0  0  0  0  0  0  0  0  0  0  0
    0.5169    1.4580   -0.1667 C   0  0  0  0  0  0  0  0  0  0  0  0
    0.2270   -0.9325   -0.3684 O   0  0  0  0  0  0  0  0  0  0  0  0
   -0.2572    0.4664    2.4147 O   0  0  0  0  0  0  0  0  0  0  0  0
    0.8965   -1.4405    2.1945 O   0  0  0  0  0  0  0  0  0  0  0  0
    1.0367    1.7945   -1.5717 C   0  0  0  0  0  0  0  0  0  0  0  0
    0.3092    0.8087   -2.9499 S   0  0  0  0  0  0  0  0  0  0  0  0
    1.1568   -0.8196   -2.8841 C   0  0  0  0  0  0  0  0  0  0  0  0
    2.0227   -0.0427    0.1959 H   0  0  0  0  0  0  0  0  0  0  0  0
   -0.5777    1.5419   -0.1779 H   0  0  0  0  0  0  0  0  0  0  0  0
    0.8809    2.2262    0.5293 H   0  0  0  0  0  0  0  0  0  0  0  0
   -0.6084   -0.5783   -0.7164 H   0  0  0  0  0  0  0  0  0  0  0  0
   -0.5343    1.2694    1.9464 H   0  0  0  0  0  0  0  0  0  0  0  0
    0.7248    2.8316   -1.7734 H   0  0  0  0  0  0  0  0  0  0  0  0
    2.1313    1.8092   -1.6134 H   0  0  0  0  0  0  0  0  0  0  0  0
    2.2333   -0.7330   -2.7300 H   0  0  0  0  0  0  0  0  0  0  0  0
    0.7577   -1.5462   -2.1804 H   0  0  0  0  0  0  0  0  0  0  0  0
    0.9478   -1.3244   -3.8287 H   0  0  0  0  0  0  0  0  0  0  0  0
  1  2  1  0  0  0  0
  1  3  1  0  0  0  0
  1  4  1  0  0  0  0
  1 10  1  0  0  0  0
  2  5  1  0  0  0  0
  2  6  2  0  0  0  0
  3  7  1  0  0  0  0
  3 11  1  0  0  0  0
  3 12  1  0  0  0  0
  4 13  1  0  0  0  0
  5 14  1  0  0  0  0
  7  8  1  0  0  0  0
  7 15  1  0  0  0  0
  7 16  1  0  0  0  0
  8  9  1  0  0  0  0
  9 17  1  0  0  0  0
  9 18  1  0  0  0  0
  9 19  1  0  0  0  0
M  END
>  <DRUGBANK_ID>
DB15832

>  <COMMON_NAME>
Desmeninol

>  <CAS_NUMBER>
583-91-5

>  <UNII>
Z94465H1Y7

>  <SYNONYMS>
2-Hydroxy-4-(methylthio) butanoic acid; 2-Hydroxy-4-(methylthio)butanoic acid; alpha-Hydroxy-gamma-(methylmercapto)butyric acid; alpha-Hydroxy-gamma-(methylthio)butyric acid; Desmeninol; DL-2-hydroxy-4-(methylthio)-butyric acid; Methionine hydroxy analog

$$$$
