
 OpenBabel10282417233D

 55 59  0  0  0  0  0  0  0  0999 V2000
    2.2564   -0.4075   -0.1828 F   0  0  0  0  0  0  0  0  0  0  0  0
    0.9980   -0.2300    0.2270 C   0  0  0  0  0  0  0  0  0  0  0  0
    0.3051    1.3272    0.3437 C   0  0  0  0  0  0  0  0  0  0  0  0
   -1.3105    1.4788    0.9496 C   0  0  0  0  0  0  0  0  0  0  0  0
   -2.2134    0.0133    1.3594 C   0  0  0  0  0  0  0  0  0  0  0  0
   -3.6002    0.1145    0.3286 C   0  0  0  0  0  0  0  0  0  0  0  0
   -3.0293   -0.1650   -1.0066 N   0  0  0  0  0  0  0  0  0  0  0  0
   -1.7378   -0.3787   -0.9841 C   0  0  0  0  0  0  0  0  0  0  0  0
   -0.9250   -0.1095   -0.1578 O   0  0  0  0  0  0  0  0  0  0  0  0
   -1.1458   -1.1226   -1.8048 N   0  0  0  0  0  0  0  0  0  0  0  0
   -0.8425   -0.1030   -2.5869 C   0  0  0  0  0  0  0  0  0  0  0  0
    0.2403    0.4375   -2.7275 O   0  0  0  0  0  0  0  0  0  0  0  0
   -2.0965    0.4167   -3.0995 C   0  0  0  0  0  0  0  0  0  0  0  0
   -1.9311    0.9337   -4.3258 C   0  0  0  0  0  0  0  0  0  0  0  0
   -0.7207    1.2623   -4.7689 F   0  0  0  0  0  0  0  0  0  0  0  0
   -3.0334    1.0608   -5.0793 C   0  0  0  0  0  0  0  0  0  0  0  0
   -4.2617    0.6407   -4.5427 C   0  0  0  0  0  0  0  0  0  0  0  0
   -4.4294    0.2003   -3.1783 C   0  0  0  0  0  0  0  0  0  0  0  0
   -3.3139    0.1627   -2.3758 C   0  0  0  0  0  0  0  0  0  0  0  0
   -1.4451   -1.5893    1.1729 C   0  0  0  0  0  0  0  0  0  0  0  0
    0.1870   -1.6692    0.6144 C   0  0  0  0  0  0  0  0  0  0  0  0
    1.0765    2.5791   -0.0278 C   0  0  0  0  0  0  0  0  0  0  0  0
    0.5018    3.6655    0.0770 O   0  0  0  0  0  0  0  0  0  0  0  0
    2.4635    2.4389   -0.0284 N   0  0  0  0  0  0  0  0  0  0  0  0
    3.2660    1.7948   -1.0875 C   0  0  0  0  0  0  0  0  0  0  0  0
    4.3631    0.8404   -0.5159 C   0  0  0  0  0  0  0  0  0  0  0  0
    5.0980    1.5164    0.5374 N   0  0  0  0  0  0  0  0  0  0  0  0
    4.2697    2.0422    1.6258 C   0  0  0  0  0  0  0  0  0  0  0  0
    3.2740    3.0771    1.0109 C   0  0  0  0  0  0  0  0  0  0  0  0
    6.4481    1.3399    0.5902 C   0  0  0  0  0  0  0  0  0  0  0  0
    7.1441    1.7398   -0.4884 N   0  0  0  0  0  0  0  0  0  0  0  0
    8.4734    1.8916   -0.3462 C   0  0  0  0  0  0  0  0  0  0  0  0
    9.1350    1.6743    0.8300 C   0  0  0  0  0  0  0  0  0  0  0  0
    8.3877    1.0237    1.7748 C   0  0  0  0  0  0  0  0  0  0  0  0
    7.0462    0.8817    1.7005 N   0  0  0  0  0  0  0  0  0  0  0  0
   -1.9111    2.3079    0.3863 H   0  0  0  0  0  0  0  0  0  0  0  0
   -4.3056   -0.6363    0.7239 H   0  0  0  0  0  0  0  0  0  0  0  0
   -4.0492    1.1183    0.3420 H   0  0  0  0  0  0  0  0  0  0  0  0
   -1.9780   -1.6576   -1.7839 H   0  0  0  0  0  0  0  0  0  0  0  0
   -2.8565    1.4580   -6.0664 H   0  0  0  0  0  0  0  0  0  0  0  0
   -5.1009    0.7005   -5.2314 H   0  0  0  0  0  0  0  0  0  0  0  0
   -5.4206   -0.1459   -2.9014 H   0  0  0  0  0  0  0  0  0  0  0  0
   -2.0917   -2.4099    0.5932 H   0  0  0  0  0  0  0  0  0  0  0  0
    0.7044   -2.6122    0.2273 H   0  0  0  0  0  0  0  0  0  0  0  0
    2.6201    1.3241   -1.8323 H   0  0  0  0  0  0  0  0  0  0  0  0
    3.7904    2.6154   -1.5972 H   0  0  0  0  0  0  0  0  0  0  0  0
    4.0016   -0.0379    0.0062 H   0  0  0  0  0  0  0  0  0  0  0  0
    4.9566    0.4156   -1.3305 H   0  0  0  0  0  0  0  0  0  0  0  0
    3.6851    1.2368    2.0973 H   0  0  0  0  0  0  0  0  0  0  0  0
    4.8720    2.5232    2.4003 H   0  0  0  0  0  0  0  0  0  0  0  0
    3.8412    3.8820    0.5286 H   0  0  0  0  0  0  0  0  0  0  0  0
    2.6276    3.5123    1.7789 H   0  0  0  0  0  0  0  0  0  0  0  0
    9.0123    2.1760   -1.2439 H   0  0  0  0  0  0  0  0  0  0  0  0
   10.1712    1.9412    0.9787 H   0  0  0  0  0  0  0  0  0  0  0  0
    8.8673    0.5844    2.6447 H   0  0  0  0  0  0  0  0  0  0  0  0
  1  2  1  0  0  0  0
  2  3  2  0  0  0  0
  2 21  1  0  0  0  0
  3  4  1  0  0  0  0
  3 22  1  0  0  0  0
  4  5  2  0  0  0  0
  4 36  1  0  0  0  0
  5  6  1  0  0  0  0
  5 20  1  0  0  0  0
  6  7  1  0  0  0  0
  6 37  1  0  0  0  0
  6 38  1  0  0  0  0
  7  8  1  0  0  0  0
  7 19  1  0  0  0  0
  8  9  2  0  0  0  0
  8 10  1  0  0  0  0
 10 11  1  0  0  0  0
 10 39  1  0  0  0  0
 11 12  2  0  0  0  0
 11 13  1  0  0  0  0
 13 14  2  0  0  0  0
 13 19  1  0  0  0  0
 14 15  1  0  0  0  0
 14 16  1  0  0  0  0
 16 17  2  0  0  0  0
 16 40  1  0  0  0  0
 17 18  1  0  0  0  0
 17 41  1  0  0  0  0
 18 19  2  0  0  0  0
 18 42  1  0  0  0  0
 20 21  2  0  0  0  0
 20 43  1  0  0  0  0
 21 44  1  0  0  0  0
 22 23  2  0  0  0  0
 22 24  1  0  0  0  0
 24 25  1  0  0  0  0
 24 29  1  0  0  0  0
 25 26  1  0  0  0  0
 25 45  1  0  0  0  0
 25 46  1  0  0  0  0
 26 27  1  0  0  0  0
 26 47  1  0  0  0  0
 26 48  1  0  0  0  0
 27 28  1  0  0  0  0
 27 30  1  0  0  0  0
 28 29  1  0  0  0  0
 28 49  1  0  0  0  0
 28 50  1  0  0  0  0
 29 51  1  0  0  0  0
 29 52  1  0  0  0  0
 30 31  2  0  0  0  0
 30 35  1  0  0  0  0
 31 32  1  0  0  0  0
 32 33  2  0  0  0  0
 32 53  1  0  0  0  0
 33 34  1  0  0  0  0
 33 54  1  0  0  0  0
 34 35  2  0  0  0  0
 34 55  1  0  0  0  0
M  END
>  <DRUGBANK_ID>
DB17163

>  <COMMON_NAME>
Senaparib

>  <CAS_NUMBER>
1401682-78-7

>  <UNII>
MNZ4OP95CF

>  <SYNONYMS>
2,4(1h,3h)-quinazolinedione, 5-fluoro-1-((4-fluoro-3-((4-(2-pyrimidinyl)-1-piperazinyl)carbonyl)phenyl)methyl)-; 5-fluoro-1-((4-fluoro-3-((4-(2-pyrimidinyl)-1-piperazinyl)carbonyl)phenyl)methyl)-2,4(1h,3h)-quinazolinedione

$$$$
