MHC
 OpenBabel10282417133D

 34 36  0  0  0  0  0  0  0  0999 V2000
   -0.1401    0.0660   -0.1303 S   0  0  0  0  0  0  0  0  0  0  0  0
    0.1887   -0.5254    1.5981 C   0  0  0  0  0  0  0  0  0  0  0  0
    0.8986   -1.8707    1.8304 C   0  0  0  0  0  0  0  0  0  0  0  0
    2.4382   -1.9940    1.9570 C   0  0  0  0  0  0  0  0  0  0  0  0
    2.9354   -2.5442    2.9506 O   0  0  0  0  0  0  0  0  0  0  0  0
    3.2260   -1.6103    0.8925 N   0  0  0  0  0  0  0  0  0  0  0  0
    2.8949   -0.4202    0.1559 C   0  0  0  0  0  0  0  0  0  0  0  0
    3.9990    0.5640   -0.1699 C   0  0  0  0  0  0  0  0  0  0  0  0
    5.1454   -0.1952   -0.6572 C   0  0  0  0  0  0  0  0  0  0  0  0
    5.2985   -1.5329   -0.3510 C   0  0  0  0  0  0  0  0  0  0  0  0
    4.3783   -2.4032    0.4451 C   0  0  0  0  0  0  0  0  0  0  0  0
    6.4646   -1.9396   -0.9319 N   0  0  0  0  0  0  0  0  0  0  0  0
    6.2305    0.2334   -1.4420 C   0  0  0  0  0  0  0  0  0  0  0  0
    7.0679   -0.8728   -1.5686 C   0  0  0  0  0  0  0  0  0  0  0  0
    8.2898   -0.7997   -2.2363 C   0  0  0  0  0  0  0  0  0  0  0  0
    6.5921    1.4585   -2.0337 C   0  0  0  0  0  0  0  0  0  0  0  0
    7.8097    1.5423   -2.7104 C   0  0  0  0  0  0  0  0  0  0  0  0
    8.6468    0.4310   -2.7985 C   0  0  0  0  0  0  0  0  0  0  0  0
    0.9921    0.7583   -0.3820 H   0  0  0  0  0  0  0  0  0  0  0  0
    0.6415    0.2618    2.2117 H   0  0  0  0  0  0  0  0  0  0  0  0
   -0.8382   -0.6444    1.9507 H   0  0  0  0  0  0  0  0  0  0  0  0
    0.5302   -2.2168    2.8117 H   0  0  0  0  0  0  0  0  0  0  0  0
    0.5511   -2.6303    1.1203 H   0  0  0  0  0  0  0  0  0  0  0  0
    2.4093   -0.7555   -0.7658 H   0  0  0  0  0  0  0  0  0  0  0  0
    2.2829    0.1601    0.8286 H   0  0  0  0  0  0  0  0  0  0  0  0
    3.6213    1.2827   -0.9061 H   0  0  0  0  0  0  0  0  0  0  0  0
    4.2705    1.1275    0.7305 H   0  0  0  0  0  0  0  0  0  0  0  0
    4.8761   -2.8593    1.3037 H   0  0  0  0  0  0  0  0  0  0  0  0
    3.9897   -3.2068   -0.1967 H   0  0  0  0  0  0  0  0  0  0  0  0
    6.8464   -2.8730   -0.8865 H   0  0  0  0  0  0  0  0  0  0  0  0
    8.9445   -1.6598   -2.3036 H   0  0  0  0  0  0  0  0  0  0  0  0
    5.9466    2.3297   -1.9576 H   0  0  0  0  0  0  0  0  0  0  0  0
    8.1087    2.4854   -3.1607 H   0  0  0  0  0  0  0  0  0  0  0  0
    9.5990    0.5204   -3.3137 H   0  0  0  0  0  0  0  0  0  0  0  0
  1  2  1  0  0  0  0
  1 19  1  0  0  0  0
  2  3  1  0  0  0  0
  2 20  1  0  0  0  0
  2 21  1  0  0  0  0
  3  4  1  0  0  0  0
  3 22  1  0  0  0  0
  3 23  1  0  0  0  0
  4  5  2  0  0  0  0
  4  6  1  0  0  0  0
  6  7  1  0  0  0  0
  6 11  1  0  0  0  0
  7  8  1  0  0  0  0
  7 24  1  0  0  0  0
  7 25  1  0  0  0  0
  8  9  1  0  0  0  0
  8 26  1  0  0  0  0
  8 27  1  0  0  0  0
  9 10  2  0  0  0  0
  9 13  1  0  0  0  0
 10 11  1  0  0  0  0
 10 12  1  0  0  0  0
 11 28  1  0  0  0  0
 11 29  1  0  0  0  0
 12 14  1  0  0  0  0
 12 30  1  0  0  0  0
 13 14  2  0  0  0  0
 13 16  1  0  0  0  0
 14 15  1  0  0  0  0
 15 18  2  0  0  0  0
 15 31  1  0  0  0  0
 16 17  2  0  0  0  0
 16 32  1  0  0  0  0
 17 18  1  0  0  0  0
 17 33  1  0  0  0  0
 18 34  1  0  0  0  0
M  END
>  <DRUGBANK_ID>
DB03372

>  <SECONDARY_ACCESSION_NUMBERS>
EXPT02171

>  <COMMON_NAME>
3-Mercapto-1-(1,3,4,9-Tetrahydro-B-Carbolin-2-Yl)-Propan-1-One

$$$$
