
 OpenBabel10282417143D

 26 26  0  0  0  0  0  0  0  0999 V2000
   -0.5975    1.2191   -0.0023 C   0  0  0  0  0  0  0  0  0  0  0  0
    0.7644    1.1378   -0.2622 C   0  0  0  0  0  0  0  0  0  0  0  0
   -1.3864    0.0994    0.0971 N   0  0  0  0  0  0  0  0  0  0  0  0
   -1.3197    2.5095    0.2493 C   0  0  0  0  0  0  0  0  0  0  0  0
    1.3990   -0.0647   -0.2313 N   0  0  0  0  0  0  0  0  0  0  0  0
    1.6458    2.1591   -0.4945 O   0  0  0  0  0  0  0  0  0  0  0  0
   -0.7446   -1.0869    0.0374 C   0  0  0  0  0  0  0  0  0  0  0  0
   -0.9264    3.2881    1.5540 C   0  0  0  0  0  0  0  0  0  0  0  0
    0.6199   -1.1618   -0.0624 C   0  0  0  0  0  0  0  0  0  0  0  0
    1.2203    3.4259   -0.9716 C   0  0  0  0  0  0  0  0  0  0  0  0
    0.5548    3.4822    1.9819 C   0  0  0  0  0  0  0  0  0  0  0  0
   -1.5576    4.6798    1.4451 C   0  0  0  0  0  0  0  0  0  0  0  0
   -1.2774    3.1119   -0.6663 H   0  0  0  0  0  0  0  0  0  0  0  0
   -2.3971    2.2936    0.3161 H   0  0  0  0  0  0  0  0  0  0  0  0
   -1.3692   -1.9763    0.0826 H   0  0  0  0  0  0  0  0  0  0  0  0
   -1.3882    2.7413    2.3844 H   0  0  0  0  0  0  0  0  0  0  0  0
    1.1432   -2.1137   -0.0228 H   0  0  0  0  0  0  0  0  0  0  0  0
    0.8406    3.3952   -1.9921 H   0  0  0  0  0  0  0  0  0  0  0  0
    0.4648    3.9110   -0.3721 H   0  0  0  0  0  0  0  0  0  0  0  0
    2.0667    4.1140   -0.8879 H   0  0  0  0  0  0  0  0  0  0  0  0
    1.0669    4.2876    1.4410 H   0  0  0  0  0  0  0  0  0  0  0  0
    0.6142    3.8047    3.0270 H   0  0  0  0  0  0  0  0  0  0  0  0
    1.1548    2.5728    1.9120 H   0  0  0  0  0  0  0  0  0  0  0  0
   -2.6465    4.6066    1.3880 H   0  0  0  0  0  0  0  0  0  0  0  0
   -1.2898    5.3024    2.3028 H   0  0  0  0  0  0  0  0  0  0  0  0
   -1.2112    5.1970    0.5410 H   0  0  0  0  0  0  0  0  0  0  0  0
  1  2  2  0  0  0  0
  1  3  1  0  0  0  0
  1  4  1  0  0  0  0
  2  5  1  0  0  0  0
  2  6  1  0  0  0  0
  3  7  2  0  0  0  0
  4  8  1  0  0  0  0
  4 13  1  0  0  0  0
  4 14  1  0  0  0  0
  5  9  2  0  0  0  0
  6 10  1  0  0  0  0
  7  9  1  0  0  0  0
  7 15  1  0  0  0  0
  8 11  1  0  0  0  0
  8 12  1  0  0  0  0
  8 16  1  0  0  0  0
  9 17  1  0  0  0  0
 10 18  1  0  0  0  0
 10 19  1  0  0  0  0
 10 20  1  0  0  0  0
 11 21  1  0  0  0  0
 11 22  1  0  0  0  0
 11 23  1  0  0  0  0
 12 24  1  0  0  0  0
 12 25  1  0  0  0  0
 12 26  1  0  0  0  0
M  END
>  <DRUGBANK_ID>
DB04512

>  <SECONDARY_ACCESSION_NUMBERS>
EXPT02668

>  <COMMON_NAME>
2-Isobutyl-3-methoxypyrazine

>  <CAS_NUMBER>
24683-00-9

>  <UNII>
S327O0T12O

>  <SYNONYMS>
3-Isobutyl-2-methoxypyrazine

$$$$
