1295
 OpenBabel10282417113D

 52 53  0  0  1  0  0  0  0  0999 V2000
    1.2069   -0.1023    0.2349 O   0  0  0  0  0  0  0  0  0  0  0  0
    2.1103    2.3133    1.9661 O   0  0  0  0  0  0  0  0  0  0  0  0
   -2.1257    0.7887   -2.4543 O   0  0  0  0  0  0  0  0  0  0  0  0
   -3.1988    2.0710   -4.6766 O   0  0  0  0  0  0  0  0  0  0  0  0
   -1.5318    3.0667    1.6936 N   0  0  0  0  0  0  0  0  0  0  0  0
   -0.0738    3.2438    1.6318 C   0  0  0  0  0  0  0  0  0  0  0  0
    0.7603    1.9413    1.7232 C   0  0  3  0  0  0  0  0  0  0  0  0
   -2.2660    4.3062    1.3882 C   0  0  0  0  0  0  0  0  0  0  0  0
   -1.9439    5.0562    0.0593 C   0  0  0  0  0  0  0  0  0  0  0  0
   -2.2523    4.2871   -1.2159 C   0  0  0  0  0  0  0  0  0  0  0  0
    0.5956    1.1729    0.4169 C   0  0  0  0  0  0  0  0  0  0  0  0
   -1.8323    2.9655   -1.3850 C   0  0  0  0  0  0  0  0  0  0  0  0
   -2.9763    4.8480   -2.2715 C   0  0  0  0  0  0  0  0  0  0  0  0
   -2.2384    2.1434   -2.4247 C   0  0  0  0  0  0  0  0  0  0  0  0
   -3.2858    4.0668   -3.4011 C   0  0  0  0  0  0  0  0  0  0  0  0
   -2.9022    2.7233   -3.5030 C   0  0  0  0  0  0  0  0  0  0  0  0
    2.5322   -0.0890   -0.0897 C   0  0  0  0  0  0  0  0  0  0  0  0
    3.2576    1.0798   -0.2865 C   0  0  0  0  0  0  0  0  0  0  0  0
    4.6133    1.0983    0.0062 C   0  0  0  0  0  0  0  0  0  0  0  0
    3.1856   -1.3092    0.0189 C   0  0  0  0  0  0  0  0  0  0  0  0
    5.2751   -0.1121    0.2128 C   0  0  0  0  0  0  0  0  0  0  0  0
    4.5683   -1.3187    0.1729 C   0  0  0  0  0  0  0  0  0  0  0  0
    5.2716    2.4255    0.2349 C   0  0  0  0  0  0  0  0  0  0  0  0
   -1.3666    0.0969   -1.5082 C   0  0  0  0  0  0  0  0  0  0  0  0
   -2.5836    0.7874   -4.8773 C   0  0  0  0  0  0  0  0  0  0  0  0
    2.6180    1.4809    1.9880 H   0  0  0  0  0  0  0  0  0  0  0  0
   -1.8846    2.3239    1.0937 H   0  0  0  0  0  0  0  0  0  0  0  0
    0.2313    3.9211    2.4324 H   0  0  0  0  0  0  0  0  0  0  0  0
    0.2289    3.7382    0.6986 H   0  0  0  0  0  0  0  0  0  0  0  0
    0.4299    1.3149    2.5547 H   0  0  0  0  0  0  0  0  0  0  0  0
   -3.3362    4.0610    1.3982 H   0  0  0  0  0  0  0  0  0  0  0  0
   -2.1048    4.9845    2.2339 H   0  0  0  0  0  0  0  0  0  0  0  0
   -2.5294    5.9855    0.0779 H   0  0  0  0  0  0  0  0  0  0  0  0
   -0.8967    5.3817    0.0462 H   0  0  0  0  0  0  0  0  0  0  0  0
    0.7668    1.8013   -0.4685 H   0  0  0  0  0  0  0  0  0  0  0  0
   -0.4547    0.9316    0.4599 H   0  0  0  0  0  0  0  0  0  0  0  0
   -1.1591    2.5596   -0.6611 H   0  0  0  0  0  0  0  0  0  0  0  0
   -3.2924    5.8867   -2.2320 H   0  0  0  0  0  0  0  0  0  0  0  0
   -3.8611    4.5118   -4.2115 H   0  0  0  0  0  0  0  0  0  0  0  0
    2.7698    2.0330   -0.4627 H   0  0  0  0  0  0  0  0  0  0  0  0
    2.6167   -2.2347    0.0631 H   0  0  0  0  0  0  0  0  0  0  0  0
    6.3378   -0.1191    0.4350 H   0  0  0  0  0  0  0  0  0  0  0  0
    5.0822   -2.2590    0.3491 H   0  0  0  0  0  0  0  0  0  0  0  0
    5.7339    2.4421    1.2277 H   0  0  0  0  0  0  0  0  0  0  0  0
    6.0127    2.6271   -0.5376 H   0  0  0  0  0  0  0  0  0  0  0  0
    4.5338    3.2397    0.2292 H   0  0  0  0  0  0  0  0  0  0  0  0
   -0.3450    0.4521   -1.5994 H   0  0  0  0  0  0  0  0  0  0  0  0
   -1.8444    0.1920   -0.5306 H   0  0  0  0  0  0  0  0  0  0  0  0
   -1.3236   -0.9700   -1.7368 H   0  0  0  0  0  0  0  0  0  0  0  0
   -1.4941    0.8166   -4.7178 H   0  0  0  0  0  0  0  0  0  0  0  0
   -3.0634    0.0247   -4.2493 H   0  0  0  0  0  0  0  0  0  0  0  0
   -2.7452    0.4626   -5.9044 H   0  0  0  0  0  0  0  0  0  0  0  0
  1 11  1  0  0  0  0
  1 17  1  0  0  0  0
  2  7  1  0  0  0  0
  2 26  1  0  0  0  0
  3 14  1  0  0  0  0
  3 24  1  0  0  0  0
  4 16  1  0  0  0  0
  4 25  1  0  0  0  0
  5  6  1  0  0  0  0
  5  8  1  0  0  0  0
  5 27  1  0  0  0  0
  6  7  1  0  0  0  0
  6 28  1  0  0  0  0
  6 29  1  0  0  0  0
  7 11  1  0  0  0  0
  7 30  1  0  0  0  0
  8  9  1  0  0  0  0
  8 31  1  0  0  0  0
  8 32  1  0  0  0  0
  9 10  1  0  0  0  0
  9 33  1  0  0  0  0
  9 34  1  0  0  0  0
 10 12  2  0  0  0  0
 10 13  1  0  0  0  0
 11 35  1  0  0  0  0
 11 36  1  0  0  0  0
 12 14  1  0  0  0  0
 12 37  1  0  0  0  0
 13 15  2  0  0  0  0
 13 38  1  0  0  0  0
 14 16  2  0  0  0  0
 15 16  1  0  0  0  0
 15 39  1  0  0  0  0
 17 18  1  0  0  0  0
 17 20  2  0  0  0  0
 18 19  2  0  0  0  0
 18 40  1  0  0  0  0
 19 21  1  0  0  0  0
 19 23  1  0  0  0  0
 20 22  1  0  0  0  0
 20 41  1  0  0  0  0
 21 22  2  0  0  0  0
 21 42  1  0  0  0  0
 22 43  1  0  0  0  0
 23 44  1  0  0  0  0
 23 45  1  0  0  0  0
 23 46  1  0  0  0  0
 24 47  1  0  0  0  0
 24 48  1  0  0  0  0
 24 49  1  0  0  0  0
 25 50  1  0  0  0  0
 25 51  1  0  0  0  0
 25 52  1  0  0  0  0
M  END
>  <DRUGBANK_ID>
DB01295

>  <COMMON_NAME>
Bevantolol

>  <CAS_NUMBER>
59170-23-9

>  <UNII>
34ZXW6ZV21

>  <SYNONYMS>
(±)-bevantolol; 1-((2-(3,4-dimethoxyphenyl)ethyl)amino)-3-(3-methylphenoxy)-2-propanol; 1-(3,4-dimethoxyphenethylamino)-3-(m-tolyloxy)-2-propanol; 1-(3,4-dimethoxyphenethylamino)-3-m-tolyloxy-propan-2-ol; 1-[2-(3,4-Dimethoxy-phenyl)-ethylamino]-3-m-tolyloxy-propan-2-ol; Bevantolol; Bévantolol; Bevantololum

$$$$
