
 OpenBabel10282417103D

 95100  0  0  1  0  0  0  0  0999 V2000
   -3.0575   -2.6119    3.7166 O   0  0  0  0  0  0  0  0  0  0  0  0
   -3.3272   -5.1371    1.1744 O   0  0  0  0  0  0  0  0  0  0  0  0
   -2.8569   -5.9012    6.5049 O   0  0  0  0  0  0  0  0  0  0  0  0
   -3.6944   -7.9449    5.8497 O   0  0  0  0  0  0  0  0  0  0  0  0
    3.1953    1.2123    7.4746 O   0  0  0  0  0  0  0  0  0  0  0  0
    3.4261   -0.4409    5.9594 O   0  0  0  0  0  0  0  0  0  0  0  0
    2.3309   -1.7919   -2.9831 O   0  0  0  0  0  0  0  0  0  0  0  0
    0.8037   -2.5402   -1.6604 O   0  0  0  0  0  0  0  0  0  0  0  0
   -2.5331   -3.5907    1.0591 N   0  0  0  0  0  0  0  0  0  0  0  0
    2.8621   -1.5393    3.1332 N   0  0  0  0  0  0  0  0  0  0  0  0
   -4.9027   -1.3468    0.3520 N   0  0  0  0  0  0  0  0  0  0  0  0
   -0.6719   -0.1230    1.9681 N   0  0  0  0  0  0  0  0  0  0  0  0
   -3.1421   -3.9989    2.5129 C   0  0  2  0  0  0  0  0  0  0  0  0
   -4.1915   -5.3370    3.9036 C   0  0  1  0  0  0  0  0  0  0  0  0
   -5.4354   -4.5057    2.7896 C   0  0  0  0  0  0  0  0  0  0  0  0
   -0.7417   -3.6070    1.8824 C   0  0  0  0  0  0  0  0  0  0  0  0
   -5.5127   -3.7070    2.5153 C   0  0  0  0  0  0  0  0  0  0  0  0
   -4.7112   -6.1745    4.8731 C   0  0  0  0  0  0  0  0  0  0  0  0
   -4.4341   -3.7784    1.0966 C   0  0  0  0  0  0  0  0  0  0  0  0
   -6.5926   -5.5200    3.6632 C   0  0  0  0  0  0  0  0  0  0  0  0
   -5.9991   -6.3959    4.7308 C   0  0  0  0  0  0  0  0  0  0  0  0
   -3.1418   -4.3950    2.6547 C   0  0  0  0  0  0  0  0  0  0  0  0
    1.4056   -3.0535    1.9775 C   0  0  0  0  0  0  0  0  0  0  0  0
   -6.4143   -2.9265    0.9595 C   0  0  0  0  0  0  0  0  0  0  0  0
    3.3946   -2.1191    2.2630 C   0  0  0  0  0  0  0  0  0  0  0  0
   -3.7304   -6.7342    5.8183 C   0  0  0  0  0  0  0  0  0  0  0  0
    4.5566   -0.5302    2.8815 C   0  0  0  0  0  0  0  0  0  0  0  0
   -5.3924   -2.2735    0.9232 C   0  0  0  0  0  0  0  0  0  0  0  0
    3.6458    0.4708    3.3816 C   0  0  0  0  0  0  0  0  0  0  0  0
    2.6674   -0.3328    3.1613 C   0  0  0  0  0  0  0  0  0  0  0  0
   -4.5288   -2.1332    2.2577 C   0  0  0  0  0  0  0  0  0  0  0  0
    3.2993    1.7639    3.9771 C   0  0  0  0  0  0  0  0  0  0  0  0
    6.0815    0.7611    3.2928 C   0  0  0  0  0  0  0  0  0  0  0  0
   -3.6308   -1.3603    0.6729 C   0  0  0  0  0  0  0  0  0  0  0  0
   -3.3403   -2.2148    1.8346 C   0  0  0  0  0  0  0  0  0  0  0  0
    1.3058   -0.3941    3.2402 C   0  0  0  0  0  0  0  0  0  0  0  0
    0.5979   -0.5220    2.1275 C   0  0  0  0  0  0  0  0  0  0  0  0
   -1.9220   -1.4585    2.5136 C   0  0  0  0  0  0  0  0  0  0  0  0
    0.9774   -0.7861    0.8150 C   0  0  0  0  0  0  0  0  0  0  0  0
    2.3605    1.5590    5.1613 C   0  0  0  0  0  0  0  0  0  0  0  0
   -2.6470   -0.5965    0.3117 C   0  0  0  0  0  0  0  0  0  0  0  0
   -1.1827   -0.5234    0.8130 C   0  0  0  0  0  0  0  0  0  0  0  0
   -4.3987   -3.5544    3.7460 C   0  0  0  0  0  0  0  0  0  0  0  0
   -0.0949   -0.8446    0.0376 C   0  0  0  0  0  0  0  0  0  0  0  0
    2.3506   -0.8865    0.3411 C   0  0  0  0  0  0  0  0  0  0  0  0
   -2.8628   -4.4560    6.4336 C   0  0  0  0  0  0  0  0  0  0  0  0
   -1.7605   -3.0947    3.0257 C   0  0  0  0  0  0  0  0  0  0  0  0
   -0.2705   -0.8842   -1.3628 C   0  0  0  0  0  0  0  0  0  0  0  0
    3.0296    0.6951    6.2192 C   0  0  0  0  0  0  0  0  0  0  0  0
    2.6318   -2.0690   -0.5247 C   0  0  0  0  0  0  0  0  0  0  0  0
   -1.4035   -4.6935    3.1289 C   0  0  0  0  0  0  0  0  0  0  0  0
    1.9221   -2.0974   -1.7693 C   0  0  0  0  0  0  0  0  0  0  0  0
    2.7362    2.5255    7.8125 C   0  0  0  0  0  0  0  0  0  0  0  0
    3.2811   -1.8589   -3.1059 H   0  0  0  0  0  0  0  0  0  0  0  0
    2.0537   -1.9632    2.9620 H   0  0  0  0  0  0  0  0  0  0  0  0
   -5.4510   -0.8830   -0.2411 H   0  0  0  0  0  0  0  0  0  0  0  0
   -3.6683   -5.3760    4.7345 H   0  0  0  0  0  0  0  0  0  0  0  0
   -6.0740   -4.3862    1.3348 H   0  0  0  0  0  0  0  0  0  0  0  0
   -7.0018   -3.5770    2.9254 H   0  0  0  0  0  0  0  0  0  0  0  0
   -6.0683   -2.3546    2.7180 H   0  0  0  0  0  0  0  0  0  0  0  0
   -7.8136   -5.9546    3.7090 H   0  0  0  0  0  0  0  0  0  0  0  0
   -6.3764   -7.1864    5.3458 H   0  0  0  0  0  0  0  0  0  0  0  0
    3.1282   -3.1338    1.9039 H   0  0  0  0  0  0  0  0  0  0  0  0
   -7.4168   -2.4704    0.4938 H   0  0  0  0  0  0  0  0  0  0  0  0
    4.1620    2.2928    4.3233 H   0  0  0  0  0  0  0  0  0  0  0  0
    2.7981    2.3666    3.2128 H   0  0  0  0  0  0  0  0  0  0  0  0
    6.5842    1.1178    2.3884 H   0  0  0  0  0  0  0  0  0  0  0  0
    5.8580    1.7752    3.8409 H   0  0  0  0  0  0  0  0  0  0  0  0
    6.8244    0.3196    3.9630 H   0  0  0  0  0  0  0  0  0  0  0  0
    0.8849   -0.3637    4.2068 H   0  0  0  0  0  0  0  0  0  0  0  0
   -1.0501   -1.2826    3.1032 H   0  0  0  0  0  0  0  0  0  0  0  0
   -1.4882   -2.3264    1.3087 H   0  0  0  0  0  0  0  0  0  0  0  0
   -2.7058   -0.8740    2.3448 H   0  0  0  0  0  0  0  0  0  0  0  0
    2.0478    2.5102    5.5476 H   0  0  0  0  0  0  0  0  0  0  0  0
    1.4508    1.0810    4.8291 H   0  0  0  0  0  0  0  0  0  0  0  0
   -2.9481    0.0948   -0.3733 H   0  0  0  0  0  0  0  0  0  0  0  0
   -5.3329   -3.5093    4.3590 H   0  0  0  0  0  0  0  0  0  0  0  0
   -4.3235   -5.0330    2.5457 H   0  0  0  0  0  0  0  0  0  0  0  0
   -3.2537   -4.1399    4.2861 H   0  0  0  0  0  0  0  0  0  0  0  0
    2.6983    0.0323   -0.0566 H   0  0  0  0  0  0  0  0  0  0  0  0
    3.0087   -0.9531    1.1178 H   0  0  0  0  0  0  0  0  0  0  0  0
   -2.5582   -4.1452    5.4736 H   0  0  0  0  0  0  0  0  0  0  0  0
   -3.8456   -4.0722    6.6664 H   0  0  0  0  0  0  0  0  0  0  0  0
   -2.1160   -4.0232    7.0734 H   0  0  0  0  0  0  0  0  0  0  0  0
   -1.4258   -2.4267    3.7262 H   0  0  0  0  0  0  0  0  0  0  0  0
   -0.8009   -1.9083   -1.6474 H   0  0  0  0  0  0  0  0  0  0  0  0
   -0.7042   -0.1570   -1.9494 H   0  0  0  0  0  0  0  0  0  0  0  0
    0.7695   -0.6631   -1.7922 H   0  0  0  0  0  0  0  0  0  0  0  0
    3.6478   -2.1477   -0.8005 H   0  0  0  0  0  0  0  0  0  0  0  0
    2.3136   -2.9965   -0.0325 H   0  0  0  0  0  0  0  0  0  0  0  0
   -0.5888   -4.4190    3.5439 H   0  0  0  0  0  0  0  0  0  0  0  0
   -1.8719   -5.2842    2.2616 H   0  0  0  0  0  0  0  0  0  0  0  0
    3.2348    3.2587    7.1858 H   0  0  0  0  0  0  0  0  0  0  0  0
    1.6616    2.5838    7.6690 H   0  0  0  0  0  0  0  0  0  0  0  0
    2.9605    2.7503    8.8561 H   0  0  0  0  0  0  0  0  0  0  0  0
  1 22  1  0  0  0  0
  1 38  1  0  0  0  0
  2 22  2  0  0  0  0
  3 26  1  0  0  0  0
  3 46  1  0  0  0  0
  4 26  2  0  0  0  0
  5 49  1  0  0  0  0
  5 53  1  0  0  0  0
  6 49  2  0  0  0  0
  7 52  1  0  0  0  0
  7 54  1  0  0  0  0
  8 52  2  0  0  0  0
  9 16  1  0  0  0  0
  9 19  2  0  0  0  0
 10 25  1  0  0  0  0
 10 30  1  0  0  0  0
 10 55  1  0  0  0  0
 11 28  1  0  0  0  0
 11 34  1  0  0  0  0
 11 56  1  0  0  0  0
 12 37  1  0  0  0  0
 12 42  2  0  0  0  0
 13 14  1  0  0  0  0
 13 15  1  0  0  0  0
 13 16  1  0  0  0  0
 13 17  1  1  0  0  0
 14 18  1  0  0  0  0
 14 57  1  1  0  0  0
 14 22  1  0  0  0  0
 15 19  1  0  0  0  0
 15 20  2  0  0  0  0
 16 23  2  0  0  0  0
 17 58  1  0  0  0  0
 17 59  1  0  0  0  0
 17 60  1  0  0  0  0
 18 21  2  0  0  0  0
 18 26  1  0  0  0  0
 19 24  1  0  0  0  0
 20 21  1  0  0  0  0
 20 61  1  0  0  0  0
 21 62  1  0  0  0  0
 23 25  1  0  0  0  0
 23 63  1  0  0  0  0
 24 28  2  0  0  0  0
 24 64  1  0  0  0  0
 25 27  2  0  0  0  0
 27 29  1  0  0  0  0
 27 33  1  0  0  0  0
 28 31  1  0  0  0  0
 29 30  2  0  0  0  0
 29 32  1  0  0  0  0
 30 36  1  0  0  0  0
 31 35  2  0  0  0  0
 31 43  1  0  0  0  0
 32 40  1  0  0  0  0
 32 65  1  0  0  0  0
 32 66  1  0  0  0  0
 33 67  1  0  0  0  0
 33 68  1  0  0  0  0
 33 69  1  0  0  0  0
 34 35  1  0  0  0  0
 34 41  2  0  0  0  0
 35 47  1  0  0  0  0
 36 37  2  0  0  0  0
 36 70  1  0  0  0  0
 37 39  1  0  0  0  0
 38 71  1  0  0  0  0
 38 72  1  0  0  0  0
 38 73  1  0  0  0  0
 39 44  2  0  0  0  0
 39 45  1  0  0  0  0
 40 49  1  0  0  0  0
 40 74  1  0  0  0  0
 40 75  1  0  0  0  0
 41 42  1  0  0  0  0
 41 76  1  0  0  0  0
 42 44  1  0  0  0  0
 43 77  1  0  0  0  0
 43 78  1  0  0  0  0
 43 79  1  0  0  0  0
 44 48  1  0  0  0  0
 45 50  1  0  0  0  0
 45 80  1  0  0  0  0
 45 81  1  0  0  0  0
 46 82  1  0  0  0  0
 46 83  1  0  0  0  0
 46 84  1  0  0  0  0
 47 51  2  0  0  0  0
 47 85  1  0  0  0  0
 48 86  1  0  0  0  0
 48 87  1  0  0  0  0
 48 88  1  0  0  0  0
 50 52  1  0  0  0  0
 50 89  1  0  0  0  0
 50 90  1  0  0  0  0
 51 91  1  0  0  0  0
 51 92  1  0  0  0  0
 53 93  1  0  0  0  0
 53 94  1  0  0  0  0
 53 95  1  0  0  0  0
M  END
>  <DRUGBANK_ID>
DB00460

>  <SECONDARY_ACCESSION_NUMBERS>
APRD01290

>  <COMMON_NAME>
Verteporfin

>  <CAS_NUMBER>
129497-78-5

>  <UNII>
WU713D62N9

>  <SYNONYMS>
Verteporfin; Verteporfina; Vert√©porfine; Verteporfinum

$$$$
