
 OpenBabel10282417223D

 61 65  0  0  1  0  0  0  0  0999 V2000
    1.1412    0.3588    0.0441 C   0  0  0  0  0  0  0  0  0  0  0  0
    0.6299    1.2039    1.1947 C   0  0  0  0  0  0  0  0  0  0  0  0
   -0.2603    2.0439    0.9496 O   0  0  0  0  0  0  0  0  0  0  0  0
    1.0146    0.9119    2.5968 C   0  0  0  0  0  0  0  0  0  0  0  0
    2.2429    0.5002    2.9756 N   0  0  0  0  0  0  0  0  0  0  0  0
    2.0925    0.1242    4.2743 N   0  0  0  0  0  0  0  0  0  0  0  0
    3.2001   -0.4233    5.0392 C   0  0  0  0  0  0  0  0  0  0  0  0
    3.7998   -1.7279    4.5680 C   0  0  0  0  0  0  0  0  0  0  0  0
    5.0059   -1.7613    4.3042 O   0  0  0  0  0  0  0  0  0  0  0  0
    3.0504   -2.8932    4.6172 N   0  0  0  0  0  0  0  0  0  0  0  0
    1.6257   -3.0197    4.5184 C   0  0  0  0  0  0  0  0  0  0  0  0
    1.2487   -4.4693    4.6221 C   0  0  2  0  0  0  0  0  0  0  0  0
    0.9171   -4.7344    5.9061 F   0  0  0  0  0  0  0  0  0  0  0  0
    2.5135   -5.2059    4.2171 C   0  0  0  0  0  0  0  0  0  0  0  0
    3.6669   -4.2006    4.4561 C   0  0  1  0  0  0  0  0  0  0  0  0
    4.7551   -4.3050    3.3622 C   0  0  0  0  0  0  0  0  0  0  0  0
    5.8510   -4.8003    3.6724 O   0  0  0  0  0  0  0  0  0  0  0  0
    4.5348   -4.0441    2.0287 N   0  0  0  0  0  0  0  0  0  0  0  0
    3.3426   -3.6964    1.3565 C   0  0  0  0  0  0  0  0  0  0  0  0
    2.9457   -4.5434    0.3271 C   0  0  0  0  0  0  0  0  0  0  0  0
    1.6199   -4.5103   -0.1109 C   0  0  0  0  0  0  0  0  0  0  0  0
    0.7801   -3.5132    0.3017 C   0  0  0  0  0  0  0  0  0  0  0  0
    1.2406   -2.6713    1.2666 C   0  0  0  0  0  0  0  0  0  0  0  0
   -0.3333   -1.9285    2.1434 Br  0  0  0  0  0  0  0  0  0  0  0  0
    2.5069   -2.7307    1.7960 N   0  0  0  0  0  0  0  0  0  0  0  0
    0.8241    0.3345    4.7736 C   0  0  0  0  0  0  0  0  0  0  0  0
    0.0953    0.8314    3.7006 C   0  0  0  0  0  0  0  0  0  0  0  0
   -1.3036    0.9649    3.8437 C   0  0  0  0  0  0  0  0  0  0  0  0
   -1.9268    0.6587    5.0676 C   0  0  0  0  0  0  0  0  0  0  0  0
   -1.1442    0.2214    6.1432 C   0  0  0  0  0  0  0  0  0  0  0  0
    0.2362    0.0460    6.0184 C   0  0  0  0  0  0  0  0  0  0  0  0
   -3.3684    0.8096    5.2176 C   0  0  0  0  0  0  0  0  0  0  0  0
   -3.9189    1.7222    6.0968 C   0  0  0  0  0  0  0  0  0  0  0  0
   -5.2422    1.9163    6.2641 N   0  0  0  0  0  0  0  0  0  0  0  0
   -6.0534    1.1569    5.5057 C   0  0  0  0  0  0  0  0  0  0  0  0
   -7.5289    1.3449    5.6554 C   0  0  0  0  0  0  0  0  0  0  0  0
   -5.6345    0.2328    4.6199 N   0  0  0  0  0  0  0  0  0  0  0  0
   -4.2985    0.0836    4.4979 C   0  0  0  0  0  0  0  0  0  0  0  0
    0.8420    0.7987   -0.9122 H   0  0  0  0  0  0  0  0  0  0  0  0
    0.6493   -0.6100    0.0287 H   0  0  0  0  0  0  0  0  0  0  0  0
    2.2220    0.2231    0.0642 H   0  0  0  0  0  0  0  0  0  0  0  0
    3.9783    0.3478    5.0517 H   0  0  0  0  0  0  0  0  0  0  0  0
    2.8892   -0.5782    6.0770 H   0  0  0  0  0  0  0  0  0  0  0  0
    1.4491   -2.8037    3.5094 H   0  0  0  0  0  0  0  0  0  0  0  0
    1.0373   -2.3076    5.0761 H   0  0  0  0  0  0  0  0  0  0  0  0
    0.3967   -4.7312    3.9793 H   0  0  0  0  0  0  0  0  0  0  0  0
    2.6273   -6.1197    4.8076 H   0  0  0  0  0  0  0  0  0  0  0  0
    2.4591   -5.5147    3.1673 H   0  0  0  0  0  0  0  0  0  0  0  0
    4.1207   -4.4294    5.4292 H   0  0  0  0  0  0  0  0  0  0  0  0
    5.3020   -4.4092    1.4761 H   0  0  0  0  0  0  0  0  0  0  0  0
    3.5949   -5.3157   -0.0653 H   0  0  0  0  0  0  0  0  0  0  0  0
    1.1833   -5.3034   -0.7034 H   0  0  0  0  0  0  0  0  0  0  0  0
   -0.2580   -3.4576    0.0000 H   0  0  0  0  0  0  0  0  0  0  0  0
   -1.9016    1.2450    2.9784 H   0  0  0  0  0  0  0  0  0  0  0  0
   -1.6155   -0.0237    7.0962 H   0  0  0  0  0  0  0  0  0  0  0  0
    0.8008   -0.3695    6.8491 H   0  0  0  0  0  0  0  0  0  0  0  0
   -3.2818    2.3578    6.7073 H   0  0  0  0  0  0  0  0  0  0  0  0
   -7.9633    1.6450    4.6974 H   0  0  0  0  0  0  0  0  0  0  0  0
   -7.9892    0.4062    5.9765 H   0  0  0  0  0  0  0  0  0  0  0  0
   -7.7557    2.1162    6.3977 H   0  0  0  0  0  0  0  0  0  0  0  0
   -3.9936   -0.6716    3.7778 H   0  0  0  0  0  0  0  0  0  0  0  0
  1  2  1  0  0  0  0
  1 39  1  0  0  0  0
  1 40  1  0  0  0  0
  1 41  1  0  0  0  0
  2  3  2  0  0  0  0
  2  4  1  0  0  0  0
  4  5  2  0  0  0  0
  4 27  1  0  0  0  0
  5  6  1  0  0  0  0
  6  7  1  0  0  0  0
  6 26  1  0  0  0  0
  7  8  1  0  0  0  0
  7 42  1  0  0  0  0
  7 43  1  0  0  0  0
  8  9  2  0  0  0  0
  8 10  1  0  0  0  0
 10 11  1  0  0  0  0
 11 44  1  0  0  0  0
 11 45  1  0  0  0  0
 12 11  1  0  0  0  0
 12 13  1  0  0  0  0
 12 14  1  0  0  0  0
 12 46  1  6  0  0  0
 14 47  1  0  0  0  0
 14 48  1  0  0  0  0
 15 14  1  0  0  0  0
 15 10  1  0  0  0  0
 15 16  1  0  0  0  0
 15 49  1  1  0  0  0
 16 17  2  0  0  0  0
 16 18  1  0  0  0  0
 18 19  1  0  0  0  0
 18 50  1  0  0  0  0
 19 20  2  0  0  0  0
 19 25  1  0  0  0  0
 20 21  1  0  0  0  0
 20 51  1  0  0  0  0
 21 22  2  0  0  0  0
 21 52  1  0  0  0  0
 22 23  1  0  0  0  0
 22 53  1  0  0  0  0
 23 24  1  0  0  0  0
 23 25  2  0  0  0  0
 26 27  2  0  0  0  0
 26 31  1  0  0  0  0
 27 28  1  0  0  0  0
 28 29  2  0  0  0  0
 28 54  1  0  0  0  0
 29 30  1  0  0  0  0
 29 32  1  0  0  0  0
 30 31  2  0  0  0  0
 30 55  1  0  0  0  0
 31 56  1  0  0  0  0
 32 33  2  0  0  0  0
 32 38  1  0  0  0  0
 33 34  1  0  0  0  0
 33 57  1  0  0  0  0
 34 35  2  0  0  0  0
 35 36  1  0  0  0  0
 35 37  1  0  0  0  0
 36 58  1  0  0  0  0
 36 59  1  0  0  0  0
 36 60  1  0  0  0  0
 37 38  2  0  0  0  0
 38 61  1  0  0  0  0
M  END
>  <DRUGBANK_ID>
DB15401

>  <COMMON_NAME>
Danicopan

>  <CAS_NUMBER>
1903768-17-1

>  <UNII>
JM8C1SFX0U

>  <SYNONYMS>
(2S,4R)-1-(2-(3-acetyl-5-(2-methylpyrimidin-5-yl)-1H-indazol-1-yl)acetyl)-N-(6-bromopyridin-2-yl)-4-fluoropyrrolidine-2-carboxamide; (2S,4R)-1-(2-(3-acetyl-5-(2-methylpyrimidine-5-yl)-1H-indazol-1-yl)acetyl)-N-(6-bromopyridine-2-yl)-4-fluoropyrrolidine-2-carboxamide; ACH-0144471; ACH-4471; ACH-CFDIS; ALXN 2040; Danicopan

$$$$
