
 OpenBabel10282417123D

 40 42  0  0  0  0  0  0  0  0999 V2000
   -4.6066   -2.0126    4.9237 C   0  0  0  0  0  0  0  0  0  0  0  0
   -5.0831   -3.0958    5.6472 C   0  0  0  0  0  0  0  0  0  0  0  0
   -4.8188   -4.4187    5.2600 C   0  0  0  0  0  0  0  0  0  0  0  0
   -3.8407   -2.2199    3.7837 C   0  0  0  0  0  0  0  0  0  0  0  0
   -3.5725   -3.5520    3.4063 C   0  0  0  0  0  0  0  0  0  0  0  0
   -4.0483   -4.6524    4.1011 C   0  0  0  0  0  0  0  0  0  0  0  0
   -2.8156   -4.0418    2.3663 N   0  0  0  0  0  0  0  0  0  0  0  0
   -2.9579   -5.4166    2.2520 C   0  0  0  0  0  0  0  0  0  0  0  0
   -3.6118   -5.8361    3.4159 C   0  0  0  0  0  0  0  0  0  0  0  0
   -3.7458   -7.2250    3.6425 C   0  0  0  0  0  0  0  0  0  0  0  0
   -3.1719   -8.1417    2.7535 C   0  0  0  0  0  0  0  0  0  0  0  0
   -2.5528   -7.7126    1.5925 C   0  0  0  0  0  0  0  0  0  0  0  0
   -2.5390   -6.3547    1.2864 C   0  0  0  0  0  0  0  0  0  0  0  0
   -6.1227   -2.7762    7.1933 Br  0  0  0  0  0  0  0  0  0  0  0  0
   -3.2953   -9.9997    3.0833 Br  0  0  0  0  0  0  0  0  0  0  0  0
   -2.0651   -3.1581    1.5045 C   0  0  0  0  0  0  0  0  0  0  0  0
   -0.5818   -3.5090    1.2640 C   0  0  2  0  0  0  0  0  0  0  0  0
   -0.0336   -2.9821   -0.0749 C   0  0  0  0  0  0  0  0  0  0  0  0
   -1.0566   -2.5253   -1.0243 N   0  0  0  0  0  0  0  0  0  0  0  0
   -0.4069   -1.9027   -2.1733 C   0  0  0  0  0  0  0  0  0  0  0  0
   -1.9576   -3.5750   -1.5239 C   0  0  0  0  0  0  0  0  0  0  0  0
   -0.2423   -4.8911    1.2975 O   0  0  0  0  0  0  0  0  0  0  0  0
   -4.8152   -0.9896    5.2301 H   0  0  0  0  0  0  0  0  0  0  0  0
   -5.2030   -5.2553    5.8262 H   0  0  0  0  0  0  0  0  0  0  0  0
   -3.4736   -1.3693    3.2204 H   0  0  0  0  0  0  0  0  0  0  0  0
   -4.2768   -7.5765    4.5215 H   0  0  0  0  0  0  0  0  0  0  0  0
   -2.0821   -8.4172    0.9106 H   0  0  0  0  0  0  0  0  0  0  0  0
   -2.1362   -6.0646    0.3259 H   0  0  0  0  0  0  0  0  0  0  0  0
   -2.7272   -3.0339    0.6508 H   0  0  0  0  0  0  0  0  0  0  0  0
   -2.0606   -2.1397    1.9113 H   0  0  0  0  0  0  0  0  0  0  0  0
   -0.0171   -3.0731    2.0979 H   0  0  0  0  0  0  0  0  0  0  0  0
    0.6558   -2.1628    0.1697 H   0  0  0  0  0  0  0  0  0  0  0  0
    0.5857   -3.7521   -0.5572 H   0  0  0  0  0  0  0  0  0  0  0  0
    0.1154   -2.6530   -2.7769 H   0  0  0  0  0  0  0  0  0  0  0  0
   -1.1580   -1.4036   -2.7910 H   0  0  0  0  0  0  0  0  0  0  0  0
    0.3169   -1.1449   -1.8585 H   0  0  0  0  0  0  0  0  0  0  0  0
   -1.4627   -4.2720   -2.2007 H   0  0  0  0  0  0  0  0  0  0  0  0
   -2.4071   -4.2045   -0.7550 H   0  0  0  0  0  0  0  0  0  0  0  0
   -2.8079   -3.0958   -2.0220 H   0  0  0  0  0  0  0  0  0  0  0  0
   -0.4437   -5.2494    0.4180 H   0  0  0  0  0  0  0  0  0  0  0  0
  1  2  2  0  0  0  0
  1 23  1  0  0  0  0
  2  3  1  0  0  0  0
  2 14  1  0  0  0  0
  3  6  2  0  0  0  0
  3 24  1  0  0  0  0
  4  1  1  0  0  0  0
  4 25  1  0  0  0  0
  5  6  1  0  0  0  0
  5  4  2  0  0  0  0
  6  9  1  0  0  0  0
  7  5  1  0  0  0  0
  7 16  1  0  0  0  0
  8  7  1  0  0  0  0
  8  9  2  0  0  0  0
  9 10  1  0  0  0  0
 10 11  2  0  0  0  0
 10 26  1  0  0  0  0
 11 12  1  0  0  0  0
 11 15  1  0  0  0  0
 12 13  2  0  0  0  0
 12 27  1  0  0  0  0
 13  8  1  0  0  0  0
 13 28  1  0  0  0  0
 16 29  1  0  0  0  0
 16 30  1  0  0  0  0
 17 22  1  0  0  0  0
 17 31  1  1  0  0  0
 17 18  1  0  0  0  0
 17 16  1  0  0  0  0
 18 19  1  0  0  0  0
 18 32  1  0  0  0  0
 18 33  1  0  0  0  0
 19 20  1  0  0  0  0
 19 21  1  0  0  0  0
 20 34  1  0  0  0  0
 20 35  1  0  0  0  0
 20 36  1  0  0  0  0
 21 37  1  0  0  0  0
 21 38  1  0  0  0  0
 21 39  1  0  0  0  0
 22 40  1  0  0  0  0
M  END
>  <DRUGBANK_ID>
DB01731

>  <SECONDARY_ACCESSION_NUMBERS>
EXPT03245

>  <COMMON_NAME>
(S)-wiskostatin

$$$$
