
 OpenBabel10282417183D

 40 41  0  0  0  0  0  0  0  0999 V2000
    1.1705   -1.1028    0.0102 C   0  0  0  0  0  0  0  0  0  0  0  0
    1.1413    0.2992    0.0057 C   0  0  0  0  0  0  0  0  0  0  0  0
   -0.0691    1.0274    0.0020 C   0  0  0  0  0  0  0  0  0  0  0  0
   -1.2438    0.2833   -0.0066 C   0  0  0  0  0  0  0  0  0  0  0  0
   -1.2260   -1.1221   -0.0119 C   0  0  0  0  0  0  0  0  0  0  0  0
   -0.0181   -1.8196    0.0024 C   0  0  0  0  0  0  0  0  0  0  0  0
   -2.4360    6.7724   -0.0509 C   0  0  0  0  0  0  0  0  0  0  0  0
   -1.6419    7.5789   -0.8951 C   0  0  0  0  0  0  0  0  0  0  0  0
   -2.3009    9.6117    0.2939 C   0  0  0  0  0  0  0  0  0  0  0  0
   -1.6304    8.9852   -0.7629 C   0  0  0  0  0  0  0  0  0  0  0  0
   -2.8660    8.7717    1.2550 C   0  0  0  0  0  0  0  0  0  0  0  0
   -3.1316    7.4166    0.9725 C   0  0  0  0  0  0  0  0  0  0  0  0
    2.3358    0.9087    0.0050 F   0  0  0  0  0  0  0  0  0  0  0  0
   -2.4361    0.8984   -0.0069 F   0  0  0  0  0  0  0  0  0  0  0  0
   -0.0415    2.5291    0.0126 C   0  0  0  0  0  0  0  0  0  0  0  0
   -1.2389    3.2765    0.0048 N   0  0  0  0  0  0  0  0  0  0  0  0
   -1.2123    4.6697    0.0721 C   0  0  0  0  0  0  0  0  0  0  0  0
   -2.4457    5.3232   -0.1142 N   0  0  0  0  0  0  0  0  0  0  0  0
   -3.1164    9.2481    2.8990 Cl  0  0  0  0  0  0  0  0  0  0  0  0
   -2.3934   10.9739    0.2064 O   0  0  0  0  0  0  0  0  0  0  0  0
   -4.8840   11.5108    0.6491 C   0  0  3  0  0  0  0  0  0  0  0  0
   -3.0612   11.7494    2.2332 F   0  0  0  0  0  0  0  0  0  0  0  0
   -5.6133   12.2876    1.5189 F   0  0  0  0  0  0  0  0  0  0  0  0
    1.0648    3.0448    0.0125 O   0  0  0  0  0  0  0  0  0  0  0  0
   -0.1989    5.3116    0.3122 O   0  0  0  0  0  0  0  0  0  0  0  0
   -0.7460    6.9133   -2.2190 Cl  0  0  0  0  0  0  0  0  0  0  0  0
   -5.5133    9.4808    1.7921 F   0  0  0  0  0  0  0  0  0  0  0  0
   -6.7862   10.1824    0.2122 F   0  0  0  0  0  0  0  0  0  0  0  0
   -5.4895   10.1298    0.6153 C   0  0  0  0  0  0  0  0  0  0  0  0
   -4.8846    9.3395   -0.3004 F   0  0  0  0  0  0  0  0  0  0  0  0
   -3.3871   11.7267    0.9205 C   0  0  0  0  0  0  0  0  0  0  0  0
   -3.1551   13.0349    0.5362 F   0  0  0  0  0  0  0  0  0  0  0  0
    2.1291   -1.6196    0.0193 H   0  0  0  0  0  0  0  0  0  0  0  0
   -2.1624   -1.6735   -0.0257 H   0  0  0  0  0  0  0  0  0  0  0  0
   -0.0004   -2.9085    0.0074 H   0  0  0  0  0  0  0  0  0  0  0  0
   -1.0741    9.5778   -1.4897 H   0  0  0  0  0  0  0  0  0  0  0  0
   -3.8105    6.8861    1.6341 H   0  0  0  0  0  0  0  0  0  0  0  0
   -2.1206    2.7929   -0.0334 H   0  0  0  0  0  0  0  0  0  0  0  0
   -3.2670    4.8609    0.2527 H   0  0  0  0  0  0  0  0  0  0  0  0
   -5.0716   11.9242   -0.3448 H   0  0  0  0  0  0  0  0  0  0  0  0
  1  2  2  0  0  0  0
  1  6  1  0  0  0  0
  1 33  1  0  0  0  0
  2  3  1  0  0  0  0
  3  4  2  0  0  0  0
  4  5  1  0  0  0  0
  5  6  2  0  0  0  0
  5 34  1  0  0  0  0
  6 35  1  0  0  0  0
  7 18  1  0  0  0  0
  7  8  1  0  0  0  0
  8 10  2  0  0  0  0
 10  9  1  0  0  0  0
 10 36  1  0  0  0  0
 11  9  2  0  0  0  0
 11 12  1  0  0  0  0
 12  7  2  0  0  0  0
 12 37  1  0  0  0  0
 13  2  1  0  0  0  0
 14  4  1  0  0  0  0
 15  3  1  0  0  0  0
 16 15  1  0  0  0  0
 16 38  1  0  0  0  0
 17 16  1  0  0  0  0
 18 17  1  0  0  0  0
 18 39  1  0  0  0  0
 19 11  1  0  0  0  0
 20  9  1  0  0  0  0
 21 31  1  0  0  0  0
 21 40  1  0  0  0  0
 22 31  1  0  0  0  0
 23 21  1  0  0  0  0
 24 15  2  0  0  0  0
 25 17  2  0  0  0  0
 26  8  1  0  0  0  0
 27 29  1  0  0  0  0
 28 29  1  0  0  0  0
 29 21  1  0  0  0  0
 29 30  1  0  0  0  0
 31 20  1  0  0  0  0
 31 32  1  0  0  0  0
M  END
>  <DRUGBANK_ID>
DB11424

>  <COMMON_NAME>
Lufenuron

>  <CAS_NUMBER>
103055-07-8

>  <UNII>
1R754M4918

>  <SYNONYMS>
1-(2,5-dichloro-4-(1,1,2,3,3,3-hexafluoropropoxy)phenyl)-3-(2,6-difluorobenzoyl)urea; Fluphenacur; Lufenuron; Lufenurone; Lufenuronum; N-({[2,5-dichloro-4-(1,1,2,3,3,3-hexafluoropropoxy)phenyl]amino}carbonyl)-2,6-difluorobenzamide

$$$$
