
 OpenBabel10282417233D

 53 55  0  0  0  0  0  0  0  0999 V2000
    2.4832    0.0100    0.0426 C   0  0  0  0  0  0  0  0  0  0  0  0
    1.0835    0.0312   -0.3534 N   0  0  0  0  0  0  0  0  0  0  0  0
    0.3965   -1.1675    0.1559 C   0  0  0  0  0  0  0  0  0  0  0  0
   -1.0723   -1.1228   -0.2996 C   0  0  0  0  0  0  0  0  0  0  0  0
   -1.7761    0.0849    0.2756 N   0  0  0  0  0  0  0  0  0  0  0  0
   -1.0724    1.3037   -0.2215 C   0  0  0  0  0  0  0  0  0  0  0  0
    0.4189    1.2476    0.1737 C   0  0  0  0  0  0  0  0  0  0  0  0
   -1.9917    0.2199    1.9880 S   0  0  0  0  0  0  0  0  0  0  0  0
   -0.7655    0.1557    2.6970 O   0  0  0  0  0  0  0  0  0  0  0  0
   -2.9384    1.3317    2.2003 O   0  0  0  0  0  0  0  0  0  0  0  0
   -2.8110   -1.2493    2.3708 C   0  0  0  0  0  0  0  0  0  0  0  0
   -2.0276   -2.4083    2.1713 C   0  0  0  0  0  0  0  0  0  0  0  0
   -2.6767   -3.5659    2.0030 C   0  0  0  0  0  0  0  0  0  0  0  0
   -4.0773   -3.4378    2.0727 C   0  0  0  0  0  0  0  0  0  0  0  0
   -4.7879   -2.4245    2.9311 C   0  0  0  0  0  0  0  0  0  0  0  0
   -4.1372   -1.2229    2.8473 C   0  0  0  0  0  0  0  0  0  0  0  0
   -5.9201   -2.5259    4.3420 C   0  0  0  0  0  0  0  0  0  0  0  0
   -6.3021   -1.4463    4.8306 O   0  0  0  0  0  0  0  0  0  0  0  0
   -6.3643   -3.8166    5.2175 N   0  0  0  0  0  0  0  0  0  0  0  0
   -5.9411   -5.3847    5.2926 N   0  0  0  0  0  0  0  0  0  0  0  0
   -4.7902   -5.7289    4.7658 C   0  0  0  0  0  0  0  0  0  0  0  0
   -4.2083   -4.7058    4.0696 C   0  0  0  0  0  0  0  0  0  0  0  0
   -4.0883   -6.9064    4.1709 C   0  0  0  0  0  0  0  0  0  0  0  0
   -4.8574   -7.8546    3.5338 C   0  0  0  0  0  0  0  0  0  0  0  0
   -6.2181   -7.7695    3.4809 O   0  0  0  0  0  0  0  0  0  0  0  0
   -4.2282   -8.8944    2.8556 C   0  0  0  0  0  0  0  0  0  0  0  0
   -2.8411   -8.8963    2.6427 C   0  0  0  0  0  0  0  0  0  0  0  0
   -2.0935   -7.7842    2.9807 C   0  0  0  0  0  0  0  0  0  0  0  0
   -0.4602   -7.6477    2.4434 Cl  0  0  0  0  0  0  0  0  0  0  0  0
   -2.6970   -6.7979    3.7568 C   0  0  0  0  0  0  0  0  0  0  0  0
    2.9900    0.8869   -0.3681 H   0  0  0  0  0  0  0  0  0  0  0  0
    2.6088    0.0029    1.1311 H   0  0  0  0  0  0  0  0  0  0  0  0
    2.9749   -0.8754   -0.3726 H   0  0  0  0  0  0  0  0  0  0  0  0
    0.8644   -2.0893   -0.2099 H   0  0  0  0  0  0  0  0  0  0  0  0
    0.4926   -1.2068    1.2458 H   0  0  0  0  0  0  0  0  0  0  0  0
   -1.1084   -1.0843   -1.3979 H   0  0  0  0  0  0  0  0  0  0  0  0
   -1.6159   -2.0464   -0.1017 H   0  0  0  0  0  0  0  0  0  0  0  0
   -1.1888    1.3627   -1.3088 H   0  0  0  0  0  0  0  0  0  0  0  0
   -1.5557    2.1915    0.1978 H   0  0  0  0  0  0  0  0  0  0  0  0
    0.5280    1.2870    1.2621 H   0  0  0  0  0  0  0  0  0  0  0  0
    0.9074    2.1471   -0.2038 H   0  0  0  0  0  0  0  0  0  0  0  0
   -0.9707   -2.4178    1.9361 H   0  0  0  0  0  0  0  0  0  0  0  0
   -2.1333   -4.5052    1.8279 H   0  0  0  0  0  0  0  0  0  0  0  0
   -4.4552   -4.3957    1.7086 H   0  0  0  0  0  0  0  0  0  0  0  0
   -4.6214   -0.2931    3.1398 H   0  0  0  0  0  0  0  0  0  0  0  0
   -7.0290   -3.6257    5.9760 H   0  0  0  0  0  0  0  0  0  0  0  0
   -3.3242   -4.1828    4.3819 H   0  0  0  0  0  0  0  0  0  0  0  0
   -4.8189   -4.9419    3.1861 H   0  0  0  0  0  0  0  0  0  0  0  0
   -4.7863   -3.9165    4.2698 H   0  0  0  0  0  0  0  0  0  0  0  0
   -6.5140   -6.9372    3.9104 H   0  0  0  0  0  0  0  0  0  0  0  0
   -4.8286   -9.7229    2.4998 H   0  0  0  0  0  0  0  0  0  0  0  0
   -2.3583   -9.7630    2.2021 H   0  0  0  0  0  0  0  0  0  0  0  0
   -2.0838   -5.9163    3.9796 H   0  0  0  0  0  0  0  0  0  0  0  0
  1  2  1  0  0  0  0
  1 31  1  0  0  0  0
  1 32  1  0  0  0  0
  1 33  1  0  0  0  0
  2  3  1  0  0  0  0
  2  7  1  0  0  0  0
  3  4  1  0  0  0  0
  3 34  1  0  0  0  0
  3 35  1  0  0  0  0
  4  5  1  0  0  0  0
  4 36  1  0  0  0  0
  4 37  1  0  0  0  0
  5  6  1  0  0  0  0
  5  8  1  0  0  0  0
  6  7  1  0  0  0  0
  6 38  1  0  0  0  0
  6 39  1  0  0  0  0
  7 40  1  0  0  0  0
  7 41  1  0  0  0  0
  8  9  2  0  0  0  0
  8 10  2  0  0  0  0
  8 11  1  0  0  0  0
 11 12  2  0  0  0  0
 11 16  1  0  0  0  0
 12 13  1  0  0  0  0
 12 42  1  0  0  0  0
 13 14  2  0  0  0  0
 13 43  1  0  0  0  0
 14 15  1  0  0  0  0
 14 44  1  0  0  0  0
 15 16  2  0  0  0  0
 15 17  1  0  0  0  0
 16 45  1  0  0  0  0
 17 18  2  0  0  0  0
 17 19  1  0  0  0  0
 19 20  1  0  0  0  0
 19 46  1  0  0  0  0
 20 21  2  0  0  0  0
 21 22  1  0  0  0  0
 21 23  1  0  0  0  0
 22 47  1  0  0  0  0
 22 48  1  0  0  0  0
 22 49  1  0  0  0  0
 23 24  2  0  0  0  0
 23 30  1  0  0  0  0
 24 25  1  0  0  0  0
 24 26  1  0  0  0  0
 25 50  1  0  0  0  0
 26 27  2  0  0  0  0
 26 51  1  0  0  0  0
 27 28  1  0  0  0  0
 27 52  1  0  0  0  0
 28 29  1  0  0  0  0
 28 30  2  0  0  0  0
 30 53  1  0  0  0  0
M  END
>  <DRUGBANK_ID>
DB17117

>  <COMMON_NAME>
Seclidemstat

>  <CAS_NUMBER>
1423715-37-0

>  <UNII>
TYH386V3WJ

>  <SYNONYMS>
Benzoic acid, 3-((4-methyl-1-piperazinyl)sulfonyl)-, (2e)-2-(1-(5-chloro-2-hydroxyphenyl)ethylidene)hydrazide; N'-[(1E)-1-(5-chloro-2-hydroxyphenyl)ethylidene]- 3-(4-methylpiperazine-1-sulfonyl)benzohydrazide

$$$$
