1001
 OpenBabel10282417113D

 38 38  0  0  1  0  0  0  0  0999 V2000
    0.9800   -0.0839    0.1510 O   0  0  0  0  0  0  0  0  0  0  0  0
    2.5214   -6.0588   -1.3953 O   0  0  0  0  0  0  0  0  0  0  0  0
   -1.0111   -5.5984    0.4386 O   0  0  0  0  0  0  0  0  0  0  0  0
    2.4472    0.2496   -2.3547 N   0  0  0  0  0  0  0  0  0  0  0  0
    2.9558    0.9045   -3.5596 C   0  0  0  0  0  0  0  0  0  0  0  0
    0.9824    0.0879   -2.2716 C   0  0  0  0  0  0  0  0  0  0  0  0
    0.5408   -0.7390   -1.0400 C   0  0  3  0  0  0  0  0  0  0  0  0
    2.5087    2.3681   -3.5351 C   0  0  0  0  0  0  0  0  0  0  0  0
    4.4948    0.8382   -3.4971 C   0  0  0  0  0  0  0  0  0  0  0  0
    2.4998    0.1895   -4.8407 C   0  0  0  0  0  0  0  0  0  0  0  0
    1.0448   -2.1710   -1.0783 C   0  0  0  0  0  0  0  0  0  0  0  0
    0.1537   -3.2424   -0.9537 C   0  0  0  0  0  0  0  0  0  0  0  0
    2.4039   -2.4661   -1.2657 C   0  0  0  0  0  0  0  0  0  0  0  0
    0.5945   -4.5843   -1.0315 C   0  0  0  0  0  0  0  0  0  0  0  0
    1.9543   -4.8226   -1.2716 C   0  0  0  0  0  0  0  0  0  0  0  0
    2.8477   -3.7746   -1.3906 C   0  0  0  0  0  0  0  0  0  0  0  0
   -0.4271   -5.6702   -0.8554 C   0  0  0  0  0  0  0  0  0  0  0  0
    1.9442   -0.1962    0.1728 H   0  0  0  0  0  0  0  0  0  0  0  0
    1.8598   -6.7550   -1.3356 H   0  0  0  0  0  0  0  0  0  0  0  0
   -0.2807   -5.4933    1.0738 H   0  0  0  0  0  0  0  0  0  0  0  0
    2.7818    0.7378   -1.5253 H   0  0  0  0  0  0  0  0  0  0  0  0
    0.5861   -0.4153   -3.1581 H   0  0  0  0  0  0  0  0  0  0  0  0
    0.5192    1.0765   -2.1929 H   0  0  0  0  0  0  0  0  0  0  0  0
   -0.5566   -0.7282   -1.0196 H   0  0  0  0  0  0  0  0  0  0  0  0
    2.8356    2.8568   -2.6081 H   0  0  0  0  0  0  0  0  0  0  0  0
    2.9242    2.9256   -4.3773 H   0  0  0  0  0  0  0  0  0  0  0  0
    1.4188    2.4584   -3.5881 H   0  0  0  0  0  0  0  0  0  0  0  0
    4.8575   -0.1977   -3.5176 H   0  0  0  0  0  0  0  0  0  0  0  0
    4.9409    1.3583   -4.3526 H   0  0  0  0  0  0  0  0  0  0  0  0
    4.8877    1.3059   -2.5866 H   0  0  0  0  0  0  0  0  0  0  0  0
    2.8264   -0.8585   -4.8477 H   0  0  0  0  0  0  0  0  0  0  0  0
    1.4126    0.1996   -4.9623 H   0  0  0  0  0  0  0  0  0  0  0  0
    2.9173    0.6748   -5.7285 H   0  0  0  0  0  0  0  0  0  0  0  0
   -0.9071   -3.0417   -0.7908 H   0  0  0  0  0  0  0  0  0  0  0  0
    3.1530   -1.6894   -1.3501 H   0  0  0  0  0  0  0  0  0  0  0  0
    3.9018   -3.9609   -1.5836 H   0  0  0  0  0  0  0  0  0  0  0  0
   -1.2144   -5.5767   -1.6100 H   0  0  0  0  0  0  0  0  0  0  0  0
   -0.0008   -6.6691   -0.9550 H   0  0  0  0  0  0  0  0  0  0  0  0
  1  7  1  0  0  0  0
  1 18  1  0  0  0  0
  2 15  1  0  0  0  0
  2 19  1  0  0  0  0
  3 17  1  0  0  0  0
  3 20  1  0  0  0  0
  4  5  1  0  0  0  0
  4  6  1  0  0  0  0
  4 21  1  0  0  0  0
  5  8  1  0  0  0  0
  5  9  1  0  0  0  0
  5 10  1  0  0  0  0
  6  7  1  0  0  0  0
  6 22  1  0  0  0  0
  6 23  1  0  0  0  0
  7 11  1  0  0  0  0
  7 24  1  0  0  0  0
  8 25  1  0  0  0  0
  8 26  1  0  0  0  0
  8 27  1  0  0  0  0
  9 28  1  0  0  0  0
  9 29  1  0  0  0  0
  9 30  1  0  0  0  0
 10 31  1  0  0  0  0
 10 32  1  0  0  0  0
 10 33  1  0  0  0  0
 11 12  2  0  0  0  0
 11 13  1  0  0  0  0
 12 14  1  0  0  0  0
 12 34  1  0  0  0  0
 13 16  2  0  0  0  0
 13 35  1  0  0  0  0
 14 15  2  0  0  0  0
 14 17  1  0  0  0  0
 15 16  1  0  0  0  0
 16 36  1  0  0  0  0
 17 37  1  0  0  0  0
 17 38  1  0  0  0  0
M  END
>  <DRUGBANK_ID>
DB01001

>  <SECONDARY_ACCESSION_NUMBERS>
APRD00553

>  <COMMON_NAME>
Salbutamol

>  <CAS_NUMBER>
18559-94-9

>  <UNII>
QF8SVZ843E

>  <SYNONYMS>
Albuterol; Salbutamol; Salbutamolum

$$$$
