388
 OpenBabel10282417163D

 36 37  0  0  0  0  0  0  0  0999 V2000
    1.1506   -0.2199   -0.0189 C   0  0  0  0  0  0  0  0  0  0  0  0
    0.6921    0.7679    0.9126 N   0  0  0  0  0  0  0  0  0  0  0  0
   -0.3582    1.6004    0.6278 C   0  0  0  0  0  0  0  0  0  0  0  0
   -1.2301    1.8141    1.4304 O   0  0  0  0  0  0  0  0  0  0  0  0
    0.5575   -1.5903    0.1998 C   0  0  0  0  0  0  0  0  0  0  0  0
   -0.7608   -1.8593    0.6111 C   0  0  0  0  0  0  0  0  0  0  0  0
   -1.6238   -0.8698    0.8725 F   0  0  0  0  0  0  0  0  0  0  0  0
   -1.2343   -3.1620    0.7512 C   0  0  0  0  0  0  0  0  0  0  0  0
   -0.3812   -4.2212    0.4714 C   0  0  0  0  0  0  0  0  0  0  0  0
   -0.9827   -5.9982    0.6810 Br  0  0  0  0  0  0  0  0  0  0  0  0
    0.9210   -3.9843    0.0361 C   0  0  0  0  0  0  0  0  0  0  0  0
    1.3793   -2.6779   -0.1117 C   0  0  0  0  0  0  0  0  0  0  0  0
   -0.5828    2.1635   -0.6870 C   0  0  0  0  0  0  0  0  0  0  0  0
   -1.1222    1.2309   -1.5881 C   0  0  0  0  0  0  0  0  0  0  0  0
   -1.5426    1.6109   -2.8402 C   0  0  0  0  0  0  0  0  0  0  0  0
   -1.4891    2.9575   -3.1631 C   0  0  0  0  0  0  0  0  0  0  0  0
   -1.9827    3.4146   -4.7466 Cl  0  0  0  0  0  0  0  0  0  0  0  0
   -1.0638    3.9205   -2.2199 C   0  0  0  0  0  0  0  0  0  0  0  0
   -0.6257    3.5392   -0.9313 C   0  0  0  0  0  0  0  0  0  0  0  0
   -0.3671    4.5687   -0.0511 O   0  0  0  0  0  0  0  0  0  0  0  0
   -0.0025    4.3572    1.3292 C   0  0  0  0  0  0  0  0  0  0  0  0
   -1.0483    3.9710    2.4297 C   0  0  0  0  0  0  0  0  0  0  0  0
   -0.8475    3.2808    3.4247 O   0  0  0  0  0  0  0  0  0  0  0  0
   -2.2922    4.4328    2.1687 O   0  0  0  0  0  0  0  0  0  0  0  0
    0.9475    0.0793   -1.0463 H   0  0  0  0  0  0  0  0  0  0  0  0
    2.2385   -0.2381    0.0831 H   0  0  0  0  0  0  0  0  0  0  0  0
    0.6667    0.4888    1.8897 H   0  0  0  0  0  0  0  0  0  0  0  0
   -2.2573   -3.3264    1.0794 H   0  0  0  0  0  0  0  0  0  0  0  0
    1.5951   -4.8053   -0.1882 H   0  0  0  0  0  0  0  0  0  0  0  0
    2.3919   -2.5013   -0.4686 H   0  0  0  0  0  0  0  0  0  0  0  0
   -1.2638    0.1995   -1.2776 H   0  0  0  0  0  0  0  0  0  0  0  0
   -1.9195    0.8519   -3.5192 H   0  0  0  0  0  0  0  0  0  0  0  0
   -1.1141    4.9724   -2.4960 H   0  0  0  0  0  0  0  0  0  0  0  0
    0.8656    3.6856    1.3703 H   0  0  0  0  0  0  0  0  0  0  0  0
    0.3978    5.3133    1.6910 H   0  0  0  0  0  0  0  0  0  0  0  0
   -2.8671    3.8107    2.6673 H   0  0  0  0  0  0  0  0  0  0  0  0
  1  5  1  0  0  0  0
  1  2  1  0  0  0  0
  1 25  1  0  0  0  0
  1 26  1  0  0  0  0
  2  3  1  0  0  0  0
  2 27  1  0  0  0  0
  3  4  2  0  0  0  0
  3 13  1  0  0  0  0
  5  6  2  0  0  0  0
  5 12  1  0  0  0  0
  6  8  1  0  0  0  0
  6  7  1  0  0  0  0
  8  9  2  0  0  0  0
  8 28  1  0  0  0  0
  9 10  1  0  0  0  0
  9 11  1  0  0  0  0
 11 12  2  0  0  0  0
 11 29  1  0  0  0  0
 12 30  1  0  0  0  0
 13 14  2  0  0  0  0
 13 19  1  0  0  0  0
 14 15  1  0  0  0  0
 14 31  1  0  0  0  0
 15 16  2  0  0  0  0
 15 32  1  0  0  0  0
 16 18  1  0  0  0  0
 16 17  1  0  0  0  0
 18 19  2  0  0  0  0
 18 33  1  0  0  0  0
 19 20  1  0  0  0  0
 20 21  1  0  0  0  0
 21 22  1  0  0  0  0
 21 34  1  0  0  0  0
 21 35  1  0  0  0  0
 22 23  2  0  0  0  0
 22 24  1  0  0  0  0
 24 36  1  0  0  0  0
M  END
>  <DRUGBANK_ID>
DB07028

>  <COMMON_NAME>
(2-{[(4-BROMO-2-FLUOROBENZYL)AMINO]CARBONYL}-5-CHLOROPHENOXY)ACETIC ACID

$$$$
