975
 OpenBabel10282417113D

 76 79  0  0  0  0  0  0  0  0999 V2000
    0.7242    0.0248    0.0625 O   0  0  0  0  0  0  0  0  0  0  0  0
    1.7012    1.4161   -2.1370 O   0  0  0  0  0  0  0  0  0  0  0  0
    9.0605   -9.3550   -4.4316 O   0  0  0  0  0  0  0  0  0  0  0  0
    9.2399   -5.8650   -1.3116 O   0  0  0  0  0  0  0  0  0  0  0  0
    3.2283   -5.2154   -4.8529 N   0  0  0  0  0  0  0  0  0  0  0  0
    6.4145   -4.0189    0.2020 N   0  0  0  0  0  0  0  0  0  0  0  0
    2.9114   -3.3934   -3.3700 N   0  0  0  0  0  0  0  0  0  0  0  0
    6.6591   -5.8254   -1.2734 N   0  0  0  0  0  0  0  0  0  0  0  0
    4.2579   -3.0722   -1.4698 N   0  0  0  0  0  0  0  0  0  0  0  0
    5.3239   -6.1743   -3.1485 N   0  0  0  0  0  0  0  0  0  0  0  0
    2.5744   -1.5338   -1.9369 N   0  0  0  0  0  0  0  0  0  0  0  0
    7.1405   -7.6178   -2.7138 N   0  0  0  0  0  0  0  0  0  0  0  0
    2.7274   -6.5887   -4.8611 C   0  0  0  0  0  0  0  0  0  0  0  0
    3.2635   -4.5657   -6.1597 C   0  0  0  0  0  0  0  0  0  0  0  0
    7.7871   -3.5343    0.3745 C   0  0  0  0  0  0  0  0  0  0  0  0
    5.5296   -3.7280    1.3269 C   0  0  0  0  0  0  0  0  0  0  0  0
    3.5737   -7.4511   -5.8011 C   0  0  0  0  0  0  0  0  0  0  0  0
    4.1728   -5.3824   -7.1010 C   0  0  0  0  0  0  0  0  0  0  0  0
    8.4253   -4.1540    1.6245 C   0  0  0  0  0  0  0  0  0  0  0  0
    6.1087   -4.3686    2.6034 C   0  0  0  0  0  0  0  0  0  0  0  0
    3.7453   -6.8511   -7.1919 C   0  0  0  0  0  0  0  0  0  0  0  0
    7.5568   -3.9448    2.8676 C   0  0  0  0  0  0  0  0  0  0  0  0
    3.5878   -4.5435   -3.6752 C   0  0  0  0  0  0  0  0  0  0  0  0
    5.9793   -4.6925   -0.9421 C   0  0  0  0  0  0  0  0  0  0  0  0
    4.9173   -4.2331   -1.7412 C   0  0  0  0  0  0  0  0  0  0  0  0
    4.6271   -5.0334   -2.8505 C   0  0  0  0  0  0  0  0  0  0  0  0
    3.2616   -2.6956   -2.2725 C   0  0  0  0  0  0  0  0  0  0  0  0
    6.3262   -6.5461   -2.3595 C   0  0  0  0  0  0  0  0  0  0  0  0
    1.1187   -1.6269   -1.7971 C   0  0  0  0  0  0  0  0  0  0  0  0
    3.3565   -0.3634   -1.5267 C   0  0  0  0  0  0  0  0  0  0  0  0
    6.8205   -8.4910   -3.8526 C   0  0  0  0  0  0  0  0  0  0  0  0
    8.1577   -8.0722   -1.7606 C   0  0  0  0  0  0  0  0  0  0  0  0
    0.5506   -1.3100   -0.3928 C   0  0  0  0  0  0  0  0  0  0  0  0
    3.0136    0.9085   -2.3328 C   0  0  0  0  0  0  0  0  0  0  0  0
    7.9523   -8.5865   -4.8935 C   0  0  0  0  0  0  0  0  0  0  0  0
    9.4144   -7.1760   -1.8184 C   0  0  0  0  0  0  0  0  0  0  0  0
    1.6378    0.1305    0.3682 H   0  0  0  0  0  0  0  0  0  0  0  0
    1.0828    0.8289   -2.5989 H   0  0  0  0  0  0  0  0  0  0  0  0
    9.5698   -8.7840   -3.8377 H   0  0  0  0  0  0  0  0  0  0  0  0
    8.3170   -5.6161   -1.5320 H   0  0  0  0  0  0  0  0  0  0  0  0
    1.6988   -6.5855   -5.2465 H   0  0  0  0  0  0  0  0  0  0  0  0
    2.6884   -7.0322   -3.8613 H   0  0  0  0  0  0  0  0  0  0  0  0
    3.6199   -3.5325   -6.1101 H   0  0  0  0  0  0  0  0  0  0  0  0
    2.2519   -4.5486   -6.5862 H   0  0  0  0  0  0  0  0  0  0  0  0
    7.7483   -2.4455    0.5271 H   0  0  0  0  0  0  0  0  0  0  0  0
    8.4143   -3.6816   -0.5066 H   0  0  0  0  0  0  0  0  0  0  0  0
    4.5095   -4.0891    1.1684 H   0  0  0  0  0  0  0  0  0  0  0  0
    5.4778   -2.6407    1.4733 H   0  0  0  0  0  0  0  0  0  0  0  0
    3.1730   -8.4687   -5.8698 H   0  0  0  0  0  0  0  0  0  0  0  0
    4.5682   -7.5299   -5.3867 H   0  0  0  0  0  0  0  0  0  0  0  0
    5.2072   -5.3402   -6.7351 H   0  0  0  0  0  0  0  0  0  0  0  0
    4.1713   -4.9489   -8.1075 H   0  0  0  0  0  0  0  0  0  0  0  0
    9.4149   -3.7138    1.8020 H   0  0  0  0  0  0  0  0  0  0  0  0
    8.5743   -5.2286    1.4708 H   0  0  0  0  0  0  0  0  0  0  0  0
    6.0795   -5.4610    2.5084 H   0  0  0  0  0  0  0  0  0  0  0  0
    5.4929   -4.1035    3.4708 H   0  0  0  0  0  0  0  0  0  0  0  0
    4.5052   -7.4232   -7.7430 H   0  0  0  0  0  0  0  0  0  0  0  0
    2.8114   -6.9453   -7.7564 H   0  0  0  0  0  0  0  0  0  0  0  0
    7.9682   -4.5194    3.7083 H   0  0  0  0  0  0  0  0  0  0  0  0
    7.5869   -2.8905    3.1721 H   0  0  0  0  0  0  0  0  0  0  0  0
    0.7727   -2.6386   -2.0427 H   0  0  0  0  0  0  0  0  0  0  0  0
    0.6469   -0.9836   -2.5424 H   0  0  0  0  0  0  0  0  0  0  0  0
    3.2630   -0.1827   -0.4532 H   0  0  0  0  0  0  0  0  0  0  0  0
    4.4299   -0.5354   -1.6822 H   0  0  0  0  0  0  0  0  0  0  0  0
    6.5561   -9.4959   -3.4997 H   0  0  0  0  0  0  0  0  0  0  0  0
    5.9586   -8.1233   -4.3862 H   0  0  0  0  0  0  0  0  0  0  0  0
    7.7471   -8.1546   -0.7480 H   0  0  0  0  0  0  0  0  0  0  0  0
    8.4693   -9.0925   -2.0223 H   0  0  0  0  0  0  0  0  0  0  0  0
    0.9418   -1.9938    0.3652 H   0  0  0  0  0  0  0  0  0  0  0  0
   -0.5359   -1.4431   -0.4317 H   0  0  0  0  0  0  0  0  0  0  0  0
    3.6802    1.7169   -2.0182 H   0  0  0  0  0  0  0  0  0  0  0  0
    3.1645    0.7414   -3.4028 H   0  0  0  0  0  0  0  0  0  0  0  0
    7.5857   -9.1038   -5.7868 H   0  0  0  0  0  0  0  0  0  0  0  0
    8.3034   -7.5962   -5.2013 H   0  0  0  0  0  0  0  0  0  0  0  0
   10.2161   -7.6317   -1.2353 H   0  0  0  0  0  0  0  0  0  0  0  0
    9.7580   -7.0538   -2.8481 H   0  0  0  0  0  0  0  0  0  0  0  0
  1 33  1  0  0  0  0
  1 37  1  0  0  0  0
  2 34  1  0  0  0  0
  2 38  1  0  0  0  0
  3 35  1  0  0  0  0
  3 39  1  0  0  0  0
  4 36  1  0  0  0  0
  4 40  1  0  0  0  0
  5 13  1  0  0  0  0
  5 14  1  0  0  0  0
  5 23  1  0  0  0  0
  6 15  1  0  0  0  0
  6 16  1  0  0  0  0
  6 24  1  0  0  0  0
  7 23  2  0  0  0  0
  7 27  1  0  0  0  0
  8 24  2  0  0  0  0
  8 28  1  0  0  0  0
  9 25  1  0  0  0  0
  9 27  2  0  0  0  0
 10 26  1  0  0  0  0
 10 28  2  0  0  0  0
 11 27  1  0  0  0  0
 11 29  1  0  0  0  0
 11 30  1  0  0  0  0
 12 28  1  0  0  0  0
 12 31  1  0  0  0  0
 12 32  1  0  0  0  0
 13 17  1  0  0  0  0
 13 41  1  0  0  0  0
 13 42  1  0  0  0  0
 14 18  1  0  0  0  0
 14 43  1  0  0  0  0
 14 44  1  0  0  0  0
 15 19  1  0  0  0  0
 15 45  1  0  0  0  0
 15 46  1  0  0  0  0
 16 20  1  0  0  0  0
 16 47  1  0  0  0  0
 16 48  1  0  0  0  0
 17 21  1  0  0  0  0
 17 49  1  0  0  0  0
 17 50  1  0  0  0  0
 18 21  1  0  0  0  0
 18 51  1  0  0  0  0
 18 52  1  0  0  0  0
 19 22  1  0  0  0  0
 19 53  1  0  0  0  0
 19 54  1  0  0  0  0
 20 22  1  0  0  0  0
 20 55  1  0  0  0  0
 20 56  1  0  0  0  0
 21 57  1  0  0  0  0
 21 58  1  0  0  0  0
 22 59  1  0  0  0  0
 22 60  1  0  0  0  0
 23 26  1  0  0  0  0
 24 25  1  0  0  0  0
 25 26  2  0  0  0  0
 29 33  1  0  0  0  0
 29 61  1  0  0  0  0
 29 62  1  0  0  0  0
 30 34  1  0  0  0  0
 30 63  1  0  0  0  0
 30 64  1  0  0  0  0
 31 35  1  0  0  0  0
 31 65  1  0  0  0  0
 31 66  1  0  0  0  0
 32 36  1  0  0  0  0
 32 67  1  0  0  0  0
 32 68  1  0  0  0  0
 33 69  1  0  0  0  0
 33 70  1  0  0  0  0
 34 71  1  0  0  0  0
 34 72  1  0  0  0  0
 35 73  1  0  0  0  0
 35 74  1  0  0  0  0
 36 75  1  0  0  0  0
 36 76  1  0  0  0  0
M  END
>  <DRUGBANK_ID>
DB00975

>  <SECONDARY_ACCESSION_NUMBERS>
APRD00360

>  <COMMON_NAME>
Dipyridamole

>  <CAS_NUMBER>
58-32-2

>  <UNII>
64ALC7F90C

>  <SYNONYMS>
Dipiridamol; Dipyridamine; Dipyridamole; Dipyridamolum; Dipyudamine; Dypyridamol

$$$$
