
 OpenBabel10282417173D

 43 44  0  0  0  0  0  0  0  0999 V2000
    1.0201   -0.1593    0.1395 C   0  0  0  0  0  0  0  0  0  0  0  0
    1.6459    4.9126   -0.9894 C   0  0  0  0  0  0  0  0  0  0  0  0
    0.2681    2.2044   -1.0037 C   0  0  0  0  0  0  0  0  0  0  0  0
    0.6875    5.0272   -2.6892 C   0  0  0  0  0  0  0  0  0  0  0  0
    1.7835    3.7070   -2.9081 C   0  0  0  0  0  0  0  0  0  0  0  0
    0.1091    5.2192   -0.9169 C   0  0  0  0  0  0  0  0  0  0  0  0
    2.2936    2.6622   -1.6485 C   0  0  0  0  0  0  0  0  0  0  0  0
    1.4506    4.1250    0.3028 C   0  0  0  0  0  0  0  0  0  0  0  0
   -1.8669    0.1205    0.5155 C   0  0  0  0  0  0  0  0  0  0  0  0
   -1.9907    2.4624    0.6619 C   0  0  0  0  0  0  0  0  0  0  0  0
   -3.2327    0.1695    0.2016 C   0  0  0  0  0  0  0  0  0  0  0  0
   -3.2691    2.5579    0.1786 C   0  0  0  0  0  0  0  0  0  0  0  0
    0.4284    3.7494    1.8607 C   0  0  0  0  0  0  0  0  0  0  0  0
    0.2857    2.5788    2.7063 C   0  0  0  0  0  0  0  0  0  0  0  0
    1.9883    2.6794    0.1495 C   0  0  0  0  0  0  0  0  0  0  0  0
   -1.1733    1.2993    0.7717 C   0  0  0  0  0  0  0  0  0  0  0  0
   -3.9226    1.3768    0.0604 C   0  0  0  0  0  0  0  0  0  0  0  0
    0.7011    1.3446    0.9406 C   0  0  3  0  0  0  0  0  0  0  0  0
   -5.6131    1.4061   -0.1378 Cl  0  0  0  0  0  0  0  0  0  0  0  0
   -0.0149    3.7138   -0.1163 N   0  0  0  0  0  0  0  0  0  0  0  0
    0.9482    1.4059    2.2974 O   0  0  0  0  0  0  0  0  0  0  0  0
    0.6071   -0.2455   -0.9435 H   0  0  0  0  0  0  0  0  0  0  0  0
    0.6139   -1.0182    0.6400 H   0  0  0  0  0  0  0  0  0  0  0  0
    2.0925   -0.1166    0.0110 H   0  0  0  0  0  0  0  0  0  0  0  0
    2.7414    4.8486   -0.7638 H   0  0  0  0  0  0  0  0  0  0  0  0
    0.8821    3.8787   -1.4409 H   0  0  0  0  0  0  0  0  0  0  0  0
    1.4634    5.9467    0.0176 H   0  0  0  0  0  0  0  0  0  0  0  0
    1.4287    1.3996   -0.8456 H   0  0  0  0  0  0  0  0  0  0  0  0
   -0.0161    1.2752   -0.7175 H   0  0  0  0  0  0  0  0  0  0  0  0
   -0.1900    2.3305   -1.9374 H   0  0  0  0  0  0  0  0  0  0  0  0
    1.4825    5.8507   -2.9582 H   0  0  0  0  0  0  0  0  0  0  0  0
    1.7293    3.1918   -3.8490 H   0  0  0  0  0  0  0  0  0  0  0  0
   -0.0114    6.3016   -0.7253 H   0  0  0  0  0  0  0  0  0  0  0  0
    1.8976    1.6139   -2.2425 H   0  0  0  0  0  0  0  0  0  0  0  0
    1.2545    4.8397    0.9573 H   0  0  0  0  0  0  0  0  0  0  0  0
   -1.3964   -0.8364    0.6451 H   0  0  0  0  0  0  0  0  0  0  0  0
   -1.6679    3.4264    0.9950 H   0  0  0  0  0  0  0  0  0  0  0  0
   -3.7581   -0.7640    0.0860 H   0  0  0  0  0  0  0  0  0  0  0  0
   -3.6862    3.5478    0.0255 H   0  0  0  0  0  0  0  0  0  0  0  0
    0.2994    4.8389    2.2357 H   0  0  0  0  0  0  0  0  0  0  0  0
    1.7998    3.8471    2.0541 H   0  0  0  0  0  0  0  0  0  0  0  0
   -0.7747    2.5919    2.6260 H   0  0  0  0  0  0  0  0  0  0  0  0
    0.7503    2.8305    3.6343 H   0  0  0  0  0  0  0  0  0  0  0  0
  1 22  1  0  0  0  0
  1 23  1  0  0  0  0
  1 24  1  0  0  0  0
  2 25  1  0  0  0  0
  2 26  1  0  0  0  0
  2 27  1  0  0  0  0
  3 28  1  0  0  0  0
  3 29  1  0  0  0  0
  3 30  1  0  0  0  0
  4 31  1  0  0  0  0
  5  4  2  0  0  0  0
  5 32  1  0  0  0  0
  6  4  1  0  0  0  0
  6 33  1  0  0  0  0
  7  5  1  0  0  0  0
  7 34  1  0  0  0  0
  8  6  2  0  0  0  0
  8 35  1  0  0  0  0
  9 36  1  0  0  0  0
 10 37  1  0  0  0  0
 11  9  1  0  0  0  0
 11 38  1  0  0  0  0
 12 10  2  0  0  0  0
 12 39  1  0  0  0  0
 13 40  1  0  0  0  0
 13 41  1  0  0  0  0
 14 13  1  0  0  0  0
 14 42  1  0  0  0  0
 14 43  1  0  0  0  0
 15  7  2  0  0  0  0
 15  8  1  0  0  0  0
 16  9  2  0  0  0  0
 16 10  1  0  0  0  0
 17 11  2  0  0  0  0
 17 12  1  0  0  0  0
 18  1  1  0  0  0  0
 18 15  1  0  0  0  0
 18 16  1  0  0  0  0
 19 17  1  0  0  0  0
 20  2  1  0  0  0  0
 20  3  1  0  0  0  0
 20 13  1  0  0  0  0
 21 14  1  0  0  0  0
 21 18  1  0  0  0  0
M  END
>  <DRUGBANK_ID>
DB09007

>  <COMMON_NAME>
Chlorphenoxamine

>  <CAS_NUMBER>
77-38-3

>  <UNII>
3UVD77BP8R

>  <SYNONYMS>
Chlorphenoxamine

$$$$
