
 OpenBabel10282417143D

153154  0  0  1  0  0  0  0  0999 V2000
  -15.9373    9.0946   24.3725 C   0  0  0  0  0  0  0  0  0  0  0  0
  -16.6129    9.4825   22.3174 O   0  0  0  0  0  0  0  0  0  0  0  0
  -17.3684    9.2380   20.1552 C   0  0  2  0  0  0  0  0  0  0  0  0
  -18.3316    9.8329   17.7046 C   0  0  0  0  0  0  0  0  0  0  0  0
  -19.3757   10.1393   15.3445 C   0  0  0  0  0  0  0  0  0  0  0  0
  -20.0707   11.8109   13.8953 C   0  0  0  0  0  0  0  0  0  0  0  0
  -19.9602    9.3762   13.5076 C   0  0  0  0  0  0  0  0  0  0  0  0
  -20.7740    9.4337   11.3711 C   0  0  0  0  0  0  0  0  0  0  0  0
  -21.4268    9.0591    9.8490 C   0  0  0  0  0  0  0  0  0  0  0  0
  -22.2200    8.8841    8.3564 C   0  0  0  0  0  0  0  0  0  0  0  0
  -22.0091    9.8016    7.6014 O   0  0  0  0  0  0  0  0  0  0  0  0
  -22.7255    7.7179    7.7098 O   0  0  0  0  0  0  0  0  0  0  0  0
  -22.1458    6.4304    7.9022 C   0  0  1  0  0  0  0  0  0  0  0  0
  -22.4929    6.2125    9.4699 C   0  0  1  0  0  0  0  0  0  0  0  0
  -22.5842    4.4969   10.5500 C   0  0  0  0  0  0  0  0  0  0  0  0
  -22.3064    7.0711   10.6153 C   0  0  0  0  0  0  0  0  0  0  0  0
  -21.3597    6.8840   11.5622 C   0  0  0  0  0  0  0  0  0  0  0  0
  -20.9596    7.7295   12.7149 C   0  0  1  0  0  0  0  0  0  0  0  0
  -19.0141    7.9934   12.3918 C   0  0  0  0  0  0  0  0  0  0  0  0
  -18.6196    6.7115   12.9065 C   0  0  2  0  0  0  0  0  0  0  0  0
  -18.3730    6.9791   11.5679 O   0  0  0  0  0  0  0  0  0  0  0  0
  -19.3244    6.3819   14.2409 C   0  0  1  0  0  0  0  0  0  0  0  0
  -19.3798    5.0021   14.8605 C   0  0  0  0  0  0  0  0  0  0  0  0
  -19.0187    7.3067   15.3406 C   0  0  0  0  0  0  0  0  0  0  0  0
  -18.4016    6.9416   16.5092 C   0  0  0  0  0  0  0  0  0  0  0  0
  -17.8199    7.9002   17.4837 C   0  0  2  0  0  0  0  0  0  0  0  0
  -16.2628    8.4250   17.6252 C   0  0  0  0  0  0  0  0  0  0  0  0
  -15.5460    7.2221   17.7313 C   0  0  2  0  0  0  0  0  0  0  0  0
  -15.4594    7.2530   16.3036 O   0  0  0  0  0  0  0  0  0  0  0  0
  -16.1199    8.3253   15.6302 C   0  0  0  0  0  0  0  0  0  0  0  0
  -16.0400    6.7221   19.0111 C   0  0  1  0  0  0  0  0  0  0  0  0
  -16.0447    5.3620   19.6586 C   0  0  0  0  0  0  0  0  0  0  0  0
  -15.4952    7.7031   19.9966 C   0  0  2  0  0  0  0  0  0  0  0  0
  -14.1482    7.8782   19.9383 O   0  0  0  0  0  0  0  0  0  0  0  0
  -13.5232    7.8220   21.0960 C   0  0  0  0  0  0  0  0  0  0  0  0
  -12.6970    8.6755   21.3182 O   0  0  0  0  0  0  0  0  0  0  0  0
  -14.0149    7.1097   22.2138 C   0  0  0  0  0  0  0  0  0  0  0  0
  -15.3294    7.0705   22.2270 C   0  0  0  0  0  0  0  0  0  0  0  0
  -16.8487    8.0363   22.0946 C   0  0  0  0  0  0  0  0  0  0  0  0
  -16.1593    7.0326   21.0921 C   0  0  2  0  0  0  0  0  0  0  0  0
  -17.3410    6.2538   21.5748 O   0  0  0  0  0  0  0  0  0  0  0  0
  -18.4009    8.0300   18.7588 O   0  0  0  0  0  0  0  0  0  0  0  0
  -18.5356    9.4269   19.2199 C   0  0  0  0  0  0  0  0  0  0  0  0
  -22.0329    9.3621   13.0014 O   0  0  0  0  0  0  0  0  0  0  0  0
  -21.0813   10.6895   12.4792 C   0  0  0  0  0  0  0  0  0  0  0  0
  -21.2177    5.2743    7.3335 C   0  0  1  0  0  0  0  0  0  0  0  0
  -21.7099    4.7494    6.1581 C   0  0  0  0  0  0  0  0  0  0  0  0
  -19.4356    5.6434    7.2465 C   0  0  1  0  0  0  0  0  0  0  0  0
  -18.7640    6.4839    8.6871 O   0  0  0  0  0  0  0  0  0  0  0  0
  -19.6228    7.4253    9.2973 C   0  0  0  0  0  0  0  0  0  0  0  0
  -18.6306    4.4217    6.9850 C   0  0  1  0  0  0  0  0  0  0  0  0
  -19.1106    3.6816    5.8682 C   0  0  0  0  0  0  0  0  0  0  0  0
  -17.2560    4.5388    7.3932 C   0  0  0  0  0  0  0  0  0  0  0  0
  -16.9442    4.9350    8.8117 C   0  0  0  0  0  0  0  0  0  0  0  0
  -17.2712    3.9062    9.8751 C   0  0  0  0  0  0  0  0  0  0  0  0
  -16.3486    3.4899   10.5778 O   0  0  0  0  0  0  0  0  0  0  0  0
  -18.6655    3.3582   10.1900 C   0  0  2  0  0  0  0  0  0  0  0  0
  -18.6553    2.0179   10.7485 C   0  0  0  0  0  0  0  0  0  0  0  0
  -19.4948    3.0351    9.0573 C   0  0  1  0  0  0  0  0  0  0  0  0
  -20.8140    2.5210    8.8319 C   0  0  0  0  0  0  0  0  0  0  0  0
  -21.7574    3.1304    9.6121 C   0  0  0  0  0  0  0  0  0  0  0  0
  -22.9526    4.1460    8.8755 C   0  0  0  0  0  0  0  0  0  0  0  0
  -24.0346    5.2300   10.1472 N   0  0  0  0  0  0  0  0  0  0  0  0
  -25.0180    6.0813    9.7352 C   0  0  0  0  0  0  0  0  0  0  0  0
  -23.3071    5.5328   11.8900 C   0  0  0  0  0  0  0  0  0  0  0  0
  -22.2151    4.9854   12.4115 O   0  0  0  0  0  0  0  0  0  0  0  0
  -19.6119    4.3068    8.7875 O   0  0  0  0  0  0  0  0  0  0  0  0
  -20.1685    5.3132    9.3451 C   0  0  0  0  0  0  0  0  0  0  0  0
  -16.4500    9.0277   25.8876 H   0  0  0  0  0  0  0  0  0  0  0  0
  -14.9944    9.9210   25.0647 H   0  0  0  0  0  0  0  0  0  0  0  0
  -15.2216    9.2490   25.8942 H   0  0  0  0  0  0  0  0  0  0  0  0
  -16.4789    8.8568   21.3814 H   0  0  0  0  0  0  0  0  0  0  0  0
  -17.9722    9.9664   16.2813 H   0  0  0  0  0  0  0  0  0  0  0  0
  -18.6408   10.7462   16.6316 H   0  0  0  0  0  0  0  0  0  0  0  0
  -20.4032   13.0362   13.0093 H   0  0  0  0  0  0  0  0  0  0  0  0
  -20.2625   12.1425   12.2516 H   0  0  0  0  0  0  0  0  0  0  0  0
  -21.4479   12.1007   13.0016 H   0  0  0  0  0  0  0  0  0  0  0  0
  -20.8763    9.0836   12.1317 H   0  0  0  0  0  0  0  0  0  0  0  0
  -21.6239   10.4779   10.4640 H   0  0  0  0  0  0  0  0  0  0  0  0
  -21.0800    8.2077   10.0180 H   0  0  0  0  0  0  0  0  0  0  0  0
  -21.4961    6.9012    7.1784 H   0  0  0  0  0  0  0  0  0  0  0  0
  -23.3646    6.2115    8.8990 H   0  0  0  0  0  0  0  0  0  0  0  0
  -23.8692    3.7039    9.9660 H   0  0  0  0  0  0  0  0  0  0  0  0
  -21.6739    4.7307   10.2782 H   0  0  0  0  0  0  0  0  0  0  0  0
  -23.1561    3.9094   11.2328 H   0  0  0  0  0  0  0  0  0  0  0  0
  -22.8265    7.9730   10.4800 H   0  0  0  0  0  0  0  0  0  0  0  0
  -20.7931    5.9408   11.5833 H   0  0  0  0  0  0  0  0  0  0  0  0
  -21.3923    7.5805   13.6162 H   0  0  0  0  0  0  0  0  0  0  0  0
  -18.3724    8.4453   13.1222 H   0  0  0  0  0  0  0  0  0  0  0  0
  -18.1274    8.8959   11.9119 H   0  0  0  0  0  0  0  0  0  0  0  0
  -17.9811    5.9190   12.8082 H   0  0  0  0  0  0  0  0  0  0  0  0
  -18.5847    6.2773   11.0018 H   0  0  0  0  0  0  0  0  0  0  0  0
  -20.3469    6.3051   14.0162 H   0  0  0  0  0  0  0  0  0  0  0  0
  -20.0544    4.4096   14.2472 H   0  0  0  0  0  0  0  0  0  0  0  0
  -18.4056    4.5486   14.9037 H   0  0  0  0  0  0  0  0  0  0  0  0
  -19.8225    5.0069   15.8807 H   0  0  0  0  0  0  0  0  0  0  0  0
  -19.3165    8.3164   15.1755 H   0  0  0  0  0  0  0  0  0  0  0  0
  -17.7449    6.1114   16.4886 H   0  0  0  0  0  0  0  0  0  0  0  0
  -18.4111    8.5009   16.7792 H   0  0  0  0  0  0  0  0  0  0  0  0
  -15.3304    9.0243   17.7914 H   0  0  0  0  0  0  0  0  0  0  0  0
  -16.7135    9.3274   17.7973 H   0  0  0  0  0  0  0  0  0  0  0  0
  -14.7371    6.5298   17.7419 H   0  0  0  0  0  0  0  0  0  0  0  0
  -17.0958    8.0642   15.7726 H   0  0  0  0  0  0  0  0  0  0  0  0
  -15.3814    8.9239   15.2613 H   0  0  0  0  0  0  0  0  0  0  0  0
  -16.5319    8.4761   14.6798 H   0  0  0  0  0  0  0  0  0  0  0  0
  -17.0678    6.6016   18.7927 H   0  0  0  0  0  0  0  0  0  0  0  0
  -16.7737    4.7435   19.2262 H   0  0  0  0  0  0  0  0  0  0  0  0
  -15.0905    5.0190   19.9424 H   0  0  0  0  0  0  0  0  0  0  0  0
  -16.5478    5.2580   20.5760 H   0  0  0  0  0  0  0  0  0  0  0  0
  -15.5745    8.8027   20.0637 H   0  0  0  0  0  0  0  0  0  0  0  0
  -13.4535    6.8528   23.0999 H   0  0  0  0  0  0  0  0  0  0  0  0
  -16.4184    6.9147   23.2092 H   0  0  0  0  0  0  0  0  0  0  0  0
  -17.2580    7.0081   23.1902 H   0  0  0  0  0  0  0  0  0  0  0  0
  -16.9672    7.4856   20.5416 H   0  0  0  0  0  0  0  0  0  0  0  0
  -16.6528    5.7230   22.0297 H   0  0  0  0  0  0  0  0  0  0  0  0
  -16.8197    9.6430   19.0221 H   0  0  0  0  0  0  0  0  0  0  0  0
  -17.9985   10.5325   19.1840 H   0  0  0  0  0  0  0  0  0  0  0  0
  -18.8927    9.4220   20.3275 H   0  0  0  0  0  0  0  0  0  0  0  0
  -20.6017   10.6493   13.2801 H   0  0  0  0  0  0  0  0  0  0  0  0
  -19.7148   10.4756   11.7251 H   0  0  0  0  0  0  0  0  0  0  0  0
  -21.3095   11.1890   11.5896 H   0  0  0  0  0  0  0  0  0  0  0  0
  -21.2784    4.4051    7.9541 H   0  0  0  0  0  0  0  0  0  0  0  0
  -21.3354    5.4557    5.4904 H   0  0  0  0  0  0  0  0  0  0  0  0
  -21.3742    3.7828    6.0992 H   0  0  0  0  0  0  0  0  0  0  0  0
  -22.7136    4.4970    6.2709 H   0  0  0  0  0  0  0  0  0  0  0  0
  -19.3436    6.5035    6.7188 H   0  0  0  0  0  0  0  0  0  0  0  0
  -19.7232    8.0773    8.5208 H   0  0  0  0  0  0  0  0  0  0  0  0
  -20.7503    7.0879    9.3445 H   0  0  0  0  0  0  0  0  0  0  0  0
  -19.5957    7.5860   10.3387 H   0  0  0  0  0  0  0  0  0  0  0  0
  -18.7332    3.5907    7.5430 H   0  0  0  0  0  0  0  0  0  0  0  0
  -19.0569    4.4616    5.1741 H   0  0  0  0  0  0  0  0  0  0  0  0
  -18.6414    2.7438    5.7620 H   0  0  0  0  0  0  0  0  0  0  0  0
  -20.0541    3.2479    5.9756 H   0  0  0  0  0  0  0  0  0  0  0  0
  -16.7888    3.5877    7.2007 H   0  0  0  0  0  0  0  0  0  0  0  0
  -17.0641    5.3011    6.6837 H   0  0  0  0  0  0  0  0  0  0  0  0
  -15.8999    5.2029    8.8420 H   0  0  0  0  0  0  0  0  0  0  0  0
  -17.2895    5.8821    9.1110 H   0  0  0  0  0  0  0  0  0  0  0  0
  -19.1872    4.0670   10.8207 H   0  0  0  0  0  0  0  0  0  0  0  0
  -17.6948    1.8227   11.1554 H   0  0  0  0  0  0  0  0  0  0  0  0
  -19.4368    1.9807   11.4916 H   0  0  0  0  0  0  0  0  0  0  0  0
  -18.8675    1.2686    9.9732 H   0  0  0  0  0  0  0  0  0  0  0  0
  -18.9457    2.3554    8.3173 H   0  0  0  0  0  0  0  0  0  0  0  0
  -21.3146    2.6656    7.8971 H   0  0  0  0  0  0  0  0  0  0  0  0
  -20.8256    1.6390    9.3423 H   0  0  0  0  0  0  0  0  0  0  0  0
  -21.0896    3.5668   10.8275 H   0  0  0  0  0  0  0  0  0  0  0  0
  -23.3018    4.1474    7.9176 H   0  0  0  0  0  0  0  0  0  0  0  0
  -25.6794    5.7210   10.4585 H   0  0  0  0  0  0  0  0  0  0  0  0
  -24.6379    7.1000    9.8347 H   0  0  0  0  0  0  0  0  0  0  0  0
  -25.0200    5.7030    8.7281 H   0  0  0  0  0  0  0  0  0  0  0  0
  -23.6986    6.3791   12.3530 H   0  0  0  0  0  0  0  0  0  0  0  0
  -21.1094    5.3110    9.2020 H   0  0  0  0  0  0  0  0  0  0  0  0
  -19.7647    5.5336   10.2407 H   0  0  0  0  0  0  0  0  0  0  0  0
  -20.3786    6.1795    8.4636 H   0  0  0  0  0  0  0  0  0  0  0  0
  1  2  1  0  0  0  0
  1 69  1  0  0  0  0
  1 70  1  0  0  0  0
  1 71  1  0  0  0  0
  3  4  1  0  0  0  0
  3 39  1  0  0  0  0
  3 72  1  6  0  0  0
  3  2  1  0  0  0  0
  4  5  1  0  0  0  0
  4 73  1  0  0  0  0
  4 74  1  0  0  0  0
  5  7  2  0  0  0  0
  5  6  1  0  0  0  0
  6 75  1  0  0  0  0
  6 76  1  0  0  0  0
  6 77  1  0  0  0  0
  7  8  1  0  0  0  0
  7 78  1  0  0  0  0
  8  9  2  0  0  0  0
  8 79  1  0  0  0  0
  9 10  1  0  0  0  0
  9 80  1  0  0  0  0
 10 12  1  0  0  0  0
 10 11  2  0  0  0  0
 12 13  1  0  0  0  0
 13 14  1  0  0  0  0
 13 46  1  0  0  0  0
 13 81  1  1  0  0  0
 14 16  1  0  0  0  0
 14 15  1  0  0  0  0
 14 82  1  6  0  0  0
 15 83  1  0  0  0  0
 15 84  1  0  0  0  0
 15 85  1  0  0  0  0
 16 17  2  0  0  0  0
 16 86  1  0  0  0  0
 17 18  1  0  0  0  0
 17 87  1  0  0  0  0
 18 19  1  0  0  0  0
 18 88  1  1  0  0  0
 18 44  1  0  0  0  0
 19 20  1  0  0  0  0
 19 89  1  0  0  0  0
 19 90  1  0  0  0  0
 20 22  1  0  0  0  0
 20 91  1  1  0  0  0
 20 21  1  0  0  0  0
 21 92  1  0  0  0  0
 22 24  1  0  0  0  0
 22 23  1  0  0  0  0
 22 93  1  6  0  0  0
 23 94  1  0  0  0  0
 23 95  1  0  0  0  0
 23 96  1  0  0  0  0
 24 25  2  0  0  0  0
 24 97  1  0  0  0  0
 25 26  1  0  0  0  0
 25 98  1  0  0  0  0
 26 27  1  0  0  0  0
 26 42  1  0  0  0  0
 26 99  1  6  0  0  0
 27 28  1  0  0  0  0
 27100  1  0  0  0  0
 27101  1  0  0  0  0
 28 31  1  0  0  0  0
 28102  1  1  0  0  0
 28 29  1  0  0  0  0
 29 30  1  0  0  0  0
 30103  1  0  0  0  0
 30104  1  0  0  0  0
 30105  1  0  0  0  0
 31 33  1  0  0  0  0
 31 32  1  0  0  0  0
 31106  1  6  0  0  0
 32107  1  0  0  0  0
 32108  1  0  0  0  0
 32109  1  0  0  0  0
 33 34  1  0  0  0  0
 33 40  1  0  0  0  0
 33110  1  6  0  0  0
 34 35  1  0  0  0  0
 35 37  1  0  0  0  0
 35 36  2  0  0  0  0
 37 38  2  0  0  0  0
 37111  1  0  0  0  0
 38 39  1  0  0  0  0
 38 40  1  0  0  0  0
 39112  1  0  0  0  0
 39113  1  0  0  0  0
 40 41  1  0  0  0  0
 40114  1  1  0  0  0
 41115  1  0  0  0  0
 42 43  1  0  0  0  0
 43116  1  0  0  0  0
 43117  1  0  0  0  0
 43118  1  0  0  0  0
 44 45  1  0  0  0  0
 45119  1  0  0  0  0
 45120  1  0  0  0  0
 45121  1  0  0  0  0
 46 47  1  0  0  0  0
 46 48  1  0  0  0  0
 46122  1  1  0  0  0
 47123  1  0  0  0  0
 47124  1  0  0  0  0
 47125  1  0  0  0  0
 48 49  1  0  0  0  0
 48 51  1  0  0  0  0
 48126  1  6  0  0  0
 49 50  1  0  0  0  0
 50127  1  0  0  0  0
 50128  1  0  0  0  0
 50129  1  0  0  0  0
 51 52  1  0  0  0  0
 51 53  1  0  0  0  0
 51130  1  1  0  0  0
 52131  1  0  0  0  0
 52132  1  0  0  0  0
 52133  1  0  0  0  0
 53 54  1  0  0  0  0
 53134  1  0  0  0  0
 53135  1  0  0  0  0
 54 55  1  0  0  0  0
 54136  1  0  0  0  0
 54137  1  0  0  0  0
 55 56  2  0  0  0  0
 57 59  1  0  0  0  0
 57138  1  1  0  0  0
 57 58  1  0  0  0  0
 57 55  1  0  0  0  0
 58139  1  0  0  0  0
 58140  1  0  0  0  0
 58141  1  0  0  0  0
 59 60  1  0  0  0  0
 59 67  1  0  0  0  0
 59142  1  6  0  0  0
 60 61  1  0  0  0  0
 60143  1  0  0  0  0
 60144  1  0  0  0  0
 61 62  2  0  0  0  0
 61145  1  0  0  0  0
 62 63  1  0  0  0  0
 62146  1  0  0  0  0
 63 64  1  0  0  0  0
 63 65  1  0  0  0  0
 64147  1  0  0  0  0
 64148  1  0  0  0  0
 64149  1  0  0  0  0
 65 66  2  0  0  0  0
 65150  1  0  0  0  0
 67 68  1  0  0  0  0
 68151  1  0  0  0  0
 68152  1  0  0  0  0
 68153  1  0  0  0  0
M  END
>  <DRUGBANK_ID>
DB04783

>  <COMMON_NAME>
Sphinxolide B

$$$$
