
 OpenBabel10282417113D

 47 50  0  0  0  0  0  0  0  0999 V2000
    0.0347   -2.5678   -3.1347 C   0  0  0  0  0  0  0  0  0  0  0  0
   -1.1677   -1.5167   -4.0077 C   0  0  0  0  0  0  0  0  0  0  0  0
   -0.1883   -3.0408   -1.4118 C   0  0  2  0  0  0  0  0  0  0  0  0
   -1.6900   -3.1431   -1.6659 C   0  0  1  0  0  0  0  0  0  0  0  0
   -2.7410   -2.2474   -2.3772 C   0  0  2  0  0  0  0  0  0  0  0  0
   -2.6631   -1.9171   -3.8646 C   0  0  2  0  0  0  0  0  0  0  0  0
   -4.0666   -2.9072   -1.9584 C   0  0  0  0  0  0  0  0  0  0  0  0
   -4.9931    0.2934   -4.5141 C   0  0  0  0  0  0  0  0  0  0  0  0
   -2.0359   -2.6723   -0.2865 C   0  0  0  0  0  0  0  0  0  0  0  0
   -5.1907   -2.1231   -2.4913 C   0  0  0  0  0  0  0  0  0  0  0  0
   -6.5245   -1.4849   -4.2733 C   0  0  0  0  0  0  0  0  0  0  0  0
   -6.4469   -0.0184   -4.0255 C   0  0  0  0  0  0  0  0  0  0  0  0
    0.0125   -4.2228    0.0890 C   0  0  0  0  0  0  0  0  0  0  0  0
   -2.2540   -3.6040    0.6402 C   0  0  0  0  0  0  0  0  0  0  0  0
   -7.5726   -2.1096   -4.4193 O   0  0  0  0  0  0  0  0  0  0  0  0
   -0.9000   -3.4784    1.0774 C   0  0  0  0  0  0  0  0  0  0  0  0
   -0.5547   -2.7320    2.0669 O   0  0  0  0  0  0  0  0  0  0  0  0
   -1.6843   -4.5801   -2.3501 C   0  0  0  0  0  0  0  0  0  0  0  0
   -2.6899   -1.2351   -1.9475 H   0  0  0  0  0  0  0  0  0  0  0  0
   -2.6877   -2.8583   -4.4321 H   0  0  0  0  0  0  0  0  0  0  0  0
   -4.0863   -1.1479   -4.5517 C   0  0  2  0  0  0  0  0  0  0  0  0
   -3.8647   -1.2030   -5.6318 H   0  0  0  0  0  0  0  0  0  0  0  0
   -5.1970   -2.1300   -4.0340 C   0  0  2  0  0  0  0  0  0  0  0  0
   -5.1455   -3.5484   -4.6166 C   0  0  0  0  0  0  0  0  0  0  0  0
    0.3359   -2.1951   -0.9625 H   0  0  0  0  0  0  0  0  0  0  0  0
    0.1769   -3.4165   -3.8240 H   0  0  0  0  0  0  0  0  0  0  0  0
    0.9487   -1.9699   -3.1765 H   0  0  0  0  0  0  0  0  0  0  0  0
   -0.9651   -1.5122   -5.0962 H   0  0  0  0  0  0  0  0  0  0  0  0
   -1.0448   -0.4760   -3.6878 H   0  0  0  0  0  0  0  0  0  0  0  0
   -4.1556   -3.9758   -2.1843 H   0  0  0  0  0  0  0  0  0  0  0  0
   -4.1648   -2.8650   -0.8750 H   0  0  0  0  0  0  0  0  0  0  0  0
   -5.2087    0.7058   -5.5306 H   0  0  0  0  0  0  0  0  0  0  0  0
   -4.5566    1.1495   -3.9894 H   0  0  0  0  0  0  0  0  0  0  0  0
   -1.5933   -1.6853   -0.0316 H   0  0  0  0  0  0  0  0  0  0  0  0
   -6.1323   -2.4995   -2.0836 H   0  0  0  0  0  0  0  0  0  0  0  0
   -5.0600   -1.1217   -2.0503 H   0  0  0  0  0  0  0  0  0  0  0  0
   -7.3087    0.4534   -4.5189 H   0  0  0  0  0  0  0  0  0  0  0  0
   -6.5266    0.1854   -2.9536 H   0  0  0  0  0  0  0  0  0  0  0  0
   -0.4870   -5.2169   -0.0312 H   0  0  0  0  0  0  0  0  0  0  0  0
    0.5049   -4.4676    1.1010 H   0  0  0  0  0  0  0  0  0  0  0  0
   -2.4527   -4.5966    0.2223 H   0  0  0  0  0  0  0  0  0  0  0  0
   -1.8444   -4.5164   -3.4379 H   0  0  0  0  0  0  0  0  0  0  0  0
   -0.6961   -5.0790   -2.3102 H   0  0  0  0  0  0  0  0  0  0  0  0
   -2.4081   -5.2656   -1.9293 H   0  0  0  0  0  0  0  0  0  0  0  0
   -6.0340   -4.1143   -4.3207 H   0  0  0  0  0  0  0  0  0  0  0  0
   -5.0923   -3.5438   -5.7087 H   0  0  0  0  0  0  0  0  0  0  0  0
   -4.2962   -4.1403   -4.2626 H   0  0  0  0  0  0  0  0  0  0  0  0
  1  3  1  0  0  0  0
  1 26  1  0  0  0  0
  1 27  1  0  0  0  0
  2  1  1  0  0  0  0
  2 28  1  0  0  0  0
  2 29  1  0  0  0  0
  3 13  1  0  0  0  0
  3 25  1  6  0  0  0
  4  3  1  0  0  0  0
  4  9  1  0  0  0  0
  4 18  1  1  0  0  0
  5  4  1  0  0  0  0
  5  7  1  0  0  0  0
  5  6  1  0  0  0  0
  5 19  1  6  0  0  0
  6  2  1  0  0  0  0
  6 21  1  0  0  0  0
  6 20  1  1  0  0  0
  7 10  1  0  0  0  0
  7 30  1  0  0  0  0
  7 31  1  0  0  0  0
  8 12  1  0  0  0  0
  8 32  1  0  0  0  0
  8 33  1  0  0  0  0
  9 14  2  0  0  0  0
  9 34  1  0  0  0  0
 10 35  1  0  0  0  0
 10 36  1  0  0  0  0
 11 12  1  0  0  0  0
 11 15  2  0  0  0  0
 12 37  1  0  0  0  0
 12 38  1  0  0  0  0
 13 16  1  0  0  0  0
 13 39  1  0  0  0  0
 13 40  1  0  0  0  0
 14 16  1  0  0  0  0
 14 41  1  0  0  0  0
 16 17  2  0  0  0  0
 18 42  1  0  0  0  0
 18 43  1  0  0  0  0
 18 44  1  0  0  0  0
 21  8  1  0  0  0  0
 21 23  1  0  0  0  0
 21 22  1  6  0  0  0
 23 10  1  0  0  0  0
 23 11  1  0  0  0  0
 23 24  1  1  0  0  0
 24 45  1  0  0  0  0
 24 46  1  0  0  0  0
 24 47  1  0  0  0  0
M  END
>  <DRUGBANK_ID>
DB01451

>  <COMMON_NAME>
1-Androstenedione

>  <CAS_NUMBER>
571-40-4

>  <UNII>
C1091EX356

>  <SYNONYMS>
5alpha-androst-1-ene-3,17-dione

$$$$
