NS7
 OpenBabel10282417173D

 57 60  0  0  0  0  0  0  0  0999 V2000
    1.2415   -0.1508    0.1841 C   0  0  0  0  0  0  0  0  0  0  0  0
    0.2993   -1.2673   -0.2055 C   0  0  0  0  0  0  0  0  0  0  0  0
   -1.1030   -0.7074    0.0168 C   0  0  0  0  0  0  0  0  0  0  0  0
   -0.9697    0.8099    0.0892 C   0  0  0  0  0  0  0  0  0  0  0  0
    0.4895    1.1068   -0.2620 C   0  0  0  0  0  0  0  0  0  0  0  0
    1.0237    2.4005    0.3497 C   0  0  1  0  0  0  0  0  0  0  0  0
    0.9455    2.3663    1.8766 C   0  0  0  0  0  0  0  0  0  0  0  0
    2.4335    2.5624   -0.0863 N   0  0  0  0  0  0  0  0  0  0  0  0
    3.1007    4.0631    0.2942 S   0  0  0  0  0  0  0  0  0  0  0  0
    4.5254    3.9402    0.1797 O   0  0  0  0  0  0  0  0  0  0  0  0
    2.3371    5.0607   -0.4359 O   0  0  0  0  0  0  0  0  0  0  0  0
    2.6762    4.2415    1.9858 C   0  0  0  0  0  0  0  0  0  0  0  0
    3.3626    5.2104    2.7063 C   0  0  0  0  0  0  0  0  0  0  0  0
    1.7041    3.4388    2.5795 C   0  0  0  0  0  0  0  0  0  0  0  0
    1.4907    3.5445    3.9444 C   0  0  0  0  0  0  0  0  0  0  0  0
    2.2495    4.4261    4.7144 C   0  0  0  0  0  0  0  0  0  0  0  0
    1.9626    4.3277    6.1786 C   0  0  0  0  0  0  0  0  0  0  0  0
    3.1085    5.3552    4.0691 C   0  0  0  0  0  0  0  0  0  0  0  0
    3.9925    6.6911    4.8961 S   0  0  0  0  0  0  0  0  0  0  0  0
    4.6485    6.0729    6.0295 O   0  0  0  0  0  0  0  0  0  0  0  0
    4.7805    7.3729    3.8884 O   0  0  0  0  0  0  0  0  0  0  0  0
    2.8458    7.8085    5.4665 N   0  0  0  0  0  0  0  0  0  0  0  0
    1.8745    7.3840    6.4886 C   0  0  0  0  0  0  0  0  0  0  0  0
    0.5894    6.8964    5.7848 C   0  0  0  0  0  0  0  0  0  0  0  0
   -0.0795    7.9587    5.0320 N   0  0  0  0  0  0  0  0  0  0  0  0
   -1.2934    7.4070    4.4237 C   0  0  0  0  0  0  0  0  0  0  0  0
    0.8803    8.4265    3.9967 C   0  0  0  0  0  0  0  0  0  0  0  0
    2.2330    8.8662    4.6110 C   0  0  0  0  0  0  0  0  0  0  0  0
    0.4341    3.2448   -0.0312 H   0  0  0  0  0  0  0  0  0  0  0  0
    1.4046   -0.2055    1.2633 H   0  0  0  0  0  0  0  0  0  0  0  0
    2.2230   -0.2365   -0.2926 H   0  0  0  0  0  0  0  0  0  0  0  0
    0.4463   -1.5158   -1.2606 H   0  0  0  0  0  0  0  0  0  0  0  0
    0.4803   -2.1666    0.3902 H   0  0  0  0  0  0  0  0  0  0  0  0
   -1.7761   -1.0082   -0.7902 H   0  0  0  0  0  0  0  0  0  0  0  0
   -1.5234   -1.0832    0.9569 H   0  0  0  0  0  0  0  0  0  0  0  0
   -1.6559    1.3248   -0.5914 H   0  0  0  0  0  0  0  0  0  0  0  0
   -1.2432    1.1312    1.0984 H   0  0  0  0  0  0  0  0  0  0  0  0
    0.5700    1.1839   -1.3557 H   0  0  0  0  0  0  0  0  0  0  0  0
   -0.1032    2.4261    2.1917 H   0  0  0  0  0  0  0  0  0  0  0  0
    1.3411    1.4308    2.2822 H   0  0  0  0  0  0  0  0  0  0  0  0
    2.5533    2.4331   -1.0924 H   0  0  0  0  0  0  0  0  0  0  0  0
    4.1063    5.8193    2.1933 H   0  0  0  0  0  0  0  0  0  0  0  0
    0.7315    2.9211    4.4230 H   0  0  0  0  0  0  0  0  0  0  0  0
    0.9099    4.5660    6.3710 H   0  0  0  0  0  0  0  0  0  0  0  0
    2.1263    3.3402    6.6017 H   0  0  0  0  0  0  0  0  0  0  0  0
    2.6231    4.9774    6.7186 H   0  0  0  0  0  0  0  0  0  0  0  0
    1.6220    8.2101    7.1568 H   0  0  0  0  0  0  0  0  0  0  0  0
    2.3528    6.6859    7.1704 H   0  0  0  0  0  0  0  0  0  0  0  0
   -0.0821    6.4306    6.5099 H   0  0  0  0  0  0  0  0  0  0  0  0
    0.7997    6.1621    5.0129 H   0  0  0  0  0  0  0  0  0  0  0  0
   -1.8727    8.2077    3.9609 H   0  0  0  0  0  0  0  0  0  0  0  0
   -1.0813    6.6362    3.6714 H   0  0  0  0  0  0  0  0  0  0  0  0
   -1.9316    6.9474    5.1903 H   0  0  0  0  0  0  0  0  0  0  0  0
    1.0766    7.6377    3.2580 H   0  0  0  0  0  0  0  0  0  0  0  0
    0.4281    9.2734    3.4725 H   0  0  0  0  0  0  0  0  0  0  0  0
    2.0321    9.7186    5.2784 H   0  0  0  0  0  0  0  0  0  0  0  0
    2.9228    9.2321    3.8488 H   0  0  0  0  0  0  0  0  0  0  0  0
  1  2  1  0  0  0  0
  1  5  1  0  0  0  0
  1 30  1  0  0  0  0
  1 31  1  0  0  0  0
  2  3  1  0  0  0  0
  2 32  1  0  0  0  0
  2 33  1  0  0  0  0
  3  4  1  0  0  0  0
  3 34  1  0  0  0  0
  3 35  1  0  0  0  0
  4 36  1  0  0  0  0
  4 37  1  0  0  0  0
  5  4  1  0  0  0  0
  5 38  1  0  0  0  0
  6  5  1  0  0  0  0
  6 29  1  6  0  0  0
  7  6  1  0  0  0  0
  7 39  1  0  0  0  0
  7 40  1  0  0  0  0
  8  6  1  0  0  0  0
  8 41  1  0  0  0  0
  9  8  1  0  0  0  0
  9 10  2  0  0  0  0
 11  9  2  0  0  0  0
 12  9  1  0  0  0  0
 12 14  1  0  0  0  0
 13 12  2  0  0  0  0
 13 42  1  0  0  0  0
 14  7  1  0  0  0  0
 15 14  2  0  0  0  0
 15 43  1  0  0  0  0
 16 15  1  0  0  0  0
 17 16  1  0  0  0  0
 17 44  1  0  0  0  0
 17 45  1  0  0  0  0
 17 46  1  0  0  0  0
 18 13  1  0  0  0  0
 18 16  2  0  0  0  0
 19 18  1  0  0  0  0
 19 22  1  0  0  0  0
 20 19  2  0  0  0  0
 21 19  2  0  0  0  0
 22 28  1  0  0  0  0
 23 22  1  0  0  0  0
 23 24  1  0  0  0  0
 23 47  1  0  0  0  0
 23 48  1  0  0  0  0
 24 25  1  0  0  0  0
 24 49  1  0  0  0  0
 24 50  1  0  0  0  0
 25 27  1  0  0  0  0
 26 25  1  0  0  0  0
 26 51  1  0  0  0  0
 26 52  1  0  0  0  0
 26 53  1  0  0  0  0
 27 54  1  0  0  0  0
 27 55  1  0  0  0  0
 28 27  1  0  0  0  0
 28 56  1  0  0  0  0
 28 57  1  0  0  0  0
M  END
>  <DRUGBANK_ID>
DB08305

>  <COMMON_NAME>
(3R)-3-cyclopentyl-6-methyl-7-[(4-methylpiperazin-1-yl)sulfonyl]-3,4-dihydro-2H-1,2-benzothiazine 1,1-dioxide

$$$$
