
 OpenBabel10282417153D

 62 64  0  0  0  0  0  0  0  0999 V2000
   -6.3168   -3.3806    2.9440 C   0  0  0  0  0  0  0  0  0  0  0  0
   -5.1277   -2.8095    2.2055 C   0  0  1  0  0  0  0  0  0  0  0  0
   -4.0628   -3.8730    1.9132 C   0  0  1  0  0  0  0  0  0  0  0  0
   -6.6227   -4.6854    3.0549 C   0  0  0  0  0  0  0  0  0  0  0  0
   -5.8115   -5.7323    2.4886 C   0  0  0  0  0  0  0  0  0  0  0  0
   -4.6852   -5.2426    1.6278 C   0  0  2  0  0  0  0  0  0  0  0  0
   -3.5898   -6.2886    1.7400 C   0  0  2  0  0  0  0  0  0  0  0  0
   -3.6602   -7.6027    2.4112 C   0  0  0  0  0  0  0  0  0  0  0  0
   -5.0477   -8.1400    2.2665 C   0  0  0  0  0  0  0  0  0  0  0  0
   -5.9899   -7.0533    2.7393 C   0  0  0  0  0  0  0  0  0  0  0  0
   -5.5375   -2.1519    0.8923 C   0  0  0  0  0  0  0  0  0  0  0  0
   -5.1101   -5.1518    0.6031 H   0  0  0  0  0  0  0  0  0  0  0  0
   -2.2109   -5.7515    2.1190 O   0  0  0  0  0  0  0  0  0  0  0  0
   -1.3915   -5.2442    3.0958 C   0  0  0  0  0  0  0  0  0  0  0  0
   -3.0932   -3.3632    0.7507 C   0  0  0  0  0  0  0  0  0  0  0  0
   -1.8599   -4.1866    0.3140 C   0  0  0  0  0  0  0  0  0  0  0  0
   -1.8532   -5.5694   -0.2579 C   0  0  2  0  0  0  0  0  0  0  0  0
   -2.4349   -7.2350   -2.3273 C   0  0  0  0  0  0  0  0  0  0  0  0
   -1.3345   -7.6443   -1.3694 C   0  0  1  0  0  0  0  0  0  0  0  0
   -0.7022   -6.3890   -0.7807 C   0  0  0  0  0  0  0  0  0  0  0  0
   -2.9513   -5.3266   -1.0845 O   0  0  0  0  0  0  0  0  0  0  0  0
   -1.7847   -8.5653   -0.3683 O   0  0  0  0  0  0  0  0  0  0  0  0
   -1.6530   -5.3376    4.2506 O   0  0  0  0  0  0  0  0  0  0  0  0
   -0.0052   -4.3210    2.4329 C   0  0  2  0  0  0  0  0  0  0  0  0
   -0.1537   -2.7326    1.8789 C   0  0  0  0  0  0  0  0  0  0  0  0
    0.9332   -5.0572    1.4348 C   0  0  0  0  0  0  0  0  0  0  0  0
    1.1498   -2.0870    1.4647 C   0  0  0  0  0  0  0  0  0  0  0  0
   -3.4658   -6.2933   -1.8083 C   0  0  0  0  0  0  0  0  0  0  0  0
   -4.6382   -6.2457   -2.1303 O   0  0  0  0  0  0  0  0  0  0  0  0
   -6.9532   -2.6544    3.4410 H   0  0  0  0  0  0  0  0  0  0  0  0
   -4.6578   -2.0488    2.8512 H   0  0  0  0  0  0  0  0  0  0  0  0
   -3.5345   -3.9662    2.8731 H   0  0  0  0  0  0  0  0  0  0  0  0
   -7.5016   -4.9951    3.6090 H   0  0  0  0  0  0  0  0  0  0  0  0
   -3.6734   -6.6476    0.6919 H   0  0  0  0  0  0  0  0  0  0  0  0
   -3.3523   -7.4440    3.4398 H   0  0  0  0  0  0  0  0  0  0  0  0
   -2.9075   -8.2693    1.9701 H   0  0  0  0  0  0  0  0  0  0  0  0
   -5.2662   -8.4395    1.2290 H   0  0  0  0  0  0  0  0  0  0  0  0
   -5.0763   -9.0404    2.8836 H   0  0  0  0  0  0  0  0  0  0  0  0
   -6.7641   -7.3912    3.4150 H   0  0  0  0  0  0  0  0  0  0  0  0
   -4.7194   -1.5285    0.5050 H   0  0  0  0  0  0  0  0  0  0  0  0
   -5.7453   -2.9251    0.1418 H   0  0  0  0  0  0  0  0  0  0  0  0
   -6.4035   -1.5066    0.9890 H   0  0  0  0  0  0  0  0  0  0  0  0
   -3.5908   -3.1142   -0.1797 H   0  0  0  0  0  0  0  0  0  0  0  0
   -2.7265   -2.4075    1.1691 H   0  0  0  0  0  0  0  0  0  0  0  0
   -1.1448   -3.6594   -0.3041 H   0  0  0  0  0  0  0  0  0  0  0  0
   -1.5302   -4.1647    1.2915 H   0  0  0  0  0  0  0  0  0  0  0  0
   -2.0247   -6.3651    0.4301 H   0  0  0  0  0  0  0  0  0  0  0  0
   -1.9556   -6.6622   -3.1245 H   0  0  0  0  0  0  0  0  0  0  0  0
   -2.9808   -8.1015   -2.6768 H   0  0  0  0  0  0  0  0  0  0  0  0
   -0.5432   -8.1857   -1.8851 H   0  0  0  0  0  0  0  0  0  0  0  0
   -0.0480   -6.7706    0.0207 H   0  0  0  0  0  0  0  0  0  0  0  0
   -0.1307   -5.8045   -1.4909 H   0  0  0  0  0  0  0  0  0  0  0  0
   -2.6501   -8.3063   -0.0136 H   0  0  0  0  0  0  0  0  0  0  0  0
    0.5703   -4.2150    3.3465 H   0  0  0  0  0  0  0  0  0  0  0  0
   -0.6603   -2.5157    0.9306 H   0  0  0  0  0  0  0  0  0  0  0  0
   -0.7671   -2.1432    2.5620 H   0  0  0  0  0  0  0  0  0  0  0  0
    1.9420   -4.6339    1.4273 H   0  0  0  0  0  0  0  0  0  0  0  0
    1.0349   -6.1244    1.6402 H   0  0  0  0  0  0  0  0  0  0  0  0
    0.6499   -4.9021    0.3892 H   0  0  0  0  0  0  0  0  0  0  0  0
    1.6377   -2.6520    0.6592 H   0  0  0  0  0  0  0  0  0  0  0  0
    0.9700   -1.0916    1.0330 H   0  0  0  0  0  0  0  0  0  0  0  0
    1.7731   -2.0209    2.3443 H   0  0  0  0  0  0  0  0  0  0  0  0
  1  2  1  0  0  0  0
  1  4  2  0  0  0  0
  1 30  1  0  0  0  0
  2  3  1  0  0  0  0
  2 31  1  1  0  0  0
  2 11  1  0  0  0  0
  3  6  1  0  0  0  0
  3 32  1  1  0  0  0
  3 15  1  0  0  0  0
  4 33  1  0  0  0  0
  5  4  1  0  0  0  0
  5  6  1  0  0  0  0
  5 10  2  0  0  0  0
  6 12  1  6  0  0  0
  6  7  1  0  0  0  0
  7 13  1  0  0  0  0
  7  8  1  0  0  0  0
  7 34  1  6  0  0  0
  8  9  1  0  0  0  0
  8 35  1  0  0  0  0
  8 36  1  0  0  0  0
  9 10  1  0  0  0  0
  9 37  1  0  0  0  0
  9 38  1  0  0  0  0
 10 39  1  0  0  0  0
 11 40  1  0  0  0  0
 11 41  1  0  0  0  0
 11 42  1  0  0  0  0
 13 14  1  0  0  0  0
 14 23  2  0  0  0  0
 15 16  1  0  0  0  0
 15 43  1  0  0  0  0
 15 44  1  0  0  0  0
 16 45  1  0  0  0  0
 16 46  1  0  0  0  0
 17 16  1  0  0  0  0
 17 20  1  0  0  0  0
 17 21  1  0  0  0  0
 17 47  1  1  0  0  0
 18 19  1  0  0  0  0
 18 28  1  0  0  0  0
 18 48  1  0  0  0  0
 18 49  1  0  0  0  0
 19 20  1  0  0  0  0
 19 22  1  0  0  0  0
 19 50  1  6  0  0  0
 20 51  1  0  0  0  0
 20 52  1  0  0  0  0
 21 28  1  0  0  0  0
 22 53  1  0  0  0  0
 24 26  1  0  0  0  0
 24 54  1  1  0  0  0
 24 25  1  0  0  0  0
 24 14  1  0  0  0  0
 25 27  1  0  0  0  0
 25 55  1  0  0  0  0
 25 56  1  0  0  0  0
 26 57  1  0  0  0  0
 26 58  1  0  0  0  0
 26 59  1  0  0  0  0
 27 60  1  0  0  0  0
 27 61  1  0  0  0  0
 27 62  1  0  0  0  0
 28 29  2  0  0  0  0
M  END
>  <DRUGBANK_ID>
DB06693

>  <COMMON_NAME>
Mevastatin

>  <CAS_NUMBER>
73573-88-3

>  <UNII>
1UQM1K0W9X

>  <SYNONYMS>
Compactin; Mevastatin; Mevastatina; MÃ©vastatine; Mevastatinum

$$$$
