
 OpenBabel10282417233D

 21 21  0  0  0  0  0  0  0  0999 V2000
    1.0901   -0.0388   -0.0018 S   0  0  0  0  0  0  0  0  0  0  0  0
    0.5432    1.2391    1.1042 C   0  0  0  0  0  0  0  0  0  0  0  0
    0.9013    2.5572    0.7956 C   0  0  0  0  0  0  0  0  0  0  0  0
    0.5858    3.5880    1.6820 C   0  0  0  0  0  0  0  0  0  0  0  0
    0.3997    0.1629   -1.2533 O   0  0  0  0  0  0  0  0  0  0  0  0
    0.5104   -1.4111    0.6220 O   0  0  0  0  0  0  0  0  0  0  0  0
   -0.0917    3.2754    2.8671 C   0  0  0  0  0  0  0  0  0  0  0  0
    2.5351   -0.0810    0.0877 O   0  0  0  0  0  0  0  0  0  0  0  0
   -0.1676    0.9395    2.2691 C   0  0  0  0  0  0  0  0  0  0  0  0
   -0.4797    1.9698    3.1575 C   0  0  0  0  0  0  0  0  0  0  0  0
    0.9004    4.9109    1.5037 O   0  0  0  0  0  0  0  0  0  0  0  0
   -0.3864    4.2423    3.7901 O   0  0  0  0  0  0  0  0  0  0  0  0
    1.5678    5.2301    0.2843 C   0  0  0  0  0  0  0  0  0  0  0  0
    1.4430    2.7393   -0.1274 H   0  0  0  0  0  0  0  0  0  0  0  0
   -0.4295   -1.5074    0.3661 H   0  0  0  0  0  0  0  0  0  0  0  0
   -0.4577   -0.0770    2.5175 H   0  0  0  0  0  0  0  0  0  0  0  0
   -1.0039    1.7600    4.0861 H   0  0  0  0  0  0  0  0  0  0  0  0
   -0.0184    5.0757    3.4385 H   0  0  0  0  0  0  0  0  0  0  0  0
    2.5387    4.7258    0.2244 H   0  0  0  0  0  0  0  0  0  0  0  0
    0.9424    4.9839   -0.5813 H   0  0  0  0  0  0  0  0  0  0  0  0
    1.7511    6.3077    0.2681 H   0  0  0  0  0  0  0  0  0  0  0  0
  2  1  1  0  0  0  0
  3  2  2  0  0  0  0
  3 14  1  0  0  0  0
  4  3  1  0  0  0  0
  5  1  2  0  0  0  0
  6  1  1  0  0  0  0
  6 15  1  0  0  0  0
  7 10  1  0  0  0  0
  7  4  2  0  0  0  0
  8  1  2  0  0  0  0
  9  2  1  0  0  0  0
  9 16  1  0  0  0  0
 10  9  2  0  0  0  0
 10 17  1  0  0  0  0
 11  4  1  0  0  0  0
 12  7  1  0  0  0  0
 12 18  1  0  0  0  0
 13 11  1  0  0  0  0
 13 19  1  0  0  0  0
 13 20  1  0  0  0  0
 13 21  1  0  0  0  0
M  END
>  <DRUGBANK_ID>
DB15992

>  <COMMON_NAME>
Sulfogaiacol

>  <CAS_NUMBER>
7134-11-4

>  <UNII>
6L00O0WHZR

>  <SYNONYMS>
4-Guaiacolsulfonic acid; Sulfogaiacol

$$$$
