EH9
 OpenBabel10282417163D

 43 44  0  0  0  0  0  0  0  0999 V2000
   -4.5670    1.2924   -1.1103 C   0  0  0  0  0  0  0  0  0  0  0  0
   -3.2062    1.4031   -0.8095 C   0  0  0  0  0  0  0  0  0  0  0  0
   -2.4972    2.4108   -1.4261 C   0  0  0  0  0  0  0  0  0  0  0  0
   -4.2888    3.1112   -2.5225 C   0  0  0  0  0  0  0  0  0  0  0  0
   -1.2259    1.2153   -0.0840 C   0  0  0  0  0  0  0  0  0  0  0  0
   -2.9744    3.3215   -2.3018 N   0  0  0  0  0  0  0  0  0  0  0  0
   -5.1016    2.1706   -1.9904 N   0  0  0  0  0  0  0  0  0  0  0  0
   -1.2237    2.2835   -0.9498 N   0  0  0  0  0  0  0  0  0  0  0  0
   -2.4004    0.6612    0.0282 N   0  0  0  0  0  0  0  0  0  0  0  0
   -0.1008    3.1940   -1.2071 C   0  0  2  0  0  0  0  0  0  0  0  0
    0.8411    2.5577   -2.2622 C   0  0  0  0  0  0  0  0  0  0  0  0
   -5.3598    0.3249   -0.5433 N   0  0  0  0  0  0  0  0  0  0  0  0
    2.0752    3.3874   -2.6278 C   0  0  0  0  0  0  0  0  0  0  0  0
    3.1327    3.5169   -1.5286 C   0  0  0  0  0  0  0  0  0  0  0  0
    3.6986    2.2061   -0.9964 C   0  0  0  0  0  0  0  0  0  0  0  0
    4.5655    1.5228   -2.0122 C   0  0  0  0  0  0  0  0  0  0  0  0
    5.7226    2.4329   -2.3527 C   0  0  0  0  0  0  0  0  0  0  0  0
    0.4890    3.6108    0.1666 C   0  0  1  0  0  0  0  0  0  0  0  0
    1.4560    2.6860    0.6646 O   0  0  0  0  0  0  0  0  0  0  0  0
    1.0141    5.0532    0.1888 C   0  0  0  0  0  0  0  0  0  0  0  0
   -0.5417    4.0929   -1.6582 H   0  0  0  0  0  0  0  0  0  0  0  0
   -0.2871    3.5873    0.9347 H   0  0  0  0  0  0  0  0  0  0  0  0
   -4.7630    3.7909   -3.2287 H   0  0  0  0  0  0  0  0  0  0  0  0
   -0.3530    0.8921    0.4745 H   0  0  0  0  0  0  0  0  0  0  0  0
    1.1409    1.5425   -1.9766 H   0  0  0  0  0  0  0  0  0  0  0  0
    0.2626    2.4094   -3.1885 H   0  0  0  0  0  0  0  0  0  0  0  0
   -4.9321   -0.3190    0.1120 H   0  0  0  0  0  0  0  0  0  0  0  0
   -6.3296    0.2725   -0.7983 H   0  0  0  0  0  0  0  0  0  0  0  0
    2.5475    2.9424   -3.5138 H   0  0  0  0  0  0  0  0  0  0  0  0
    1.7500    4.3846   -2.9495 H   0  0  0  0  0  0  0  0  0  0  0  0
    3.8940    4.2299   -1.8547 H   0  0  0  0  0  0  0  0  0  0  0  0
    2.7811    4.0127   -0.6474 H   0  0  0  0  0  0  0  0  0  0  0  0
    4.2532    2.4182   -0.0712 H   0  0  0  0  0  0  0  0  0  0  0  0
    2.9314    1.4843   -0.7209 H   0  0  0  0  0  0  0  0  0  0  0  0
    4.9143    0.5765   -1.5884 H   0  0  0  0  0  0  0  0  0  0  0  0
    3.9662    1.2827   -2.8965 H   0  0  0  0  0  0  0  0  0  0  0  0
    6.2666    2.6963   -1.4390 H   0  0  0  0  0  0  0  0  0  0  0  0
    6.3879    1.9502   -3.0621 H   0  0  0  0  0  0  0  0  0  0  0  0
    5.3829    3.3651   -2.8135 H   0  0  0  0  0  0  0  0  0  0  0  0
    1.3641    1.8405    0.1935 H   0  0  0  0  0  0  0  0  0  0  0  0
    1.7510    5.1914    0.9889 H   0  0  0  0  0  0  0  0  0  0  0  0
    1.4838    5.3732   -0.7491 H   0  0  0  0  0  0  0  0  0  0  0  0
    0.1874    5.7502    0.3181 H   0  0  0  0  0  0  0  0  0  0  0  0
  1 12  1  0  0  0  0
  1  2  2  0  0  0  0
  2  9  1  0  0  0  0
  3  2  1  0  0  0  0
  3  8  1  0  0  0  0
  4  7  2  0  0  0  0
  4  6  1  0  0  0  0
  4 23  1  0  0  0  0
  5 24  1  0  0  0  0
  6  3  2  0  0  0  0
  7  1  1  0  0  0  0
  8  5  1  0  0  0  0
  9  5  2  0  0  0  0
 10 21  1  6  0  0  0
 10  8  1  0  0  0  0
 11 10  1  0  0  0  0
 11 25  1  0  0  0  0
 11 26  1  0  0  0  0
 12 27  1  0  0  0  0
 12 28  1  0  0  0  0
 13 11  1  0  0  0  0
 13 29  1  0  0  0  0
 13 30  1  0  0  0  0
 14 13  1  0  0  0  0
 14 31  1  0  0  0  0
 14 32  1  0  0  0  0
 15 14  1  0  0  0  0
 15 33  1  0  0  0  0
 15 34  1  0  0  0  0
 16 15  1  0  0  0  0
 16 35  1  0  0  0  0
 16 36  1  0  0  0  0
 17 16  1  0  0  0  0
 17 37  1  0  0  0  0
 17 38  1  0  0  0  0
 17 39  1  0  0  0  0
 18 22  1  1  0  0  0
 18 19  1  0  0  0  0
 18 10  1  0  0  0  0
 19 40  1  0  0  0  0
 20 18  1  0  0  0  0
 20 41  1  0  0  0  0
 20 42  1  0  0  0  0
 20 43  1  0  0  0  0
M  END
>  <DRUGBANK_ID>
DB07711

>  <COMMON_NAME>
(2S,3R)-3-(6-amino-9H-purin-9-yl)nonan-2-ol

$$$$
