73Q
 OpenBabel10282417163D

 28 30  0  0  0  0  0  0  0  0999 V2000
    0.7313   -0.2313   -0.2315 C   0  0  0  0  0  0  0  0  0  0  0  0
    1.2160    0.0849   -1.6455 C   0  0  0  0  0  0  0  0  0  0  0  0
    2.4915   -0.1860   -2.0587 N   0  0  0  0  0  0  0  0  0  0  0  0
    3.0954    0.9496   -1.5566 N   0  0  0  0  0  0  0  0  0  0  0  0
    3.3956    0.6460   -0.1436 C   0  0  0  0  0  0  0  0  0  0  0  0
    2.2680    1.9531   -2.1755 C   0  0  0  0  0  0  0  0  0  0  0  0
    2.6417    2.9160   -3.0858 N   0  0  0  0  0  0  0  0  0  0  0  0
    3.9873    3.2166   -3.3038 O   0  0  0  0  0  0  0  0  0  0  0  0
    1.7114    3.2275   -4.1534 C   0  0  0  0  0  0  0  0  0  0  0  0
    2.1112    3.9959   -5.2562 C   0  0  0  0  0  0  0  0  0  0  0  0
    1.2459    4.2005   -6.3389 C   0  0  0  0  0  0  0  0  0  0  0  0
   -0.0990    3.8527   -6.2290 C   0  0  0  0  0  0  0  0  0  0  0  0
   -1.2170    4.3828   -7.4237 Cl  0  0  0  0  0  0  0  0  0  0  0  0
   -0.5482    3.1280   -5.1327 C   0  0  0  0  0  0  0  0  0  0  0  0
    0.3781    2.7444   -4.1520 C   0  0  0  0  0  0  0  0  0  0  0  0
   -0.0505    1.7513   -3.1255 C   0  0  0  0  0  0  0  0  0  0  0  0
   -1.1500    1.2561   -3.1290 O   0  0  0  0  0  0  0  0  0  0  0  0
    1.0089    1.3515   -2.2235 C   0  0  0  0  0  0  0  0  0  0  0  0
   -0.0001   -1.0252   -0.1797 H   0  0  0  0  0  0  0  0  0  0  0  0
    0.3660    0.7011    0.2257 H   0  0  0  0  0  0  0  0  0  0  0  0
    1.4905   -0.5720    0.4793 H   0  0  0  0  0  0  0  0  0  0  0  0
    2.7094    1.1642    0.5369 H   0  0  0  0  0  0  0  0  0  0  0  0
    3.2178   -0.4481   -0.0896 H   0  0  0  0  0  0  0  0  0  0  0  0
    4.4238    0.6237    0.1928 H   0  0  0  0  0  0  0  0  0  0  0  0
    4.4710    2.6026   -2.7311 H   0  0  0  0  0  0  0  0  0  0  0  0
    3.1025    4.4402   -5.2798 H   0  0  0  0  0  0  0  0  0  0  0  0
    1.6254    4.6533   -7.2520 H   0  0  0  0  0  0  0  0  0  0  0  0
   -1.5970    2.8512   -5.0433 H   0  0  0  0  0  0  0  0  0  0  0  0
  1  2  1  0  0  0  0
  1 19  1  0  0  0  0
  1 20  1  0  0  0  0
  1 21  1  0  0  0  0
  2  3  2  0  0  0  0
  2 18  1  0  0  0  0
  3  4  1  0  0  0  0
  4  5  1  0  0  0  0
  4  6  1  0  0  0  0
  5 22  1  0  0  0  0
  5 23  1  0  0  0  0
  5 24  1  0  0  0  0
  6  7  1  0  0  0  0
  6 18  2  0  0  0  0
  7  8  1  0  0  0  0
  7  9  1  0  0  0  0
  8 25  1  0  0  0  0
  9 10  1  0  0  0  0
  9 15  2  0  0  0  0
 10 11  2  0  0  0  0
 10 26  1  0  0  0  0
 11 12  1  0  0  0  0
 11 27  1  0  0  0  0
 12 13  1  0  0  0  0
 12 14  2  0  0  0  0
 14 15  1  0  0  0  0
 14 28  1  0  0  0  0
 15 16  1  0  0  0  0
 16 17  2  0  0  0  0
 16 18  1  0  0  0  0
M  END
>  <DRUGBANK_ID>
DB07218

>  <COMMON_NAME>
6-CHLORO-9-HYDROXY-1,3-DIMETHYL-1,9-DIHYDRO-4H-PYRAZOLO[3,4-B]QUINOLIN-4-ONE

$$$$
