
 OpenBabel10282417183D

 97101  0  0  0  0  0  0  0  0999 V2000
    4.3240  -11.8709    6.1335 C   0  0  0  0  0  0  0  0  0  0  0  0
    3.0720  -12.2789    6.9395 C   0  0  0  0  0  0  0  0  0  0  0  0
    2.2285  -13.1944    6.0499 C   0  0  0  0  0  0  0  0  0  0  0  0
    3.5514  -12.9979    8.2031 C   0  0  0  0  0  0  0  0  0  0  0  0
    2.3289  -11.0899    7.3174 O   0  0  0  0  0  0  0  0  0  0  0  0
    1.2103  -11.2426    8.0915 C   0  0  0  0  0  0  0  0  0  0  0  0
    0.6661  -12.2987    8.3816 O   0  0  0  0  0  0  0  0  0  0  0  0
    0.6887  -10.0795    8.5653 N   0  0  0  0  0  0  0  0  0  0  0  0
    0.9615   -8.8107    7.9643 C   0  0  1  0  0  0  0  0  0  0  0  0
   -0.1005   -8.7918    6.7699 C   0  0  0  0  0  0  0  0  0  0  0  0
    0.6116   -7.9236    5.8590 C   0  0  0  0  0  0  0  0  0  0  0  0
   -0.1782   -9.7185    5.5761 C   0  0  0  0  0  0  0  0  0  0  0  0
   -1.4643   -8.2632    7.3689 C   0  0  0  0  0  0  0  0  0  0  0  0
    1.0192   -7.5318    9.1027 C   0  0  0  0  0  0  0  0  0  0  0  0
    0.7769   -7.8217   10.2852 O   0  0  0  0  0  0  0  0  0  0  0  0
    1.5533   -6.2513    8.7728 N   0  0  0  0  0  0  0  0  0  0  0  0
    2.4278   -4.4272    7.5206 C   0  0  0  0  0  0  0  0  0  0  0  0
    1.1519   -5.2344    7.7592 C   0  0  1  0  0  0  0  0  0  0  0  0
    2.4292   -5.4848    9.6994 C   0  0  0  0  0  0  0  0  0  0  0  0
    2.8296   -4.1823    8.9219 C   0  0  2  0  0  0  0  0  0  0  0  0
    2.2057   -2.9598    9.3090 O   0  0  0  0  0  0  0  0  0  0  0  0
    0.8310   -2.9086    9.4511 C   0  0  0  0  0  0  0  0  0  0  0  0
   -1.1773   -1.6944    9.8175 C   0  0  0  0  0  0  0  0  0  0  0  0
   -1.9425   -2.8725    9.7752 C   0  0  0  0  0  0  0  0  0  0  0  0
   -1.2223   -4.0183    9.6362 C   0  0  0  0  0  0  0  0  0  0  0  0
    0.1247   -4.0272    9.6410 N   0  0  0  0  0  0  0  0  0  0  0  0
    0.2205   -1.7017    9.5538 C   0  0  0  0  0  0  0  0  0  0  0  0
    0.9960   -0.5501    9.5572 C   0  0  0  0  0  0  0  0  0  0  0  0
    0.4556    0.5586   10.1610 C   0  0  0  0  0  0  0  0  0  0  0  0
   -0.8652    0.5414   10.6034 C   0  0  0  0  0  0  0  0  0  0  0  0
   -1.7214   -0.4976   10.2445 C   0  0  0  0  0  0  0  0  0  0  0  0
   -3.2917   -2.8345    9.9806 O   0  0  0  0  0  0  0  0  0  0  0  0
    0.9206   -5.6159    6.4208 C   0  0  0  0  0  0  0  0  0  0  0  0
    1.9335   -6.2183    6.0232 O   0  0  0  0  0  0  0  0  0  0  0  0
   -0.5768   -5.7631    6.2345 N   0  0  0  0  0  0  0  0  0  0  0  0
   -1.2912   -4.8490    5.4231 C   0  0  1  0  0  0  0  0  0  0  0  0
   -2.7999   -4.9505    5.1689 C   0  0  1  0  0  0  0  0  0  0  0  0
   -2.2467   -4.0750    6.2482 C   0  0  0  0  0  0  0  0  0  0  0  0
   -3.4614   -4.3585    3.9986 C   0  0  0  0  0  0  0  0  0  0  0  0
   -4.5954   -4.8448    3.4730 C   0  0  0  0  0  0  0  0  0  0  0  0
   -0.4923   -4.6392    4.2240 C   0  0  0  0  0  0  0  0  0  0  0  0
   -0.1829   -3.3978    3.8164 N   0  0  0  0  0  0  0  0  0  0  0  0
    0.0652   -5.6497    3.7644 O   0  0  0  0  0  0  0  0  0  0  0  0
    1.1135   -3.1081    2.8184 S   0  0  0  0  0  0  0  0  0  0  0  0
    0.6091   -3.2254    1.4683 O   0  0  0  0  0  0  0  0  0  0  0  0
    1.5741   -1.8260    3.3125 O   0  0  0  0  0  0  0  0  0  0  0  0
    2.6237   -4.1742    2.8879 C   0  0  0  0  0  0  0  0  0  0  0  0
    2.5228   -5.6825    2.7778 C   0  0  0  0  0  0  0  0  0  0  0  0
    2.8346   -5.0133    4.0870 C   0  0  0  0  0  0  0  0  0  0  0  0
    1.4173    1.9637   10.3426 Cl  0  0  0  0  0  0  0  0  0  0  0  0
   -3.9754   -4.0904    9.9528 C   0  0  0  0  0  0  0  0  0  0  0  0
    4.9121  -12.7573    5.8573 H   0  0  0  0  0  0  0  0  0  0  0  0
    4.9786  -11.2040    6.7053 H   0  0  0  0  0  0  0  0  0  0  0  0
    4.0623  -11.3457    5.2082 H   0  0  0  0  0  0  0  0  0  0  0  0
    2.7855  -14.0950    5.7744 H   0  0  0  0  0  0  0  0  0  0  0  0
    1.3132  -13.5200    6.5460 H   0  0  0  0  0  0  0  0  0  0  0  0
    1.9210  -12.6735    5.1364 H   0  0  0  0  0  0  0  0  0  0  0  0
    4.1720  -12.3309    8.8125 H   0  0  0  0  0  0  0  0  0  0  0  0
    2.7174  -13.3077    8.8359 H   0  0  0  0  0  0  0  0  0  0  0  0
    4.1249  -13.8944    7.9560 H   0  0  0  0  0  0  0  0  0  0  0  0
   -0.2269  -10.1815    8.9801 H   0  0  0  0  0  0  0  0  0  0  0  0
    1.9956   -8.8200    7.5824 H   0  0  0  0  0  0  0  0  0  0  0  0
    1.6534   -8.1189    5.5769 H   0  0  0  0  0  0  0  0  0  0  0  0
    0.1698   -7.5131    4.9455 H   0  0  0  0  0  0  0  0  0  0  0  0
    0.5405   -7.3287    6.7218 H   0  0  0  0  0  0  0  0  0  0  0  0
   -0.5718  -10.6714    5.8265 H   0  0  0  0  0  0  0  0  0  0  0  0
   -0.7969   -9.2242    4.7881 H   0  0  0  0  0  0  0  0  0  0  0  0
    0.8251   -9.8418    5.1013 H   0  0  0  0  0  0  0  0  0  0  0  0
   -1.9872   -9.0791    7.8648 H   0  0  0  0  0  0  0  0  0  0  0  0
   -1.3415   -7.4752    8.1411 H   0  0  0  0  0  0  0  0  0  0  0  0
   -2.1559   -7.8248    6.6414 H   0  0  0  0  0  0  0  0  0  0  0  0
    3.2543   -5.0096    7.0678 H   0  0  0  0  0  0  0  0  0  0  0  0
    2.2532   -3.5890    6.8318 H   0  0  0  0  0  0  0  0  0  0  0  0
    0.2076   -4.7353    7.8850 H   0  0  0  0  0  0  0  0  0  0  0  0
    3.2985   -6.1076    9.9277 H   0  0  0  0  0  0  0  0  0  0  0  0
    1.9371   -5.2089   10.6354 H   0  0  0  0  0  0  0  0  0  0  0  0
    3.9195   -4.0393    8.9039 H   0  0  0  0  0  0  0  0  0  0  0  0
   -1.6678   -4.9997    9.4962 H   0  0  0  0  0  0  0  0  0  0  0  0
    2.0322   -0.5628    9.2239 H   0  0  0  0  0  0  0  0  0  0  0  0
   -1.2408    1.3346   11.2371 H   0  0  0  0  0  0  0  0  0  0  0  0
   -2.7905   -0.4123   10.4028 H   0  0  0  0  0  0  0  0  0  0  0  0
   -0.9192   -6.6091    5.7821 H   0  0  0  0  0  0  0  0  0  0  0  0
   -3.3088   -5.8581    5.4963 H   0  0  0  0  0  0  0  0  0  0  0  0
   -2.4299   -4.4918    7.2429 H   0  0  0  0  0  0  0  0  0  0  0  0
   -1.9359   -3.0492    6.2865 H   0  0  0  0  0  0  0  0  0  0  0  0
   -3.0242   -3.4947    3.5028 H   0  0  0  0  0  0  0  0  0  0  0  0
   -5.0644   -4.4030    2.5993 H   0  0  0  0  0  0  0  0  0  0  0  0
   -5.0846   -5.7102    3.9118 H   0  0  0  0  0  0  0  0  0  0  0  0
   -0.9737   -2.7626    3.7108 H   0  0  0  0  0  0  0  0  0  0  0  0
    3.4931   -3.6781    2.5083 H   0  0  0  0  0  0  0  0  0  0  0  0
    1.6037   -6.2218    2.6008 H   0  0  0  0  0  0  0  0  0  0  0  0
    3.3303   -6.2752    2.3583 H   0  0  0  0  0  0  0  0  0  0  0  0
    3.7821   -5.2813    4.5466 H   0  0  0  0  0  0  0  0  0  0  0  0
    2.1114   -4.7822    4.8230 H   0  0  0  0  0  0  0  0  0  0  0  0
   -3.9546   -4.5100    8.9419 H   0  0  0  0  0  0  0  0  0  0  0  0
   -3.5660   -4.8089   10.6746 H   0  0  0  0  0  0  0  0  0  0  0  0
   -5.0201   -3.9151   10.2191 H   0  0  0  0  0  0  0  0  0  0  0  0
  1  2  1  0  0  0  0
  1 52  1  0  0  0  0
  1 53  1  0  0  0  0
  1 54  1  0  0  0  0
  2  3  1  0  0  0  0
  2  4  1  0  0  0  0
  2  5  1  0  0  0  0
  3 55  1  0  0  0  0
  3 56  1  0  0  0  0
  3 57  1  0  0  0  0
  4 58  1  0  0  0  0
  4 59  1  0  0  0  0
  4 60  1  0  0  0  0
  5  6  1  0  0  0  0
  6  7  2  0  0  0  0
  6  8  1  0  0  0  0
  8 61  1  0  0  0  0
  9 10  1  0  0  0  0
  9 62  1  6  0  0  0
  9 14  1  0  0  0  0
  9  8  1  0  0  0  0
 10 11  1  0  0  0  0
 10 12  1  0  0  0  0
 10 13  1  0  0  0  0
 11 63  1  0  0  0  0
 11 64  1  0  0  0  0
 11 65  1  0  0  0  0
 12 66  1  0  0  0  0
 12 67  1  0  0  0  0
 12 68  1  0  0  0  0
 13 69  1  0  0  0  0
 13 70  1  0  0  0  0
 13 71  1  0  0  0  0
 14 15  2  0  0  0  0
 14 16  1  0  0  0  0
 16 19  1  0  0  0  0
 17 18  1  0  0  0  0
 17 20  1  0  0  0  0
 17 72  1  0  0  0  0
 17 73  1  0  0  0  0
 18 16  1  0  0  0  0
 18 74  1  1  0  0  0
 18 33  1  0  0  0  0
 19 20  1  0  0  0  0
 19 75  1  0  0  0  0
 19 76  1  0  0  0  0
 20 77  1  1  0  0  0
 20 21  1  0  0  0  0
 21 22  1  0  0  0  0
 22 27  1  0  0  0  0
 23 24  1  0  0  0  0
 23 27  2  0  0  0  0
 23 31  1  0  0  0  0
 24 25  2  0  0  0  0
 24 32  1  0  0  0  0
 25 26  1  0  0  0  0
 25 78  1  0  0  0  0
 26 22  2  0  0  0  0
 27 28  1  0  0  0  0
 28 29  2  0  0  0  0
 28 79  1  0  0  0  0
 29 30  1  0  0  0  0
 29 50  1  0  0  0  0
 30 31  2  0  0  0  0
 30 80  1  0  0  0  0
 31 81  1  0  0  0  0
 32 51  1  0  0  0  0
 33 34  2  0  0  0  0
 33 35  1  0  0  0  0
 35 82  1  0  0  0  0
 36 37  1  0  0  0  0
 36 38  1  0  0  0  0
 36 41  1  6  0  0  0
 36 35  1  0  0  0  0
 37 38  1  0  0  0  0
 37 39  1  0  0  0  0
 37 83  1  1  0  0  0
 38 84  1  0  0  0  0
 38 85  1  0  0  0  0
 39 40  2  0  0  0  0
 39 86  1  0  0  0  0
 40 87  1  0  0  0  0
 40 88  1  0  0  0  0
 41 42  1  0  0  0  0
 41 43  2  0  0  0  0
 42 44  1  0  0  0  0
 42 89  1  0  0  0  0
 44 45  2  0  0  0  0
 44 46  2  0  0  0  0
 44 47  1  0  0  0  0
 47 48  1  0  0  0  0
 47 49  1  0  0  0  0
 47 90  1  0  0  0  0
 48 49  1  0  0  0  0
 48 91  1  0  0  0  0
 48 92  1  0  0  0  0
 49 93  1  0  0  0  0
 49 94  1  0  0  0  0
 51 95  1  0  0  0  0
 51 96  1  0  0  0  0
 51 97  1  0  0  0  0
M  END
>  <DRUGBANK_ID>
DB11586

>  <COMMON_NAME>
Asunaprevir

>  <CAS_NUMBER>
630420-16-5

>  <UNII>
S9X0KRJ00S

>  <SYNONYMS>
Asunaprevir

$$$$
