
 OpenBabel10282417183D

 60 65  0  0  0  0  0  0  0  0999 V2000
    2.5025    0.3312   -0.1475 C   0  0  0  0  0  0  0  0  0  0  0  0
    1.0306    0.0797   -0.1112 C   0  0  0  0  0  0  0  0  0  0  0  0
    0.2321    1.2493   -0.0690 C   0  0  0  0  0  0  0  0  0  0  0  0
   -1.1578    1.2043   -0.0823 C   0  0  0  0  0  0  0  0  0  0  0  0
   -1.7461   -0.0668   -0.1043 C   0  0  0  0  0  0  0  0  0  0  0  0
   -0.9763   -1.2427   -0.0681 C   0  0  0  0  0  0  0  0  0  0  0  0
    0.4269   -1.1932   -0.0637 C   0  0  0  0  0  0  0  0  0  0  0  0
    1.0336   -2.4432    0.0337 O   0  0  0  0  0  0  0  0  0  0  0  0
    2.4143   -2.6087    0.0338 C   0  0  0  0  0  0  0  0  0  0  0  0
    3.1584   -2.1667    1.2066 C   0  0  0  0  0  0  0  0  0  0  0  0
    4.4911   -2.0225    1.1476 C   0  0  0  0  0  0  0  0  0  0  0  0
    5.1659   -2.4911    0.0334 N   0  0  0  0  0  0  0  0  0  0  0  0
    4.5048   -3.1042   -1.0372 C   0  0  0  0  0  0  0  0  0  0  0  0
    3.0753   -3.1344   -1.0177 C   0  0  0  0  0  0  0  0  0  0  0  0
    5.3883   -3.5127   -1.9203 N   0  0  0  0  0  0  0  0  0  0  0  0
    6.5744   -3.1301   -1.3647 C   0  0  0  0  0  0  0  0  0  0  0  0
    6.4947   -2.4733   -0.2085 N   0  0  0  0  0  0  0  0  0  0  0  0
   -1.8908    2.4089    0.0898 N   0  0  0  0  0  0  0  0  0  0  0  0
   -3.3039    2.5099    0.0908 C   0  0  0  0  0  0  0  0  0  0  0  0
   -4.0248    1.8973    1.1227 C   0  0  0  0  0  0  0  0  0  0  0  0
   -3.3965    1.3231    2.2473 C   0  0  0  0  0  0  0  0  0  0  0  0
   -4.0943    0.6931    3.2664 C   0  0  0  0  0  0  0  0  0  0  0  0
   -5.4842    0.6756    3.1433 C   0  0  0  0  0  0  0  0  0  0  0  0
   -6.1217    1.2644    2.0285 C   0  0  0  0  0  0  0  0  0  0  0  0
   -5.4098    1.8960    1.0104 C   0  0  0  0  0  0  0  0  0  0  0  0
   -6.0302    2.4755   -0.0273 N   0  0  0  0  0  0  0  0  0  0  0  0
   -5.2468    3.0824   -0.9369 C   0  0  0  0  0  0  0  0  0  0  0  0
   -3.9053    3.1501   -0.9248 N   0  0  0  0  0  0  0  0  0  0  0  0
   -3.4380    0.1994    4.4173 N   0  0  0  0  0  0  0  0  0  0  0  0
   -2.0727    0.0261    4.4752 C   0  0  0  0  0  0  0  0  0  0  0  0
   -1.4505   -1.0917    4.5980 N   0  0  0  0  0  0  0  0  0  0  0  0
   -0.0228   -0.7216    4.6191 C   0  0  0  0  0  0  0  0  0  0  0  0
    0.0055    0.7982    4.6371 C   0  0  0  0  0  0  0  0  0  0  0  0
   -1.3506    1.1812    4.4539 O   0  0  0  0  0  0  0  0  0  0  0  0
    0.6499   -1.3501    5.8306 C   0  0  0  0  0  0  0  0  0  0  0  0
    0.6770   -1.2254    3.3797 C   0  0  0  0  0  0  0  0  0  0  0  0
    2.9187    0.1293    0.8367 H   0  0  0  0  0  0  0  0  0  0  0  0
    2.9619   -0.2516   -0.9482 H   0  0  0  0  0  0  0  0  0  0  0  0
    2.7575    1.3751   -0.3349 H   0  0  0  0  0  0  0  0  0  0  0  0
    0.7272    2.2175   -0.0132 H   0  0  0  0  0  0  0  0  0  0  0  0
   -2.8277   -0.1743   -0.1182 H   0  0  0  0  0  0  0  0  0  0  0  0
   -1.5032   -2.1950   -0.0174 H   0  0  0  0  0  0  0  0  0  0  0  0
    2.6254   -1.7910    2.0508 H   0  0  0  0  0  0  0  0  0  0  0  0
    5.0811   -1.5329    1.9118 H   0  0  0  0  0  0  0  0  0  0  0  0
    2.5468   -3.5016   -1.8882 H   0  0  0  0  0  0  0  0  0  0  0  0
    7.5349   -3.3369   -1.8180 H   0  0  0  0  0  0  0  0  0  0  0  0
   -1.4667    3.2122   -0.3590 H   0  0  0  0  0  0  0  0  0  0  0  0
   -2.3135    1.3684    2.3021 H   0  0  0  0  0  0  0  0  0  0  0  0
   -6.1011    0.2133    3.9089 H   0  0  0  0  0  0  0  0  0  0  0  0
   -7.2077    1.2406    1.9612 H   0  0  0  0  0  0  0  0  0  0  0  0
   -5.7560    3.5556   -1.7716 H   0  0  0  0  0  0  0  0  0  0  0  0
   -3.9345   -0.5850    4.8172 H   0  0  0  0  0  0  0  0  0  0  0  0
    0.3737    1.2068    5.5822 H   0  0  0  0  0  0  0  0  0  0  0  0
    0.6064    1.2331    3.8272 H   0  0  0  0  0  0  0  0  0  0  0  0
    0.1811   -1.0089    6.7565 H   0  0  0  0  0  0  0  0  0  0  0  0
    0.5666   -2.4431    5.7948 H   0  0  0  0  0  0  0  0  0  0  0  0
    1.7164   -1.0985    5.8676 H   0  0  0  0  0  0  0  0  0  0  0  0
    0.6174   -2.3128    3.2603 H   0  0  0  0  0  0  0  0  0  0  0  0
    0.2625   -0.7641    2.4862 H   0  0  0  0  0  0  0  0  0  0  0  0
    1.7278   -0.9291    3.4556 H   0  0  0  0  0  0  0  0  0  0  0  0
  1  2  1  0  0  0  0
  1 37  1  0  0  0  0
  1 38  1  0  0  0  0
  1 39  1  0  0  0  0
  2  3  2  0  0  0  0
  2  7  1  0  0  0  0
  3  4  1  0  0  0  0
  3 40  1  0  0  0  0
  4  5  2  0  0  0  0
  4 18  1  0  0  0  0
  5  6  1  0  0  0  0
  5 41  1  0  0  0  0
  6  7  2  0  0  0  0
  6 42  1  0  0  0  0
  7  8  1  0  0  0  0
  8  9  1  0  0  0  0
  9 10  1  0  0  0  0
  9 14  2  0  0  0  0
 10 11  2  0  0  0  0
 10 43  1  0  0  0  0
 11 12  1  0  0  0  0
 11 44  1  0  0  0  0
 12 13  1  0  0  0  0
 12 17  1  0  0  0  0
 13 14  1  0  0  0  0
 13 15  2  0  0  0  0
 14 45  1  0  0  0  0
 15 16  1  0  0  0  0
 16 17  2  0  0  0  0
 16 46  1  0  0  0  0
 18 19  1  0  0  0  0
 18 47  1  0  0  0  0
 19 20  1  0  0  0  0
 19 28  2  0  0  0  0
 20 21  2  0  0  0  0
 20 25  1  0  0  0  0
 21 22  1  0  0  0  0
 21 48  1  0  0  0  0
 22 23  2  0  0  0  0
 22 29  1  0  0  0  0
 23 24  1  0  0  0  0
 23 49  1  0  0  0  0
 24 25  2  0  0  0  0
 24 50  1  0  0  0  0
 25 26  1  0  0  0  0
 26 27  2  0  0  0  0
 27 28  1  0  0  0  0
 27 51  1  0  0  0  0
 29 30  1  0  0  0  0
 29 52  1  0  0  0  0
 30 31  2  0  0  0  0
 30 34  1  0  0  0  0
 31 32  1  0  0  0  0
 32 33  1  0  0  0  0
 32 35  1  0  0  0  0
 32 36  1  0  0  0  0
 33 34  1  0  0  0  0
 33 53  1  0  0  0  0
 33 54  1  0  0  0  0
 35 55  1  0  0  0  0
 35 56  1  0  0  0  0
 35 57  1  0  0  0  0
 36 58  1  0  0  0  0
 36 59  1  0  0  0  0
 36 60  1  0  0  0  0
M  END
>  <DRUGBANK_ID>
DB11652

>  <SECONDARY_ACCESSION_NUMBERS>
DB06142

>  <COMMON_NAME>
Tucatinib

>  <CAS_NUMBER>
937263-43-9

>  <UNII>
234248D0HH

>  <SYNONYMS>
Tucatinib

$$$$
