
 OpenBabel10282417203D

 48 47  0  0  0  0  0  0  0  0999 V2000
    1.3908    0.1974    0.1955 C   0  0  0  0  0  0  0  0  0  0  0  0
    0.7270    0.4592   -1.1382 C   0  0  0  0  0  0  0  0  0  0  0  0
    1.0800   -0.5833   -2.1749 C   0  0  0  0  0  0  0  0  0  0  0  0
    0.4956   -1.9927   -2.0953 C   0  0  0  0  0  0  0  0  0  0  0  0
   -0.9963   -2.0552   -2.2830 C   0  0  0  0  0  0  0  0  0  0  0  0
   -1.4957   -1.7404   -3.6672 C   0  0  0  0  0  0  0  0  0  0  0  0
   -0.9454   -2.8611   -5.0189 S   0  0  0  0  0  0  0  0  0  0  0  0
    0.9039   -2.8219   -5.0994 C   0  0  0  0  0  0  0  0  0  0  0  0
    1.5900   -1.5238   -5.5390 C   0  0  0  0  0  0  0  0  0  0  0  0
    1.1247   -0.3060   -5.0089 O   0  0  0  0  0  0  0  0  0  0  0  0
    0.9715   -1.1599    0.6965 C   0  0  0  0  0  0  0  0  0  0  0  0
    1.3921   -1.5588    2.0702 C   0  0  0  0  0  0  0  0  0  0  0  0
    0.6237   -0.7811    3.1009 C   0  0  0  0  0  0  0  0  0  0  0  0
   -0.9014   -0.9025    3.0008 C   0  0  0  0  0  0  0  0  0  0  0  0
   -1.6877   -2.5421    3.3773 S   0  0  0  0  0  0  0  0  0  0  0  0
   -1.1834   -3.7707    2.0830 C   0  0  0  0  0  0  0  0  0  0  0  0
   -1.8166   -3.6235    0.7082 C   0  0  0  0  0  0  0  0  0  0  0  0
   -1.8747   -2.2760    0.2915 O   0  0  0  0  0  0  0  0  0  0  0  0
    1.0675    0.9866    0.8768 H   0  0  0  0  0  0  0  0  0  0  0  0
    2.4784    0.2367    0.0965 H   0  0  0  0  0  0  0  0  0  0  0  0
   -0.3637    0.5286   -1.0416 H   0  0  0  0  0  0  0  0  0  0  0  0
    1.0506    1.4398   -1.5108 H   0  0  0  0  0  0  0  0  0  0  0  0
    0.6464   -0.1210   -3.0440 H   0  0  0  0  0  0  0  0  0  0  0  0
    2.1646   -0.6334   -2.3288 H   0  0  0  0  0  0  0  0  0  0  0  0
    0.9784   -2.5587   -2.8495 H   0  0  0  0  0  0  0  0  0  0  0  0
    0.7775   -2.6422   -1.2757 H   0  0  0  0  0  0  0  0  0  0  0  0
   -1.3546   -3.0500   -1.9975 H   0  0  0  0  0  0  0  0  0  0  0  0
   -1.4604   -1.3219   -1.6178 H   0  0  0  0  0  0  0  0  0  0  0  0
   -2.5891   -1.8386   -3.6175 H   0  0  0  0  0  0  0  0  0  0  0  0
   -1.3433   -0.6847   -3.8964 H   0  0  0  0  0  0  0  0  0  0  0  0
    1.4269   -3.3226   -4.2770 H   0  0  0  0  0  0  0  0  0  0  0  0
    1.1412   -3.5525   -5.8779 H   0  0  0  0  0  0  0  0  0  0  0  0
    2.6580   -1.5780   -5.3020 H   0  0  0  0  0  0  0  0  0  0  0  0
    1.4732   -1.4269   -6.6146 H   0  0  0  0  0  0  0  0  0  0  0  0
    0.1603   -0.3672   -4.9463 H   0  0  0  0  0  0  0  0  0  0  0  0
   -0.1021   -1.1869    0.5811 H   0  0  0  0  0  0  0  0  0  0  0  0
    1.4223   -1.9393    0.1097 H   0  0  0  0  0  0  0  0  0  0  0  0
    1.2186   -2.6236    2.1992 H   0  0  0  0  0  0  0  0  0  0  0  0
    2.4757   -1.4498    2.1525 H   0  0  0  0  0  0  0  0  0  0  0  0
    0.9681   -1.0771    4.0919 H   0  0  0  0  0  0  0  0  0  0  0  0
    0.8910    0.2761    2.9758 H   0  0  0  0  0  0  0  0  0  0  0  0
   -1.3011   -0.2318    3.7708 H   0  0  0  0  0  0  0  0  0  0  0  0
   -1.2937   -0.4536    2.0817 H   0  0  0  0  0  0  0  0  0  0  0  0
   -0.1054   -3.9050    2.0086 H   0  0  0  0  0  0  0  0  0  0  0  0
   -1.5224   -4.7463    2.4531 H   0  0  0  0  0  0  0  0  0  0  0  0
   -1.2545   -4.2089   -0.0267 H   0  0  0  0  0  0  0  0  0  0  0  0
   -2.8464   -3.9758    0.6990 H   0  0  0  0  0  0  0  0  0  0  0  0
   -2.1717   -1.7589    1.0233 H   0  0  0  0  0  0  0  0  0  0  0  0
  1  2  1  0  0  0  0
  1 11  1  0  0  0  0
  1 19  1  0  0  0  0
  1 20  1  0  0  0  0
  2  3  1  0  0  0  0
  2 21  1  0  0  0  0
  2 22  1  0  0  0  0
  3  4  1  0  0  0  0
  3 23  1  0  0  0  0
  3 24  1  0  0  0  0
  4  5  1  0  0  0  0
  4 25  1  0  0  0  0
  4 26  1  0  0  0  0
  5  6  1  0  0  0  0
  5 27  1  0  0  0  0
  5 28  1  0  0  0  0
  6  7  1  0  0  0  0
  6 29  1  0  0  0  0
  6 30  1  0  0  0  0
  7  8  1  0  0  0  0
  8  9  1  0  0  0  0
  8 31  1  0  0  0  0
  8 32  1  0  0  0  0
  9 10  1  0  0  0  0
  9 33  1  0  0  0  0
  9 34  1  0  0  0  0
 10 35  1  0  0  0  0
 11 12  1  0  0  0  0
 11 36  1  0  0  0  0
 11 37  1  0  0  0  0
 12 13  1  0  0  0  0
 12 38  1  0  0  0  0
 12 39  1  0  0  0  0
 13 14  1  0  0  0  0
 13 40  1  0  0  0  0
 13 41  1  0  0  0  0
 14 15  1  0  0  0  0
 14 42  1  0  0  0  0
 14 43  1  0  0  0  0
 15 16  1  0  0  0  0
 16 17  1  0  0  0  0
 16 44  1  0  0  0  0
 16 45  1  0  0  0  0
 17 18  1  0  0  0  0
 17 46  1  0  0  0  0
 17 47  1  0  0  0  0
 18 48  1  0  0  0  0
M  END
>  <DRUGBANK_ID>
DB13348

>  <COMMON_NAME>
Tiadenol

>  <CAS_NUMBER>
6964-20-1

>  <UNII>
22251270CX

>  <SYNONYMS>
Tiadenol

$$$$
