
 OpenBabel10282417213D

 15 12  0  0  0  0  0  0  0  0999 V2000
    0.2709    0.2739   -1.3336 C   0  0  0  0  0  0  0  0  0  0  0  0
   -0.3588    1.5959   -1.0420 C   0  0  0  0  0  0  0  0  0  0  0  0
   -0.4875   -0.6475   -0.7836 O   0  0  0  0  0  0  0  0  0  0  0  0
    1.3872    0.2329   -1.8039 O   0  5  0  0  0  0  0  0  0  0  0  0
    2.0948   -0.0931    1.0243 C   0  0  0  0  0  0  0  0  0  0  0  0
    1.1060    0.9733    1.5832 C   0  0  0  0  0  0  0  0  0  0  0  0
    1.3916   -1.1774    0.8214 O   0  0  0  0  0  0  0  0  0  0  0  0
    3.2954    0.1537    1.1547 O   0  5  0  0  0  0  0  0  0  0  0  0
   -0.5748   -0.9742    0.8422 Mg  0  2  0  0  0  0  0  0  0  0  0  0
   -0.9671    1.7880   -1.9092 H   0  0  0  0  0  0  0  0  0  0  0  0
   -1.0132    1.5336   -0.1557 H   0  0  0  0  0  0  0  0  0  0  0  0
    0.4231    2.3418   -0.8755 H   0  0  0  0  0  0  0  0  0  0  0  0
    0.5847    1.7013    0.9800 H   0  0  0  0  0  0  0  0  0  0  0  0
    0.3171    0.4997    2.1800 H   0  0  0  0  0  0  0  0  0  0  0  0
    1.7004    1.6346    2.1892 H   0  0  0  0  0  0  0  0  0  0  0  0
  1  2  1  0  0  0  0
  1  3  2  0  0  0  0
  1  4  1  0  0  0  0
  2 10  1  0  0  0  0
  2 11  1  0  0  0  0
  2 12  1  0  0  0  0
  5  6  1  0  0  0  0
  5  7  2  0  0  0  0
  5  8  1  0  0  0  0
  6 13  1  0  0  0  0
  6 14  1  0  0  0  0
  6 15  1  0  0  0  0
M  CHG  3   4  -1   8  -1   9   2
M  END
>  <DRUGBANK_ID>
DB13996

>  <SECONDARY_ACCESSION_NUMBERS>
DBSALT001426

>  <COMMON_NAME>
Magnesium acetate

>  <CAS_NUMBER>
142-72-3

>  <UNII>
0E95JZY48K

>  <SYNONYMS>
acetato de magnesio; acetic acid magnesium salt; Acetic acid, magnesium salt (2:1); Magnesium di(acetate); magnesium diacetate; Mg(II) acetate

$$$$
