
 OpenBabel10282417153D

122124  0  0  0  0  0  0  0  0999 V2000
   11.2787   -3.2755    7.2707 C   0  0  0  0  0  0  0  0  0  0  0  0
   10.9875   -3.8073    6.0725 N   0  0  0  0  0  0  0  0  0  0  0  0
   12.0747   -4.3835    5.5878 C   0  0  0  0  0  0  0  0  0  0  0  0
   12.2115   -5.1109    4.2602 C   0  0  0  0  0  0  0  0  0  0  0  0
   11.1392   -5.2188    3.4300 C   0  0  0  0  0  0  0  0  0  0  0  0
   11.1025   -5.8249    2.2362 N   0  5  0  0  0  0  0  0  0  0  0  0
    9.8108   -5.6843    1.7465 C   0  0  0  0  0  0  0  0  0  0  0  0
    9.3283   -6.1494    0.5627 C   0  0  0  0  0  0  0  0  0  0  0  0
    7.8770   -5.9027    0.1840 C   0  0  0  0  0  0  0  0  0  0  0  0
    7.2803   -4.7320    0.0345 N   0  0  0  0  0  0  0  0  0  0  0  0
    5.9975   -4.9415   -0.3027 C   0  0  0  0  0  0  0  0  0  0  0  0
    5.0899   -3.9564   -0.5403 C   0  0  0  0  0  0  0  0  0  0  0  0
    3.6611   -4.3139   -0.9159 C   0  0  0  0  0  0  0  0  0  0  0  0
    2.7800   -5.0227   -0.1978 N   0  5  0  0  0  0  0  0  0  0  0  0
    1.6051   -5.0809   -0.9355 C   0  0  0  0  0  0  0  0  0  0  0  0
   10.3908   -2.6094    8.0572 C   0  0  0  0  0  0  0  0  0  0  0  0
    8.9546   -2.4256    7.5947 C   0  0  0  0  0  0  0  0  0  0  0  0
    8.1217   -3.3936    7.3256 N   0  3  0  0  0  0  0  0  0  0  0  0
    6.9536   -2.8262    6.9380 C   0  0  0  0  0  0  0  0  0  0  0  0
    7.1491   -1.4870    7.0070 C   0  0  0  0  0  0  0  0  0  0  0  0
    8.3753   -1.2925    7.4094 N   0  0  0  0  0  0  0  0  0  0  0  0
    8.9993    0.0219    7.6189 C   0  0  0  0  0  0  0  0  0  0  0  0
    8.9914    0.8004    6.3134 C   0  0  0  0  0  0  0  0  0  0  0  0
    8.3994   -4.8338    7.4245 C   0  0  0  0  0  0  0  0  0  0  0  0
    9.5502   -5.1927    6.4987 C   0  0  0  0  0  0  0  0  0  0  0  0
    1.8359   -4.4257   -2.0212 C   0  0  0  0  0  0  0  0  0  0  0  0
    3.0347   -3.9661   -2.0204 C   0  0  0  0  0  0  0  0  0  0  0  0
    5.5045   -2.4983   -0.4300 C   0  0  0  0  0  0  0  0  0  0  0  0
    6.4343   -1.9028   -1.1259 N   0  0  0  0  0  0  0  0  0  0  0  0
    6.4038   -0.5878   -0.7998 C   0  0  0  0  0  0  0  0  0  0  0  0
    5.4064   -0.4519    0.1075 C   0  0  0  0  0  0  0  0  0  0  0  0
    4.8909   -1.6354    0.2998 N   0  3  0  0  0  0  0  0  0  0  0  0
    3.7781   -1.9362    1.2120 C   0  0  0  0  0  0  0  0  0  0  0  0
    4.1671   -1.5512    2.6300 C   0  0  0  0  0  0  0  0  0  0  0  0
    7.3464   -2.5408   -2.0861 C   0  0  0  0  0  0  0  0  0  0  0  0
    8.1694   -3.6023   -1.3746 C   0  0  0  0  0  0  0  0  0  0  0  0
    5.7328   -6.2561   -0.3734 C   0  0  0  0  0  0  0  0  0  0  0  0
    6.8374   -6.9276   -0.0938 C   0  0  0  0  0  0  0  0  0  0  0  0
    7.8770   -5.9027    0.1840 C   0  0  0  0  0  0  0  0  0  0  0  0
    7.3254   -4.7280    0.0463 N   0  0  0  0  0  0  0  0  0  0  0  0
    6.0263   -4.9274   -0.2840 C   0  0  0  0  0  0  0  0  0  0  0  0
    5.8583   -6.2710   -0.3408 C   0  0  0  0  0  0  0  0  0  0  0  0
    7.0062   -6.8197   -0.0501 N   0  3  0  0  0  0  0  0  0  0  0  0
    7.2646   -8.2658    0.0018 C   0  0  0  0  0  0  0  0  0  0  0  0
    6.3612   -8.9048    1.0439 C   0  0  0  0  0  0  0  0  0  0  0  0
    7.9905   -3.4284    0.2178 C   0  0  0  0  0  0  0  0  0  0  0  0
    8.5285   -3.3177    1.6351 C   0  0  0  0  0  0  0  0  0  0  0  0
    9.1624   -5.0229    2.6430 C   0  0  0  0  0  0  0  0  0  0  0  0
    9.9271   -4.7487    3.6372 C   0  0  0  0  0  0  0  0  0  0  0  0
   13.5465   -5.7176    3.8601 C   0  0  0  0  0  0  0  0  0  0  0  0
   14.1842   -6.6390    4.5290 N   0  3  0  0  0  0  0  0  0  0  0  0
   15.3314   -6.9049    3.8582 C   0  0  0  0  0  0  0  0  0  0  0  0
   15.3192   -6.1020    2.7666 C   0  0  0  0  0  0  0  0  0  0  0  0
   14.2190   -5.4015    2.8105 N   0  0  0  0  0  0  0  0  0  0  0  0
   13.8106   -4.4029    1.8121 C   0  0  0  0  0  0  0  0  0  0  0  0
   14.8568   -3.3026    1.7385 C   0  0  0  0  0  0  0  0  0  0  0  0
   13.7402   -7.2716    5.7794 C   0  0  0  0  0  0  0  0  0  0  0  0
   13.5787   -6.2098    6.8550 C   0  0  0  0  0  0  0  0  0  0  0  0
   13.1351   -4.1740    6.6076 C   0  0  0  0  0  0  0  0  0  0  0  0
   12.5659   -3.4911    7.5867 C   0  0  0  0  0  0  0  0  0  0  0  0
    1.0600    0.0775    0.0199 Mn  0  1  0  0  0  0  0  0  0  0  0  0
    0.9309    0.0319   -0.0649 Cl  0  5  0  0  0  0  0  0  0  0  0  0
    1.0560    0.0510    0.0653 Cl  0  5  0  0  0  0  0  0  0  0  0  0
    0.9304    0.0419   -0.0584 Cl  0  5  0  0  0  0  0  0  0  0  0  0
    0.9355   -0.0745   -0.0170 Cl  0  5  0  0  0  0  0  0  0  0  0  0
    1.0204    0.0871    0.0446 Cl  0  5  0  0  0  0  0  0  0  0  0  0
    6.0597   -3.3323    6.6387 H   0  0  0  0  0  0  0  0  0  0  0  0
    6.4307   -0.7289    6.7745 H   0  0  0  0  0  0  0  0  0  0  0  0
    8.4500    0.5634    8.3604 H   0  0  0  0  0  0  0  0  0  0  0  0
   10.0085   -0.1110    7.9488 H   0  0  0  0  0  0  0  0  0  0  0  0
    7.9823    0.9332    5.9834 H   0  0  0  0  0  0  0  0  0  0  0  0
    9.4457    1.7571    6.4659 H   0  0  0  0  0  0  0  0  0  0  0  0
    9.5408    0.2588    5.5719 H   0  0  0  0  0  0  0  0  0  0  0  0
    8.6631   -5.0777    8.4324 H   0  0  0  0  0  0  0  0  0  0  0  0
    7.5277   -5.3854    7.1405 H   0  0  0  0  0  0  0  0  0  0  0  0
   10.4219   -4.6410    6.7828 H   0  0  0  0  0  0  0  0  0  0  0  0
    9.7524   -6.2409    6.5707 H   0  0  0  0  0  0  0  0  0  0  0  0
    9.2865   -4.9487    5.4908 H   0  0  0  0  0  0  0  0  0  0  0  0
    1.1284   -4.2848   -2.8115 H   0  0  0  0  0  0  0  0  0  0  0  0
    3.4646   -3.3821   -2.8072 H   0  0  0  0  0  0  0  0  0  0  0  0
    7.0378    0.1854   -1.1809 H   0  0  0  0  0  0  0  0  0  0  0  0
    5.0983    0.4577    0.5792 H   0  0  0  0  0  0  0  0  0  0  0  0
    2.9136   -1.3797    0.9157 H   0  0  0  0  0  0  0  0  0  0  0  0
    3.5589   -2.9828    1.1740 H   0  0  0  0  0  0  0  0  0  0  0  0
    4.3864   -0.5046    2.6680 H   0  0  0  0  0  0  0  0  0  0  0  0
    3.3571   -1.7702    3.2940 H   0  0  0  0  0  0  0  0  0  0  0  0
    5.0316   -2.1077    2.9263 H   0  0  0  0  0  0  0  0  0  0  0  0
    6.7777   -2.9963   -2.8697 H   0  0  0  0  0  0  0  0  0  0  0  0
    7.9996   -1.8025   -2.5022 H   0  0  0  0  0  0  0  0  0  0  0  0
    7.5162   -4.3406   -0.9585 H   0  0  0  0  0  0  0  0  0  0  0  0
    8.8333   -4.0667   -2.0735 H   0  0  0  0  0  0  0  0  0  0  0  0
    8.7381   -3.1469   -0.5910 H   0  0  0  0  0  0  0  0  0  0  0  0
    4.7848   -6.6890   -0.6159 H   0  0  0  0  0  0  0  0  0  0  0  0
    6.9578   -7.9905   -0.0721 H   0  0  0  0  0  0  0  0  0  0  0  0
    5.2846   -4.1773   -0.4633 H   0  0  0  0  0  0  0  0  0  0  0  0
    4.9519   -6.7868   -0.5799 H   0  0  0  0  0  0  0  0  0  0  0  0
    7.0653   -8.6984   -0.9564 H   0  0  0  0  0  0  0  0  0  0  0  0
    8.2878   -8.4362    0.2642 H   0  0  0  0  0  0  0  0  0  0  0  0
    5.3379   -8.7345    0.7815 H   0  0  0  0  0  0  0  0  0  0  0  0
    6.5492   -9.9575    1.0817 H   0  0  0  0  0  0  0  0  0  0  0  0
    6.5604   -8.4723    2.0021 H   0  0  0  0  0  0  0  0  0  0  0  0
    8.7992   -3.3470   -0.4780 H   0  0  0  0  0  0  0  0  0  0  0  0
    7.2871   -2.6417    0.0408 H   0  0  0  0  0  0  0  0  0  0  0  0
    9.2318   -4.1043    1.8121 H   0  0  0  0  0  0  0  0  0  0  0  0
    9.0126   -2.3716    1.7600 H   0  0  0  0  0  0  0  0  0  0  0  0
    7.7197   -3.3990    2.3310 H   0  0  0  0  0  0  0  0  0  0  0  0
    8.1326   -4.7422    2.5690 H   0  0  0  0  0  0  0  0  0  0  0  0
    9.6218   -4.2130    4.5118 H   0  0  0  0  0  0  0  0  0  0  0  0
   16.0914   -7.6057    4.1342 H   0  0  0  0  0  0  0  0  0  0  0  0
   16.0727   -6.0517    2.0085 H   0  0  0  0  0  0  0  0  0  0  0  0
   13.7188   -4.8723    0.8549 H   0  0  0  0  0  0  0  0  0  0  0  0
   12.8686   -3.9810    2.0942 H   0  0  0  0  0  0  0  0  0  0  0  0
   15.7988   -3.7245    1.4564 H   0  0  0  0  0  0  0  0  0  0  0  0
   14.5595   -2.5758    1.0118 H   0  0  0  0  0  0  0  0  0  0  0  0
   14.9485   -2.8332    2.6957 H   0  0  0  0  0  0  0  0  0  0  0  0
   12.8026   -7.7613    5.6180 H   0  0  0  0  0  0  0  0  0  0  0  0
   14.4683   -7.9899    6.0939 H   0  0  0  0  0  0  0  0  0  0  0  0
   12.8506   -5.4915    6.5406 H   0  0  0  0  0  0  0  0  0  0  0  0
   13.2555   -6.6703    7.7651 H   0  0  0  0  0  0  0  0  0  0  0  0
   14.5163   -5.7201    7.0164 H   0  0  0  0  0  0  0  0  0  0  0  0
   14.1507   -4.5074    6.5596 H   0  0  0  0  0  0  0  0  0  0  0  0
   13.0510   -3.1642    8.4826 H   0  0  0  0  0  0  0  0  0  0  0  0
  2  1  1  0  0  0  0
  3 59  1  0  0  0  0
  3  2  2  0  0  0  0
  4 50  1  0  0  0  0
  4  3  1  0  0  0  0
  5  4  2  0  0  0  0
  6  5  1  0  0  0  0
  7  6  1  0  0  0  0
  7 48  1  0  0  0  0
  8  7  2  0  0  0  0
  8 39  1  0  0  0  0
  9  8  1  0  0  0  0
  9 10  2  0  0  0  0
  9 38  1  0  0  0  0
 10 11  1  0  0  0  0
 11 12  2  0  0  0  0
 12 13  1  0  0  0  0
 13 14  1  0  0  0  0
 13 27  2  0  0  0  0
 14 15  1  0  0  0  0
 15 16  1  0  0  0  0
 16  1  2  0  0  0  0
 16 17  1  0  0  0  0
 18 17  2  0  0  0  0
 18 24  1  0  0  0  0
 19 18  1  0  0  0  0
 19 67  1  0  0  0  0
 20 19  2  0  0  0  0
 20 68  1  0  0  0  0
 21 20  1  0  0  0  0
 21 22  1  0  0  0  0
 21 17  1  0  0  0  0
 22 23  1  0  0  0  0
 22 69  1  0  0  0  0
 22 70  1  0  0  0  0
 23 71  1  0  0  0  0
 23 72  1  0  0  0  0
 23 73  1  0  0  0  0
 24 25  1  0  0  0  0
 24 74  1  0  0  0  0
 24 75  1  0  0  0  0
 25 76  1  0  0  0  0
 25 77  1  0  0  0  0
 25 78  1  0  0  0  0
 26 15  2  0  0  0  0
 26 79  1  0  0  0  0
 27 26  1  0  0  0  0
 27 80  1  0  0  0  0
 28 12  1  0  0  0  0
 29 28  1  0  0  0  0
 29 30  1  0  0  0  0
 29 35  1  0  0  0  0
 30 31  2  0  0  0  0
 30 81  1  0  0  0  0
 31 32  1  0  0  0  0
 31 82  1  0  0  0  0
 32 28  2  0  0  0  0
 32 33  1  0  0  0  0
 33 34  1  0  0  0  0
 33 83  1  0  0  0  0
 33 84  1  0  0  0  0
 34 85  1  0  0  0  0
 34 86  1  0  0  0  0
 34 87  1  0  0  0  0
 35 36  1  0  0  0  0
 35 88  1  0  0  0  0
 35 89  1  0  0  0  0
 36 90  1  0  0  0  0
 36 91  1  0  0  0  0
 36 92  1  0  0  0  0
 37 11  1  0  0  0  0
 37 93  1  0  0  0  0
 38 37  2  0  0  0  0
 38 94  1  0  0  0  0
 40 39  1  0  0  0  0
 40 46  1  0  0  0  0
 41 40  1  0  0  0  0
 41 42  2  0  0  0  0
 41 95  1  0  0  0  0
 42 43  1  0  0  0  0
 42 96  1  0  0  0  0
 43 44  1  0  0  0  0
 43 39  2  0  0  0  0
 44 45  1  0  0  0  0
 44 97  1  0  0  0  0
 44 98  1  0  0  0  0
 45 99  1  0  0  0  0
 45100  1  0  0  0  0
 45101  1  0  0  0  0
 46 47  1  0  0  0  0
 46102  1  0  0  0  0
 46103  1  0  0  0  0
 47104  1  0  0  0  0
 47105  1  0  0  0  0
 47106  1  0  0  0  0
 48 49  2  0  0  0  0
 48107  1  0  0  0  0
 49  5  1  0  0  0  0
 49108  1  0  0  0  0
 51 50  2  0  0  0  0
 51 57  1  0  0  0  0
 52 51  1  0  0  0  0
 52109  1  0  0  0  0
 53 52  2  0  0  0  0
 53110  1  0  0  0  0
 54 53  1  0  0  0  0
 54 55  1  0  0  0  0
 54 50  1  0  0  0  0
 55 56  1  0  0  0  0
 55111  1  0  0  0  0
 55112  1  0  0  0  0
 56113  1  0  0  0  0
 56114  1  0  0  0  0
 56115  1  0  0  0  0
 57 58  1  0  0  0  0
 57116  1  0  0  0  0
 57117  1  0  0  0  0
 58118  1  0  0  0  0
 58119  1  0  0  0  0
 58120  1  0  0  0  0
 59 60  2  0  0  0  0
 59121  1  0  0  0  0
 60  1  1  0  0  0  0
 60122  1  0  0  0  0
M  CHG  8   6  -1  14  -1  18   1  32   1  43   1  51   1  61   3  62  -1
M  CHG  4  63  -1  64  -1  65  -1  66  -1
M  END
>  <DRUGBANK_ID>
DB05874

>  <COMMON_NAME>
AEOL-10150

>  <CAS_NUMBER>
286475-30-7

>  <UNII>
KPKO7W46E8

$$$$
