
 OpenBabel10282417203D

 17 16  0  0  0  0  0  0  0  0999 V2000
    0.9446    0.0832    0.0028 C   0  0  0  0  0  0  0  0  0  0  0  0
   -1.9164   -2.3319   -0.8319 C   0  0  0  0  0  0  0  0  0  0  0  0
   -2.3866    1.4991   -0.2702 C   0  0  0  0  0  0  0  0  0  0  0  0
   -0.3592    0.0832    0.0028 C   0  0  0  0  0  0  0  0  0  0  0  0
   -2.3844   -0.8980   -1.0701 C   0  0  0  0  0  0  0  0  0  0  0  0
   -1.8792    0.0832    0.0028 C   0  0  3  0  0  0  0  0  0  0  0  0
   -2.3314   -0.3218    1.2902 O   0  0  0  0  0  0  0  0  0  0  0  0
    2.0099    0.0806    0.0104 H   0  0  0  0  0  0  0  0  0  0  0  0
   -2.2645   -2.7041    0.1362 H   0  0  0  0  0  0  0  0  0  0  0  0
   -2.3042   -2.9918   -1.6128 H   0  0  0  0  0  0  0  0  0  0  0  0
   -0.8243   -2.4055   -0.8531 H   0  0  0  0  0  0  0  0  0  0  0  0
   -2.0390    1.8754   -1.2387 H   0  0  0  0  0  0  0  0  0  0  0  0
   -3.4818    1.5316   -0.2583 H   0  0  0  0  0  0  0  0  0  0  0  0
   -2.0448    2.1940    0.5062 H   0  0  0  0  0  0  0  0  0  0  0  0
   -3.4813   -0.8986   -1.0818 H   0  0  0  0  0  0  0  0  0  0  0  0
   -2.0487   -0.5763   -2.0646 H   0  0  0  0  0  0  0  0  0  0  0  0
   -3.3035   -0.3467    1.2616 H   0  0  0  0  0  0  0  0  0  0  0  0
  1  8  1  0  0  0  0
  2  9  1  0  0  0  0
  2 10  1  0  0  0  0
  2 11  1  0  0  0  0
  3 12  1  0  0  0  0
  3 13  1  0  0  0  0
  3 14  1  0  0  0  0
  4  1  3  0  0  0  0
  5  2  1  0  0  0  0
  5 15  1  0  0  0  0
  5 16  1  0  0  0  0
  6  3  1  0  0  0  0
  6  4  1  0  0  0  0
  6  5  1  0  0  0  0
  7  6  1  0  0  0  0
  7 17  1  0  0  0  0
M  END
>  <DRUGBANK_ID>
DB13733

>  <COMMON_NAME>
Methylpentynol

>  <CAS_NUMBER>
77-75-8

>  <UNII>
B017BC5B1N

>  <SYNONYMS>
Meparfynol; Methylpentynol

$$$$
