
 OpenBabel10282417133D

 72 71  0  0  1  0  0  0  0  0999 V2000
   -1.4655    0.3145   -4.0602 C   0  0  0  0  0  0  0  0  0  0  0  0
   -7.6393    7.1458   -0.7544 C   0  0  0  0  0  0  0  0  0  0  0  0
   -1.3723    6.8735    2.9129 C   0  0  0  0  0  0  0  0  0  0  0  0
   -1.3814    8.7798    1.4356 C   0  0  0  0  0  0  0  0  0  0  0  0
    0.2436    7.3948    0.6291 C   0  0  0  0  0  0  0  0  0  0  0  0
   -1.9536    1.6757   -3.6042 C   0  0  0  0  0  0  0  0  0  0  0  0
   -6.6749    8.2498   -0.3451 C   0  0  0  0  0  0  0  0  0  0  0  0
   -1.4222    1.9820   -2.2054 C   0  0  0  0  0  0  0  0  0  0  0  0
   -5.7823    7.7879    0.8077 C   0  0  0  0  0  0  0  0  0  0  0  0
    0.1133    2.0615   -2.1748 C   0  0  0  0  0  0  0  0  0  0  0  0
   -4.9509    6.5780    0.4057 C   0  0  0  0  0  0  0  0  0  0  0  0
    0.7069    3.0857   -3.1480 C   0  0  0  0  0  0  0  0  0  0  0  0
   -4.2390    6.7965   -0.9221 C   0  0  0  0  0  0  0  0  0  0  0  0
   -1.8285    5.1158   -0.1991 C   0  0  0  0  0  0  0  0  0  0  0  0
    0.8129    8.1244    2.7318 C   0  0  0  0  0  0  0  0  0  0  0  0
    1.6472    6.8424    3.1553 C   0  0  0  0  0  0  0  0  0  0  0  0
   -0.6719    4.2825    0.4506 C   0  0  0  0  0  0  0  0  0  0  0  0
   -1.6947    5.8477   -2.8025 C   0  0  0  0  0  0  0  0  0  0  0  0
   -1.4765    6.1579   -1.3455 C   0  0  1  0  0  0  0  0  0  0  0  0
    0.2641    4.4936   -2.9254 C   0  0  0  0  0  0  0  0  0  0  0  0
   -3.2178    7.8867   -0.8787 C   0  0  0  0  0  0  0  0  0  0  0  0
   -0.4037    7.7897    1.9307 N   0  3  0  0  0  0  0  0  0  0  0  0
    1.0239    5.4272   -2.6014 O   0  0  0  0  0  0  0  0  0  0  0  0
   -3.4634    9.0470   -0.5683 O   0  0  0  0  0  0  0  0  0  0  0  0
   -0.0292    4.8248    2.6070 O   0  0  0  0  0  0  0  0  0  0  0  0
    1.6530    4.0025    0.8095 O   0  5  0  0  0  0  0  0  0  0  0  0
   -1.0711    4.6230   -3.1539 O   0  0  0  0  0  0  0  0  0  0  0  0
    2.0375    5.8844    2.1140 O   0  0  0  0  0  0  0  0  0  0  0  0
   -1.9466    7.5173   -1.1138 O   0  0  0  0  0  0  0  0  0  0  0  0
    0.7208    5.1059    1.3057 P   0  0  3  0  0  0  0  0  0  0  0  0
   -0.4045    6.2859   -1.3241 H   0  0  0  0  0  0  0  0  0  0  0  0
   -0.3729    0.2688   -4.1011 H   0  0  0  0  0  0  0  0  0  0  0  0
   -1.8325    0.0889   -5.0616 H   0  0  0  0  0  0  0  0  0  0  0  0
   -1.8105   -0.4544   -3.3632 H   0  0  0  0  0  0  0  0  0  0  0  0
   -8.2698    6.8722    0.0958 H   0  0  0  0  0  0  0  0  0  0  0  0
   -8.2679    7.4731   -1.5833 H   0  0  0  0  0  0  0  0  0  0  0  0
   -7.1216    6.2399   -1.0902 H   0  0  0  0  0  0  0  0  0  0  0  0
   -1.9696    7.5913    3.4879 H   0  0  0  0  0  0  0  0  0  0  0  0
   -2.0789    6.2518    2.3587 H   0  0  0  0  0  0  0  0  0  0  0  0
   -0.8515    6.3320    3.7021 H   0  0  0  0  0  0  0  0  0  0  0  0
   -0.9844    9.2963    0.5590 H   0  0  0  0  0  0  0  0  0  0  0  0
   -2.2287    8.1502    1.1598 H   0  0  0  0  0  0  0  0  0  0  0  0
   -1.6955    9.4411    2.2246 H   0  0  0  0  0  0  0  0  0  0  0  0
    0.3262    8.0504   -0.2416 H   0  0  0  0  0  0  0  0  0  0  0  0
    1.2967    7.1559    0.7227 H   0  0  0  0  0  0  0  0  0  0  0  0
   -0.3928    6.6058    0.3891 H   0  0  0  0  0  0  0  0  0  0  0  0
   -1.6389    2.4374   -4.3260 H   0  0  0  0  0  0  0  0  0  0  0  0
   -3.0478    1.7088   -3.6003 H   0  0  0  0  0  0  0  0  0  0  0  0
   -7.2186    9.1489   -0.0499 H   0  0  0  0  0  0  0  0  0  0  0  0
   -6.0785    8.5511   -1.2145 H   0  0  0  0  0  0  0  0  0  0  0  0
   -1.8734    2.9110   -1.8581 H   0  0  0  0  0  0  0  0  0  0  0  0
   -1.7732    1.2279   -1.4916 H   0  0  0  0  0  0  0  0  0  0  0  0
   -6.3876    7.5374    1.6851 H   0  0  0  0  0  0  0  0  0  0  0  0
   -5.1214    8.6027    1.1246 H   0  0  0  0  0  0  0  0  0  0  0  0
    0.4677    2.2360   -1.1569 H   0  0  0  0  0  0  0  0  0  0  0  0
    0.5323    1.0786   -2.4072 H   0  0  0  0  0  0  0  0  0  0  0  0
   -5.5906    5.6949    0.2920 H   0  0  0  0  0  0  0  0  0  0  0  0
   -4.2636    6.3222    1.2200 H   0  0  0  0  0  0  0  0  0  0  0  0
    1.7979    3.0615   -3.0754 H   0  0  0  0  0  0  0  0  0  0  0  0
    0.4626    2.8476   -4.1869 H   0  0  0  0  0  0  0  0  0  0  0  0
   -4.8828    7.0199   -1.7708 H   0  0  0  0  0  0  0  0  0  0  0  0
   -3.8213    5.8435   -1.1970 H   0  0  0  0  0  0  0  0  0  0  0  0
   -2.3167    5.6473    0.6089 H   0  0  0  0  0  0  0  0  0  0  0  0
   -2.5784    4.4088   -0.5626 H   0  0  0  0  0  0  0  0  0  0  0  0
    0.4635    8.7182    3.5739 H   0  0  0  0  0  0  0  0  0  0  0  0
    1.4287    8.7560    2.0807 H   0  0  0  0  0  0  0  0  0  0  0  0
    1.1439    6.2986    3.9600 H   0  0  0  0  0  0  0  0  0  0  0  0
    2.5708    7.2168    3.6023 H   0  0  0  0  0  0  0  0  0  0  0  0
   -1.1121    3.4908    1.0704 H   0  0  0  0  0  0  0  0  0  0  0  0
   -0.2297    3.7953   -0.4009 H   0  0  0  0  0  0  0  0  0  0  0  0
   -1.2991    6.6711   -3.4132 H   0  0  0  0  0  0  0  0  0  0  0  0
   -2.7644    5.8012   -3.0181 H   0  0  0  0  0  0  0  0  0  0  0  0
  1 32  1  0  0  0  0
  1 33  1  0  0  0  0
  1 34  1  0  0  0  0
  2 35  1  0  0  0  0
  2 36  1  0  0  0  0
  2 37  1  0  0  0  0
  3 38  1  0  0  0  0
  3 39  1  0  0  0  0
  3 40  1  0  0  0  0
  4 41  1  0  0  0  0
  4 42  1  0  0  0  0
  4 43  1  0  0  0  0
  5 44  1  0  0  0  0
  5 45  1  0  0  0  0
  5 46  1  0  0  0  0
  6  1  1  0  0  0  0
  6 47  1  0  0  0  0
  6 48  1  0  0  0  0
  7  2  1  0  0  0  0
  7 49  1  0  0  0  0
  7 50  1  0  0  0  0
  8  6  1  0  0  0  0
  8 51  1  0  0  0  0
  8 52  1  0  0  0  0
  9  7  1  0  0  0  0
  9 53  1  0  0  0  0
  9 54  1  0  0  0  0
 10  8  1  0  0  0  0
 10 55  1  0  0  0  0
 10 56  1  0  0  0  0
 11  9  1  0  0  0  0
 11 57  1  0  0  0  0
 11 58  1  0  0  0  0
 12 10  1  0  0  0  0
 12 59  1  0  0  0  0
 12 60  1  0  0  0  0
 13 11  1  0  0  0  0
 13 61  1  0  0  0  0
 13 62  1  0  0  0  0
 14 63  1  0  0  0  0
 14 64  1  0  0  0  0
 15 65  1  0  0  0  0
 15 66  1  0  0  0  0
 16 15  1  0  0  0  0
 16 67  1  0  0  0  0
 16 68  1  0  0  0  0
 17 14  1  0  0  0  0
 17 69  1  0  0  0  0
 17 70  1  0  0  0  0
 18 71  1  0  0  0  0
 18 72  1  0  0  0  0
 19 29  1  0  0  0  0
 19 31  1  1  0  0  0
 19 18  1  0  0  0  0
 19 14  1  0  0  0  0
 20 12  1  0  0  0  0
 21 13  1  0  0  0  0
 22  3  1  0  0  0  0
 22  4  1  0  0  0  0
 22  5  1  0  0  0  0
 22 15  1  0  0  0  0
 23 20  2  0  0  0  0
 24 21  2  0  0  0  0
 27 18  1  0  0  0  0
 27 20  1  0  0  0  0
 28 16  1  0  0  0  0
 29 21  1  0  0  0  0
 30 17  1  0  0  0  0
 30 25  2  0  0  0  0
 30 26  1  0  0  0  0
 30 28  1  0  0  0  0
M  CHG  2  22   1  26  -1
M  END
>  <DRUGBANK_ID>
DB03827

>  <SECONDARY_ACCESSION_NUMBERS>
EXPT00186

>  <COMMON_NAME>
(3s)-3,4-Di-N-Hexanoyloxybutyl-1-Phosphocholine

$$$$
