
 OpenBabel10282417213D

 54 57  0  0  0  0  0  0  0  0999 V2000
    1.3640   -0.2665    0.0035 C   0  0  0  0  0  0  0  0  0  0  0  0
    0.9172    1.0394    0.0041 C   0  0  0  0  0  0  0  0  0  0  0  0
   -0.4506    1.3001    0.0429 C   0  0  0  0  0  0  0  0  0  0  0  0
   -1.4241    0.2934   -0.0337 C   0  0  0  0  0  0  0  0  0  0  0  0
   -0.9583   -1.0299   -0.0330 C   0  0  0  0  0  0  0  0  0  0  0  0
    0.4291   -1.3019    0.0021 C   0  0  0  0  0  0  0  0  0  0  0  0
   -2.8271    0.6020   -0.1526 N   0  0  0  0  0  0  0  0  0  0  0  0
   -3.3224    1.9002   -0.1816 C   0  0  0  0  0  0  0  0  0  0  0  0
   -4.6834    2.0522   -0.3977 N   0  0  0  0  0  0  0  0  0  0  0  0
   -5.2269    3.3811   -0.4978 C   0  0  0  0  0  0  0  0  0  0  0  0
   -2.6301    2.9049    0.0220 O   0  0  0  0  0  0  0  0  0  0  0  0
   -6.4243    3.7331    0.1397 C   0  0  0  0  0  0  0  0  0  0  0  0
   -6.9730    5.0334   -0.0316 C   0  0  0  0  0  0  0  0  0  0  0  0
   -6.2572    6.0059   -0.7561 C   0  0  0  0  0  0  0  0  0  0  0  0
   -5.0805    5.6598   -1.3995 C   0  0  0  0  0  0  0  0  0  0  0  0
   -4.5880    4.3650   -1.2803 C   0  0  0  0  0  0  0  0  0  0  0  0
   -3.5046    4.0643   -2.0116 F   0  0  0  0  0  0  0  0  0  0  0  0
   -6.8140    7.8257   -0.8875 Br  0  0  0  0  0  0  0  0  0  0  0  0
   -8.3555    5.3186    0.4039 C   0  0  0  0  0  0  0  0  0  0  0  0
   -9.3982    5.6053   -0.6501 C   0  0  0  0  0  0  0  0  0  0  0  0
  -10.6799    5.9352   -0.2234 N   0  0  0  0  0  0  0  0  0  0  0  0
   -8.6769    5.3409    1.7051 C   0  0  0  0  0  0  0  0  0  0  0  0
  -10.0484    5.6173    2.1045 C   0  0  0  0  0  0  0  0  0  0  0  0
  -11.0223    5.9355    1.1638 C   0  0  0  0  0  0  0  0  0  0  0  0
  -12.3207    6.1911    1.6143 C   0  0  0  0  0  0  0  0  0  0  0  0
  -12.6736    5.9061    2.9255 C   0  0  0  0  0  0  0  0  0  0  0  0
  -11.7289    5.6355    3.8408 N   0  0  0  0  0  0  0  0  0  0  0  0
  -10.4433    5.5559    3.4297 C   0  0  0  0  0  0  0  0  0  0  0  0
   -9.0869    5.5290   -1.8462 O   0  0  0  0  0  0  0  0  0  0  0  0
  -11.7010    6.1905   -1.2426 C   0  0  0  0  0  0  0  0  0  0  0  0
  -12.7915    5.1225   -1.2925 C   0  0  0  0  0  0  0  0  0  0  0  0
  -14.0087    6.0011    3.2901 N   0  0  0  0  0  0  0  0  0  0  0  0
  -14.4280    5.5307    4.5935 C   0  0  0  0  0  0  0  0  0  0  0  0
    2.4324   -0.4636    0.0180 H   0  0  0  0  0  0  0  0  0  0  0  0
    1.6073    1.8783   -0.0248 H   0  0  0  0  0  0  0  0  0  0  0  0
   -0.6981    2.3477    0.1318 H   0  0  0  0  0  0  0  0  0  0  0  0
   -1.6377   -1.8777   -0.0504 H   0  0  0  0  0  0  0  0  0  0  0  0
    0.7943   -2.3267    0.0147 H   0  0  0  0  0  0  0  0  0  0  0  0
   -3.4575   -0.1757   -0.2944 H   0  0  0  0  0  0  0  0  0  0  0  0
   -5.3109    1.2842   -0.2115 H   0  0  0  0  0  0  0  0  0  0  0  0
   -6.9287    3.0230    0.7914 H   0  0  0  0  0  0  0  0  0  0  0  0
   -4.5515    6.3675   -2.0287 H   0  0  0  0  0  0  0  0  0  0  0  0
   -7.9416    5.1444    2.4780 H   0  0  0  0  0  0  0  0  0  0  0  0
  -13.0920    6.5576    0.9506 H   0  0  0  0  0  0  0  0  0  0  0  0
   -9.7225    5.4208    4.2301 H   0  0  0  0  0  0  0  0  0  0  0  0
  -12.1135    7.1916   -1.0735 H   0  0  0  0  0  0  0  0  0  0  0  0
  -11.2395    6.2259   -2.2371 H   0  0  0  0  0  0  0  0  0  0  0  0
  -13.3569    5.0319   -0.3636 H   0  0  0  0  0  0  0  0  0  0  0  0
  -13.5190    5.3626   -2.0718 H   0  0  0  0  0  0  0  0  0  0  0  0
  -12.3620    4.1360   -1.4846 H   0  0  0  0  0  0  0  0  0  0  0  0
  -14.6936    5.9175    2.5489 H   0  0  0  0  0  0  0  0  0  0  0  0
  -15.0290    6.3229    5.0454 H   0  0  0  0  0  0  0  0  0  0  0  0
  -15.0570    4.6348    4.5179 H   0  0  0  0  0  0  0  0  0  0  0  0
  -13.6074    5.3032    5.2802 H   0  0  0  0  0  0  0  0  0  0  0  0
  1  2  2  0  0  0  0
  1 34  1  0  0  0  0
  2  3  1  0  0  0  0
  2 35  1  0  0  0  0
  3  4  2  0  0  0  0
  3 36  1  0  0  0  0
  4  5  1  0  0  0  0
  4  7  1  0  0  0  0
  5  6  2  0  0  0  0
  5 37  1  0  0  0  0
  6  1  1  0  0  0  0
  6 38  1  0  0  0  0
  7  8  1  0  0  0  0
  7 39  1  0  0  0  0
  8  9  1  0  0  0  0
  8 11  2  0  0  0  0
  9 10  1  0  0  0  0
  9 40  1  0  0  0  0
 10 12  2  0  0  0  0
 12 13  1  0  0  0  0
 12 41  1  0  0  0  0
 13 19  1  0  0  0  0
 13 14  2  0  0  0  0
 14 18  1  0  0  0  0
 14 15  1  0  0  0  0
 15 16  2  0  0  0  0
 15 42  1  0  0  0  0
 16 10  1  0  0  0  0
 16 17  1  0  0  0  0
 19 20  1  0  0  0  0
 19 22  2  0  0  0  0
 20 21  1  0  0  0  0
 20 29  2  0  0  0  0
 21 24  1  0  0  0  0
 21 30  1  0  0  0  0
 22 43  1  0  0  0  0
 23 22  1  0  0  0  0
 23 24  2  0  0  0  0
 23 28  1  0  0  0  0
 24 25  1  0  0  0  0
 25 26  2  0  0  0  0
 25 44  1  0  0  0  0
 26 27  1  0  0  0  0
 26 32  1  0  0  0  0
 27 28  2  0  0  0  0
 28 45  1  0  0  0  0
 30 31  1  0  0  0  0
 30 46  1  0  0  0  0
 30 47  1  0  0  0  0
 31 48  1  0  0  0  0
 31 49  1  0  0  0  0
 31 50  1  0  0  0  0
 32 33  1  0  0  0  0
 32 51  1  0  0  0  0
 33 52  1  0  0  0  0
 33 53  1  0  0  0  0
 33 54  1  0  0  0  0
M  END
>  <DRUGBANK_ID>
DB14840

>  <COMMON_NAME>
Ripretinib

>  <CAS_NUMBER>
1442472-39-0

>  <UNII>
9XW757O13D

>  <SYNONYMS>
Ripretinib

$$$$
