
 OpenBabel10282417183D

 54 57  0  0  1  0  0  0  0  0999 V2000
   -0.1005    1.9202    0.9914 C   0  0  0  0  0  0  0  0  0  0  0  0
   -4.4034    2.8713    6.1247 C   0  0  0  0  0  0  0  0  0  0  0  0
   -0.0425   -0.9843    3.1077 C   0  0  0  0  0  0  0  0  0  0  0  0
   -1.2754   -0.7375    4.0239 C   0  0  0  0  0  0  0  0  0  0  0  0
   -1.9641   -0.7475   -0.4681 C   0  0  0  0  0  0  0  0  0  0  0  0
   -1.6298    1.4009    6.4042 C   0  0  0  0  0  0  0  0  0  0  0  0
   -2.2139    0.1512    0.5043 C   0  0  0  0  0  0  0  0  0  0  0  0
   -0.8788    2.6590    5.8646 C   0  0  0  0  0  0  0  0  0  0  0  0
    0.2588   -0.8472    0.5730 C   0  0  0  0  0  0  0  0  0  0  0  0
   -3.5457    3.1508    3.7847 C   0  0  0  0  0  0  0  0  0  0  0  0
   -1.1495    4.1437    8.3759 C   0  0  0  0  0  0  0  0  0  0  0  0
   -0.1976   -0.3366    1.7484 C   0  0  0  0  0  0  0  0  0  0  0  0
   -0.5381   -0.3438   -0.6214 C   0  0  0  0  0  0  0  0  0  0  0  0
   -2.5662    1.2904    5.2338 C   0  0  1  0  0  0  0  0  0  0  0  0
   -1.5230    0.7873    4.1102 C   0  0  1  0  0  0  0  0  0  0  0  0
   -2.3870    2.8802    2.8210 C   0  0  1  0  0  0  0  0  0  0  0  0
   -2.2514    4.2936    7.3335 C   0  0  0  0  0  0  0  0  0  0  0  0
   -1.1612    0.8485    1.5301 C   0  0  2  0  0  0  0  0  0  0  0  0
   -3.1431    2.8160    5.2246 C   0  0  2  0  0  0  0  0  0  0  0  0
   -1.9725    3.6911    5.9418 C   0  0  2  0  0  0  0  0  0  0  0  0
   -1.9928    1.3496    2.7932 C   0  0  2  0  0  0  0  0  0  0  0  0
   -3.2292    0.6977    2.7329 F   0  0  0  0  0  0  0  0  0  0  0  0
   -0.4233    5.3339    8.6208 O   0  0  0  0  0  0  0  0  0  0  0  0
   -0.2350    0.4159   -1.5319 O   0  0  0  0  0  0  0  0  0  0  0  0
   -2.8162    3.2389    1.5168 O   0  0  0  0  0  0  0  0  0  0  0  0
   -3.1797    5.0830    7.5283 O   0  0  0  0  0  0  0  0  0  0  0  0
   -1.3406    4.8370    5.3654 O   0  0  0  0  0  0  0  0  0  0  0  0
   -3.3997    0.5785    5.2982 H   0  0  0  0  0  0  0  0  0  0  0  0
   -0.4856    1.0702    4.3445 H   0  0  0  0  0  0  0  0  0  0  0  0
   -1.5939    3.5961    3.0727 H   0  0  0  0  0  0  0  0  0  0  0  0
    0.1479    1.7778   -0.0525 H   0  0  0  0  0  0  0  0  0  0  0  0
    0.8736    1.8236    1.4934 H   0  0  0  0  0  0  0  0  0  0  0  0
   -0.3324    2.9778    0.9622 H   0  0  0  0  0  0  0  0  0  0  0  0
   -4.6923    3.9067    6.3226 H   0  0  0  0  0  0  0  0  0  0  0  0
   -5.2802    2.3996    5.6751 H   0  0  0  0  0  0  0  0  0  0  0  0
   -4.2210    2.3798    7.0881 H   0  0  0  0  0  0  0  0  0  0  0  0
    0.8662   -0.6321    3.6241 H   0  0  0  0  0  0  0  0  0  0  0  0
    0.0971   -2.0617    2.9679 H   0  0  0  0  0  0  0  0  0  0  0  0
   -1.0805   -1.1694    5.0166 H   0  0  0  0  0  0  0  0  0  0  0  0
   -2.1576   -1.2422    3.6271 H   0  0  0  0  0  0  0  0  0  0  0  0
   -1.6993   -1.4462   -1.2538 H   0  0  0  0  0  0  0  0  0  0  0  0
   -2.1345    1.6067    7.3547 H   0  0  0  0  0  0  0  0  0  0  0  0
   -1.2012    0.4038    6.5181 H   0  0  0  0  0  0  0  0  0  0  0  0
   -3.2570    0.1814    0.8104 H   0  0  0  0  0  0  0  0  0  0  0  0
    0.1404    2.9340    6.1360 H   0  0  0  0  0  0  0  0  0  0  0  0
   -0.7081    2.7164    4.7725 H   0  0  0  0  0  0  0  0  0  0  0  0
    0.7654   -1.7900    0.4934 H   0  0  0  0  0  0  0  0  0  0  0  0
   -3.9513    4.1701    3.7258 H   0  0  0  0  0  0  0  0  0  0  0  0
   -4.3902    2.5329    3.4299 H   0  0  0  0  0  0  0  0  0  0  0  0
   -1.6195    3.8096    9.3017 H   0  0  0  0  0  0  0  0  0  0  0  0
   -0.4331    3.3771    8.0872 H   0  0  0  0  0  0  0  0  0  0  0  0
   -0.1414    5.7458    7.7876 H   0  0  0  0  0  0  0  0  0  0  0  0
   -2.0058    3.2694    0.9916 H   0  0  0  0  0  0  0  0  0  0  0  0
   -0.5650    4.9973    5.9526 H   0  0  0  0  0  0  0  0  0  0  0  0
  1 31  1  0  0  0  0
  1 32  1  0  0  0  0
  1 33  1  0  0  0  0
  2 34  1  0  0  0  0
  2 35  1  0  0  0  0
  2 36  1  0  0  0  0
  3 37  1  0  0  0  0
  3 38  1  0  0  0  0
  4  3  1  0  0  0  0
  4 39  1  0  0  0  0
  4 40  1  0  0  0  0
  5 41  1  0  0  0  0
  6 42  1  0  0  0  0
  6 43  1  0  0  0  0
  7  5  2  0  0  0  0
  7 44  1  0  0  0  0
  8  6  1  0  0  0  0
  8 45  1  0  0  0  0
  8 46  1  0  0  0  0
  9 47  1  0  0  0  0
 10 48  1  0  0  0  0
 10 49  1  0  0  0  0
 11 50  1  0  0  0  0
 11 51  1  0  0  0  0
 12  3  1  0  0  0  0
 12  9  2  0  0  0  0
 13  5  1  0  0  0  0
 13  9  1  0  0  0  0
 14  6  1  0  0  0  0
 14 28  1  6  0  0  0
 15  4  1  0  0  0  0
 15 14  1  0  0  0  0
 15 29  1  6  0  0  0
 16 10  1  0  0  0  0
 16 30  1  1  0  0  0
 16 25  1  0  0  0  0
 17 11  1  0  0  0  0
 18  7  1  0  0  0  0
 18 12  1  0  0  0  0
 18  1  1  1  0  0  0
 19 10  1  0  0  0  0
 19 14  1  0  0  0  0
 19  2  1  1  0  0  0
 20  8  1  0  0  0  0
 20 19  1  0  0  0  0
 20 27  1  6  0  0  0
 20 17  1  0  0  0  0
 21 15  1  0  0  0  0
 21 16  1  0  0  0  0
 21 18  1  0  0  0  0
 21 22  1  1  0  0  0
 23 11  1  0  0  0  0
 23 52  1  0  0  0  0
 24 13  2  0  0  0  0
 25 53  1  0  0  0  0
 26 17  2  0  0  0  0
 27 54  1  0  0  0  0
M  END
>  <DRUGBANK_ID>
DB11522

>  <COMMON_NAME>
Isoflupredone

>  <CAS_NUMBER>
338-95-4

>  <UNII>
HYS0B45Z2S

>  <SYNONYMS>
9-fluoroprednisolone; delta-Fluorocortisone; Isoflupredona; Isoflupredone; Isoflupredonum

$$$$
