
 OpenBabel10282417193D

 56 58  0  0  1  0  0  0  0  0999 V2000
    1.1731    0.1613    0.0471 C   0  0  0  0  0  0  0  0  0  0  0  0
    0.6028   -1.2336    0.0986 C   0  0  1  0  0  0  0  0  0  0  0  0
    1.2589   -2.0344    1.2504 C   0  0  0  0  0  0  0  0  0  0  0  0
    0.7881   -1.6441    2.4506 F   0  0  0  0  0  0  0  0  0  0  0  0
    1.1267   -3.3707    1.2061 F   0  0  0  0  0  0  0  0  0  0  0  0
    2.5977   -1.8384    1.2337 F   0  0  0  0  0  0  0  0  0  0  0  0
   -0.8527   -1.2984   -0.0310 O   0  0  0  0  0  0  0  0  0  0  0  0
   -1.6680   -0.9713    1.0110 C   0  0  0  0  0  0  0  0  0  0  0  0
   -1.4497    0.2652    1.6280 C   0  0  0  0  0  0  0  0  0  0  0  0
   -2.2378    0.7521    2.6473 C   0  0  0  0  0  0  0  0  0  0  0  0
   -3.3720    0.0538    2.9959 C   0  0  0  0  0  0  0  0  0  0  0  0
   -3.6920   -1.1540    2.3254 C   0  0  0  0  0  0  0  0  0  0  0  0
   -2.8017   -1.7364    1.3647 C   0  0  0  0  0  0  0  0  0  0  0  0
   -3.1743   -3.1127    0.7761 C   0  0  0  0  0  0  0  0  0  0  0  0
   -4.2577   -3.6108    1.0795 O   0  0  0  0  0  0  0  0  0  0  0  0
   -2.3220   -3.7602   -0.1225 N   0  0  0  0  0  0  0  0  0  0  0  0
   -1.0020   -4.2595    0.2526 C   0  0  0  0  0  0  0  0  0  0  0  0
   -0.0344   -3.9472   -0.9105 C   0  0  0  0  0  0  0  0  0  0  0  0
   -0.4935   -4.4564   -2.1862 N   0  0  0  0  0  0  0  0  0  0  0  0
   -1.7914   -3.8824   -2.5552 C   0  0  0  0  0  0  0  0  0  0  0  0
   -2.7693   -4.3334   -1.4075 C   0  0  0  0  0  0  0  0  0  0  0  0
    0.5348   -4.8370   -3.0266 C   0  0  0  0  0  0  0  0  0  0  0  0
    1.2712   -5.9610   -2.6165 C   0  0  0  0  0  0  0  0  0  0  0  0
    2.2211   -6.5292   -3.4371 C   0  0  0  0  0  0  0  0  0  0  0  0
    2.4931   -5.9277   -4.6591 C   0  0  0  0  0  0  0  0  0  0  0  0
    1.8028   -4.7562   -4.9661 C   0  0  0  0  0  0  0  0  0  0  0  0
    0.8192   -4.2087   -4.1893 N   0  0  0  0  0  0  0  0  0  0  0  0
    3.4631   -6.5379   -5.6192 C   0  0  0  0  0  0  0  0  0  0  0  0
    2.8928   -6.8327   -6.8180 F   0  0  0  0  0  0  0  0  0  0  0  0
    4.5180   -5.7246   -5.8881 F   0  0  0  0  0  0  0  0  0  0  0  0
    3.9988   -7.7072   -5.1670 F   0  0  0  0  0  0  0  0  0  0  0  0
    1.0170   -6.5386   -1.4306 F   0  0  0  0  0  0  0  0  0  0  0  0
   -4.3673    0.6840    4.3347 S   0  0  0  0  0  0  0  0  0  0  0  0
   -5.6111    1.1298    3.7630 O   0  0  0  0  0  0  0  0  0  0  0  0
   -4.3179   -0.3361    5.3770 O   0  0  0  0  0  0  0  0  0  0  0  0
   -3.5298    2.1224    4.9899 C   0  0  0  0  0  0  0  0  0  0  0  0
    1.1388    0.6184    1.0321 H   0  0  0  0  0  0  0  0  0  0  0  0
    0.6479    0.7676   -0.6950 H   0  0  0  0  0  0  0  0  0  0  0  0
    2.2327    0.1019   -0.2117 H   0  0  0  0  0  0  0  0  0  0  0  0
    0.9898   -1.6133   -0.8575 H   0  0  0  0  0  0  0  0  0  0  0  0
   -0.6750    0.9384    1.3110 H   0  0  0  0  0  0  0  0  0  0  0  0
   -1.9346    1.6895    3.0973 H   0  0  0  0  0  0  0  0  0  0  0  0
   -4.6474   -1.6333    2.5482 H   0  0  0  0  0  0  0  0  0  0  0  0
   -0.7815   -3.8189    1.2255 H   0  0  0  0  0  0  0  0  0  0  0  0
   -1.0204   -5.3444    0.4109 H   0  0  0  0  0  0  0  0  0  0  0  0
   -0.1545   -2.9100   -1.1204 H   0  0  0  0  0  0  0  0  0  0  0  0
    1.0333   -4.0970   -0.7171 H   0  0  0  0  0  0  0  0  0  0  0  0
   -1.7585   -2.7799   -2.5836 H   0  0  0  0  0  0  0  0  0  0  0  0
   -2.1152   -4.2459   -3.5295 H   0  0  0  0  0  0  0  0  0  0  0  0
   -2.6886   -5.4266   -1.3118 H   0  0  0  0  0  0  0  0  0  0  0  0
   -3.8015   -4.0591   -1.6087 H   0  0  0  0  0  0  0  0  0  0  0  0
    2.7021   -7.4483   -3.1196 H   0  0  0  0  0  0  0  0  0  0  0  0
    2.0112   -4.2187   -5.8918 H   0  0  0  0  0  0  0  0  0  0  0  0
   -2.5319    1.8493    5.3433 H   0  0  0  0  0  0  0  0  0  0  0  0
   -3.4704    2.8995    4.2226 H   0  0  0  0  0  0  0  0  0  0  0  0
   -4.1072    2.5082    5.8334 H   0  0  0  0  0  0  0  0  0  0  0  0
  1 37  1  0  0  0  0
  1 38  1  0  0  0  0
  1 39  1  0  0  0  0
  2  1  1  0  0  0  0
  2  3  1  0  0  0  0
  2  7  1  0  0  0  0
  2 40  1  6  0  0  0
  3  4  1  0  0  0  0
  3  5  1  0  0  0  0
  3  6  1  0  0  0  0
  7  8  1  0  0  0  0
  8  9  2  0  0  0  0
  8 13  1  0  0  0  0
  9 10  1  0  0  0  0
  9 41  1  0  0  0  0
 10 11  2  0  0  0  0
 10 42  1  0  0  0  0
 11 12  1  0  0  0  0
 11 33  1  0  0  0  0
 12 13  2  0  0  0  0
 12 43  1  0  0  0  0
 13 14  1  0  0  0  0
 14 15  2  0  0  0  0
 14 16  1  0  0  0  0
 16 17  1  0  0  0  0
 16 21  1  0  0  0  0
 17 18  1  0  0  0  0
 17 44  1  0  0  0  0
 17 45  1  0  0  0  0
 18 19  1  0  0  0  0
 18 46  1  0  0  0  0
 18 47  1  0  0  0  0
 19 20  1  0  0  0  0
 19 22  1  0  0  0  0
 20 21  1  0  0  0  0
 20 48  1  0  0  0  0
 20 49  1  0  0  0  0
 21 50  1  0  0  0  0
 21 51  1  0  0  0  0
 22 23  2  0  0  0  0
 22 27  1  0  0  0  0
 23 24  1  0  0  0  0
 23 32  1  0  0  0  0
 24 25  2  0  0  0  0
 24 52  1  0  0  0  0
 25 26  1  0  0  0  0
 25 28  1  0  0  0  0
 26 27  2  0  0  0  0
 26 53  1  0  0  0  0
 28 29  1  0  0  0  0
 28 30  1  0  0  0  0
 28 31  1  0  0  0  0
 33 34  2  0  0  0  0
 33 35  2  0  0  0  0
 33 36  1  0  0  0  0
 36 54  1  0  0  0  0
 36 55  1  0  0  0  0
 36 56  1  0  0  0  0
M  END
>  <DRUGBANK_ID>
DB12426

>  <COMMON_NAME>
Bitopertin

>  <CAS_NUMBER>
845614-11-1

>  <UNII>
Q8L6AN59YY

>  <SYNONYMS>
Bitopertin

$$$$
