
 OpenBabel10282417143D

 49 52  0  0  0  0  0  0  0  0999 V2000
   -2.1078   -0.0294   -0.0037 Cl  0  0  0  0  0  0  0  0  0  0  0  0
    2.2217    2.6476    2.4408 O   0  0  0  0  0  0  0  0  0  0  0  0
    3.9391    3.5139    1.2766 O   0  0  0  0  0  0  0  0  0  0  0  0
    5.9677    0.3390    0.6545 N   0  0  0  0  0  0  0  0  0  0  0  0
    8.2353    0.3493   -0.0936 C   0  0  0  0  0  0  0  0  0  0  0  0
    7.3155    0.6361    1.1445 C   0  0  0  0  0  0  0  0  0  0  0  0
    7.3904   -0.6205   -0.9795 C   0  0  0  0  0  0  0  0  0  0  0  0
    6.0047   -0.3737   -0.5143 C   0  0  0  0  0  0  0  0  0  0  0  0
    4.6741    0.5881    1.0410 C   0  0  0  0  0  0  0  0  0  0  0  0
    4.7170   -0.6151   -0.9080 C   0  0  0  0  0  0  0  0  0  0  0  0
    8.5683    1.6472   -0.8530 C   0  0  0  0  0  0  0  0  0  0  0  0
    9.5720   -0.2989    0.2939 C   0  0  0  0  0  0  0  0  0  0  0  0
    3.8674   -0.0032    0.0629 C   0  0  0  0  0  0  0  0  0  0  0  0
    4.2529    1.3200    2.2828 C   0  0  0  0  0  0  0  0  0  0  0  0
    4.3173   -1.2501   -2.1385 C   0  0  0  0  0  0  0  0  0  0  0  0
    2.4090   -0.0001    0.0473 C   0  0  0  0  0  0  0  0  0  0  0  0
    3.5626   -0.5028   -3.0514 C   0  0  0  0  0  0  0  0  0  0  0  0
    4.5786   -2.5982   -2.3804 C   0  0  0  0  0  0  0  0  0  0  0  0
    3.4858    2.5902    1.9513 C   0  0  0  0  0  0  0  0  0  0  0  0
    1.6888    1.1915   -0.0768 C   0  0  0  0  0  0  0  0  0  0  0  0
    1.7104   -1.2133    0.0504 C   0  0  0  0  0  0  0  0  0  0  0  0
    3.0738   -1.0965   -4.2077 C   0  0  0  0  0  0  0  0  0  0  0  0
    4.1327   -3.1775   -3.5679 C   0  0  0  0  0  0  0  0  0  0  0  0
    0.2936    1.1889   -0.0538 C   0  0  0  0  0  0  0  0  0  0  0  0
    0.3135   -1.2245    0.0062 C   0  0  0  0  0  0  0  0  0  0  0  0
    3.3630   -2.4340   -4.4668 C   0  0  0  0  0  0  0  0  0  0  0  0
   -0.3890   -0.0215   -0.0134 C   0  0  0  0  0  0  0  0  0  0  0  0
    1.8678    1.8070    2.7929 H   0  0  0  0  0  0  0  0  0  0  0  0
    7.5143   -0.0638    1.9635 H   0  0  0  0  0  0  0  0  0  0  0  0
    7.3605    1.6705    1.4922 H   0  0  0  0  0  0  0  0  0  0  0  0
    7.5130   -0.4242   -2.0493 H   0  0  0  0  0  0  0  0  0  0  0  0
    7.6547   -1.6666   -0.7849 H   0  0  0  0  0  0  0  0  0  0  0  0
    9.1539    2.3251   -0.2200 H   0  0  0  0  0  0  0  0  0  0  0  0
    9.1750    1.4351   -1.7428 H   0  0  0  0  0  0  0  0  0  0  0  0
    7.6705    2.1801   -1.1779 H   0  0  0  0  0  0  0  0  0  0  0  0
    9.4277   -1.2163    0.8719 H   0  0  0  0  0  0  0  0  0  0  0  0
   10.1507   -0.5598   -0.6022 H   0  0  0  0  0  0  0  0  0  0  0  0
   10.1849    0.3856    0.8909 H   0  0  0  0  0  0  0  0  0  0  0  0
    3.6198    0.6548    2.8838 H   0  0  0  0  0  0  0  0  0  0  0  0
    5.1010    1.6072    2.9095 H   0  0  0  0  0  0  0  0  0  0  0  0
    3.3321    0.5400   -2.8418 H   0  0  0  0  0  0  0  0  0  0  0  0
    5.0982   -3.2015   -1.6407 H   0  0  0  0  0  0  0  0  0  0  0  0
    2.2034    2.1427   -0.1939 H   0  0  0  0  0  0  0  0  0  0  0  0
    2.2521   -2.1570    0.0521 H   0  0  0  0  0  0  0  0  0  0  0  0
    2.4723   -0.5122   -4.8973 H   0  0  0  0  0  0  0  0  0  0  0  0
    4.3784   -4.2115   -3.7913 H   0  0  0  0  0  0  0  0  0  0  0  0
   -0.2417    2.1344   -0.0808 H   0  0  0  0  0  0  0  0  0  0  0  0
   -0.2150   -2.1729   -0.0186 H   0  0  0  0  0  0  0  0  0  0  0  0
    2.9789   -2.9004   -5.3691 H   0  0  0  0  0  0  0  0  0  0  0  0
  1 27  1  0  0  0  0
  2 19  1  0  0  0  0
  2 28  1  0  0  0  0
  3 19  2  0  0  0  0
  4  6  1  0  0  0  0
  4  8  1  0  0  0  0
  4  9  1  0  0  0  0
  5  6  1  0  0  0  0
  5  7  1  0  0  0  0
  5 11  1  0  0  0  0
  5 12  1  0  0  0  0
  6 29  1  0  0  0  0
  6 30  1  0  0  0  0
  7  8  1  0  0  0  0
  7 31  1  0  0  0  0
  7 32  1  0  0  0  0
  8 10  2  0  0  0  0
  9 13  2  0  0  0  0
  9 14  1  0  0  0  0
 10 13  1  0  0  0  0
 10 15  1  0  0  0  0
 11 33  1  0  0  0  0
 11 34  1  0  0  0  0
 11 35  1  0  0  0  0
 12 36  1  0  0  0  0
 12 37  1  0  0  0  0
 12 38  1  0  0  0  0
 13 16  1  0  0  0  0
 14 19  1  0  0  0  0
 14 39  1  0  0  0  0
 14 40  1  0  0  0  0
 15 17  2  0  0  0  0
 15 18  1  0  0  0  0
 16 20  2  0  0  0  0
 16 21  1  0  0  0  0
 17 22  1  0  0  0  0
 17 41  1  0  0  0  0
 18 23  2  0  0  0  0
 18 42  1  0  0  0  0
 20 24  1  0  0  0  0
 20 43  1  0  0  0  0
 21 25  2  0  0  0  0
 21 44  1  0  0  0  0
 22 26  2  0  0  0  0
 22 45  1  0  0  0  0
 23 26  1  0  0  0  0
 23 46  1  0  0  0  0
 24 27  2  0  0  0  0
 24 47  1  0  0  0  0
 25 27  1  0  0  0  0
 25 48  1  0  0  0  0
 26 49  1  0  0  0  0
M  END
>  <DRUGBANK_ID>
DB04725

>  <COMMON_NAME>
Licofelone

>  <CAS_NUMBER>
156897-06-2

>  <UNII>
P5T6BYS22Y

>  <SYNONYMS>
Licofelone

$$$$
