
 OpenBabel10282417243D

 63 65  0  0  0  0  0  0  0  0999 V2000
    1.8031    0.5963   -0.2031 C   0  0  0  0  0  0  0  0  0  0  0  0
    0.8621    0.3138   -1.2167 C   0  0  0  0  0  0  0  0  0  0  0  0
    0.5043   -1.7885   -1.9175 C   0  0  0  0  0  0  0  0  0  0  0  0
    0.0903   -2.9169   -1.1163 O   0  0  0  0  0  0  0  0  0  0  0  0
    0.0495   -2.9204    0.3423 C   0  0  0  0  0  0  0  0  0  0  0  0
    0.8769   -1.6816    1.6692 C   0  0  0  0  0  0  0  0  0  0  0  0
    1.6088   -1.0416    2.6733 C   0  0  0  0  0  0  0  0  0  0  0  0
    1.0787    0.1111    3.2282 N   0  0  0  0  0  0  0  0  0  0  0  0
    0.4497    1.1948    2.5879 C   0  0  0  0  0  0  0  0  0  0  0  0
    0.4971    2.2520    3.2237 O   0  0  0  0  0  0  0  0  0  0  0  0
   -0.1485    1.2097    1.2530 N   0  0  0  0  0  0  0  0  0  0  0  0
   -0.7873    0.0675    0.2405 N   0  0  0  0  0  0  0  0  0  0  0  0
   -0.6955   -0.3092   -1.5603 C   0  0  0  0  0  0  0  0  0  0  0  0
    1.3378   -0.4176   -2.6622 C   0  0  0  0  0  0  0  0  0  0  0  0
    2.5334   -1.5520   -1.9165 O   0  0  0  0  0  0  0  0  0  0  0  0
   -0.1627   -1.2010    0.3138 C   0  0  0  0  0  0  0  0  0  0  0  0
   -1.0410   -2.0987    1.7834 C   0  0  0  0  0  0  0  0  0  0  0  0
   -0.1938   -3.6505    2.5312 C   0  0  0  0  0  0  0  0  0  0  0  0
   -0.2313   -3.5364    4.0620 C   0  0  0  0  0  0  0  0  0  0  0  0
   -1.0987   -4.7261    3.8808 C   0  0  0  0  0  0  0  0  0  0  0  0
    0.9429   -3.7632    5.0807 C   0  0  0  0  0  0  0  0  0  0  0  0
    1.2243   -4.7422    1.7479 C   0  0  0  0  0  0  0  0  0  0  0  0
    1.8445   -5.9083    1.8020 C   0  0  0  0  0  0  0  0  0  0  0  0
    1.5961   -6.5053    3.1340 C   0  0  0  0  0  0  0  0  0  0  0  0
    2.8061   -5.9514    0.8260 N   0  0  0  0  0  0  0  0  0  0  0  0
    2.7739   -4.7784   -0.0064 N   0  0  0  0  0  0  0  0  0  0  0  0
    3.4073   -4.5589   -1.2642 C   0  0  0  0  0  0  0  0  0  0  0  0
    2.3047   -3.6555    0.5335 C   0  0  0  0  0  0  0  0  0  0  0  0
    1.6562   -1.9510    0.0120 N   0  0  0  0  0  0  0  0  0  0  0  0
    2.3111   -1.9622    3.1755 C   0  0  0  0  0  0  0  0  0  0  0  0
    2.0383   -3.0194    2.4560 C   0  0  0  0  0  0  0  0  0  0  0  0
    3.4622   -4.1931    3.1631 Cl  0  0  0  0  0  0  0  0  0  0  0  0
    0.7805   -3.3182    1.0727 N   0  0  0  0  0  0  0  0  0  0  0  0
    1.5798    0.0636    0.6645 H   0  0  0  0  0  0  0  0  0  0  0  0
    1.4931    1.5735    0.0538 H   0  0  0  0  0  0  0  0  0  0  0  0
    2.7872    0.2189   -0.2471 H   0  0  0  0  0  0  0  0  0  0  0  0
    0.1005    0.6642   -2.5343 H   0  0  0  0  0  0  0  0  0  0  0  0
    0.9342    1.3426   -1.9302 H   0  0  0  0  0  0  0  0  0  0  0  0
    0.0397   -1.9167   -3.0412 H   0  0  0  0  0  0  0  0  0  0  0  0
    1.3831   -2.1742   -2.9412 H   0  0  0  0  0  0  0  0  0  0  0  0
    0.4112   -0.6785    1.7576 H   0  0  0  0  0  0  0  0  0  0  0  0
    1.2241    0.0914    4.2224 H   0  0  0  0  0  0  0  0  0  0  0  0
   -0.1756    2.1282    0.8122 H   0  0  0  0  0  0  0  0  0  0  0  0
   -1.4261   -1.1200   -1.4893 H   0  0  0  0  0  0  0  0  0  0  0  0
   -1.0497    0.8247   -1.4959 H   0  0  0  0  0  0  0  0  0  0  0  0
    1.1205   -0.4261   -3.6669 H   0  0  0  0  0  0  0  0  0  0  0  0
    2.2915    0.2320   -2.3317 H   0  0  0  0  0  0  0  0  0  0  0  0
    2.1349   -1.6296   -1.0096 H   0  0  0  0  0  0  0  0  0  0  0  0
   -1.0443   -1.3008    2.6321 H   0  0  0  0  0  0  0  0  0  0  0  0
   -0.7341   -2.6114    4.3783 H   0  0  0  0  0  0  0  0  0  0  0  0
   -0.5987   -5.5417    3.3482 H   0  0  0  0  0  0  0  0  0  0  0  0
   -1.4010   -5.0699    4.8360 H   0  0  0  0  0  0  0  0  0  0  0  0
   -1.9204   -4.5149    3.1781 H   0  0  0  0  0  0  0  0  0  0  0  0
    1.5727   -2.9307    5.4380 H   0  0  0  0  0  0  0  0  0  0  0  0
    0.5842   -4.1156    6.0271 H   0  0  0  0  0  0  0  0  0  0  0  0
    1.6824   -4.4734    4.7584 H   0  0  0  0  0  0  0  0  0  0  0  0
    0.9261   -7.3206    2.9680 H   0  0  0  0  0  0  0  0  0  0  0  0
    2.4891   -6.6083    3.7286 H   0  0  0  0  0  0  0  0  0  0  0  0
    1.0411   -5.8542    3.8445 H   0  0  0  0  0  0  0  0  0  0  0  0
    2.6228   -4.3531   -2.0043 H   0  0  0  0  0  0  0  0  0  0  0  0
    4.0638   -3.6707   -1.2005 H   0  0  0  0  0  0  0  0  0  0  0  0
    3.9492   -5.4628   -1.4297 H   0  0  0  0  0  0  0  0  0  0  0  0
    2.0630   -2.2375    4.1326 H   0  0  0  0  0  0  0  0  0  0  0  0
  1  2  1  0  0  0  0
  1 34  1  0  0  0  0
  1 35  1  0  0  0  0
  1 36  1  0  0  0  0
  2  3  1  0  0  0  0
  2 37  1  0  0  0  0
  2 38  1  0  0  0  0
  3  4  1  0  0  0  0
  3 39  1  0  0  0  0
  3 40  1  0  0  0  0
  4  5  1  0  0  0  0
  5  6  2  0  0  0  0
  5 33  1  0  0  0  0
  6  7  1  0  0  0  0
  6 41  1  0  0  0  0
  7  8  1  0  0  0  0
  7 30  2  0  0  0  0
  8  9  1  0  0  0  0
  8 42  1  0  0  0  0
  9 10  2  0  0  0  0
  9 11  1  0  0  0  0
 11 12  1  0  0  0  0
 11 43  1  0  0  0  0
 12 13  1  0  0  0  0
 12 16  1  0  0  0  0
 13 14  1  0  0  0  0
 13 44  1  0  0  0  0
 13 45  1  0  0  0  0
 14 15  1  0  0  0  0
 14 46  1  0  0  0  0
 14 47  1  0  0  0  0
 15 48  1  0  0  0  0
 16 17  2  0  0  0  0
 16 29  1  0  0  0  0
 17 18  1  0  0  0  0
 17 49  1  0  0  0  0
 18 19  1  0  0  0  0
 18 22  2  0  0  0  0
 19 20  1  0  0  0  0
 19 21  1  0  0  0  0
 19 50  1  0  0  0  0
 20 51  1  0  0  0  0
 20 52  1  0  0  0  0
 20 53  1  0  0  0  0
 21 54  1  0  0  0  0
 21 55  1  0  0  0  0
 21 56  1  0  0  0  0
 22 23  1  0  0  0  0
 22 28  1  0  0  0  0
 23 24  1  0  0  0  0
 23 25  2  0  0  0  0
 24 57  1  0  0  0  0
 24 58  1  0  0  0  0
 24 59  1  0  0  0  0
 25 26  1  0  0  0  0
 26 27  1  0  0  0  0
 26 28  1  0  0  0  0
 27 60  1  0  0  0  0
 27 61  1  0  0  0  0
 27 62  1  0  0  0  0
 28 29  2  0  0  0  0
 30 31  1  0  0  0  0
 30 63  1  0  0  0  0
 31 32  1  0  0  0  0
 31 33  2  0  0  0  0
M  END
>  <DRUGBANK_ID>
DB18296

>  <COMMON_NAME>
AB-22

>  <CAS_NUMBER>
1463913-43-0

>  <UNII>
R228S06SOH

>  <SYNONYMS>
Hydrazinecarboxamide, n-(2-chloro-6-propoxy-4-pyridinyl)-2-(1,3-dimethyl-4-(1-methylethyl)-1h-pyrazolo(3,4-b)pyridin-6-yl)-2-(2-hydroxyethyl)-; N-(2-chloro-6-propoxypyridin-4-yl)-2-(2-hydroxyethyl)-2-(4-isopropyl-1,3-dimethyl-1h-pyrazolo(3,4-b)pyridin-6-yl)hydrazinecarboxamide; N-(2-chloro-6-propoxypyridin-4-yl)-2-(2-hydroxyethyl)-2-(4-isopropyl-1,3-dimethyl-1H-pyrazolo[3,4-b]pyridin-6-yl)hydrazinecarboxamide

$$$$
