
 OpenBabel10282417133D

 38 39  0  0  1  0  0  0  0  0999 V2000
    1.0159    0.0588   -0.1257 N   0  0  0  0  0  0  0  0  0  0  0  0
    0.3218    1.2258   -0.1614 C   0  0  0  0  0  0  0  0  0  0  0  0
   -0.9053    1.2874   -0.0488 O   0  0  0  0  0  0  0  0  0  0  0  0
    1.0981    2.4682   -0.2522 C   0  0  0  0  0  0  0  0  0  0  0  0
    2.1657    2.6175   -1.1274 C   0  0  0  0  0  0  0  0  0  0  0  0
    2.8643    3.8206   -1.1536 C   0  0  0  0  0  0  0  0  0  0  0  0
    2.5732    4.7965   -0.2169 C   0  0  0  0  0  0  0  0  0  0  0  0
    1.5534    4.6243    0.6458 N   0  3  0  0  0  0  0  0  0  0  0  0
    0.7508    3.5285    0.5716 C   0  0  0  0  0  0  0  0  0  0  0  0
    1.3678    5.6391    1.6890 C   0  0  2  0  0  0  0  0  0  0  0  0
    1.3567    5.0124    2.9818 O   0  0  0  0  0  0  0  0  0  0  0  0
    0.0551    5.2333    3.5591 C   0  0  1  0  0  0  0  0  0  0  0  0
    0.1655    5.2178    5.1200 C   0  0  0  0  0  0  0  0  0  0  0  0
   -1.1205    5.2875    5.7504 O   0  0  0  0  0  0  0  0  0  0  0  0
   -1.8725    6.7411    5.1899 P   0  0  0  0  0  0  0  0  0  0  0  0
   -2.8250    5.6919    4.3450 O   0  0  0  0  0  0  0  0  0  0  0  0
   -2.7541    6.6351    6.5597 O   0  0  0  0  0  0  0  0  0  0  0  0
   -2.5456    8.0422    4.6882 O   0  0  0  0  0  0  0  0  0  0  0  0
   -0.4286    6.5386    2.8360 C   0  0  2  0  0  0  0  0  0  0  0  0
   -1.7512    6.9335    2.5627 O   0  0  0  0  0  0  0  0  0  0  0  0
    0.0668    6.3416    1.4452 C   0  0  1  0  0  0  0  0  0  0  0  0
    0.2201    7.5449    0.7095 O   0  0  0  0  0  0  0  0  0  0  0  0
    0.4966   -0.8092   -0.0261 H   0  0  0  0  0  0  0  0  0  0  0  0
    2.0262   -0.0173   -0.0870 H   0  0  0  0  0  0  0  0  0  0  0  0
    2.4327    1.8192   -1.8134 H   0  0  0  0  0  0  0  0  0  0  0  0
    3.6495    3.9949   -1.8829 H   0  0  0  0  0  0  0  0  0  0  0  0
    3.1547    5.7119   -0.1377 H   0  0  0  0  0  0  0  0  0  0  0  0
   -0.1461    3.4931    1.1869 H   0  0  0  0  0  0  0  0  0  0  0  0
    2.1899    6.3626    1.6654 H   0  0  0  0  0  0  0  0  0  0  0  0
   -0.5525    4.3660    3.2833 H   0  0  0  0  0  0  0  0  0  0  0  0
    0.6504    4.2963    5.4683 H   0  0  0  0  0  0  0  0  0  0  0  0
    0.7914    6.0406    5.4892 H   0  0  0  0  0  0  0  0  0  0  0  0
   -2.3162    5.1068    3.7723 H   0  0  0  0  0  0  0  0  0  0  0  0
   -2.6588    5.7801    7.0107 H   0  0  0  0  0  0  0  0  0  0  0  0
    0.0421    7.3963    3.3318 H   0  0  0  0  0  0  0  0  0  0  0  0
   -2.5403    6.3617    2.6121 H   0  0  0  0  0  0  0  0  0  0  0  0
   -0.6679    5.7227    0.9117 H   0  0  0  0  0  0  0  0  0  0  0  0
    0.2523    8.3069    1.3232 H   0  0  0  0  0  0  0  0  0  0  0  0
  1  2  1  0  0  0  0
  1 23  1  0  0  0  0
  1 24  1  0  0  0  0
  2  3  2  0  0  0  0
  2  4  1  0  0  0  0
  4  5  2  0  0  0  0
  4  9  1  0  0  0  0
  5  6  1  0  0  0  0
  5 25  1  0  0  0  0
  6  7  2  0  0  0  0
  6 26  1  0  0  0  0
  7  8  1  0  0  0  0
  7 27  1  0  0  0  0
  8  9  2  0  0  0  0
  9 28  1  0  0  0  0
 10  8  1  0  0  0  0
 10 11  1  0  0  0  0
 10 21  1  0  0  0  0
 10 29  1  6  0  0  0
 11 12  1  0  0  0  0
 12 13  1  0  0  0  0
 12 19  1  0  0  0  0
 12 30  1  6  0  0  0
 13 14  1  0  0  0  0
 13 31  1  0  0  0  0
 13 32  1  0  0  0  0
 14 15  1  0  0  0  0
 15 16  1  0  0  0  0
 15 17  1  0  0  0  0
 15 18  2  0  0  0  0
 16 33  1  0  0  0  0
 17 34  1  0  0  0  0
 19 20  1  0  0  0  0
 19 21  1  0  0  0  0
 19 35  1  1  0  0  0
 20 36  1  0  0  0  0
 21 22  1  0  0  0  0
 21 37  1  6  0  0  0
 22 38  1  0  0  0  0
M  CHG  1   8   1
M  END
>  <DRUGBANK_ID>
DB03227

>  <SECONDARY_ACCESSION_NUMBERS>
EXPT02366

>  <COMMON_NAME>
Nicotinamide Mononucleotide

>  <UNII>
2KG6QX4W0V

$$$$
