
 OpenBabel10282417243D

 41 44  0  0  1  0  0  0  0  0999 V2000
    1.0477    0.0418   -0.0309 O   0  0  0  0  0  0  0  0  0  0  0  0
    0.6160   -0.9812    0.8672 C   0  0  2  0  0  0  0  0  0  0  0  0
    1.5039   -1.0621    2.1140 C   0  0  0  0  0  0  0  0  0  0  0  0
    1.7057   -2.8054    2.5637 S   0  0  0  0  0  0  0  0  0  0  0  0
    0.5959   -3.4434    1.2620 C   0  0  2  0  0  0  0  0  0  0  0  0
    0.6007   -2.3520    0.1713 C   0  0  2  0  0  0  0  0  0  0  0  0
    1.7484   -2.4617   -0.6855 O   0  0  0  0  0  0  0  0  0  0  0  0
   -0.7258   -3.7306    1.7942 N   0  0  0  0  0  0  0  0  0  0  0  0
   -1.6036   -2.8220    2.3157 C   0  0  0  0  0  0  0  0  0  0  0  0
   -2.7356   -3.3749    2.6677 N   0  0  0  0  0  0  0  0  0  0  0  0
   -2.5657   -4.7154    2.4495 C   0  0  0  0  0  0  0  0  0  0  0  0
   -3.4220   -5.8103    2.6828 C   0  0  0  0  0  0  0  0  0  0  0  0
   -4.6969   -5.7108    3.1992 N   0  0  0  0  0  0  0  0  0  0  0  0
   -5.3172   -4.4702    3.6175 C   0  0  0  0  0  0  0  0  0  0  0  0
   -6.5463   -4.1777    2.7939 C   0  0  0  0  0  0  0  0  0  0  0  0
   -7.7814   -4.7479    3.1278 C   0  0  0  0  0  0  0  0  0  0  0  0
   -8.9191   -4.4635    2.3704 C   0  0  0  0  0  0  0  0  0  0  0  0
   -8.8336   -3.6070    1.2721 C   0  0  0  0  0  0  0  0  0  0  0  0
   -7.6094   -3.0342    0.9354 C   0  0  0  0  0  0  0  0  0  0  0  0
   -7.5067   -1.9662   -0.4107 Cl  0  0  0  0  0  0  0  0  0  0  0  0
   -6.4688   -3.3165    1.6858 C   0  0  0  0  0  0  0  0  0  0  0  0
   -2.9471   -7.0441    2.3705 N   0  0  0  0  0  0  0  0  0  0  0  0
   -1.7009   -7.1376    1.8500 C   0  0  0  0  0  0  0  0  0  0  0  0
   -1.1712   -8.7218    1.4703 Cl  0  0  0  0  0  0  0  0  0  0  0  0
   -0.8105   -6.1608    1.5696 N   0  0  0  0  0  0  0  0  0  0  0  0
   -1.3135   -4.9664    1.9042 C   0  0  0  0  0  0  0  0  0  0  0  0
    2.0217    0.0286   -0.0496 H   0  0  0  0  0  0  0  0  0  0  0  0
   -0.3985   -0.6936    1.1486 H   0  0  0  0  0  0  0  0  0  0  0  0
    2.4888   -0.6176    1.9558 H   0  0  0  0  0  0  0  0  0  0  0  0
    1.0313   -0.5381    2.9517 H   0  0  0  0  0  0  0  0  0  0  0  0
    1.0228   -4.3757    0.8760 H   0  0  0  0  0  0  0  0  0  0  0  0
   -0.2734   -2.4495   -0.4840 H   0  0  0  0  0  0  0  0  0  0  0  0
    1.5729   -1.8660   -1.4405 H   0  0  0  0  0  0  0  0  0  0  0  0
   -1.4092   -1.7726    2.4444 H   0  0  0  0  0  0  0  0  0  0  0  0
   -5.2039   -6.5781    3.3022 H   0  0  0  0  0  0  0  0  0  0  0  0
   -5.5866   -4.5336    4.6779 H   0  0  0  0  0  0  0  0  0  0  0  0
   -4.6766   -3.5917    3.5689 H   0  0  0  0  0  0  0  0  0  0  0  0
   -7.8615   -5.4103    3.9870 H   0  0  0  0  0  0  0  0  0  0  0  0
   -9.8733   -4.9098    2.6378 H   0  0  0  0  0  0  0  0  0  0  0  0
   -9.7221   -3.3914    0.6851 H   0  0  0  0  0  0  0  0  0  0  0  0
   -5.5179   -2.8597    1.4179 H   0  0  0  0  0  0  0  0  0  0  0  0
  1 27  1  0  0  0  0
  2  1  1  0  0  0  0
  2  3  1  0  0  0  0
  2 28  1  1  0  0  0
  3  4  1  0  0  0  0
  3 29  1  0  0  0  0
  3 30  1  0  0  0  0
  5  4  1  0  0  0  0
  5 31  1  6  0  0  0
  5  8  1  0  0  0  0
  6  5  1  0  0  0  0
  6  2  1  0  0  0  0
  6 32  1  6  0  0  0
  6  7  1  0  0  0  0
  7 33  1  0  0  0  0
  8  9  1  0  0  0  0
  8 26  1  0  0  0  0
  9 10  2  0  0  0  0
  9 34  1  0  0  0  0
 10 11  1  0  0  0  0
 11 12  2  0  0  0  0
 11 26  1  0  0  0  0
 12 13  1  0  0  0  0
 12 22  1  0  0  0  0
 13 14  1  0  0  0  0
 13 35  1  0  0  0  0
 14 15  1  0  0  0  0
 14 36  1  0  0  0  0
 14 37  1  0  0  0  0
 15 16  2  0  0  0  0
 15 21  1  0  0  0  0
 16 17  1  0  0  0  0
 16 38  1  0  0  0  0
 17 18  2  0  0  0  0
 17 39  1  0  0  0  0
 18 19  1  0  0  0  0
 18 40  1  0  0  0  0
 19 20  1  0  0  0  0
 19 21  2  0  0  0  0
 21 41  1  0  0  0  0
 22 23  2  0  0  0  0
 23 24  1  0  0  0  0
 23 25  1  0  0  0  0
 25 26  2  0  0  0  0
M  END
>  <DRUGBANK_ID>
DB18018

>  <COMMON_NAME>
LJ-2698

>  <CAS_NUMBER>
945457-84-1

>  <UNII>
L4A6E7Q76T

>  <SYNONYMS>
(2r,3r,4s)-2-(2-chloro-6-(3-chlorobenzylamino)-9h-purin-9-yl)tetrahydrothiophene-3,4-diol; 3,4-thiophenediol, 2-(2-chloro-6-(((3-chlorophenyl)methyl)amino)-9h-purin-9-yl)tetrahydro-, (2r,3r,4s)-

$$$$
