
 OpenBabel10282417123D

 32 34  0  0  0  0  0  0  0  0999 V2000
    1.6625    0.4015    0.2859 O   0  0  0  0  0  0  0  0  0  0  0  0
   -1.9111    0.8251    0.0324 O   0  0  0  0  0  0  0  0  0  0  0  0
   -0.7530   -1.5271    0.6477 O   0  0  0  0  0  0  0  0  0  0  0  0
    1.4345   -1.7755   -2.6461 O   0  0  0  0  0  0  0  0  0  0  0  0
    2.8521    6.2201   -2.1118 O   0  0  0  0  0  0  0  0  0  0  0  0
    1.7112    4.6954    0.1289 N   0  0  0  0  0  0  0  0  0  0  0  0
    1.0886    2.6058   -2.5756 N   0  0  0  0  0  0  0  0  0  0  0  0
    2.1659    4.5386   -3.5234 N   0  0  0  0  0  0  0  0  0  0  0  0
    0.4933    1.2479    0.3448 C   0  0  2  0  0  0  0  0  0  0  0  0
   -0.6056    0.6021   -0.4942 C   0  0  1  0  0  0  0  0  0  0  0  0
   -0.1965   -0.8601   -0.4953 C   0  0  1  0  0  0  0  0  0  0  0  0
    1.3304   -0.8159   -0.3958 C   0  0  1  0  0  0  0  0  0  0  0  0
    0.8737    2.6265   -0.0616 C   0  0  0  0  0  0  0  0  0  0  0  0
    2.0616   -0.8757   -1.7424 C   0  0  0  0  0  0  0  0  0  0  0  0
    1.1778    3.1354   -1.3450 C   0  0  0  0  0  0  0  0  0  0  0  0
    1.1360    3.6621    0.8251 C   0  0  0  0  0  0  0  0  0  0  0  0
    1.7413    4.3747   -1.2009 C   0  0  0  0  0  0  0  0  0  0  0  0
    2.2981    5.1376   -2.2845 C   0  0  0  0  0  0  0  0  0  0  0  0
    1.5966    3.3784   -3.5890 C   0  0  0  0  0  0  0  0  0  0  0  0
    2.1020    5.5380    0.5330 H   0  0  0  0  0  0  0  0  0  0  0  0
    0.6567    1.7235   -2.8150 H   0  0  0  0  0  0  0  0  0  0  0  0
   -1.9859    0.3317    0.8685 H   0  0  0  0  0  0  0  0  0  0  0  0
   -0.4186   -1.0998    1.4542 H   0  0  0  0  0  0  0  0  0  0  0  0
    1.3620   -2.6419   -2.2047 H   0  0  0  0  0  0  0  0  0  0  0  0
    0.1854    1.2618    1.3989 H   0  0  0  0  0  0  0  0  0  0  0  0
   -0.6201    0.9726   -1.5181 H   0  0  0  0  0  0  0  0  0  0  0  0
   -0.5651   -1.3855   -1.3788 H   0  0  0  0  0  0  0  0  0  0  0  0
    1.7031   -1.6317    0.2333 H   0  0  0  0  0  0  0  0  0  0  0  0
    2.1187    0.1045   -2.2210 H   0  0  0  0  0  0  0  0  0  0  0  0
    3.0986   -1.2018   -1.5981 H   0  0  0  0  0  0  0  0  0  0  0  0
    1.0362    3.7058    1.9029 H   0  0  0  0  0  0  0  0  0  0  0  0
    1.4790    2.8907   -4.5728 H   0  0  0  0  0  0  0  0  0  0  0  0
  1  9  1  0  0  0  0
  1 12  1  0  0  0  0
  2 22  1  0  0  0  0
  3 23  1  0  0  0  0
  4 14  1  0  0  0  0
  4 24  1  0  0  0  0
  5 18  2  0  0  0  0
  6 16  1  0  0  0  0
  6 17  1  0  0  0  0
  6 20  1  0  0  0  0
  7 15  1  0  0  0  0
  7 19  1  0  0  0  0
  7 21  1  0  0  0  0
  8 18  1  0  0  0  0
  8 19  2  0  0  0  0
  9 10  1  0  0  0  0
  9 25  1  1  0  0  0
  9 13  1  0  0  0  0
 10  2  1  0  0  0  0
 10 11  1  0  0  0  0
 10 26  1  6  0  0  0
 11  3  1  0  0  0  0
 11 12  1  0  0  0  0
 11 27  1  6  0  0  0
 12 28  1  1  0  0  0
 12 14  1  0  0  0  0
 13 15  1  0  0  0  0
 13 16  2  0  0  0  0
 14 29  1  0  0  0  0
 14 30  1  0  0  0  0
 15 17  2  0  0  0  0
 16 31  1  0  0  0  0
 17 18  1  0  0  0  0
 19 32  1  0  0  0  0
M  END
>  <DRUGBANK_ID>
DB02796

>  <SECONDARY_ACCESSION_NUMBERS>
EXPT00357

>  <COMMON_NAME>
9-deazainosine

>  <CAS_NUMBER>
89458-19-5

$$$$
