
 OpenBabel10282417133D

 22 22  0  0  1  0  0  0  0  0999 V2000
    1.2260   -0.0595    0.1574 N   0  0  0  0  0  0  0  0  0  0  0  0
    0.6074    1.1364    0.7555 C   0  0  1  0  0  0  0  0  0  0  0  0
    1.5852    1.8567    1.6269 C   0  0  0  0  0  0  0  0  0  0  0  0
    1.8972    3.1592    1.5217 C   0  0  0  0  0  0  0  0  0  0  0  0
    1.3327    4.0545    0.4663 C   0  0  0  0  0  0  0  0  0  0  0  0
    0.4191    3.4185   -0.5778 C   0  0  1  0  0  0  0  0  0  0  0  0
    1.1244    3.4004   -1.8359 O   0  0  0  0  0  0  0  0  0  0  0  0
   -0.1125    2.0004   -0.3198 C   0  0  2  0  0  0  0  0  0  0  0  0
   -1.5199    2.0574   -0.0131 O   0  0  0  0  0  0  0  0  0  0  0  0
    2.8666    3.8782    2.5218 C   0  0  0  0  0  0  0  0  0  0  0  0
    3.0483    5.1098    2.2787 O   0  5  0  0  0  0  0  0  0  0  0  0
    3.3395    3.1635    3.4413 O   0  0  0  0  0  0  0  0  0  0  0  0
    0.8298   -0.2122   -0.7689 H   0  0  0  0  0  0  0  0  0  0  0  0
    2.2188    0.1124    0.0172 H   0  0  0  0  0  0  0  0  0  0  0  0
   -0.1650    0.7533    1.4352 H   0  0  0  0  0  0  0  0  0  0  0  0
    2.0267    1.2848    2.4454 H   0  0  0  0  0  0  0  0  0  0  0  0
    2.1788    4.5221   -0.0547 H   0  0  0  0  0  0  0  0  0  0  0  0
    0.7788    4.8610    0.9629 H   0  0  0  0  0  0  0  0  0  0  0  0
   -0.4349    4.0916   -0.7260 H   0  0  0  0  0  0  0  0  0  0  0  0
    1.9566    2.9262   -1.6573 H   0  0  0  0  0  0  0  0  0  0  0  0
   -0.0773    1.4764   -1.2839 H   0  0  0  0  0  0  0  0  0  0  0  0
   -1.5810    2.4864    0.8583 H   0  0  0  0  0  0  0  0  0  0  0  0
  1 13  1  0  0  0  0
  1 14  1  0  0  0  0
  2  1  1  0  0  0  0
  2  3  1  0  0  0  0
  2  8  1  0  0  0  0
  2 15  1  1  0  0  0
  3  4  2  0  0  0  0
  3 16  1  0  0  0  0
  4  5  1  0  0  0  0
  4 10  1  0  0  0  0
  5  6  1  0  0  0  0
  5 17  1  0  0  0  0
  5 18  1  0  0  0  0
  6  7  1  0  0  0  0
  6  8  1  0  0  0  0
  6 19  1  6  0  0  0
  7 20  1  0  0  0  0
  8  9  1  0  0  0  0
  8 21  1  6  0  0  0
  9 22  1  0  0  0  0
 10 11  1  0  0  0  0
 10 12  2  0  0  0  0
M  CHG  1  11  -1
M  END
>  <DRUGBANK_ID>
DB03746

>  <SECONDARY_ACCESSION_NUMBERS>
EXPT01198

>  <COMMON_NAME>
3-Amino-4,5-Dihydroxy-Cyclohex-1-Enecarboxylate

$$$$
