
 OpenBabel10282417123D

 23 24  0  0  1  0  0  0  0  0999 V2000
    1.2866   -0.1039    0.1677 C   0  0  0  0  0  0  0  0  0  0  0  0
    0.4079   -1.2450   -0.1318 N   0  0  0  0  0  0  0  0  0  0  0  0
    0.5327   -1.8562   -1.4673 C   0  0  1  0  0  0  0  0  0  0  0  0
   -0.7225   -2.7465   -1.5569 C   0  0  0  0  0  0  0  0  0  0  0  0
   -1.7336   -2.0763   -0.6391 C   0  0  0  0  0  0  0  0  0  0  0  0
   -1.0065   -0.8441   -0.1041 C   0  0  2  0  0  0  0  0  0  0  0  0
   -1.2486    0.3698   -1.0067 C   0  0  0  0  0  0  0  0  0  0  0  0
   -0.4356    0.3396   -2.2959 C   0  0  0  0  0  0  0  0  0  0  0  0
   -0.4794    1.3018   -3.0749 O   0  0  0  0  0  0  0  0  0  0  0  0
    0.4943   -0.8244   -2.5931 C   0  0  0  0  0  0  0  0  0  0  0  0
    0.9882    0.3330    1.1291 H   0  0  0  0  0  0  0  0  0  0  0  0
    1.2335    0.7160   -0.5569 H   0  0  0  0  0  0  0  0  0  0  0  0
    2.3406   -0.3797    0.2369 H   0  0  0  0  0  0  0  0  0  0  0  0
    1.4266   -2.4859   -1.5581 H   0  0  0  0  0  0  0  0  0  0  0  0
   -1.1190   -2.8260   -2.5762 H   0  0  0  0  0  0  0  0  0  0  0  0
   -0.5232   -3.7674   -1.2099 H   0  0  0  0  0  0  0  0  0  0  0  0
   -2.6519   -1.8123   -1.1742 H   0  0  0  0  0  0  0  0  0  0  0  0
   -2.0085   -2.7614    0.1717 H   0  0  0  0  0  0  0  0  0  0  0  0
   -1.3346   -0.6381    0.9213 H   0  0  0  0  0  0  0  0  0  0  0  0
   -0.9488    1.2735   -0.4605 H   0  0  0  0  0  0  0  0  0  0  0  0
   -2.3068    0.4682   -1.2589 H   0  0  0  0  0  0  0  0  0  0  0  0
    0.1712   -1.2818   -3.5349 H   0  0  0  0  0  0  0  0  0  0  0  0
    1.5040   -0.4236   -2.7394 H   0  0  0  0  0  0  0  0  0  0  0  0
  1  2  1  0  0  0  0
  1 11  1  0  0  0  0
  1 12  1  0  0  0  0
  1 13  1  0  0  0  0
  3  2  1  0  0  0  0
  3  4  1  0  0  0  0
  3 10  1  0  0  0  0
  3 14  1  6  0  0  0
  4  5  1  0  0  0  0
  4 15  1  0  0  0  0
  4 16  1  0  0  0  0
  5  6  1  0  0  0  0
  5 17  1  0  0  0  0
  5 18  1  0  0  0  0
  6  2  1  0  0  0  0
  6  7  1  0  0  0  0
  6 19  1  1  0  0  0
  7  8  1  0  0  0  0
  7 20  1  0  0  0  0
  7 21  1  0  0  0  0
  8  9  2  0  0  0  0
  8 10  1  0  0  0  0
 10 22  1  0  0  0  0
 10 23  1  0  0  0  0
M  END
>  <DRUGBANK_ID>
DB01874

>  <SECONDARY_ACCESSION_NUMBERS>
EXPT03077

>  <COMMON_NAME>
Tropinone

>  <CAS_NUMBER>
532-24-1

>  <UNII>
2A8CC8KA5F

$$$$
