CNQ
 OpenBabel10282417133D

 30 32  0  0  0  0  0  0  0  0999 V2000
   -2.4200    0.6453    0.0013 C   0  0  0  0  0  0  0  0  0  0  0  0
   -1.2164    1.3423    0.0091 C   0  0  0  0  0  0  0  0  0  0  0  0
    0.0018    0.6775    0.0008 C   0  0  0  0  0  0  0  0  0  0  0  0
    0.0402   -0.7419   -0.0087 C   0  0  0  0  0  0  0  0  0  0  0  0
   -1.1766   -1.4389   -0.0105 C   0  0  0  0  0  0  0  0  0  0  0  0
   -2.4000   -0.7445   -0.0068 C   0  0  0  0  0  0  0  0  0  0  0  0
    1.1261    1.4161   -0.0012 N   0  0  0  0  0  0  0  0  0  0  0  0
    2.2962    0.7401   -0.0035 C   0  0  0  0  0  0  0  0  0  0  0  0
    2.3649   -0.6405   -0.0006 C   0  0  0  0  0  0  0  0  0  0  0  0
    1.2396   -1.3839   -0.0149 N   0  0  0  0  0  0  0  0  0  0  0  0
   -1.2355   -2.9350   -0.0209 C   0  0  0  0  0  0  0  0  0  0  0  0
   -0.0618   -3.6332   -0.0280 N   0  0  0  0  0  0  0  0  0  0  0  0
   -2.3086   -3.5313   -0.0242 O   0  0  0  0  0  0  0  0  0  0  0  0
    3.6261   -1.3761    0.0399 C   0  0  0  0  0  0  0  0  0  0  0  0
    4.5295   -1.1789    1.0975 C   0  0  0  0  0  0  0  0  0  0  0  0
    5.7627   -1.8328    1.1176 C   0  0  0  0  0  0  0  0  0  0  0  0
    6.1020   -2.6990    0.0820 C   0  0  0  0  0  0  0  0  0  0  0  0
    5.2080   -2.9369   -0.9594 C   0  0  0  0  0  0  0  0  0  0  0  0
    3.9712   -2.2841   -0.9757 C   0  0  0  0  0  0  0  0  0  0  0  0
    7.6382   -3.4715    0.0883 Cl  0  0  0  0  0  0  0  0  0  0  0  0
   -3.3642    1.1853   -0.0001 H   0  0  0  0  0  0  0  0  0  0  0  0
   -1.2259    2.4311    0.0200 H   0  0  0  0  0  0  0  0  0  0  0  0
   -3.3416   -1.2918   -0.0115 H   0  0  0  0  0  0  0  0  0  0  0  0
    3.1925    1.3503   -0.0152 H   0  0  0  0  0  0  0  0  0  0  0  0
   -0.0721   -4.6424   -0.0248 H   0  0  0  0  0  0  0  0  0  0  0  0
    0.8336   -3.1472   -0.0080 H   0  0  0  0  0  0  0  0  0  0  0  0
    4.2722   -0.5144    1.9210 H   0  0  0  0  0  0  0  0  0  0  0  0
    6.4508   -1.6570    1.9399 H   0  0  0  0  0  0  0  0  0  0  0  0
    5.4693   -3.6197   -1.7638 H   0  0  0  0  0  0  0  0  0  0  0  0
    3.2826   -2.4723   -1.7988 H   0  0  0  0  0  0  0  0  0  0  0  0
  1  2  2  0  0  0  0
  1  6  1  0  0  0  0
  1 21  1  0  0  0  0
  2  3  1  0  0  0  0
  2 22  1  0  0  0  0
  3  4  1  0  0  0  0
  3  7  2  0  0  0  0
  4  5  1  0  0  0  0
  4 10  2  0  0  0  0
  5  6  2  0  0  0  0
  5 11  1  0  0  0  0
  6 23  1  0  0  0  0
  7  8  1  0  0  0  0
  8  9  2  0  0  0  0
  8 24  1  0  0  0  0
  9 10  1  0  0  0  0
  9 14  1  0  0  0  0
 11 12  1  0  0  0  0
 11 13  2  0  0  0  0
 12 25  1  0  0  0  0
 12 26  1  0  0  0  0
 14 15  1  0  0  0  0
 14 19  2  0  0  0  0
 15 16  2  0  0  0  0
 15 27  1  0  0  0  0
 16 17  1  0  0  0  0
 16 28  1  0  0  0  0
 17 18  2  0  0  0  0
 17 20  1  0  0  0  0
 18 19  1  0  0  0  0
 18 29  1  0  0  0  0
 19 30  1  0  0  0  0
M  END
>  <DRUGBANK_ID>
DB03509

>  <SECONDARY_ACCESSION_NUMBERS>
EXPT00973

>  <COMMON_NAME>
2-(4-Chlorophenyl)-5-Quinoxalinecarboxamide

$$$$
