NCF
 OpenBabel10282417143D

 35 36  0  0  0  0  0  0  0  0999 V2000
    0.4618    1.8379   -0.6443 S   0  0  0  0  0  0  0  0  0  0  0  0
    1.5893    0.5076   -0.3095 C   0  0  0  0  0  0  0  0  0  0  0  0
    1.0633   -0.8943   -0.4693 C   0  0  0  0  0  0  0  0  0  0  0  0
   -0.4405   -1.1762   -0.4483 C   0  0  0  0  0  0  0  0  0  0  0  0
   -0.8498   -2.6910   -0.5941 C   0  0  0  0  0  0  0  0  0  0  0  0
   -2.1548   -2.9504   -0.3568 O   0  0  0  0  0  0  0  0  0  0  0  0
   -0.0346   -3.5447   -0.8165 O   0  0  0  0  0  0  0  0  0  0  0  0
   -1.3833   -0.3192   -0.2558 N   0  0  0  0  0  0  0  0  0  0  0  0
   -1.1061    1.1239   -0.0942 C   0  0  1  0  0  0  0  0  0  0  0  0
   -1.5557    1.6353    1.3127 C   0  0  1  0  0  0  0  0  0  0  0  0
   -1.3167    3.1304    1.5132 C   0  0  0  0  0  0  0  0  0  0  0  0
   -2.1897    3.9741    1.6802 O   0  0  0  0  0  0  0  0  0  0  0  0
   -2.9372    1.2532    1.5956 N   0  0  0  0  0  0  0  0  0  0  0  0
   -3.3970    0.3866    2.5440 C   0  0  0  0  0  0  0  0  0  0  0  0
   -4.6131    0.1896    2.5998 O   0  0  0  0  0  0  0  0  0  0  0  0
   -2.4489   -0.2409    3.5632 C   0  0  0  0  0  0  0  0  0  0  0  0
   -1.5090   -1.2832    3.0130 C   0  0  0  0  0  0  0  0  0  0  0  0
   -0.2206   -1.1556    2.5224 C   0  0  0  0  0  0  0  0  0  0  0  0
    0.3413   -2.4097    2.1593 C   0  0  0  0  0  0  0  0  0  0  0  0
   -0.5317   -3.4494    2.3218 C   0  0  0  0  0  0  0  0  0  0  0  0
   -1.9687   -2.9429    3.0692 S   0  0  0  0  0  0  0  0  0  0  0  0
   -1.7842    1.5901   -0.8143 H   0  0  0  0  0  0  0  0  0  0  0  0
   -0.9536    1.2256    2.1117 H   0  0  0  0  0  0  0  0  0  0  0  0
    2.4044    0.6329   -1.0251 H   0  0  0  0  0  0  0  0  0  0  0  0
    2.0500    0.6484    0.6815 H   0  0  0  0  0  0  0  0  0  0  0  0
    1.5019   -1.3959   -1.3335 H   0  0  0  0  0  0  0  0  0  0  0  0
    1.5705   -1.3881    0.3499 H   0  0  0  0  0  0  0  0  0  0  0  0
   -2.6623   -2.1737   -0.0459 H   0  0  0  0  0  0  0  0  0  0  0  0
   -0.2485    3.4177    1.5639 H   0  0  0  0  0  0  0  0  0  0  0  0
   -3.6631    1.6637    1.0148 H   0  0  0  0  0  0  0  0  0  0  0  0
   -1.8943    0.5515    4.0762 H   0  0  0  0  0  0  0  0  0  0  0  0
   -3.0764   -0.7138    4.3294 H   0  0  0  0  0  0  0  0  0  0  0  0
    0.2883   -0.2165    2.3442 H   0  0  0  0  0  0  0  0  0  0  0  0
    1.2756   -2.5957    1.6498 H   0  0  0  0  0  0  0  0  0  0  0  0
   -0.3578   -4.4537    1.9573 H   0  0  0  0  0  0  0  0  0  0  0  0
  1  2  1  0  0  0  0
  1  9  1  0  0  0  0
  2  3  1  0  0  0  0
  2 24  1  0  0  0  0
  2 25  1  0  0  0  0
  3  4  1  0  0  0  0
  3 26  1  0  0  0  0
  3 27  1  0  0  0  0
  4  5  1  0  0  0  0
  4  8  2  0  0  0  0
  5  6  1  0  0  0  0
  5  7  2  0  0  0  0
  6 28  1  0  0  0  0
  8  9  1  0  0  0  0
  9 10  1  0  0  0  0
  9 22  1  6  0  0  0
 10 11  1  0  0  0  0
 10 13  1  0  0  0  0
 10 23  1  1  0  0  0
 11 12  2  0  0  0  0
 11 29  1  0  0  0  0
 13 14  1  0  0  0  0
 13 30  1  0  0  0  0
 14 15  2  0  0  0  0
 14 16  1  0  0  0  0
 16 17  1  0  0  0  0
 16 31  1  0  0  0  0
 16 32  1  0  0  0  0
 17 18  2  0  0  0  0
 17 21  1  0  0  0  0
 18 19  1  0  0  0  0
 18 33  1  0  0  0  0
 19 20  2  0  0  0  0
 19 34  1  0  0  0  0
 20 21  1  0  0  0  0
 20 35  1  0  0  0  0
M  END
>  <DRUGBANK_ID>
DB04742

>  <COMMON_NAME>
(2R)-2-{(1R)-2-oxo-1-[(2-thienylacetyl)amino]ethyl}-5,6-dihydro-2h-1,3-thiazine-4-carboxylic acid

$$$$
