
 OpenBabel10282417203D

 15 15  0  0  0  0  0  0  0  0999 V2000
   -0.7322    1.2101    0.2358 C   0  0  0  0  0  0  0  0  0  0  0  0
    0.7195    1.1637   -0.2657 C   0  0  0  0  0  0  0  0  0  0  0  0
    1.3833   -0.0288    0.1734 O   0  0  0  0  0  0  0  0  0  0  0  0
    0.6716   -1.1913   -0.2707 C   0  0  0  0  0  0  0  0  0  0  0  0
   -0.7782   -1.1818    0.2373 C   0  0  0  0  0  0  0  0  0  0  0  0
   -1.5070    0.0283   -0.1912 N   0  0  0  0  0  0  0  0  0  0  0  0
   -0.7449    1.2605    1.3311 H   0  0  0  0  0  0  0  0  0  0  0  0
   -1.2245    2.1142   -0.1376 H   0  0  0  0  0  0  0  0  0  0  0  0
    0.7599    1.2112   -1.3605 H   0  0  0  0  0  0  0  0  0  0  0  0
    1.2778    2.0198    0.1258 H   0  0  0  0  0  0  0  0  0  0  0  0
    1.1970   -2.0715    0.1128 H   0  0  0  0  0  0  0  0  0  0  0  0
    0.7051   -1.2332   -1.3660 H   0  0  0  0  0  0  0  0  0  0  0  0
   -0.7885   -1.2284    1.3328 H   0  0  0  0  0  0  0  0  0  0  0  0
   -1.3067   -2.0670   -0.1317 H   0  0  0  0  0  0  0  0  0  0  0  0
   -1.5536    0.0284   -1.2099 H   0  0  0  0  0  0  0  0  0  0  0  0
  1  2  1  0  0  0  0
  1  6  1  0  0  0  0
  1  7  1  0  0  0  0
  1  8  1  0  0  0  0
  2  3  1  0  0  0  0
  2  9  1  0  0  0  0
  2 10  1  0  0  0  0
  3  4  1  0  0  0  0
  4  5  1  0  0  0  0
  4 11  1  0  0  0  0
  4 12  1  0  0  0  0
  5  6  1  0  0  0  0
  5 13  1  0  0  0  0
  5 14  1  0  0  0  0
  6 15  1  0  0  0  0
M  END
>  <DRUGBANK_ID>
DB13669

>  <COMMON_NAME>
Morpholine

>  <CAS_NUMBER>
110-91-8

>  <UNII>
8B2ZCK305O

$$$$
