BPQ
 OpenBabel10282417163D

 37 38  0  0  0  0  0  0  0  0999 V2000
    1.6426    0.6745   -0.0093 C   0  0  0  0  0  0  0  0  0  0  0  0
    1.5330   -0.6998    0.0036 N   0  0  0  0  0  0  0  0  0  0  0  0
    0.3327   -1.3928    0.0026 C   0  0  0  0  0  0  0  0  0  0  0  0
    0.2841   -2.6189   -0.0092 O   0  0  0  0  0  0  0  0  0  0  0  0
   -0.8242   -0.5263    0.0224 C   0  0  0  0  0  0  0  0  0  0  0  0
   -2.2412   -0.7235    0.1045 C   0  0  0  0  0  0  0  0  0  0  0  0
   -3.0131   -2.0055    0.1926 C   0  0  0  0  0  0  0  0  0  0  0  0
   -3.8257   -1.9907    1.3893 N   0  0  0  0  0  0  0  0  0  0  0  0
   -2.7917    0.5518    0.0639 C   0  0  0  0  0  0  0  0  0  0  0  0
   -1.7806    1.4755   -0.0229 N   0  0  0  0  0  0  0  0  0  0  0  0
   -0.5801    0.8299   -0.0201 C   0  0  0  0  0  0  0  0  0  0  0  0
    0.6120    1.4732   -0.0354 N   0  0  0  0  0  0  0  0  0  0  0  0
    2.9019    1.1743    0.0059 N   0  0  0  0  0  0  0  0  0  0  0  0
   -5.1789   -2.1131    1.4893 C   0  0  0  0  0  0  0  0  0  0  0  0
   -5.7052   -2.1055    2.5992 O   0  0  0  0  0  0  0  0  0  0  0  0
   -7.7490   -3.6291    1.0349 C   0  0  0  0  0  0  0  0  0  0  0  0
   -7.2968   -2.3584    0.3044 C   0  0  0  0  0  0  0  0  0  0  0  0
   -7.9572   -1.1088    0.9005 C   0  0  0  0  0  0  0  0  0  0  0  0
   -7.7655   -2.4752   -1.1610 C   0  0  0  0  0  0  0  0  0  0  0  0
   -5.8412   -2.2362    0.3035 O   0  0  0  0  0  0  0  0  0  0  0  0
    2.3629   -1.2659    0.0014 H   0  0  0  0  0  0  0  0  0  0  0  0
   -3.6445   -2.1252   -0.6905 H   0  0  0  0  0  0  0  0  0  0  0  0
   -2.3476   -2.8697    0.2688 H   0  0  0  0  0  0  0  0  0  0  0  0
   -3.3580   -1.9110    2.2817 H   0  0  0  0  0  0  0  0  0  0  0  0
   -3.8253    0.8702    0.0992 H   0  0  0  0  0  0  0  0  0  0  0  0
   -1.8885    2.4792   -0.0588 H   0  0  0  0  0  0  0  0  0  0  0  0
    2.9982    2.1734    0.1473 H   0  0  0  0  0  0  0  0  0  0  0  0
    3.7136    0.6040    0.1884 H   0  0  0  0  0  0  0  0  0  0  0  0
   -7.4564   -3.6264    2.0872 H   0  0  0  0  0  0  0  0  0  0  0  0
   -8.8387   -3.7379    1.0012 H   0  0  0  0  0  0  0  0  0  0  0  0
   -7.2965   -4.5186    0.5833 H   0  0  0  0  0  0  0  0  0  0  0  0
   -7.6515   -0.2101    0.3537 H   0  0  0  0  0  0  0  0  0  0  0  0
   -9.0497   -1.1835    0.8649 H   0  0  0  0  0  0  0  0  0  0  0  0
   -7.6771   -0.9527    1.9446 H   0  0  0  0  0  0  0  0  0  0  0  0
   -7.4727   -1.5982   -1.7488 H   0  0  0  0  0  0  0  0  0  0  0  0
   -7.3285   -3.3498   -1.6554 H   0  0  0  0  0  0  0  0  0  0  0  0
   -8.8582   -2.5684   -1.2194 H   0  0  0  0  0  0  0  0  0  0  0  0
  1  2  1  0  0  0  0
  1 12  2  0  0  0  0
  1 13  1  0  0  0  0
  2  3  1  0  0  0  0
  2 21  1  0  0  0  0
  3  4  2  0  0  0  0
  3  5  1  0  0  0  0
  5  6  1  0  0  0  0
  5 11  2  0  0  0  0
  6  7  1  0  0  0  0
  6  9  2  0  0  0  0
  7  8  1  0  0  0  0
  7 22  1  0  0  0  0
  7 23  1  0  0  0  0
  8 14  1  0  0  0  0
  8 24  1  0  0  0  0
  9 10  1  0  0  0  0
  9 25  1  0  0  0  0
 10 11  1  0  0  0  0
 10 26  1  0  0  0  0
 11 12  1  0  0  0  0
 13 27  1  0  0  0  0
 13 28  1  0  0  0  0
 14 15  2  0  0  0  0
 14 20  1  0  0  0  0
 16 17  1  0  0  0  0
 16 29  1  0  0  0  0
 16 30  1  0  0  0  0
 16 31  1  0  0  0  0
 17 18  1  0  0  0  0
 17 19  1  0  0  0  0
 17 20  1  0  0  0  0
 18 32  1  0  0  0  0
 18 33  1  0  0  0  0
 18 34  1  0  0  0  0
 19 35  1  0  0  0  0
 19 36  1  0  0  0  0
 19 37  1  0  0  0  0
M  END
>  <DRUGBANK_ID>
DB07481

>  <COMMON_NAME>
tert-butyl [(2-amino-4-oxo-4,7-dihydro-3H-pyrrolo[2,3-d]pyrimidin-5-yl)methyl]carbamate

$$$$
