
 OpenBabel10282417233D

 71 73  0  0  0  0  0  0  0  0999 V2000
  -10.0444    2.9012   12.6307 C   0  0  0  0  0  0  0  0  0  0  0  0
  -10.2628    4.0963   13.3436 C   0  0  0  0  0  0  0  0  0  0  0  0
  -10.0882    5.3559   12.7637 C   0  0  0  0  0  0  0  0  0  0  0  0
   -9.6985    5.4726   11.4429 C   0  0  0  0  0  0  0  0  0  0  0  0
   -9.4714    4.2731   10.7760 C   0  0  0  0  0  0  0  0  0  0  0  0
   -9.6165    3.0100   11.3055 C   0  0  0  0  0  0  0  0  0  0  0  0
  -10.1976    1.6373   13.1154 O   0  0  0  0  0  0  0  0  0  0  0  0
  -10.6193    1.5495   14.4625 C   0  0  0  0  0  0  0  0  0  0  0  0
   -9.0865    4.0966    9.4899 N   0  0  0  0  0  0  0  0  0  0  0  0
   -9.2497    2.0840   10.2897 C   0  0  0  0  0  0  0  0  0  0  0  0
   -8.8481    2.7827    9.1634 C   0  0  0  0  0  0  0  0  0  0  0  0
   -8.3153    2.1724    7.9615 C   0  0  0  0  0  0  0  0  0  0  0  0
   -8.2575    0.9521    7.7878 O   0  0  0  0  0  0  0  0  0  0  0  0
   -7.7973    2.9275    6.9548 N   0  0  0  0  0  0  0  0  0  0  0  0
   -7.8886    4.3476    6.7892 C   0  0  1  0  0  0  0  0  0  0  0  0
   -6.5487    5.0915    6.8223 C   0  0  0  0  0  0  0  0  0  0  0  0
   -5.9024    5.1635    5.4713 C   0  0  0  0  0  0  0  0  0  0  0  0
   -6.8308    6.2220    4.7641 C   0  0  0  0  0  0  0  0  0  0  0  0
   -4.4374    5.5471    5.4027 C   0  0  0  0  0  0  0  0  0  0  0  0
   -8.9622    4.6022    5.7616 C   0  0  0  0  0  0  0  0  0  0  0  0
   -9.9457    5.3158    5.9805 O   0  0  0  0  0  0  0  0  0  0  0  0
   -8.7648    4.2040    4.4982 N   0  0  0  0  0  0  0  0  0  0  0  0
   -7.6353    3.6724    3.7163 C   0  0  1  0  0  0  0  0  0  0  0  0
   -8.2759    2.4733    3.0370 C   0  0  0  0  0  0  0  0  0  0  0  0
   -6.5135    4.7107    2.7518 C   0  0  0  0  0  0  0  0  0  0  0  0
   -5.2959    4.7393    2.9660 O   0  0  0  0  0  0  0  0  0  0  0  0
   -6.9556    5.4709    1.5274 C   0  0  0  0  0  0  0  0  0  0  0  0
   -9.1669    2.9163    1.8602 C   0  0  2  0  0  0  0  0  0  0  0  0
   -9.4213    4.4343    1.6130 C   0  0  0  0  0  0  0  0  0  0  0  0
  -10.6225    5.0084    2.1939 C   0  0  0  0  0  0  0  0  0  0  0  0
  -11.2498    3.7711    2.5088 N   0  0  0  0  0  0  0  0  0  0  0  0
  -10.5686    2.6317    2.1094 C   0  0  0  0  0  0  0  0  0  0  0  0
  -11.0450    1.4645    2.0002 O   0  0  0  0  0  0  0  0  0  0  0  0
   -8.7463    2.4113    0.9731 H   0  0  0  0  0  0  0  0  0  0  0  0
   -7.4070    4.2551    0.8906 O   0  0  0  0  0  0  0  0  0  0  0  0
   -5.9904    3.3010    0.6151 P   0  0  0  0  0  0  0  0  0  0  0  0
   -5.1399    4.4507    0.1277 O   0  0  0  0  0  0  0  0  0  0  0  0
   -5.8995    2.4977    1.9845 O   0  0  0  0  0  0  0  0  0  0  0  0
   -4.5738    2.3469    0.3396 O   0  0  0  0  0  0  0  0  0  0  0  0
  -10.5723    4.0753   14.3802 H   0  0  0  0  0  0  0  0  0  0  0  0
  -10.2586    6.2551   13.3478 H   0  0  0  0  0  0  0  0  0  0  0  0
   -9.5652    6.4379   10.9626 H   0  0  0  0  0  0  0  0  0  0  0  0
   -9.8741    1.9978   15.1273 H   0  0  0  0  0  0  0  0  0  0  0  0
  -11.6020    2.0144   14.5924 H   0  0  0  0  0  0  0  0  0  0  0  0
  -10.7079    0.4914   14.7145 H   0  0  0  0  0  0  0  0  0  0  0  0
   -9.0155    4.9432    8.9676 H   0  0  0  0  0  0  0  0  0  0  0  0
   -9.2285    1.0048   10.3738 H   0  0  0  0  0  0  0  0  0  0  0  0
   -7.6162    2.3466    6.1457 H   0  0  0  0  0  0  0  0  0  0  0  0
   -8.3543    4.8144    7.6054 H   0  0  0  0  0  0  0  0  0  0  0  0
   -6.7410    6.1344    7.1055 H   0  0  0  0  0  0  0  0  0  0  0  0
   -5.8981    4.6679    7.5858 H   0  0  0  0  0  0  0  0  0  0  0  0
   -5.8144    4.1070    5.1971 H   0  0  0  0  0  0  0  0  0  0  0  0
   -6.4932    7.2401    4.8143 H   0  0  0  0  0  0  0  0  0  0  0  0
   -7.2489    6.1310    3.7791 H   0  0  0  0  0  0  0  0  0  0  0  0
   -7.7951    6.2469    5.2357 H   0  0  0  0  0  0  0  0  0  0  0  0
   -3.8788    5.1501    6.2491 H   0  0  0  0  0  0  0  0  0  0  0  0
   -3.9302    5.1072    4.5314 H   0  0  0  0  0  0  0  0  0  0  0  0
   -4.3613    6.6234    5.3059 H   0  0  0  0  0  0  0  0  0  0  0  0
   -9.5704    4.5143    4.0055 H   0  0  0  0  0  0  0  0  0  0  0  0
   -6.9994    3.1716    4.4381 H   0  0  0  0  0  0  0  0  0  0  0  0
   -7.5379    1.7021    2.7735 H   0  0  0  0  0  0  0  0  0  0  0  0
   -8.8399    1.8953    3.7865 H   0  0  0  0  0  0  0  0  0  0  0  0
   -7.6957    6.2553    1.7084 H   0  0  0  0  0  0  0  0  0  0  0  0
   -6.1739    6.0128    0.9811 H   0  0  0  0  0  0  0  0  0  0  0  0
   -8.7576    4.9734    2.2456 H   0  0  0  0  0  0  0  0  0  0  0  0
   -9.3648    4.7181    0.5530 H   0  0  0  0  0  0  0  0  0  0  0  0
  -10.3864    5.6760    3.0456 H   0  0  0  0  0  0  0  0  0  0  0  0
  -11.0613    5.6795    1.4567 H   0  0  0  0  0  0  0  0  0  0  0  0
  -12.2299    3.7322    2.7018 H   0  0  0  0  0  0  0  0  0  0  0  0
   -5.7739    2.8273    2.8835 H   0  0  0  0  0  0  0  0  0  0  0  0
   -4.7452    1.6482   -0.3110 H   0  0  0  0  0  0  0  0  0  0  0  0
  1  2  2  0  0  0  0
  1  7  1  0  0  0  0
  2  3  1  0  0  0  0
  2 40  1  0  0  0  0
  3  4  2  0  0  0  0
  3 41  1  0  0  0  0
  4  5  1  0  0  0  0
  4 42  1  0  0  0  0
  5  6  2  0  0  0  0
  6  1  1  0  0  0  0
  6 10  1  0  0  0  0
  7  8  1  0  0  0  0
  8 43  1  0  0  0  0
  8 44  1  0  0  0  0
  8 45  1  0  0  0  0
  9 11  1  0  0  0  0
  9  5  1  0  0  0  0
  9 46  1  0  0  0  0
 10 11  2  0  0  0  0
 10 47  1  0  0  0  0
 11 12  1  0  0  0  0
 12 13  2  0  0  0  0
 12 14  1  0  0  0  0
 14 15  1  0  0  0  0
 14 48  1  0  0  0  0
 15 16  1  0  0  0  0
 15 20  1  0  0  0  0
 15 49  1  1  0  0  0
 16 17  1  0  0  0  0
 16 50  1  0  0  0  0
 16 51  1  0  0  0  0
 17 18  1  0  0  0  0
 17 19  1  0  0  0  0
 17 52  1  0  0  0  0
 18 53  1  0  0  0  0
 18 54  1  0  0  0  0
 18 55  1  0  0  0  0
 19 56  1  0  0  0  0
 19 57  1  0  0  0  0
 19 58  1  0  0  0  0
 20 21  2  0  0  0  0
 20 22  1  0  0  0  0
 22 23  1  0  0  0  0
 22 59  1  0  0  0  0
 23 24  1  0  0  0  0
 23 25  1  0  0  0  0
 23 60  1  1  0  0  0
 24 61  1  0  0  0  0
 24 62  1  0  0  0  0
 25 26  2  0  0  0  0
 25 27  1  0  0  0  0
 27 35  1  0  0  0  0
 27 63  1  0  0  0  0
 27 64  1  0  0  0  0
 28 29  1  0  0  0  0
 28 32  1  0  0  0  0
 28 34  1  6  0  0  0
 28 24  1  0  0  0  0
 29 30  1  0  0  0  0
 29 65  1  0  0  0  0
 29 66  1  0  0  0  0
 30 31  1  0  0  0  0
 30 67  1  0  0  0  0
 30 68  1  0  0  0  0
 31 32  1  0  0  0  0
 31 69  1  0  0  0  0
 32 33  2  0  0  0  0
 35 36  1  0  0  0  0
 36 37  2  0  0  0  0
 36 38  1  0  0  0  0
 36 39  1  0  0  0  0
 38 70  1  0  0  0  0
 39 71  1  0  0  0  0
M  END
>  <DRUGBANK_ID>
DB16514

>  <COMMON_NAME>
PF-07304814

>  <UNII>
XJ51YOB1SC

$$$$
