
 OpenBabel10282417173D

 58 59  0  0  0  0  0  0  0  0999 V2000
    0.8662    0.0765    0.0991 C   0  0  0  0  0  0  0  0  0  0  0  0
    6.6559    3.6453   -3.6080 C   0  0  0  0  0  0  0  0  0  0  0  0
   10.3121   -1.3882   -6.8372 C   0  0  0  0  0  0  0  0  0  0  0  0
    7.9100   -2.6802   -2.8132 C   0  0  0  0  0  0  0  0  0  0  0  0
    0.3149    0.2083   -2.9715 C   0  0  0  0  0  0  0  0  0  0  0  0
    0.3015    2.6818   -2.7973 C   0  0  0  0  0  0  0  0  0  0  0  0
    0.3979    1.3175   -0.6658 C   0  0  0  0  0  0  0  0  0  0  0  0
    4.4958    0.2474   -2.0400 C   0  0  0  0  0  0  0  0  0  0  0  0
    4.4265    2.6516   -1.7929 C   0  0  0  0  0  0  0  0  0  0  0  0
    3.1154    0.2164   -2.1298 C   0  0  0  0  0  0  0  0  0  0  0  0
    3.0605    2.6285   -1.9814 C   0  0  0  0  0  0  0  0  0  0  0  0
    6.6137    1.5666   -2.1288 C   0  0  0  0  0  0  0  0  0  0  0  0
    8.5782    2.0631   -3.7429 C   0  0  0  0  0  0  0  0  0  0  0  0
    9.4278    0.3816   -5.3091 C   0  0  0  0  0  0  0  0  0  0  0  0
    8.4423   -0.3407   -3.2927 C   0  0  0  0  0  0  0  0  0  0  0  0
    7.0458    2.1607   -3.5067 C   0  0  3  0  0  0  0  0  0  0  0  0
   10.0550   -1.0329   -5.3865 C   0  0  1  0  0  0  0  0  0  0  0  0
    8.9693   -1.7562   -3.4302 C   0  0  2  0  0  0  0  0  0  0  0  0
    5.1378    1.4831   -1.9464 C   0  0  0  0  0  0  0  0  0  0  0  0
    2.3855    1.4131   -2.1378 C   0  0  0  0  0  0  0  0  0  0  0  0
    0.8613    1.3918   -2.1482 C   0  0  0  0  0  0  0  0  0  0  0  0
    9.2059    0.7398   -3.9053 N   0  0  0  0  0  0  0  0  0  0  0  0
    9.1916   -2.0449   -4.8135 O   0  0  0  0  0  0  0  0  0  0  0  0
    6.5286    1.6402   -4.3264 H   0  0  0  0  0  0  0  0  0  0  0  0
   11.0078   -1.0455   -4.8401 H   0  0  0  0  0  0  0  0  0  0  0  0
    9.9060   -1.8546   -2.8708 H   0  0  0  0  0  0  0  0  0  0  0  0
    0.5384   -0.8444   -0.3897 H   0  0  0  0  0  0  0  0  0  0  0  0
    0.4647    0.0781    1.1149 H   0  0  0  0  0  0  0  0  0  0  0  0
    1.9557    0.0433    0.1988 H   0  0  0  0  0  0  0  0  0  0  0  0
    7.0226    4.1957   -2.7345 H   0  0  0  0  0  0  0  0  0  0  0  0
    7.0533    4.1167   -4.5098 H   0  0  0  0  0  0  0  0  0  0  0  0
    5.5729    3.7712   -3.6780 H   0  0  0  0  0  0  0  0  0  0  0  0
   10.9831   -0.6571   -7.2986 H   0  0  0  0  0  0  0  0  0  0  0  0
   10.7625   -2.3813   -6.9118 H   0  0  0  0  0  0  0  0  0  0  0  0
    9.3744   -1.4103   -7.4022 H   0  0  0  0  0  0  0  0  0  0  0  0
    8.2531   -3.7154   -2.7841 H   0  0  0  0  0  0  0  0  0  0  0  0
    7.6698   -2.3695   -1.7861 H   0  0  0  0  0  0  0  0  0  0  0  0
    6.9728   -2.6591   -3.3838 H   0  0  0  0  0  0  0  0  0  0  0  0
   -0.7783    0.2219   -2.9942 H   0  0  0  0  0  0  0  0  0  0  0  0
    0.6848    0.2469   -4.0034 H   0  0  0  0  0  0  0  0  0  0  0  0
    0.6044   -0.7671   -2.5706 H   0  0  0  0  0  0  0  0  0  0  0  0
    0.5621    3.5851   -2.2343 H   0  0  0  0  0  0  0  0  0  0  0  0
    0.6899    2.8069   -3.8168 H   0  0  0  0  0  0  0  0  0  0  0  0
   -0.7902    2.6624   -2.8461 H   0  0  0  0  0  0  0  0  0  0  0  0
   -0.6959    1.3556   -0.6288 H   0  0  0  0  0  0  0  0  0  0  0  0
    0.7596    2.2009   -0.1198 H   0  0  0  0  0  0  0  0  0  0  0  0
    5.0402   -0.6925   -2.0545 H   0  0  0  0  0  0  0  0  0  0  0  0
    4.9255    3.5966   -1.6231 H   0  0  0  0  0  0  0  0  0  0  0  0
    2.6415   -0.7576   -2.1632 H   0  0  0  0  0  0  0  0  0  0  0  0
    2.5685    3.5897   -1.9997 H   0  0  0  0  0  0  0  0  0  0  0  0
    7.1148    2.0531   -1.2895 H   0  0  0  0  0  0  0  0  0  0  0  0
    6.8564    0.5237   -2.0235 H   0  0  0  0  0  0  0  0  0  0  0  0
    8.8420    2.6903   -4.6067 H   0  0  0  0  0  0  0  0  0  0  0  0
    9.0714    2.5473   -2.8904 H   0  0  0  0  0  0  0  0  0  0  0  0
   10.1118    1.1077   -5.7650 H   0  0  0  0  0  0  0  0  0  0  0  0
    8.4808    0.4091   -5.8653 H   0  0  0  0  0  0  0  0  0  0  0  0
    7.4373   -0.3563   -3.7432 H   0  0  0  0  0  0  0  0  0  0  0  0
    8.4524   -0.1676   -2.2173 H   0  0  0  0  0  0  0  0  0  0  0  0
  1 27  1  0  0  0  0
  1 28  1  0  0  0  0
  1 29  1  0  0  0  0
  2 30  1  0  0  0  0
  2 31  1  0  0  0  0
  2 32  1  0  0  0  0
  3 33  1  0  0  0  0
  3 34  1  0  0  0  0
  3 35  1  0  0  0  0
  4 36  1  0  0  0  0
  4 37  1  0  0  0  0
  4 38  1  0  0  0  0
  5 39  1  0  0  0  0
  5 40  1  0  0  0  0
  5 41  1  0  0  0  0
  6 42  1  0  0  0  0
  6 43  1  0  0  0  0
  6 44  1  0  0  0  0
  7  1  1  0  0  0  0
  7 45  1  0  0  0  0
  7 46  1  0  0  0  0
  8 47  1  0  0  0  0
  9 48  1  0  0  0  0
 10  8  1  0  0  0  0
 10 49  1  0  0  0  0
 11  9  2  0  0  0  0
 11 50  1  0  0  0  0
 12 51  1  0  0  0  0
 12 52  1  0  0  0  0
 13 53  1  0  0  0  0
 13 54  1  0  0  0  0
 14 55  1  0  0  0  0
 14 56  1  0  0  0  0
 15 57  1  0  0  0  0
 15 58  1  0  0  0  0
 16  2  1  0  0  0  0
 16 12  1  0  0  0  0
 16 13  1  0  0  0  0
 17  3  1  0  0  0  0
 17 14  1  0  0  0  0
 17 25  1  1  0  0  0
 18  4  1  0  0  0  0
 18 15  1  0  0  0  0
 18 26  1  1  0  0  0
 19  8  2  0  0  0  0
 19  9  1  0  0  0  0
 19 12  1  0  0  0  0
 20 10  2  0  0  0  0
 20 11  1  0  0  0  0
 21  5  1  0  0  0  0
 21  6  1  0  0  0  0
 21  7  1  0  0  0  0
 21 20  1  0  0  0  0
 22 13  1  0  0  0  0
 22 14  1  0  0  0  0
 22 15  1  0  0  0  0
 23 17  1  0  0  0  0
 23 18  1  0  0  0  0
 24 16  1  0  0  0  0
M  END
>  <DRUGBANK_ID>
DB09056

>  <COMMON_NAME>
Amorolfine

>  <CAS_NUMBER>
78613-35-1

>  <UNII>
AB0BHP2FH0

>  <SYNONYMS>
Amorolfin; Amorolfina; Amorolfine

$$$$
