
 OpenBabel10282417153D

 25 26  0  0  0  0  0  0  0  0999 V2000
    0.0210    0.6910    0.0330 C   0  0  0  0  0  0  0  0  0  0  0  0
    0.0250   -0.6860   -0.0340 C   0  0  0  0  0  0  0  0  0  0  0  0
    1.2330   -1.3750   -0.0660 C   0  0  0  0  0  0  0  0  0  0  0  0
    2.4310   -0.6980   -0.0330 C   0  0  0  0  0  0  0  0  0  0  0  0
    2.4330    0.6970    0.0310 C   0  0  0  0  0  0  0  0  0  0  0  0
    1.2210    1.3830    0.0690 C   0  0  0  0  0  0  0  0  0  0  0  0
   -1.2520    1.4960    0.0790 Se  0  0  0  0  0  0  0  0  0  0  0  0
   -2.4370    0.6550   -0.3900 N   0  0  0  0  0  0  0  0  0  0  0  0
   -2.4330   -0.6640    0.3910 C   0  0  0  0  0  0  0  0  0  0  0  0
   -1.2430   -1.4980   -0.0800 C   0  0  0  0  0  0  0  0  0  0  0  0
   -1.0903   -2.6976    0.8408 C   0  0  0  0  0  0  0  0  0  0  0  0
   -1.4896   -1.9587   -1.5073 C   0  0  0  0  0  0  0  0  0  0  0  0
    1.2309   -2.4438   -0.1169 H   0  0  0  0  0  0  0  0  0  0  0  0
    3.3549   -1.2372   -0.0562 H   0  0  0  0  0  0  0  0  0  0  0  0
    3.3579    1.2347    0.0507 H   0  0  0  0  0  0  0  0  0  0  0  0
    1.2167    2.4515    0.1264 H   0  0  0  0  0  0  0  0  0  0  0  0
   -3.3071    1.1572   -0.2137 H   0  0  0  0  0  0  0  0  0  0  0  0
   -2.3546   -0.4703    1.4404 H   0  0  0  0  0  0  0  0  0  0  0  0
   -3.3429   -1.1960    0.2069 H   0  0  0  0  0  0  0  0  0  0  0  0
   -1.9841   -3.2852    0.8124 H   0  0  0  0  0  0  0  0  0  0  0  0
   -0.2619   -3.2926    0.5172 H   0  0  0  0  0  0  0  0  0  0  0  0
   -0.9174   -2.3596    1.8412 H   0  0  0  0  0  0  0  0  0  0  0  0
   -1.5861   -1.1056   -2.1459 H   0  0  0  0  0  0  0  0  0  0  0  0
   -0.6668   -2.5587   -1.8357 H   0  0  0  0  0  0  0  0  0  0  0  0
   -2.3896   -2.5362   -1.5453 H   0  0  0  0  0  0  0  0  0  0  0  0
  1  2  1  0  0  0  0
  1  6  2  0  0  0  0
  1  7  1  0  0  0  0
  2  3  2  0  0  0  0
  2 10  1  0  0  0  0
  3  4  1  0  0  0  0
  3 13  1  0  0  0  0
  4  5  2  0  0  0  0
  4 14  1  0  0  0  0
  5  6  1  0  0  0  0
  5 15  1  0  0  0  0
  6 16  1  0  0  0  0
  7  8  1  0  0  0  0
  8  9  1  0  0  0  0
  8 17  1  0  0  0  0
  9 10  1  0  0  0  0
  9 18  1  0  0  0  0
  9 19  1  0  0  0  0
 10 11  1  0  0  0  0
 10 12  1  0  0  0  0
 11 20  1  0  0  0  0
 11 21  1  0  0  0  0
 11 22  1  0  0  0  0
 12 23  1  0  0  0  0
 12 24  1  0  0  0  0
 12 25  1  0  0  0  0
M  END
>  <DRUGBANK_ID>
DB05631

>  <COMMON_NAME>
ALT-2074

>  <CAS_NUMBER>
173026-17-0

>  <UNII>
634U7OUR4R

$$$$
