
 OpenBabel10282417193D

 62 66  0  0  0  0  0  0  0  0999 V2000
    0.7689    0.0554   -0.3101 C   0  0  0  0  0  0  0  0  0  0  0  0
    0.3914    0.9800   -1.4160 C   0  0  0  0  0  0  0  0  0  0  0  0
    0.7431    2.2761   -1.2378 N   0  0  0  0  0  0  0  0  0  0  0  0
    0.2456    2.8811   -2.2829 C   0  0  0  0  0  0  0  0  0  0  0  0
   -0.3031    1.9763   -3.1556 N   0  0  0  0  0  0  0  0  0  0  0  0
   -0.2051    0.7141   -2.6042 N   0  0  0  0  0  0  0  0  0  0  0  0
   -0.7483    2.2893   -4.5218 C   0  0  0  0  0  0  0  0  0  0  0  0
    0.0597    1.6553   -5.6635 C   0  0  0  0  0  0  0  0  0  0  0  0
   -2.2413    2.0767   -4.7654 C   0  0  0  0  0  0  0  0  0  0  0  0
    0.3732    4.3258   -2.4425 C   0  0  0  0  0  0  0  0  0  0  0  0
    1.5863    4.9611   -2.3527 C   0  0  0  0  0  0  0  0  0  0  0  0
    1.2792    6.2626   -2.5900 N   0  0  0  0  0  0  0  0  0  0  0  0
   -0.0890    6.3835   -2.7221 C   0  0  0  0  0  0  0  0  0  0  0  0
   -0.6484    5.1885   -2.7206 N   0  0  0  0  0  0  0  0  0  0  0  0
   -0.7277    7.6376   -3.1066 C   0  0  0  0  0  0  0  0  0  0  0  0
   -1.7721    8.0811   -2.2941 C   0  0  0  0  0  0  0  0  0  0  0  0
   -2.5566    9.1520   -2.6968 C   0  0  0  0  0  0  0  0  0  0  0  0
   -2.2597    9.8374   -3.8805 C   0  0  0  0  0  0  0  0  0  0  0  0
   -1.1089    9.5185   -4.5981 C   0  0  0  0  0  0  0  0  0  0  0  0
   -0.3487    8.4018   -4.2353 C   0  0  0  0  0  0  0  0  0  0  0  0
    0.7413    8.2003   -5.0546 O   0  0  0  0  0  0  0  0  0  0  0  0
    1.5840    7.0859   -4.7528 C   0  0  0  0  0  0  0  0  0  0  0  0
    2.1392    7.1797   -3.3218 C   0  0  0  0  0  0  0  0  0  0  0  0
   -3.1227   10.9050   -4.3076 C   0  0  0  0  0  0  0  0  0  0  0  0
   -3.8893   11.1479   -5.4575 C   0  0  0  0  0  0  0  0  0  0  0  0
   -4.5870   12.2912   -5.3712 N   0  0  0  0  0  0  0  0  0  0  0  0
   -4.2626   12.7869   -4.1395 N   0  0  0  0  0  0  0  0  0  0  0  0
   -3.3967   11.9634   -3.4889 C   0  0  0  0  0  0  0  0  0  0  0  0
   -4.8328   14.0766   -3.6760 C   0  0  0  0  0  0  0  0  0  0  0  0
   -4.4237   15.1918   -4.6599 C   0  0  0  0  0  0  0  0  0  0  0  0
   -6.3722   13.9802   -3.6548 C   0  0  0  0  0  0  0  0  0  0  0  0
   -4.3446   14.4783   -2.2435 C   0  0  0  0  0  0  0  0  0  0  0  0
   -3.5906   13.8587   -1.5145 O   0  0  0  0  0  0  0  0  0  0  0  0
   -4.7916   15.6516   -1.7059 N   0  0  0  0  0  0  0  0  0  0  0  0
    0.4032   -0.9661   -0.4050 H   0  0  0  0  0  0  0  0  0  0  0  0
    0.4076    0.4547    0.6512 H   0  0  0  0  0  0  0  0  0  0  0  0
    1.8628    0.0315   -0.2125 H   0  0  0  0  0  0  0  0  0  0  0  0
   -0.5874    3.3680   -4.6486 H   0  0  0  0  0  0  0  0  0  0  0  0
   -0.0346    0.5669   -5.6734 H   0  0  0  0  0  0  0  0  0  0  0  0
   -0.3016    2.0225   -6.6373 H   0  0  0  0  0  0  0  0  0  0  0  0
    1.1198    1.9215   -5.6058 H   0  0  0  0  0  0  0  0  0  0  0  0
   -2.8425    2.6412   -4.0471 H   0  0  0  0  0  0  0  0  0  0  0  0
   -2.5228    2.4308   -5.7682 H   0  0  0  0  0  0  0  0  0  0  0  0
   -2.5077    1.0190   -4.7025 H   0  0  0  0  0  0  0  0  0  0  0  0
    2.5954    4.5740   -2.2861 H   0  0  0  0  0  0  0  0  0  0  0  0
   -1.9842    7.5774   -1.3534 H   0  0  0  0  0  0  0  0  0  0  0  0
   -3.4118    9.4366   -2.0879 H   0  0  0  0  0  0  0  0  0  0  0  0
   -0.7962   10.1437   -5.4321 H   0  0  0  0  0  0  0  0  0  0  0  0
    0.9963    6.1711   -4.9435 H   0  0  0  0  0  0  0  0  0  0  0  0
    2.3876    7.0320   -5.4896 H   0  0  0  0  0  0  0  0  0  0  0  0
    2.0308    8.1552   -2.8301 H   0  0  0  0  0  0  0  0  0  0  0  0
    3.1690    6.8313   -3.2119 H   0  0  0  0  0  0  0  0  0  0  0  0
   -3.9807   10.5284   -6.3418 H   0  0  0  0  0  0  0  0  0  0  0  0
   -3.0124   12.1432   -2.5014 H   0  0  0  0  0  0  0  0  0  0  0  0
   -4.7989   15.0017   -5.6731 H   0  0  0  0  0  0  0  0  0  0  0  0
   -4.8193   16.1667   -4.3534 H   0  0  0  0  0  0  0  0  0  0  0  0
   -3.3337   15.2835   -4.7210 H   0  0  0  0  0  0  0  0  0  0  0  0
   -6.7094   13.1865   -2.9793 H   0  0  0  0  0  0  0  0  0  0  0  0
   -6.8304   14.9165   -3.3159 H   0  0  0  0  0  0  0  0  0  0  0  0
   -6.7834   13.7685   -4.6494 H   0  0  0  0  0  0  0  0  0  0  0  0
   -5.4228   16.3047   -2.1370 H   0  0  0  0  0  0  0  0  0  0  0  0
   -4.4343   15.8438   -0.7760 H   0  0  0  0  0  0  0  0  0  0  0  0
  1  2  1  0  0  0  0
  1 35  1  0  0  0  0
  1 36  1  0  0  0  0
  1 37  1  0  0  0  0
  2  3  1  0  0  0  0
  2  6  2  0  0  0  0
  3  4  2  0  0  0  0
  4  5  1  0  0  0  0
  4 10  1  0  0  0  0
  5  6  1  0  0  0  0
  5  7  1  0  0  0  0
  7  8  1  0  0  0  0
  7  9  1  0  0  0  0
  7 38  1  0  0  0  0
  8 39  1  0  0  0  0
  8 40  1  0  0  0  0
  8 41  1  0  0  0  0
  9 42  1  0  0  0  0
  9 43  1  0  0  0  0
  9 44  1  0  0  0  0
 10 11  2  0  0  0  0
 10 14  1  0  0  0  0
 11 12  1  0  0  0  0
 11 45  1  0  0  0  0
 12 13  1  0  0  0  0
 12 23  1  0  0  0  0
 13 14  2  0  0  0  0
 13 15  1  0  0  0  0
 15 16  2  0  0  0  0
 15 20  1  0  0  0  0
 16 17  1  0  0  0  0
 16 46  1  0  0  0  0
 17 18  2  0  0  0  0
 17 47  1  0  0  0  0
 18 19  1  0  0  0  0
 18 24  1  0  0  0  0
 19 20  2  0  0  0  0
 19 48  1  0  0  0  0
 20 21  1  0  0  0  0
 21 22  1  0  0  0  0
 22 23  1  0  0  0  0
 22 49  1  0  0  0  0
 22 50  1  0  0  0  0
 23 51  1  0  0  0  0
 23 52  1  0  0  0  0
 24 25  1  0  0  0  0
 24 28  2  0  0  0  0
 25 26  2  0  0  0  0
 25 53  1  0  0  0  0
 26 27  1  0  0  0  0
 27 28  1  0  0  0  0
 27 29  1  0  0  0  0
 28 54  1  0  0  0  0
 29 30  1  0  0  0  0
 29 31  1  0  0  0  0
 29 32  1  0  0  0  0
 30 55  1  0  0  0  0
 30 56  1  0  0  0  0
 30 57  1  0  0  0  0
 31 58  1  0  0  0  0
 31 59  1  0  0  0  0
 31 60  1  0  0  0  0
 32 33  2  0  0  0  0
 32 34  1  0  0  0  0
 34 61  1  0  0  0  0
 34 62  1  0  0  0  0
M  END
>  <DRUGBANK_ID>
DB12108

>  <COMMON_NAME>
Taselisib

>  <CAS_NUMBER>
1282512-48-4

>  <UNII>
L08J2O299M

>  <SYNONYMS>
Taselisib

$$$$
