
 OpenBabel10282417203D

 32 33  0  0  0  0  0  0  0  0999 V2000
   -1.1836    1.2157    0.0068 C   0  0  0  0  0  0  0  0  0  0  0  0
   -1.9619    0.0638    0.0052 C   0  0  0  0  0  0  0  0  0  0  0  0
   -1.3488   -1.1777   -0.0063 C   0  0  0  0  0  0  0  0  0  0  0  0
    0.0483   -1.2902   -0.0524 C   0  0  0  0  0  0  0  0  0  0  0  0
    0.8547   -0.1352   -0.0195 C   0  0  0  0  0  0  0  0  0  0  0  0
    0.2114    1.1178    0.0109 C   0  0  0  0  0  0  0  0  0  0  0  0
    2.2199   -0.0077    0.0181 O   0  0  0  0  0  0  0  0  0  0  0  0
    3.0867   -1.1454    0.0465 C   0  0  0  0  0  0  0  0  0  0  0  0
    2.9306   -2.0170    1.2808 C   0  0  0  0  0  0  0  0  0  0  0  0
    2.9362   -3.4238    1.1932 C   0  0  0  0  0  0  0  0  0  0  0  0
    2.7103   -4.2192    2.3180 C   0  0  0  0  0  0  0  0  0  0  0  0
    2.6090   -3.6234    3.5742 C   0  0  0  0  0  0  0  0  0  0  0  0
    2.6662   -2.2279    3.6811 C   0  0  0  0  0  0  0  0  0  0  0  0
    2.7492   -1.4305    2.5375 C   0  0  0  0  0  0  0  0  0  0  0  0
    2.4240   -4.4273    4.8024 C   0  0  0  0  0  0  0  0  0  0  0  0
    2.3706   -3.9820    5.9400 O   0  0  0  0  0  0  0  0  0  0  0  0
    2.3090   -5.7436    4.5573 O   0  0  0  0  0  0  0  0  0  0  0  0
    0.5317   -2.6617   -0.2625 C   0  0  0  0  0  0  0  0  0  0  0  0
   -0.1055   -3.6576    0.0720 O   0  0  0  0  0  0  0  0  0  0  0  0
   -2.1851   -2.2664   -0.0208 O   0  0  0  0  0  0  0  0  0  0  0  0
   -1.6672    2.1891    0.0068 H   0  0  0  0  0  0  0  0  0  0  0  0
   -3.0457    0.1199   -0.0067 H   0  0  0  0  0  0  0  0  0  0  0  0
    0.7988    2.0370    0.0295 H   0  0  0  0  0  0  0  0  0  0  0  0
    2.9935   -1.6735   -0.9076 H   0  0  0  0  0  0  0  0  0  0  0  0
    4.1200   -0.7794    0.0357 H   0  0  0  0  0  0  0  0  0  0  0  0
    3.0091   -3.9313    0.2322 H   0  0  0  0  0  0  0  0  0  0  0  0
    2.6089   -5.2958    2.1970 H   0  0  0  0  0  0  0  0  0  0  0  0
    2.6363   -1.7515    4.6580 H   0  0  0  0  0  0  0  0  0  0  0  0
    2.6495   -0.3499    2.6324 H   0  0  0  0  0  0  0  0  0  0  0  0
    2.1761   -6.1533    5.4375 H   0  0  0  0  0  0  0  0  0  0  0  0
    1.4712   -2.7873   -0.7921 H   0  0  0  0  0  0  0  0  0  0  0  0
   -1.6359   -3.0831    0.0540 H   0  0  0  0  0  0  0  0  0  0  0  0
  1  2  2  0  0  0  0
  1  6  1  0  0  0  0
  1 21  1  0  0  0  0
  2  3  1  0  0  0  0
  2 22  1  0  0  0  0
  3  4  2  0  0  0  0
  3 20  1  0  0  0  0
  4  5  1  0  0  0  0
  4 18  1  0  0  0  0
  5  6  2  0  0  0  0
  5  7  1  0  0  0  0
  6 23  1  0  0  0  0
  7  8  1  0  0  0  0
  8  9  1  0  0  0  0
  8 24  1  0  0  0  0
  8 25  1  0  0  0  0
  9 10  2  0  0  0  0
  9 14  1  0  0  0  0
 10 11  1  0  0  0  0
 10 26  1  0  0  0  0
 11 12  2  0  0  0  0
 11 27  1  0  0  0  0
 12 13  1  0  0  0  0
 12 15  1  0  0  0  0
 13 14  2  0  0  0  0
 13 28  1  0  0  0  0
 14 29  1  0  0  0  0
 15 16  2  0  0  0  0
 15 17  1  0  0  0  0
 17 30  1  0  0  0  0
 18 19  2  0  0  0  0
 18 31  1  0  0  0  0
 20 32  1  0  0  0  0
M  END
>  <DRUGBANK_ID>
DB13027

>  <COMMON_NAME>
Tucaresol

>  <CAS_NUMBER>
84290-27-7

>  <UNII>
JH368G5B9M

>  <SYNONYMS>
Tucaresol

$$$$
