LEH
 OpenBabel10282417173D

 64 64  0  0  0  0  0  0  0  0999 V2000
    0.9626    0.6339    0.2229 O   0  0  0  0  0  0  0  0  0  0  0  0
    2.1770    0.5192    0.0101 C   0  0  0  0  0  0  0  0  0  0  0  0
    2.9314    0.2177    1.1304 N   0  0  0  0  0  0  0  0  0  0  0  0
    4.3692   -0.0201    1.3607 C   0  0  1  0  0  0  0  0  0  0  0  0
    5.1037   -0.2356    0.0711 C   0  0  0  0  0  0  0  0  0  0  0  0
    4.6021   -1.5234   -0.6882 C   0  0  0  0  0  0  0  0  0  0  0  0
    3.1224   -2.1232   -0.2757 C   0  0  0  0  0  0  0  0  0  0  0  0
    5.1277   -1.3645   -2.1783 C   0  0  0  0  0  0  0  0  0  0  0  0
    4.9294    1.1936    2.1293 C   0  0  0  0  0  0  0  0  0  0  0  0
    5.7230    0.8655    3.1877 O   0  0  0  0  0  0  0  0  0  0  0  0
    4.6962    2.3382    1.8422 O   0  0  0  0  0  0  0  0  0  0  0  0
    2.7182    0.4829   -1.5048 C   0  0  0  0  0  0  0  0  0  0  0  0
    2.4073   -0.7920   -2.4671 C   0  0  0  0  0  0  0  0  0  0  0  0
    0.9231   -0.9837   -2.5933 C   0  0  0  0  0  0  0  0  0  0  0  0
    0.5200    0.2818   -3.3038 C   0  0  0  0  0  0  0  0  0  0  0  0
    1.3505    0.3757   -4.6062 C   0  0  0  0  0  0  0  0  0  0  0  0
    1.0908   -0.9124   -5.4109 C   0  0  0  0  0  0  0  0  0  0  0  0
   -0.4095   -0.9508   -5.6912 C   0  0  0  0  0  0  0  0  0  0  0  0
   -0.7655    0.3471   -6.4125 C   0  0  0  0  0  0  0  0  0  0  0  0
    0.0747    0.4149   -7.6990 C   0  0  0  0  0  0  0  0  0  0  0  0
   -0.3618   -0.6991   -8.6501 C   0  0  0  0  0  0  0  0  0  0  0  0
   -1.8698   -0.6552   -8.9277 C   0  0  0  0  0  0  0  0  0  0  0  0
   -2.2751    0.5823   -9.5701 N   0  0  0  0  0  0  0  0  0  0  0  0
   -2.8582    0.6866  -10.7984 C   0  0  0  0  0  0  0  0  0  0  0  0
   -2.8444    2.0328  -11.0817 C   0  0  0  0  0  0  0  0  0  0  0  0
   -2.3389    2.7516  -10.0395 N   0  0  0  0  0  0  0  0  0  0  0  0
   -2.1069    1.8598   -9.1092 C   0  0  0  0  0  0  0  0  0  0  0  0
    4.4831   -0.9226    1.9766 H   0  0  0  0  0  0  0  0  0  0  0  0
    2.3541    0.1054    1.9597 H   0  0  0  0  0  0  0  0  0  0  0  0
    5.0382    0.7270   -0.4538 H   0  0  0  0  0  0  0  0  0  0  0  0
    6.1906   -0.2983    0.1802 H   0  0  0  0  0  0  0  0  0  0  0  0
    5.2028   -2.3482   -0.3114 H   0  0  0  0  0  0  0  0  0  0  0  0
    2.2420   -1.5226   -0.4845 H   0  0  0  0  0  0  0  0  0  0  0  0
    2.8258   -3.0461   -0.7861 H   0  0  0  0  0  0  0  0  0  0  0  0
    2.9655   -2.2390    0.7978 H   0  0  0  0  0  0  0  0  0  0  0  0
    6.2213   -1.3056   -2.1829 H   0  0  0  0  0  0  0  0  0  0  0  0
    4.8344   -2.1827   -2.8416 H   0  0  0  0  0  0  0  0  0  0  0  0
    4.8661   -0.4273   -2.6968 H   0  0  0  0  0  0  0  0  0  0  0  0
    5.8522   -0.0798    3.3754 H   0  0  0  0  0  0  0  0  0  0  0  0
    2.3938    1.4175   -1.9722 H   0  0  0  0  0  0  0  0  0  0  0  0
    3.7626    0.6902   -1.5831 H   0  0  0  0  0  0  0  0  0  0  0  0
    2.9562   -0.7118   -3.4124 H   0  0  0  0  0  0  0  0  0  0  0  0
    2.7846   -1.7994   -2.3066 H   0  0  0  0  0  0  0  0  0  0  0  0
    0.6782   -1.9172   -3.1244 H   0  0  0  0  0  0  0  0  0  0  0  0
    0.4415   -1.1158   -1.6247 H   0  0  0  0  0  0  0  0  0  0  0  0
   -0.5572    0.3007   -3.4426 H   0  0  0  0  0  0  0  0  0  0  0  0
    0.6940    1.1513   -2.6756 H   0  0  0  0  0  0  0  0  0  0  0  0
    1.1266    1.3102   -5.1151 H   0  0  0  0  0  0  0  0  0  0  0  0
    2.4281    0.5280   -4.4878 H   0  0  0  0  0  0  0  0  0  0  0  0
    1.7153   -0.9403   -6.3054 H   0  0  0  0  0  0  0  0  0  0  0  0
    1.4009   -1.8393   -4.9183 H   0  0  0  0  0  0  0  0  0  0  0  0
   -0.6752   -1.8424   -6.2603 H   0  0  0  0  0  0  0  0  0  0  0  0
   -1.0066   -1.0524   -4.7791 H   0  0  0  0  0  0  0  0  0  0  0  0
   -1.8442    0.3940   -6.5614 H   0  0  0  0  0  0  0  0  0  0  0  0
   -0.5976    1.2426   -5.8054 H   0  0  0  0  0  0  0  0  0  0  0  0
    0.0388    1.3979   -8.1622 H   0  0  0  0  0  0  0  0  0  0  0  0
    1.1497    0.3511   -7.5164 H   0  0  0  0  0  0  0  0  0  0  0  0
    0.2095   -0.6228   -9.5784 H   0  0  0  0  0  0  0  0  0  0  0  0
   -0.0979   -1.6777   -8.2266 H   0  0  0  0  0  0  0  0  0  0  0  0
   -2.1373   -1.4967   -9.5754 H   0  0  0  0  0  0  0  0  0  0  0  0
   -2.4803   -0.7793   -8.0263 H   0  0  0  0  0  0  0  0  0  0  0  0
   -3.2061   -0.1697  -11.3549 H   0  0  0  0  0  0  0  0  0  0  0  0
   -3.1904    2.5338  -11.9720 H   0  0  0  0  0  0  0  0  0  0  0  0
   -1.7739    2.1171   -8.1137 H   0  0  0  0  0  0  0  0  0  0  0  0
  1  2  2  0  0  0  0
  2  3  1  0  0  0  0
  2 12  1  0  0  0  0
  3 29  1  0  0  0  0
  4  3  1  0  0  0  0
  4  9  1  0  0  0  0
  4 28  1  1  0  0  0
  5  4  1  0  0  0  0
  5 30  1  0  0  0  0
  5 31  1  0  0  0  0
  6  5  1  0  0  0  0
  6  7  1  0  0  0  0
  6 32  1  0  0  0  0
  7 33  1  0  0  0  0
  7 34  1  0  0  0  0
  7 35  1  0  0  0  0
  8  6  1  0  0  0  0
  8 36  1  0  0  0  0
  8 37  1  0  0  0  0
  8 38  1  0  0  0  0
  9 10  1  0  0  0  0
 10 39  1  0  0  0  0
 11  9  2  0  0  0  0
 12 13  1  0  0  0  0
 12 40  1  0  0  0  0
 12 41  1  0  0  0  0
 13 42  1  0  0  0  0
 13 43  1  0  0  0  0
 14 13  1  0  0  0  0
 14 44  1  0  0  0  0
 14 45  1  0  0  0  0
 15 14  1  0  0  0  0
 15 16  1  0  0  0  0
 15 46  1  0  0  0  0
 15 47  1  0  0  0  0
 16 48  1  0  0  0  0
 16 49  1  0  0  0  0
 17 16  1  0  0  0  0
 17 18  1  0  0  0  0
 17 50  1  0  0  0  0
 17 51  1  0  0  0  0
 18 19  1  0  0  0  0
 18 52  1  0  0  0  0
 18 53  1  0  0  0  0
 19 20  1  0  0  0  0
 19 54  1  0  0  0  0
 19 55  1  0  0  0  0
 20 21  1  0  0  0  0
 20 56  1  0  0  0  0
 20 57  1  0  0  0  0
 21 22  1  0  0  0  0
 21 58  1  0  0  0  0
 21 59  1  0  0  0  0
 22 23  1  0  0  0  0
 22 60  1  0  0  0  0
 22 61  1  0  0  0  0
 23 27  1  0  0  0  0
 24 23  1  0  0  0  0
 24 25  2  0  0  0  0
 24 62  1  0  0  0  0
 25 26  1  0  0  0  0
 25 63  1  0  0  0  0
 27 26  2  0  0  0  0
 27 64  1  0  0  0  0
M  END
>  <DRUGBANK_ID>
DB08086

>  <COMMON_NAME>
N-[12-(1H-imidazol-1-yl)dodecanoyl]-L-leucine

$$$$
