
 OpenBabel10282417123D

123127  0  0  0  0  0  0  0  0999 V2000
    1.2910   -0.2756    1.8907 C   0  0  0  0  0  0  0  0  0  0  0  0
    3.1532   -3.1795    4.5881 C   0  0  0  0  0  0  0  0  0  0  0  0
    2.7737   -6.1319    5.4315 C   0  0  0  0  0  0  0  0  0  0  0  0
    2.3148   -5.9470    4.2209 C   0  0  0  0  0  0  0  0  0  0  0  0
    1.2689   -4.9551    4.3751 C   0  0  0  0  0  0  0  0  0  0  0  0
    0.0429   -3.2366    3.9018 C   0  0  0  0  0  0  0  0  0  0  0  0
   -0.4197   -2.5894    1.4603 C   0  0  0  0  0  0  0  0  0  0  0  0
    1.2820   -0.3612    0.0315 N   0  0  0  0  0  0  0  0  0  0  0  0
    2.7002   -4.3545    5.7020 N   0  0  0  0  0  0  0  0  0  0  0  0
    1.1356   -3.9269    3.6401 N   0  0  0  0  0  0  0  0  0  0  0  0
   -1.1654   -2.0076    0.5660 N   0  0  0  0  0  0  0  0  0  0  0  0
   -0.1397   -3.3857    5.3969 C   0  0  1  0  0  0  0  0  0  0  0  0
   -0.5282   -2.9487    6.7906 C   0  0  0  0  0  0  0  0  0  0  0  0
   -0.1617   -1.5480    7.1229 C   0  0  0  0  0  0  0  0  0  0  0  0
   -0.9205   -0.5688    6.2534 C   0  0  0  0  0  0  0  0  0  0  0  0
   -1.7343    0.2167    6.6961 O   0  0  0  0  0  0  0  0  0  0  0  0
   -0.6000   -0.5637    4.9505 O   0  0  0  0  0  0  0  0  0  0  0  0
    3.9573   -7.0653    5.5729 C   0  0  2  0  0  0  0  0  0  0  0  0
    4.4399   -7.0550    7.3297 C   0  0  0  0  0  0  0  0  0  0  0  0
    4.5031   -9.0968    8.1381 C   0  0  0  0  0  0  0  0  0  0  0  0
    5.2609  -10.2324    8.1885 O   0  0  0  0  0  0  0  0  0  0  0  0
    4.0717   -5.1383    5.9927 C   0  0  2  0  0  0  0  0  0  0  0  0
    2.4409   -1.2742    3.2539 C   0  0  0  0  0  0  0  0  0  0  0  0
   -0.7234   -2.6113    2.9585 C   0  0  0  0  0  0  0  0  0  0  0  0
    0.5641   -4.6650    5.6625 C   0  0  0  0  0  0  0  0  0  0  0  0
    2.0421   -2.4854    1.1577 C   0  0  0  0  0  0  0  0  0  0  0  0
    3.4390   -3.1738    1.1792 C   0  0  0  0  0  0  0  0  0  0  0  0
    3.6255   -3.6583   -0.1569 C   0  0  0  0  0  0  0  0  0  0  0  0
    4.5967   -3.4562   -0.8213 O   0  0  0  0  0  0  0  0  0  0  0  0
    2.7241   -4.5160   -0.4813 O   0  0  0  0  0  0  0  0  0  0  0  0
    0.4614   -3.3339   -0.6289 C   0  0  2  0  0  0  0  0  0  0  0  0
   -2.0836   -0.2374   -1.7059 C   0  0  0  0  0  0  0  0  0  0  0  0
   -3.0758   -1.1781   -1.2177 C   0  0  0  0  0  0  0  0  0  0  0  0
   -4.1131   -0.8679   -0.6760 O   0  0  0  0  0  0  0  0  0  0  0  0
   -1.7588    1.8739    0.5612 C   0  0  0  0  0  0  0  0  0  0  0  0
   -2.6352    2.6394   -0.5601 C   0  0  0  0  0  0  0  0  0  0  0  0
   -3.6881    1.9332   -1.5676 C   0  0  0  0  0  0  0  0  0  0  0  0
   -4.8743    1.7816   -1.4872 O   0  0  0  0  0  0  0  0  0  0  0  0
   -3.4346    1.1190   -2.5707 O   0  0  0  0  0  0  0  0  0  0  0  0
   -0.1654    0.6923    0.5852 C   0  0  1  0  0  0  0  0  0  0  0  0
   -0.6951    0.2418   -1.2481 C   0  0  1  0  0  0  0  0  0  0  0  0
    0.2253   -0.8748   -1.1641 C   0  0  1  0  0  0  0  0  0  0  0  0
    1.9549   -3.3065   -3.4163 O   0  0  0  0  0  0  0  0  0  0  0  0
    1.9806   -4.2433   -2.6456 C   0  0  0  0  0  0  0  0  0  0  0  0
    3.2799   -5.0210   -2.3867 O   0  0  0  0  0  0  0  0  0  0  0  0
    0.7259   -4.5899   -1.4456 C   0  0  0  0  0  0  0  0  0  0  0  0
    1.4647   -4.3495    1.4685 C   0  0  0  0  0  0  0  0  0  0  0  0
    0.8266   -3.2287    0.8169 C   0  0  2  0  0  0  0  0  0  0  0  0
    0.8154   -1.1435   -2.5729 C   0  0  0  0  0  0  0  0  0  0  0  0
    2.3721    0.8350    2.1539 C   0  0  0  0  0  0  0  0  0  0  0  0
   -2.0081   -1.9502    3.3976 C   0  0  0  0  0  0  0  0  0  0  0  0
    0.8690   -5.6320    6.9031 C   0  0  0  0  0  0  0  0  0  0  0  0
   -0.5149   -5.4015    6.2523 C   0  0  0  0  0  0  0  0  0  0  0  0
    5.3442   -6.2941    7.1579 C   0  0  0  0  0  0  0  0  0  0  0  0
   -1.0441    0.8533   -2.6724 C   0  0  0  0  0  0  0  0  0  0  0  0
   -1.0427   -2.4550   -1.5736 H   0  0  0  0  0  0  0  0  0  0  0  0
   -2.7875   -2.3751   -1.6729 O   0  0  0  0  0  0  0  0  0  0  0  0
    3.4114   -9.5429    9.0947 O   0  0  0  0  0  0  0  0  0  0  0  0
   -0.4536   -2.1758   -0.7343 C   0  0  2  0  0  0  0  0  0  0  0  0
    4.3315   -7.3947    4.1986 C   0  0  0  0  0  0  0  0  0  0  0  0
    4.9518   -6.0615    3.9172 C   0  0  0  0  0  0  0  0  0  0  0  0
    7.1845   -5.5194    3.7720 O   0  0  0  0  0  0  0  0  0  0  0  0
    6.2557   -5.7654    4.4869 C   0  0  0  0  0  0  0  0  0  0  0  0
    6.4344   -5.5281    5.7444 O   0  0  0  0  0  0  0  0  0  0  0  0
    3.0488   -5.8508    3.4348 H   0  0  0  0  0  0  0  0  0  0  0  0
    2.1285   -0.7391   -0.2880 H   0  0  0  0  0  0  0  0  0  0  0  0
   -0.3934   -2.3954    5.1821 H   0  0  0  0  0  0  0  0  0  0  0  0
   -1.5868   -3.1580    6.9261 H   0  0  0  0  0  0  0  0  0  0  0  0
    0.0088   -3.5591    7.5085 H   0  0  0  0  0  0  0  0  0  0  0  0
   -0.4294   -1.3809    8.1702 H   0  0  0  0  0  0  0  0  0  0  0  0
    0.9159   -1.4188    7.0240 H   0  0  0  0  0  0  0  0  0  0  0  0
   -1.1102    0.0374    4.3703 H   0  0  0  0  0  0  0  0  0  0  0  0
    4.5843   -8.3487    5.7160 H   0  0  0  0  0  0  0  0  0  0  0  0
    5.6759   -8.1084    7.4405 H   0  0  0  0  0  0  0  0  0  0  0  0
    5.0065   -7.3564    8.7743 H   0  0  0  0  0  0  0  0  0  0  0  0
    2.2861   -1.6357    0.7289 H   0  0  0  0  0  0  0  0  0  0  0  0
    1.7123   -2.2332    2.1187 H   0  0  0  0  0  0  0  0  0  0  0  0
    4.1885   -2.5426    1.5698 H   0  0  0  0  0  0  0  0  0  0  0  0
    3.5797   -4.1071    1.8530 H   0  0  0  0  0  0  0  0  0  0  0  0
    2.5656   -4.9635   -1.2987 H   0  0  0  0  0  0  0  0  0  0  0  0
    1.0639   -2.9745   -1.4139 H   0  0  0  0  0  0  0  0  0  0  0  0
   -2.4729    0.5756   -1.0683 H   0  0  0  0  0  0  0  0  0  0  0  0
   -2.4117   -0.1183   -3.1556 H   0  0  0  0  0  0  0  0  0  0  0  0
   -2.6075    1.2625    1.0711 H   0  0  0  0  0  0  0  0  0  0  0  0
   -1.4404    2.6289    1.2676 H   0  0  0  0  0  0  0  0  0  0  0  0
   -3.3776    3.2630   -0.0172 H   0  0  0  0  0  0  0  0  0  0  0  0
   -1.9506    3.3083   -1.0666 H   0  0  0  0  0  0  0  0  0  0  0  0
   -3.7112    0.1615   -2.7571 H   0  0  0  0  0  0  0  0  0  0  0  0
   -1.0600    0.7204    1.1356 H   0  0  0  0  0  0  0  0  0  0  0  0
    3.6165   -5.6495   -1.5718 H   0  0  0  0  0  0  0  0  0  0  0  0
    1.0156   -5.3974   -0.7508 H   0  0  0  0  0  0  0  0  0  0  0  0
   -0.0542   -4.9520   -2.0474 H   0  0  0  0  0  0  0  0  0  0  0  0
    1.0309   -4.9527    2.1497 H   0  0  0  0  0  0  0  0  0  0  0  0
    2.0275   -5.0569    0.9439 H   0  0  0  0  0  0  0  0  0  0  0  0
    2.1266   -3.8827    2.2179 H   0  0  0  0  0  0  0  0  0  0  0  0
    0.7514   -0.3168   -3.2739 H   0  0  0  0  0  0  0  0  0  0  0  0
    1.8546   -1.3939   -2.4613 H   0  0  0  0  0  0  0  0  0  0  0  0
    0.2802   -1.9843   -3.0798 H   0  0  0  0  0  0  0  0  0  0  0  0
    2.3587    2.4446    1.9870 H   0  0  0  0  0  0  0  0  0  0  0  0
    2.6410    1.8631    0.9222 H   0  0  0  0  0  0  0  0  0  0  0  0
    1.6014    2.0020    1.2762 H   0  0  0  0  0  0  0  0  0  0  0  0
   -2.3364   -2.3230    4.3767 H   0  0  0  0  0  0  0  0  0  0  0  0
   -1.9244   -0.8835    3.4622 H   0  0  0  0  0  0  0  0  0  0  0  0
   -2.8185   -2.0139    2.6999 H   0  0  0  0  0  0  0  0  0  0  0  0
    1.1410   -5.0061    7.7516 H   0  0  0  0  0  0  0  0  0  0  0  0
   -0.1618   -6.5791    7.3751 H   0  0  0  0  0  0  0  0  0  0  0  0
    1.4092   -6.5042    6.7379 H   0  0  0  0  0  0  0  0  0  0  0  0
   -0.3931   -6.5324    5.8260 H   0  0  0  0  0  0  0  0  0  0  0  0
   -0.5418   -5.2114    7.7166 H   0  0  0  0  0  0  0  0  0  0  0  0
   -1.4665   -5.0470    6.2584 H   0  0  0  0  0  0  0  0  0  0  0  0
    6.3241   -6.9101    8.0960 H   0  0  0  0  0  0  0  0  0  0  0  0
    6.1383   -7.0381    6.5349 H   0  0  0  0  0  0  0  0  0  0  0  0
    5.6347   -5.6180    7.9103 H   0  0  0  0  0  0  0  0  0  0  0  0
   -0.6382    1.3750   -3.4659 H   0  0  0  0  0  0  0  0  0  0  0  0
   -1.1018   -0.4121   -3.3753 H   0  0  0  0  0  0  0  0  0  0  0  0
   -1.9207    1.8367   -2.8079 H   0  0  0  0  0  0  0  0  0  0  0  0
   -3.0195   -3.1084   -1.0901 H   0  0  0  0  0  0  0  0  0  0  0  0
    3.1532  -10.5295    9.3242 H   0  0  0  0  0  0  0  0  0  0  0  0
    4.9964   -8.1868    3.8656 H   0  0  0  0  0  0  0  0  0  0  0  0
    3.3563   -7.6948    3.7701 H   0  0  0  0  0  0  0  0  0  0  0  0
    4.8659   -5.8924    2.8682 H   0  0  0  0  0  0  0  0  0  0  0  0
    4.3900   -5.2002    4.2671 H   0  0  0  0  0  0  0  0  0  0  0  0
    7.2329   -5.7291    6.2853 H   0  0  0  0  0  0  0  0  0  0  0  0
  1 23  2  0  0  0  0
  2  9  2  0  0  0  0
  3  4  2  0  0  0  0
  4  5  1  0  0  0  0
  4 65  1  0  0  0  0
  5 10  2  0  0  0  0
  5 25  1  0  0  0  0
  6 24  2  0  0  0  0
  7 24  1  0  0  0  0
  8  1  1  0  0  0  0
  8 66  1  0  0  0  0
  9  3  1  0  0  0  0
 10  6  1  0  0  0  0
 11  7  2  0  0  0  0
 11 59  1  0  0  0  0
 12  6  1  0  0  0  0
 12 13  1  0  0  0  0
 12 67  1  1  0  0  0
 13 14  1  0  0  0  0
 13 68  1  0  0  0  0
 13 69  1  0  0  0  0
 14 15  1  0  0  0  0
 14 70  1  0  0  0  0
 14 71  1  0  0  0  0
 15 16  2  0  0  0  0
 15 17  1  0  0  0  0
 17 72  1  0  0  0  0
 18  3  1  0  0  0  0
 18 73  1  1  0  0  0
 18 60  1  0  0  0  0
 19 20  1  0  0  0  0
 19 74  1  0  0  0  0
 19 75  1  0  0  0  0
 20 21  2  0  0  0  0
 20 58  1  0  0  0  0
 22 18  1  0  0  0  0
 22  2  1  0  0  0  0
 22 19  1  1  0  0  0
 22 54  1  0  0  0  0
 23  2  1  0  0  0  0
 23 50  1  0  0  0  0
 24 51  1  0  0  0  0
 25 12  1  0  0  0  0
 25 52  1  0  0  0  0
 25 53  1  0  0  0  0
 26 27  1  0  0  0  0
 26 76  1  0  0  0  0
 26 77  1  0  0  0  0
 27 28  1  0  0  0  0
 27 78  1  0  0  0  0
 27 79  1  0  0  0  0
 28 29  2  0  0  0  0
 28 30  1  0  0  0  0
 30 80  1  0  0  0  0
 31 59  1  0  0  0  0
 31 48  1  0  0  0  0
 31 46  1  0  0  0  0
 31 81  1  6  0  0  0
 32 33  1  0  0  0  0
 32 82  1  0  0  0  0
 32 83  1  0  0  0  0
 33 34  2  0  0  0  0
 33 57  1  0  0  0  0
 35 36  1  0  0  0  0
 35 84  1  0  0  0  0
 35 85  1  0  0  0  0
 36 37  1  0  0  0  0
 36 86  1  0  0  0  0
 36 87  1  0  0  0  0
 37 38  2  0  0  0  0
 37 39  1  0  0  0  0
 39 88  1  0  0  0  0
 40  1  1  0  0  0  0
 40 41  1  0  0  0  0
 40 35  1  0  0  0  0
 40 89  1  1  0  0  0
 41 42  1  0  0  0  0
 41 55  1  6  0  0  0
 41 32  1  0  0  0  0
 42  8  1  0  0  0  0
 42 49  1  6  0  0  0
 44 46  1  0  0  0  0
 44 43  2  0  0  0  0
 45 44  1  0  0  0  0
 45 90  1  0  0  0  0
 46 91  1  0  0  0  0
 46 92  1  0  0  0  0
 47 93  1  0  0  0  0
 47 94  1  0  0  0  0
 47 95  1  0  0  0  0
 48  7  1  0  0  0  0
 48 47  1  1  0  0  0
 48 26  1  0  0  0  0
 49 96  1  0  0  0  0
 49 97  1  0  0  0  0
 49 98  1  0  0  0  0
 50 99  1  0  0  0  0
 50100  1  0  0  0  0
 50101  1  0  0  0  0
 51102  1  0  0  0  0
 51103  1  0  0  0  0
 51104  1  0  0  0  0
 52105  1  0  0  0  0
 52106  1  0  0  0  0
 52107  1  0  0  0  0
 53108  1  0  0  0  0
 53109  1  0  0  0  0
 53110  1  0  0  0  0
 54111  1  0  0  0  0
 54112  1  0  0  0  0
 54113  1  0  0  0  0
 55114  1  0  0  0  0
 55115  1  0  0  0  0
 55116  1  0  0  0  0
 57117  1  0  0  0  0
 58118  1  0  0  0  0
 59 42  1  0  0  0  0
 59 56  1  6  0  0  0
 60 61  1  0  0  0  0
 60119  1  0  0  0  0
 60120  1  0  0  0  0
 61 63  1  0  0  0  0
 61121  1  0  0  0  0
 61122  1  0  0  0  0
 63 62  2  0  0  0  0
 63 64  1  0  0  0  0
 64123  1  0  0  0  0
M  END
>  <DRUGBANK_ID>
DB02460

>  <SECONDARY_ACCESSION_NUMBERS>
EXPT00986

>  <COMMON_NAME>
Hydrogenobyrinic acid

>  <CAS_NUMBER>
23599-55-5

>  <SYNONYMS>
Hydrogenobyrinate; Hydrogenobyrinic acid; Hydrogenobyrinsäure

$$$$
