
 OpenBabel10282417193D

 57 59  0  0  1  0  0  0  0  0999 V2000
    0.9633   -0.0439    0.6516 C   0  0  0  0  0  0  0  0  0  0  0  0
    0.4845   -1.3114    1.0148 O   0  0  0  0  0  0  0  0  0  0  0  0
    1.0503   -2.3966    0.2823 C   0  0  1  0  0  0  0  0  0  0  0  0
    0.4456   -2.6601   -1.1389 C   0  0  0  0  0  0  0  0  0  0  0  0
    0.8163   -1.7111   -2.2602 C   0  0  0  0  0  0  0  0  0  0  0  0
    0.1847   -0.5077   -2.2619 C   0  0  0  0  0  0  0  0  0  0  0  0
    0.9330    0.5429   -2.7668 C   0  0  0  0  0  0  0  0  0  0  0  0
    1.7660    0.4749   -3.8266 C   0  0  0  0  0  0  0  0  0  0  0  0
    2.3686   -0.7472   -3.9317 C   0  0  0  0  0  0  0  0  0  0  0  0
    1.9116   -1.8369   -3.1354 C   0  0  0  0  0  0  0  0  0  0  0  0
    1.9296    1.4506   -4.7553 O   0  0  0  0  0  0  0  0  0  0  0  0
    1.3088    2.7470   -4.6391 C   0  0  0  0  0  0  0  0  0  0  0  0
   -0.2288    2.9683   -4.4458 C   0  0  0  0  0  0  0  0  0  0  0  0
   -0.9647    2.4242   -3.2112 C   0  0  0  0  0  0  0  0  0  0  0  0
   -0.6757    2.9325   -1.8263 O   0  0  0  0  0  0  0  0  0  0  0  0
    0.5655    3.3643   -1.3687 C   0  0  0  0  0  0  0  0  0  0  0  0
    1.3850    4.1659   -2.1099 C   0  0  0  0  0  0  0  0  0  0  0  0
    2.7872    4.1298   -1.9428 C   0  0  0  0  0  0  0  0  0  0  0  0
    3.3914    3.6143   -0.8093 C   0  0  0  0  0  0  0  0  0  0  0  0
    2.5347    3.0592    0.1292 C   0  0  0  0  0  0  0  0  0  0  0  0
    1.1389    2.9290   -0.1634 C   0  0  0  0  0  0  0  0  0  0  0  0
    4.7501    3.6390   -0.5603 O   0  0  0  0  0  0  0  0  0  0  0  0
    5.5824    4.3719   -1.3920 C   0  0  0  0  0  0  0  0  0  0  0  0
    5.2983    5.6842   -1.7935 C   0  0  0  0  0  0  0  0  0  0  0  0
    6.1217    6.3412   -2.7084 C   0  0  0  0  0  0  0  0  0  0  0  0
    7.2989    5.7355   -3.1378 C   0  0  0  0  0  0  0  0  0  0  0  0
    7.6469    4.4729   -2.6553 C   0  0  0  0  0  0  0  0  0  0  0  0
    6.7724    3.7744   -1.8138 C   0  0  0  0  0  0  0  0  0  0  0  0
    2.5705   -2.4327    0.3243 C   0  0  0  0  0  0  0  0  0  0  0  0
    3.2512   -3.1746    1.0543 O   0  0  0  0  0  0  0  0  0  0  0  0
    3.1717   -1.5022   -0.4317 O   0  0  0  0  0  0  0  0  0  0  0  0
    0.2449    0.6709    1.0321 H   0  0  0  0  0  0  0  0  0  0  0  0
    0.9728    0.0763   -0.4012 H   0  0  0  0  0  0  0  0  0  0  0  0
    1.9945    0.1822    0.9310 H   0  0  0  0  0  0  0  0  0  0  0  0
    0.7159   -3.2540    0.8816 H   0  0  0  0  0  0  0  0  0  0  0  0
    0.7257   -3.6653   -1.4560 H   0  0  0  0  0  0  0  0  0  0  0  0
   -0.6520   -2.6426   -1.0369 H   0  0  0  0  0  0  0  0  0  0  0  0
   -0.6519   -0.2896   -1.5906 H   0  0  0  0  0  0  0  0  0  0  0  0
    0.8283    1.4680   -2.2806 H   0  0  0  0  0  0  0  0  0  0  0  0
    3.2350   -0.8289   -4.5751 H   0  0  0  0  0  0  0  0  0  0  0  0
    2.4370   -2.7783   -3.2021 H   0  0  0  0  0  0  0  0  0  0  0  0
    1.9412    3.2624   -3.9530 H   0  0  0  0  0  0  0  0  0  0  0  0
    1.5584    3.3180   -5.5465 H   0  0  0  0  0  0  0  0  0  0  0  0
   -0.4782    4.0366   -4.4698 H   0  0  0  0  0  0  0  0  0  0  0  0
   -0.6961    2.5334   -5.3409 H   0  0  0  0  0  0  0  0  0  0  0  0
   -2.0554    2.4817   -3.3322 H   0  0  0  0  0  0  0  0  0  0  0  0
   -0.9353    1.3371   -3.3199 H   0  0  0  0  0  0  0  0  0  0  0  0
    0.9773    4.6952   -2.9567 H   0  0  0  0  0  0  0  0  0  0  0  0
    3.3920    4.4778   -2.7752 H   0  0  0  0  0  0  0  0  0  0  0  0
    2.9387    2.7006    1.0760 H   0  0  0  0  0  0  0  0  0  0  0  0
    0.5208    2.4535    0.5799 H   0  0  0  0  0  0  0  0  0  0  0  0
    4.3962    6.1825   -1.4493 H   0  0  0  0  0  0  0  0  0  0  0  0
    5.8428    7.3241   -3.0796 H   0  0  0  0  0  0  0  0  0  0  0  0
    7.9473    6.2497   -3.8430 H   0  0  0  0  0  0  0  0  0  0  0  0
    8.5981    4.0315   -2.9432 H   0  0  0  0  0  0  0  0  0  0  0  0
    7.0179    2.7617   -1.5064 H   0  0  0  0  0  0  0  0  0  0  0  0
    4.1304   -1.5364   -0.2485 H   0  0  0  0  0  0  0  0  0  0  0  0
  1  2  1  0  0  0  0
  1 32  1  0  0  0  0
  1 33  1  0  0  0  0
  1 34  1  0  0  0  0
  3  2  1  0  0  0  0
  3  4  1  0  0  0  0
  3 29  1  0  0  0  0
  3 35  1  1  0  0  0
  4  5  1  0  0  0  0
  4 36  1  0  0  0  0
  4 37  1  0  0  0  0
  5  6  2  0  0  0  0
  5 10  1  0  0  0  0
  6  7  1  0  0  0  0
  6 38  1  0  0  0  0
  7  8  2  0  0  0  0
  7 39  1  0  0  0  0
  8  9  1  0  0  0  0
  8 11  1  0  0  0  0
  9 10  2  0  0  0  0
  9 40  1  0  0  0  0
 10 41  1  0  0  0  0
 11 12  1  0  0  0  0
 12 13  1  0  0  0  0
 12 42  1  0  0  0  0
 12 43  1  0  0  0  0
 13 14  1  0  0  0  0
 13 44  1  0  0  0  0
 13 45  1  0  0  0  0
 14 15  1  0  0  0  0
 14 46  1  0  0  0  0
 14 47  1  0  0  0  0
 15 16  1  0  0  0  0
 16 17  2  0  0  0  0
 16 21  1  0  0  0  0
 17 18  1  0  0  0  0
 17 48  1  0  0  0  0
 18 19  2  0  0  0  0
 18 49  1  0  0  0  0
 19 20  1  0  0  0  0
 19 22  1  0  0  0  0
 20 21  2  0  0  0  0
 20 50  1  0  0  0  0
 21 51  1  0  0  0  0
 22 23  1  0  0  0  0
 23 24  2  0  0  0  0
 23 28  1  0  0  0  0
 24 25  1  0  0  0  0
 24 52  1  0  0  0  0
 25 26  2  0  0  0  0
 25 53  1  0  0  0  0
 26 27  1  0  0  0  0
 26 54  1  0  0  0  0
 27 28  2  0  0  0  0
 27 55  1  0  0  0  0
 28 56  1  0  0  0  0
 29 30  2  0  0  0  0
 29 31  1  0  0  0  0
 31 57  1  0  0  0  0
M  END
>  <DRUGBANK_ID>
DB12662

>  <SECONDARY_ACCESSION_NUMBERS>
DB06232

>  <COMMON_NAME>
Naveglitazar

>  <CAS_NUMBER>
476436-68-7

>  <UNII>
Y995M7GM0G

>  <SYNONYMS>
Naveglitazar

$$$$
