
 OpenBabel10282417203D

 54 55  0  0  0  0  0  0  0  0999 V2000
    1.1056   -0.2208   -0.0683 C   0  0  0  0  0  0  0  0  0  0  0  0
    0.7769   -1.0173    1.1953 C   0  0  0  0  0  0  0  0  0  0  0  0
    1.0431   -0.2175    2.4640 C   0  0  0  0  0  0  0  0  0  0  0  0
    0.2864    1.1166    2.5249 C   0  0  0  0  0  0  0  0  0  0  0  0
   -1.2006    0.9339    2.7286 N   0  0  0  0  0  0  0  0  0  0  0  0
   -1.8095    1.8586    3.6970 C   0  0  0  0  0  0  0  0  0  0  0  0
   -2.4030    3.2558    3.1943 C   0  0  0  0  0  0  0  0  0  0  0  0
   -3.1542    3.3141    1.9386 N   0  0  0  0  0  0  0  0  0  0  0  0
   -4.2934    4.1880    1.7472 C   0  0  0  0  0  0  0  0  0  0  0  0
   -3.7273    5.3246    0.9705 C   0  0  0  0  0  0  0  0  0  0  0  0
   -2.4766    2.8195    0.7455 C   0  0  0  0  0  0  0  0  0  0  0  0
   -1.4003    3.4185   -0.0651 C   0  0  0  0  0  0  0  0  0  0  0  0
   -2.0376    0.3110    1.7044 C   0  0  0  0  0  0  0  0  0  0  0  0
   -1.5926    0.0990    0.5803 O   0  0  0  0  0  0  0  0  0  0  0  0
   -3.5724    0.1419    1.8180 C   0  0  0  0  0  0  0  0  0  0  0  0
   -4.4635    1.2275    1.9085 C   0  0  0  0  0  0  0  0  0  0  0  0
   -5.8391    1.2687    2.0982 C   0  0  0  0  0  0  0  0  0  0  0  0
   -6.4477    0.1874    1.5989 C   0  0  0  0  0  0  0  0  0  0  0  0
   -5.6614   -0.8946    1.1472 C   0  0  0  0  0  0  0  0  0  0  0  0
   -4.2003   -0.9088    1.2340 C   0  0  0  0  0  0  0  0  0  0  0  0
   -3.4949   -1.9848    0.6768 C   0  0  0  0  0  0  0  0  0  0  0  0
   -4.1790   -3.0592    0.1845 C   0  0  0  0  0  0  0  0  0  0  0  0
   -5.5791   -3.0576    0.1790 C   0  0  0  0  0  0  0  0  0  0  0  0
   -6.3024   -1.9487    0.6096 C   0  0  0  0  0  0  0  0  0  0  0  0
    0.7006    0.7967   -0.0782 H   0  0  0  0  0  0  0  0  0  0  0  0
    0.7012   -0.7119   -0.9569 H   0  0  0  0  0  0  0  0  0  0  0  0
    2.1884   -0.1226   -0.1682 H   0  0  0  0  0  0  0  0  0  0  0  0
   -0.2534   -1.3679    1.2211 H   0  0  0  0  0  0  0  0  0  0  0  0
    1.3308   -1.9578    1.1951 H   0  0  0  0  0  0  0  0  0  0  0  0
    0.7414   -0.8064    3.3374 H   0  0  0  0  0  0  0  0  0  0  0  0
    2.1272   -0.0594    2.5491 H   0  0  0  0  0  0  0  0  0  0  0  0
    0.7068    1.6631    3.3856 H   0  0  0  0  0  0  0  0  0  0  0  0
    0.5089    1.7742    1.6741 H   0  0  0  0  0  0  0  0  0  0  0  0
   -2.5665    1.2662    4.2127 H   0  0  0  0  0  0  0  0  0  0  0  0
   -1.0425    2.1002    4.4478 H   0  0  0  0  0  0  0  0  0  0  0  0
   -3.0046    3.6289    4.0357 H   0  0  0  0  0  0  0  0  0  0  0  0
   -1.5779    3.9601    3.0648 H   0  0  0  0  0  0  0  0  0  0  0  0
   -5.0696    3.7453    1.1006 H   0  0  0  0  0  0  0  0  0  0  0  0
   -4.8328    4.4412    2.6716 H   0  0  0  0  0  0  0  0  0  0  0  0
   -3.4630    4.9344   -0.0146 H   0  0  0  0  0  0  0  0  0  0  0  0
   -4.4471    6.1095    0.7865 H   0  0  0  0  0  0  0  0  0  0  0  0
   -2.8285    5.6853    1.4774 H   0  0  0  0  0  0  0  0  0  0  0  0
   -1.7970    2.1999    1.2316 H   0  0  0  0  0  0  0  0  0  0  0  0
   -3.0402    2.1847    0.0474 H   0  0  0  0  0  0  0  0  0  0  0  0
   -0.6849    3.8616    0.6220 H   0  0  0  0  0  0  0  0  0  0  0  0
   -0.9186    2.5735   -0.5848 H   0  0  0  0  0  0  0  0  0  0  0  0
   -1.8233    4.0755   -0.8065 H   0  0  0  0  0  0  0  0  0  0  0  0
   -4.4559    1.7689    0.9304 H   0  0  0  0  0  0  0  0  0  0  0  0
   -6.3465    2.2379    2.1421 H   0  0  0  0  0  0  0  0  0  0  0  0
   -7.5275    0.2411    1.4527 H   0  0  0  0  0  0  0  0  0  0  0  0
   -2.4031   -1.9943    0.6245 H   0  0  0  0  0  0  0  0  0  0  0  0
   -3.6165   -3.9138   -0.1759 H   0  0  0  0  0  0  0  0  0  0  0  0
   -6.1127   -3.9295   -0.1487 H   0  0  0  0  0  0  0  0  0  0  0  0
   -7.3940   -1.9412    0.5585 H   0  0  0  0  0  0  0  0  0  0  0  0
  1  2  1  0  0  0  0
  1 25  1  0  0  0  0
  1 26  1  0  0  0  0
  1 27  1  0  0  0  0
  2  3  1  0  0  0  0
  2 28  1  0  0  0  0
  2 29  1  0  0  0  0
  3  4  1  0  0  0  0
  3 30  1  0  0  0  0
  3 31  1  0  0  0  0
  4  5  1  0  0  0  0
  4 32  1  0  0  0  0
  4 33  1  0  0  0  0
  5  6  1  0  0  0  0
  5 13  1  0  0  0  0
  6  7  1  0  0  0  0
  6 34  1  0  0  0  0
  6 35  1  0  0  0  0
  7  8  1  0  0  0  0
  7 36  1  0  0  0  0
  7 37  1  0  0  0  0
  8  9  1  0  0  0  0
  8 11  1  0  0  0  0
  9 10  1  0  0  0  0
  9 38  1  0  0  0  0
  9 39  1  0  0  0  0
 10 40  1  0  0  0  0
 10 41  1  0  0  0  0
 10 42  1  0  0  0  0
 11 12  1  0  0  0  0
 11 43  1  0  0  0  0
 11 44  1  0  0  0  0
 12 45  1  0  0  0  0
 12 46  1  0  0  0  0
 12 47  1  0  0  0  0
 13 14  2  0  0  0  0
 13 15  1  0  0  0  0
 15 16  1  0  0  0  0
 15 20  2  0  0  0  0
 16 17  2  0  0  0  0
 16 48  1  0  0  0  0
 17 18  1  0  0  0  0
 17 49  1  0  0  0  0
 18 19  2  0  0  0  0
 18 50  1  0  0  0  0
 19 20  1  0  0  0  0
 19 24  1  0  0  0  0
 20 21  1  0  0  0  0
 21 22  2  0  0  0  0
 21 51  1  0  0  0  0
 22 23  1  0  0  0  0
 22 52  1  0  0  0  0
 23 24  2  0  0  0  0
 23 53  1  0  0  0  0
 24 54  1  0  0  0  0
M  END
>  <DRUGBANK_ID>
DB13652

>  <COMMON_NAME>
Bunaftine

>  <CAS_NUMBER>
32421-46-8

>  <UNII>
GH09PRQ3FU

>  <SYNONYMS>
Bunaftine

$$$$
