
 OpenBabel10282417153D

 51 53  0  0  1  0  0  0  0  0999 V2000
    1.3162   -0.1215    0.4370 C   0  0  0  0  0  0  0  0  0  0  0  0
    0.4446   -0.0146    1.5357 N   0  0  0  0  0  0  0  0  0  0  0  0
   -0.2382    1.1194    1.8979 C   0  0  0  0  0  0  0  0  0  0  0  0
   -0.7289    1.2529    3.0453 O   0  0  0  0  0  0  0  0  0  0  0  0
   -0.3968    2.1805    0.9433 N   0  0  0  0  0  0  0  0  0  0  0  0
   -0.9876    2.0866   -0.4916 C   0  0  2  0  0  0  0  0  0  0  0  0
   -1.8105    3.8035   -0.7040 S   0  0  0  0  0  0  0  0  0  0  0  0
   -1.2526    4.2831    0.8587 C   0  0  0  0  0  0  0  0  0  0  0  0
   -0.6096    3.4316    1.5758 N   0  0  0  0  0  0  0  0  0  0  0  0
   -1.5784    5.6437    1.2803 C   0  0  0  0  0  0  0  0  0  0  0  0
   -2.9018    6.0791    1.4300 C   0  0  0  0  0  0  0  0  0  0  0  0
   -3.1348    7.4206    1.7172 C   0  0  0  0  0  0  0  0  0  0  0  0
   -2.0806    8.3220    1.8506 C   0  0  0  0  0  0  0  0  0  0  0  0
   -0.7659    7.8750    1.7103 C   0  0  0  0  0  0  0  0  0  0  0  0
   -0.5213    6.5346    1.4316 C   0  0  0  0  0  0  0  0  0  0  0  0
    0.7425    6.1284    1.2531 F   0  0  0  0  0  0  0  0  0  0  0  0
   -4.3933    7.8589    1.8512 F   0  0  0  0  0  0  0  0  0  0  0  0
   -2.0194    0.9095   -0.5860 C   0  0  0  0  0  0  0  0  0  0  0  0
   -3.0598    0.7835    0.5470 C   0  0  0  0  0  0  0  0  0  0  0  0
   -3.8362    2.0581    0.8182 C   0  0  0  0  0  0  0  0  0  0  0  0
   -4.4990    2.5107   -0.4048 N   0  0  0  0  0  0  0  0  0  0  0  0
    0.0206    2.0201   -1.6936 C   0  0  0  0  0  0  0  0  0  0  0  0
    0.6651    0.8320   -2.0251 C   0  0  0  0  0  0  0  0  0  0  0  0
    1.8796    0.8062   -2.6946 C   0  0  0  0  0  0  0  0  0  0  0  0
    2.1315    1.8288   -3.5706 C   0  0  0  0  0  0  0  0  0  0  0  0
    1.2366    2.8845   -3.6211 C   0  0  0  0  0  0  0  0  0  0  0  0
    0.2872    3.0451   -2.6098 C   0  0  0  0  0  0  0  0  0  0  0  0
    0.7090   -1.1876    2.2746 O   0  0  0  0  0  0  0  0  0  0  0  0
    0.2306   -1.1523    3.5955 C   0  0  0  0  0  0  0  0  0  0  0  0
    1.3189    0.8608    0.0162 H   0  0  0  0  0  0  0  0  0  0  0  0
    0.9236   -0.9574   -0.1554 H   0  0  0  0  0  0  0  0  0  0  0  0
    2.3629   -0.3170    0.6492 H   0  0  0  0  0  0  0  0  0  0  0  0
   -3.7471    5.4065    1.3208 H   0  0  0  0  0  0  0  0  0  0  0  0
   -2.2895    9.3670    2.0589 H   0  0  0  0  0  0  0  0  0  0  0  0
    0.0707    8.5601    1.8000 H   0  0  0  0  0  0  0  0  0  0  0  0
   -2.5255    0.9433   -1.5608 H   0  0  0  0  0  0  0  0  0  0  0  0
   -1.4960   -0.0555   -0.6002 H   0  0  0  0  0  0  0  0  0  0  0  0
   -3.7542   -0.0327    0.3180 H   0  0  0  0  0  0  0  0  0  0  0  0
   -2.5666    0.4677    1.4698 H   0  0  0  0  0  0  0  0  0  0  0  0
   -4.5498    1.9507    1.6334 H   0  0  0  0  0  0  0  0  0  0  0  0
   -3.1530    2.8071    1.2056 H   0  0  0  0  0  0  0  0  0  0  0  0
   -4.7352    3.4973   -0.3080 H   0  0  0  0  0  0  0  0  0  0  0  0
   -3.8235    2.5265   -1.1756 H   0  0  0  0  0  0  0  0  0  0  0  0
    0.2891   -0.1089   -1.6630 H   0  0  0  0  0  0  0  0  0  0  0  0
    2.5438   -0.0481   -2.5941 H   0  0  0  0  0  0  0  0  0  0  0  0
    2.9535    1.7466   -4.2692 H   0  0  0  0  0  0  0  0  0  0  0  0
    1.2600    3.5909   -4.4413 H   0  0  0  0  0  0  0  0  0  0  0  0
   -0.2745    3.9733   -2.6433 H   0  0  0  0  0  0  0  0  0  0  0  0
    0.6637   -0.3044    4.1280 H   0  0  0  0  0  0  0  0  0  0  0  0
   -0.8594   -1.1436    3.5644 H   0  0  0  0  0  0  0  0  0  0  0  0
    0.5593   -2.0675    4.0931 H   0  0  0  0  0  0  0  0  0  0  0  0
  1  2  1  0  0  0  0
  1 30  1  0  0  0  0
  1 31  1  0  0  0  0
  1 32  1  0  0  0  0
  2  3  1  0  0  0  0
  2 28  1  0  0  0  0
  3  4  2  0  0  0  0
  3  5  1  0  0  0  0
  5  6  1  0  0  0  0
  5  9  1  0  0  0  0
  6  7  1  0  0  0  0
  6 22  1  0  0  0  0
  6 18  1  6  0  0  0
  7  8  1  0  0  0  0
  8  9  2  0  0  0  0
  8 10  1  0  0  0  0
 10 11  2  0  0  0  0
 10 15  1  0  0  0  0
 11 12  1  0  0  0  0
 11 33  1  0  0  0  0
 12 13  2  0  0  0  0
 12 17  1  0  0  0  0
 13 14  1  0  0  0  0
 13 34  1  0  0  0  0
 14 15  2  0  0  0  0
 14 35  1  0  0  0  0
 15 16  1  0  0  0  0
 18 19  1  0  0  0  0
 18 36  1  0  0  0  0
 18 37  1  0  0  0  0
 19 20  1  0  0  0  0
 19 38  1  0  0  0  0
 19 39  1  0  0  0  0
 20 21  1  0  0  0  0
 20 40  1  0  0  0  0
 20 41  1  0  0  0  0
 21 42  1  0  0  0  0
 21 43  1  0  0  0  0
 22 23  2  0  0  0  0
 22 27  1  0  0  0  0
 23 24  1  0  0  0  0
 23 44  1  0  0  0  0
 24 25  2  0  0  0  0
 24 45  1  0  0  0  0
 25 26  1  0  0  0  0
 25 46  1  0  0  0  0
 26 27  2  0  0  0  0
 26 47  1  0  0  0  0
 27 48  1  0  0  0  0
 28 29  1  0  0  0  0
 29 49  1  0  0  0  0
 29 50  1  0  0  0  0
 29 51  1  0  0  0  0
M  END
>  <DRUGBANK_ID>
DB06040

>  <COMMON_NAME>
Filanesib

>  <CAS_NUMBER>
885060-09-3

>  <UNII>
8A49OSO368

>  <SYNONYMS>
Filanesib

$$$$
