
 OpenBabel10282417133D

 52 51  0  0  0  0  0  0  0  0999 V2000
    1.3870    0.5798    0.1720 C   0  0  0  0  0  0  0  0  0  0  0  0
    1.3194   -0.1699    2.3654 C   0  0  0  0  0  0  0  0  0  0  0  0
    1.1946   -1.6969    2.0459 C   0  0  0  0  0  0  0  0  0  0  0  0
   -1.8695   -3.6019   -0.3371 C   0  0  0  0  0  0  0  0  0  0  0  0
   -1.1140   -1.1326    0.3015 C   0  0  0  0  0  0  0  0  0  0  0  0
    0.3006   -1.9421   -0.1400 C   0  0  0  0  0  0  0  0  0  0  0  0
   -1.2185   -3.2219    2.3865 C   0  0  0  0  0  0  0  0  0  0  0  0
   -1.5035   -1.5389    2.6695 C   0  0  0  0  0  0  0  0  0  0  0  0
    0.7605    0.7568    1.4088 O   0  0  0  0  0  0  0  0  0  0  0  0
    1.3947   -2.2831    0.7716 O   0  0  0  0  0  0  0  0  0  0  0  0
   -1.5018   -0.5868    1.5614 O   0  0  0  0  0  0  0  0  0  0  0  0
   -1.1134   -3.8448    0.9782 O   0  0  0  0  0  0  0  0  0  0  0  0
    0.5120    0.9253   -1.1128 C   0  0  0  0  0  0  0  0  0  0  0  0
   -3.4033   -3.0425   -0.4583 C   0  0  0  0  0  0  0  0  0  0  0  0
    2.9832    1.6296   -2.3226 C   0  0  0  0  0  0  0  0  0  0  0  0
   -3.9596   -4.6622    2.0174 C   0  0  0  0  0  0  0  0  0  0  0  0
    0.9686    0.2767   -2.3211 O   0  0  0  0  0  0  0  0  0  0  0  0
    2.3929    0.2149   -2.3951 C   0  0  0  0  0  0  0  0  0  0  0  0
   -4.1652   -2.4864    0.6412 O   0  0  0  0  0  0  0  0  0  0  0  0
   -3.8942   -3.1444    1.8552 C   0  0  0  0  0  0  0  0  0  0  0  0
    2.8022    2.3506   -1.1013 O   0  0  0  0  0  0  0  0  0  0  0  0
   -3.2917   -5.4574    1.0296 O   0  0  0  0  0  0  0  0  0  0  0  0
    1.6934   -0.4361    0.1601 H   0  0  0  0  0  0  0  0  0  0  0  0
    2.4575    0.7771    0.1890 H   0  0  0  0  0  0  0  0  0  0  0  0
    2.3669    0.0514    2.4937 H   0  0  0  0  0  0  0  0  0  0  0  0
    0.7954    0.0767    3.3004 H   0  0  0  0  0  0  0  0  0  0  0  0
    1.3234   -2.3617    2.9194 H   0  0  0  0  0  0  0  0  0  0  0  0
    0.2051   -1.7890    1.9116 H   0  0  0  0  0  0  0  0  0  0  0  0
   -1.4065   -2.8154   -0.9473 H   0  0  0  0  0  0  0  0  0  0  0  0
   -1.4806   -4.2859   -1.1193 H   0  0  0  0  0  0  0  0  0  0  0  0
   -1.6260   -0.7098   -0.5745 H   0  0  0  0  0  0  0  0  0  0  0  0
   -1.8214   -1.9133    0.4858 H   0  0  0  0  0  0  0  0  0  0  0  0
    0.5423   -1.1132   -0.7331 H   0  0  0  0  0  0  0  0  0  0  0  0
    0.5040   -2.4792   -1.0951 H   0  0  0  0  0  0  0  0  0  0  0  0
   -0.4658   -3.7013    3.0445 H   0  0  0  0  0  0  0  0  0  0  0  0
   -2.0127   -3.6772    2.9746 H   0  0  0  0  0  0  0  0  0  0  0  0
   -0.6665   -1.2200    3.2801 H   0  0  0  0  0  0  0  0  0  0  0  0
   -2.2234   -1.2564    3.4397 H   0  0  0  0  0  0  0  0  0  0  0  0
   -0.5528    0.6952   -1.0557 H   0  0  0  0  0  0  0  0  0  0  0  0
    0.4024    1.9865   -1.2941 H   0  0  0  0  0  0  0  0  0  0  0  0
   -3.4254   -2.2580   -1.2288 H   0  0  0  0  0  0  0  0  0  0  0  0
   -4.0284   -3.8387   -0.8204 H   0  0  0  0  0  0  0  0  0  0  0  0
    4.0584    1.5578   -2.4258 H   0  0  0  0  0  0  0  0  0  0  0  0
    2.5374    2.2357   -3.1119 H   0  0  0  0  0  0  0  0  0  0  0  0
   -3.4906   -4.9823    2.9532 H   0  0  0  0  0  0  0  0  0  0  0  0
   -5.0089   -4.9245    2.0214 H   0  0  0  0  0  0  0  0  0  0  0  0
    2.7743   -0.4641   -1.6228 H   0  0  0  0  0  0  0  0  0  0  0  0
    2.6637   -0.2643   -3.3440 H   0  0  0  0  0  0  0  0  0  0  0  0
   -2.8574   -2.9796    1.6552 H   0  0  0  0  0  0  0  0  0  0  0  0
   -3.9907   -2.5732    2.7835 H   0  0  0  0  0  0  0  0  0  0  0  0
    1.9233    2.7547   -1.0780 H   0  0  0  0  0  0  0  0  0  0  0  0
   -3.6515   -5.2797    0.1853 H   0  0  0  0  0  0  0  0  0  0  0  0
  1  9  1  0  0  0  0
  1 13  1  0  0  0  0
  1 23  1  0  0  0  0
  1 24  1  0  0  0  0
  2  3  1  0  0  0  0
  2  9  1  0  0  0  0
  2 25  1  0  0  0  0
  2 26  1  0  0  0  0
  3 27  1  0  0  0  0
  3 28  1  0  0  0  0
  4 12  1  0  0  0  0
  4 29  1  0  0  0  0
  4 30  1  0  0  0  0
  5  6  1  0  0  0  0
  5 31  1  0  0  0  0
  5 32  1  0  0  0  0
  6 33  1  0  0  0  0
  6 34  1  0  0  0  0
  7  8  1  0  0  0  0
  7 35  1  0  0  0  0
  7 36  1  0  0  0  0
  8 11  1  0  0  0  0
  8 37  1  0  0  0  0
  8 38  1  0  0  0  0
 10  6  1  0  0  0  0
 10  3  1  0  0  0  0
 11  5  1  0  0  0  0
 12  7  1  0  0  0  0
 13 39  1  0  0  0  0
 13 40  1  0  0  0  0
 14  4  1  0  0  0  0
 14 41  1  0  0  0  0
 14 42  1  0  0  0  0
 15 21  1  0  0  0  0
 15 18  1  0  0  0  0
 15 43  1  0  0  0  0
 15 44  1  0  0  0  0
 16 20  1  0  0  0  0
 16 45  1  0  0  0  0
 16 46  1  0  0  0  0
 17 13  1  0  0  0  0
 17 18  1  0  0  0  0
 18 47  1  0  0  0  0
 18 48  1  0  0  0  0
 19 14  1  0  0  0  0
 20 19  1  0  0  0  0
 20 49  1  0  0  0  0
 20 50  1  0  0  0  0
 21 51  1  0  0  0  0
 22 16  1  0  0  0  0
 22 52  1  0  0  0  0
M  END
>  <DRUGBANK_ID>
DB03394

>  <SECONDARY_ACCESSION_NUMBERS>
EXPT02477

>  <COMMON_NAME>
Heptaethylene glycol

>  <CAS_NUMBER>
5617-32-3

>  <SYNONYMS>
3,6,9,12,15,18-hexaoxaeicosane-1,20-diol; Heptaethylene glycol, Peg330

$$$$
