
 OpenBabel10282417203D

 48 48  0  0  0  0  0  0  0  0999 V2000
   -1.5509   -1.7462    0.0130 C   0  0  0  0  0  0  0  0  0  0  0  0
   -0.4288   -0.7499   -0.0079 C   0  0  0  0  0  0  0  0  0  0  0  0
   -0.6663    0.6298    0.0006 C   0  0  0  0  0  0  0  0  0  0  0  0
    0.4139    1.5269    0.0202 C   0  0  0  0  0  0  0  0  0  0  0  0
    1.7197    0.9868    0.0331 C   0  0  0  0  0  0  0  0  0  0  0  0
    1.8480   -0.4039   -0.0210 C   0  0  0  0  0  0  0  0  0  0  0  0
    0.8169   -1.2734   -0.0354 N   0  0  0  0  0  0  0  0  0  0  0  0
    2.9401    1.8763    0.1420 C   0  0  0  0  0  0  0  0  0  0  0  0
    3.6875    1.7438    1.3662 O   0  0  0  0  0  0  0  0  0  0  0  0
    3.0333    1.7117    2.5467 C   0  0  0  0  0  0  0  0  0  0  0  0
    1.8506    2.0155    2.7295 O   0  0  0  0  0  0  0  0  0  0  0  0
    3.9177    1.2487    3.6641 C   0  0  0  0  0  0  0  0  0  0  0  0
    4.1950   -0.2714    3.6758 C   0  0  0  0  0  0  0  0  0  0  0  0
    4.9409   -0.9864    2.5198 C   0  0  0  0  0  0  0  0  0  0  0  0
    5.8028   -1.8352    2.7152 O   0  0  0  0  0  0  0  0  0  0  0  0
    4.6444   -0.4600    1.3054 O   0  0  0  0  0  0  0  0  0  0  0  0
    5.5876   -0.5195    0.1961 C   0  0  0  0  0  0  0  0  0  0  0  0
    6.7589    0.5237    0.2251 C   0  0  0  0  0  0  0  0  0  0  0  0
    7.6478    0.4215    1.3952 N   0  0  0  0  0  0  0  0  0  0  0  0
    8.8845    1.1783    1.2795 C   0  0  0  0  0  0  0  0  0  0  0  0
    7.0171    0.9658    2.5820 C   0  0  0  0  0  0  0  0  0  0  0  0
    0.2245    3.0255   -0.0109 C   0  0  0  0  0  0  0  0  0  0  0  0
    0.6928    3.6869    1.1520 O   0  0  0  0  0  0  0  0  0  0  0  0
   -1.9715    1.0347   -0.0184 O   0  0  0  0  0  0  0  0  0  0  0  0
   -1.4992   -2.3814   -0.8763 H   0  0  0  0  0  0  0  0  0  0  0  0
   -1.4699   -2.3748    0.9055 H   0  0  0  0  0  0  0  0  0  0  0  0
   -2.5360   -1.2724    0.0296 H   0  0  0  0  0  0  0  0  0  0  0  0
    2.8096   -0.9025   -0.0561 H   0  0  0  0  0  0  0  0  0  0  0  0
    3.6148    1.6266   -0.6877 H   0  0  0  0  0  0  0  0  0  0  0  0
    2.7330    2.9376    0.0105 H   0  0  0  0  0  0  0  0  0  0  0  0
    4.8047    1.8935    3.7142 H   0  0  0  0  0  0  0  0  0  0  0  0
    3.3848    1.4968    4.5939 H   0  0  0  0  0  0  0  0  0  0  0  0
    4.8328   -0.4244    4.5609 H   0  0  0  0  0  0  0  0  0  0  0  0
    3.2621   -0.8098    3.8430 H   0  0  0  0  0  0  0  0  0  0  0  0
    5.9385   -1.5427    0.0503 H   0  0  0  0  0  0  0  0  0  0  0  0
    4.9919   -0.2672   -0.6940 H   0  0  0  0  0  0  0  0  0  0  0  0
    7.3401    0.3548   -0.6931 H   0  0  0  0  0  0  0  0  0  0  0  0
    6.3608    1.5454    0.1475 H   0  0  0  0  0  0  0  0  0  0  0  0
    8.6788    2.2555    1.2690 H   0  0  0  0  0  0  0  0  0  0  0  0
    9.4973    0.9609    2.1645 H   0  0  0  0  0  0  0  0  0  0  0  0
    9.4648    0.9130    0.3972 H   0  0  0  0  0  0  0  0  0  0  0  0
    7.0185    2.0538    2.6643 H   0  0  0  0  0  0  0  0  0  0  0  0
    5.9764    0.8047    2.5037 H   0  0  0  0  0  0  0  0  0  0  0  0
    7.3783    0.4798    3.4921 H   0  0  0  0  0  0  0  0  0  0  0  0
    0.7362    3.4377   -0.8876 H   0  0  0  0  0  0  0  0  0  0  0  0
   -0.8161    3.3200   -0.1084 H   0  0  0  0  0  0  0  0  0  0  0  0
    0.6301    3.0623    1.9073 H   0  0  0  0  0  0  0  0  0  0  0  0
   -2.0526    1.9963    0.0128 H   0  0  0  0  0  0  0  0  0  0  0  0
  1  2  1  0  0  0  0
  1 25  1  0  0  0  0
  1 26  1  0  0  0  0
  1 27  1  0  0  0  0
  2  3  2  0  0  0  0
  2  7  1  0  0  0  0
  3  4  1  0  0  0  0
  3 24  1  0  0  0  0
  4  5  2  0  0  0  0
  4 22  1  0  0  0  0
  5  6  1  0  0  0  0
  5  8  1  0  0  0  0
  6  7  2  0  0  0  0
  6 28  1  0  0  0  0
  8  9  1  0  0  0  0
  8 29  1  0  0  0  0
  8 30  1  0  0  0  0
  9 10  1  0  0  0  0
 10 11  2  0  0  0  0
 10 12  1  0  0  0  0
 12 13  1  0  0  0  0
 12 31  1  0  0  0  0
 12 32  1  0  0  0  0
 13 14  1  0  0  0  0
 13 33  1  0  0  0  0
 13 34  1  0  0  0  0
 14 15  2  0  0  0  0
 14 16  1  0  0  0  0
 16 17  1  0  0  0  0
 17 18  1  0  0  0  0
 17 35  1  0  0  0  0
 17 36  1  0  0  0  0
 18 19  1  0  0  0  0
 18 37  1  0  0  0  0
 18 38  1  0  0  0  0
 19 20  1  0  0  0  0
 19 21  1  0  0  0  0
 20 39  1  0  0  0  0
 20 40  1  0  0  0  0
 20 41  1  0  0  0  0
 21 42  1  0  0  0  0
 21 43  1  0  0  0  0
 21 44  1  0  0  0  0
 22 23  1  0  0  0  0
 22 45  1  0  0  0  0
 22 46  1  0  0  0  0
 23 47  1  0  0  0  0
 24 48  1  0  0  0  0
M  END
>  <DRUGBANK_ID>
DB13412

>  <COMMON_NAME>
Pirisudanol

>  <CAS_NUMBER>
33605-94-6

>  <UNII>
W618Z2SMVL

>  <SYNONYMS>
Pirisudanol

$$$$
