
 OpenBabel10282417143D

 13  9  0  0  0  0  0  0  0  0999 V2000
    0.9665   -0.0630    0.0700 Ga  0  1  0  0  0  0  0  0  0  0  0  0
    1.0777   -0.0130   -0.0616 O   0  5  0  0  0  0  0  0  0  0  0  0
    3.1327    0.8802   -0.8426 O   0  5  0  0  0  0  0  0  0  0  0  0
    1.0001    0.0604    0.0797 O   0  5  0  0  0  0  0  0  0  0  0  0
    3.0551   -0.5390   -0.9442 O   0  5  0  0  0  0  0  0  0  0  0  0
    1.0003    0.0520    0.0854 O   0  5  0  0  0  0  0  0  0  0  0  0
    3.0553    1.1917    0.4154 O   0  5  0  0  0  0  0  0  0  0  0  0
    3.0608   -0.8123    0.6374 O   0  0  0  0  0  0  0  0  0  0  0  0
    2.9832    0.5968    0.9961 O   0  0  0  0  0  0  0  0  0  0  0  0
    2.9834   -0.9680   -0.2099 O   0  0  0  0  0  0  0  0  0  0  0  0
    2.4477   -0.0130   -0.0616 N   0  3  0  0  0  0  0  0  0  0  0  0
    2.3701    0.0604    0.0797 N   0  3  0  0  0  0  0  0  0  0  0  0
    2.3703    0.0520    0.0854 N   0  3  0  0  0  0  0  0  0  0  0  0
  2 11  1  0  0  0  0
  3 11  1  0  0  0  0
  4 12  1  0  0  0  0
  5 12  1  0  0  0  0
  6 13  1  0  0  0  0
  7 13  1  0  0  0  0
  8 11  2  0  0  0  0
  9 12  2  0  0  0  0
 10 13  2  0  0  0  0
M  CHG  8   1   3   2  -1   3  -1   4  -1   5  -1   6  -1   7  -1  11   1
M  CHG  2  12   1  13   1
M  END
>  <DRUGBANK_ID>
DB05260

>  <COMMON_NAME>
Gallium nitrate

>  <CAS_NUMBER>
13494-90-1

>  <UNII>
Y2V2R4W9TQ

>  <SYNONYMS>
Gallium nitrate (anhydrous); Gallium nitrate injection; Nitric acid, gallium salt, anhydrate

$$$$
