
 OpenBabel10282417183D

141144  0  0  0  0  0  0  0  0999 V2000
   -0.0319   -4.2625    5.2459 C   0  0  1  0  0  0  0  0  0  0  0  0
    0.8025   -2.9504    4.7653 C   0  0  1  0  0  0  0  0  0  0  0  0
    1.6925   -1.6621    5.8074 C   0  0  2  0  0  0  0  0  0  0  0  0
    6.1748    1.3202    8.3734 C   0  0  2  0  0  0  0  0  0  0  0  0
    5.8221    1.2361    9.8891 C   0  0  1  0  0  0  0  0  0  0  0  0
    6.8752    0.0536    7.9482 C   0  0  1  0  0  0  0  0  0  0  0  0
   -0.1331   -4.3313    7.1893 O   0  0  0  0  0  0  0  0  0  0  0  0
    0.4891   -2.4171    2.8859 C   0  0  2  0  0  0  0  0  0  0  0  0
   -0.6164   -3.6770    3.8932 O   0  0  0  0  0  0  0  0  0  0  0  0
    6.1985   -1.0281    8.5425 O   0  0  0  0  0  0  0  0  0  0  0  0
    1.2202   -1.4772    7.3017 C   0  0  1  0  0  0  0  0  0  0  0  0
    4.9316    0.0563   10.1796 C   0  0  1  0  0  0  0  0  0  0  0  0
    2.5940   -2.6431    2.5540 C   0  0  2  0  0  0  0  0  0  0  0  0
    7.2732   -3.8195    3.7731 C   0  0  0  0  0  0  0  0  0  0  0  0
    8.2065   -3.7454    4.7999 O   0  0  0  0  0  0  0  0  0  0  0  0
    5.7003   -4.0260    3.9212 C   0  0  0  0  0  0  0  0  0  0  0  0
    0.4587   -2.8444    8.1352 C   0  0  1  0  0  0  0  0  0  0  0  0
    5.7052   -1.1659    9.8874 C   0  0  1  0  0  0  0  0  0  0  0  0
    4.5703   -2.7534    3.3392 C   0  0  1  0  0  0  0  0  0  0  0  0
   -0.8467   -1.2854    3.9733 C   0  0  2  0  0  0  0  0  0  0  0  0
   -3.3262   -1.7698    2.2175 N   0  0  0  0  0  0  0  0  0  0  0  0
    7.4982   -2.4346    6.7572 C   0  0  1  0  0  0  0  0  0  0  0  0
    6.1326   -2.5070    6.2645 C   0  0  0  0  0  0  0  0  0  0  0  0
    2.6930   -3.7265    7.1798 C   0  0  0  0  0  0  0  0  0  0  0  0
    1.4203   -3.6698    6.4417 C   0  0  0  0  0  0  0  0  0  0  0  0
    8.1333   -3.7216    6.2754 C   0  0  1  0  0  0  0  0  0  0  0  0
    5.0939   -3.0689    6.8633 C   0  0  0  0  0  0  0  0  0  0  0  0
   -1.1021   -1.4304    5.6897 C   0  0  0  0  0  0  0  0  0  0  0  0
    3.8614   -3.5617    6.4875 C   0  0  0  0  0  0  0  0  0  0  0  0
    7.1217   -0.0595    6.5293 O   0  0  0  0  0  0  0  0  0  0  0  0
    2.4399   -0.4996    5.3059 N   0  0  0  0  0  0  0  0  0  0  0  0
   -0.5549   -2.7525    6.3777 C   0  0  1  0  0  0  0  0  0  0  0  0
    8.0869   -1.1253    6.2756 C   0  0  0  0  0  0  0  0  0  0  0  0
    7.7129   -3.7123    2.6304 O   0  0  0  0  0  0  0  0  0  0  0  0
   -2.1605   -0.4449    3.9189 C   0  0  0  0  0  0  0  0  0  0  0  0
    2.0551   -4.2241    5.4494 O   0  0  0  0  0  0  0  0  0  0  0  0
   -4.5402   -1.3751    1.5309 C   0  0  0  0  0  0  0  0  0  0  0  0
   -3.6183   -2.8812    3.1520 C   0  0  0  0  0  0  0  0  0  0  0  0
   -2.6751   -0.5128    2.5719 C   0  0  0  0  0  0  0  0  0  0  0  0
    1.3240   -4.0367    3.5244 O   0  0  0  0  0  0  0  0  0  0  0  0
    6.9288    2.4942    8.0636 O   0  0  0  0  0  0  0  0  0  0  0  0
    6.9419    1.1639   10.8436 O   0  0  0  0  0  0  0  0  0  0  0  0
    4.6222   -0.0095   11.5553 O   0  0  0  0  0  0  0  0  0  0  0  0
    2.1548   -1.0024    8.2614 O   0  0  0  0  0  0  0  0  0  0  0  0
   -5.6763   -1.0413    2.5100 C   0  0  2  0  0  0  0  0  0  0  0  0
   -4.7461   -2.6270    4.1544 C   0  0  1  0  0  0  0  0  0  0  0  0
   -5.9853   -2.2423    3.3897 C   0  0  0  0  0  0  0  0  0  0  0  0
    5.5749   -1.3577    3.4085 O   0  0  0  0  0  0  0  0  0  0  0  0
    3.5328   -1.3967    1.6259 C   0  0  0  0  0  0  0  0  0  0  0  0
    4.8891   -2.4067   10.4770 C   0  0  0  0  0  0  0  0  0  0  0  0
   -0.3779   -2.1085    9.1507 C   0  0  0  0  0  0  0  0  0  0  0  0
    7.4479   -5.0103    6.7611 C   0  0  0  0  0  0  0  0  0  0  0  0
    4.7953   -2.8017    8.1747 C   0  0  0  0  0  0  0  0  0  0  0  0
    2.8603   -1.0671    4.1129 C   0  0  0  0  0  0  0  0  0  0  0  0
    3.6999   -0.3559    6.0428 C   0  0  0  0  0  0  0  0  0  0  0  0
   -1.9582   -4.0513    6.2406 C   0  0  0  0  0  0  0  0  0  0  0  0
   -6.9117   -0.6667    1.7261 C   0  0  0  0  0  0  0  0  0  0  0  0
   -5.0708   -3.8462    5.0024 C   0  0  0  0  0  0  0  0  0  0  0  0
    8.1606    2.5447    8.7622 C   0  0  0  0  0  0  0  0  0  0  0  0
    8.0078    0.2461   10.6546 C   0  0  0  0  0  0  0  0  0  0  0  0
    7.0851   -5.0212    8.2205 C   0  0  0  0  0  0  0  0  0  0  0  0
    0.3996   -5.2618    5.1986 H   0  0  0  0  0  0  0  0  0  0  0  0
    0.5886   -1.9328    4.5529 H   0  0  0  0  0  0  0  0  0  0  0  0
    2.5497   -2.2037    5.8079 H   0  0  0  0  0  0  0  0  0  0  0  0
    5.2369    1.3603    7.7936 H   0  0  0  0  0  0  0  0  0  0  0  0
    5.2440    2.1322   10.1460 H   0  0  0  0  0  0  0  0  0  0  0  0
    7.8945   -0.0380    8.2197 H   0  0  0  0  0  0  0  0  0  0  0  0
   -0.3953   -2.7198    2.2548 H   0  0  0  0  0  0  0  0  0  0  0  0
    0.6190   -0.5843    7.1767 H   0  0  0  0  0  0  0  0  0  0  0  0
    4.0256    0.0769    9.5605 H   0  0  0  0  0  0  0  0  0  0  0  0
    2.9992   -3.5200    1.9472 H   0  0  0  0  0  0  0  0  0  0  0  0
    5.3427   -5.0325    3.7743 H   0  0  0  0  0  0  0  0  0  0  0  0
    5.6369   -4.1234    4.9914 H   0  0  0  0  0  0  0  0  0  0  0  0
    1.1013   -3.4868    8.6852 H   0  0  0  0  0  0  0  0  0  0  0  0
    6.5219   -1.5269   10.4579 H   0  0  0  0  0  0  0  0  0  0  0  0
    4.5116   -2.4574    4.3367 H   0  0  0  0  0  0  0  0  0  0  0  0
   -0.2645   -0.4304    3.6956 H   0  0  0  0  0  0  0  0  0  0  0  0
    7.5120   -2.4598    7.8348 H   0  0  0  0  0  0  0  0  0  0  0  0
    6.1835   -2.3179    5.2406 H   0  0  0  0  0  0  0  0  0  0  0  0
    2.6681   -3.5080    8.1887 H   0  0  0  0  0  0  0  0  0  0  0  0
    9.1372   -3.6819    6.7322 H   0  0  0  0  0  0  0  0  0  0  0  0
   -0.7811   -0.4648    6.1229 H   0  0  0  0  0  0  0  0  0  0  0  0
   -2.1748   -1.3176    6.1182 H   0  0  0  0  0  0  0  0  0  0  0  0
    3.8665   -3.2583    5.4943 H   0  0  0  0  0  0  0  0  0  0  0  0
   -1.2313   -2.5785    7.2770 H   0  0  0  0  0  0  0  0  0  0  0  0
    9.0316   -0.9831    6.8160 H   0  0  0  0  0  0  0  0  0  0  0  0
    8.3038   -1.1238    5.2046 H   0  0  0  0  0  0  0  0  0  0  0  0
   -3.0098   -0.5509    4.6388 H   0  0  0  0  0  0  0  0  0  0  0  0
   -1.8557    0.5749    4.2421 H   0  0  0  0  0  0  0  0  0  0  0  0
   -4.3212   -0.5018    0.9026 H   0  0  0  0  0  0  0  0  0  0  0  0
   -4.8129   -2.1818    0.8532 H   0  0  0  0  0  0  0  0  0  0  0  0
   -3.9049   -3.7563    2.5440 H   0  0  0  0  0  0  0  0  0  0  0  0
   -2.7645   -3.2593    3.6942 H   0  0  0  0  0  0  0  0  0  0  0  0
   -3.2965    0.3846    2.4451 H   0  0  0  0  0  0  0  0  0  0  0  0
   -1.7987   -0.3606    1.9444 H   0  0  0  0  0  0  0  0  0  0  0  0
    2.0265   -4.4571    3.9968 H   0  0  0  0  0  0  0  0  0  0  0  0
    5.4099   -0.4531   11.9298 H   0  0  0  0  0  0  0  0  0  0  0  0
    2.5665   -1.7636    8.6779 H   0  0  0  0  0  0  0  0  0  0  0  0
   -5.3898   -0.1980    3.1595 H   0  0  0  0  0  0  0  0  0  0  0  0
   -4.4783   -1.8080    4.8225 H   0  0  0  0  0  0  0  0  0  0  0  0
   -6.7913   -2.0206    4.0949 H   0  0  0  0  0  0  0  0  0  0  0  0
   -6.2957   -3.0922    2.7666 H   0  0  0  0  0  0  0  0  0  0  0  0
    6.3223   -1.2434    4.0582 H   0  0  0  0  0  0  0  0  0  0  0  0
    4.4183   -0.8482    2.0610 H   0  0  0  0  0  0  0  0  0  0  0  0
    4.0585   -1.6972    0.7077 H   0  0  0  0  0  0  0  0  0  0  0  0
    2.8524   -0.5904    1.6036 H   0  0  0  0  0  0  0  0  0  0  0  0
    5.4409   -3.3521   10.2935 H   0  0  0  0  0  0  0  0  0  0  0  0
    4.7413   -2.3889   11.5424 H   0  0  0  0  0  0  0  0  0  0  0  0
    3.8728   -2.4453   10.0778 H   0  0  0  0  0  0  0  0  0  0  0  0
   -0.4612   -2.8028    9.9610 H   0  0  0  0  0  0  0  0  0  0  0  0
    0.1551   -1.1860    9.4330 H   0  0  0  0  0  0  0  0  0  0  0  0
   -1.3533   -1.7485    8.8252 H   0  0  0  0  0  0  0  0  0  0  0  0
    6.5340   -5.1859    6.2035 H   0  0  0  0  0  0  0  0  0  0  0  0
    8.0489   -5.8830    6.5288 H   0  0  0  0  0  0  0  0  0  0  0  0
    4.2809   -1.8266    8.2182 H   0  0  0  0  0  0  0  0  0  0  0  0
    4.3210   -3.6431    8.6534 H   0  0  0  0  0  0  0  0  0  0  0  0
    5.7448   -2.8004    8.5910 H   0  0  0  0  0  0  0  0  0  0  0  0
    3.7541   -0.6240    3.7540 H   0  0  0  0  0  0  0  0  0  0  0  0
    2.9594   -2.1754    4.2629 H   0  0  0  0  0  0  0  0  0  0  0  0
    2.0818   -0.9287    3.4048 H   0  0  0  0  0  0  0  0  0  0  0  0
    4.5186    0.1913    5.5829 H   0  0  0  0  0  0  0  0  0  0  0  0
    3.5144   -0.1353    7.0664 H   0  0  0  0  0  0  0  0  0  0  0  0
    4.2174   -1.2746    6.1240 H   0  0  0  0  0  0  0  0  0  0  0  0
   -2.6266   -3.4953    5.6408 H   0  0  0  0  0  0  0  0  0  0  0  0
   -1.7649   -5.0407    5.7334 H   0  0  0  0  0  0  0  0  0  0  0  0
   -2.1829   -4.4607    7.2525 H   0  0  0  0  0  0  0  0  0  0  0  0
   -6.6608   -0.4476    0.6859 H   0  0  0  0  0  0  0  0  0  0  0  0
   -7.6381   -1.4834    1.7408 H   0  0  0  0  0  0  0  0  0  0  0  0
   -7.3759    0.2167    2.1684 H   0  0  0  0  0  0  0  0  0  0  0  0
   -4.2745   -4.0847    5.6887 H   0  0  0  0  0  0  0  0  0  0  0  0
   -5.9469   -3.6608    5.6263 H   0  0  0  0  0  0  0  0  0  0  0  0
   -5.2410   -4.7300    4.3850 H   0  0  0  0  0  0  0  0  0  0  0  0
    7.9969    2.6205    9.8334 H   0  0  0  0  0  0  0  0  0  0  0  0
    8.7924    1.6916    8.5079 H   0  0  0  0  0  0  0  0  0  0  0  0
    8.7176    3.4316    8.5102 H   0  0  0  0  0  0  0  0  0  0  0  0
    7.7863   -0.7638   10.8986 H   0  0  0  0  0  0  0  0  0  0  0  0
    8.4175    0.2461    9.6795 H   0  0  0  0  0  0  0  0  0  0  0  0
    8.8877    0.4143   11.2498 H   0  0  0  0  0  0  0  0  0  0  0  0
    6.5698   -4.1459    8.4807 H   0  0  0  0  0  0  0  0  0  0  0  0
    6.3511   -5.7876    8.4603 H   0  0  0  0  0  0  0  0  0  0  0  0
    7.9383   -4.9599    8.8820 H   0  0  0  0  0  0  0  0  0  0  0  0
  1  9  1  0  0  0  0
  1 62  1  6  0  0  0
  2  1  1  0  0  0  0
  2 40  1  0  0  0  0
  2 63  1  6  0  0  0
  3  2  1  0  0  0  0
  3 64  1  1  0  0  0
  3 31  1  0  0  0  0
  4  6  1  0  0  0  0
  4 41  1  0  0  0  0
  4 65  1  6  0  0  0
  5  4  1  0  0  0  0
  5 42  1  0  0  0  0
  5 66  1  1  0  0  0
  6 67  1  1  0  0  0
  6 30  1  0  0  0  0
  7  1  1  0  0  0  0
  8 68  1  6  0  0  0
  8  9  1  0  0  0  0
 10  6  1  0  0  0  0
 11  3  1  0  0  0  0
 11 44  1  0  0  0  0
 11 17  1  0  0  0  0
 11 69  1  6  0  0  0
 12  5  1  0  0  0  0
 12 18  1  0  0  0  0
 12 70  1  6  0  0  0
 12 43  1  0  0  0  0
 13  8  1  0  0  0  0
 13 49  1  0  0  0  0
 13 71  1  6  0  0  0
 14 16  1  0  0  0  0
 15 14  1  0  0  0  0
 16 19  1  0  0  0  0
 16 72  1  0  0  0  0
 16 73  1  0  0  0  0
 17  7  1  0  0  0  0
 17 74  1  1  0  0  0
 17 51  1  0  0  0  0
 18 10  1  0  0  0  0
 18 50  1  0  0  0  0
 18 75  1  1  0  0  0
 19 13  1  0  0  0  0
 19 76  1  1  0  0  0
 19 48  1  0  0  0  0
 20  8  1  0  0  0  0
 20 77  1  1  0  0  0
 20 35  1  0  0  0  0
 21 39  1  0  0  0  0
 22 26  1  0  0  0  0
 22 33  1  0  0  0  0
 22 23  1  0  0  0  0
 22 78  1  1  0  0  0
 23 27  2  0  0  0  0
 23 79  1  0  0  0  0
 24 25  1  0  0  0  0
 24 80  1  0  0  0  0
 25 32  1  0  0  0  0
 26 15  1  0  0  0  0
 26 81  1  1  0  0  0
 26 52  1  0  0  0  0
 27 29  1  0  0  0  0
 28 20  1  0  0  0  0
 28 82  1  0  0  0  0
 28 83  1  0  0  0  0
 29 24  2  0  0  0  0
 29 84  1  0  0  0  0
 30 33  1  0  0  0  0
 32 28  1  0  0  0  0
 32 85  1  1  0  0  0
 32 56  1  0  0  0  0
 33 86  1  0  0  0  0
 33 87  1  0  0  0  0
 34 14  2  0  0  0  0
 35 88  1  0  0  0  0
 35 89  1  0  0  0  0
 36 25  2  0  0  0  0
 37 21  1  0  0  0  0
 37 90  1  0  0  0  0
 37 91  1  0  0  0  0
 38 21  1  0  0  0  0
 38 92  1  0  0  0  0
 38 93  1  0  0  0  0
 39 35  1  0  0  0  0
 39 94  1  0  0  0  0
 39 95  1  0  0  0  0
 40 96  1  0  0  0  0
 43 97  1  0  0  0  0
 44 98  1  0  0  0  0
 45 37  1  0  0  0  0
 45 99  1  1  0  0  0
 45 57  1  0  0  0  0
 46 38  1  0  0  0  0
 46100  1  1  0  0  0
 46 58  1  0  0  0  0
 47 46  1  0  0  0  0
 47 45  1  0  0  0  0
 47101  1  0  0  0  0
 47102  1  0  0  0  0
 48103  1  0  0  0  0
 49104  1  0  0  0  0
 49105  1  0  0  0  0
 49106  1  0  0  0  0
 50107  1  0  0  0  0
 50108  1  0  0  0  0
 50109  1  0  0  0  0
 51110  1  0  0  0  0
 51111  1  0  0  0  0
 51112  1  0  0  0  0
 52113  1  0  0  0  0
 52114  1  0  0  0  0
 53 27  1  0  0  0  0
 53115  1  0  0  0  0
 53116  1  0  0  0  0
 53117  1  0  0  0  0
 54 31  1  0  0  0  0
 54118  1  0  0  0  0
 54119  1  0  0  0  0
 54120  1  0  0  0  0
 55 31  1  0  0  0  0
 55121  1  0  0  0  0
 55122  1  0  0  0  0
 55123  1  0  0  0  0
 56124  1  0  0  0  0
 56125  1  0  0  0  0
 56126  1  0  0  0  0
 57127  1  0  0  0  0
 57128  1  0  0  0  0
 57129  1  0  0  0  0
 58130  1  0  0  0  0
 58131  1  0  0  0  0
 58132  1  0  0  0  0
 59 41  1  0  0  0  0
 59133  1  0  0  0  0
 59134  1  0  0  0  0
 59135  1  0  0  0  0
 60 42  1  0  0  0  0
 60136  1  0  0  0  0
 60137  1  0  0  0  0
 60138  1  0  0  0  0
 61 52  1  0  0  0  0
 61139  1  0  0  0  0
 61140  1  0  0  0  0
 61141  1  0  0  0  0
M  END
>  <DRUGBANK_ID>
DB11471

>  <COMMON_NAME>
Tilmicosin

>  <CAS_NUMBER>
108050-54-0

>  <UNII>
XL4103X2E3

>  <SYNONYMS>
Tilmicosin

$$$$
