
 OpenBabel10282417203D

 54 57  0  0  0  0  0  0  0  0999 V2000
    0.3810    1.1866    0.0291 C   0  0  0  0  0  0  0  0  0  0  0  0
    3.6562   -5.1237    0.9016 C   0  0  0  0  0  0  0  0  0  0  0  0
    2.3954   -5.7201   -1.0481 C   0  0  0  0  0  0  0  0  0  0  0  0
    4.6789   -6.0533    0.5827 C   0  0  0  0  0  0  0  0  0  0  0  0
    3.4833   -6.5268   -1.4820 C   0  0  0  0  0  0  0  0  0  0  0  0
    1.7938    1.0759    0.0769 C   0  0  0  0  0  0  0  0  0  0  0  0
    7.2158   -0.8349   -3.1166 C   0  0  0  0  0  0  0  0  0  0  0  0
    6.4067   -0.4177   -2.0255 C   0  0  0  0  0  0  0  0  0  0  0  0
    3.3076  -10.6349   -0.8807 C   0  0  0  0  0  0  0  0  0  0  0  0
    3.6330   -9.3847    1.1953 C   0  0  0  0  0  0  0  0  0  0  0  0
    2.3616   -9.6319   -1.5040 C   0  0  0  0  0  0  0  0  0  0  0  0
    2.5993   -8.4721    0.5600 C   0  0  0  0  0  0  0  0  0  0  0  0
    0.2063   -1.2034    0.0851 C   0  0  0  0  0  0  0  0  0  0  0  0
   -0.4033    0.0414    0.0541 C   0  0  0  0  0  0  0  0  0  0  0  0
    2.5484   -4.9087    0.0646 C   0  0  0  0  0  0  0  0  0  0  0  0
    4.6067   -6.7692   -0.6283 C   0  0  0  0  0  0  0  0  0  0  0  0
    1.6135   -1.3157    0.1010 C   0  0  0  0  0  0  0  0  0  0  0  0
    2.4574   -0.1843    0.1293 C   0  0  0  0  0  0  0  0  0  0  0  0
    7.2605   -2.2022   -3.2001 C   0  0  0  0  0  0  0  0  0  0  0  0
    5.9526   -1.4737   -1.2567 C   0  0  0  0  0  0  0  0  0  0  0  0
    2.1378   -2.6070   -0.3382 C   0  0  0  0  0  0  0  0  0  0  0  0
   -2.1206    0.1336   -0.0280 Cl  0  0  0  0  0  0  0  0  0  0  0  0
    8.1020   -3.1030   -4.4009 Cl  0  0  0  0  0  0  0  0  0  0  0  0
    1.6854   -3.7847    0.2766 N   0  0  0  0  0  0  0  0  0  0  0  0
    3.9169   -0.1685    0.2219 N   0  0  0  0  0  0  0  0  0  0  0  0
    4.3751   -9.9344    0.0055 N   0  0  0  0  0  0  0  0  0  0  0  0
    2.8574   -2.5476   -1.3333 O   0  0  0  0  0  0  0  0  0  0  0  0
    6.1038   -0.9275    1.2122 O   0  0  0  0  0  0  0  0  0  0  0  0
    4.5548   -2.7307    0.5633 O   0  0  0  0  0  0  0  0  0  0  0  0
    5.8434   -8.8768   -2.0261 O   0  0  0  0  0  0  0  0  0  0  0  0
    6.5373   -8.4462    0.3696 O   0  0  0  0  0  0  0  0  0  0  0  0
    1.6661   -8.9562   -0.4133 O   0  0  0  0  0  0  0  0  0  0  0  0
    6.3988   -2.9797   -1.9570 S   0  0  0  0  0  0  0  0  0  0  0  0
    5.0990   -1.4029    0.3156 S   0  0  0  0  0  0  0  0  0  0  0  0
    5.5116   -8.5692   -0.6517 S   0  0  0  0  0  0  0  0  0  0  0  0
   -0.1051    2.1615   -0.0386 H   0  0  0  0  0  0  0  0  0  0  0  0
    3.7345   -4.5382    1.8183 H   0  0  0  0  0  0  0  0  0  0  0  0
    1.4207   -5.8021   -1.5309 H   0  0  0  0  0  0  0  0  0  0  0  0
    5.4499   -6.2507    1.3232 H   0  0  0  0  0  0  0  0  0  0  0  0
    3.2875   -7.1563   -2.3373 H   0  0  0  0  0  0  0  0  0  0  0  0
    2.3494    2.0142    0.0369 H   0  0  0  0  0  0  0  0  0  0  0  0
    7.7275   -0.1645   -3.7946 H   0  0  0  0  0  0  0  0  0  0  0  0
    6.1992    0.6068   -1.7581 H   0  0  0  0  0  0  0  0  0  0  0  0
    2.6612  -11.2280   -0.2061 H   0  0  0  0  0  0  0  0  0  0  0  0
    3.7294  -11.3410   -1.5966 H   0  0  0  0  0  0  0  0  0  0  0  0
    3.1384  -10.1283    1.8182 H   0  0  0  0  0  0  0  0  0  0  0  0
    4.3644   -8.8489    1.8142 H   0  0  0  0  0  0  0  0  0  0  0  0
    2.9670   -8.9976   -2.1553 H   0  0  0  0  0  0  0  0  0  0  0  0
    1.5866  -10.0419   -2.1568 H   0  0  0  0  0  0  0  0  0  0  0  0
    2.3000   -7.6053    1.1439 H   0  0  0  0  0  0  0  0  0  0  0  0
    3.2333   -8.0725   -0.1477 H   0  0  0  0  0  0  0  0  0  0  0  0
   -0.4155   -2.0883   -0.0063 H   0  0  0  0  0  0  0  0  0  0  0  0
    0.7459   -3.9515   -0.0705 H   0  0  0  0  0  0  0  0  0  0  0  0
    4.3795    0.7361    0.1457 H   0  0  0  0  0  0  0  0  0  0  0  0
  1 36  1  0  0  0  0
  2 37  1  0  0  0  0
  3 38  1  0  0  0  0
  4  2  1  0  0  0  0
  4 39  1  0  0  0  0
  5  3  2  0  0  0  0
  5 40  1  0  0  0  0
  6  1  2  0  0  0  0
  6 41  1  0  0  0  0
  7 42  1  0  0  0  0
  8  7  1  0  0  0  0
  8 43  1  0  0  0  0
  9 44  1  0  0  0  0
  9 45  1  0  0  0  0
 10 46  1  0  0  0  0
 10 47  1  0  0  0  0
 11  9  1  0  0  0  0
 11 48  1  0  0  0  0
 11 49  1  0  0  0  0
 12 10  1  0  0  0  0
 12 50  1  0  0  0  0
 12 51  1  0  0  0  0
 13 52  1  0  0  0  0
 14  1  1  0  0  0  0
 14 13  2  0  0  0  0
 15  2  2  0  0  0  0
 15  3  1  0  0  0  0
 16  4  2  0  0  0  0
 16  5  1  0  0  0  0
 17 13  1  0  0  0  0
 18  6  1  0  0  0  0
 18 17  2  0  0  0  0
 19  7  2  0  0  0  0
 20  8  2  0  0  0  0
 21 17  1  0  0  0  0
 22 14  1  0  0  0  0
 23 19  1  0  0  0  0
 24 15  1  0  0  0  0
 24 21  1  0  0  0  0
 24 53  1  0  0  0  0
 25 18  1  0  0  0  0
 25 54  1  0  0  0  0
 26  9  1  0  0  0  0
 26 10  1  0  0  0  0
 27 21  2  0  0  0  0
 32 11  1  0  0  0  0
 32 12  1  0  0  0  0
 33 19  1  0  0  0  0
 33 20  1  0  0  0  0
 34 20  1  0  0  0  0
 34 25  1  0  0  0  0
 34 28  2  0  0  0  0
 34 29  2  0  0  0  0
 35 16  1  0  0  0  0
 35 26  1  0  0  0  0
 35 30  2  0  0  0  0
 35 31  2  0  0  0  0
M  END
>  <DRUGBANK_ID>
DB12805

>  <COMMON_NAME>
Ataciguat

>  <CAS_NUMBER>
254877-67-3

>  <UNII>
QP166M390Q

>  <SYNONYMS>
Ataciguat

$$$$
