HS4
 OpenBabel10282417163D

 33 34  0  0  0  0  0  0  0  0999 V2000
    0.8979   -0.2445   -0.4332 O   0  0  0  0  0  0  0  0  0  0  0  0
    2.2838    0.0162   -0.1473 S   0  0  0  0  0  0  0  0  0  0  0  0
    2.6559    0.6398    1.1050 O   0  0  0  0  0  0  0  0  0  0  0  0
    3.0855   -1.4741   -0.2075 N   0  0  0  0  0  0  0  0  0  0  0  0
    4.5660   -1.5239   -0.0960 C   0  0  0  0  0  0  0  0  0  0  0  0
    5.2182   -0.9962    1.1599 C   0  0  0  0  0  0  0  0  0  0  0  0
    5.6939   -1.7486    2.0061 O   0  0  0  0  0  0  0  0  0  0  0  0
    5.2730    0.3910    1.3809 N   0  0  0  0  0  0  0  0  0  0  0  0
    5.4334    0.7132    2.5630 O   0  0  0  0  0  0  0  0  0  0  0  0
    2.9336    0.9981   -1.4764 C   0  0  0  0  0  0  0  0  0  0  0  0
    2.6139    2.3546   -1.4540 C   0  0  0  0  0  0  0  0  0  0  0  0
    3.0225    3.1805   -2.5000 C   0  0  0  0  0  0  0  0  0  0  0  0
    3.7237    0.4876   -2.5121 C   0  0  0  0  0  0  0  0  0  0  0  0
    4.2108    1.3444   -3.5065 C   0  0  0  0  0  0  0  0  0  0  0  0
    3.7972    2.6816   -3.5581 C   0  0  0  0  0  0  0  0  0  0  0  0
    4.1403    3.5418   -4.6955 C   0  0  0  0  0  0  0  0  0  0  0  0
    4.8708    4.7180   -4.4862 C   0  0  0  0  0  0  0  0  0  0  0  0
    5.1865    5.5644   -5.5477 C   0  0  0  0  0  0  0  0  0  0  0  0
    4.7945    5.2351   -6.8426 C   0  0  0  0  0  0  0  0  0  0  0  0
    4.0940    4.0543   -7.0780 C   0  0  0  0  0  0  0  0  0  0  0  0
    3.7327    3.2326   -6.0061 C   0  0  0  0  0  0  0  0  0  0  0  0
    2.6163   -2.1016    0.4564 H   0  0  0  0  0  0  0  0  0  0  0  0
    4.8468   -2.5811   -0.2047 H   0  0  0  0  0  0  0  0  0  0  0  0
    5.0409   -1.0406   -0.9495 H   0  0  0  0  0  0  0  0  0  0  0  0
    2.0087    2.7654   -0.6488 H   0  0  0  0  0  0  0  0  0  0  0  0
    2.7141    4.2239   -2.4965 H   0  0  0  0  0  0  0  0  0  0  0  0
    3.9584   -0.5674   -2.6003 H   0  0  0  0  0  0  0  0  0  0  0  0
    4.9039    0.9643   -4.2570 H   0  0  0  0  0  0  0  0  0  0  0  0
    5.1925    4.9804   -3.4811 H   0  0  0  0  0  0  0  0  0  0  0  0
    5.7454    6.4760   -5.3585 H   0  0  0  0  0  0  0  0  0  0  0  0
    5.0299    5.9032   -7.6667 H   0  0  0  0  0  0  0  0  0  0  0  0
    3.8271    3.7775   -8.0952 H   0  0  0  0  0  0  0  0  0  0  0  0
    3.1104    2.3603   -6.2014 H   0  0  0  0  0  0  0  0  0  0  0  0
  1  2  2  0  0  0  0
  2  3  2  0  0  0  0
  2  4  1  0  0  0  0
  2 10  1  0  0  0  0
  4  5  1  0  0  0  0
  4 22  1  0  0  0  0
  5  6  1  0  0  0  0
  5 23  1  0  0  0  0
  5 24  1  0  0  0  0
  6  7  2  0  0  0  0
  6  8  1  0  0  0  0
  8  9  2  0  0  0  0
 10 11  2  0  0  0  0
 10 13  1  0  0  0  0
 11 12  1  0  0  0  0
 11 25  1  0  0  0  0
 12 15  2  0  0  0  0
 12 26  1  0  0  0  0
 13 14  2  0  0  0  0
 13 27  1  0  0  0  0
 14 15  1  0  0  0  0
 14 28  1  0  0  0  0
 15 16  1  0  0  0  0
 16 17  2  0  0  0  0
 16 21  1  0  0  0  0
 17 18  1  0  0  0  0
 17 29  1  0  0  0  0
 18 19  2  0  0  0  0
 18 30  1  0  0  0  0
 19 20  1  0  0  0  0
 19 31  1  0  0  0  0
 20 21  2  0  0  0  0
 20 32  1  0  0  0  0
 21 33  1  0  0  0  0
M  END
>  <DRUGBANK_ID>
DB07920

>  <COMMON_NAME>
N-oxo-2-[(4-phenylphenyl)sulfonylamino]ethanamide

$$$$
