
 OpenBabel10282417133D

 17 16  0  0  0  0  0  0  0  0999 V2000
    0.9651   -0.0499   -0.0798 O   0  0  0  0  0  0  0  0  0  0  0  0
    0.3933    0.6640   -1.0682 C   0  0  0  0  0  0  0  0  0  0  0  0
   -1.1349    0.6778   -1.0143 C   0  0  2  0  0  0  0  0  0  0  0  0
   -1.6345    1.2808    0.2898 C   0  0  0  0  0  0  0  0  0  0  0  0
   -1.7250    3.6355   -0.7405 O   0  0  0  0  0  0  0  0  0  0  0  0
   -1.0423    2.9482    0.5560 S   0  0  0  0  0  0  0  0  0  0  0  0
    1.0585    1.2413   -1.9152 O   0  0  0  0  0  0  0  0  0  0  0  0
   -1.6570   -0.6979   -1.1995 N   0  0  0  0  0  0  0  0  0  0  0  0
   -1.6868    3.4842    1.7362 O   0  0  0  0  0  0  0  0  0  0  0  0
    0.3848    3.0183    0.3750 O   0  0  0  0  0  0  0  0  0  0  0  0
    1.9322    0.0584   -0.1947 H   0  0  0  0  0  0  0  0  0  0  0  0
   -1.4814    1.2773   -1.8645 H   0  0  0  0  0  0  0  0  0  0  0  0
   -2.7298    1.3325    0.3027 H   0  0  0  0  0  0  0  0  0  0  0  0
   -1.3124    0.6969    1.1573 H   0  0  0  0  0  0  0  0  0  0  0  0
   -1.1129    3.6160   -1.5077 H   0  0  0  0  0  0  0  0  0  0  0  0
   -2.6750   -0.6910   -1.2418 H   0  0  0  0  0  0  0  0  0  0  0  0
   -1.3309   -1.0687   -2.0937 H   0  0  0  0  0  0  0  0  0  0  0  0
  1  2  1  0  0  0  0
  1 11  1  0  0  0  0
  3  2  1  0  0  0  0
  3  8  1  0  0  0  0
  3 12  1  6  0  0  0
  4  3  1  0  0  0  0
  4 13  1  0  0  0  0
  4 14  1  0  0  0  0
  5  6  1  0  0  0  0
  5 15  1  0  0  0  0
  6  4  1  0  0  0  0
  7  2  2  0  0  0  0
  8 16  1  0  0  0  0
  8 17  1  0  0  0  0
  9  6  2  0  0  0  0
 10  6  2  0  0  0  0
M  END
>  <DRUGBANK_ID>
DB03661

>  <SECONDARY_ACCESSION_NUMBERS>
EXPT02415

>  <COMMON_NAME>
L-cysteic acid

>  <CAS_NUMBER>
498-40-8

>  <UNII>
M6W2DJ6N5K

>  <SYNONYMS>
(2R)-2-amino-3-sulfopropanoic acid; 2-Amino-3-sulfopropionic acid; 3-sulfo-L-alanine; 3-Sulfoalanine; Cysteinesulfonic acid; Cysteric acid; L-Cysteate

$$$$
