
 OpenBabel10282417183D

126129  0  0  0  0  0  0  0  0999 V2000
    1.3436   -1.5822    1.3495 O   0  0  0  0  0  0  0  0  0  0  0  0
    1.8518   -2.3189    2.3161 C   0  0  1  0  0  0  0  0  0  0  0  0
    3.6052   -2.6710    0.9633 C   0  0  1  0  0  0  0  0  0  0  0  0
    4.9689   -1.3699    2.1357 C   0  0  2  0  0  0  0  0  0  0  0  0
    6.6535   -1.8820    2.2896 C   0  0  1  0  0  0  0  0  0  0  0  0
    5.7621   -2.7648    2.0726 C   0  0  0  0  0  0  0  0  0  0  0  0
    5.1302   -2.5616    3.2072 C   0  0  0  0  0  0  0  0  0  0  0  0
    3.7966   -1.2839    3.1669 O   0  0  0  0  0  0  0  0  0  0  0  0
    7.2907   -0.7001    2.4302 C   0  0  0  0  0  0  0  0  0  0  0  0
    7.5503   -1.0219    3.8762 C   0  0  2  0  0  0  0  0  0  0  0  0
    6.5940   -0.3106    4.7205 C   0  0  0  0  0  0  0  0  0  0  0  0
    6.7678   -0.3248    6.1492 C   0  0  0  0  0  0  0  0  0  0  0  0
    5.9723    0.4685    6.8493 C   0  0  0  0  0  0  0  0  0  0  0  0
    5.7058    0.4038    8.2552 C   0  0  1  0  0  0  0  0  0  0  0  0
    4.7860   -0.5448    8.8474 C   0  0  2  0  0  0  0  0  0  0  0  0
    4.5522   -1.7368    8.0578 C   0  0  0  0  0  0  0  0  0  0  0  0
    3.1153   -1.7028    7.7947 C   0  0  2  0  0  0  0  0  0  0  0  0
    2.5389   -2.7065    7.0711 O   0  0  0  0  0  0  0  0  0  0  0  0
    2.0692   -2.4852    5.6597 C   0  0  0  0  0  0  0  0  0  0  0  0
    2.6603   -2.4497    4.4138 C   0  0  0  0  0  0  0  0  0  0  0  0
    2.1955   -1.4042    5.0642 O   0  0  0  0  0  0  0  0  0  0  0  0
    2.8626   -0.7592    6.7746 C   0  0  0  0  0  0  0  0  0  0  0  0
    5.5160    0.0187    4.2698 O   0  0  0  0  0  0  0  0  0  0  0  0
    8.8970   -1.2444    4.4497 C   0  0  0  0  0  0  0  0  0  0  0  0
    4.4380   -1.8539    4.3385 O   0  0  0  0  0  0  0  0  0  0  0  0
    3.9020   -3.8675    3.8649 C   0  0  2  0  0  0  0  0  0  0  0  0
    4.8265   -4.5073    4.6569 O   0  0  0  0  0  0  0  0  0  0  0  0
    4.6888   -5.8476    4.7720 C   0  0  1  0  0  0  0  0  0  0  0  0
    4.4485   -6.8638    3.2934 C   0  0  1  0  0  0  0  0  0  0  0  0
    3.5736   -7.8764    3.7135 O   0  0  0  0  0  0  0  0  0  0  0  0
    2.0951   -7.5641    4.2041 C   0  0  2  0  0  0  0  0  0  0  0  0
    0.9714   -7.0853    3.2662 O   0  0  0  0  0  0  0  0  0  0  0  0
    0.7475   -5.6673    2.9493 C   0  0  2  0  0  0  0  0  0  0  0  0
    1.0469   -4.7314    4.0951 C   0  0  1  0  0  0  0  0  0  0  0  0
    1.9225   -5.3625    5.1625 C   0  0  1  0  0  0  0  0  0  0  0  0
    2.0266   -6.7473    5.4867 C   0  0  0  0  0  0  0  0  0  0  0  0
    2.7734   -5.5370    4.2128 O   0  0  0  0  0  0  0  0  0  0  0  0
    2.5046   -4.6960    6.3959 C   0  0  0  0  0  0  0  0  0  0  0  0
    1.6461   -3.4855    3.4850 O   0  0  0  0  0  0  0  0  0  0  0  0
    3.3275   -2.8437    2.6180 C   0  0  0  0  0  0  0  0  0  0  0  0
    4.8650   -4.3801    2.4301 C   0  0  0  0  0  0  0  0  0  0  0  0
    5.5431   -4.5997    0.5291 C   0  0  0  0  0  0  0  0  0  0  0  0
    6.1897   -2.9502   -0.0998 C   0  0  0  0  0  0  0  0  0  0  0  0
    3.1918   -1.4013    1.7294 O   0  0  0  0  0  0  0  0  0  0  0  0
    0.0373   -5.0847    1.7799 C   0  0  0  0  0  0  0  0  0  0  0  0
    1.8893   -8.5163    4.5533 H   0  0  0  0  0  0  0  0  0  0  0  0
    3.2868   -6.2144    1.9439 C   0  0  1  0  0  0  0  0  0  0  0  0
    2.7081   -4.7405    2.3120 C   0  0  1  0  0  0  0  0  0  0  0  0
    1.9484   -3.9449    0.8810 O   0  0  0  0  0  0  0  0  0  0  0  0
    2.9609   -6.8669    0.6952 N   0  0  0  0  0  0  0  0  0  0  0  0
    2.1005   -6.0640   -0.1661 C   0  0  0  0  0  0  0  0  0  0  0  0
    4.2044   -7.0701    0.0655 C   0  0  0  0  0  0  0  0  0  0  0  0
    5.6793   -6.0202    5.7608 C   0  0  0  0  0  0  0  0  0  0  0  0
    2.8969   -4.0655    4.0280 H   0  0  0  0  0  0  0  0  0  0  0  0
    4.0278   -4.0700    0.8775 O   0  0  0  0  0  0  0  0  0  0  0  0
    4.2636   -3.9681   -1.0170 C   0  0  0  0  0  0  0  0  0  0  0  0
    6.2194   -5.7641    0.8513 C   0  0  0  0  0  0  0  0  0  0  0  0
    1.3136   -0.5327    2.1103 C   0  0  0  0  0  0  0  0  0  0  0  0
    1.4630    0.4688    1.4618 O   0  0  0  0  0  0  0  0  0  0  0  0
    0.7167   -0.7219    3.4592 C   0  0  0  0  0  0  0  0  0  0  0  0
    4.1542    0.6484    8.5694 O   0  0  0  0  0  0  0  0  0  0  0  0
    0.7806   -2.7498    2.3359 H   0  0  0  0  0  0  0  0  0  0  0  0
    3.1666   -2.4660    0.0197 H   0  0  0  0  0  0  0  0  0  0  0  0
    4.9289   -0.3117    2.0027 H   0  0  0  0  0  0  0  0  0  0  0  0
    7.4020   -2.6900    2.1774 H   0  0  0  0  0  0  0  0  0  0  0  0
    5.1942   -2.9568    1.2992 H   0  0  0  0  0  0  0  0  0  0  0  0
    6.3356   -3.6567    2.0774 H   0  0  0  0  0  0  0  0  0  0  0  0
    5.6505   -2.6899    4.3571 H   0  0  0  0  0  0  0  0  0  0  0  0
    8.1035   -0.4239    1.8467 H   0  0  0  0  0  0  0  0  0  0  0  0
    6.6053   -0.3181    1.6907 H   0  0  0  0  0  0  0  0  0  0  0  0
    7.2820   -2.0757    4.0754 H   0  0  0  0  0  0  0  0  0  0  0  0
    7.3334   -1.1205    6.5832 H   0  0  0  0  0  0  0  0  0  0  0  0
    5.3232    1.1843    6.3710 H   0  0  0  0  0  0  0  0  0  0  0  0
    6.6729    0.3494    8.8183 H   0  0  0  0  0  0  0  0  0  0  0  0
    4.7465   -0.7446    9.8982 H   0  0  0  0  0  0  0  0  0  0  0  0
    5.1848   -2.3598    8.6661 H   0  0  0  0  0  0  0  0  0  0  0  0
    4.8844   -2.0334    7.0576 H   0  0  0  0  0  0  0  0  0  0  0  0
    2.4784   -1.3468    8.5433 H   0  0  0  0  0  0  0  0  0  0  0  0
    3.1676   -3.5050    5.1725 H   0  0  0  0  0  0  0  0  0  0  0  0
    3.9137   -2.9226    5.1156 H   0  0  0  0  0  0  0  0  0  0  0  0
    1.5733   -1.2362    6.7024 H   0  0  0  0  0  0  0  0  0  0  0  0
    2.2435    0.0003    6.3898 H   0  0  0  0  0  0  0  0  0  0  0  0
    3.7354   -1.0027    5.9922 H   0  0  0  0  0  0  0  0  0  0  0  0
    8.8070   -1.3785    5.5276 H   0  0  0  0  0  0  0  0  0  0  0  0
    9.3094   -2.1912    4.0939 H   0  0  0  0  0  0  0  0  0  0  0  0
    9.5284   -0.4050    4.2490 H   0  0  0  0  0  0  0  0  0  0  0  0
    3.9316   -5.8487    5.4871 H   0  0  0  0  0  0  0  0  0  0  0  0
    5.4289   -6.5051    3.0151 H   0  0  0  0  0  0  0  0  0  0  0  0
    1.3454   -5.6402    2.0943 H   0  0  0  0  0  0  0  0  0  0  0  0
    0.1888   -4.4472    4.6129 H   0  0  0  0  0  0  0  0  0  0  0  0
    1.1234   -6.5830    5.9874 H   0  0  0  0  0  0  0  0  0  0  0  0
    2.8888   -6.9163    6.1563 H   0  0  0  0  0  0  0  0  0  0  0  0
    3.1239   -6.2443    3.8024 H   0  0  0  0  0  0  0  0  0  0  0  0
    1.5917   -4.2216    6.7171 H   0  0  0  0  0  0  0  0  0  0  0  0
    3.4205   -4.8769    6.9540 H   0  0  0  0  0  0  0  0  0  0  0  0
    3.4397   -3.9644    6.4270 H   0  0  0  0  0  0  0  0  0  0  0  0
    5.7799   -4.3912    3.2419 H   0  0  0  0  0  0  0  0  0  0  0  0
    4.3939   -5.1745    2.8080 H   0  0  0  0  0  0  0  0  0  0  0  0
    4.0425   -5.0328   -0.0464 H   0  0  0  0  0  0  0  0  0  0  0  0
    6.9705   -3.0671    0.5823 H   0  0  0  0  0  0  0  0  0  0  0  0
    6.2243   -3.2307   -1.0877 H   0  0  0  0  0  0  0  0  0  0  0  0
    5.3369   -1.9861    0.0624 H   0  0  0  0  0  0  0  0  0  0  0  0
    0.4826   -4.7614    0.8233 H   0  0  0  0  0  0  0  0  0  0  0  0
   -0.2991   -5.9457    1.2943 H   0  0  0  0  0  0  0  0  0  0  0  0
   -0.3407   -4.1794    2.1614 H   0  0  0  0  0  0  0  0  0  0  0  0
    2.5108   -6.5731    2.4702 H   0  0  0  0  0  0  0  0  0  0  0  0
    2.9905   -4.0663    1.8032 H   0  0  0  0  0  0  0  0  0  0  0  0
    1.1582   -3.4299    1.0548 H   0  0  0  0  0  0  0  0  0  0  0  0
    2.1811   -5.0257   -0.4332 H   0  0  0  0  0  0  0  0  0  0  0  0
    2.1693   -6.4229   -1.1472 H   0  0  0  0  0  0  0  0  0  0  0  0
    1.1053   -6.1662    0.1477 H   0  0  0  0  0  0  0  0  0  0  0  0
    4.4629   -6.1405    0.0057 H   0  0  0  0  0  0  0  0  0  0  0  0
    5.1452   -7.4610    0.4716 H   0  0  0  0  0  0  0  0  0  0  0  0
    4.3996   -6.9745   -0.9656 H   0  0  0  0  0  0  0  0  0  0  0  0
    5.3519   -5.2010    6.4711 H   0  0  0  0  0  0  0  0  0  0  0  0
    5.2108   -6.9821    5.8772 H   0  0  0  0  0  0  0  0  0  0  0  0
    6.3990   -5.7192    5.0104 H   0  0  0  0  0  0  0  0  0  0  0  0
    3.2352   -3.8936   -1.0046 H   0  0  0  0  0  0  0  0  0  0  0  0
    4.5291   -3.0452   -0.8472 H   0  0  0  0  0  0  0  0  0  0  0  0
    4.8590   -4.9344   -1.3022 H   0  0  0  0  0  0  0  0  0  0  0  0
    5.4219   -6.2788    1.4663 H   0  0  0  0  0  0  0  0  0  0  0  0
    6.2332   -5.9402   -0.2196 H   0  0  0  0  0  0  0  0  0  0  0  0
    6.9152   -5.5419    1.5982 H   0  0  0  0  0  0  0  0  0  0  0  0
    0.1908   -1.6604    3.6927 H   0  0  0  0  0  0  0  0  0  0  0  0
    1.2936   -0.4267    4.2610 H   0  0  0  0  0  0  0  0  0  0  0  0
    0.1570    0.1211    3.6517 H   0  0  0  0  0  0  0  0  0  0  0  0
  1 58  1  0  0  0  0
  2 62  1  6  0  0  0
  2  1  1  0  0  0  0
  3  2  1  0  0  0  0
  3  4  1  0  0  0  0
  3 55  1  0  0  0  0
  3 63  1  6  0  0  0
  4  5  1  0  0  0  0
  4 64  1  6  0  0  0
  4 25  1  0  0  0  0
  5 65  1  1  0  0  0
  5  6  1  0  0  0  0
  6 66  1  0  0  0  0
  6 67  1  0  0  0  0
  7  6  1  0  0  0  0
  7  8  2  0  0  0  0
  7 68  1  0  0  0  0
  9  5  1  0  0  0  0
  9 10  1  0  0  0  0
  9 69  1  0  0  0  0
  9 70  1  0  0  0  0
 10 11  1  0  0  0  0
 10 24  1  0  0  0  0
 10 71  1  1  0  0  0
 11 23  2  0  0  0  0
 12 11  1  0  0  0  0
 12 13  2  0  0  0  0
 12 72  1  0  0  0  0
 13 14  1  0  0  0  0
 13 73  1  0  0  0  0
 14 15  1  0  0  0  0
 14 61  1  0  0  0  0
 14 74  1  6  0  0  0
 15 16  1  0  0  0  0
 15 61  1  0  0  0  0
 15 75  1  1  0  0  0
 16 17  1  0  0  0  0
 16 76  1  0  0  0  0
 16 77  1  0  0  0  0
 17 18  1  0  0  0  0
 17 78  1  1  0  0  0
 17 22  1  0  0  0  0
 19 18  1  0  0  0  0
 19 20  1  0  0  0  0
 20  2  1  0  0  0  0
 20 79  1  0  0  0  0
 20 80  1  0  0  0  0
 21 19  2  0  0  0  0
 22 81  1  0  0  0  0
 22 82  1  0  0  0  0
 22 83  1  0  0  0  0
 24 84  1  0  0  0  0
 24 85  1  0  0  0  0
 24 86  1  0  0  0  0
 26 27  1  0  0  0  0
 26 48  1  0  0  0  0
 26 54  1  1  0  0  0
 26 25  1  0  0  0  0
 27 28  1  0  0  0  0
 28 29  1  0  0  0  0
 28 53  1  0  0  0  0
 28 87  1  1  0  0  0
 29 47  1  0  0  0  0
 29 88  1  6  0  0  0
 29 30  1  0  0  0  0
 30 31  1  0  0  0  0
 31 32  1  0  0  0  0
 31 36  1  0  0  0  0
 31 46  1  1  0  0  0
 32 33  1  0  0  0  0
 33 34  1  0  0  0  0
 33 89  1  6  0  0  0
 33 45  1  0  0  0  0
 34 35  1  0  0  0  0
 34 39  1  0  0  0  0
 34 90  1  1  0  0  0
 35 36  1  0  0  0  0
 35 37  1  6  0  0  0
 35 38  1  0  0  0  0
 36 91  1  0  0  0  0
 36 92  1  0  0  0  0
 37 93  1  0  0  0  0
 38 94  1  0  0  0  0
 38 95  1  0  0  0  0
 38 96  1  0  0  0  0
 39 40  1  0  0  0  0
 40 41  1  0  0  0  0
 40 44  2  0  0  0  0
 41 42  1  0  0  0  0
 41 97  1  0  0  0  0
 41 98  1  0  0  0  0
 42 43  1  0  0  0  0
 42 57  1  0  0  0  0
 42 99  1  0  0  0  0
 43100  1  0  0  0  0
 43101  1  0  0  0  0
 43102  1  0  0  0  0
 45103  1  0  0  0  0
 45104  1  0  0  0  0
 45105  1  0  0  0  0
 47 48  1  0  0  0  0
 47 50  1  0  0  0  0
 47106  1  1  0  0  0
 48 49  1  0  0  0  0
 48107  1  6  0  0  0
 49108  1  0  0  0  0
 50 51  1  0  0  0  0
 50 52  1  0  0  0  0
 51109  1  0  0  0  0
 51110  1  0  0  0  0
 51111  1  0  0  0  0
 52112  1  0  0  0  0
 52113  1  0  0  0  0
 52114  1  0  0  0  0
 53115  1  0  0  0  0
 53116  1  0  0  0  0
 53117  1  0  0  0  0
 55 56  1  0  0  0  0
 56118  1  0  0  0  0
 56119  1  0  0  0  0
 56120  1  0  0  0  0
 57121  1  0  0  0  0
 57122  1  0  0  0  0
 57123  1  0  0  0  0
 58 59  2  0  0  0  0
 58 60  1  0  0  0  0
 60124  1  0  0  0  0
 60125  1  0  0  0  0
 60126  1  0  0  0  0
M  END
>  <DRUGBANK_ID>
DB11383

>  <COMMON_NAME>
Carbomycin

>  <CAS_NUMBER>
4564-87-8

>  <UNII>
AIK0XUF3AV

>  <SYNONYMS>
Carbomicina; Carbomycin; Carbomycin A; Carbomycine; Carbomycinum; Magnamycin; Magnamycin A

$$$$
