
 OpenBabel10282417163D

 55 58  0  0  0  0  0  0  0  0999 V2000
    1.1621   -1.3756    0.1592 C   0  0  0  0  0  0  0  0  0  0  0  0
   -0.8364    1.8359    0.3111 C   0  0  0  0  0  0  0  0  0  0  0  0
   -2.6275   -0.4578   -0.1551 C   0  0  2  0  0  0  0  0  0  0  0  0
   -2.0778    1.0479   -1.7243 C   0  0  0  0  0  0  0  0  0  0  0  0
    2.4421   -0.8506   -0.3454 C   0  0  0  0  0  0  0  0  0  0  0  0
    4.0326    1.2939    1.3115 C   0  0  0  0  0  0  0  0  0  0  0  0
   -2.3324    0.9250    0.6773 C   0  0  0  0  0  0  0  0  0  0  0  0
   -2.9184   -1.0223   -1.7803 C   0  0  0  0  0  0  0  0  0  0  0  0
   -3.7402    1.1933   -1.7776 C   0  0  0  0  0  0  0  0  0  0  0  0
    4.8804    0.6554    0.1082 C   0  0  0  0  0  0  0  0  0  0  0  0
   -4.1193   -0.2132   -2.0499 C   0  0  0  0  0  0  0  0  0  0  0  0
   -5.1947   -0.6440   -2.2239 O   0  0  0  0  0  0  0  0  0  0  0  0
   -3.2579   -1.1490    0.4412 H   0  0  0  0  0  0  0  0  0  0  0  0
    0.2067   -0.2372   -0.3387 C   0  0  1  0  0  0  0  0  0  0  0  0
    0.4953   -0.1374   -1.3998 H   0  0  0  0  0  0  0  0  0  0  0  0
    2.1678    1.7140    0.7684 C   0  0  1  0  0  0  0  0  0  0  0  0
    2.1224    2.4471   -0.0485 H   0  0  0  0  0  0  0  0  0  0  0  0
    0.4391    1.0220    0.6495 C   0  0  2  0  0  0  0  0  0  0  0  0
    0.1243    0.7278    1.6455 H   0  0  0  0  0  0  0  0  0  0  0  0
   -1.2746   -0.4547   -0.6545 C   0  0  2  0  0  0  0  0  0  0  0  0
   -1.3595   -1.9700    0.2806 C   0  0  0  0  0  0  0  0  0  0  0  0
    2.6871    0.4349    0.3812 C   0  0  2  0  0  0  0  0  0  0  0  0
    2.3467    0.0955    2.1559 C   0  0  0  0  0  0  0  0  0  0  0  0
    3.8187    1.2814   -0.6121 C   0  0  1  0  0  0  0  0  0  0  0  0
    5.2568    3.5898   -0.0158 C   0  0  0  0  0  0  0  0  0  0  0  0
    4.4858    2.6811   -0.9631 C   0  0  0  0  0  0  0  0  0  0  0  0
    4.6101    2.9429   -2.1726 O   0  0  0  0  0  0  0  0  0  0  0  0
    1.1969   -2.4311   -0.1430 H   0  0  0  0  0  0  0  0  0  0  0  0
    1.0430   -1.4930    1.2371 H   0  0  0  0  0  0  0  0  0  0  0  0
   -1.0458    2.9078    0.3282 H   0  0  0  0  0  0  0  0  0  0  0  0
   -0.5177    1.8692   -0.7266 H   0  0  0  0  0  0  0  0  0  0  0  0
   -2.2301    2.1352   -1.4905 H   0  0  0  0  0  0  0  0  0  0  0  0
   -1.2727    1.5239   -2.3201 H   0  0  0  0  0  0  0  0  0  0  0  0
    3.2667   -1.5594   -0.2143 H   0  0  0  0  0  0  0  0  0  0  0  0
    2.3748   -0.7507   -1.4402 H   0  0  0  0  0  0  0  0  0  0  0  0
    4.6449    2.0137    1.8464 H   0  0  0  0  0  0  0  0  0  0  0  0
    4.2285    0.5660    2.1234 H   0  0  0  0  0  0  0  0  0  0  0  0
   -3.2583    1.5071    0.7169 H   0  0  0  0  0  0  0  0  0  0  0  0
   -2.2395    0.7097    1.7466 H   0  0  0  0  0  0  0  0  0  0  0  0
   -2.9358   -2.0053   -2.2546 H   0  0  0  0  0  0  0  0  0  0  0  0
   -2.0416   -0.7705   -2.4529 H   0  0  0  0  0  0  0  0  0  0  0  0
   -4.2571    1.8805   -2.4470 H   0  0  0  0  0  0  0  0  0  0  0  0
   -4.1412    1.5235   -0.8067 H   0  0  0  0  0  0  0  0  0  0  0  0
    5.9211    0.9817    0.0795 H   0  0  0  0  0  0  0  0  0  0  0  0
    4.8726   -0.3842   -0.2454 H   0  0  0  0  0  0  0  0  0  0  0  0
   -1.3360   -1.8004    1.3917 H   0  0  0  0  0  0  0  0  0  0  0  0
   -2.1467   -2.7066    0.0630 H   0  0  0  0  0  0  0  0  0  0  0  0
   -0.5299   -2.6439    0.1133 H   0  0  0  0  0  0  0  0  0  0  0  0
    2.9968   -0.6638    2.5750 H   0  0  0  0  0  0  0  0  0  0  0  0
    2.3895    1.0461    2.7614 H   0  0  0  0  0  0  0  0  0  0  0  0
    1.3436   -0.2109    2.4348 H   0  0  0  0  0  0  0  0  0  0  0  0
    3.2814    1.1915   -1.5592 H   0  0  0  0  0  0  0  0  0  0  0  0
    6.3266    3.5320   -0.2581 H   0  0  0  0  0  0  0  0  0  0  0  0
    4.9077    4.6124   -0.1583 H   0  0  0  0  0  0  0  0  0  0  0  0
    5.1776    3.4037    1.0412 H   0  0  0  0  0  0  0  0  0  0  0  0
  1  5  1  0  0  0  0
  1 28  1  0  0  0  0
  1 29  1  0  0  0  0
  2  7  1  0  0  0  0
  2 30  1  0  0  0  0
  2 31  1  0  0  0  0
  3  8  1  0  0  0  0
  3  7  1  0  0  0  0
  3 13  1  6  0  0  0
  4  9  1  0  0  0  0
  4 32  1  0  0  0  0
  4 33  1  0  0  0  0
  5 22  1  0  0  0  0
  5 34  1  0  0  0  0
  5 35  1  0  0  0  0
  6 10  1  0  0  0  0
  6 36  1  0  0  0  0
  6 37  1  0  0  0  0
  7 38  1  0  0  0  0
  7 39  1  0  0  0  0
  8 11  1  0  0  0  0
  8 40  1  0  0  0  0
  8 41  1  0  0  0  0
  9 11  1  0  0  0  0
  9 42  1  0  0  0  0
  9 43  1  0  0  0  0
 10 44  1  0  0  0  0
 10 45  1  0  0  0  0
 11 12  2  0  0  0  0
 14 18  1  0  0  0  0
 14 20  1  0  0  0  0
 14  1  1  0  0  0  0
 14 15  1  1  0  0  0
 16 22  1  0  0  0  0
 16  6  1  0  0  0  0
 16 17  1  1  0  0  0
 18 16  1  0  0  0  0
 18  2  1  0  0  0  0
 18 19  1  6  0  0  0
 20  3  1  0  0  0  0
 20  4  1  0  0  0  0
 20 21  1  1  0  0  0
 21 46  1  0  0  0  0
 21 47  1  0  0  0  0
 21 48  1  0  0  0  0
 22 24  1  0  0  0  0
 22 23  1  6  0  0  0
 23 49  1  0  0  0  0
 23 50  1  0  0  0  0
 23 51  1  0  0  0  0
 24 10  1  0  0  0  0
 24 26  1  0  0  0  0
 24 52  1  6  0  0  0
 25 53  1  0  0  0  0
 25 54  1  0  0  0  0
 25 55  1  0  0  0  0
 26 25  1  0  0  0  0
 26 27  2  0  0  0  0
M  END
>  <DRUGBANK_ID>
DB07557

>  <COMMON_NAME>
3,20-Pregnanedione

>  <CAS_NUMBER>
128-23-4

>  <UNII>
105J2Q45A0

>  <SYNONYMS>
5beta-pregnane-3,20-dione; 5Î²-pregnane-3,20-dione

$$$$
