
 OpenBabel10282417213D

136138  0  0  0  0  0  0  0  0999 V2000
    4.6292   -2.8761    3.2559 C   0  0  0  0  0  0  0  0  0  0  0  0
    4.3570    0.2992    2.7010 O   0  0  0  0  0  0  0  0  0  0  0  0
    5.7402   -0.7983    2.9335 C   0  0  2  0  0  0  0  0  0  0  0  0
    4.9696   -1.3032    1.5801 C   0  0  2  0  0  0  0  0  0  0  0  0
    7.1169    0.0841    2.4183 C   0  0  2  0  0  0  0  0  0  0  0  0
    6.4050   -0.8880    3.2069 C   0  0  1  0  0  0  0  0  0  0  0  0
    3.5053   -4.0504    3.6671 C   0  0  0  0  0  0  0  0  0  0  0  0
    2.5253   -4.2966    4.8309 C   0  0  0  0  0  0  0  0  0  0  0  0
    7.0093   -2.9654    1.5500 C   0  0  0  0  0  0  0  0  0  0  0  0
    2.4910   -3.0926    5.3917 C   0  0  0  0  0  0  0  0  0  0  0  0
    1.9153   -2.3870    6.4397 C   0  0  0  0  0  0  0  0  0  0  0  0
    1.9644   -1.0887    6.7874 O   0  0  0  0  0  0  0  0  0  0  0  0
    5.9927   -3.2423    4.8635 C   0  0  0  0  0  0  0  0  0  0  0  0
    5.1628   -2.7443    6.1658 C   0  0  0  0  0  0  0  0  0  0  0  0
    2.7373   -0.0149    6.3802 C   0  0  1  0  0  0  0  0  0  0  0  0
    4.6603   -0.7460    6.6616 C   0  0  1  0  0  0  0  0  0  0  0  0
    6.1676   -4.3625    3.8655 C   0  0  0  0  0  0  0  0  0  0  0  0
    6.4597   -4.3488    2.5178 C   0  0  0  0  0  0  0  0  0  0  0  0
    6.9943   -3.3846    1.4947 C   0  0  0  0  0  0  0  0  0  0  0  0
    5.7231   -1.9053    0.6651 C   0  0  1  0  0  0  0  0  0  0  0  0
    1.3054   -3.1557    7.1411 O   0  0  0  0  0  0  0  0  0  0  0  0
    3.1822   -2.2913    4.6420 O   0  0  0  0  0  0  0  0  0  0  0  0
    3.5102   -0.4016    4.4495 C   0  0  0  0  0  0  0  0  0  0  0  0
    3.6743   -4.2660    2.3190 C   0  0  0  0  0  0  0  0  0  0  0  0
    5.5166    0.6186    1.1192 C   0  0  0  0  0  0  0  0  0  0  0  0
    7.9126    0.8348    3.2404 O   0  0  0  0  0  0  0  0  0  0  0  0
    5.9639    0.1065    4.4800 C   0  0  0  0  0  0  0  0  0  0  0  0
    5.4504   -1.1278    5.0316 C   0  0  0  0  0  0  0  0  0  0  0  0
    4.4276   -2.6773   -0.6339 C   0  0  0  0  0  0  0  0  0  0  0  0
    1.6716    0.2025    4.7233 C   0  0  2  0  0  0  0  0  0  0  0  0
    2.0403   -1.1883    3.6314 C   0  0  2  0  0  0  0  0  0  0  0  0
    2.5448   -0.6403    2.5877 C   0  0  1  0  0  0  0  0  0  0  0  0
    1.9719   -2.0219    1.5627 C   0  0  2  0  0  0  0  0  0  0  0  0
    2.3231    1.5170    4.2387 C   0  0  0  0  0  0  0  0  0  0  0  0
    1.2177   -2.2003    3.6864 O   0  0  0  0  0  0  0  0  0  0  0  0
    2.1495    0.9181    2.3601 C   0  0  0  0  0  0  0  0  0  0  0  0
    1.6361   -0.9714   -0.1133 O   0  0  0  0  0  0  0  0  0  0  0  0
    0.8366   -2.8572    1.7566 C   0  0  0  0  0  0  0  0  0  0  0  0
    0.9469    0.5870   -0.3788 C   0  0  1  0  0  0  0  0  0  0  0  0
    0.0588   -1.5616    1.5850 C   0  0  2  0  0  0  0  0  0  0  0  0
    0.0973   -0.5800    0.1159 C   0  0  2  0  0  0  0  0  0  0  0  0
    1.2575    1.8768    0.1877 C   0  0  0  0  0  0  0  0  0  0  0  0
    0.6923   -0.4547    1.9601 O   0  0  0  0  0  0  0  0  0  0  0  0
   -0.0895   -2.4112   -1.4316 C   0  0  0  0  0  0  0  0  0  0  0  0
    2.1964    2.6627   -0.3234 C   0  0  0  0  0  0  0  0  0  0  0  0
    2.7032    3.5487    0.7055 C   0  0  0  0  0  0  0  0  0  0  0  0
    3.5499   -3.0498    1.0624 O   0  0  0  0  0  0  0  0  0  0  0  0
    5.4080   -0.6531    7.6984 O   0  0  0  0  0  0  0  0  0  0  0  0
    4.4305    0.2296    8.0536 C   0  0  0  0  0  0  0  0  0  0  0  0
    2.3815   -0.0552    0.9355 C   0  0  2  0  0  0  0  0  0  0  0  0
    2.8837    0.3089   -0.8024 O   0  0  0  0  0  0  0  0  0  0  0  0
    3.2843   -1.1553    0.6233 C   0  0  0  0  0  0  0  0  0  0  0  0
    1.9777   -0.7998   -1.9115 C   0  0  1  0  0  0  0  0  0  0  0  0
    2.5289   -2.5327   -0.4680 C   0  0  2  0  0  0  0  0  0  0  0  0
    2.8205   -1.9801   -1.8202 C   0  0  2  0  0  0  0  0  0  0  0  0
    0.1580   -0.8285   -1.5308 C   0  0  0  0  0  0  0  0  0  0  0  0
    4.4911   -1.1924   -1.8811 O   0  0  0  0  0  0  0  0  0  0  0  0
    1.3415   -2.7767   -0.1810 O   0  0  0  0  0  0  0  0  0  0  0  0
    5.9903   -2.0473   -1.3273 C   0  0  0  0  0  0  0  0  0  0  0  0
    5.7530   -3.6829   -0.2866 N   0  0  0  0  0  0  0  0  0  0  0  0
    6.9202   -1.2283   -1.2211 O   0  0  0  0  0  0  0  0  0  0  0  0
    2.9653    1.0995    6.2533 H   0  0  0  0  0  0  0  0  0  0  0  0
    4.2068   -4.2593    3.7593 H   0  0  0  0  0  0  0  0  0  0  0  0
    4.8757    0.1334    2.1035 H   0  0  0  0  0  0  0  0  0  0  0  0
    6.0149    0.5776    2.4362 H   0  0  0  0  0  0  0  0  0  0  0  0
    4.6645   -1.8950    2.1777 H   0  0  0  0  0  0  0  0  0  0  0  0
    7.4414   -0.1267    1.4274 H   0  0  0  0  0  0  0  0  0  0  0  0
    7.2168   -1.5145    3.5830 H   0  0  0  0  0  0  0  0  0  0  0  0
    1.9657   -5.0670    5.3264 H   0  0  0  0  0  0  0  0  0  0  0  0
    8.4715   -3.4246    1.2238 H   0  0  0  0  0  0  0  0  0  0  0  0
    7.1224   -2.6418    0.1049 H   0  0  0  0  0  0  0  0  0  0  0  0
    6.9184   -1.8684    1.9503 H   0  0  0  0  0  0  0  0  0  0  0  0
    6.0465   -2.5278    3.9892 H   0  0  0  0  0  0  0  0  0  0  0  0
    4.2321   -3.2949    6.1236 H   0  0  0  0  0  0  0  0  0  0  0  0
    5.0502    0.3860    5.9906 H   0  0  0  0  0  0  0  0  0  0  0  0
    5.3263   -4.9584    4.1762 H   0  0  0  0  0  0  0  0  0  0  0  0
    8.0615   -2.6310    2.4875 H   0  0  0  0  0  0  0  0  0  0  0  0
    7.4173   -4.0970    0.3413 H   0  0  0  0  0  0  0  0  0  0  0  0
    6.2772   -0.9721    0.4979 H   0  0  0  0  0  0  0  0  0  0  0  0
    2.9070   -0.8190    5.0454 H   0  0  0  0  0  0  0  0  0  0  0  0
    3.9279    0.0669    5.1702 H   0  0  0  0  0  0  0  0  0  0  0  0
    4.3099   -0.4070    3.9707 H   0  0  0  0  0  0  0  0  0  0  0  0
    4.5931   -4.8562    2.1584 H   0  0  0  0  0  0  0  0  0  0  0  0
    3.0628   -4.7735    1.7523 H   0  0  0  0  0  0  0  0  0  0  0  0
    3.0395   -3.1276    2.6657 H   0  0  0  0  0  0  0  0  0  0  0  0
    4.4214    0.7012    0.8525 H   0  0  0  0  0  0  0  0  0  0  0  0
    4.6193    1.7488    0.9642 H   0  0  0  0  0  0  0  0  0  0  0  0
    5.3895    0.4214    0.0320 H   0  0  0  0  0  0  0  0  0  0  0  0
    7.4297    1.2670    3.9627 H   0  0  0  0  0  0  0  0  0  0  0  0
    6.6517    0.3710    5.1735 H   0  0  0  0  0  0  0  0  0  0  0  0
    5.2971    0.9653    4.1788 H   0  0  0  0  0  0  0  0  0  0  0  0
    6.2651   -1.4664    5.5903 H   0  0  0  0  0  0  0  0  0  0  0  0
    4.1166   -1.5732    5.6504 H   0  0  0  0  0  0  0  0  0  0  0  0
    4.5739   -1.6320    4.8285 H   0  0  0  0  0  0  0  0  0  0  0  0
    3.9362   -3.6105   -0.5813 H   0  0  0  0  0  0  0  0  0  0  0  0
    4.0601   -1.8286   -0.5080 H   0  0  0  0  0  0  0  0  0  0  0  0
    4.6847   -3.1361   -1.6036 H   0  0  0  0  0  0  0  0  0  0  0  0
    0.7566   -0.3301    4.5674 H   0  0  0  0  0  0  0  0  0  0  0  0
    3.3671   -1.5361    3.3188 H   0  0  0  0  0  0  0  0  0  0  0  0
    3.4753   -0.5808    2.0869 H   0  0  0  0  0  0  0  0  0  0  0  0
    1.4817    1.9170    3.4993 H   0  0  0  0  0  0  0  0  0  0  0  0
    2.1501    2.4477    4.5732 H   0  0  0  0  0  0  0  0  0  0  0  0
    3.5443    1.5770    3.8357 H   0  0  0  0  0  0  0  0  0  0  0  0
    1.6164   -3.0494    3.8680 H   0  0  0  0  0  0  0  0  0  0  0  0
    2.7485    1.9206    2.5793 H   0  0  0  0  0  0  0  0  0  0  0  0
    2.7518    1.3111    0.8544 H   0  0  0  0  0  0  0  0  0  0  0  0
    1.1355    0.9920    2.2758 H   0  0  0  0  0  0  0  0  0  0  0  0
    0.9309   -3.7267    1.1210 H   0  0  0  0  0  0  0  0  0  0  0  0
    1.2099   -3.5154    2.4740 H   0  0  0  0  0  0  0  0  0  0  0  0
    1.3088    0.8427   -1.4523 H   0  0  0  0  0  0  0  0  0  0  0  0
   -0.9192   -1.9240    1.5849 H   0  0  0  0  0  0  0  0  0  0  0  0
   -0.6458    0.1942    0.2848 H   0  0  0  0  0  0  0  0  0  0  0  0
    1.5147    1.9283    1.1729 H   0  0  0  0  0  0  0  0  0  0  0  0
    0.7095   -2.3891   -2.2541 H   0  0  0  0  0  0  0  0  0  0  0  0
    0.0284   -3.3965   -0.8910 H   0  0  0  0  0  0  0  0  0  0  0  0
   -1.1116   -2.1906   -1.7466 H   0  0  0  0  0  0  0  0  0  0  0  0
    2.3518    2.4784   -1.3524 H   0  0  0  0  0  0  0  0  0  0  0  0
    3.6889    3.8515    0.4739 H   0  0  0  0  0  0  0  0  0  0  0  0
    1.8755    4.2201    0.7005 H   0  0  0  0  0  0  0  0  0  0  0  0
    2.7295    3.1952    1.7250 H   0  0  0  0  0  0  0  0  0  0  0  0
    3.4744   -3.9897    0.6488 H   0  0  0  0  0  0  0  0  0  0  0  0
    4.4390    1.1873    7.4767 H   0  0  0  0  0  0  0  0  0  0  0  0
    3.4228   -0.2197    8.0592 H   0  0  0  0  0  0  0  0  0  0  0  0
    4.8116    0.1997    8.9827 H   0  0  0  0  0  0  0  0  0  0  0  0
    3.4183    0.9087    1.7103 H   0  0  0  0  0  0  0  0  0  0  0  0
    4.1526   -0.6655    0.2999 H   0  0  0  0  0  0  0  0  0  0  0  0
    3.4496   -1.8069    1.7703 H   0  0  0  0  0  0  0  0  0  0  0  0
    2.0011   -0.3445   -2.8051 H   0  0  0  0  0  0  0  0  0  0  0  0
    2.3560   -3.4245    0.1396 H   0  0  0  0  0  0  0  0  0  0  0  0
    2.6596   -3.0650   -1.9091 H   0  0  0  0  0  0  0  0  0  0  0  0
   -0.6622   -0.1623   -1.4876 H   0  0  0  0  0  0  0  0  0  0  0  0
    0.0036   -1.8709   -0.2098 H   0  0  0  0  0  0  0  0  0  0  0  0
   -0.6156   -1.6966   -0.3263 H   0  0  0  0  0  0  0  0  0  0  0  0
    1.2787   -1.8835    0.2212 H   0  0  0  0  0  0  0  0  0  0  0  0
    5.8284   -4.3110    0.5432 H   0  0  0  0  0  0  0  0  0  0  0  0
    4.9456   -3.4630    0.7177 H   0  0  0  0  0  0  0  0  0  0  0  0
  1 63  1  0  0  0  0
  2 64  1  0  0  0  0
  3  1  1  0  0  0  0
  3 65  1  6  0  0  0
  3 25  1  0  0  0  0
  4  2  1  0  0  0  0
  4 66  1  1  0  0  0
  5  3  1  0  0  0  0
  5 26  1  0  0  0  0
  5 67  1  6  0  0  0
  6  4  1  0  0  0  0
  6  5  1  0  0  0  0
  6 27  1  0  0  0  0
  6 68  1  1  0  0  0
  7  1  2  0  0  0  0
  7 24  1  0  0  0  0
  8  7  1  0  0  0  0
  8 69  1  0  0  0  0
  9 70  1  0  0  0  0
  9 71  1  0  0  0  0
  9 72  1  0  0  0  0
 10  8  2  0  0  0  0
 10 22  1  0  0  0  0
 11 10  1  0  0  0  0
 11 21  2  0  0  0  0
 12 11  1  0  0  0  0
 13 73  1  0  0  0  0
 14 13  2  0  0  0  0
 14 74  1  0  0  0  0
 15 12  1  0  0  0  0
 15 62  1  1  0  0  0
 16 14  1  0  0  0  0
 16 15  1  0  0  0  0
 16 75  1  6  0  0  0
 16 48  1  0  0  0  0
 17 13  1  0  0  0  0
 17 76  1  0  0  0  0
 18 17  2  0  0  0  0
 18  9  1  0  0  0  0
 19 18  1  0  0  0  0
 19 77  1  0  0  0  0
 19 78  1  0  0  0  0
 20  4  1  0  0  0  0
 20 19  1  0  0  0  0
 20 79  1  6  0  0  0
 20 29  1  0  0  0  0
 22 23  1  0  0  0  0
 23 80  1  0  0  0  0
 23 81  1  0  0  0  0
 23 82  1  0  0  0  0
 24 83  1  0  0  0  0
 24 84  1  0  0  0  0
 24 85  1  0  0  0  0
 25 86  1  0  0  0  0
 25 87  1  0  0  0  0
 25 88  1  0  0  0  0
 26 89  1  0  0  0  0
 27 28  1  0  0  0  0
 27 90  1  0  0  0  0
 27 91  1  0  0  0  0
 28 92  1  0  0  0  0
 28 93  1  0  0  0  0
 28 94  1  0  0  0  0
 29 95  1  0  0  0  0
 29 96  1  0  0  0  0
 29 97  1  0  0  0  0
 30 34  1  0  0  0  0
 30 98  1  1  0  0  0
 30 31  1  0  0  0  0
 30 15  1  0  0  0  0
 31 99  1  1  0  0  0
 31 35  1  0  0  0  0
 31 32  1  0  0  0  0
 32 33  1  0  0  0  0
 32 36  1  0  0  0  0
 32100  1  1  0  0  0
 33 47  1  6  0  0  0
 34101  1  0  0  0  0
 34102  1  0  0  0  0
 34103  1  0  0  0  0
 35104  1  0  0  0  0
 36105  1  0  0  0  0
 36106  1  0  0  0  0
 36107  1  0  0  0  0
 37 33  1  0  0  0  0
 38 33  1  0  0  0  0
 38108  1  0  0  0  0
 38109  1  0  0  0  0
 39 37  1  0  0  0  0
 39 42  1  0  0  0  0
 39110  1  6  0  0  0
 40 38  1  0  0  0  0
 40 43  1  0  0  0  0
 40111  1  1  0  0  0
 41 39  1  0  0  0  0
 41 40  1  0  0  0  0
 41112  1  6  0  0  0
 41 44  1  0  0  0  0
 42 45  2  0  0  0  0
 42113  1  0  0  0  0
 44114  1  0  0  0  0
 44115  1  0  0  0  0
 44116  1  0  0  0  0
 45 46  1  0  0  0  0
 45117  1  0  0  0  0
 46118  1  0  0  0  0
 46119  1  0  0  0  0
 46120  1  0  0  0  0
 47121  1  0  0  0  0
 48 49  1  0  0  0  0
 49122  1  0  0  0  0
 49123  1  0  0  0  0
 49124  1  0  0  0  0
 50 43  1  0  0  0  0
 50125  1  1  0  0  0
 51 50  1  0  0  0  0
 52 50  1  0  0  0  0
 52126  1  0  0  0  0
 52127  1  0  0  0  0
 53 51  1  0  0  0  0
 53 56  1  0  0  0  0
 53128  1  6  0  0  0
 54 52  1  0  0  0  0
 54 58  1  0  0  0  0
 54129  1  1  0  0  0
 55 53  1  0  0  0  0
 55 54  1  0  0  0  0
 55130  1  6  0  0  0
 55 57  1  0  0  0  0
 56131  1  0  0  0  0
 56132  1  0  0  0  0
 56133  1  0  0  0  0
 57 59  1  0  0  0  0
 58134  1  0  0  0  0
 59 60  1  0  0  0  0
 59 61  2  0  0  0  0
 60135  1  0  0  0  0
 60136  1  0  0  0  0
M  END
>  <DRUGBANK_ID>
DB14062

>  <COMMON_NAME>
Concanamycin A

>  <CAS_NUMBER>
80890-47-7

>  <SYNONYMS>
Concanamycin A

$$$$
