
 OpenBabel10282417203D

 57 57  0  0  1  0  0  0  0  0999 V2000
   -0.9432    1.2875    0.1279 C   0  0  0  0  0  0  0  0  0  0  0  0
   -1.6829    0.0452   -0.0806 C   0  0  0  0  0  0  0  0  0  0  0  0
   -1.0551   -1.1328   -0.4550 C   0  0  0  0  0  0  0  0  0  0  0  0
    0.2795   -1.0506   -0.5717 C   0  0  0  0  0  0  0  0  0  0  0  0
    0.8144    0.2081   -0.7171 C   0  0  0  0  0  0  0  0  0  0  0  0
    0.4033    1.3724   -0.1859 C   0  0  0  0  0  0  0  0  0  0  0  0
    1.3441    2.4771   -0.2013 N   0  0  0  0  0  0  0  0  0  0  0  0
    2.7367    2.6386   -0.4012 C   0  0  0  0  0  0  0  0  0  0  0  0
    3.2088    3.7774   -0.4775 O   0  0  0  0  0  0  0  0  0  0  0  0
    3.6615    1.6317   -0.5034 N   0  0  0  0  0  0  0  0  0  0  0  0
    3.4581    0.2941   -0.1529 C   0  0  0  0  0  0  0  0  0  0  0  0
    3.4579   -0.6744   -1.3783 C   0  0  0  0  0  0  0  0  0  0  0  0
    4.9061   -0.9989   -1.6073 C   0  0  0  0  0  0  0  0  0  0  0  0
    5.5052   -1.7900   -0.4250 C   0  0  0  0  0  0  0  0  0  0  0  0
    4.8682   -3.1656   -0.2798 C   0  0  1  0  0  0  0  0  0  0  0  0
    5.0252   -4.1028   -1.4658 C   0  0  0  0  0  0  0  0  0  0  0  0
    5.5514   -5.1988   -1.4593 O   0  0  0  0  0  0  0  0  0  0  0  0
    4.4211   -3.6120   -2.5793 O   0  0  0  0  0  0  0  0  0  0  0  0
    5.0269   -3.7415    1.0641 N   0  0  0  0  0  0  0  0  0  0  0  0
    4.2055   -4.1319    2.0615 C   0  0  0  0  0  0  0  0  0  0  0  0
    4.6861   -4.6403    3.0747 O   0  0  0  0  0  0  0  0  0  0  0  0
    2.8716   -4.0132    2.0362 N   0  0  0  0  0  0  0  0  0  0  0  0
    2.0224   -3.2587    1.1970 C   0  0  1  0  0  0  0  0  0  0  0  0
    1.0333   -4.0712    0.4060 C   0  0  0  0  0  0  0  0  0  0  0  0
   -0.1519   -4.3745    1.2865 C   0  0  0  0  0  0  0  0  0  0  0  0
   -1.0832   -3.2823    1.8204 C   0  0  0  0  0  0  0  0  0  0  0  0
   -2.2291   -3.0383    1.5040 O   0  0  0  0  0  0  0  0  0  0  0  0
   -0.5918   -2.5061    2.7605 O   0  0  0  0  0  0  0  0  0  0  0  0
    1.8650   -1.9236    1.8411 C   0  0  0  0  0  0  0  0  0  0  0  0
    2.3248   -1.0009    1.3062 O   0  0  0  0  0  0  0  0  0  0  0  0
    1.2584   -1.5300    2.9268 O   0  0  0  0  0  0  0  0  0  0  0  0
   -1.9956   -2.7714   -1.4516 I   0  0  0  0  0  0  0  0  0  0  0  0
   -1.4973    2.1786    0.3866 H   0  0  0  0  0  0  0  0  0  0  0  0
   -2.7630    0.0194   -0.0608 H   0  0  0  0  0  0  0  0  0  0  0  0
    0.9466   -1.8653   -0.7298 H   0  0  0  0  0  0  0  0  0  0  0  0
    1.6488    0.3453   -1.3405 H   0  0  0  0  0  0  0  0  0  0  0  0
    0.9070    3.3859   -0.1244 H   0  0  0  0  0  0  0  0  0  0  0  0
    4.6434    1.8694   -0.5154 H   0  0  0  0  0  0  0  0  0  0  0  0
    4.0876   -0.0478    0.6672 H   0  0  0  0  0  0  0  0  0  0  0  0
    2.5813    0.5230    0.4106 H   0  0  0  0  0  0  0  0  0  0  0  0
    2.8577   -1.5919   -1.2859 H   0  0  0  0  0  0  0  0  0  0  0  0
    3.0479   -0.2377   -2.3058 H   0  0  0  0  0  0  0  0  0  0  0  0
    5.0193   -1.5173   -2.5573 H   0  0  0  0  0  0  0  0  0  0  0  0
    5.4026   -0.0394   -1.7387 H   0  0  0  0  0  0  0  0  0  0  0  0
    6.5820   -1.8454   -0.5274 H   0  0  0  0  0  0  0  0  0  0  0  0
    5.3596   -1.2634    0.5240 H   0  0  0  0  0  0  0  0  0  0  0  0
    3.8512   -2.9722   -0.4186 H   0  0  0  0  0  0  0  0  0  0  0  0
    4.6534   -4.1699   -3.3469 H   0  0  0  0  0  0  0  0  0  0  0  0
    5.9772   -4.0280    1.2612 H   0  0  0  0  0  0  0  0  0  0  0  0
    2.4350   -4.2080    2.9290 H   0  0  0  0  0  0  0  0  0  0  0  0
    2.5429   -2.9109    0.3512 H   0  0  0  0  0  0  0  0  0  0  0  0
    0.7811   -3.6551   -0.5783 H   0  0  0  0  0  0  0  0  0  0  0  0
    1.5464   -4.9884    0.0477 H   0  0  0  0  0  0  0  0  0  0  0  0
   -0.7756   -5.0625    0.7231 H   0  0  0  0  0  0  0  0  0  0  0  0
    0.2633   -4.9000    2.1450 H   0  0  0  0  0  0  0  0  0  0  0  0
   -0.9951   -1.6178    2.6362 H   0  0  0  0  0  0  0  0  0  0  0  0
    0.9609   -0.6639    2.5379 H   0  0  0  0  0  0  0  0  0  0  0  0
  1  2  2  0  0  0  0
  1  6  1  0  0  0  0
  1 33  1  0  0  0  0
  2  3  1  0  0  0  0
  2 34  1  0  0  0  0
  3  4  2  0  0  0  0
  3 32  1  0  0  0  0
  4  5  1  0  0  0  0
  4 35  1  0  0  0  0
  5  6  2  0  0  0  0
  5 36  1  0  0  0  0
  6  7  1  0  0  0  0
  7  8  1  0  0  0  0
  7 37  1  0  0  0  0
  8  9  2  0  0  0  0
  8 10  1  0  0  0  0
 10 11  1  0  0  0  0
 10 38  1  0  0  0  0
 11 12  1  0  0  0  0
 11 39  1  0  0  0  0
 11 40  1  0  0  0  0
 12 13  1  0  0  0  0
 12 41  1  0  0  0  0
 12 42  1  0  0  0  0
 13 14  1  0  0  0  0
 13 43  1  0  0  0  0
 13 44  1  0  0  0  0
 14 15  1  0  0  0  0
 14 45  1  0  0  0  0
 14 46  1  0  0  0  0
 15 16  1  0  0  0  0
 15 19  1  0  0  0  0
 15 47  1  6  0  0  0
 16 17  2  0  0  0  0
 16 18  1  0  0  0  0
 18 48  1  0  0  0  0
 19 20  1  0  0  0  0
 19 49  1  0  0  0  0
 20 21  2  0  0  0  0
 20 22  1  0  0  0  0
 22 50  1  0  0  0  0
 23 22  1  0  0  0  0
 23 24  1  0  0  0  0
 23 29  1  0  0  0  0
 23 51  1  6  0  0  0
 24 25  1  0  0  0  0
 24 52  1  0  0  0  0
 24 53  1  0  0  0  0
 25 26  1  0  0  0  0
 25 54  1  0  0  0  0
 25 55  1  0  0  0  0
 26 27  2  0  0  0  0
 26 28  1  0  0  0  0
 28 56  1  0  0  0  0
 29 30  2  0  0  0  0
 29 31  1  0  0  0  0
 31 57  1  0  0  0  0
M  ISO  1  32 123
M  END
>  <DRUGBANK_ID>
DB12994

>  <COMMON_NAME>
MIP-1095 I-123

>  <CAS_NUMBER>
949575-25-1

>  <UNII>
HD4940602J

$$$$
