
 OpenBabel10282417153D

 39 41  0  0  1  0  0  0  0  0999 V2000
   -1.3216   -7.3406    2.2728 C   0  0  0  0  0  0  0  0  0  0  0  0
   -0.5250   -8.5339    2.3287 C   0  0  0  0  0  0  0  0  0  0  0  0
   -1.4725   -6.3395    3.3469 C   0  0  0  0  0  0  0  0  0  0  0  0
   -0.7390   -9.6489    3.1111 C   0  0  0  0  0  0  0  0  0  0  0  0
   -1.7586   -9.6560    4.2160 C   0  0  0  0  0  0  0  0  0  0  0  0
   -2.0225   -6.7404    4.5813 C   0  0  0  0  0  0  0  0  0  0  0  0
   -1.6363   -8.2938    5.3707 S   0  0  0  0  0  0  0  0  0  0  0  0
    0.5684   -8.8162    1.0397 S   0  0  0  0  0  0  0  0  0  0  0  0
    0.7732  -10.4345    1.4674 C   0  0  0  0  0  0  0  0  0  0  0  0
    0.0118  -10.7697    2.5699 C   0  0  0  0  0  0  0  0  0  0  0  0
   -2.8445   -5.8545    5.3012 C   0  0  0  0  0  0  0  0  0  0  0  0
   -3.0765   -4.5669    4.8218 C   0  0  0  0  0  0  0  0  0  0  0  0
   -2.4463   -4.1246    3.6458 C   0  0  0  0  0  0  0  0  0  0  0  0
   -1.6211   -4.9854    2.8899 C   0  0  0  0  0  0  0  0  0  0  0  0
   -2.0443   -7.1249    1.2841 O   0  0  0  0  0  0  0  0  0  0  0  0
   -1.0763   -4.4784    1.6309 N   0  0  0  0  0  0  0  0  0  0  0  0
   -0.0561   -5.0979    0.9117 C   0  0  0  0  0  0  0  0  0  0  0  0
    0.6262   -5.9960    1.4133 O   0  0  0  0  0  0  0  0  0  0  0  0
    0.3663   -4.6735   -0.5095 C   0  0  2  0  0  0  0  0  0  0  0  0
    0.8375   -3.2377   -0.3535 C   0  0  0  0  0  0  0  0  0  0  0  0
   -0.6267   -4.9614   -1.6311 C   0  0  0  0  0  0  0  0  0  0  0  0
    1.5156   -5.4983   -0.8947 O   0  0  0  0  0  0  0  0  0  0  0  0
   -2.6942   -8.5058    6.3533 O   0  0  0  0  0  0  0  0  0  0  0  0
   -0.2674   -8.1643    5.8214 O   0  0  0  0  0  0  0  0  0  0  0  0
    1.6946   -2.8621   -1.3272 F   0  0  0  0  0  0  0  0  0  0  0  0
   -0.2037   -2.3710   -0.3660 F   0  0  0  0  0  0  0  0  0  0  0  0
    1.4775   -3.0574    0.8296 F   0  0  0  0  0  0  0  0  0  0  0  0
   -2.7791   -9.6405    3.8143 H   0  0  0  0  0  0  0  0  0  0  0  0
   -1.6609  -10.5628    4.8245 H   0  0  0  0  0  0  0  0  0  0  0  0
    1.4135  -11.0438    0.8427 H   0  0  0  0  0  0  0  0  0  0  0  0
   -0.0217  -11.7937    2.9217 H   0  0  0  0  0  0  0  0  0  0  0  0
   -3.3289   -6.1611    6.2315 H   0  0  0  0  0  0  0  0  0  0  0  0
   -3.7469   -3.9097    5.3792 H   0  0  0  0  0  0  0  0  0  0  0  0
   -2.6619   -3.1082    3.3200 H   0  0  0  0  0  0  0  0  0  0  0  0
   -1.3729   -3.5457    1.3591 H   0  0  0  0  0  0  0  0  0  0  0  0
   -0.2023   -4.6771   -2.6054 H   0  0  0  0  0  0  0  0  0  0  0  0
   -0.8009   -6.0456   -1.7091 H   0  0  0  0  0  0  0  0  0  0  0  0
   -1.5972   -4.4783   -1.5101 H   0  0  0  0  0  0  0  0  0  0  0  0
    1.3565   -6.3804   -0.5008 H   0  0  0  0  0  0  0  0  0  0  0  0
  1  2  1  0  0  0  0
  1  3  1  0  0  0  0
  1 15  2  0  0  0  0
  2  4  2  0  0  0  0
  2  8  1  0  0  0  0
  3  6  2  0  0  0  0
  4  5  1  0  0  0  0
  4 10  1  0  0  0  0
  5  7  1  0  0  0  0
  5 28  1  0  0  0  0
  5 29  1  0  0  0  0
  6 11  1  0  0  0  0
  6  7  1  0  0  0  0
  7 23  2  0  0  0  0
  7 24  2  0  0  0  0
  8  9  1  0  0  0  0
  9 10  2  0  0  0  0
  9 30  1  0  0  0  0
 10 31  1  0  0  0  0
 11 12  2  0  0  0  0
 11 32  1  0  0  0  0
 12 13  1  0  0  0  0
 12 33  1  0  0  0  0
 13 14  2  0  0  0  0
 13 34  1  0  0  0  0
 14  3  1  0  0  0  0
 14 16  1  0  0  0  0
 16 17  1  0  0  0  0
 16 35  1  0  0  0  0
 17 18  2  0  0  0  0
 19 21  1  0  0  0  0
 19 22  1  6  0  0  0
 19 20  1  0  0  0  0
 19 17  1  0  0  0  0
 20 25  1  0  0  0  0
 20 26  1  0  0  0  0
 20 27  1  0  0  0  0
 21 36  1  0  0  0  0
 21 37  1  0  0  0  0
 21 38  1  0  0  0  0
 22 39  1  0  0  0  0
M  END
>  <DRUGBANK_ID>
DB05498

>  <COMMON_NAME>
KW-7158

>  <UNII>
S2T07V1P1G

$$$$
