
 OpenBabel10282417243D

 42 43  0  0  0  0  0  0  0  0999 V2000
    0.7727   -0.1848   -0.2616 C   0  0  0  0  0  0  0  0  0  0  0  0
    0.3371    1.2669   -0.4543 C   0  0  0  0  0  0  0  0  0  0  0  0
    1.0520    2.0293   -1.4900 N   0  0  0  0  0  0  0  0  0  0  0  0
    0.4948    3.3764   -1.6849 C   0  0  0  0  0  0  0  0  0  0  0  0
    0.7560    4.4110   -0.5920 C   0  0  0  0  0  0  0  0  0  0  0  0
    2.5214    1.9795   -1.5027 C   0  0  0  0  0  0  0  0  0  0  0  0
    3.3392    2.6566   -0.3896 C   0  0  0  0  0  0  0  0  0  0  0  0
    2.9297    2.3086    1.0238 C   0  0  0  0  0  0  0  0  0  0  0  0
    3.1148    0.8833    1.2643 N   0  0  0  0  0  0  0  0  0  0  0  0
    3.8760    0.5321    2.3821 C   0  0  0  0  0  0  0  0  0  0  0  0
    5.0278   -0.2191    2.1753 C   0  0  0  0  0  0  0  0  0  0  0  0
    5.8243   -0.4897    3.2661 C   0  0  0  0  0  0  0  0  0  0  0  0
    5.5429   -0.0650    4.5160 N   0  0  0  0  0  0  0  0  0  0  0  0
    4.4196    0.6495    4.7195 C   0  0  0  0  0  0  0  0  0  0  0  0
    4.0966    1.1061    5.9859 C   0  0  0  0  0  0  0  0  0  0  0  0
    2.9508    1.8679    6.2333 C   0  0  0  0  0  0  0  0  0  0  0  0
    2.6041    2.4282    7.8195 Cl  0  0  0  0  0  0  0  0  0  0  0  0
    2.0663    2.1699    5.2101 C   0  0  0  0  0  0  0  0  0  0  0  0
    2.3439    1.6850    3.9488 C   0  0  0  0  0  0  0  0  0  0  0  0
    3.5290    0.9670    3.6705 C   0  0  0  0  0  0  0  0  0  0  0  0
    0.2725   -0.8473   -0.9681 H   0  0  0  0  0  0  0  0  0  0  0  0
    0.5449   -0.5073    0.7617 H   0  0  0  0  0  0  0  0  0  0  0  0
    1.8353   -0.3578   -0.4083 H   0  0  0  0  0  0  0  0  0  0  0  0
   -0.7351    1.2434   -0.6882 H   0  0  0  0  0  0  0  0  0  0  0  0
    0.3604    1.7748    0.5093 H   0  0  0  0  0  0  0  0  0  0  0  0
    0.8639    3.7730   -2.6387 H   0  0  0  0  0  0  0  0  0  0  0  0
   -0.5911    3.2905   -1.8117 H   0  0  0  0  0  0  0  0  0  0  0  0
    1.7814    4.7747   -0.6074 H   0  0  0  0  0  0  0  0  0  0  0  0
    0.1475    5.3036   -0.7472 H   0  0  0  0  0  0  0  0  0  0  0  0
    0.5299    4.0273    0.4054 H   0  0  0  0  0  0  0  0  0  0  0  0
    2.8564    0.9398   -1.5921 H   0  0  0  0  0  0  0  0  0  0  0  0
    2.8614    2.4127   -2.4533 H   0  0  0  0  0  0  0  0  0  0  0  0
    4.3960    2.3966   -0.5148 H   0  0  0  0  0  0  0  0  0  0  0  0
    3.3273    3.7384   -0.5055 H   0  0  0  0  0  0  0  0  0  0  0  0
    3.4801    2.9445    1.7261 H   0  0  0  0  0  0  0  0  0  0  0  0
    1.8916    2.5672    1.2101 H   0  0  0  0  0  0  0  0  0  0  0  0
    3.3888    0.3549    0.4438 H   0  0  0  0  0  0  0  0  0  0  0  0
    5.3119   -0.5652    1.1881 H   0  0  0  0  0  0  0  0  0  0  0  0
    6.7399   -1.0601    3.1490 H   0  0  0  0  0  0  0  0  0  0  0  0
    4.7683    0.8591    6.8057 H   0  0  0  0  0  0  0  0  0  0  0  0
    1.1701    2.7590    5.3758 H   0  0  0  0  0  0  0  0  0  0  0  0
    1.6111    1.8725    3.1664 H   0  0  0  0  0  0  0  0  0  0  0  0
  1  2  1  0  0  0  0
  1 21  1  0  0  0  0
  1 22  1  0  0  0  0
  1 23  1  0  0  0  0
  2  3  1  0  0  0  0
  2 24  1  0  0  0  0
  2 25  1  0  0  0  0
  3  4  1  0  0  0  0
  3  6  1  0  0  0  0
  4  5  1  0  0  0  0
  4 26  1  0  0  0  0
  4 27  1  0  0  0  0
  5 28  1  0  0  0  0
  5 29  1  0  0  0  0
  5 30  1  0  0  0  0
  6  7  1  0  0  0  0
  6 31  1  0  0  0  0
  6 32  1  0  0  0  0
  7  8  1  0  0  0  0
  7 33  1  0  0  0  0
  7 34  1  0  0  0  0
  8  9  1  0  0  0  0
  8 35  1  0  0  0  0
  8 36  1  0  0  0  0
  9 10  1  0  0  0  0
  9 37  1  0  0  0  0
 10 11  2  0  0  0  0
 10 20  1  0  0  0  0
 11 12  1  0  0  0  0
 11 38  1  0  0  0  0
 12 13  2  0  0  0  0
 12 39  1  0  0  0  0
 13 14  1  0  0  0  0
 14 15  2  0  0  0  0
 14 20  1  0  0  0  0
 15 16  1  0  0  0  0
 15 40  1  0  0  0  0
 16 17  1  0  0  0  0
 16 18  2  0  0  0  0
 18 19  1  0  0  0  0
 18 41  1  0  0  0  0
 19 20  2  0  0  0  0
 19 42  1  0  0  0  0
M  END
>  <DRUGBANK_ID>
DB17778

>  <COMMON_NAME>
AQ-13 free base

>  <CAS_NUMBER>
32571-49-6

>  <UNII>
4K7VT5621X

>  <SYNONYMS>
1,3-propanediamine, n'-(7-chloro-4-quinolinyl)-n,n-diethyl-; AQ-13 free base; N'-(7-chloroquinolin-4-yl)-n,n-diethyl-propane-1,3-diamine

$$$$
