ZHZ
 OpenBabel10282417173D

 23 23  0  0  0  0  0  0  0  0999 V2000
    0.9839   -0.1993    0.1735 O   0  0  0  0  0  0  0  0  0  0  0  0
    2.2116   -0.1284    0.1160 C   0  0  0  0  0  0  0  0  0  0  0  0
    2.9506   -1.2716    0.0610 N   0  0  0  0  0  0  0  0  0  0  0  0
    2.9829    1.1813    0.0384 C   0  0  0  0  0  0  0  0  0  0  0  0
    2.6594    2.0182   -1.1816 C   0  0  0  0  0  0  0  0  0  0  0  0
    1.9415    1.4911   -2.2622 C   0  0  0  0  0  0  0  0  0  0  0  0
    1.6277    2.2709   -3.3727 C   0  0  0  0  0  0  0  0  0  0  0  0
    2.0346    3.5990   -3.4366 C   0  0  0  0  0  0  0  0  0  0  0  0
    1.8283    4.4290   -4.5057 O   0  0  0  0  0  0  0  0  0  0  0  0
    1.2615    3.8181   -5.6634 C   0  0  0  0  0  0  0  0  0  0  0  0
    2.7231    4.1496   -2.3528 C   0  0  0  0  0  0  0  0  0  0  0  0
    3.0714    3.3566   -1.2507 C   0  0  0  0  0  0  0  0  0  0  0  0
    3.9588   -1.2893    0.0068 H   0  0  0  0  0  0  0  0  0  0  0  0
    2.4441   -2.1480    0.0468 H   0  0  0  0  0  0  0  0  0  0  0  0
    2.7304    1.7454    0.9448 H   0  0  0  0  0  0  0  0  0  0  0  0
    4.0613    0.9837    0.0601 H   0  0  0  0  0  0  0  0  0  0  0  0
    1.5908    0.4619   -2.2600 H   0  0  0  0  0  0  0  0  0  0  0  0
    1.0521    1.8024   -4.1625 H   0  0  0  0  0  0  0  0  0  0  0  0
    1.8628    2.9686   -6.0106 H   0  0  0  0  0  0  0  0  0  0  0  0
    0.2284    3.5113   -5.4685 H   0  0  0  0  0  0  0  0  0  0  0  0
    1.2448    4.5577   -6.4684 H   0  0  0  0  0  0  0  0  0  0  0  0
    2.9915    5.2034   -2.3643 H   0  0  0  0  0  0  0  0  0  0  0  0
    3.6598    3.7971   -0.4480 H   0  0  0  0  0  0  0  0  0  0  0  0
  1  2  2  0  0  0  0
  2  3  1  0  0  0  0
  2  4  1  0  0  0  0
  3 13  1  0  0  0  0
  3 14  1  0  0  0  0
  4  5  1  0  0  0  0
  4 15  1  0  0  0  0
  4 16  1  0  0  0  0
  5  6  2  0  0  0  0
  5 12  1  0  0  0  0
  6  7  1  0  0  0  0
  6 17  1  0  0  0  0
  7  8  2  0  0  0  0
  7 18  1  0  0  0  0
  8  9  1  0  0  0  0
  8 11  1  0  0  0  0
  9 10  1  0  0  0  0
 10 19  1  0  0  0  0
 10 20  1  0  0  0  0
 10 21  1  0  0  0  0
 11 12  2  0  0  0  0
 11 22  1  0  0  0  0
 12 23  1  0  0  0  0
M  END
>  <DRUGBANK_ID>
DB08767

>  <COMMON_NAME>
2-(4-METHOXYPHENYL)ACETAMIDE

>  <UNII>
RDT39HU3CZ

$$$$
