
 OpenBabel10282417193D

 33 34  0  0  1  0  0  0  0  0999 V2000
    0.7355    1.2519   -0.2580 C   0  0  0  0  0  0  0  0  0  0  0  0
    1.4520   -0.0025    0.2159 C   0  0  0  0  0  0  0  0  0  0  0  0
    0.6987   -1.1988   -0.1259 N   0  0  0  0  0  0  0  0  0  0  0  0
   -0.6535   -1.2459    0.1321 C   0  0  0  0  0  0  0  0  0  0  0  0
   -1.2826   -2.2775    0.3712 O   0  0  0  0  0  0  0  0  0  0  0  0
   -1.2975   -0.0544   -0.0227 N   0  0  0  0  0  0  0  0  0  0  0  0
   -0.6887    1.2022    0.2512 C   0  0  3  0  0  0  0  0  0  0  0  0
   -0.7182    1.3509    1.6577 O   0  0  0  0  0  0  0  0  0  0  0  0
    1.2701   -2.2030   -1.0186 C   0  0  1  0  0  0  0  0  0  0  0  0
    1.8065   -1.6229   -2.3439 C   0  0  1  0  0  0  0  0  0  0  0  0
    2.9871   -2.5261   -2.6638 C   0  0  1  0  0  0  0  0  0  0  0  0
    3.4881   -2.9501   -1.2778 C   0  0  2  0  0  0  0  0  0  0  0  0
    2.3639   -2.8549   -0.3667 O   0  0  0  0  0  0  0  0  0  0  0  0
    4.6269   -2.0937   -0.6963 C   0  0  0  0  0  0  0  0  0  0  0  0
    4.8594   -0.9025   -1.4417 O   0  0  0  0  0  0  0  0  0  0  0  0
    2.5761   -3.6483   -3.4566 O   0  0  0  0  0  0  0  0  0  0  0  0
    0.8349   -1.5704   -3.3845 O   0  0  0  0  0  0  0  0  0  0  0  0
    1.2497    2.1397    0.1232 H   0  0  0  0  0  0  0  0  0  0  0  0
    0.7323    1.2907   -1.3534 H   0  0  0  0  0  0  0  0  0  0  0  0
    2.4696   -0.0502   -0.1756 H   0  0  0  0  0  0  0  0  0  0  0  0
    1.5407   -0.0030    1.3080 H   0  0  0  0  0  0  0  0  0  0  0  0
   -2.1940   -0.0902   -0.4920 H   0  0  0  0  0  0  0  0  0  0  0  0
   -1.2977    2.0027   -0.1808 H   0  0  0  0  0  0  0  0  0  0  0  0
   -0.4576    0.4858    2.0201 H   0  0  0  0  0  0  0  0  0  0  0  0
    0.5126   -2.9684   -1.2362 H   0  0  0  0  0  0  0  0  0  0  0  0
    2.1775   -0.6044   -2.2076 H   0  0  0  0  0  0  0  0  0  0  0  0
    3.7405   -2.0151   -3.2688 H   0  0  0  0  0  0  0  0  0  0  0  0
    3.7984   -4.0015   -1.2653 H   0  0  0  0  0  0  0  0  0  0  0  0
    4.4053   -1.7939    0.3339 H   0  0  0  0  0  0  0  0  0  0  0  0
    5.5619   -2.6645   -0.6759 H   0  0  0  0  0  0  0  0  0  0  0  0
    5.3117   -1.1560   -2.2676 H   0  0  0  0  0  0  0  0  0  0  0  0
    1.9356   -4.1809   -2.9579 H   0  0  0  0  0  0  0  0  0  0  0  0
    0.7091   -2.4791   -3.7135 H   0  0  0  0  0  0  0  0  0  0  0  0
  1  2  1  0  0  0  0
  1  7  1  0  0  0  0
  1 18  1  0  0  0  0
  1 19  1  0  0  0  0
  2  3  1  0  0  0  0
  2 20  1  0  0  0  0
  2 21  1  0  0  0  0
  3  4  1  0  0  0  0
  4  5  2  0  0  0  0
  4  6  1  0  0  0  0
  6  7  1  0  0  0  0
  6 22  1  0  0  0  0
  7  8  1  0  0  0  0
  7 23  1  0  0  0  0
  8 24  1  0  0  0  0
  9  3  1  0  0  0  0
  9 10  1  0  0  0  0
  9 13  1  0  0  0  0
  9 25  1  6  0  0  0
 10 11  1  0  0  0  0
 10 17  1  0  0  0  0
 10 26  1  1  0  0  0
 11 12  1  0  0  0  0
 11 16  1  0  0  0  0
 11 27  1  6  0  0  0
 12 13  1  0  0  0  0
 12 28  1  6  0  0  0
 12 14  1  0  0  0  0
 14 15  1  0  0  0  0
 14 29  1  0  0  0  0
 14 30  1  0  0  0  0
 15 31  1  0  0  0  0
 16 32  1  0  0  0  0
 17 33  1  0  0  0  0
M  END
>  <DRUGBANK_ID>
DB12484

>  <COMMON_NAME>
Tetrahydrouridine

>  <CAS_NUMBER>
18771-50-1

>  <UNII>
0NIZ8H6OL8

$$$$
