4822
 OpenBabel10282417203D

 40 43  0  0  0  0  0  0  0  0999 V2000
    0.0126   -1.8839    0.0002 S   0  0  0  0  0  0  0  0  0  0  0  0
   -0.5437    5.5919   -0.5486 N   0  0  0  0  0  0  0  0  0  0  0  0
    0.0069    2.6727   -0.2185 C   0  0  0  0  0  0  0  0  0  0  0  0
    1.0632    3.7487    0.0570 C   0  0  0  0  0  0  0  0  0  0  0  0
   -1.0499    3.2401   -1.1471 C   0  0  0  0  0  0  0  0  0  0  0  0
    0.5021    5.1430    0.3841 C   0  0  0  0  0  0  0  0  0  0  0  0
   -1.5926    4.5588   -0.5980 C   0  0  0  0  0  0  0  0  0  0  0  0
    0.0261    1.3345    0.0900 C   0  0  0  0  0  0  0  0  0  0  0  0
   -1.3040    0.5922    0.1379 C   0  0  0  0  0  0  0  0  0  0  0  0
    1.3560    0.6078    0.1201 C   0  0  0  0  0  0  0  0  0  0  0  0
    0.0088    5.8225   -1.8899 C   0  0  0  0  0  0  0  0  0  0  0  0
   -1.3806   -0.8008    0.0357 C   0  0  0  0  0  0  0  0  0  0  0  0
    1.4097   -0.7967    0.0930 C   0  0  0  0  0  0  0  0  0  0  0  0
   -2.5381    1.2600    0.3332 C   0  0  0  0  0  0  0  0  0  0  0  0
    2.6072    1.2481    0.0065 C   0  0  0  0  0  0  0  0  0  0  0  0
   -2.6348   -1.4430   -0.0103 C   0  0  0  0  0  0  0  0  0  0  0  0
    2.6515   -1.4656    0.0466 C   0  0  0  0  0  0  0  0  0  0  0  0
    3.8331    0.5963    0.0023 C   0  0  0  0  0  0  0  0  0  0  0  0
   -3.7762    0.6445    0.1585 C   0  0  0  0  0  0  0  0  0  0  0  0
   -3.8254   -0.7251    0.0006 C   0  0  0  0  0  0  0  0  0  0  0  0
    3.8571   -0.7772    0.0294 C   0  0  0  0  0  0  0  0  0  0  0  0
    1.6882    3.8508   -0.8397 H   0  0  0  0  0  0  0  0  0  0  0  0
    1.6921    3.5012    0.9200 H   0  0  0  0  0  0  0  0  0  0  0  0
   -0.5610    3.3627   -2.1181 H   0  0  0  0  0  0  0  0  0  0  0  0
   -1.8614    2.5744   -1.4320 H   0  0  0  0  0  0  0  0  0  0  0  0
    1.3266    5.8684    0.4015 H   0  0  0  0  0  0  0  0  0  0  0  0
    0.1055    5.1304    1.4090 H   0  0  0  0  0  0  0  0  0  0  0  0
   -2.0022    4.4222    0.4144 H   0  0  0  0  0  0  0  0  0  0  0  0
   -2.4328    4.8931   -1.2133 H   0  0  0  0  0  0  0  0  0  0  0  0
    0.5317    4.9618   -2.3212 H   0  0  0  0  0  0  0  0  0  0  0  0
   -0.7958    6.0874   -2.5824 H   0  0  0  0  0  0  0  0  0  0  0  0
    0.7369    6.6348   -1.8751 H   0  0  0  0  0  0  0  0  0  0  0  0
   -2.5723    2.3195    0.5658 H   0  0  0  0  0  0  0  0  0  0  0  0
    2.7282    2.3036   -0.1448 H   0  0  0  0  0  0  0  0  0  0  0  0
   -2.6857   -2.5290   -0.0645 H   0  0  0  0  0  0  0  0  0  0  0  0
    2.6804   -2.5526    0.0031 H   0  0  0  0  0  0  0  0  0  0  0  0
    4.7434    1.1855   -0.0525 H   0  0  0  0  0  0  0  0  0  0  0  0
   -4.6845    1.2412    0.1526 H   0  0  0  0  0  0  0  0  0  0  0  0
   -4.7790   -1.2351   -0.0789 H   0  0  0  0  0  0  0  0  0  0  0  0
    4.8024   -1.3029    0.0018 H   0  0  0  0  0  0  0  0  0  0  0  0
  1 12  1  0  0  0  0
  1 13  1  0  0  0  0
  2  6  1  0  0  0  0
  2  7  1  0  0  0  0
  2 11  1  0  0  0  0
  3  4  1  0  0  0  0
  3  5  1  0  0  0  0
  3  8  2  0  0  0  0
  4  6  1  0  0  0  0
  4 22  1  0  0  0  0
  4 23  1  0  0  0  0
  5  7  1  0  0  0  0
  5 24  1  0  0  0  0
  5 25  1  0  0  0  0
  6 26  1  0  0  0  0
  6 27  1  0  0  0  0
  7 28  1  0  0  0  0
  7 29  1  0  0  0  0
  8  9  1  0  0  0  0
  8 10  1  0  0  0  0
  9 12  1  0  0  0  0
  9 14  2  0  0  0  0
 10 13  1  0  0  0  0
 10 15  2  0  0  0  0
 11 30  1  0  0  0  0
 11 31  1  0  0  0  0
 11 32  1  0  0  0  0
 12 16  2  0  0  0  0
 13 17  2  0  0  0  0
 14 19  1  0  0  0  0
 14 33  1  0  0  0  0
 15 18  1  0  0  0  0
 15 34  1  0  0  0  0
 16 20  1  0  0  0  0
 16 35  1  0  0  0  0
 17 21  1  0  0  0  0
 17 36  1  0  0  0  0
 18 21  2  0  0  0  0
 18 37  1  0  0  0  0
 19 20  2  0  0  0  0
 19 38  1  0  0  0  0
 20 39  1  0  0  0  0
 21 40  1  0  0  0  0
M  END
>  <DRUGBANK_ID>
DB13292

>  <COMMON_NAME>
Pimethixene

>  <CAS_NUMBER>
314-03-4

>  <UNII>
T46J20J26F

>  <SYNONYMS>
Pimethixene

$$$$
