
 OpenBabel10282417233D

 57 59  0  0  0  0  0  0  0  0999 V2000
    1.1032    0.1358    0.1427 C   0  0  0  0  0  0  0  0  0  0  0  0
    0.5605    0.1905   -1.2793 C   0  0  0  0  0  0  0  0  0  0  0  0
    0.9133   -0.9956   -2.1410 C   0  0  0  0  0  0  0  0  0  0  0  0
    0.2186   -2.1184   -1.9092 C   0  0  0  0  0  0  0  0  0  0  0  0
   -0.5436   -2.3942   -0.6115 C   0  0  0  0  0  0  0  0  0  0  0  0
    0.1843   -3.1196   -2.9804 C   0  0  0  0  0  0  0  0  0  0  0  0
    1.2622   -3.3323   -3.7722 C   0  0  0  0  0  0  0  0  0  0  0  0
    1.7523   -4.6143   -4.4471 C   0  0  0  0  0  0  0  0  0  0  0  0
    2.5079   -4.6158   -5.4239 O   0  0  0  0  0  0  0  0  0  0  0  0
    1.4514   -5.8699   -3.9601 N   0  0  0  0  0  0  0  0  0  0  0  0
    0.7175   -6.2018   -2.7299 C   0  0  0  0  0  0  0  0  0  0  0  0
    1.2480   -5.3155   -1.5918 C   0  0  0  0  0  0  0  0  0  0  0  0
    0.4113   -5.3533   -0.3553 C   0  0  0  0  0  0  0  0  0  0  0  0
    0.6382   -6.6769    0.2728 C   0  0  0  0  0  0  0  0  0  0  0  0
    0.3548   -7.7856   -0.7428 C   0  0  0  0  0  0  0  0  0  0  0  0
    1.0285   -7.5980   -2.1409 C   0  0  0  0  0  0  0  0  0  0  0  0
   -0.8162   -6.1511   -3.1266 C   0  0  0  0  0  0  0  0  0  0  0  0
   -1.0873   -5.9703   -4.4486 O   0  0  0  0  0  0  0  0  0  0  0  0
   -1.7439   -6.2409   -2.3398 O   0  0  0  0  0  0  0  0  0  0  0  0
    1.8476   -2.0442   -4.1441 C   0  0  0  0  0  0  0  0  0  0  0  0
    2.2819   -1.9680   -5.3129 O   0  0  0  0  0  0  0  0  0  0  0  0
    1.7325   -0.9425   -3.2823 N   0  0  0  0  0  0  0  0  0  0  0  0
    2.3161    0.2917   -3.7941 C   0  0  0  0  0  0  0  0  0  0  0  0
    3.8320    0.2626   -3.8225 C   0  0  0  0  0  0  0  0  0  0  0  0
    4.5520   -0.6280   -4.6387 C   0  0  0  0  0  0  0  0  0  0  0  0
    5.8980   -0.8766   -4.4440 C   0  0  0  0  0  0  0  0  0  0  0  0
    6.5966   -0.0255   -3.6208 C   0  0  0  0  0  0  0  0  0  0  0  0
    7.9146   -0.1966   -3.4771 F   0  0  0  0  0  0  0  0  0  0  0  0
    5.9536    1.0254   -2.9724 C   0  0  0  0  0  0  0  0  0  0  0  0
    4.5618    1.1171   -2.9982 C   0  0  0  0  0  0  0  0  0  0  0  0
    0.8139   -0.7553    0.7073 H   0  0  0  0  0  0  0  0  0  0  0  0
    0.7116    0.9860    0.7077 H   0  0  0  0  0  0  0  0  0  0  0  0
    2.1928    0.1533    0.1359 H   0  0  0  0  0  0  0  0  0  0  0  0
   -0.5422    0.2213   -1.2485 H   0  0  0  0  0  0  0  0  0  0  0  0
    0.8030    1.1490   -1.7274 H   0  0  0  0  0  0  0  0  0  0  0  0
   -1.3946   -3.0542   -0.7658 H   0  0  0  0  0  0  0  0  0  0  0  0
    0.1072   -2.8200    0.1653 H   0  0  0  0  0  0  0  0  0  0  0  0
   -0.9476   -1.5067   -0.1245 H   0  0  0  0  0  0  0  0  0  0  0  0
   -0.5762   -3.8535   -2.8050 H   0  0  0  0  0  0  0  0  0  0  0  0
    1.8371   -6.6228   -4.5289 H   0  0  0  0  0  0  0  0  0  0  0  0
    2.3239   -5.4567   -1.4121 H   0  0  0  0  0  0  0  0  0  0  0  0
    1.2972   -4.2899   -1.7913 H   0  0  0  0  0  0  0  0  0  0  0  0
    0.7604   -4.5824    0.3271 H   0  0  0  0  0  0  0  0  0  0  0  0
   -0.6449   -5.1572   -0.5702 H   0  0  0  0  0  0  0  0  0  0  0  0
    1.6872   -6.6890    0.5895 H   0  0  0  0  0  0  0  0  0  0  0  0
    0.0120   -6.7380    1.1671 H   0  0  0  0  0  0  0  0  0  0  0  0
    0.6721   -8.7274   -0.2978 H   0  0  0  0  0  0  0  0  0  0  0  0
   -0.7298   -7.8351   -0.8819 H   0  0  0  0  0  0  0  0  0  0  0  0
    0.7289   -8.4022   -2.8186 H   0  0  0  0  0  0  0  0  0  0  0  0
    2.1176   -7.6852   -2.0064 H   0  0  0  0  0  0  0  0  0  0  0  0
   -0.3102   -5.8889   -5.0356 H   0  0  0  0  0  0  0  0  0  0  0  0
    1.9087    0.4630   -4.7965 H   0  0  0  0  0  0  0  0  0  0  0  0
    1.9981    1.1425   -3.1953 H   0  0  0  0  0  0  0  0  0  0  0  0
    4.0988   -1.1768   -5.4525 H   0  0  0  0  0  0  0  0  0  0  0  0
    6.3768   -1.6995   -4.9636 H   0  0  0  0  0  0  0  0  0  0  0  0
    6.5417    1.7592   -2.4375 H   0  0  0  0  0  0  0  0  0  0  0  0
    4.0555    1.8618   -2.3895 H   0  0  0  0  0  0  0  0  0  0  0  0
  1  2  1  0  0  0  0
  1 31  1  0  0  0  0
  1 32  1  0  0  0  0
  1 33  1  0  0  0  0
  2  3  1  0  0  0  0
  2 34  1  0  0  0  0
  2 35  1  0  0  0  0
  3  4  2  0  0  0  0
  3 22  1  0  0  0  0
  4  5  1  0  0  0  0
  4  6  1  0  0  0  0
  5 36  1  0  0  0  0
  5 37  1  0  0  0  0
  5 38  1  0  0  0  0
  6  7  2  0  0  0  0
  6 39  1  0  0  0  0
  7  8  1  0  0  0  0
  7 20  1  0  0  0  0
  8  9  2  0  0  0  0
  8 10  1  0  0  0  0
 10 11  1  0  0  0  0
 10 40  1  0  0  0  0
 11 12  1  0  0  0  0
 11 16  1  0  0  0  0
 11 17  1  0  0  0  0
 12 13  1  0  0  0  0
 12 41  1  0  0  0  0
 12 42  1  0  0  0  0
 13 14  1  0  0  0  0
 13 43  1  0  0  0  0
 13 44  1  0  0  0  0
 14 15  1  0  0  0  0
 14 45  1  0  0  0  0
 14 46  1  0  0  0  0
 15 16  1  0  0  0  0
 15 47  1  0  0  0  0
 15 48  1  0  0  0  0
 16 49  1  0  0  0  0
 16 50  1  0  0  0  0
 17 18  1  0  0  0  0
 17 19  2  0  0  0  0
 18 51  1  0  0  0  0
 20 21  2  0  0  0  0
 20 22  1  0  0  0  0
 22 23  1  0  0  0  0
 23 24  1  0  0  0  0
 23 52  1  0  0  0  0
 23 53  1  0  0  0  0
 24 25  2  0  0  0  0
 24 30  1  0  0  0  0
 25 26  1  0  0  0  0
 25 54  1  0  0  0  0
 26 27  2  0  0  0  0
 26 55  1  0  0  0  0
 27 28  1  0  0  0  0
 27 29  1  0  0  0  0
 29 30  2  0  0  0  0
 29 56  1  0  0  0  0
 30 57  1  0  0  0  0
M  END
>  <DRUGBANK_ID>
DB16321

>  <COMMON_NAME>
S-777469

>  <CAS_NUMBER>
885496-53-7

>  <UNII>
88NI79737I

$$$$
