
 OpenBabel10282417193D

 39 41  0  0  0  0  0  0  0  0999 V2000
    1.6697    1.2098   -0.0656 C   0  0  0  0  0  0  0  0  0  0  0  0
    0.2782    1.1935   -0.0512 C   0  0  0  0  0  0  0  0  0  0  0  0
   -0.3936   -0.0237   -0.0262 C   0  0  0  0  0  0  0  0  0  0  0  0
    0.3156   -1.2246   -0.0226 C   0  0  0  0  0  0  0  0  0  0  0  0
    1.7118   -1.2093    0.0011 C   0  0  0  0  0  0  0  0  0  0  0  0
    2.3942    0.0113    0.0113 C   0  0  0  0  0  0  0  0  0  0  0  0
    3.8757   -0.0048    0.1359 C   0  0  0  0  0  0  0  0  0  0  0  0
    4.4993   -1.0610    0.1330 O   0  0  0  0  0  0  0  0  0  0  0  0
    4.6279    1.2576    0.1980 C   0  0  0  0  0  0  0  0  0  0  0  0
    5.4705    1.5453   -0.8544 C   0  0  0  0  0  0  0  0  0  0  0  0
    6.1245    2.7713   -0.8663 C   0  0  0  0  0  0  0  0  0  0  0  0
    6.0489    3.7375    0.1499 C   0  0  0  0  0  0  0  0  0  0  0  0
    5.1578    3.4477    1.1843 C   0  0  0  0  0  0  0  0  0  0  0  0
    4.4795    2.2078    1.2258 C   0  0  0  0  0  0  0  0  0  0  0  0
    3.4759    1.9145    2.6035 Cl  0  0  0  0  0  0  0  0  0  0  0  0
    6.8684    5.0339    0.1168 C   0  0  0  0  0  0  0  0  0  0  0  0
    8.3171    4.8184    0.0061 N   0  0  0  0  0  0  0  0  0  0  0  0
    9.0069    4.2797   -1.0604 C   0  0  0  0  0  0  0  0  0  0  0  0
   10.3043    4.1221   -0.6169 C   0  0  0  0  0  0  0  0  0  0  0  0
   10.3987    4.7490    0.6151 N   0  0  0  0  0  0  0  0  0  0  0  0
    9.1845    5.1829    0.9772 N   0  0  0  0  0  0  0  0  0  0  0  0
   11.3959    3.4783   -1.3590 C   0  0  0  0  0  0  0  0  0  0  0  0
   12.5806    3.4943   -1.0099 O   0  0  0  0  0  0  0  0  0  0  0  0
   11.0714    2.7989   -2.5180 N   0  0  0  0  0  0  0  0  0  0  0  0
    8.4619    3.9905   -2.2663 N   0  0  0  0  0  0  0  0  0  0  0  0
    5.7618    0.5056   -2.2093 Cl  0  0  0  0  0  0  0  0  0  0  0  0
   -2.1112   -0.0353   -0.0041 Cl  0  0  0  0  0  0  0  0  0  0  0  0
    2.1555    2.1792   -0.0975 H   0  0  0  0  0  0  0  0  0  0  0  0
   -0.2665    2.1337   -0.0476 H   0  0  0  0  0  0  0  0  0  0  0  0
   -0.2104   -2.1750   -0.0233 H   0  0  0  0  0  0  0  0  0  0  0  0
    2.2628   -2.1489    0.0233 H   0  0  0  0  0  0  0  0  0  0  0  0
    6.7023    2.9073   -1.7511 H   0  0  0  0  0  0  0  0  0  0  0  0
    4.9815    4.1747    1.9766 H   0  0  0  0  0  0  0  0  0  0  0  0
    6.5833    5.6264   -0.7609 H   0  0  0  0  0  0  0  0  0  0  0  0
    6.6682    5.6592    0.9981 H   0  0  0  0  0  0  0  0  0  0  0  0
   10.1844    2.8921   -2.9808 H   0  0  0  0  0  0  0  0  0  0  0  0
   11.8168    2.4019   -3.0706 H   0  0  0  0  0  0  0  0  0  0  0  0
    8.5386    3.0168   -2.5625 H   0  0  0  0  0  0  0  0  0  0  0  0
    7.5396    4.3501   -2.4972 H   0  0  0  0  0  0  0  0  0  0  0  0
  1  2  2  0  0  0  0
  1  6  1  0  0  0  0
  1 28  1  0  0  0  0
  2  3  1  0  0  0  0
  2 29  1  0  0  0  0
  3  4  2  0  0  0  0
  3 27  1  0  0  0  0
  4  5  1  0  0  0  0
  4 30  1  0  0  0  0
  5  6  2  0  0  0  0
  5 31  1  0  0  0  0
  6  7  1  0  0  0  0
  7  8  2  0  0  0  0
  7  9  1  0  0  0  0
  9 10  2  0  0  0  0
  9 14  1  0  0  0  0
 10 11  1  0  0  0  0
 10 26  1  0  0  0  0
 11 12  2  0  0  0  0
 11 32  1  0  0  0  0
 12 13  1  0  0  0  0
 12 16  1  0  0  0  0
 13 14  2  0  0  0  0
 13 33  1  0  0  0  0
 14 15  1  0  0  0  0
 16 17  1  0  0  0  0
 16 34  1  0  0  0  0
 16 35  1  0  0  0  0
 17 18  1  0  0  0  0
 17 21  1  0  0  0  0
 18 19  2  0  0  0  0
 18 25  1  0  0  0  0
 19 20  1  0  0  0  0
 19 22  1  0  0  0  0
 20 21  2  0  0  0  0
 22 23  2  0  0  0  0
 22 24  1  0  0  0  0
 24 36  1  0  0  0  0
 24 37  1  0  0  0  0
 25 38  1  0  0  0  0
 25 39  1  0  0  0  0
M  END
>  <DRUGBANK_ID>
DB11960

>  <COMMON_NAME>
Carboxyamidotriazole

>  <CAS_NUMBER>
99519-84-3

>  <UNII>
6ST3ZF52WB

>  <SYNONYMS>
CAI

$$$$
