
 OpenBabel10282417233D

 52 55  0  0  1  0  0  0  0  0999 V2000
    0.5675   -0.1403    0.0480 C   0  0  0  0  0  0  0  0  0  0  0  0
    0.3061    0.9962    0.8469 O   0  0  0  0  0  0  0  0  0  0  0  0
    0.8892    0.9720    2.0658 C   0  0  0  0  0  0  0  0  0  0  0  0
    0.0497    1.2289    3.0734 N   0  0  0  0  0  0  0  0  0  0  0  0
    0.8265    1.1500    4.1656 N   0  0  0  0  0  0  0  0  0  0  0  0
    0.2052    1.2658    5.4687 C   0  0  0  0  0  0  0  0  0  0  0  0
    2.1450    0.8904    3.8764 C   0  0  0  0  0  0  0  0  0  0  0  0
    2.2409    0.7855    2.4977 C   0  0  0  0  0  0  0  0  0  0  0  0
    3.3964    0.5310    1.8038 N   0  0  0  0  0  0  0  0  0  0  0  0
    3.5743    0.5107    0.3938 C   0  0  0  0  0  0  0  0  0  0  0  0
    3.8563   -0.6865   -0.2556 N   0  0  0  0  0  0  0  0  0  0  0  0
    3.6705   -0.7978   -1.6042 C   0  0  0  0  0  0  0  0  0  0  0  0
    3.3062    0.1961   -2.4249 N   0  0  0  0  0  0  0  0  0  0  0  0
    3.0643    1.3387   -1.7833 C   0  0  0  0  0  0  0  0  0  0  0  0
    3.1703    1.5892   -0.4273 C   0  0  0  0  0  0  0  0  0  0  0  0
    2.7355    2.8694   -0.1486 N   0  0  0  0  0  0  0  0  0  0  0  0
    2.3755    3.3730   -1.3098 C   0  0  0  0  0  0  0  0  0  0  0  0
    2.5868    2.4928   -2.3304 N   0  0  0  0  0  0  0  0  0  0  0  0
    2.4033    2.7452   -3.7350 C   0  0  0  0  0  0  0  0  0  0  0  0
    3.8083   -1.9901   -2.2388 N   0  0  0  0  0  0  0  0  0  0  0  0
    4.8708   -2.1583   -3.2118 C   0  0  0  0  0  0  0  0  0  0  0  0
    5.2086   -3.6347   -3.1116 C   0  0  1  0  0  0  0  0  0  0  0  0
    6.0310   -3.8426   -2.0388 F   0  0  0  0  0  0  0  0  0  0  0  0
    3.8605   -4.2546   -2.7907 C   0  0  1  0  0  0  0  0  0  0  0  0
    3.0933   -3.2117   -1.9616 C   0  0  0  0  0  0  0  0  0  0  0  0
    3.1782   -4.8562   -3.9168 N   0  0  0  0  0  0  0  0  0  0  0  0
    2.9312   -6.1815   -4.1428 C   0  0  0  0  0  0  0  0  0  0  0  0
    2.3620   -6.5043   -5.1724 O   0  0  0  0  0  0  0  0  0  0  0  0
    3.3167   -7.2613   -3.1649 C   0  0  0  0  0  0  0  0  0  0  0  0
    3.9609   -7.3122   -1.9893 C   0  0  0  0  0  0  0  0  0  0  0  0
    0.2521    0.0712   -0.9784 H   0  0  0  0  0  0  0  0  0  0  0  0
    0.1151   -1.0549    0.4272 H   0  0  0  0  0  0  0  0  0  0  0  0
    1.6052   -0.3739   -0.0245 H   0  0  0  0  0  0  0  0  0  0  0  0
   -0.3248    2.2213    5.5361 H   0  0  0  0  0  0  0  0  0  0  0  0
   -0.5063    0.4420    5.5855 H   0  0  0  0  0  0  0  0  0  0  0  0
    0.9627    1.2086    6.2540 H   0  0  0  0  0  0  0  0  0  0  0  0
    2.8737    0.8155    4.6708 H   0  0  0  0  0  0  0  0  0  0  0  0
    4.2194    0.1874    2.2840 H   0  0  0  0  0  0  0  0  0  0  0  0
    1.9728    4.3648   -1.4623 H   0  0  0  0  0  0  0  0  0  0  0  0
    3.3625    2.5860   -4.2354 H   0  0  0  0  0  0  0  0  0  0  0  0
    1.6474    2.0651   -4.1368 H   0  0  0  0  0  0  0  0  0  0  0  0
    2.0858    3.7807   -3.8791 H   0  0  0  0  0  0  0  0  0  0  0  0
    5.7441   -1.5424   -2.9845 H   0  0  0  0  0  0  0  0  0  0  0  0
    4.4893   -1.9309   -4.2128 H   0  0  0  0  0  0  0  0  0  0  0  0
    5.7108   -4.0461   -3.9911 H   0  0  0  0  0  0  0  0  0  0  0  0
    4.0507   -5.0142   -2.0836 H   0  0  0  0  0  0  0  0  0  0  0  0
    3.1447   -3.4890   -0.9013 H   0  0  0  0  0  0  0  0  0  0  0  0
    2.0366   -3.1766   -2.2559 H   0  0  0  0  0  0  0  0  0  0  0  0
    2.8593   -4.2642   -4.6799 H   0  0  0  0  0  0  0  0  0  0  0  0
    2.9734   -8.2243   -3.5448 H   0  0  0  0  0  0  0  0  0  0  0  0
    4.0990   -8.2529   -1.4711 H   0  0  0  0  0  0  0  0  0  0  0  0
    4.4073   -6.5134   -1.4191 H   0  0  0  0  0  0  0  0  0  0  0  0
  1  2  1  0  0  0  0
  1 31  1  0  0  0  0
  1 32  1  0  0  0  0
  1 33  1  0  0  0  0
  2  3  1  0  0  0  0
  3  4  2  0  0  0  0
  3  8  1  0  0  0  0
  4  5  1  0  0  0  0
  5  6  1  0  0  0  0
  5  7  1  0  0  0  0
  6 34  1  0  0  0  0
  6 35  1  0  0  0  0
  6 36  1  0  0  0  0
  7  8  2  0  0  0  0
  7 37  1  0  0  0  0
  8  9  1  0  0  0  0
  9 10  1  0  0  0  0
  9 38  1  0  0  0  0
 10 11  2  0  0  0  0
 10 15  1  0  0  0  0
 11 12  1  0  0  0  0
 12 13  2  0  0  0  0
 12 20  1  0  0  0  0
 13 14  1  0  0  0  0
 14 15  2  0  0  0  0
 14 18  1  0  0  0  0
 15 16  1  0  0  0  0
 16 17  2  0  0  0  0
 17 18  1  0  0  0  0
 17 39  1  0  0  0  0
 18 19  1  0  0  0  0
 19 40  1  0  0  0  0
 19 41  1  0  0  0  0
 19 42  1  0  0  0  0
 20 21  1  0  0  0  0
 20 25  1  0  0  0  0
 21 43  1  0  0  0  0
 21 44  1  0  0  0  0
 22 21  1  0  0  0  0
 22 23  1  0  0  0  0
 22 24  1  0  0  0  0
 22 45  1  6  0  0  0
 24 25  1  0  0  0  0
 24 26  1  0  0  0  0
 24 46  1  1  0  0  0
 25 47  1  0  0  0  0
 25 48  1  0  0  0  0
 26 27  1  0  0  0  0
 26 49  1  0  0  0  0
 27 28  2  0  0  0  0
 27 29  1  0  0  0  0
 29 30  2  0  0  0  0
 29 50  1  0  0  0  0
 30 51  1  0  0  0  0
 30 52  1  0  0  0  0
M  END
>  <DRUGBANK_ID>
DB16228

>  <COMMON_NAME>
Mavelertinib

>  <CAS_NUMBER>
1776112-90-3

>  <UNII>
YXX2180047

>  <SYNONYMS>
Egfr t790m inhibitor pf-06747775; Mavelertinib

$$$$
