
 OpenBabel10282417213D

 77 81  0  0  1  0  0  0  0  0999 V2000
    3.2440   -2.2792    2.5914 C   0  0  0  0  0  0  0  0  0  0  0  0
    2.0828   -2.6732    3.4995 C   0  0  0  0  0  0  0  0  0  0  0  0
    0.7431   -2.6080    2.7588 C   0  0  0  0  0  0  0  0  0  0  0  0
    2.2322   -4.0198    4.3826 C   0  0  0  0  0  0  0  0  0  0  0  0
    2.2446   -3.9108    5.6072 O   0  0  0  0  0  0  0  0  0  0  0  0
    2.3785   -5.2934    3.8461 N   0  0  0  0  0  0  0  0  0  0  0  0
    3.2408   -5.4258    2.7734 C   0  0  0  0  0  0  0  0  0  0  0  0
    2.1075   -5.9351    1.9985 C   0  0  0  0  0  0  0  0  0  0  0  0
    1.3475   -7.2353    1.7569 C   0  0  0  0  0  0  0  0  0  0  0  0
    1.1462   -7.7777    2.9363 C   0  0  0  0  0  0  0  0  0  0  0  0
    1.7990   -6.7849    4.2255 C   0  0  0  0  0  0  0  0  0  0  0  0
    0.6086   -9.0818    2.5303 N   0  0  0  0  0  0  0  0  0  0  0  0
    0.5342   -9.3215    1.1427 C   0  0  0  0  0  0  0  0  0  0  0  0
    0.0932  -10.3205    0.1790 C   0  0  0  0  0  0  0  0  0  0  0  0
    1.3076   -8.4940    0.4385 N   0  0  0  0  0  0  0  0  0  0  0  0
    1.6788   -7.7423   -1.4851 C   0  0  2  0  0  0  0  0  0  0  0  0
    3.0428   -7.2879   -2.2099 C   0  0  0  0  0  0  0  0  0  0  0  0
    3.6399   -5.6543   -1.5866 C   0  0  2  0  0  0  0  0  0  0  0  0
    3.8610   -5.2638   -0.0642 C   0  0  0  0  0  0  0  0  0  0  0  0
    2.3968   -4.6079    0.2479 C   0  0  0  0  0  0  0  0  0  0  0  0
    1.7431   -4.4208   -0.9484 C   0  0  2  0  0  0  0  0  0  0  0  0
    1.1336   -5.7071   -1.1214 C   0  0  0  0  0  0  0  0  0  0  0  0
    2.7111   -4.5470   -1.9511 N   0  0  0  0  0  0  0  0  0  0  0  0
    1.9989   -4.8866   -3.1870 C   0  0  0  0  0  0  0  0  0  0  0  0
    1.0977   -6.2572   -3.4386 C   0  0  0  0  0  0  0  0  0  0  0  0
   -0.1325   -6.7627   -2.1939 C   0  0  2  0  0  0  0  0  0  0  0  0
    0.4847   -7.1620   -0.3952 N   0  0  0  0  0  0  0  0  0  0  0  0
    2.4928   -7.2174    0.0279 C   0  0  0  0  0  0  0  0  0  0  0  0
    3.2638   -8.4908    1.0137 C   0  0  0  0  0  0  0  0  0  0  0  0
    3.6808   -7.4606   -0.4641 O   0  0  0  0  0  0  0  0  0  0  0  0
   -0.9946   -7.6861   -2.8079 C   0  0  0  0  0  0  0  0  0  0  0  0
   -0.6424   -8.9942   -2.8128 C   0  0  0  0  0  0  0  0  0  0  0  0
   -1.4902   -9.9158   -3.2521 C   0  0  0  0  0  0  0  0  0  0  0  0
   -2.6110   -9.4205   -3.8681 C   0  0  0  0  0  0  0  0  0  0  0  0
   -2.8974   -8.0497   -3.9605 C   0  0  0  0  0  0  0  0  0  0  0  0
   -3.9774   -7.6063   -4.5874 F   0  0  0  0  0  0  0  0  0  0  0  0
   -2.0850   -7.1336   -3.4151 C   0  0  0  0  0  0  0  0  0  0  0  0
    3.3806   -2.8972    1.7433 H   0  0  0  0  0  0  0  0  0  0  0  0
    4.2037   -2.3673    3.0961 H   0  0  0  0  0  0  0  0  0  0  0  0
    3.1010   -1.3484    2.0421 H   0  0  0  0  0  0  0  0  0  0  0  0
    2.0470   -1.8333    4.2157 H   0  0  0  0  0  0  0  0  0  0  0  0
    0.6226   -3.3979    2.0324 H   0  0  0  0  0  0  0  0  0  0  0  0
   -0.0965   -2.7234    3.4486 H   0  0  0  0  0  0  0  0  0  0  0  0
    0.6276   -1.6852    2.1788 H   0  0  0  0  0  0  0  0  0  0  0  0
    3.6742   -4.5020    2.3790 H   0  0  0  0  0  0  0  0  0  0  0  0
    4.1323   -6.0463    2.8284 H   0  0  0  0  0  0  0  0  0  0  0  0
    1.4410   -5.0482    2.0714 H   0  0  0  0  0  0  0  0  0  0  0  0
    2.7620   -6.1095    1.2640 H   0  0  0  0  0  0  0  0  0  0  0  0
    2.7496   -7.2081    4.5417 H   0  0  0  0  0  0  0  0  0  0  0  0
    0.9930   -6.6045    4.8920 H   0  0  0  0  0  0  0  0  0  0  0  0
    0.7030  -11.2094    0.2024 H   0  0  0  0  0  0  0  0  0  0  0  0
   -0.9780  -10.3478    0.0985 H   0  0  0  0  0  0  0  0  0  0  0  0
    0.3638  -10.0298   -0.8389 H   0  0  0  0  0  0  0  0  0  0  0  0
    1.4931   -8.7948   -1.6388 H   0  0  0  0  0  0  0  0  0  0  0  0
    3.4186   -8.3169   -2.0459 H   0  0  0  0  0  0  0  0  0  0  0  0
    3.2967   -7.2596   -3.2514 H   0  0  0  0  0  0  0  0  0  0  0  0
    4.6181   -5.5805   -2.0052 H   0  0  0  0  0  0  0  0  0  0  0  0
    4.3043   -6.1146    0.5438 H   0  0  0  0  0  0  0  0  0  0  0  0
    4.6562   -4.6660    0.3965 H   0  0  0  0  0  0  0  0  0  0  0  0
    1.3735   -5.1500    0.5780 H   0  0  0  0  0  0  0  0  0  0  0  0
    2.4257   -3.7704    0.8577 H   0  0  0  0  0  0  0  0  0  0  0  0
    0.8282   -3.7770   -0.6944 H   0  0  0  0  0  0  0  0  0  0  0  0
    0.5851   -5.1756   -1.8513 H   0  0  0  0  0  0  0  0  0  0  0  0
   -0.0098   -5.5589   -0.3986 H   0  0  0  0  0  0  0  0  0  0  0  0
    1.2788   -4.0672   -3.2818 H   0  0  0  0  0  0  0  0  0  0  0  0
    2.8322   -4.8118   -3.8520 H   0  0  0  0  0  0  0  0  0  0  0  0
    0.7491   -6.2111   -4.4605 H   0  0  0  0  0  0  0  0  0  0  0  0
    1.6455   -7.1618   -3.6295 H   0  0  0  0  0  0  0  0  0  0  0  0
   -0.7950   -5.8478   -2.1277 H   0  0  0  0  0  0  0  0  0  0  0  0
   -0.2781   -7.2813    0.2556 H   0  0  0  0  0  0  0  0  0  0  0  0
    3.4615   -9.3773    0.3605 H   0  0  0  0  0  0  0  0  0  0  0  0
    4.0138   -7.8855    1.4956 H   0  0  0  0  0  0  0  0  0  0  0  0
    2.7637   -8.9199    1.8316 H   0  0  0  0  0  0  0  0  0  0  0  0
    0.3006   -9.3447   -2.5115 H   0  0  0  0  0  0  0  0  0  0  0  0
   -1.1812  -10.9407   -3.1294 H   0  0  0  0  0  0  0  0  0  0  0  0
   -3.2673  -10.1234   -4.3240 H   0  0  0  0  0  0  0  0  0  0  0  0
   -2.2406   -6.0537   -3.4500 H   0  0  0  0  0  0  0  0  0  0  0  0
  1  2  1  0  0  0  0
  1 38  1  0  0  0  0
  1 39  1  0  0  0  0
  1 40  1  0  0  0  0
  2  3  1  0  0  0  0
  2  4  1  0  0  0  0
  2 41  1  0  0  0  0
  3 42  1  0  0  0  0
  3 43  1  0  0  0  0
  3 44  1  0  0  0  0
  4  5  2  0  0  0  0
  4  6  1  0  0  0  0
  6  7  1  0  0  0  0
  6 11  1  0  0  0  0
  7  8  1  0  0  0  0
  7 45  1  0  0  0  0
  7 46  1  0  0  0  0
  8  9  1  0  0  0  0
  8 47  1  0  0  0  0
  8 48  1  0  0  0  0
  9 10  2  0  0  0  0
  9 15  1  0  0  0  0
 10 11  1  0  0  0  0
 10 12  1  0  0  0  0
 11 49  1  0  0  0  0
 11 50  1  0  0  0  0
 12 13  2  0  0  0  0
 13 14  1  0  0  0  0
 13 15  1  0  0  0  0
 14 51  1  0  0  0  0
 14 52  1  0  0  0  0
 14 53  1  0  0  0  0
 16 15  1  0  0  0  0
 16 17  1  0  0  0  0
 16 22  1  0  0  0  0
 16 54  1  6  0  0  0
 17 55  1  0  0  0  0
 17 56  1  0  0  0  0
 18 17  1  0  0  0  0
 18 19  1  0  0  0  0
 18 23  1  0  0  0  0
 18 57  1  6  0  0  0
 19 20  1  0  0  0  0
 19 58  1  0  0  0  0
 19 59  1  0  0  0  0
 20 60  1  0  0  0  0
 20 61  1  0  0  0  0
 21 20  1  0  0  0  0
 21 22  1  0  0  0  0
 21 23  1  0  0  0  0
 21 62  1  6  0  0  0
 22 63  1  0  0  0  0
 22 64  1  0  0  0  0
 23 24  1  0  0  0  0
 24 25  1  0  0  0  0
 24 65  1  0  0  0  0
 24 66  1  0  0  0  0
 25 67  1  0  0  0  0
 25 68  1  0  0  0  0
 26 31  1  0  0  0  0
 26 69  1  1  0  0  0
 26 27  1  0  0  0  0
 26 25  1  0  0  0  0
 27 28  1  0  0  0  0
 27 70  1  0  0  0  0
 28 29  1  0  0  0  0
 28 30  2  0  0  0  0
 29 71  1  0  0  0  0
 29 72  1  0  0  0  0
 29 73  1  0  0  0  0
 31 32  2  0  0  0  0
 31 37  1  0  0  0  0
 32 33  1  0  0  0  0
 32 74  1  0  0  0  0
 33 34  2  0  0  0  0
 33 75  1  0  0  0  0
 34 35  1  0  0  0  0
 34 76  1  0  0  0  0
 35 36  1  0  0  0  0
 35 37  2  0  0  0  0
 37 77  1  0  0  0  0
M  END
>  <DRUGBANK_ID>
DB14813

>  <COMMON_NAME>
PF-232798

>  <CAS_NUMBER>
849753-15-7

>  <UNII>
63P7W7886U

>  <SYNONYMS>
PF-00232798

$$$$
