
 OpenBabel10282417153D

 78 79  0  0  0  0  0  0  0  0999 V2000
    0.9876   -0.4486    0.1401 C   0  0  0  0  0  0  0  0  0  0  0  0
    0.4571    0.0198    1.4758 C   0  0  0  0  0  0  0  0  0  0  0  0
    1.6046    1.0966    2.2667 C   0  0  0  0  0  0  0  0  0  0  0  0
   -1.3634    0.3698    1.1117 C   0  0  0  0  0  0  0  0  0  0  0  0
   -1.9903   -0.8417    1.3271 C   0  0  0  0  0  0  0  0  0  0  0  0
   -3.3498   -0.7093    1.5131 C   0  0  0  0  0  0  0  0  0  0  0  0
   -4.0562    0.5798    1.6110 C   0  0  0  0  0  0  0  0  0  0  0  0
   -3.4947    1.9121    1.5493 C   0  0  0  0  0  0  0  0  0  0  0  0
   -2.1637    1.9640    1.1274 C   0  0  0  0  0  0  0  0  0  0  0  0
   -1.4000    3.6636    1.3205 O   0  0  0  0  0  0  0  0  0  0  0  0
    0.4925    4.5060    0.6286 S   0  0  0  0  0  0  0  0  0  0  0  0
    1.5702    4.1306    1.5348 O   0  0  0  0  0  0  0  0  0  0  0  0
    0.6535    4.4074   -0.8257 O   0  0  0  0  0  0  0  0  0  0  0  0
    0.9170    5.9892    0.6242 N   0  0  0  0  0  0  0  0  0  0  0  0
   -0.1143    6.7739    0.2493 C   0  0  0  0  0  0  0  0  0  0  0  0
    0.1131    7.9224    0.0073 O   0  0  0  0  0  0  0  0  0  0  0  0
   -1.4534    6.0180    0.4501 C   0  0  0  0  0  0  0  0  0  0  0  0
   -1.8000    4.7713   -0.6743 C   0  0  0  0  0  0  0  0  0  0  0  0
   -1.2882    3.2345   -0.6918 C   0  0  0  0  0  0  0  0  0  0  0  0
   -1.8560    2.2925   -1.4880 C   0  0  0  0  0  0  0  0  0  0  0  0
   -2.8730    2.7134   -2.2937 C   0  0  0  0  0  0  0  0  0  0  0  0
   -3.3615    4.0517   -2.3005 C   0  0  0  0  0  0  0  0  0  0  0  0
   -2.8005    5.1029   -1.5530 C   0  0  0  0  0  0  0  0  0  0  0  0
   -3.1956    6.5326   -1.7524 C   0  0  0  0  0  0  0  0  0  0  0  0
   -2.6752    6.8959   -3.1242 C   0  0  0  0  0  0  0  0  0  0  0  0
   -4.6817    6.7352   -1.5690 C   0  0  0  0  0  0  0  0  0  0  0  0
   -3.2656    1.6809   -3.2921 C   0  0  0  0  0  0  0  0  0  0  0  0
   -4.7424    1.4176   -3.2000 C   0  0  0  0  0  0  0  0  0  0  0  0
   -2.7816    2.2132   -4.6264 C   0  0  0  0  0  0  0  0  0  0  0  0
   -0.1246    2.3275    0.5033 C   0  0  0  0  0  0  0  0  0  0  0  0
   -0.4674    2.2840    2.4832 C   0  0  0  0  0  0  0  0  0  0  0  0
    1.4123    2.2166   -0.3538 C   0  0  0  0  0  0  0  0  0  0  0  0
   -4.1893    3.1217    2.1091 C   0  0  0  0  0  0  0  0  0  0  0  0
   -3.4536    3.7037    3.3443 C   0  0  0  0  0  0  0  0  0  0  0  0
   -4.2462    4.1434    1.0145 C   0  0  0  0  0  0  0  0  0  0  0  0
    0.4690   -0.0249   -0.7287 H   0  0  0  0  0  0  0  0  0  0  0  0
    0.7534   -1.4911    0.0188 H   0  0  0  0  0  0  0  0  0  0  0  0
    2.0596   -0.2400    0.0511 H   0  0  0  0  0  0  0  0  0  0  0  0
    0.4965   -0.7292    2.2708 H   0  0  0  0  0  0  0  0  0  0  0  0
    1.4649    1.8676    1.6060 H   0  0  0  0  0  0  0  0  0  0  0  0
    1.4002    1.8232    3.0994 H   0  0  0  0  0  0  0  0  0  0  0  0
    2.6599    1.0957    2.0443 H   0  0  0  0  0  0  0  0  0  0  0  0
   -1.4136   -1.7706    1.3794 H   0  0  0  0  0  0  0  0  0  0  0  0
   -3.9082   -1.6382    1.6296 H   0  0  0  0  0  0  0  0  0  0  0  0
   -5.1358    0.4867    1.7592 H   0  0  0  0  0  0  0  0  0  0  0  0
    1.8187    5.8797    0.1019 H   0  0  0  0  0  0  0  0  0  0  0  0
   -1.4414    5.6348    1.4967 H   0  0  0  0  0  0  0  0  0  0  0  0
   -2.2258    6.7529    0.6149 H   0  0  0  0  0  0  0  0  0  0  0  0
   -1.5889    1.2497   -1.3748 H   0  0  0  0  0  0  0  0  0  0  0  0
   -4.2088    4.2756   -2.9451 H   0  0  0  0  0  0  0  0  0  0  0  0
   -2.7003    7.2210   -1.0668 H   0  0  0  0  0  0  0  0  0  0  0  0
   -3.1433    6.2654   -3.8834 H   0  0  0  0  0  0  0  0  0  0  0  0
   -2.8808    7.9421   -3.3403 H   0  0  0  0  0  0  0  0  0  0  0  0
   -1.5896    6.7279   -3.1735 H   0  0  0  0  0  0  0  0  0  0  0  0
   -4.9918    6.4778   -0.5501 H   0  0  0  0  0  0  0  0  0  0  0  0
   -4.9361    7.7802   -1.7510 H   0  0  0  0  0  0  0  0  0  0  0  0
   -5.2479    6.1092   -2.2598 H   0  0  0  0  0  0  0  0  0  0  0  0
   -2.7300    0.7403   -3.0842 H   0  0  0  0  0  0  0  0  0  0  0  0
   -5.3107    2.3325   -3.3799 H   0  0  0  0  0  0  0  0  0  0  0  0
   -5.0193    0.6691   -3.9408 H   0  0  0  0  0  0  0  0  0  0  0  0
   -5.0016    1.0520   -2.1980 H   0  0  0  0  0  0  0  0  0  0  0  0
   -1.6973    2.4013   -4.5996 H   0  0  0  0  0  0  0  0  0  0  0  0
   -2.9963    1.4961   -5.4139 H   0  0  0  0  0  0  0  0  0  0  0  0
   -3.2645    3.1671   -4.8611 H   0  0  0  0  0  0  0  0  0  0  0  0
    0.2502    2.8977    1.3621 H   0  0  0  0  0  0  0  0  0  0  0  0
   -0.4094    1.4676    1.9446 H   0  0  0  0  0  0  0  0  0  0  0  0
   -0.3765    1.4058    3.1760 H   0  0  0  0  0  0  0  0  0  0  0  0
   -1.4811    2.4295    2.8854 H   0  0  0  0  0  0  0  0  0  0  0  0
    1.8929    2.9881   -0.9701 H   0  0  0  0  0  0  0  0  0  0  0  0
    2.3152    2.1043    0.2582 H   0  0  0  0  0  0  0  0  0  0  0  0
    1.1989    1.5098   -1.1141 H   0  0  0  0  0  0  0  0  0  0  0  0
   -5.2145    2.8735    2.3903 H   0  0  0  0  0  0  0  0  0  0  0  0
   -2.4212    4.0363    3.1874 H   0  0  0  0  0  0  0  0  0  0  0  0
   -3.9346    4.6179    3.6861 H   0  0  0  0  0  0  0  0  0  0  0  0
   -3.3977    2.9640    4.1493 H   0  0  0  0  0  0  0  0  0  0  0  0
   -4.5405    3.7039    0.0581 H   0  0  0  0  0  0  0  0  0  0  0  0
   -4.7590    5.0696    1.2415 H   0  0  0  0  0  0  0  0  0  0  0  0
   -3.2538    4.5050    0.9129 H   0  0  0  0  0  0  0  0  0  0  0  0
  1  2  1  0  0  0  0
  1 36  1  0  0  0  0
  1 37  1  0  0  0  0
  1 38  1  0  0  0  0
  2  3  1  0  0  0  0
  2  4  1  0  0  0  0
  2 39  1  0  0  0  0
  3 40  1  0  0  0  0
  3 41  1  0  0  0  0
  3 42  1  0  0  0  0
  4  5  2  0  0  0  0
  4  9  1  0  0  0  0
  5  6  1  0  0  0  0
  5 43  1  0  0  0  0
  6  7  2  0  0  0  0
  6 44  1  0  0  0  0
  7  8  1  0  0  0  0
  7 45  1  0  0  0  0
  8  9  2  0  0  0  0
  8 33  1  0  0  0  0
  9 10  1  0  0  0  0
 10 11  1  0  0  0  0
 11 12  2  0  0  0  0
 11 13  2  0  0  0  0
 11 14  1  0  0  0  0
 14 15  1  0  0  0  0
 14 46  1  0  0  0  0
 15 16  2  0  0  0  0
 15 17  1  0  0  0  0
 17 18  1  0  0  0  0
 17 47  1  0  0  0  0
 17 48  1  0  0  0  0
 18 19  2  0  0  0  0
 18 23  1  0  0  0  0
 19 20  1  0  0  0  0
 19 30  1  0  0  0  0
 20 21  2  0  0  0  0
 20 49  1  0  0  0  0
 21 22  1  0  0  0  0
 21 27  1  0  0  0  0
 22 23  2  0  0  0  0
 22 50  1  0  0  0  0
 23 24  1  0  0  0  0
 24 25  1  0  0  0  0
 24 26  1  0  0  0  0
 24 51  1  0  0  0  0
 25 52  1  0  0  0  0
 25 53  1  0  0  0  0
 25 54  1  0  0  0  0
 26 55  1  0  0  0  0
 26 56  1  0  0  0  0
 26 57  1  0  0  0  0
 27 28  1  0  0  0  0
 27 29  1  0  0  0  0
 27 58  1  0  0  0  0
 28 59  1  0  0  0  0
 28 60  1  0  0  0  0
 28 61  1  0  0  0  0
 29 62  1  0  0  0  0
 29 63  1  0  0  0  0
 29 64  1  0  0  0  0
 30 31  1  0  0  0  0
 30 32  1  0  0  0  0
 30 65  1  0  0  0  0
 31 66  1  0  0  0  0
 31 67  1  0  0  0  0
 31 68  1  0  0  0  0
 32 69  1  0  0  0  0
 32 70  1  0  0  0  0
 32 71  1  0  0  0  0
 33 34  1  0  0  0  0
 33 35  1  0  0  0  0
 33 72  1  0  0  0  0
 34 73  1  0  0  0  0
 34 74  1  0  0  0  0
 34 75  1  0  0  0  0
 35 76  1  0  0  0  0
 35 77  1  0  0  0  0
 35 78  1  0  0  0  0
M  END
>  <DRUGBANK_ID>
DB06442

>  <COMMON_NAME>
Avasimibe

>  <CAS_NUMBER>
166518-60-1

>  <UNII>
28LQ20T5RC

>  <SYNONYMS>
Avasimibe

$$$$
