
 OpenBabel10282417143D

 30 32  0  0  0  0  0  0  0  0999 V2000
   -0.8992   -1.4174    0.0069 C   0  0  0  0  0  0  0  0  0  0  0  0
   -0.2322    4.8788    0.9477 C   0  0  0  0  0  0  0  0  0  0  0  0
   -2.0062    0.6177   -0.0150 C   0  0  0  0  0  0  0  0  0  0  0  0
    2.3170   -0.0156    0.0350 C   0  0  0  0  0  0  0  0  0  0  0  0
    0.3075   -0.7253    0.0257 C   0  0  0  0  0  0  0  0  0  0  0  0
    1.2400    4.5704    0.6244 C   0  0  2  0  0  0  0  0  0  0  0  0
    1.5813    4.6407   -0.8681 C   0  0  2  0  0  0  0  0  0  0  0  0
    1.5583    3.1864   -1.3138 C   0  0  2  0  0  0  0  0  0  0  0  0
    0.2176    0.6610    0.0174 C   0  0  0  0  0  0  0  0  0  0  0  0
    2.0023    2.4584   -0.0511 C   0  0  2  0  0  0  0  0  0  0  0  0
   -2.0699   -0.7308   -0.0030 N   0  0  0  0  0  0  0  0  0  0  0  0
   -0.9015    1.3885   -0.0365 N   0  0  0  0  0  0  0  0  0  0  0  0
    1.6173   -1.1328    0.0321 N   0  0  0  0  0  0  0  0  0  0  0  0
    1.5144    1.0971    0.0475 N   0  0  0  0  0  0  0  0  0  0  0  0
   -1.1889    4.0523    0.3100 O   0  0  0  0  0  0  0  0  0  0  0  0
    2.8922    5.1891   -1.0864 O   0  0  0  0  0  0  0  0  0  0  0  0
    2.4160    2.9199   -2.4218 O   0  0  0  0  0  0  0  0  0  0  0  0
    1.5913    3.2422    1.0830 O   0  0  0  0  0  0  0  0  0  0  0  0
    1.8586    5.2763    1.1939 H   0  0  0  0  0  0  0  0  0  0  0  0
    0.8826    5.2680   -1.4302 H   0  0  0  0  0  0  0  0  0  0  0  0
    0.5458    2.9057   -1.6105 H   0  0  0  0  0  0  0  0  0  0  0  0
    3.0984    2.4051   -0.0151 H   0  0  0  0  0  0  0  0  0  0  0  0
   -0.9560   -2.4978    0.0005 H   0  0  0  0  0  0  0  0  0  0  0  0
   -0.4000    4.7667    2.0238 H   0  0  0  0  0  0  0  0  0  0  0  0
   -0.4698    5.9091    0.6699 H   0  0  0  0  0  0  0  0  0  0  0  0
   -2.9560    1.1431   -0.0098 H   0  0  0  0  0  0  0  0  0  0  0  0
    3.3963    0.0439    0.0140 H   0  0  0  0  0  0  0  0  0  0  0  0
   -0.9831    3.9245   -0.6276 H   0  0  0  0  0  0  0  0  0  0  0  0
    3.5369    4.7551   -0.5026 H   0  0  0  0  0  0  0  0  0  0  0  0
    3.2386    3.4288   -2.2984 H   0  0  0  0  0  0  0  0  0  0  0  0
  1 23  1  0  0  0  0
  2 24  1  0  0  0  0
  2 25  1  0  0  0  0
  3 26  1  0  0  0  0
  4 27  1  0  0  0  0
  5  1  2  0  0  0  0
  6 19  1  1  0  0  0
  6  2  1  0  0  0  0
  7  6  1  0  0  0  0
  7 16  1  0  0  0  0
  7 20  1  6  0  0  0
  8  7  1  0  0  0  0
  8 17  1  0  0  0  0
  8 21  1  6  0  0  0
  9  5  1  0  0  0  0
 10  8  1  0  0  0  0
 10 14  1  0  0  0  0
 10 22  1  6  0  0  0
 11  1  1  0  0  0  0
 11  3  2  0  0  0  0
 12  3  1  0  0  0  0
 12  9  2  0  0  0  0
 13  4  2  0  0  0  0
 13  5  1  0  0  0  0
 14  4  1  0  0  0  0
 14  9  1  0  0  0  0
 15  2  1  0  0  0  0
 15 28  1  0  0  0  0
 16 29  1  0  0  0  0
 17 30  1  0  0  0  0
 18  6  1  0  0  0  0
 18 10  1  0  0  0  0
M  END
>  <DRUGBANK_ID>
DB04440

>  <SECONDARY_ACCESSION_NUMBERS>
EXPT02701

>  <COMMON_NAME>
Nebularine

>  <CAS_NUMBER>
550-33-4

>  <UNII>
B8B604PS4P

>  <SYNONYMS>
N-D-Ribosylpurine; Purine nucleoside; Purine riboside

$$$$
