
 OpenBabel10282417243D

 62 65  0  0  0  0  0  0  0  0999 V2000
    1.0878   -0.1500   -0.1475 C   0  0  0  0  0  0  0  0  0  0  0  0
    0.5417    0.5469   -1.2620 O   0  0  0  0  0  0  0  0  0  0  0  0
    0.9812    1.9159   -1.3403 C   0  0  0  0  0  0  0  0  0  0  0  0
    0.5391    2.7868   -0.1978 C   0  0  0  0  0  0  0  0  0  0  0  0
   -0.0164    2.2476    0.8943 N   0  0  0  0  0  0  0  0  0  0  0  0
   -0.1459    3.2453    1.7486 N   0  0  0  0  0  0  0  0  0  0  0  0
   -0.6369    3.0645    3.0993 C   0  0  0  0  0  0  0  0  0  0  0  0
   -2.0369    2.5482    3.0971 C   0  0  0  0  0  0  0  0  0  0  0  0
   -2.3248    1.2821    2.5670 C   0  0  0  0  0  0  0  0  0  0  0  0
   -3.6148    0.7691    2.5957 C   0  0  0  0  0  0  0  0  0  0  0  0
   -4.6419    1.5161    3.1755 C   0  0  0  0  0  0  0  0  0  0  0  0
   -6.0686    1.0001    3.1690 C   0  0  0  0  0  0  0  0  0  0  0  0
   -6.6325    0.7778    4.5049 N   0  0  0  0  0  0  0  0  0  0  0  0
   -6.7218    1.8197    5.4153 C   0  0  0  0  0  0  0  0  0  0  0  0
   -6.9100    1.6032    6.7192 C   0  0  0  0  0  0  0  0  0  0  0  0
   -7.2859    0.2914    7.1618 C   0  0  0  0  0  0  0  0  0  0  0  0
   -7.4339   -0.6997    6.2737 C   0  0  0  0  0  0  0  0  0  0  0  0
   -6.9813   -0.5223    4.8650 C   0  0  0  0  0  0  0  0  0  0  0  0
   -6.9447   -1.4996    4.1240 O   0  0  0  0  0  0  0  0  0  0  0  0
   -4.3308    2.7834    3.6979 C   0  0  0  0  0  0  0  0  0  0  0  0
   -3.0561    3.3136    3.6408 C   0  0  0  0  0  0  0  0  0  0  0  0
    0.2544    4.4253    1.2264 C   0  0  0  0  0  0  0  0  0  0  0  0
    0.7053    4.1967   -0.0589 C   0  0  0  0  0  0  0  0  0  0  0  0
    1.2684    5.0725   -1.0836 C   0  0  0  0  0  0  0  0  0  0  0  0
    1.6437    4.6390   -2.1639 O   0  0  0  0  0  0  0  0  0  0  0  0
    1.3907    6.4204   -0.8724 N   0  0  0  0  0  0  0  0  0  0  0  0
    1.1175    7.1880    0.3036 C   0  0  0  0  0  0  0  0  0  0  0  0
    2.3373    7.6714    1.0145 C   0  0  0  0  0  0  0  0  0  0  0  0
    2.4542    9.0112    1.1372 N   0  0  0  0  0  0  0  0  0  0  0  0
    3.3942    9.4536    1.9886 C   0  0  0  0  0  0  0  0  0  0  0  0
    4.1749    8.6215    2.7759 C   0  0  0  0  0  0  0  0  0  0  0  0
    4.1474    7.2501    2.5320 C   0  0  0  0  0  0  0  0  0  0  0  0
    5.0790    6.5094    3.2106 O   0  0  0  0  0  0  0  0  0  0  0  0
    5.2037    5.1390    2.8274 C   0  0  0  0  0  0  0  0  0  0  0  0
    3.2060    6.7697    1.6314 C   0  0  0  0  0  0  0  0  0  0  0  0
    3.0948    5.4582    1.3787 F   0  0  0  0  0  0  0  0  0  0  0  0
    0.7372   -1.1813   -0.1842 H   0  0  0  0  0  0  0  0  0  0  0  0
    0.7421    0.2274    0.8139 H   0  0  0  0  0  0  0  0  0  0  0  0
    2.1791   -0.1141   -0.1630 H   0  0  0  0  0  0  0  0  0  0  0  0
    2.0761    1.9342   -1.4103 H   0  0  0  0  0  0  0  0  0  0  0  0
    0.5874    2.3181   -2.2809 H   0  0  0  0  0  0  0  0  0  0  0  0
    0.0352    2.3925    3.6381 H   0  0  0  0  0  0  0  0  0  0  0  0
   -0.5933    4.0417    3.6002 H   0  0  0  0  0  0  0  0  0  0  0  0
   -1.5362    0.6982    2.0947 H   0  0  0  0  0  0  0  0  0  0  0  0
   -3.7922   -0.2088    2.1536 H   0  0  0  0  0  0  0  0  0  0  0  0
   -6.7020    1.7091    2.6254 H   0  0  0  0  0  0  0  0  0  0  0  0
   -6.0953    0.0657    2.5933 H   0  0  0  0  0  0  0  0  0  0  0  0
   -6.6033    2.8296    5.0568 H   0  0  0  0  0  0  0  0  0  0  0  0
   -6.8678    2.4190    7.4327 H   0  0  0  0  0  0  0  0  0  0  0  0
   -7.5540    0.1662    8.2036 H   0  0  0  0  0  0  0  0  0  0  0  0
   -7.8462   -1.6645    6.5298 H   0  0  0  0  0  0  0  0  0  0  0  0
   -5.0694    3.4105    4.1695 H   0  0  0  0  0  0  0  0  0  0  0  0
   -2.8893    4.3171    4.0243 H   0  0  0  0  0  0  0  0  0  0  0  0
    0.1634    5.2487    1.9046 H   0  0  0  0  0  0  0  0  0  0  0  0
    1.8158    6.9081   -1.6497 H   0  0  0  0  0  0  0  0  0  0  0  0
    0.4116    7.9814    0.0499 H   0  0  0  0  0  0  0  0  0  0  0  0
    0.5759    6.6446    1.0416 H   0  0  0  0  0  0  0  0  0  0  0  0
    3.5172   10.5312    2.0026 H   0  0  0  0  0  0  0  0  0  0  0  0
    4.8208    9.0463    3.5349 H   0  0  0  0  0  0  0  0  0  0  0  0
    4.3158    4.5770    3.1338 H   0  0  0  0  0  0  0  0  0  0  0  0
    5.3937    5.0301    1.7527 H   0  0  0  0  0  0  0  0  0  0  0  0
    6.0623    4.7100    3.3529 H   0  0  0  0  0  0  0  0  0  0  0  0
  1  2  1  0  0  0  0
  1 37  1  0  0  0  0
  1 38  1  0  0  0  0
  1 39  1  0  0  0  0
  2  3  1  0  0  0  0
  3  4  1  0  0  0  0
  3 40  1  0  0  0  0
  3 41  1  0  0  0  0
  4  5  2  0  0  0  0
  4 23  1  0  0  0  0
  5  6  1  0  0  0  0
  6  7  1  0  0  0  0
  6 22  1  0  0  0  0
  7  8  1  0  0  0  0
  7 42  1  0  0  0  0
  7 43  1  0  0  0  0
  8  9  2  0  0  0  0
  8 21  1  0  0  0  0
  9 10  1  0  0  0  0
  9 44  1  0  0  0  0
 10 11  2  0  0  0  0
 10 45  1  0  0  0  0
 11 12  1  0  0  0  0
 11 20  1  0  0  0  0
 12 13  1  0  0  0  0
 12 46  1  0  0  0  0
 12 47  1  0  0  0  0
 13 14  1  0  0  0  0
 13 18  1  0  0  0  0
 14 15  2  0  0  0  0
 14 48  1  0  0  0  0
 15 16  1  0  0  0  0
 15 49  1  0  0  0  0
 16 17  2  0  0  0  0
 16 50  1  0  0  0  0
 17 18  1  0  0  0  0
 17 51  1  0  0  0  0
 18 19  2  0  0  0  0
 20 21  2  0  0  0  0
 20 52  1  0  0  0  0
 21 53  1  0  0  0  0
 22 23  2  0  0  0  0
 22 54  1  0  0  0  0
 23 24  1  0  0  0  0
 24 25  2  0  0  0  0
 24 26  1  0  0  0  0
 26 27  1  0  0  0  0
 26 55  1  0  0  0  0
 27 28  1  0  0  0  0
 27 56  1  0  0  0  0
 27 57  1  0  0  0  0
 28 29  2  0  0  0  0
 28 35  1  0  0  0  0
 29 30  1  0  0  0  0
 30 31  2  0  0  0  0
 30 58  1  0  0  0  0
 31 32  1  0  0  0  0
 31 59  1  0  0  0  0
 32 33  1  0  0  0  0
 32 35  2  0  0  0  0
 33 34  1  0  0  0  0
 34 60  1  0  0  0  0
 34 61  1  0  0  0  0
 34 62  1  0  0  0  0
 35 36  1  0  0  0  0
M  END
>  <DRUGBANK_ID>
DB18305

>  <COMMON_NAME>
Sebetralstat

>  <CAS_NUMBER>
1933514-13-6

>  <UNII>
O5ZD2TU2B7

>  <SYNONYMS>
1H-Pyrazole-4-carboxamide, N-[(3-fluoro-4-methoxy-2-pyridinyl)methyl]-3-methoxymethyl)-1-[[4-[(2-oxo-1(2H)-pyridinyl)methyl]phenyl]methyl]-; N-[(3-fluoro-4-methoxypyridin-2-yl) methyl]-3-(methoxymethyl)-1-({4-[(2-oxo-1,2-dihydropyridin-1-yl) methyl]phenyl}methyl)-1H-pyrazole-4-carboxamide; N-[(3-fluoro-4-methoxypyridin-2-yl)methyl]-3-(methoxymethyl)-1-({4-[(2-oxopyridin-1(2H)-yl)methyl]phenyl}methyl)-1H-pyrazol-4-carboxamide

$$$$
