
 OpenBabel10282417153D

 58 53  0  0  0  0  0  0  0  0999 V2000
    1.0679   -0.0717    0.0156 C   0  0  0  0  0  0  0  0  0  0  0  0
    0.5613   -0.5960   -1.3182 C   0  0  0  0  0  0  0  0  0  0  0  0
    1.0513   -1.9666   -1.5239 N   0  0  0  0  0  0  0  0  0  0  0  0
    0.5613   -2.4737   -2.8138 C   0  0  0  0  0  0  0  0  0  0  0  0
    1.0679   -1.5808   -3.9347 C   0  0  0  0  0  0  0  0  0  0  0  0
    2.5879   -1.5808   -3.9347 C   0  0  0  0  0  0  0  0  0  0  0  0
    3.0779   -2.9514   -4.1405 N   0  0  0  0  0  0  0  0  0  0  0  0
    4.5479   -2.9514   -4.1405 C   0  0  0  0  0  0  0  0  0  0  0  0
    5.0546   -2.4271   -2.8068 C   0  0  0  0  0  0  0  0  0  0  0  0
    5.8367   -3.2138   -2.0194 C   0  0  0  0  0  0  0  0  0  0  0  0
    6.2039   -4.6172   -2.4733 C   0  0  0  0  0  0  0  0  0  0  0  0
    7.6657   -4.7313   -2.5791 N   0  0  0  0  0  0  0  0  0  0  0  0
    8.0208   -6.0885   -3.0181 C   0  0  0  0  0  0  0  0  0  0  0  0
    7.3917   -6.3632   -4.3743 C   0  0  0  0  0  0  0  0  0  0  0  0
    7.9069   -5.3524   -5.3859 C   0  0  0  0  0  0  0  0  0  0  0  0
    9.3686   -5.4665   -5.4916 N   0  0  0  0  0  0  0  0  0  0  0  0
    9.8669   -4.4889   -6.4700 C   0  0  0  0  0  0  0  0  0  0  0  0
    9.4997   -3.0855   -6.0160 C   0  0  0  0  0  0  0  0  0  0  0  0
    0.9640   -0.0074   -0.0930 Cl  0  0  0  0  0  0  0  0  0  0  0  0
    0.9338    0.0745   -0.0084 Cl  0  0  0  0  0  0  0  0  0  0  0  0
    0.9069    0.0208   -0.0299 Cl  0  0  0  0  0  0  0  0  0  0  0  0
    0.9016   -0.0170   -0.0050 Cl  0  0  0  0  0  0  0  0  0  0  0  0
    0.7113   -0.7002    0.8046 H   0  0  0  0  0  0  0  0  0  0  0  0
    0.7113    0.9259    0.1653 H   0  0  0  0  0  0  0  0  0  0  0  0
    2.1379   -0.0717    0.0156 H   0  0  0  0  0  0  0  0  0  0  0  0
   -0.5087   -0.5960   -1.3182 H   0  0  0  0  0  0  0  0  0  0  0  0
    0.9179    0.0325   -2.1072 H   0  0  0  0  0  0  0  0  0  0  0  0
    2.0713   -1.9666   -1.5239 H   0  0  0  0  0  0  0  0  0  0  0  0
    0.9179   -3.4713   -2.9635 H   0  0  0  0  0  0  0  0  0  0  0  0
   -0.5087   -2.4737   -2.8138 H   0  0  0  0  0  0  0  0  0  0  0  0
    0.7113   -1.9499   -4.8736 H   0  0  0  0  0  0  0  0  0  0  0  0
    0.7113   -0.5832   -3.7849 H   0  0  0  0  0  0  0  0  0  0  0  0
    2.9446   -0.9523   -4.7238 H   0  0  0  0  0  0  0  0  0  0  0  0
    2.9446   -1.2117   -2.9958 H   0  0  0  0  0  0  0  0  0  0  0  0
    2.7379   -3.5505   -3.3883 H   0  0  0  0  0  0  0  0  0  0  0  0
    4.9046   -3.9490   -4.2903 H   0  0  0  0  0  0  0  0  0  0  0  0
    4.9046   -2.3229   -4.9296 H   0  0  0  0  0  0  0  0  0  0  0  0
    4.7961   -1.4392   -2.4872 H   0  0  0  0  0  0  0  0  0  0  0  0
    6.1934   -2.8447   -1.0805 H   0  0  0  0  0  0  0  0  0  0  0  0
    5.8412   -5.3288   -1.7612 H   0  0  0  0  0  0  0  0  0  0  0  0
    5.7611   -4.8106   -3.4280 H   0  0  0  0  0  0  0  0  0  0  0  0
    8.0114   -4.0530   -3.2579 H   0  0  0  0  0  0  0  0  0  0  0  0
    9.0848   -6.1715   -3.0951 H   0  0  0  0  0  0  0  0  0  0  0  0
    7.6581   -6.8000   -2.3060 H   0  0  0  0  0  0  0  0  0  0  0  0
    7.6502   -7.3511   -4.6938 H   0  0  0  0  0  0  0  0  0  0  0  0
    6.3277   -6.2802   -4.2973 H   0  0  0  0  0  0  0  0  0  0  0  0
    7.4641   -5.5458   -6.3405 H   0  0  0  0  0  0  0  0  0  0  0  0
    7.6484   -4.3645   -5.0663 H   0  0  0  0  0  0  0  0  0  0  0  0
    9.7908   -5.2821   -4.5816 H   0  0  0  0  0  0  0  0  0  0  0  0
   10.9309   -4.5719   -6.5469 H   0  0  0  0  0  0  0  0  0  0  0  0
    9.4241   -4.6823   -7.4246 H   0  0  0  0  0  0  0  0  0  0  0  0
    9.9425   -2.8922   -5.0613 H   0  0  0  0  0  0  0  0  0  0  0  0
    9.8624   -2.3740   -6.7281 H   0  0  0  0  0  0  0  0  0  0  0  0
    8.4357   -3.0025   -5.9390 H   0  0  0  0  0  0  0  0  0  0  0  0
    2.2940   -0.0074   -0.0930 H   0  0  0  0  0  0  0  0  0  0  0  0
    2.2638    0.0745   -0.0084 H   0  0  0  0  0  0  0  0  0  0  0  0
    2.2369    0.0208   -0.0299 H   0  0  0  0  0  0  0  0  0  0  0  0
    2.2316   -0.0170   -0.0050 H   0  0  0  0  0  0  0  0  0  0  0  0
  1  2  1  0  0  0  0
  1 23  1  0  0  0  0
  1 24  1  0  0  0  0
  1 25  1  0  0  0  0
  2  3  1  0  0  0  0
  2 26  1  0  0  0  0
  2 27  1  0  0  0  0
  3  4  1  0  0  0  0
  3 28  1  0  0  0  0
  4  5  1  0  0  0  0
  4 29  1  0  0  0  0
  4 30  1  0  0  0  0
  5  6  1  0  0  0  0
  5 31  1  0  0  0  0
  5 32  1  0  0  0  0
  6  7  1  0  0  0  0
  6 33  1  0  0  0  0
  6 34  1  0  0  0  0
  7  8  1  0  0  0  0
  7 35  1  0  0  0  0
  8  9  1  0  0  0  0
  8 36  1  0  0  0  0
  8 37  1  0  0  0  0
  9 10  2  0  0  0  0
  9 38  1  0  0  0  0
 10 11  1  0  0  0  0
 10 39  1  0  0  0  0
 11 12  1  0  0  0  0
 11 40  1  0  0  0  0
 11 41  1  0  0  0  0
 12 13  1  0  0  0  0
 12 42  1  0  0  0  0
 13 14  1  0  0  0  0
 13 43  1  0  0  0  0
 13 44  1  0  0  0  0
 14 15  1  0  0  0  0
 14 45  1  0  0  0  0
 14 46  1  0  0  0  0
 15 16  1  0  0  0  0
 15 47  1  0  0  0  0
 15 48  1  0  0  0  0
 16 17  1  0  0  0  0
 16 49  1  0  0  0  0
 17 18  1  0  0  0  0
 17 50  1  0  0  0  0
 17 51  1  0  0  0  0
 18 52  1  0  0  0  0
 18 53  1  0  0  0  0
 18 54  1  0  0  0  0
 19 55  1  0  0  0  0
 20 56  1  0  0  0  0
 21 57  1  0  0  0  0
 22 58  1  0  0  0  0
M  END
>  <DRUGBANK_ID>
DB05722

>  <COMMON_NAME>
CGC-11047

>  <CAS_NUMBER>
206991-64-2

>  <UNII>
HU43305R7O

$$$$
