
 OpenBabel10282417143D

150151  0  0  1  0  0  0  0  0999 V2000
    4.3965   31.7336  -57.6110 C   0  0  0  0  0  0  0  0  0  0  0  0
    2.1291   28.3748  -54.5752 C   0  0  0  0  0  0  0  0  0  0  0  0
   -1.5470   18.2808  -53.9592 C   0  0  0  0  0  0  0  0  0  0  0  0
    2.1913   20.8102  -53.2337 C   0  0  0  0  0  0  0  0  0  0  0  0
    2.1599   15.5906  -57.7886 C   0  0  0  0  0  0  0  0  0  0  0  0
   -0.3895   28.6952  -59.5609 C   0  0  0  0  0  0  0  0  0  0  0  0
   -1.9319   22.1033  -55.3595 C   0  0  0  0  0  0  0  0  0  0  0  0
    1.0239   25.2296  -57.9251 C   0  0  0  0  0  0  0  0  0  0  0  0
    4.5338   28.6774  -59.8291 C   0  0  0  0  0  0  0  0  0  0  0  0
    6.7034   27.9609  -59.3191 C   0  0  0  0  0  0  0  0  0  0  0  0
    4.5550   17.8500  -55.9136 C   0  0  0  0  0  0  0  0  0  0  0  0
    4.6682   23.8968  -54.0279 C   0  0  0  0  0  0  0  0  0  0  0  0
    2.4146   30.4327  -56.0238 C   0  0  0  0  0  0  0  0  0  0  0  0
    1.4778   20.2966  -55.7535 C   0  0  0  0  0  0  0  0  0  0  0  0
    2.6870   26.5548  -53.4010 C   0  0  0  0  0  0  0  0  0  0  0  0
    3.8821   28.4483  -54.6219 C   0  0  0  0  0  0  0  0  0  0  0  0
    1.7537   24.8287  -52.7410 C   0  0  0  0  0  0  0  0  0  0  0  0
    4.0831   27.7453  -56.4633 C   0  0  0  0  0  0  0  0  0  0  0  0
    1.9600   22.8175  -55.3696 C   0  0  0  0  0  0  0  0  0  0  0  0
   -0.5764   17.4156  -56.0591 C   0  0  0  0  0  0  0  0  0  0  0  0
    2.9881   28.0030  -57.2254 C   0  0  0  0  0  0  0  0  0  0  0  0
    2.3712   24.0818  -55.2396 C   0  0  0  0  0  0  0  0  0  0  0  0
    0.4134   17.6780  -57.1510 C   0  0  0  0  0  0  0  0  0  0  0  0
    4.5787   15.1119  -56.2477 C   0  0  0  0  0  0  0  0  0  0  0  0
    5.6477   15.7701  -57.1687 C   0  0  0  0  0  0  0  0  0  0  0  0
    4.8415   30.3442  -58.0651 C   0  0  0  0  0  0  0  0  0  0  0  0
    4.8616   30.8874  -60.6947 C   0  0  0  0  0  0  0  0  0  0  0  0
    2.2177   31.0416  -60.2725 C   0  0  0  0  0  0  0  0  0  0  0  0
    2.7786   29.8928  -62.1823 C   0  0  0  0  0  0  0  0  0  0  0  0
    4.2376   25.2738  -56.3472 C   0  0  0  0  0  0  0  0  0  0  0  0
    2.1208   30.8722  -58.0122 C   0  0  0  0  0  0  0  0  0  0  0  0
    4.4119   29.9132  -56.0255 C   0  0  0  0  0  0  0  0  0  0  0  0
    3.3919   26.8516  -55.2749 C   0  0  1  0  0  0  0  0  0  0  0  0
   -0.5650   18.5472  -55.0601 C   0  0  1  0  0  0  0  0  0  0  0  0
    1.6757   22.0097  -54.0904 C   0  0  1  0  0  0  0  0  0  0  0  0
    2.7837   16.6854  -57.0447 C   0  0  1  0  0  0  0  0  0  0  0  0
    0.5787   29.7364  -59.1077 C   0  0  2  0  0  0  0  0  0  0  0  0
   -1.1334   20.9699  -54.7818 C   0  0  1  0  0  0  0  0  0  0  0  0
    3.2234   30.6615  -61.1729 C   0  0  0  0  0  0  0  0  0  0  0  0
    2.7008   24.9482  -56.3327 C   0  0  1  0  0  0  0  0  0  0  0  0
    2.9332   29.1302  -58.1485 C   0  0  2  0  0  0  0  0  0  0  0  0
    5.9842   30.5230  -59.2759 C   0  0  2  0  0  0  0  0  0  0  0  0
    1.8019   17.6768  -56.6362 C   0  0  0  0  0  0  0  0  0  0  0  0
    3.4938   16.0936  -55.7926 C   0  0  2  0  0  0  0  0  0  0  0  0
    4.6377   25.9468  -55.0294 C   0  0  1  0  0  0  0  0  0  0  0  0
    0.8544   30.4678  -57.7913 C   0  0  1  0  0  0  0  0  0  0  0  0
    0.8391   30.6452  -60.3151 C   0  0  2  0  0  0  0  0  0  0  0  0
    6.7797   16.8500  -56.5322 C   0  0  0  0  0  0  0  0  0  0  0  0
    0.6934   22.8169  -52.1138 C   0  0  0  0  0  0  0  0  0  0  0  0
    1.3887   29.4280  -62.2173 C   0  0  0  0  0  0  0  0  0  0  0  0
   -0.7925   19.8855  -55.7657 C   0  0  1  0  0  0  0  0  0  0  0  0
    0.0395   21.6770  -54.1047 C   0  0  1  0  0  0  0  0  0  0  0  0
    2.2438   18.4297  -55.8100 O   0  0  0  0  0  0  0  0  0  0  0  0
    7.9077   16.6772  -56.2074 O   0  0  0  0  0  0  0  0  0  0  0  0
    6.6267   18.2301  -56.0912 O   0  0  0  0  0  0  0  0  0  0  0  0
   -0.3073   21.7748  -51.3500 O   0  0  0  0  0  0  0  0  0  0  0  0
    1.2133   28.2393  -62.4305 O   0  0  0  0  0  0  0  0  0  0  0  0
    1.6044   24.4130  -57.0009 O   0  0  0  0  0  0  0  0  0  0  0  0
    3.2661   28.5668  -59.3548 O   0  0  0  0  0  0  0  0  0  0  0  0
    6.2384   29.3763  -58.4681 O   0  0  0  0  0  0  0  0  0  0  0  0
    4.0397   17.0682  -54.9727 O   0  0  0  0  0  0  0  0  0  0  0  0
    5.2442   25.1264  -54.1015 O   0  0  0  0  0  0  0  0  0  0  0  0
    1.1856   30.5052  -56.4430 O   0  0  0  0  0  0  0  0  0  0  0  0
    0.3523   20.2753  -56.5227 O   0  0  0  0  0  0  0  0  0  0  0  0
    0.4525   30.0467  -61.5030 O   0  0  0  0  0  0  0  0  0  0  0  0
    0.0438   21.2327  -52.9053 O   0  0  0  0  0  0  0  0  0  0  0  0
    2.3307   25.6499  -52.1618 H   0  0  0  0  0  0  0  0  0  0  0  0
    4.4326   29.7762  -54.9489 H   0  0  0  0  0  0  0  0  0  0  0  0
    1.0196   23.3970  -52.6627 H   0  0  0  0  0  0  0  0  0  0  0  0
    5.0754   28.3777  -56.2757 H   0  0  0  0  0  0  0  0  0  0  0  0
    1.7220   22.4756  -56.3866 H   0  0  0  0  0  0  0  0  0  0  0  0
    1.9664   28.0747  -56.8016 H   0  0  0  0  0  0  0  0  0  0  0  0
    2.4931   24.4155  -54.2748 H   0  0  0  0  0  0  0  0  0  0  0  0
    3.6368   27.0393  -54.3213 H   0  0  0  0  0  0  0  0  0  0  0  0
    0.4033   18.5697  -54.5954 H   0  0  0  0  0  0  0  0  0  0  0  0
    2.5658   22.5005  -53.8570 H   0  0  0  0  0  0  0  0  0  0  0  0
    3.5061   17.1912  -57.7041 H   0  0  0  0  0  0  0  0  0  0  0  0
    1.1712   28.9126  -58.7893 H   0  0  0  0  0  0  0  0  0  0  0  0
   -1.7726   20.5475  -53.9997 H   0  0  0  0  0  0  0  0  0  0  0  0
    2.6189   25.9411  -56.7150 H   0  0  0  0  0  0  0  0  0  0  0  0
    3.7063   29.4626  -57.4959 H   0  0  0  0  0  0  0  0  0  0  0  0
    6.1913   29.7682  -60.1187 H   0  0  0  0  0  0  0  0  0  0  0  0
    2.7885   15.6483  -55.1409 H   0  0  0  0  0  0  0  0  0  0  0  0
    5.3853   26.6718  -54.7293 H   0  0  0  0  0  0  0  0  0  0  0  0
   -0.0571   30.7203  -57.4477 H   0  0  0  0  0  0  0  0  0  0  0  0
    0.3768   31.6399  -60.4122 H   0  0  0  0  0  0  0  0  0  0  0  0
   -1.6002   19.7586  -56.4845 H   0  0  0  0  0  0  0  0  0  0  0  0
    0.0917   22.5416  -54.6675 H   0  0  0  0  0  0  0  0  0  0  0  0
    3.6238   33.0929  -58.1081 H   0  0  0  0  0  0  0  0  0  0  0  0
    3.7397   32.1103  -59.1316 H   0  0  0  0  0  0  0  0  0  0  0  0
    4.8863   32.7877  -58.8282 H   0  0  0  0  0  0  0  0  0  0  0  0
    3.0456   29.4816  -53.8422 H   0  0  0  0  0  0  0  0  0  0  0  0
    2.2664   28.7958  -55.4644 H   0  0  0  0  0  0  0  0  0  0  0  0
    2.1624   28.6484  -53.5851 H   0  0  0  0  0  0  0  0  0  0  0  0
   -2.5482   18.2265  -54.3709 H   0  0  0  0  0  0  0  0  0  0  0  0
   -1.3059   17.3614  -53.4449 H   0  0  0  0  0  0  0  0  0  0  0  0
   -1.5180   19.0656  -53.2111 H   0  0  0  0  0  0  0  0  0  0  0  0
    2.9672   20.2493  -53.6816 H   0  0  0  0  0  0  0  0  0  0  0  0
    2.4558   21.2541  -52.2982 H   0  0  0  0  0  0  0  0  0  0  0  0
    1.4163   20.0532  -53.0181 H   0  0  0  0  0  0  0  0  0  0  0  0
    1.9160   14.7762  -57.1223 H   0  0  0  0  0  0  0  0  0  0  0  0
    1.2804   15.8472  -58.3231 H   0  0  0  0  0  0  0  0  0  0  0  0
    2.8618   15.2870  -58.5387 H   0  0  0  0  0  0  0  0  0  0  0  0
   -0.2700   27.8339  -58.9171 H   0  0  0  0  0  0  0  0  0  0  0  0
   -1.3819   29.0792  -59.5288 H   0  0  0  0  0  0  0  0  0  0  0  0
   -0.1877   28.3195  -60.5785 H   0  0  0  0  0  0  0  0  0  0  0  0
   -1.3538   22.5631  -56.1551 H   0  0  0  0  0  0  0  0  0  0  0  0
   -2.8785   21.7595  -55.7434 H   0  0  0  0  0  0  0  0  0  0  0  0
   -2.1119   22.8519  -54.5813 H   0  0  0  0  0  0  0  0  0  0  0  0
    0.7427   26.1702  -57.4696 H   0  0  0  0  0  0  0  0  0  0  0  0
    1.7777   25.3724  -58.6787 H   0  0  0  0  0  0  0  0  0  0  0  0
    0.1530   24.7454  -58.3392 H   0  0  0  0  0  0  0  0  0  0  0  0
    4.0288   29.0691  -60.6417 H   0  0  0  0  0  0  0  0  0  0  0  0
    5.0963   27.9700  -58.8163 H   0  0  0  0  0  0  0  0  0  0  0  0
    5.0295   28.2905  -60.6563 H   0  0  0  0  0  0  0  0  0  0  0  0
    6.0222   27.4001  -60.0608 H   0  0  0  0  0  0  0  0  0  0  0  0
    7.4057   28.5538  -59.7305 H   0  0  0  0  0  0  0  0  0  0  0  0
    6.6937   27.2864  -58.4997 H   0  0  0  0  0  0  0  0  0  0  0  0
    5.2491   17.1713  -56.0698 H   0  0  0  0  0  0  0  0  0  0  0  0
    4.5816   18.3021  -56.8923 H   0  0  0  0  0  0  0  0  0  0  0  0
    4.9658   18.5664  -55.3371 H   0  0  0  0  0  0  0  0  0  0  0  0
    3.7492   24.0359  -53.5371 H   0  0  0  0  0  0  0  0  0  0  0  0
    4.5660   23.4371  -55.0038 H   0  0  0  0  0  0  0  0  0  0  0  0
    5.1720   23.2536  -53.3600 H   0  0  0  0  0  0  0  0  0  0  0  0
    2.7496   29.6347  -56.5227 H   0  0  0  0  0  0  0  0  0  0  0  0
    3.1412   31.0232  -56.3861 H   0  0  0  0  0  0  0  0  0  0  0  0
    2.9096   30.3910  -55.1478 H   0  0  0  0  0  0  0  0  0  0  0  0
    1.1482   20.9161  -55.1139 H   0  0  0  0  0  0  0  0  0  0  0  0
    1.5791   19.6402  -54.9142 H   0  0  0  0  0  0  0  0  0  0  0  0
    2.3903   20.7030  -56.1044 H   0  0  0  0  0  0  0  0  0  0  0  0
   -0.3428   16.4773  -55.5579 H   0  0  0  0  0  0  0  0  0  0  0  0
   -1.5768   17.3346  -56.4875 H   0  0  0  0  0  0  0  0  0  0  0  0
    0.3043   16.9174  -57.8722 H   0  0  0  0  0  0  0  0  0  0  0  0
    0.1887   18.5815  -57.6937 H   0  0  0  0  0  0  0  0  0  0  0  0
    5.0698   14.6980  -55.3780 H   0  0  0  0  0  0  0  0  0  0  0  0
    4.0755   14.3114  -56.7886 H   0  0  0  0  0  0  0  0  0  0  0  0
    6.3164   15.0082  -57.5030 H   0  0  0  0  0  0  0  0  0  0  0  0
    5.1253   16.1883  -58.0375 H   0  0  0  0  0  0  0  0  0  0  0  0
    4.6953   29.1352  -58.2337 H   0  0  0  0  0  0  0  0  0  0  0  0
    3.8302   30.5720  -58.4952 H   0  0  0  0  0  0  0  0  0  0  0  0
    5.1386   31.3741  -61.6196 H   0  0  0  0  0  0  0  0  0  0  0  0
    5.1285   31.8201  -60.3303 H   0  0  0  0  0  0  0  0  0  0  0  0
    2.0371   32.0782  -60.1828 H   0  0  0  0  0  0  0  0  0  0  0  0
    2.7176   30.5407  -59.5340 H   0  0  0  0  0  0  0  0  0  0  0  0
    3.4903   29.4564  -62.8572 H   0  0  0  0  0  0  0  0  0  0  0  0
    4.7716   24.4883  -56.7784 H   0  0  0  0  0  0  0  0  0  0  0  0
    4.5203   26.0573  -57.0475 H   0  0  0  0  0  0  0  0  0  0  0  0
    2.1383   31.9253  -58.2106 H   0  0  0  0  0  0  0  0  0  0  0  0
    2.8335   31.5085  -57.5902 H   0  0  0  0  0  0  0  0  0  0  0  0
    6.4060   18.8207  -55.2752 H   0  0  0  0  0  0  0  0  0  0  0  0
  1 89  1  0  0  0  0
  1 90  1  0  0  0  0
  1 91  1  0  0  0  0
  2 92  1  0  0  0  0
  2 93  1  0  0  0  0
  2 94  1  0  0  0  0
  3 95  1  0  0  0  0
  3 96  1  0  0  0  0
  3 97  1  0  0  0  0
  4 98  1  0  0  0  0
  4 99  1  0  0  0  0
  4100  1  0  0  0  0
  5101  1  0  0  0  0
  5102  1  0  0  0  0
  5103  1  0  0  0  0
  6104  1  0  0  0  0
  6105  1  0  0  0  0
  6106  1  0  0  0  0
  7107  1  0  0  0  0
  7108  1  0  0  0  0
  7109  1  0  0  0  0
  8110  1  0  0  0  0
  8111  1  0  0  0  0
  8112  1  0  0  0  0
  9113  1  0  0  0  0
  9114  1  0  0  0  0
  9115  1  0  0  0  0
 10116  1  0  0  0  0
 10117  1  0  0  0  0
 10118  1  0  0  0  0
 11119  1  0  0  0  0
 11120  1  0  0  0  0
 11121  1  0  0  0  0
 12122  1  0  0  0  0
 12123  1  0  0  0  0
 12124  1  0  0  0  0
 13125  1  0  0  0  0
 13126  1  0  0  0  0
 13127  1  0  0  0  0
 14128  1  0  0  0  0
 14129  1  0  0  0  0
 14130  1  0  0  0  0
 16 15  1  0  0  0  0
 17 15  2  0  0  0  0
 20131  1  0  0  0  0
 20132  1  0  0  0  0
 21 18  2  0  0  0  0
 22 19  2  0  0  0  0
 23 20  1  0  0  0  0
 23133  1  0  0  0  0
 23134  1  0  0  0  0
 24135  1  0  0  0  0
 24136  1  0  0  0  0
 25 24  1  0  0  0  0
 25137  1  0  0  0  0
 25138  1  0  0  0  0
 26139  1  0  0  0  0
 26140  1  0  0  0  0
 27141  1  0  0  0  0
 27142  1  0  0  0  0
 28143  1  0  0  0  0
 28144  1  0  0  0  0
 29145  1  0  0  0  0
 30146  1  0  0  0  0
 30147  1  0  0  0  0
 31148  1  0  0  0  0
 31149  1  0  0  0  0
 32 16  2  0  0  0  0
 32 26  1  0  0  0  0
 32  1  1  0  0  0  0
 33 18  1  0  0  0  0
 33 74  1  6  0  0  0
 33  2  1  0  0  0  0
 34  3  1  0  0  0  0
 34 20  1  0  0  0  0
 34 75  1  1  0  0  0
 35 19  1  0  0  0  0
 35  4  1  0  0  0  0
 35 76  1  1  0  0  0
 36 77  1  6  0  0  0
 36 43  1  0  0  0  0
 36  5  1  0  0  0  0
 37  6  1  0  0  0  0
 37 78  1  6  0  0  0
 38  7  1  0  0  0  0
 38 79  1  1  0  0  0
 39 27  1  0  0  0  0
 39 28  1  0  0  0  0
 39 29  2  0  0  0  0
 40 22  1  0  0  0  0
 40 30  1  0  0  0  0
 40 58  1  0  0  0  0
 40 80  1  1  0  0  0
 41 21  1  0  0  0  0
 41 31  1  0  0  0  0
 41 59  1  0  0  0  0
 41 81  1  1  0  0  0
 42 26  1  0  0  0  0
 42 27  1  0  0  0  0
 42 82  1  1  0  0  0
 42 60  1  0  0  0  0
 43 23  1  0  0  0  0
 44 24  1  0  0  0  0
 44 36  1  0  0  0  0
 44 61  1  0  0  0  0
 44 83  1  1  0  0  0
 45 30  1  0  0  0  0
 45 33  1  0  0  0  0
 45 62  1  0  0  0  0
 45 84  1  6  0  0  0
 46 31  1  0  0  0  0
 46 37  1  0  0  0  0
 46 85  1  6  0  0  0
 46 63  1  0  0  0  0
 47 28  1  0  0  0  0
 47 37  1  0  0  0  0
 47 86  1  1  0  0  0
 48 25  1  0  0  0  0
 49 17  1  0  0  0  0
 50 29  1  0  0  0  0
 51 64  1  0  0  0  0
 51 87  1  6  0  0  0
 51 38  1  0  0  0  0
 51 34  1  0  0  0  0
 52 35  1  0  0  0  0
 52 38  1  0  0  0  0
 52 88  1  1  0  0  0
 53 43  2  0  0  0  0
 54 48  2  0  0  0  0
 55 48  1  0  0  0  0
 55150  1  0  0  0  0
 56 49  2  0  0  0  0
 57 50  2  0  0  0  0
 58  8  1  0  0  0  0
 59  9  1  0  0  0  0
 60 10  1  0  0  0  0
 61 11  1  0  0  0  0
 62 12  1  0  0  0  0
 63 13  1  0  0  0  0
 64 14  1  0  0  0  0
 65 47  1  0  0  0  0
 65 50  1  0  0  0  0
 66 49  1  0  0  0  0
 66 52  1  0  0  0  0
 67 15  1  0  0  0  0
 68 16  1  0  0  0  0
 69 17  1  0  0  0  0
 70 18  1  0  0  0  0
 71 19  1  0  0  0  0
 72 21  1  0  0  0  0
 73 22  1  0  0  0  0
M  END
>  <DRUGBANK_ID>
DB04775

>  <COMMON_NAME>
Reidispongiolide C

$$$$
