CN2
 OpenBabel10282417163D

 55 57  0  0  0  0  0  0  0  0999 V2000
    0.6664   -4.2330    0.4879 O   0  0  0  0  0  0  0  0  0  0  0  0
    0.1240   -3.1212    0.5088 C   0  0  0  0  0  0  0  0  0  0  0  0
   -1.2768   -2.9321    0.0085 C   0  0  0  0  0  0  0  0  0  0  0  0
   -2.5637   -3.0164    1.1629 S   0  0  0  0  0  0  0  0  0  0  0  0
    0.7657   -1.9741    0.8999 N   0  0  0  0  0  0  0  0  0  0  0  0
    2.1647   -1.8921    1.2555 C   0  0  2  0  0  0  0  0  0  0  0  0
    2.6014   -2.8831    2.3634 C   0  0  0  0  0  0  0  0  0  0  0  0
    3.9435   -2.5601    2.7318 C   0  0  0  0  0  0  0  0  0  0  0  0
    2.5017   -0.5480    1.9684 C   0  0  0  0  0  0  0  0  0  0  0  0
    2.1396    0.1779    3.2359 C   0  0  0  0  0  0  0  0  0  0  0  0
    0.7125   -0.1610    3.4977 C   0  0  0  0  0  0  0  0  0  0  0  0
    0.0921    1.0747    3.4260 C   0  0  0  0  0  0  0  0  0  0  0  0
   -1.2367    1.2172    3.2922 C   0  0  0  0  0  0  0  0  0  0  0  0
   -2.0107    0.0630    3.3587 C   0  0  0  0  0  0  0  0  0  0  0  0
   -1.4139   -1.2819    3.6213 C   0  0  0  0  0  0  0  0  0  0  0  0
   -2.3475   -2.3208    3.8889 O   0  0  0  0  0  0  0  0  0  0  0  0
   -3.8104   -2.1892    3.5469 C   0  0  0  0  0  0  0  0  0  0  0  0
   -3.3611    0.1609    3.1143 O   0  0  0  0  0  0  0  0  0  0  0  0
   -4.0033    1.4130    2.9248 C   0  0  0  0  0  0  0  0  0  0  0  0
   -1.7500    2.4573    3.0644 O   0  0  0  0  0  0  0  0  0  0  0  0
   -0.8769    3.5736    3.1889 C   0  0  0  0  0  0  0  0  0  0  0  0
    0.1015   -1.4662    3.6132 C   0  0  0  0  0  0  0  0  0  0  0  0
    1.2490   -2.8420    3.4821 C   0  0  0  0  0  0  0  0  0  0  0  0
    1.7520   -3.5125    4.5705 C   0  0  0  0  0  0  0  0  0  0  0  0
    2.8268   -2.7137    5.2790 C   0  0  0  0  0  0  0  0  0  0  0  0
    4.1683   -2.8475    5.0313 C   0  0  0  0  0  0  0  0  0  0  0  0
    4.3601   -1.8409    4.0002 C   0  0  0  0  0  0  0  0  0  0  0  0
    4.7785   -0.6536    4.1107 O   0  0  0  0  0  0  0  0  0  0  0  0
    4.7620   -4.0767    4.6983 O   0  0  0  0  0  0  0  0  0  0  0  0
    6.1450   -4.0386    4.2747 C   0  0  0  0  0  0  0  0  0  0  0  0
    2.7539   -1.9616    0.3348 H   0  0  0  0  0  0  0  0  0  0  0  0
   -1.4013   -2.0073   -0.5553 H   0  0  0  0  0  0  0  0  0  0  0  0
   -1.5738   -3.8164   -0.5400 H   0  0  0  0  0  0  0  0  0  0  0  0
   -1.8634   -3.3501    2.2761 H   0  0  0  0  0  0  0  0  0  0  0  0
    0.2035   -1.1624    1.1206 H   0  0  0  0  0  0  0  0  0  0  0  0
    4.9046   -2.7191    2.2510 H   0  0  0  0  0  0  0  0  0  0  0  0
    2.4264   -1.1458    2.8289 H   0  0  0  0  0  0  0  0  0  0  0  0
    3.5642   -0.3827    1.8021 H   0  0  0  0  0  0  0  0  0  0  0  0
    2.6062   -0.0090    4.2180 H   0  0  0  0  0  0  0  0  0  0  0  0
    2.4762    1.1900    3.0291 H   0  0  0  0  0  0  0  0  0  0  0  0
    0.7461    1.9355    3.3476 H   0  0  0  0  0  0  0  0  0  0  0  0
   -4.4144   -1.6878    4.3093 H   0  0  0  0  0  0  0  0  0  0  0  0
   -4.0434   -1.6872    2.5868 H   0  0  0  0  0  0  0  0  0  0  0  0
   -4.2264   -3.1949    3.3781 H   0  0  0  0  0  0  0  0  0  0  0  0
   -3.8818    2.0238    3.8238 H   0  0  0  0  0  0  0  0  0  0  0  0
   -3.6613    1.9160    2.0110 H   0  0  0  0  0  0  0  0  0  0  0  0
   -5.0727    1.2391    2.7949 H   0  0  0  0  0  0  0  0  0  0  0  0
   -0.3652    3.5701    4.1594 H   0  0  0  0  0  0  0  0  0  0  0  0
   -0.1590    3.5891    2.3599 H   0  0  0  0  0  0  0  0  0  0  0  0
   -1.4848    4.4745    3.1323 H   0  0  0  0  0  0  0  0  0  0  0  0
    2.2195   -4.4868    4.3101 H   0  0  0  0  0  0  0  0  0  0  0  0
    2.4585   -1.6833    5.2575 H   0  0  0  0  0  0  0  0  0  0  0  0
    6.3741   -3.5981    3.2891 H   0  0  0  0  0  0  0  0  0  0  0  0
    6.7451   -3.5179    5.0198 H   0  0  0  0  0  0  0  0  0  0  0  0
    6.4639   -5.0794    4.1689 H   0  0  0  0  0  0  0  0  0  0  0  0
  1  2  2  0  0  0  0
  2  3  1  0  0  0  0
  2  5  1  0  0  0  0
  3  4  1  0  0  0  0
  3 32  1  0  0  0  0
  3 33  1  0  0  0  0
  4 34  1  0  0  0  0
  5 35  1  0  0  0  0
  6  7  1  0  0  0  0
  6  9  1  0  0  0  0
  6 31  1  6  0  0  0
  6  5  1  0  0  0  0
  7  8  2  0  0  0  0
  7 23  1  0  0  0  0
  8 27  1  0  0  0  0
  8 36  1  0  0  0  0
  9 10  1  0  0  0  0
  9 37  1  0  0  0  0
  9 38  1  0  0  0  0
 10 11  1  0  0  0  0
 10 39  1  0  0  0  0
 10 40  1  0  0  0  0
 11 12  1  0  0  0  0
 11 22  2  0  0  0  0
 12 13  2  0  0  0  0
 12 41  1  0  0  0  0
 13 14  1  0  0  0  0
 13 20  1  0  0  0  0
 14 15  2  0  0  0  0
 14 18  1  0  0  0  0
 15 16  1  0  0  0  0
 15 22  1  0  0  0  0
 16 17  1  0  0  0  0
 17 42  1  0  0  0  0
 17 43  1  0  0  0  0
 17 44  1  0  0  0  0
 18 19  1  0  0  0  0
 19 45  1  0  0  0  0
 19 46  1  0  0  0  0
 19 47  1  0  0  0  0
 20 21  1  0  0  0  0
 21 48  1  0  0  0  0
 21 49  1  0  0  0  0
 21 50  1  0  0  0  0
 22 23  1  0  0  0  0
 23 24  2  0  0  0  0
 24 25  1  0  0  0  0
 24 51  1  0  0  0  0
 25 26  2  0  0  0  0
 25 52  1  0  0  0  0
 26 27  1  0  0  0  0
 26 29  1  0  0  0  0
 27 28  2  0  0  0  0
 29 30  1  0  0  0  0
 30 53  1  0  0  0  0
 30 54  1  0  0  0  0
 30 55  1  0  0  0  0
M  END
>  <DRUGBANK_ID>
DB07574

>  <COMMON_NAME>
2-MERCAPTO-N-[1,2,3,10-TETRAMETHOXY-9-OXO-5,6,7,9-TETRAHYDRO-BENZO[A]HEPTALEN-7-YL]ACETAMIDE

$$$$
