
 OpenBabel10282417223D

 52 55  0  0  0  0  0  0  0  0999 V2000
   -0.6333   -4.9947   -5.3821 C   0  0  0  0  0  0  0  0  0  0  0  0
   -0.4975   -3.6262   -5.2379 C   0  0  0  0  0  0  0  0  0  0  0  0
   -0.8077   -3.0300   -4.0217 C   0  0  0  0  0  0  0  0  0  0  0  0
   -1.0413   -5.7592   -4.2969 C   0  0  0  0  0  0  0  0  0  0  0  0
   -1.1814   -7.1058   -4.4707 O   0  0  0  0  0  0  0  0  0  0  0  0
   -1.2904   -5.1696   -3.0435 C   0  0  0  0  0  0  0  0  0  0  0  0
   -1.1690   -3.7845   -2.8832 C   0  0  0  0  0  0  0  0  0  0  0  0
   -1.3012   -3.1081   -1.5113 C   0  0  3  0  0  0  0  0  0  0  0  0
   -1.6598   -6.0228   -1.9029 C   0  0  0  0  0  0  0  0  0  0  0  0
   -1.8042   -7.2324   -2.0704 O   0  0  0  0  0  0  0  0  0  0  0  0
   -1.8696   -5.4298   -0.5699 C   0  0  0  0  0  0  0  0  0  0  0  0
   -1.6930   -4.0464   -0.3695 C   0  0  0  0  0  0  0  0  0  0  0  0
   -1.9177   -3.5391    0.9265 C   0  0  0  0  0  0  0  0  0  0  0  0
   -2.3050   -4.3822    1.9844 C   0  0  0  0  0  0  0  0  0  0  0  0
   -2.4746   -5.7522    1.7551 C   0  0  0  0  0  0  0  0  0  0  0  0
   -2.2590   -6.2709    0.4898 C   0  0  0  0  0  0  0  0  0  0  0  0
   -2.4461   -7.6092    0.2869 O   0  0  0  0  0  0  0  0  0  0  0  0
   -2.5390   -3.8372    3.3650 C   0  0  0  0  0  0  0  0  0  0  0  0
   -3.8846   -4.0637    3.7549 O   0  0  0  0  0  0  0  0  0  0  0  0
   -0.0038   -2.2622   -1.2192 C   0  0  2  0  0  0  0  0  0  0  0  0
    0.0025   -1.1638   -2.1489 O   0  0  0  0  0  0  0  0  0  0  0  0
    1.1890   -0.3801   -2.2242 C   0  0  1  0  0  0  0  0  0  0  0  0
    2.4495   -1.2321   -2.3971 C   0  0  2  0  0  0  0  0  0  0  0  0
    2.5283   -2.3077   -1.3108 C   0  0  1  0  0  0  0  0  0  0  0  0
    1.2557   -3.1498   -1.2963 C   0  0  1  0  0  0  0  0  0  0  0  0
    1.0606    0.5731   -3.4299 C   0  0  0  0  0  0  0  0  0  0  0  0
   -0.1530    1.3185   -3.3631 O   0  0  0  0  0  0  0  0  0  0  0  0
    3.6023   -0.3897   -2.3624 O   0  0  0  0  0  0  0  0  0  0  0  0
    3.6686   -3.1478   -1.5309 O   0  0  0  0  0  0  0  0  0  0  0  0
    1.2810   -4.0767   -0.2104 O   0  0  0  0  0  0  0  0  0  0  0  0
   -0.4282   -5.4546   -6.3409 H   0  0  0  0  0  0  0  0  0  0  0  0
   -0.1556   -3.0112   -6.0651 H   0  0  0  0  0  0  0  0  0  0  0  0
   -0.7147   -1.9505   -3.9912 H   0  0  0  0  0  0  0  0  0  0  0  0
   -1.0315   -7.3741   -5.3850 H   0  0  0  0  0  0  0  0  0  0  0  0
   -2.1386   -2.4003   -1.6122 H   0  0  0  0  0  0  0  0  0  0  0  0
   -1.7983   -2.4748    1.1251 H   0  0  0  0  0  0  0  0  0  0  0  0
   -2.7846   -6.4068    2.5658 H   0  0  0  0  0  0  0  0  0  0  0  0
   -2.7095   -8.0830    1.0854 H   0  0  0  0  0  0  0  0  0  0  0  0
   -1.8704   -4.3298    4.0781 H   0  0  0  0  0  0  0  0  0  0  0  0
   -2.3490   -2.7611    3.4060 H   0  0  0  0  0  0  0  0  0  0  0  0
   -4.4502   -3.7022    3.0506 H   0  0  0  0  0  0  0  0  0  0  0  0
   -0.0635   -1.8080   -0.2228 H   0  0  0  0  0  0  0  0  0  0  0  0
    1.2350    0.2211   -1.3102 H   0  0  0  0  0  0  0  0  0  0  0  0
    2.4473   -1.7267   -3.3783 H   0  0  0  0  0  0  0  0  0  0  0  0
    2.6849   -1.8491   -0.3293 H   0  0  0  0  0  0  0  0  0  0  0  0
    1.2653   -3.7578   -2.2067 H   0  0  0  0  0  0  0  0  0  0  0  0
    1.8928    1.2825   -3.4536 H   0  0  0  0  0  0  0  0  0  0  0  0
    1.0527    0.0218   -4.3781 H   0  0  0  0  0  0  0  0  0  0  0  0
   -0.8741    0.6626   -3.3678 H   0  0  0  0  0  0  0  0  0  0  0  0
    3.6646    0.0056   -1.4750 H   0  0  0  0  0  0  0  0  0  0  0  0
    3.5214   -3.6613   -2.3462 H   0  0  0  0  0  0  0  0  0  0  0  0
    1.3017   -3.5868    0.6284 H   0  0  0  0  0  0  0  0  0  0  0  0
  1  2  2  0  0  0  0
  1 31  1  0  0  0  0
  2  3  1  0  0  0  0
  2 32  1  0  0  0  0
  3  7  2  0  0  0  0
  3 33  1  0  0  0  0
  4  1  1  0  0  0  0
  4  5  1  0  0  0  0
  5 34  1  0  0  0  0
  6  4  2  0  0  0  0
  6  9  1  0  0  0  0
  6  7  1  0  0  0  0
  7  8  1  0  0  0  0
  8 12  1  0  0  0  0
  8 35  1  0  0  0  0
  9 10  2  0  0  0  0
 11  9  1  0  0  0  0
 11 12  2  0  0  0  0
 12 13  1  0  0  0  0
 13 14  2  0  0  0  0
 13 36  1  0  0  0  0
 14 15  1  0  0  0  0
 14 18  1  0  0  0  0
 15 16  2  0  0  0  0
 15 37  1  0  0  0  0
 16 11  1  0  0  0  0
 16 17  1  0  0  0  0
 17 38  1  0  0  0  0
 18 19  1  0  0  0  0
 18 39  1  0  0  0  0
 18 40  1  0  0  0  0
 19 41  1  0  0  0  0
 20 21  1  0  0  0  0
 20 25  1  0  0  0  0
 20 42  1  1  0  0  0
 20  8  1  0  0  0  0
 21 22  1  0  0  0  0
 22 23  1  0  0  0  0
 22 26  1  0  0  0  0
 22 43  1  1  0  0  0
 23 24  1  0  0  0  0
 23 28  1  0  0  0  0
 23 44  1  6  0  0  0
 24 25  1  0  0  0  0
 24 29  1  0  0  0  0
 24 45  1  1  0  0  0
 25 30  1  0  0  0  0
 25 46  1  6  0  0  0
 26 27  1  0  0  0  0
 26 47  1  0  0  0  0
 26 48  1  0  0  0  0
 27 49  1  0  0  0  0
 28 50  1  0  0  0  0
 29 51  1  0  0  0  0
 30 52  1  0  0  0  0
M  END
>  <DRUGBANK_ID>
DB15477

>  <COMMON_NAME>
Alloin

>  <CAS_NUMBER>
8015-61-0

>  <UNII>
W41H6S09F4

>  <SYNONYMS>
Aloin; Aloin, Cape; Aloin, curaco

$$$$
