398
 OpenBabel10282417103D

 48 50  0  0  0  0  0  0  0  0999 V2000
   -1.9829    0.5681    0.9804 Cl  0  0  0  0  0  0  0  0  0  0  0  0
   -0.1145    3.6634    0.9646 F   0  0  0  0  0  0  0  0  0  0  0  0
    0.0786    3.5868   -1.2091 F   0  0  0  0  0  0  0  0  0  0  0  0
   -1.6839    2.8036   -0.2570 F   0  0  0  0  0  0  0  0  0  0  0  0
   -1.7820   -2.8143   -0.3080 O   0  0  0  0  0  0  0  0  0  0  0  0
    5.6944   -1.2836    0.0792 O   0  0  0  0  0  0  0  0  0  0  0  0
   -3.2271   -0.4949   -5.6368 O   0  0  0  0  0  0  0  0  0  0  0  0
    3.8061   -0.0780    0.0066 N   0  0  0  0  0  0  0  0  0  0  0  0
    3.8300   -2.5335   -0.0264 N   0  0  0  0  0  0  0  0  0  0  0  0
   -3.8957   -0.2300   -2.9222 N   0  0  0  0  0  0  0  0  0  0  0  0
   -1.6321   -2.0285   -5.3215 N   0  0  0  0  0  0  0  0  0  0  0  0
    2.4600    0.2581    0.2806 C   0  0  0  0  0  0  0  0  0  0  0  0
    0.3954    1.5767    0.0442 C   0  0  0  0  0  0  0  0  0  0  0  0
    1.8249    1.4648   -0.0487 C   0  0  0  0  0  0  0  0  0  0  0  0
    2.5187   -2.9616   -0.4187 C   0  0  0  0  0  0  0  0  0  0  0  0
    1.6955   -0.6618    0.9499 C   0  0  0  0  0  0  0  0  0  0  0  0
   -0.3901   -3.0634   -0.5952 C   0  0  0  0  0  0  0  0  0  0  0  0
   -0.3377    0.4998    0.5188 C   0  0  0  0  0  0  0  0  0  0  0  0
    1.8405   -2.2994   -1.4299 C   0  0  0  0  0  0  0  0  0  0  0  0
    1.7503   -3.7988    0.4302 C   0  0  0  0  0  0  0  0  0  0  0  0
    0.3199   -0.6104    0.9627 C   0  0  0  0  0  0  0  0  0  0  0  0
    0.4210   -2.3064   -1.4723 C   0  0  0  0  0  0  0  0  0  0  0  0
    0.3147   -3.8722    0.3210 C   0  0  0  0  0  0  0  0  0  0  0  0
    4.4538   -1.2989    0.0025 C   0  0  0  0  0  0  0  0  0  0  0  0
   -0.3293    2.8803   -0.1259 C   0  0  0  0  0  0  0  0  0  0  0  0
   -2.5878   -1.9787   -1.0944 C   0  0  0  0  0  0  0  0  0  0  0  0
   -2.3687   -1.9527   -2.4392 C   0  0  0  0  0  0  0  0  0  0  0  0
   -2.9689   -1.1111   -3.3451 C   0  0  0  0  0  0  0  0  0  0  0  0
   -3.6600   -1.2038   -0.6802 C   0  0  0  0  0  0  0  0  0  0  0  0
   -4.2237   -0.2977   -1.6043 C   0  0  0  0  0  0  0  0  0  0  0  0
   -2.6089   -1.1979   -4.8019 C   0  0  0  0  0  0  0  0  0  0  0  0
   -0.6605   -2.9838   -4.7994 C   0  0  0  0  0  0  0  0  0  0  0  0
    4.4559    0.6972   -0.0859 H   0  0  0  0  0  0  0  0  0  0  0  0
    4.4783   -3.2769    0.2176 H   0  0  0  0  0  0  0  0  0  0  0  0
   -1.6057   -1.9433   -6.3315 H   0  0  0  0  0  0  0  0  0  0  0  0
    2.4058    2.3510   -0.3024 H   0  0  0  0  0  0  0  0  0  0  0  0
    2.1643   -1.5169    1.4062 H   0  0  0  0  0  0  0  0  0  0  0  0
    2.3703   -1.5413   -2.0049 H   0  0  0  0  0  0  0  0  0  0  0  0
    2.1944   -4.1633    1.3620 H   0  0  0  0  0  0  0  0  0  0  0  0
   -0.2359   -1.4695    1.3119 H   0  0  0  0  0  0  0  0  0  0  0  0
    0.0123   -1.4878   -2.0553 H   0  0  0  0  0  0  0  0  0  0  0  0
   -0.2381   -4.3888    1.1072 H   0  0  0  0  0  0  0  0  0  0  0  0
   -1.6885   -2.6873   -2.7083 H   0  0  0  0  0  0  0  0  0  0  0  0
   -4.0056   -1.1788    0.3475 H   0  0  0  0  0  0  0  0  0  0  0  0
   -4.9421    0.4589   -1.2856 H   0  0  0  0  0  0  0  0  0  0  0  0
   -0.8864   -3.9774   -5.1858 H   0  0  0  0  0  0  0  0  0  0  0  0
    0.3455   -2.6378   -5.0300 H   0  0  0  0  0  0  0  0  0  0  0  0
   -0.6064   -3.1319   -3.7482 H   0  0  0  0  0  0  0  0  0  0  0  0
  1 18  1  0  0  0  0
  2 25  1  0  0  0  0
  3 25  1  0  0  0  0
  4 25  1  0  0  0  0
  5 17  1  0  0  0  0
  5 26  1  0  0  0  0
  6 24  2  0  0  0  0
  7 31  2  0  0  0  0
  8 12  1  0  0  0  0
  8 24  1  0  0  0  0
  8 33  1  0  0  0  0
  9 15  1  0  0  0  0
  9 24  1  0  0  0  0
  9 34  1  0  0  0  0
 10 28  2  0  0  0  0
 10 30  1  0  0  0  0
 11 31  1  0  0  0  0
 11 32  1  0  0  0  0
 11 35  1  0  0  0  0
 12 14  2  0  0  0  0
 12 16  1  0  0  0  0
 13 14  1  0  0  0  0
 13 18  2  0  0  0  0
 13 25  1  0  0  0  0
 14 36  1  0  0  0  0
 15 19  2  0  0  0  0
 15 20  1  0  0  0  0
 16 21  2  0  0  0  0
 16 37  1  0  0  0  0
 17 22  2  0  0  0  0
 17 23  1  0  0  0  0
 18 21  1  0  0  0  0
 19 22  1  0  0  0  0
 19 38  1  0  0  0  0
 20 23  2  0  0  0  0
 20 39  1  0  0  0  0
 21 40  1  0  0  0  0
 22 41  1  0  0  0  0
 23 42  1  0  0  0  0
 26 27  2  0  0  0  0
 26 29  1  0  0  0  0
 27 28  1  0  0  0  0
 27 43  1  0  0  0  0
 28 31  1  0  0  0  0
 29 30  2  0  0  0  0
 29 44  1  0  0  0  0
 30 45  1  0  0  0  0
 32 46  1  0  0  0  0
 32 47  1  0  0  0  0
 32 48  1  0  0  0  0
M  END
>  <DRUGBANK_ID>
DB00398

>  <SECONDARY_ACCESSION_NUMBERS>
APRD01304; DB07438

>  <COMMON_NAME>
Sorafenib

>  <CAS_NUMBER>
284461-73-0

>  <UNII>
9ZOQ3TZI87

>  <SYNONYMS>
4-(4-((((4-Chloro-3-(trifluoromethyl)phenyl)amino)carbonyl)amino)phenoxy)-N-methyl-2-pyridinecarboxamide; N-(4-Chloro-3-(trifluoromethyl)phenyl)-N'-(4-(2-(N-methylcarbamoyl)-4-pyridyloxy)phenyl)urea; Soraf√©nib; Sorafenib; Sorafenibum

$$$$
