
 OpenBabel10282417113D

 19 18  0  0  0  0  0  0  0  0999 V2000
    1.0290   -0.0094   -0.0952 C   0  0  0  0  0  0  0  0  0  0  0  0
    0.4190   -0.8096    1.4334 P   0  0  0  0  0  0  0  0  0  0  0  0
    1.4621   -2.0671    1.2649 O   0  0  0  0  0  0  0  0  0  0  0  0
    1.1956    0.1516    2.3375 O   0  0  0  0  0  0  0  0  0  0  0  0
    0.5235    1.7940    0.1807 P   0  0  0  0  0  0  0  0  0  0  0  0
   -0.7250    1.7725    1.1942 O   0  0  0  0  0  0  0  0  0  0  0  0
    1.6051    2.7494    0.5895 O   0  0  0  0  0  0  0  0  0  0  0  0
    0.4902   -0.6862   -1.3352 C   0  0  0  0  0  0  0  0  0  0  0  0
    2.4748   -0.0154   -0.1552 O   0  0  0  0  0  0  0  0  0  0  0  0
   -0.1576   -1.5660    2.8784 O   0  0  0  0  0  0  0  0  0  0  0  0
   -0.3584    2.4049   -1.0080 O   0  0  0  0  0  0  0  0  0  0  0  0
    1.1189   -2.8915    0.8837 H   0  0  0  0  0  0  0  0  0  0  0  0
   -1.5112    1.2877    0.8841 H   0  0  0  0  0  0  0  0  0  0  0  0
    0.8577   -0.2082   -2.2469 H   0  0  0  0  0  0  0  0  0  0  0  0
    0.8328   -1.7286   -1.3637 H   0  0  0  0  0  0  0  0  0  0  0  0
   -0.6023   -0.6951   -1.3431 H   0  0  0  0  0  0  0  0  0  0  0  0
    2.7616    0.4367    0.6702 H   0  0  0  0  0  0  0  0  0  0  0  0
    0.4108   -1.1614    3.5725 H   0  0  0  0  0  0  0  0  0  0  0  0
   -0.6366    3.2994   -0.6988 H   0  0  0  0  0  0  0  0  0  0  0  0
  1  2  1  0  0  0  0
  1  5  1  0  0  0  0
  1  8  1  0  0  0  0
  2  3  1  0  0  0  0
  2  4  2  0  0  0  0
  2 10  1  0  0  0  0
  3 12  1  0  0  0  0
  5  6  1  0  0  0  0
  5  7  2  0  0  0  0
  5 11  1  0  0  0  0
  6 13  1  0  0  0  0
  8 14  1  0  0  0  0
  8 15  1  0  0  0  0
  8 16  1  0  0  0  0
  9  1  1  0  0  0  0
  9 17  1  0  0  0  0
 10 18  1  0  0  0  0
 11 19  1  0  0  0  0
M  END
>  <DRUGBANK_ID>
DB01077

>  <SECONDARY_ACCESSION_NUMBERS>
APRD00964

>  <COMMON_NAME>
Etidronic acid

>  <CAS_NUMBER>
2809-21-4

>  <UNII>
M2F465ROXU

>  <SYNONYMS>
(1-hydroxy-ethylidene)diphosphonic acid; (1-Hydroxyethylene)diphosphonic acid; (1-Hydroxyethylidene)bis(phosphonic acid); (1-Hydroxyethylidene)bisphosphonic acid; (1-Hydroxyethylidene)diphosphonic acid; (Hydroxyethylidene)diphosphonic acid; 1-Hydroxy-1,1-diphosphonoethane; 1-hydroxyethane 1,1-diphosphonic acid; 1-Hydroxyethane-1,1-bisphosphonic acid; 1-Hydroxyethane-1,1-diphosphonate; 1-Hydroxyethane-1,1-diphosphonic acid; 1-Hydroxyethanediphosphonic acid; 1-Hydroxyethylidene-1,1-bisphosphonate; 1-Hydroxyethylidene-1,1-diphosphonic acid; 1,1,1-Ethanetriol diphosphonate; Acetodiphosphonic acid; acide étidronique; ácido etidrónico; acidum etidronicum; EHDP; Ethane-1-hydroxy-1,1-bisphosphonic acid; Ethane-1-hydroxy-1,1-diphosphonate; Ethane-1-hydroxy-1,1-diphosphonic acid; Etidronate; Etidronic acid; Etidronsäure; HEDP; Hydroxyethanediphosphonic acid; Oxyethylidenediphosphonic acid

$$$$
