
 OpenBabel10282417153D

 47 50  0  0  0  0  0  0  0  0999 V2000
    2.5513   -0.2727   -0.5050 C   0  0  0  0  0  0  0  0  0  0  0  0
    2.4539    1.0216   -0.1048 C   0  0  0  0  0  0  0  0  0  0  0  0
    1.1752    1.5919   -0.0724 C   0  0  0  0  0  0  0  0  0  0  0  0
    1.3548   -0.9173   -0.8964 C   0  0  0  0  0  0  0  0  0  0  0  0
   -0.0386   -0.4511   -0.5602 C   0  0  0  0  0  0  0  0  0  0  0  0
   -0.0425    0.9019   -0.2387 C   0  0  0  0  0  0  0  0  0  0  0  0
   -1.1756    1.6076   -0.0199 N   0  0  0  0  0  0  0  0  0  0  0  0
   -2.3917    1.0150   -0.0221 C   0  0  0  0  0  0  0  0  0  0  0  0
   -2.5789   -0.3119   -0.1616 C   0  0  0  0  0  0  0  0  0  0  0  0
   -1.4385   -1.0597   -0.3861 C   0  0  0  0  0  0  0  0  0  0  0  0
   -1.7868   -2.5097   -0.2059 C   0  0  0  0  0  0  0  0  0  0  0  0
   -2.7476   -2.8835    0.8385 N   0  0  0  0  0  0  0  0  0  0  0  0
   -3.4338   -4.0570    0.8376 C   0  0  0  0  0  0  0  0  0  0  0  0
   -3.2492   -5.2340    0.1278 C   0  0  0  0  0  0  0  0  0  0  0  0
   -4.7358   -6.1485    0.2451 S   0  0  0  0  0  0  0  0  0  0  0  0
   -5.3804   -5.1209    1.4515 C   0  0  0  0  0  0  0  0  0  0  0  0
   -4.4949   -4.1303    1.7797 C   0  0  0  0  0  0  0  0  0  0  0  0
   -2.1749   -5.7981   -0.7332 C   0  0  0  0  0  0  0  0  0  0  0  0
   -2.3888   -6.6105   -1.6101 O   0  0  0  0  0  0  0  0  0  0  0  0
   -0.8297   -5.3675   -0.6235 N   0  0  0  0  0  0  0  0  0  0  0  0
   -0.1233   -4.7373    0.4452 C   0  0  0  0  0  0  0  0  0  0  0  0
   -0.5646   -4.7414    1.7713 C   0  0  0  0  0  0  0  0  0  0  0  0
   -0.2992   -3.6760    2.6978 C   0  0  0  0  0  0  0  0  0  0  0  0
    0.5190   -2.6277    2.3552 C   0  0  0  0  0  0  0  0  0  0  0  0
    1.2004   -2.7913    1.1586 C   0  0  0  0  0  0  0  0  0  0  0  0
    0.8329   -3.7707    0.1493 C   0  0  0  0  0  0  0  0  0  0  0  0
    0.6197   -1.3773    2.9100 O   0  0  0  0  0  0  0  0  0  0  0  0
    0.0916   -1.1508    4.2060 C   0  0  0  0  0  0  0  0  0  0  0  0
   -1.2584   -1.1076    4.1878 F   0  0  0  0  0  0  0  0  0  0  0  0
    0.5004   -2.1267    5.0393 F   0  0  0  0  0  0  0  0  0  0  0  0
    0.5438    0.0306    4.6896 F   0  0  0  0  0  0  0  0  0  0  0  0
    3.4950   -0.8247   -0.4000 H   0  0  0  0  0  0  0  0  0  0  0  0
    3.3463    1.5787    0.1675 H   0  0  0  0  0  0  0  0  0  0  0  0
    1.1149    2.6503    0.1532 H   0  0  0  0  0  0  0  0  0  0  0  0
    1.6038   -1.9027   -1.2699 H   0  0  0  0  0  0  0  0  0  0  0  0
   -3.2603    1.6407    0.1295 H   0  0  0  0  0  0  0  0  0  0  0  0
   -3.5507   -0.7863   -0.0307 H   0  0  0  0  0  0  0  0  0  0  0  0
   -1.9044   -3.0557   -1.1368 H   0  0  0  0  0  0  0  0  0  0  0  0
   -0.9384   -2.7237    0.3438 H   0  0  0  0  0  0  0  0  0  0  0  0
   -2.3865   -2.6544    1.7692 H   0  0  0  0  0  0  0  0  0  0  0  0
   -6.3681   -5.2584    1.8723 H   0  0  0  0  0  0  0  0  0  0  0  0
   -4.6824   -3.3767    2.5359 H   0  0  0  0  0  0  0  0  0  0  0  0
   -0.3469   -5.5181   -1.5102 H   0  0  0  0  0  0  0  0  0  0  0  0
   -1.3322   -5.4498    2.0432 H   0  0  0  0  0  0  0  0  0  0  0  0
   -0.8892   -3.6310    3.6037 H   0  0  0  0  0  0  0  0  0  0  0  0
    1.8167   -1.9258    0.9747 H   0  0  0  0  0  0  0  0  0  0  0  0
    0.8593   -3.4953   -0.9186 H   0  0  0  0  0  0  0  0  0  0  0  0
  1  2  2  0  0  0  0
  1 32  1  0  0  0  0
  2  3  1  0  0  0  0
  2 33  1  0  0  0  0
  3  6  2  0  0  0  0
  3 34  1  0  0  0  0
  4  1  1  0  0  0  0
  4 35  1  0  0  0  0
  5  4  2  0  0  0  0
  5  6  1  0  0  0  0
  6  7  1  0  0  0  0
  7  8  2  0  0  0  0
  8  9  1  0  0  0  0
  8 36  1  0  0  0  0
  9 10  2  0  0  0  0
  9 37  1  0  0  0  0
 10  5  1  0  0  0  0
 10 11  1  0  0  0  0
 11 12  1  0  0  0  0
 11 38  1  0  0  0  0
 11 39  1  0  0  0  0
 12 13  1  0  0  0  0
 12 40  1  0  0  0  0
 13 14  2  0  0  0  0
 14 18  1  0  0  0  0
 14 15  1  0  0  0  0
 15 16  1  0  0  0  0
 16 17  2  0  0  0  0
 16 41  1  0  0  0  0
 17 13  1  0  0  0  0
 17 42  1  0  0  0  0
 18 19  2  0  0  0  0
 18 20  1  0  0  0  0
 20 21  1  0  0  0  0
 20 43  1  0  0  0  0
 21 22  2  0  0  0  0
 22 23  1  0  0  0  0
 22 44  1  0  0  0  0
 23 24  2  0  0  0  0
 23 45  1  0  0  0  0
 24 25  1  0  0  0  0
 24 27  1  0  0  0  0
 25 26  2  0  0  0  0
 25 46  1  0  0  0  0
 26 21  1  0  0  0  0
 26 47  1  0  0  0  0
 27 28  1  0  0  0  0
 28 29  1  0  0  0  0
 28 30  1  0  0  0  0
 28 31  1  0  0  0  0
M  END
>  <DRUGBANK_ID>
DB05913

>  <COMMON_NAME>
OSI-930

>  <CAS_NUMBER>
728033-96-3

>  <UNII>
G1PEG5Q9Y2

$$$$
