EMT
 OpenBabel10282417123D

 23 23  0  0  0  0  0  0  0  0999 V2000
    1.0067    0.0791    0.0608 S   0  0  0  0  0  0  0  0  0  0  0  0
    0.2167    2.3127    0.1207 Hg  0  0  0  0  0  0  0  0  0  0  0  0
   -0.4766    4.2731    0.1732 C   0  0  0  0  0  0  0  0  0  0  0  0
   -1.0214    4.5809    1.5584 C   0  0  0  0  0  0  0  0  0  0  0  0
    2.8167    0.0791    0.0608 C   0  0  0  0  0  0  0  0  0  0  0  0
    3.4681    1.2358    0.0918 C   0  0  0  0  0  0  0  0  0  0  0  0
    4.8328    1.2660    0.2481 C   0  0  0  0  0  0  0  0  0  0  0  0
    5.5623    0.1101    0.2836 C   0  0  0  0  0  0  0  0  0  0  0  0
    4.8752   -1.0170    0.3252 C   0  0  0  0  0  0  0  0  0  0  0  0
    3.4962   -1.1275    0.0285 C   0  0  0  0  0  0  0  0  0  0  0  0
    2.8215   -2.4503   -0.2962 C   0  0  0  0  0  0  0  0  0  0  0  0
    3.5812   -3.6499   -0.3112 O   0  0  0  0  0  0  0  0  0  0  0  0
    1.5775   -2.4827   -0.5543 O   0  0  0  0  0  0  0  0  0  0  0  0
    0.3280    4.9421   -0.0504 H   0  0  0  0  0  0  0  0  0  0  0  0
   -1.2543    4.3959   -0.5513 H   0  0  0  0  0  0  0  0  0  0  0  0
   -0.2437    4.4581    2.2830 H   0  0  0  0  0  0  0  0  0  0  0  0
   -1.3781    5.5893    1.5854 H   0  0  0  0  0  0  0  0  0  0  0  0
   -1.8260    3.9119    1.7820 H   0  0  0  0  0  0  0  0  0  0  0  0
    2.9252    2.1527   -0.0058 H   0  0  0  0  0  0  0  0  0  0  0  0
    5.3320    2.2076    0.3434 H   0  0  0  0  0  0  0  0  0  0  0  0
    6.6322    0.1182    0.2780 H   0  0  0  0  0  0  0  0  0  0  0  0
    5.3978   -1.9086    0.6025 H   0  0  0  0  0  0  0  0  0  0  0  0
    4.5601   -3.6244   -0.1081 H   0  0  0  0  0  0  0  0  0  0  0  0
  1  2  1  0  0  0  0
  1  5  1  0  0  0  0
  2  3  1  0  0  0  0
  3  4  1  0  0  0  0
  3 14  1  0  0  0  0
  3 15  1  0  0  0  0
  4 16  1  0  0  0  0
  4 17  1  0  0  0  0
  4 18  1  0  0  0  0
  5  6  2  0  0  0  0
  5 10  1  0  0  0  0
  6  7  1  0  0  0  0
  6 19  1  0  0  0  0
  7  8  2  0  0  0  0
  7 20  1  0  0  0  0
  8  9  1  0  0  0  0
  8 21  1  0  0  0  0
  9 10  2  0  0  0  0
  9 22  1  0  0  0  0
 10 11  1  0  0  0  0
 11 12  1  0  0  0  0
 11 13  2  0  0  0  0
 12 23  1  0  0  0  0
M  END
>  <DRUGBANK_ID>
DB02731

>  <SECONDARY_ACCESSION_NUMBERS>
EXPT01342

>  <COMMON_NAME>
Ethylmercurithiosalicylic acid

>  <CAS_NUMBER>
148-61-8

>  <UNII>
4071N4J64W

>  <SYNONYMS>
[(o-carboxyphenyl)thio]ethylmercury; 2-(ethylmercuri-thio)-benzoic acid; 2-(ethylmercuriothio)benzoic acid

$$$$
