988
 OpenBabel10282417113D

 22 22  0  0  0  0  0  0  0  0999 V2000
    1.7101   -1.3561    0.0263 O   0  0  0  0  0  0  0  0  0  0  0  0
    1.7292    1.3677    0.0244 O   0  0  0  0  0  0  0  0  0  0  0  0
   -4.5051    0.3764    1.3394 N   0  0  0  0  0  0  0  0  0  0  0  0
   -3.2566   -1.3444   -0.0370 C   0  0  0  0  0  0  0  0  0  0  0  0
   -1.9067   -0.6543   -0.0628 C   0  0  0  0  0  0  0  0  0  0  0  0
   -4.1177   -1.0305    1.2072 C   0  0  0  0  0  0  0  0  0  0  0  0
   -0.7071   -1.3811   -0.0093 C   0  0  0  0  0  0  0  0  0  0  0  0
   -1.8415    0.7491   -0.1504 C   0  0  0  0  0  0  0  0  0  0  0  0
    0.5108   -0.6990    0.0040 C   0  0  0  0  0  0  0  0  0  0  0  0
   -0.6281    1.4247   -0.0668 C   0  0  0  0  0  0  0  0  0  0  0  0
    0.5417    0.6955   -0.0035 C   0  0  0  0  0  0  0  0  0  0  0  0
    1.5314   -2.3121    0.0006 H   0  0  0  0  0  0  0  0  0  0  0  0
    2.4105    0.6696   -0.0051 H   0  0  0  0  0  0  0  0  0  0  0  0
   -5.0825    0.4991    2.1693 H   0  0  0  0  0  0  0  0  0  0  0  0
   -3.6644    0.9218    1.5352 H   0  0  0  0  0  0  0  0  0  0  0  0
   -3.8044   -1.0885   -0.9527 H   0  0  0  0  0  0  0  0  0  0  0  0
   -3.1088   -2.4328   -0.0713 H   0  0  0  0  0  0  0  0  0  0  0  0
   -5.0374   -1.6237    1.1545 H   0  0  0  0  0  0  0  0  0  0  0  0
   -3.5845   -1.3337    2.1150 H   0  0  0  0  0  0  0  0  0  0  0  0
   -0.7309   -2.4675    0.0135 H   0  0  0  0  0  0  0  0  0  0  0  0
   -2.7484    1.3355   -0.2755 H   0  0  0  0  0  0  0  0  0  0  0  0
   -0.6036    2.5102   -0.0656 H   0  0  0  0  0  0  0  0  0  0  0  0
  1  9  1  0  0  0  0
  1 12  1  0  0  0  0
  2 11  1  0  0  0  0
  2 13  1  0  0  0  0
  3  6  1  0  0  0  0
  3 14  1  0  0  0  0
  3 15  1  0  0  0  0
  4  5  1  0  0  0  0
  4  6  1  0  0  0  0
  4 16  1  0  0  0  0
  4 17  1  0  0  0  0
  5  7  2  0  0  0  0
  5  8  1  0  0  0  0
  6 18  1  0  0  0  0
  6 19  1  0  0  0  0
  7  9  1  0  0  0  0
  7 20  1  0  0  0  0
  8 10  2  0  0  0  0
  8 21  1  0  0  0  0
  9 11  2  0  0  0  0
 10 11  1  0  0  0  0
 10 22  1  0  0  0  0
M  END
>  <DRUGBANK_ID>
DB00988

>  <SECONDARY_ACCESSION_NUMBERS>
APRD00085

>  <COMMON_NAME>
Dopamine

>  <CAS_NUMBER>
51-61-6

>  <UNII>
VTD58H1Z2X

>  <SYNONYMS>
2-(3,4-dihydroxyphenyl)ethylamine; 3-Hydroxytyramine; 3,4-Dihydroxyphenethylamine; 4-(2-aminoethyl)-1,2-benzenediol; 4-(2-Aminoethyl)benzene-1,2-diol; 4-(2-aminoethyl)catechol; 4-(2-aminoethyl)pyrocatechol; Dopamina; Dopamine; Dopaminum; Oxytyramine

$$$$
