
 OpenBabel10282417183D

 81 85  0  0  1  0  0  0  0  0999 V2000
   -3.5169    6.4331    2.3547 C   0  0  0  0  0  0  0  0  0  0  0  0
   -3.5859    6.4763    0.8348 C   0  0  0  0  0  0  0  0  0  0  0  0
   -2.4898    6.8301    0.0468 C   0  0  0  0  0  0  0  0  0  0  0  0
   -2.5051    6.7398   -1.4103 C   0  0  0  0  0  0  0  0  0  0  0  0
   -3.7171    6.4541   -2.1258 C   0  0  0  0  0  0  0  0  0  0  0  0
   -4.8157    6.0856   -1.3020 C   0  0  0  0  0  0  0  0  0  0  0  0
   -4.7206    6.0623    0.1365 C   0  0  0  0  0  0  0  0  0  0  0  0
   -6.1693    5.7252   -1.8403 C   0  0  0  0  0  0  0  0  0  0  0  0
   -3.7423    6.5494   -3.5421 N   0  0  0  0  0  0  0  0  0  0  0  0
   -3.4563    7.9522   -3.9427 C   0  0  0  0  0  0  0  0  0  0  0  0
   -1.9680    8.3377   -3.9743 C   0  0  0  0  0  0  0  0  0  0  0  0
   -1.1785    8.2887   -2.6637 C   0  0  0  0  0  0  0  0  0  0  0  0
   -1.0934    6.8946   -2.0894 C   0  0  2  0  0  0  0  0  0  0  0  0
   -0.4690    5.8465   -2.9635 N   0  0  0  0  0  0  0  0  0  0  0  0
    0.3384    6.1254   -4.0193 C   0  0  0  0  0  0  0  0  0  0  0  0
    0.0339    6.1564   -5.3380 N   0  0  0  0  0  0  0  0  0  0  0  0
    1.2690    6.2184   -5.8647 N   0  0  0  0  0  0  0  0  0  0  0  0
    2.2686    6.0510   -4.9943 N   0  0  0  0  0  0  0  0  0  0  0  0
    1.6800    5.9870   -3.8132 N   0  0  0  0  0  0  0  0  0  0  0  0
    1.5443    6.4486   -7.2588 C   0  0  0  0  0  0  0  0  0  0  0  0
   -1.0792    4.5671   -3.1054 C   0  0  0  0  0  0  0  0  0  0  0  0
   -1.1163    3.5487   -1.9780 C   0  0  0  0  0  0  0  0  0  0  0  0
   -1.1600    2.1686   -2.1952 C   0  0  0  0  0  0  0  0  0  0  0  0
   -1.6742    1.2775   -1.2199 C   0  0  0  0  0  0  0  0  0  0  0  0
   -2.0085    1.7354    0.0422 C   0  0  0  0  0  0  0  0  0  0  0  0
   -1.8882    3.0629    0.2992 C   0  0  0  0  0  0  0  0  0  0  0  0
   -1.5528    3.9140   -0.7349 C   0  0  0  0  0  0  0  0  0  0  0  0
   -2.1988    3.6148    1.6287 C   0  0  0  0  0  0  0  0  0  0  0  0
   -1.4262    4.6957    1.9092 F   0  0  0  0  0  0  0  0  0  0  0  0
   -3.5027    3.9520    1.6995 F   0  0  0  0  0  0  0  0  0  0  0  0
   -1.9966    2.7424    2.6454 F   0  0  0  0  0  0  0  0  0  0  0  0
   -1.8262   -0.1924   -1.4158 C   0  0  0  0  0  0  0  0  0  0  0  0
   -0.9101   -0.8518   -0.6657 F   0  0  0  0  0  0  0  0  0  0  0  0
   -3.0435   -0.6541   -1.0219 F   0  0  0  0  0  0  0  0  0  0  0  0
   -1.6178   -0.5950   -2.6951 F   0  0  0  0  0  0  0  0  0  0  0  0
   -4.2917    5.5608   -4.6307 C   0  0  0  0  0  0  0  0  0  0  0  0
   -3.4923    4.2500   -4.7593 C   0  0  1  0  0  0  0  0  0  0  0  0
   -3.5967    3.5331   -3.4197 C   0  0  0  0  0  0  0  0  0  0  0  0
   -4.6806    2.6127   -3.0090 C   0  0  0  0  0  0  0  0  0  0  0  0
   -4.8141    1.5580   -4.0727 C   0  0  1  0  0  0  0  0  0  0  0  0
   -4.8135    2.2091   -5.4638 C   0  0  0  0  0  0  0  0  0  0  0  0
   -3.6239    3.1176   -5.7878 C   0  0  0  0  0  0  0  0  0  0  0  0
   -3.8228    0.4017   -3.9765 C   0  0  0  0  0  0  0  0  0  0  0  0
   -4.0545   -0.6540   -3.4590 O   0  0  0  0  0  0  0  0  0  0  0  0
   -2.5957    0.6714   -4.4851 O   0  0  0  0  0  0  0  0  0  0  0  0
   -2.4829    6.3886    2.7219 H   0  0  0  0  0  0  0  0  0  0  0  0
   -4.0209    5.5615    2.7963 H   0  0  0  0  0  0  0  0  0  0  0  0
   -3.9943    7.3032    2.7999 H   0  0  0  0  0  0  0  0  0  0  0  0
   -1.5237    6.9414    0.5527 H   0  0  0  0  0  0  0  0  0  0  0  0
   -5.5590    5.6699    0.7170 H   0  0  0  0  0  0  0  0  0  0  0  0
   -6.4549    4.7102   -1.5440 H   0  0  0  0  0  0  0  0  0  0  0  0
   -6.9135    6.4299   -1.4636 H   0  0  0  0  0  0  0  0  0  0  0  0
   -6.2151    5.7878   -2.9179 H   0  0  0  0  0  0  0  0  0  0  0  0
   -3.9832    8.6545   -3.2829 H   0  0  0  0  0  0  0  0  0  0  0  0
   -3.8541    8.1318   -4.9473 H   0  0  0  0  0  0  0  0  0  0  0  0
   -1.5055    7.7108   -4.7236 H   0  0  0  0  0  0  0  0  0  0  0  0
   -1.8629    9.3587   -4.3516 H   0  0  0  0  0  0  0  0  0  0  0  0
   -0.1628    8.6776   -2.7896 H   0  0  0  0  0  0  0  0  0  0  0  0
   -1.6557    8.9575   -1.9284 H   0  0  0  0  0  0  0  0  0  0  0  0
   -0.3689    6.8935   -1.2637 H   0  0  0  0  0  0  0  0  0  0  0  0
    1.1130    5.6407   -7.8533 H   0  0  0  0  0  0  0  0  0  0  0  0
    1.1314    7.4158   -7.5569 H   0  0  0  0  0  0  0  0  0  0  0  0
    2.6306    6.4649   -7.3969 H   0  0  0  0  0  0  0  0  0  0  0  0
   -2.0547    4.9480   -3.2470 H   0  0  0  0  0  0  0  0  0  0  0  0
   -0.8277    4.0419   -4.0392 H   0  0  0  0  0  0  0  0  0  0  0  0
   -0.9912    1.8136   -3.2090 H   0  0  0  0  0  0  0  0  0  0  0  0
   -2.3527    1.0732    0.8321 H   0  0  0  0  0  0  0  0  0  0  0  0
   -1.8024    4.9186   -0.5748 H   0  0  0  0  0  0  0  0  0  0  0  0
   -5.3284    5.2718   -4.4810 H   0  0  0  0  0  0  0  0  0  0  0  0
   -4.2329    6.0467   -5.6130 H   0  0  0  0  0  0  0  0  0  0  0  0
   -2.4978    4.6216   -5.0462 H   0  0  0  0  0  0  0  0  0  0  0  0
   -2.7586    2.8764   -3.4984 H   0  0  0  0  0  0  0  0  0  0  0  0
   -3.5277    4.1867   -2.5679 H   0  0  0  0  0  0  0  0  0  0  0  0
   -4.4171    2.2128   -2.0170 H   0  0  0  0  0  0  0  0  0  0  0  0
   -5.5926    3.1949   -2.8834 H   0  0  0  0  0  0  0  0  0  0  0  0
   -5.7812    1.0913   -3.8766 H   0  0  0  0  0  0  0  0  0  0  0  0
   -4.8888    1.4175   -6.2087 H   0  0  0  0  0  0  0  0  0  0  0  0
   -5.6909    2.8556   -5.5169 H   0  0  0  0  0  0  0  0  0  0  0  0
   -3.6271    3.4721   -6.8200 H   0  0  0  0  0  0  0  0  0  0  0  0
   -2.6862    2.5277   -5.7410 H   0  0  0  0  0  0  0  0  0  0  0  0
   -2.0015   -0.0532   -4.1778 H   0  0  0  0  0  0  0  0  0  0  0  0
  1  2  1  0  0  0  0
  1 46  1  0  0  0  0
  1 47  1  0  0  0  0
  1 48  1  0  0  0  0
  2  3  2  0  0  0  0
  2  7  1  0  0  0  0
  3  4  1  0  0  0  0
  3 49  1  0  0  0  0
  4  5  2  0  0  0  0
  4 13  1  0  0  0  0
  5  6  1  0  0  0  0
  5  9  1  0  0  0  0
  6  7  2  0  0  0  0
  6  8  1  0  0  0  0
  7 50  1  0  0  0  0
  8 51  1  0  0  0  0
  8 52  1  0  0  0  0
  8 53  1  0  0  0  0
  9 10  1  0  0  0  0
  9 36  1  0  0  0  0
 10 11  1  0  0  0  0
 10 54  1  0  0  0  0
 10 55  1  0  0  0  0
 11 12  1  0  0  0  0
 11 56  1  0  0  0  0
 11 57  1  0  0  0  0
 12 13  1  0  0  0  0
 12 58  1  0  0  0  0
 12 59  1  0  0  0  0
 13 60  1  1  0  0  0
 13 14  1  0  0  0  0
 14 15  1  0  0  0  0
 14 21  1  0  0  0  0
 15 16  2  0  0  0  0
 15 19  1  0  0  0  0
 16 17  1  0  0  0  0
 17 18  1  0  0  0  0
 17 20  1  0  0  0  0
 18 19  2  0  0  0  0
 20 61  1  0  0  0  0
 20 62  1  0  0  0  0
 20 63  1  0  0  0  0
 21 22  1  0  0  0  0
 21 64  1  0  0  0  0
 21 65  1  0  0  0  0
 22 23  2  0  0  0  0
 22 27  1  0  0  0  0
 23 24  1  0  0  0  0
 23 66  1  0  0  0  0
 24 25  2  0  0  0  0
 24 32  1  0  0  0  0
 25 26  1  0  0  0  0
 25 67  1  0  0  0  0
 26 27  2  0  0  0  0
 26 28  1  0  0  0  0
 27 68  1  0  0  0  0
 28 29  1  0  0  0  0
 28 30  1  0  0  0  0
 28 31  1  0  0  0  0
 32 33  1  0  0  0  0
 32 34  1  0  0  0  0
 32 35  1  0  0  0  0
 36 69  1  0  0  0  0
 36 70  1  0  0  0  0
 37 38  1  0  0  0  0
 37 42  1  0  0  0  0
 37 71  1  6  0  0  0
 37 36  1  0  0  0  0
 38 39  1  0  0  0  0
 38 72  1  0  0  0  0
 38 73  1  0  0  0  0
 39 40  1  0  0  0  0
 39 74  1  0  0  0  0
 39 75  1  0  0  0  0
 40 41  1  0  0  0  0
 40 43  1  0  0  0  0
 40 76  1  1  0  0  0
 41 42  1  0  0  0  0
 41 77  1  0  0  0  0
 41 78  1  0  0  0  0
 42 79  1  0  0  0  0
 42 80  1  0  0  0  0
 43 44  2  0  0  0  0
 43 45  1  0  0  0  0
 45 81  1  0  0  0  0
M  END
>  <DRUGBANK_ID>
DB11655

>  <COMMON_NAME>
Evacetrapib

>  <CAS_NUMBER>
1186486-62-3

>  <UNII>
51XWV9K850

>  <SYNONYMS>
Evacetrapib

$$$$
