
 OpenBabel10282417213D

 42 44  0  0  0  0  0  0  0  0999 V2000
   -2.8688   -0.5999    0.7658 C   0  0  0  0  0  0  0  0  0  0  0  0
   -2.9168    0.7579    1.1753 C   0  0  0  0  0  0  0  0  0  0  0  0
   -1.6569    1.4093    1.3370 C   0  0  0  0  0  0  0  0  0  0  0  0
   -1.6369   -1.3612    0.8411 C   0  0  0  0  0  0  0  0  0  0  0  0
    1.9458    1.2190    0.0841 N   0  0  0  0  0  0  0  0  0  0  0  0
    2.2387    0.0283   -0.7530 C   0  0  3  0  0  0  0  0  0  0  0  0
    2.0168   -1.2747    0.1464 C   0  0  0  0  0  0  0  0  0  0  0  0
    0.9621    1.4581    0.8932 C   0  0  0  0  0  0  0  0  0  0  0  0
   -0.3554    0.6503    1.2270 C   0  0  0  0  0  0  0  0  0  0  0  0
   -0.3571   -0.7606    1.1097 C   0  0  0  0  0  0  0  0  0  0  0  0
    0.8208   -1.5482    0.8213 N   0  0  0  0  0  0  0  0  0  0  0  0
    2.8992   -2.1454    0.1878 O   0  0  0  0  0  0  0  0  0  0  0  0
    1.8213    0.0157   -2.1877 O   0  0  0  0  0  0  0  0  0  0  0  0
    0.5390   -0.0144   -2.6322 C   0  0  0  0  0  0  0  0  0  0  0  0
   -0.4322   -0.0133   -1.5870 C   0  0  0  0  0  0  0  0  0  0  0  0
    0.1342   -0.0987   -3.7766 O   0  0  0  0  0  0  0  0  0  0  0  0
   -1.2138    1.2255   -1.4257 C   0  0  0  0  0  0  0  0  0  0  0  0
   -2.3428    1.4533   -2.3060 C   0  0  0  0  0  0  0  0  0  0  0  0
   -3.5589    1.0775   -1.8862 O   0  0  0  0  0  0  0  0  0  0  0  0
   -2.1687    1.9685   -3.4257 O   0  0  0  0  0  0  0  0  0  0  0  0
    1.0177    2.7354    1.6259 C   0  0  0  0  0  0  0  0  0  0  0  0
    1.3582    3.9532    1.0018 C   0  0  0  0  0  0  0  0  0  0  0  0
    1.3846    5.0969    1.7970 C   0  0  0  0  0  0  0  0  0  0  0  0
    0.8832    5.0422    3.1014 C   0  0  0  0  0  0  0  0  0  0  0  0
    0.3748    3.8656    3.6281 C   0  0  0  0  0  0  0  0  0  0  0  0
    0.5959    2.6912    2.9620 C   0  0  0  0  0  0  0  0  0  0  0  0
    0.3288    1.2551    3.9108 Cl  0  0  0  0  0  0  0  0  0  0  0  0
   -4.5052    1.8485    0.8627 Br  0  0  0  0  0  0  0  0  0  0  0  0
   -3.6566   -1.0089    0.0996 H   0  0  0  0  0  0  0  0  0  0  0  0
   -1.6576    2.4937    1.0768 H   0  0  0  0  0  0  0  0  0  0  0  0
   -1.6396   -2.3459    0.3447 H   0  0  0  0  0  0  0  0  0  0  0  0
    3.3345    0.0354   -0.9177 H   0  0  0  0  0  0  0  0  0  0  0  0
    0.7854   -2.5341    1.0665 H   0  0  0  0  0  0  0  0  0  0  0  0
   -0.9686   -0.9546   -1.5106 H   0  0  0  0  0  0  0  0  0  0  0  0
    0.2013   -0.0187   -0.7574 H   0  0  0  0  0  0  0  0  0  0  0  0
   -1.7563    0.8697   -0.6113 H   0  0  0  0  0  0  0  0  0  0  0  0
   -0.6657    2.1167   -1.0836 H   0  0  0  0  0  0  0  0  0  0  0  0
   -3.8020    1.3102   -0.9623 H   0  0  0  0  0  0  0  0  0  0  0  0
    1.6070    4.0364   -0.0596 H   0  0  0  0  0  0  0  0  0  0  0  0
    1.7782    6.0384    1.4173 H   0  0  0  0  0  0  0  0  0  0  0  0
    0.9105    5.9113    3.7465 H   0  0  0  0  0  0  0  0  0  0  0  0
   -0.1361    3.8259    4.5817 H   0  0  0  0  0  0  0  0  0  0  0  0
  1  2  2  0  0  0  0
  1 29  1  0  0  0  0
  2  3  1  0  0  0  0
  2 28  1  0  0  0  0
  3  9  2  0  0  0  0
  3 30  1  0  0  0  0
  4  1  1  0  0  0  0
  4 31  1  0  0  0  0
  5  6  1  0  0  0  0
  5  8  2  0  0  0  0
  6  7  1  0  0  0  0
  6 13  1  0  0  0  0
  6 32  1  0  0  0  0
  7 12  2  0  0  0  0
  8  9  1  0  0  0  0
  8 21  1  0  0  0  0
  9 10  1  0  0  0  0
 10  4  2  0  0  0  0
 10 11  1  0  0  0  0
 11  7  1  0  0  0  0
 11 33  1  0  0  0  0
 13 14  1  0  0  0  0
 14 15  1  0  0  0  0
 14 16  2  0  0  0  0
 15 17  1  0  0  0  0
 15 34  1  0  0  0  0
 15 35  1  0  0  0  0
 17 18  1  0  0  0  0
 17 36  1  0  0  0  0
 17 37  1  0  0  0  0
 18 19  1  0  0  0  0
 18 20  2  0  0  0  0
 19 38  1  0  0  0  0
 21 22  2  0  0  0  0
 22 23  1  0  0  0  0
 22 39  1  0  0  0  0
 23 24  2  0  0  0  0
 23 40  1  0  0  0  0
 24 25  1  0  0  0  0
 24 41  1  0  0  0  0
 25 26  2  0  0  0  0
 25 42  1  0  0  0  0
 26 21  1  0  0  0  0
 26 27  1  0  0  0  0
M  END
>  <DRUGBANK_ID>
DB14715

>  <COMMON_NAME>
Cinazepam

>  <CAS_NUMBER>
172986-25-3

>  <UNII>
U4SS7UFXC7

$$$$
