
 OpenBabel10282417223D

 34 35  0  0  0  0  0  0  0  0999 V2000
    1.1046    0.1166    0.1113 C   0  0  0  0  0  0  0  0  0  0  0  0
    0.5738    0.6664   -1.1960 C   0  0  0  0  0  0  0  0  0  0  0  0
   -0.2385   -0.0486   -2.0078 C   0  0  0  0  0  0  0  0  0  0  0  0
   -0.6551   -1.4402   -1.7394 C   0  0  0  0  0  0  0  0  0  0  0  0
   -1.1964   -1.8077   -0.4970 C   0  0  0  0  0  0  0  0  0  0  0  0
   -1.4540   -3.1413   -0.1881 C   0  0  0  0  0  0  0  0  0  0  0  0
   -1.2915   -4.1148   -1.1653 C   0  0  0  0  0  0  0  0  0  0  0  0
   -0.8557   -3.7525   -2.4402 C   0  0  0  0  0  0  0  0  0  0  0  0
   -0.4892   -2.4295   -2.7133 C   0  0  0  0  0  0  0  0  0  0  0  0
    0.9546    2.0437   -1.5532 C   0  0  0  0  0  0  0  0  0  0  0  0
    2.1724    2.6058   -1.4439 C   0  0  0  0  0  0  0  0  0  0  0  0
    3.6279    1.8453   -0.9261 S   0  0  0  0  0  0  0  0  0  0  0  0
    4.6113    3.2610   -1.1600 C   0  0  0  0  0  0  0  0  0  0  0  0
    6.2270    3.2731   -0.7552 S   0  0  0  0  0  0  0  0  0  0  0  0
    3.8346    4.2786   -1.6587 N   0  0  0  0  0  0  0  0  0  0  0  0
    4.3293    5.6094   -1.9865 C   0  0  0  0  0  0  0  0  0  0  0  0
    4.2422    5.8425   -3.4866 C   0  0  0  0  0  0  0  0  0  0  0  0
    3.5881    6.9708   -3.8448 O   0  0  0  0  0  0  0  0  0  0  0  0
    4.7208    5.0802   -4.3176 O   0  0  0  0  0  0  0  0  0  0  0  0
    2.4812    4.0134   -1.8405 C   0  0  0  0  0  0  0  0  0  0  0  0
    1.6617    4.8142   -2.2562 O   0  0  0  0  0  0  0  0  0  0  0  0
    0.8560   -0.9268    0.2926 H   0  0  0  0  0  0  0  0  0  0  0  0
    0.7141    0.6979    0.9519 H   0  0  0  0  0  0  0  0  0  0  0  0
    2.1872    0.0849    0.1545 H   0  0  0  0  0  0  0  0  0  0  0  0
   -0.5948    0.3607   -2.9527 H   0  0  0  0  0  0  0  0  0  0  0  0
   -1.3453   -1.0598    0.2788 H   0  0  0  0  0  0  0  0  0  0  0  0
   -1.7765   -3.4096    0.8141 H   0  0  0  0  0  0  0  0  0  0  0  0
   -1.5041   -5.1546   -0.9330 H   0  0  0  0  0  0  0  0  0  0  0  0
   -0.7888   -4.5072   -3.2190 H   0  0  0  0  0  0  0  0  0  0  0  0
   -0.0523   -2.1906   -3.6803 H   0  0  0  0  0  0  0  0  0  0  0  0
    0.1489    2.6492   -1.9783 H   0  0  0  0  0  0  0  0  0  0  0  0
    3.7567    6.3522   -1.4247 H   0  0  0  0  0  0  0  0  0  0  0  0
    5.3823    5.7253   -1.7154 H   0  0  0  0  0  0  0  0  0  0  0  0
    3.1290    7.4460   -3.1251 H   0  0  0  0  0  0  0  0  0  0  0  0
  1  2  1  0  0  0  0
  1 22  1  0  0  0  0
  1 23  1  0  0  0  0
  1 24  1  0  0  0  0
  2  3  2  0  0  0  0
  2 10  1  0  0  0  0
  3  4  1  0  0  0  0
  3 25  1  0  0  0  0
  4  5  2  0  0  0  0
  4  9  1  0  0  0  0
  5  6  1  0  0  0  0
  5 26  1  0  0  0  0
  6  7  2  0  0  0  0
  6 27  1  0  0  0  0
  7  8  1  0  0  0  0
  7 28  1  0  0  0  0
  8  9  2  0  0  0  0
  8 29  1  0  0  0  0
  9 30  1  0  0  0  0
 10 11  2  0  0  0  0
 10 31  1  0  0  0  0
 11 12  1  0  0  0  0
 11 20  1  0  0  0  0
 12 13  1  0  0  0  0
 13 14  2  0  0  0  0
 13 15  1  0  0  0  0
 15 16  1  0  0  0  0
 15 20  1  0  0  0  0
 16 17  1  0  0  0  0
 16 32  1  0  0  0  0
 16 33  1  0  0  0  0
 17 18  1  0  0  0  0
 17 19  2  0  0  0  0
 18 34  1  0  0  0  0
 20 21  2  0  0  0  0
M  END
>  <DRUGBANK_ID>
DB15293

>  <COMMON_NAME>
Epalrestat

>  <CAS_NUMBER>
82159-09-9

>  <UNII>
424DV0807X

>  <SYNONYMS>
Epalrestat

$$$$
