227
 OpenBabel10282417103D

 65 67  0  0  1  0  0  0  0  0999 V2000
   -1.6501   -3.9047   -0.5339 O   0  0  0  0  0  0  0  0  0  0  0  0
   -4.6851   -6.2496   -0.8759 O   0  0  0  0  0  0  0  0  0  0  0  0
   -7.6812   -6.4790   -0.7491 O   0  0  0  0  0  0  0  0  0  0  0  0
   -2.5629   -3.1109    1.4837 O   0  0  0  0  0  0  0  0  0  0  0  0
   -4.3288   -5.2987    1.1114 O   0  0  0  0  0  0  0  0  0  0  0  0
   -0.7004   -6.0505   -1.5487 C   0  0  1  0  0  0  0  0  0  0  0  0
   -2.1710   -6.4547   -1.6378 C   0  0  2  0  0  0  0  0  0  0  0  0
   -0.5936   -4.5490   -1.6905 C   0  0  2  0  0  0  0  0  0  0  0  0
   -2.2935   -7.9801   -1.5509 C   0  0  2  0  0  0  0  0  0  0  0  0
   -0.0009   -6.5767   -0.2838 C   0  0  0  0  0  0  0  0  0  0  0  0
   -2.8518   -5.7916   -2.8637 C   0  0  0  0  0  0  0  0  0  0  0  0
    1.1127   -4.3278   -1.7859 C   0  0  0  0  0  0  0  0  0  0  0  0
    1.9671   -4.8221   -0.3399 C   0  0  2  0  0  0  0  0  0  0  0  0
    1.1242   -6.0279    0.2537 C   0  0  0  0  0  0  0  0  0  0  0  0
   -4.2087   -6.2988   -3.3052 C   0  0  0  0  0  0  0  0  0  0  0  0
   -1.5934   -8.4656   -0.3054 C   0  0  0  0  0  0  0  0  0  0  0  0
   -0.6034   -7.7837    0.2992 C   0  0  0  0  0  0  0  0  0  0  0  0
   -1.7064   -8.6384   -2.7920 C   0  0  0  0  0  0  0  0  0  0  0  0
   -5.2551   -6.3675   -2.1926 C   0  0  2  0  0  0  0  0  0  0  0  0
    2.4992   -3.7234    0.8675 C   0  0  0  0  0  0  0  0  0  0  0  0
   -6.3606   -5.3698   -2.4336 C   0  0  0  0  0  0  0  0  0  0  0  0
   -7.1477   -5.2167   -1.1531 C   0  0  2  0  0  0  0  0  0  0  0  0
   -1.6205   -3.4889    0.8659 C   0  0  0  0  0  0  0  0  0  0  0  0
   -6.2698   -4.6104   -0.0754 C   0  0  0  0  0  0  0  0  0  0  0  0
   -0.1986   -3.3954    1.4646 C   0  0  2  0  0  0  0  0  0  0  0  0
   -5.0060   -5.3860    0.1130 C   0  0  0  0  0  0  0  0  0  0  0  0
    0.3235   -2.5825    2.7280 C   0  0  0  0  0  0  0  0  0  0  0  0
    0.3184   -2.7903    0.1601 C   0  0  0  0  0  0  0  0  0  0  0  0
    1.3362   -3.2735    3.7586 C   0  0  0  0  0  0  0  0  0  0  0  0
   -0.1634   -6.4730   -2.4012 H   0  0  0  0  0  0  0  0  0  0  0  0
   -6.9506   -7.0929   -0.5428 H   0  0  0  0  0  0  0  0  0  0  0  0
   -2.6069   -6.0359   -0.7285 H   0  0  0  0  0  0  0  0  0  0  0  0
   -1.0211   -4.1097   -2.6117 H   0  0  0  0  0  0  0  0  0  0  0  0
   -3.3495   -8.2608   -1.4617 H   0  0  0  0  0  0  0  0  0  0  0  0
   -3.0125   -4.7303   -2.6357 H   0  0  0  0  0  0  0  0  0  0  0  0
   -2.1727   -5.8259   -3.7254 H   0  0  0  0  0  0  0  0  0  0  0  0
    1.2466   -3.2831   -2.1118 H   0  0  0  0  0  0  0  0  0  0  0  0
    1.5276   -4.8909   -2.6461 H   0  0  0  0  0  0  0  0  0  0  0  0
    2.9505   -5.2292   -0.6057 H   0  0  0  0  0  0  0  0  0  0  0  0
    1.4512   -6.4390    1.2164 H   0  0  0  0  0  0  0  0  0  0  0  0
   -4.5567   -5.6425   -4.1166 H   0  0  0  0  0  0  0  0  0  0  0  0
   -4.1239   -7.2791   -3.7859 H   0  0  0  0  0  0  0  0  0  0  0  0
   -1.9319   -9.4141    0.1088 H   0  0  0  0  0  0  0  0  0  0  0  0
   -0.1847   -8.1952    1.2154 H   0  0  0  0  0  0  0  0  0  0  0  0
   -1.8159   -9.7217   -2.7492 H   0  0  0  0  0  0  0  0  0  0  0  0
   -2.1991   -8.2800   -3.6989 H   0  0  0  0  0  0  0  0  0  0  0  0
   -0.6416   -8.4135   -2.8988 H   0  0  0  0  0  0  0  0  0  0  0  0
   -5.6581   -7.3854   -2.2095 H   0  0  0  0  0  0  0  0  0  0  0  0
    2.3388   -4.2556    1.7911 H   0  0  0  0  0  0  0  0  0  0  0  0
    3.0980   -2.8138    0.6378 H   0  0  0  0  0  0  0  0  0  0  0  0
    1.8652   -2.9412    1.2665 H   0  0  0  0  0  0  0  0  0  0  0  0
   -6.9834   -5.7355   -3.2566 H   0  0  0  0  0  0  0  0  0  0  0  0
   -5.9469   -4.3974   -2.7323 H   0  0  0  0  0  0  0  0  0  0  0  0
   -7.9986   -4.5568   -1.3313 H   0  0  0  0  0  0  0  0  0  0  0  0
   -5.9931   -3.5816   -0.3286 H   0  0  0  0  0  0  0  0  0  0  0  0
   -6.7916   -4.6335    0.8854 H   0  0  0  0  0  0  0  0  0  0  0  0
   -0.0216   -4.4638    1.7182 H   0  0  0  0  0  0  0  0  0  0  0  0
    0.9210   -1.7186    2.3997 H   0  0  0  0  0  0  0  0  0  0  0  0
   -0.5213   -2.1343    3.2411 H   0  0  0  0  0  0  0  0  0  0  0  0
    1.2919   -2.6629   -0.3111 H   0  0  0  0  0  0  0  0  0  0  0  0
    0.2189   -3.7788   -0.1893 H   0  0  0  0  0  0  0  0  0  0  0  0
   -0.1712   -2.0258   -0.4176 H   0  0  0  0  0  0  0  0  0  0  0  0
    2.3211   -3.6082    3.4018 H   0  0  0  0  0  0  0  0  0  0  0  0
    1.6906   -2.5310    4.4874 H   0  0  0  0  0  0  0  0  0  0  0  0
    0.9144   -4.1479    4.2585 H   0  0  0  0  0  0  0  0  0  0  0  0
  1 23  1  0  0  0  0
  2 19  1  0  0  0  0
  2 26  1  0  0  0  0
  3 31  1  0  0  0  0
  4 23  2  0  0  0  0
  5 26  2  0  0  0  0
  6  7  1  0  0  0  0
  6  8  1  0  0  0  0
  6 10  1  0  0  0  0
  6 30  1  6  0  0  0
  7  9  1  0  0  0  0
  7 32  1  1  0  0  0
  7 11  1  0  0  0  0
  8 12  1  0  0  0  0
  8 33  1  6  0  0  0
  8  1  1  0  0  0  0
  9 16  1  0  0  0  0
  9 18  1  0  0  0  0
  9 34  1  1  0  0  0
 10 14  2  0  0  0  0
 10 17  1  0  0  0  0
 11 15  1  0  0  0  0
 11 35  1  0  0  0  0
 11 36  1  0  0  0  0
 12 13  1  0  0  0  0
 12 37  1  0  0  0  0
 12 38  1  0  0  0  0
 13 14  1  0  0  0  0
 13 20  1  0  0  0  0
 13 39  1  6  0  0  0
 14 40  1  0  0  0  0
 15 41  1  0  0  0  0
 15 42  1  0  0  0  0
 16 17  2  0  0  0  0
 16 43  1  0  0  0  0
 17 44  1  0  0  0  0
 18 45  1  0  0  0  0
 18 46  1  0  0  0  0
 18 47  1  0  0  0  0
 19 15  1  0  0  0  0
 19 21  1  0  0  0  0
 19 48  1  6  0  0  0
 20 49  1  0  0  0  0
 20 50  1  0  0  0  0
 20 51  1  0  0  0  0
 21 22  1  0  0  0  0
 21 52  1  0  0  0  0
 21 53  1  0  0  0  0
 22  3  1  0  0  0  0
 22 24  1  0  0  0  0
 22 54  1  6  0  0  0
 24 26  1  0  0  0  0
 24 55  1  0  0  0  0
 24 56  1  0  0  0  0
 25 28  1  0  0  0  0
 25 57  1  1  0  0  0
 25 27  1  0  0  0  0
 25 23  1  0  0  0  0
 27 29  1  0  0  0  0
 27 58  1  0  0  0  0
 27 59  1  0  0  0  0
 28 60  1  0  0  0  0
 28 61  1  0  0  0  0
 28 62  1  0  0  0  0
 29 63  1  0  0  0  0
 29 64  1  0  0  0  0
 29 65  1  0  0  0  0
M  END
>  <DRUGBANK_ID>
DB00227

>  <SECONDARY_ACCESSION_NUMBERS>
APRD00370

>  <COMMON_NAME>
Lovastatin

>  <CAS_NUMBER>
75330-75-5

>  <UNII>
9LHU78OQFD

>  <SYNONYMS>
(1S,3R,7S,8S,8aR)-1,2,3,7,8,8a-hexahydro-3,7-dimethyl-8-(2-(2R,4R)-(tetrahydro-4-hydroxy-6-oxo-2H-pyran-2-yl)ethyl)-1-naphthalenyl (S)-2-methyl-butyrate; 2β,6α-dimethyl-8alpha-(2-methyl-1-oxobutoxy)-mevinic acid lactone; 6-alpha-methylcompactin; 6alpha-methylcompactin; 6α-methylcompactin; Lovastatin; Lovastatina; Lovastatine; Lovastatinum; Mevinolin

$$$$
