697
 OpenBabel10282417163D

 28 30  0  0  0  0  0  0  0  0999 V2000
    0.7787   -0.0010   -0.0100 C   0  0  0  0  0  0  0  0  0  0  0  0
    0.0420   -1.1672   -0.0289 C   0  0  0  0  0  0  0  0  0  0  0  0
   -1.3804   -1.1033   -0.1776 C   0  0  0  0  0  0  0  0  0  0  0  0
   -2.1325    0.1013   -0.3713 C   0  0  0  0  0  0  0  0  0  0  0  0
   -1.3470    1.2594   -0.1983 C   0  0  0  0  0  0  0  0  0  0  0  0
    0.0847    1.2042   -0.0378 C   0  0  0  0  0  0  0  0  0  0  0  0
    2.1447    0.0296    0.0405 O   0  0  0  0  0  0  0  0  0  0  0  0
   -3.6606    0.0173   -0.5918 C   0  0  0  0  0  0  0  0  0  0  0  0
   -4.7912    0.5535   -1.2744 C   0  0  0  0  0  0  0  0  0  0  0  0
   -6.0050   -0.1448   -0.8040 C   0  0  0  0  0  0  0  0  0  0  0  0
   -5.4974   -1.0832    0.0745 C   0  0  0  0  0  0  0  0  0  0  0  0
   -4.1523   -1.0261    0.1444 O   0  0  0  0  0  0  0  0  0  0  0  0
   -7.4377   -0.1122   -0.9651 C   0  0  0  0  0  0  0  0  0  0  0  0
   -8.2289   -0.9760   -0.1636 C   0  0  0  0  0  0  0  0  0  0  0  0
   -7.6519   -1.8701    0.7325 C   0  0  0  0  0  0  0  0  0  0  0  0
   -6.2694   -1.9514    0.8320 C   0  0  0  0  0  0  0  0  0  0  0  0
   -9.5993   -0.9911   -0.1805 O   0  0  0  0  0  0  0  0  0  0  0  0
   -5.5781   -2.8299    1.7241 C   0  0  0  0  0  0  0  0  0  0  0  0
   -5.0039   -3.5231    2.4361 N   0  0  0  0  0  0  0  0  0  0  0  0
    0.5385   -2.1326    0.0605 H   0  0  0  0  0  0  0  0  0  0  0  0
   -1.9037   -2.0575   -0.1186 H   0  0  0  0  0  0  0  0  0  0  0  0
   -1.7947    2.2466   -0.1317 H   0  0  0  0  0  0  0  0  0  0  0  0
    0.6728    2.1179    0.0577 H   0  0  0  0  0  0  0  0  0  0  0  0
    2.5261   -0.8646   -0.0154 H   0  0  0  0  0  0  0  0  0  0  0  0
   -4.8633    1.3426   -2.0183 H   0  0  0  0  0  0  0  0  0  0  0  0
   -7.9316    0.5813   -1.6449 H   0  0  0  0  0  0  0  0  0  0  0  0
   -8.2794   -2.4929    1.3661 H   0  0  0  0  0  0  0  0  0  0  0  0
   -9.9633   -0.3653   -0.8259 H   0  0  0  0  0  0  0  0  0  0  0  0
  1  2  2  0  0  0  0
  1  6  1  0  0  0  0
  1  7  1  0  0  0  0
  2  3  1  0  0  0  0
  2 20  1  0  0  0  0
  3  4  2  0  0  0  0
  3 21  1  0  0  0  0
  4  5  1  0  0  0  0
  4  8  1  0  0  0  0
  5  6  2  0  0  0  0
  5 22  1  0  0  0  0
  6 23  1  0  0  0  0
  7 24  1  0  0  0  0
  8  9  2  0  0  0  0
  8 12  1  0  0  0  0
  9 10  1  0  0  0  0
  9 25  1  0  0  0  0
 10 11  2  0  0  0  0
 10 13  1  0  0  0  0
 11 12  1  0  0  0  0
 11 16  1  0  0  0  0
 13 14  2  0  0  0  0
 13 26  1  0  0  0  0
 14 15  1  0  0  0  0
 14 17  1  0  0  0  0
 15 16  2  0  0  0  0
 15 27  1  0  0  0  0
 16 18  1  0  0  0  0
 17 28  1  0  0  0  0
 18 19  3  0  0  0  0
M  END
>  <DRUGBANK_ID>
DB07198

>  <COMMON_NAME>
5-HYDROXY-2-(4-HYDROXYPHENYL)-1-BENZOFURAN-7-CARBONITRILE

$$$$
