0MO
 OpenBabel10282417163D

 42 43  0  0  0  0  0  0  0  0999 V2000
    1.3327   -0.0153   -0.0346 C   0  0  0  0  0  0  0  0  0  0  0  0
   -4.6750   -2.2912    0.8566 N   0  0  0  0  0  0  0  0  0  0  0  0
   -1.0228    2.2487    2.0062 O   0  0  0  0  0  0  0  0  0  0  0  0
    1.1560   -0.3145    1.4384 C   0  0  0  0  0  0  0  0  0  0  0  0
   -3.1788   -2.5844    2.5186 N   0  0  0  0  0  0  0  0  0  0  0  0
   -3.1046    3.0421   -0.0540 O   0  0  0  0  0  0  0  0  0  0  0  0
    1.1338    0.8938    2.3808 C   0  0  0  0  0  0  0  0  0  0  0  0
   -4.5539   -0.7090    2.5639 O   0  0  0  0  0  0  0  0  0  0  0  0
    0.4219    2.1785    1.8952 C   0  0  0  0  0  0  0  0  0  0  0  0
   -1.7402    1.4052    1.2036 C   0  0  0  0  0  0  0  0  0  0  0  0
   -2.6762    1.7798    0.2481 C   0  0  0  0  0  0  0  0  0  0  0  0
   -2.3382    4.0918    0.5156 C   0  0  0  0  0  0  0  0  0  0  0  0
   -3.2996    0.7729   -0.5075 C   0  0  0  0  0  0  0  0  0  0  0  0
   -2.7926   -0.5248   -0.5143 C   0  0  0  0  0  0  0  0  0  0  0  0
   -1.9553   -0.9150    0.5167 C   0  0  0  0  0  0  0  0  0  0  0  0
   -1.5402   -2.3726    0.7031 C   0  0  0  0  0  0  0  0  0  0  0  0
   -2.6214   -3.2488    1.3575 C   0  0  2  0  0  0  0  0  0  0  0  0
   -3.8497   -3.4094    0.4727 C   0  0  0  0  0  0  0  0  0  0  0  0
   -4.2222   -1.7589    2.0703 C   0  0  0  0  0  0  0  0  0  0  0  0
   -1.6659    0.0572    1.4859 C   0  0  0  0  0  0  0  0  0  0  0  0
   -2.1889   -4.2141    1.6390 H   0  0  0  0  0  0  0  0  0  0  0  0
    0.7901    0.8790   -0.3539 H   0  0  0  0  0  0  0  0  0  0  0  0
    0.9110   -0.8245   -0.6433 H   0  0  0  0  0  0  0  0  0  0  0  0
    2.3889    0.1000   -0.2602 H   0  0  0  0  0  0  0  0  0  0  0  0
   -5.0947   -1.6339    0.2084 H   0  0  0  0  0  0  0  0  0  0  0  0
    0.2332   -0.8270    1.4846 H   0  0  0  0  0  0  0  0  0  0  0  0
    1.7714   -1.1306    1.8276 H   0  0  0  0  0  0  0  0  0  0  0  0
   -2.5942   -2.1907    3.2452 H   0  0  0  0  0  0  0  0  0  0  0  0
    0.7001    0.6027    3.3475 H   0  0  0  0  0  0  0  0  0  0  0  0
    2.1867    1.1266    2.5646 H   0  0  0  0  0  0  0  0  0  0  0  0
    0.7808    2.9792    2.5578 H   0  0  0  0  0  0  0  0  0  0  0  0
    0.7566    2.4935    0.9005 H   0  0  0  0  0  0  0  0  0  0  0  0
   -2.4486    4.1073    1.6040 H   0  0  0  0  0  0  0  0  0  0  0  0
   -1.2881    4.0185    0.2100 H   0  0  0  0  0  0  0  0  0  0  0  0
   -2.7232    5.0400    0.1360 H   0  0  0  0  0  0  0  0  0  0  0  0
   -4.1996    0.9884   -1.0761 H   0  0  0  0  0  0  0  0  0  0  0  0
   -3.1944   -1.2628   -1.2000 H   0  0  0  0  0  0  0  0  0  0  0  0
   -1.1911   -2.7843   -0.2545 H   0  0  0  0  0  0  0  0  0  0  0  0
   -0.6639   -2.4575    1.3588 H   0  0  0  0  0  0  0  0  0  0  0  0
   -4.4163   -4.2990    0.7543 H   0  0  0  0  0  0  0  0  0  0  0  0
   -3.6339   -3.4425   -0.5998 H   0  0  0  0  0  0  0  0  0  0  0  0
   -1.2598   -0.2151    2.4564 H   0  0  0  0  0  0  0  0  0  0  0  0
  1 22  1  0  0  0  0
  1 23  1  0  0  0  0
  1 24  1  0  0  0  0
  2 19  1  0  0  0  0
  2 25  1  0  0  0  0
  3 10  1  0  0  0  0
  3  9  1  0  0  0  0
  4  1  1  0  0  0  0
  4  7  1  0  0  0  0
  4 26  1  0  0  0  0
  4 27  1  0  0  0  0
  5 19  1  0  0  0  0
  5 28  1  0  0  0  0
  6 11  1  0  0  0  0
  7  9  1  0  0  0  0
  7 29  1  0  0  0  0
  7 30  1  0  0  0  0
  9 31  1  0  0  0  0
  9 32  1  0  0  0  0
 10 20  1  0  0  0  0
 11 10  2  0  0  0  0
 11 13  1  0  0  0  0
 12  6  1  0  0  0  0
 12 33  1  0  0  0  0
 12 34  1  0  0  0  0
 12 35  1  0  0  0  0
 13 14  2  0  0  0  0
 13 36  1  0  0  0  0
 14 15  1  0  0  0  0
 14 37  1  0  0  0  0
 15 16  1  0  0  0  0
 16 38  1  0  0  0  0
 16 39  1  0  0  0  0
 17 16  1  0  0  0  0
 17  5  1  0  0  0  0
 17 18  1  0  0  0  0
 17 21  1  1  0  0  0
 18  2  1  0  0  0  0
 18 40  1  0  0  0  0
 18 41  1  0  0  0  0
 19  8  2  0  0  0  0
 20 15  2  0  0  0  0
 20 42  1  0  0  0  0
M  END
>  <DRUGBANK_ID>
DB06842

>  <COMMON_NAME>
(4R)-4-(3-butoxy-4-methoxybenzyl)imidazolidin-2-one

$$$$
