
 OpenBabel10282417173D

 31 32  0  0  0  0  0  0  0  0999 V2000
   -2.4765   -0.0764    0.0104 C   0  0  0  0  0  0  0  0  0  0  0  0
    3.6676    4.8588   -1.6530 C   0  0  0  0  0  0  0  0  0  0  0  0
    1.3528   -3.5151    0.0030 C   0  0  0  0  0  0  0  0  0  0  0  0
    0.6250    4.4153    2.8607 C   0  0  0  0  0  0  0  0  0  0  0  0
   -0.2692   -1.2492   -0.0056 C   0  0  0  0  0  0  0  0  0  0  0  0
    2.1772    4.5141    0.4263 C   0  0  0  0  0  0  0  0  0  0  0  0
   -0.9788   -0.0686    0.0348 C   0  0  0  0  0  0  0  0  0  0  0  0
    2.7859    4.0683   -0.7604 C   0  0  0  0  0  0  0  0  0  0  0  0
    1.1051   -1.1489   -0.0466 C   0  0  0  0  0  0  0  0  0  0  0  0
    1.4111    3.4649    0.8771 C   0  0  0  0  0  0  0  0  0  0  0  0
    0.9746    1.1442   -0.0149 C   0  0  0  0  0  0  0  0  0  0  0  0
   -0.3763    1.1320    0.0797 N   0  0  0  0  0  0  0  0  0  0  0  0
    1.7422    0.0341   -0.1031 N   0  0  0  0  0  0  0  0  0  0  0  0
    2.5041    2.7862   -1.0157 N   0  0  0  0  0  0  0  0  0  0  0  0
    1.6170    2.4262   -0.0299 N   0  0  0  0  0  0  0  0  0  0  0  0
    1.9537   -2.2252   -0.0248 O   0  0  0  0  0  0  0  0  0  0  0  0
    0.6507    3.3038    1.9709 O   0  0  0  0  0  0  0  0  0  0  0  0
   -2.8647    0.4336    0.8959 H   0  0  0  0  0  0  0  0  0  0  0  0
   -2.8342    0.4375   -0.8876 H   0  0  0  0  0  0  0  0  0  0  0  0
   -2.8763   -1.0958   -0.0027 H   0  0  0  0  0  0  0  0  0  0  0  0
    4.6375    4.3700   -1.7767 H   0  0  0  0  0  0  0  0  0  0  0  0
    3.2076    4.9931   -2.6373 H   0  0  0  0  0  0  0  0  0  0  0  0
    3.8444    5.8558   -1.2326 H   0  0  0  0  0  0  0  0  0  0  0  0
    0.7512   -3.6581    0.9084 H   0  0  0  0  0  0  0  0  0  0  0  0
    0.7513   -3.6843   -0.8968 H   0  0  0  0  0  0  0  0  0  0  0  0
    2.1472   -4.2673    0.0154 H   0  0  0  0  0  0  0  0  0  0  0  0
    1.6282    4.6340    3.2451 H   0  0  0  0  0  0  0  0  0  0  0  0
    0.2058    5.2981    2.3659 H   0  0  0  0  0  0  0  0  0  0  0  0
   -0.0157    4.1630    3.7101 H   0  0  0  0  0  0  0  0  0  0  0  0
   -0.7908   -2.1945   -0.0046 H   0  0  0  0  0  0  0  0  0  0  0  0
    2.2939    5.4834    0.8914 H   0  0  0  0  0  0  0  0  0  0  0  0
  1 18  1  0  0  0  0
  1 19  1  0  0  0  0
  1 20  1  0  0  0  0
  2 21  1  0  0  0  0
  2 22  1  0  0  0  0
  2 23  1  0  0  0  0
  3 24  1  0  0  0  0
  3 25  1  0  0  0  0
  3 26  1  0  0  0  0
  4 27  1  0  0  0  0
  4 28  1  0  0  0  0
  4 29  1  0  0  0  0
  5 30  1  0  0  0  0
  6 31  1  0  0  0  0
  7  1  1  0  0  0  0
  7  5  2  0  0  0  0
  8  2  1  0  0  0  0
  8  6  1  0  0  0  0
  9  5  1  0  0  0  0
 10  6  2  0  0  0  0
 12  7  1  0  0  0  0
 12 11  2  0  0  0  0
 13  9  2  0  0  0  0
 13 11  1  0  0  0  0
 14  8  2  0  0  0  0
 15 10  1  0  0  0  0
 15 11  1  0  0  0  0
 15 14  1  0  0  0  0
 16  3  1  0  0  0  0
 16  9  1  0  0  0  0
 17  4  1  0  0  0  0
 17 10  1  0  0  0  0
M  END
>  <DRUGBANK_ID>
DB08991

>  <COMMON_NAME>
Epirizole

>  <CAS_NUMBER>
18694-40-1

>  <UNII>
3B46O2FH8I

>  <SYNONYMS>
4-methoxy-2-(5-methoxy-3-methylpyrazol-1-yl)-6-methylpyrimidine; Epirizol; Epirizole; Epirizolum; Mepirizol; Methopyrimazole; Polihexanid

$$$$
