
 OpenBabel10282417133D

129132  0  0  0  0  0  0  0  0999 V2000
   -2.5096    1.1510    2.3598 C   0  0  0  0  0  0  0  0  0  0  0  0
   -2.1153   -2.0422   -2.8489 C   0  0  0  0  0  0  0  0  0  0  0  0
    2.5192   -5.7094   -3.7546 C   0  0  0  0  0  0  0  0  0  0  0  0
   -4.6595    1.4847   -2.9545 C   0  0  0  0  0  0  0  0  0  0  0  0
    3.0388   -4.1809    1.3927 C   0  0  0  0  0  0  0  0  0  0  0  0
   -3.8927   -2.1137   -3.8962 C   0  0  0  0  0  0  0  0  0  0  0  0
    3.4626   -0.2327   -3.4671 C   0  0  0  0  0  0  0  0  0  0  0  0
    8.9990  -17.5896   -3.8133 C   0  0  0  0  0  0  0  0  0  0  0  0
   -1.0831    3.2216    1.7849 C   0  0  0  0  0  0  0  0  0  0  0  0
    4.5394   -2.3530   -0.5359 C   0  0  0  0  0  0  0  0  0  0  0  0
    7.9930  -16.7803   -4.3898 C   0  0  0  0  0  0  0  0  0  0  0  0
    3.7882   -3.4929   -1.2134 C   0  0  0  0  0  0  0  0  0  0  0  0
    4.1697   -1.0527   -1.1835 C   0  0  0  0  0  0  0  0  0  0  0  0
    7.4377  -14.2243   -3.2434 C   0  0  0  0  0  0  0  0  0  0  0  0
    7.4579  -16.4467   -5.5076 C   0  0  0  0  0  0  0  0  0  0  0  0
   -2.3109   -0.6937    0.7473 C   0  0  0  0  0  0  0  0  0  0  0  0
   -3.6044   -0.2586    0.0865 C   0  0  0  0  0  0  0  0  0  0  0  0
   -0.2728   -0.7077   -3.7028 C   0  0  0  0  0  0  0  0  0  0  0  0
    0.9456   -0.4763   -3.1942 C   0  0  0  0  0  0  0  0  0  0  0  0
    4.7673   -4.8132   -3.2320 C   0  0  0  0  0  0  0  0  0  0  0  0
    2.6138   -0.7742    0.2297 C   0  0  0  0  0  0  0  0  0  0  0  0
    1.4186   -0.3861    0.3321 C   0  0  0  0  0  0  0  0  0  0  0  0
    5.5373   -6.6874   -5.7870 C   0  0  0  0  0  0  0  0  0  0  0  0
    6.3687  -13.4931   -3.4197 C   0  0  0  0  0  0  0  0  0  0  0  0
    3.7682  -10.9521   -5.5408 C   0  0  0  0  0  0  0  0  0  0  0  0
    2.0260   -0.7867   -5.4517 C   0  0  0  0  0  0  0  0  0  0  0  0
   -1.6060    0.5127    1.3309 C   0  0  1  0  0  0  0  0  0  0  0  0
   -1.5049   -0.6794   -2.8342 C   0  0  3  0  0  0  0  0  0  0  0  0
    3.8834   -5.3865   -4.3291 C   0  0  1  0  0  0  0  0  0  0  0  0
   -3.7055    0.4259   -2.4492 C   0  0  2  0  0  0  0  0  0  0  0  0
    4.3871   -7.0798   -0.4112 C   0  0  2  0  0  0  0  0  0  0  0  0
   -3.5145   -1.1167   -4.9875 C   0  0  0  0  0  0  0  0  0  0  0  0
    4.1381   -3.5545   -2.6665 C   0  0  0  0  0  0  0  0  0  0  0  0
    2.6820   -0.8098   -1.0704 C   0  0  1  0  0  0  0  0  0  0  0  0
    4.5159   -6.6257   -4.9016 C   0  0  0  0  0  0  0  0  0  0  0  0
    6.1810  -13.4173   -4.5949 C   0  0  0  0  0  0  0  0  0  0  0  0
    4.8372  -10.1867   -5.2165 C   0  0  0  0  0  0  0  0  0  0  0  0
   -3.3108    0.7400   -1.0222 C   0  0  0  0  0  0  0  0  0  0  0  0
    6.1668  -11.0850   -1.8971 C   0  0  1  0  0  0  0  0  0  0  0  0
   -0.8034    1.2549    0.2944 C   0  0  1  0  0  0  0  0  0  0  0  0
    2.9466   -3.5629    0.2850 C   0  0  1  0  0  0  0  0  0  0  0  0
    7.0046  -15.3038   -4.9119 C   0  0  0  0  0  0  0  0  0  0  0  0
    3.1646    0.4234    1.0321 C   0  0  0  0  0  0  0  0  0  0  0  0
   -2.4685    0.3860   -3.3305 C   0  0  3  0  0  0  0  0  0  0  0  0
    5.3863  -12.2231   -4.9152 C   0  0  0  0  0  0  0  0  0  0  0  0
    4.9247   -8.6858   -5.2771 C   0  0  0  0  0  0  0  0  0  0  0  0
    6.4542  -14.3992   -5.4206 N   0  0  0  0  0  0  0  0  0  0  0  0
    4.1599   -7.8727   -4.6153 N   0  0  0  0  0  0  0  0  0  0  0  0
    5.8089  -11.0003   -4.8269 N   0  0  0  0  0  0  0  0  0  0  0  0
    2.1369   -0.5012   -4.0194 N   0  0  0  0  0  0  0  0  0  0  0  0
    1.4480   -2.0738   -5.6378 O   0  0  0  0  0  0  0  0  0  0  0  0
   -3.8416   -1.3847   -6.1576 O   0  0  0  0  0  0  0  0  0  0  0  0
    3.9129   -2.6044   -3.4132 O   0  0  0  0  0  0  0  0  0  0  0  0
    2.3138    0.4602   -1.6309 O   0  0  0  0  0  0  0  0  0  0  0  0
   -2.7695    1.8296   -0.7765 O   0  0  0  0  0  0  0  0  0  0  0  0
    4.3399    0.4102    1.0835 O   0  0  0  0  0  0  0  0  0  0  0  0
    7.6254  -14.2997   -2.8496 O   0  0  0  0  0  0  0  0  0  0  0  0
   -1.5432    2.7818    0.5443 O   0  0  0  0  0  0  0  0  0  0  0  0
    6.1971  -14.6479   -3.2087 O   0  0  0  0  0  0  0  0  0  0  0  0
    5.7912   -7.9985   -6.0124 O   0  0  0  0  0  0  0  0  0  0  0  0
    4.1327  -12.2449   -5.3496 O   0  0  0  0  0  0  0  0  0  0  0  0
   -2.8508    0.0870   -4.6753 O   0  0  0  0  0  0  0  0  0  0  0  0
    2.4383   -0.8716    1.1696 O   0  0  0  0  0  0  0  0  0  0  0  0
    8.4767  -17.0479   -3.2451 H   0  0  0  0  0  0  0  0  0  0  0  0
    7.4667  -16.8615   -6.3702 H   0  0  0  0  0  0  0  0  0  0  0  0
   -0.3682   -0.9167   -4.7576 H   0  0  0  0  0  0  0  0  0  0  0  0
    1.0183   -0.2728   -2.1375 H   0  0  0  0  0  0  0  0  0  0  0  0
   -0.6913    0.2004    1.7422 H   0  0  0  0  0  0  0  0  0  0  0  0
   -1.2259   -0.4593   -1.8209 H   0  0  0  0  0  0  0  0  0  0  0  0
    3.7718   -4.6475   -5.1099 H   0  0  0  0  0  0  0  0  0  0  0  0
   -4.2010   -0.5217   -2.4765 H   0  0  0  0  0  0  0  0  0  0  0  0
    3.1737   -5.3231    0.2647 H   0  0  0  0  0  0  0  0  0  0  0  0
    2.1317   -1.6053   -1.5251 H   0  0  0  0  0  0  0  0  0  0  0  0
    7.4282  -12.6550   -2.8670 H   0  0  0  0  0  0  0  0  0  0  0  0
   -1.4064    1.1367   -0.6943 H   0  0  0  0  0  0  0  0  0  0  0  0
    1.9894   -1.3871    1.1911 H   0  0  0  0  0  0  0  0  0  0  0  0
   -1.9821    1.3468   -3.3021 H   0  0  0  0  0  0  0  0  0  0  0  0
   -3.4150    1.4869    1.9045 H   0  0  0  0  0  0  0  0  0  0  0  0
   -2.1314    1.9151    2.8447 H   0  0  0  0  0  0  0  0  0  0  0  0
   -2.7148    0.4736    3.1521 H   0  0  0  0  0  0  0  0  0  0  0  0
   -2.3779   -2.2466   -3.8797 H   0  0  0  0  0  0  0  0  0  0  0  0
   -1.5181   -2.7963   -2.5183 H   0  0  0  0  0  0  0  0  0  0  0  0
   -2.9880   -2.0714   -2.1249 H   0  0  0  0  0  0  0  0  0  0  0  0
    2.6113   -5.4902   -2.7085 H   0  0  0  0  0  0  0  0  0  0  0  0
    1.8484   -5.0061   -4.2090 H   0  0  0  0  0  0  0  0  0  0  0  0
    2.1198   -6.7037   -3.8705 H   0  0  0  0  0  0  0  0  0  0  0  0
   -4.1774    2.4457   -2.9238 H   0  0  0  0  0  0  0  0  0  0  0  0
   -4.9473    1.2665   -3.9669 H   0  0  0  0  0  0  0  0  0  0  0  0
   -5.5361    1.5088   -2.3343 H   0  0  0  0  0  0  0  0  0  0  0  0
    2.0347   -2.0876    2.5260 H   0  0  0  0  0  0  0  0  0  0  0  0
    1.8374   -2.3828    2.7889 H   0  0  0  0  0  0  0  0  0  0  0  0
    2.4385   -1.9881    2.5980 H   0  0  0  0  0  0  0  0  0  0  0  0
   -4.8814   -2.2738   -3.8011 H   0  0  0  0  0  0  0  0  0  0  0  0
   -3.3608   -3.0768   -4.0767 H   0  0  0  0  0  0  0  0  0  0  0  0
   -3.5929   -1.6679   -3.0458 H   0  0  0  0  0  0  0  0  0  0  0  0
    4.1038   -1.0681   -3.6108 H   0  0  0  0  0  0  0  0  0  0  0  0
    3.9139    0.6157   -3.9125 H   0  0  0  0  0  0  0  0  0  0  0  0
    3.4069   -0.0493   -2.4416 H   0  0  0  0  0  0  0  0  0  0  0  0
   10.0642  -19.8695   -3.9238 H   0  0  0  0  0  0  0  0  0  0  0  0
    9.2122  -19.9644   -4.6217 H   0  0  0  0  0  0  0  0  0  0  0  0
    9.8766  -19.8481   -4.6397 H   0  0  0  0  0  0  0  0  0  0  0  0
   -1.3175    2.6466    2.5226 H   0  0  0  0  0  0  0  0  0  0  0  0
   -0.0226    3.2053    1.8035 H   0  0  0  0  0  0  0  0  0  0  0  0
   -1.4534    4.1920    2.0107 H   0  0  0  0  0  0  0  0  0  0  0  0
    5.5867   -2.5236   -0.6243 H   0  0  0  0  0  0  0  0  0  0  0  0
    4.2912   -2.3078    0.5130 H   0  0  0  0  0  0  0  0  0  0  0  0
    4.0349   -4.4182   -0.7195 H   0  0  0  0  0  0  0  0  0  0  0  0
    2.7138   -3.3276   -1.1171 H   0  0  0  0  0  0  0  0  0  0  0  0
    4.4446   -1.0971   -2.2091 H   0  0  0  0  0  0  0  0  0  0  0  0
    4.7032   -0.2389   -0.7364 H   0  0  0  0  0  0  0  0  0  0  0  0
    7.8332  -16.6270   -4.0116 H   0  0  0  0  0  0  0  0  0  0  0  0
    8.1213  -16.4174   -4.4125 H   0  0  0  0  0  0  0  0  0  0  0  0
   -1.6768   -1.1645    0.0184 H   0  0  0  0  0  0  0  0  0  0  0  0
   -2.5249   -1.3979    1.5327 H   0  0  0  0  0  0  0  0  0  0  0  0
   -4.1075   -1.1147   -0.3214 H   0  0  0  0  0  0  0  0  0  0  0  0
   -4.2426    0.2058    0.8186 H   0  0  0  0  0  0  0  0  0  0  0  0
    5.7358   -4.5774   -3.6372 H   0  0  0  0  0  0  0  0  0  0  0  0
    4.8824   -5.5451   -2.4525 H   0  0  0  0  0  0  0  0  0  0  0  0
    3.0036   -1.6109    0.7524 H   0  0  0  0  0  0  0  0  0  0  0  0
    1.2104   -1.3173    0.4280 H   0  0  0  0  0  0  0  0  0  0  0  0
    0.7777    0.5725   -0.3262 H   0  0  0  0  0  0  0  0  0  0  0  0
    0.8955    1.8646   -0.1094 H   0  0  0  0  0  0  0  0  0  0  0  0
    6.0568   -5.8620   -6.2320 H   0  0  0  0  0  0  0  0  0  0  0  0
    6.6280  -13.2053   -2.4059 H   0  0  0  0  0  0  0  0  0  0  0  0
    2.8118  -10.6181   -5.8893 H   0  0  0  0  0  0  0  0  0  0  0  0
    1.3964   -0.0432   -5.9171 H   0  0  0  0  0  0  0  0  0  0  0  0
    2.9941   -0.7629   -5.9153 H   0  0  0  0  0  0  0  0  0  0  0  0
    2.0265   -2.7520   -5.2110 H   0  0  0  0  0  0  0  0  0  0  0  0
    2.3849    0.8984   -0.8087 H   0  0  0  0  0  0  0  0  0  0  0  0
  1 78  1  0  0  0  0
  1 79  1  0  0  0  0
  1 80  1  0  0  0  0
  2 81  1  0  0  0  0
  2 82  1  0  0  0  0
  2 83  1  0  0  0  0
  3 84  1  0  0  0  0
  3 85  1  0  0  0  0
  3 86  1  0  0  0  0
  4 87  1  0  0  0  0
  4 88  1  0  0  0  0
  4 89  1  0  0  0  0
  5 90  1  0  0  0  0
  5 91  1  0  0  0  0
  5 92  1  0  0  0  0
  6 93  1  0  0  0  0
  6 94  1  0  0  0  0
  6 95  1  0  0  0  0
  7 96  1  0  0  0  0
  7 97  1  0  0  0  0
  7 98  1  0  0  0  0
  8 99  1  0  0  0  0
  8100  1  0  0  0  0
  8101  1  0  0  0  0
  9102  1  0  0  0  0
  9103  1  0  0  0  0
  9104  1  0  0  0  0
 10105  1  0  0  0  0
 10106  1  0  0  0  0
 12 10  1  0  0  0  0
 12107  1  0  0  0  0
 12108  1  0  0  0  0
 13 10  1  0  0  0  0
 13109  1  0  0  0  0
 13110  1  0  0  0  0
 14 11  1  0  0  0  0
 14111  1  0  0  0  0
 14112  1  0  0  0  0
 15 11  2  0  0  0  0
 16113  1  0  0  0  0
 16114  1  0  0  0  0
 17 16  1  0  0  0  0
 17115  1  0  0  0  0
 17116  1  0  0  0  0
 19 18  2  3  0  0  0
 19 67  1  0  0  0  0
 20117  1  0  0  0  0
 20118  1  0  0  0  0
 21119  1  0  0  0  0
 21120  1  0  0  0  0
 22121  1  0  0  0  0
 22122  1  0  0  0  0
 23123  1  0  0  0  0
 24124  1  0  0  0  0
 25125  1  0  0  0  0
 26126  1  0  0  0  0
 26127  1  0  0  0  0
 27  1  1  0  0  0  0
 27 16  1  0  0  0  0
 27 68  1  1  0  0  0
 28  2  1  0  0  0  0
 28 18  1  0  0  0  0
 29 20  1  0  0  0  0
 29 35  1  0  0  0  0
 29 70  1  6  0  0  0
 29  3  1  0  0  0  0
 30  4  1  0  0  0  0
 30 38  1  0  0  0  0
 30 44  1  0  0  0  0
 30 71  1  6  0  0  0
 31  5  1  0  0  0  0
 31 39  1  0  0  0  0
 31 41  1  0  0  0  0
 31 72  1  6  0  0  0
 32  6  1  0  0  0  0
 33 12  1  0  0  0  0
 33 20  1  0  0  0  0
 34 13  1  0  0  0  0
 34 21  1  0  0  0  0
 34 73  1  6  0  0  0
 34 54  1  0  0  0  0
 35 23  2  0  0  0  0
 36 24  2  0  0  0  0
 37 25  2  0  0  0  0
 38 17  1  0  0  0  0
 39 14  1  0  0  0  0
 39 57  1  0  0  0  0
 39 74  1  6  0  0  0
 40 58  1  0  0  0  0
 40 75  1  6  0  0  0
 40 27  1  0  0  0  0
 40 22  1  0  0  0  0
 41 22  1  0  0  0  0
 41 63  1  0  0  0  0
 41 76  1  1  0  0  0
 42 15  1  0  0  0  0
 43 21  1  0  0  0  0
 44 28  1  0  0  0  0
 45 36  1  0  0  0  0
 46 37  1  0  0  0  0
 47 36  1  0  0  0  0
 47 42  2  0  0  0  0
 48 35  1  0  0  0  0
 48 46  2  0  0  0  0
 49 37  1  0  0  0  0
 49 45  2  0  0  0  0
 50  7  1  0  0  0  0
 50 19  1  0  0  0  0
 50 26  1  0  0  0  0
 51 26  1  0  0  0  0
 51128  1  0  0  0  0
 52 32  2  0  0  0  0
 53 33  2  0  0  0  0
 54129  1  0  0  0  0
 55 38  2  0  0  0  0
 56 43  2  0  0  0  0
 57  8  1  0  0  0  0
 58  9  1  0  0  0  0
 59 24  1  0  0  0  0
 59 42  1  0  0  0  0
 60 23  1  0  0  0  0
 60 46  1  0  0  0  0
 61 25  1  0  0  0  0
 61 45  1  0  0  0  0
 62 32  1  0  0  0  0
 62 44  1  0  0  0  0
 63 43  1  0  0  0  0
 64 11  1  0  0  0  0
 65 15  1  0  0  0  0
 66 18  1  0  0  0  0
 69 28  1  0  0  0  0
 77 44  1  0  0  0  0
M  END
>  <DRUGBANK_ID>
DB03021

>  <SECONDARY_ACCESSION_NUMBERS>
EXPT03182

>  <COMMON_NAME>
Ulapualide A

$$$$
