
 OpenBabel10282417203D

 24 24  0  0  0  0  0  0  0  0999 V2000
    1.4288   -0.2910   -0.0398 C   0  0  0  0  0  0  0  0  0  0  0  0
    0.5236   -1.3527   -0.0017 C   0  0  0  0  0  0  0  0  0  0  0  0
   -0.8546   -1.1172   -0.0801 C   0  0  0  0  0  0  0  0  0  0  0  0
   -1.3323    0.1823   -0.2838 C   0  0  0  0  0  0  0  0  0  0  0  0
   -0.3894    1.2073   -0.4671 C   0  0  0  0  0  0  0  0  0  0  0  0
    0.9695    0.9953   -0.2701 C   0  0  0  0  0  0  0  0  0  0  0  0
   -2.8111    0.5097   -0.2326 C   0  0  3  0  0  0  0  0  0  0  0  0
   -3.2735    1.3020    1.0270 C   0  0  0  0  0  0  0  0  0  0  0  0
   -2.6444    2.6088    1.1520 O   0  0  0  0  0  0  0  0  0  0  0  0
   -1.4355    2.6244    1.7764 C   0  0  0  0  0  0  0  0  0  0  0  0
   -0.9171    1.6968    2.3646 O   0  0  0  0  0  0  0  0  0  0  0  0
   -0.7788    3.7908    1.5298 N   0  0  0  0  0  0  0  0  0  0  0  0
   -3.1625    1.2415   -1.4125 O   0  0  0  0  0  0  0  0  0  0  0  0
    2.4897   -0.4625    0.1120 H   0  0  0  0  0  0  0  0  0  0  0  0
    0.8961   -2.3661    0.1151 H   0  0  0  0  0  0  0  0  0  0  0  0
   -1.5407   -1.9540    0.0322 H   0  0  0  0  0  0  0  0  0  0  0  0
   -0.7186    2.2260   -0.6424 H   0  0  0  0  0  0  0  0  0  0  0  0
    1.6465    1.8441   -0.2645 H   0  0  0  0  0  0  0  0  0  0  0  0
   -3.3895   -0.4222   -0.2800 H   0  0  0  0  0  0  0  0  0  0  0  0
   -4.3466    1.5082    0.9165 H   0  0  0  0  0  0  0  0  0  0  0  0
   -3.1516    0.7168    1.9458 H   0  0  0  0  0  0  0  0  0  0  0  0
   -1.2412    4.6062    1.1639 H   0  0  0  0  0  0  0  0  0  0  0  0
    0.2244    3.7949    1.6587 H   0  0  0  0  0  0  0  0  0  0  0  0
   -2.6887    2.0878   -1.3603 H   0  0  0  0  0  0  0  0  0  0  0  0
  1  2  2  0  0  0  0
  1  6  1  0  0  0  0
  1 14  1  0  0  0  0
  2  3  1  0  0  0  0
  2 15  1  0  0  0  0
  3  4  2  0  0  0  0
  3 16  1  0  0  0  0
  4  5  1  0  0  0  0
  4  7  1  0  0  0  0
  5  6  2  0  0  0  0
  5 17  1  0  0  0  0
  6 18  1  0  0  0  0
  7  8  1  0  0  0  0
  7 13  1  0  0  0  0
  7 19  1  0  0  0  0
  8  9  1  0  0  0  0
  8 20  1  0  0  0  0
  8 21  1  0  0  0  0
  9 10  1  0  0  0  0
 10 11  2  0  0  0  0
 10 12  1  0  0  0  0
 12 22  1  0  0  0  0
 12 23  1  0  0  0  0
 13 24  1  0  0  0  0
M  END
>  <DRUGBANK_ID>
DB13357

>  <COMMON_NAME>
Styramate

>  <CAS_NUMBER>
94-35-9

>  <UNII>
CBK7Y28SP3

>  <SYNONYMS>
Styramate

$$$$
