
 OpenBabel10282417173D

 23 24  0  0  0  0  0  0  0  0999 V2000
    2.1506    0.7200   -0.0251 C   0  0  0  0  0  0  0  0  0  0  0  0
    2.1906   -0.6717   -0.0120 C   0  0  0  0  0  0  0  0  0  0  0  0
    0.9331    1.4103    0.0017 C   0  0  0  0  0  0  0  0  0  0  0  0
   -0.2427    0.6493    0.0118 C   0  0  0  0  0  0  0  0  0  0  0  0
    1.0086   -1.4142    0.0247 C   0  0  0  0  0  0  0  0  0  0  0  0
   -0.2312   -0.7458    0.0221 C   0  0  0  0  0  0  0  0  0  0  0  0
   -1.5624    1.0407    0.0024 N   0  0  0  0  0  0  0  0  0  0  0  0
   -1.5884   -1.1894    0.0147 C   0  0  0  0  0  0  0  0  0  0  0  0
   -2.3785   -0.0575   -0.0407 C   0  0  0  0  0  0  0  0  0  0  0  0
   -2.0577   -2.6080    0.0303 C   0  0  0  0  0  0  0  0  0  0  0  0
   -2.9562   -2.8948    1.2174 C   0  0  0  0  0  0  0  0  0  0  0  0
   -4.1204   -3.2728    1.1034 O   0  0  0  0  0  0  0  0  0  0  0  0
   -2.3891   -2.7602    2.4533 N   0  0  0  0  0  0  0  0  0  0  0  0
    3.0830    1.2784   -0.0638 H   0  0  0  0  0  0  0  0  0  0  0  0
    3.1452   -1.1907   -0.0399 H   0  0  0  0  0  0  0  0  0  0  0  0
    0.9113    2.4953   -0.0054 H   0  0  0  0  0  0  0  0  0  0  0  0
    1.0502   -2.4989    0.0290 H   0  0  0  0  0  0  0  0  0  0  0  0
   -1.8806    2.0002   -0.0003 H   0  0  0  0  0  0  0  0  0  0  0  0
   -3.4549    0.0511   -0.0933 H   0  0  0  0  0  0  0  0  0  0  0  0
   -2.6115   -2.8169   -0.8918 H   0  0  0  0  0  0  0  0  0  0  0  0
   -1.2156   -3.3087    0.0637 H   0  0  0  0  0  0  0  0  0  0  0  0
   -1.4802   -2.3353    2.5863 H   0  0  0  0  0  0  0  0  0  0  0  0
   -2.9938   -2.8721    3.2562 H   0  0  0  0  0  0  0  0  0  0  0  0
  1 14  1  0  0  0  0
  2  1  2  0  0  0  0
  2 15  1  0  0  0  0
  3  1  1  0  0  0  0
  3 16  1  0  0  0  0
  4  3  2  0  0  0  0
  5  2  1  0  0  0  0
  5 17  1  0  0  0  0
  6  4  1  0  0  0  0
  6  5  2  0  0  0  0
  7  4  1  0  0  0  0
  7 18  1  0  0  0  0
  8  6  1  0  0  0  0
  9  7  1  0  0  0  0
  9  8  2  0  0  0  0
  9 19  1  0  0  0  0
 10  8  1  0  0  0  0
 10 20  1  0  0  0  0
 10 21  1  0  0  0  0
 11 10  1  0  0  0  0
 12 11  2  0  0  0  0
 13 11  1  0  0  0  0
 13 22  1  0  0  0  0
 13 23  1  0  0  0  0
M  END
>  <DRUGBANK_ID>
DB08652

>  <COMMON_NAME>
Indoleacetamide

>  <CAS_NUMBER>
879-37-8

>  <UNII>
O9SEW65XW3

>  <SYNONYMS>
1H-indole-3-acetamide; 3-indoleacetamide; Indole-3-acetamide

$$$$
