
 OpenBabel10282417213D

 43 46  0  0  0  0  0  0  0  0999 V2000
    2.1091    0.0277    0.2773 N   0  0  0  0  0  0  0  0  0  0  0  0
    0.7762   -0.1309    0.4249 C   0  0  0  0  0  0  0  0  0  0  0  0
   -0.0603   -1.2336    0.3693 C   0  0  0  0  0  0  0  0  0  0  0  0
   -1.3566   -0.7105    0.5377 C   0  0  0  0  0  0  0  0  0  0  0  0
   -1.3602    0.6188    0.6377 N   0  0  0  0  0  0  0  0  0  0  0  0
   -0.0619    0.9459    0.5523 N   0  0  0  0  0  0  0  0  0  0  0  0
    0.3488   -2.5943    0.0947 C   0  0  0  0  0  0  0  0  0  0  0  0
    1.2091   -3.1432    1.0671 C   0  0  0  0  0  0  0  0  0  0  0  0
    1.6122   -4.4673    1.0001 C   0  0  0  0  0  0  0  0  0  0  0  0
    2.6186   -5.1053    2.2396 Cl  0  0  0  0  0  0  0  0  0  0  0  0
    1.1843   -5.2671   -0.0504 C   0  0  0  0  0  0  0  0  0  0  0  0
    0.3588   -4.7265   -1.0505 C   0  0  0  0  0  0  0  0  0  0  0  0
   -0.0834   -3.3864   -1.0011 C   0  0  0  0  0  0  0  0  0  0  0  0
   -0.9365   -3.0607   -2.0658 O   0  0  0  0  0  0  0  0  0  0  0  0
   -1.2573   -1.7528   -2.3595 C   0  0  0  0  0  0  0  0  0  0  0  0
   -2.6077   -1.3463   -2.3103 C   0  0  0  0  0  0  0  0  0  0  0  0
   -2.9701    0.0296   -2.3163 C   0  0  0  0  0  0  0  0  0  0  0  0
   -4.2613    0.3455   -2.1483 F   0  0  0  0  0  0  0  0  0  0  0  0
   -1.9907    1.0084   -2.3484 C   0  0  0  0  0  0  0  0  0  0  0  0
   -0.6896    0.5389   -2.4383 C   0  0  0  0  0  0  0  0  0  0  0  0
   -0.3010   -0.7915   -2.5928 C   0  0  0  0  0  0  0  0  0  0  0  0
    1.3769   -1.1574   -2.8007 Cl  0  0  0  0  0  0  0  0  0  0  0  0
   -2.3687    2.7391   -2.1435 S   0  0  0  0  0  0  0  0  0  0  0  0
   -3.1055    3.1453   -3.3337 O   0  0  0  0  0  0  0  0  0  0  0  0
   -2.9675    2.9239   -0.8430 O   0  0  0  0  0  0  0  0  0  0  0  0
   -0.9956    3.7640   -2.1280 N   0  0  0  0  0  0  0  0  0  0  0  0
    0.3563    3.4324   -2.1509 C   0  0  0  0  0  0  0  0  0  0  0  0
    1.3140    3.8108   -1.2242 C   0  0  0  0  0  0  0  0  0  0  0  0
    2.7703    2.9176   -1.4696 S   0  0  0  0  0  0  0  0  0  0  0  0
    2.0660    2.2111   -2.8561 C   0  0  0  0  0  0  0  0  0  0  0  0
    0.8716    2.6674   -3.1773 N   0  0  0  0  0  0  0  0  0  0  0  0
    2.5485    0.9277    0.0958 H   0  0  0  0  0  0  0  0  0  0  0  0
    2.6897   -0.7567   -0.0186 H   0  0  0  0  0  0  0  0  0  0  0  0
   -2.2977   -1.2429    0.4805 H   0  0  0  0  0  0  0  0  0  0  0  0
    0.1725    1.9206    0.4220 H   0  0  0  0  0  0  0  0  0  0  0  0
    1.5372   -2.5252    1.9026 H   0  0  0  0  0  0  0  0  0  0  0  0
    1.4822   -6.3124   -0.0899 H   0  0  0  0  0  0  0  0  0  0  0  0
    0.0520   -5.3735   -1.8711 H   0  0  0  0  0  0  0  0  0  0  0  0
   -3.3837   -2.0902   -2.1598 H   0  0  0  0  0  0  0  0  0  0  0  0
    0.0798    1.1668   -2.0640 H   0  0  0  0  0  0  0  0  0  0  0  0
   -1.2486    4.6817   -1.7632 H   0  0  0  0  0  0  0  0  0  0  0  0
    1.2276    4.4554   -0.3628 H   0  0  0  0  0  0  0  0  0  0  0  0
    2.5219    1.3816   -3.3863 H   0  0  0  0  0  0  0  0  0  0  0  0
  1  2  1  0  0  0  0
  1 32  1  0  0  0  0
  1 33  1  0  0  0  0
  2  3  2  0  0  0  0
  2  6  1  0  0  0  0
  3  4  1  0  0  0  0
  3  7  1  0  0  0  0
  4  5  2  0  0  0  0
  4 34  1  0  0  0  0
  5  6  1  0  0  0  0
  6 35  1  0  0  0  0
  7  8  2  0  0  0  0
  7 13  1  0  0  0  0
  8  9  1  0  0  0  0
  8 36  1  0  0  0  0
  9 10  1  0  0  0  0
  9 11  2  0  0  0  0
 11 12  1  0  0  0  0
 11 37  1  0  0  0  0
 12 13  2  0  0  0  0
 12 38  1  0  0  0  0
 13 14  1  0  0  0  0
 14 15  1  0  0  0  0
 15 16  2  0  0  0  0
 15 21  1  0  0  0  0
 16 17  1  0  0  0  0
 16 39  1  0  0  0  0
 17 18  1  0  0  0  0
 17 19  2  0  0  0  0
 19 20  1  0  0  0  0
 19 23  1  0  0  0  0
 20 21  2  0  0  0  0
 20 40  1  0  0  0  0
 21 22  1  0  0  0  0
 23 24  2  0  0  0  0
 23 25  2  0  0  0  0
 23 26  1  0  0  0  0
 26 27  1  0  0  0  0
 26 41  1  0  0  0  0
 27 28  2  0  0  0  0
 27 31  1  0  0  0  0
 28 29  1  0  0  0  0
 28 42  1  0  0  0  0
 29 30  1  0  0  0  0
 30 31  2  0  0  0  0
 30 43  1  0  0  0  0
M  END
>  <DRUGBANK_ID>
DB14856

>  <COMMON_NAME>
PF-05089771

>  <CAS_NUMBER>
1235403-62-9

>  <UNII>
25U4N985O2

$$$$
