
 OpenBabel10282417143D

 47 50  0  0  1  0  0  0  0  0999 V2000
   -0.1182   -0.0016   -0.2568 O   0  0  0  0  0  0  0  0  0  0  0  0
    3.6015    4.0807    1.7731 O   0  0  0  0  0  0  0  0  0  0  0  0
    0.8160    3.1854    4.0642 N   0  0  0  0  0  0  0  0  0  0  0  0
    3.3206    1.8434    1.5629 N   0  0  0  0  0  0  0  0  0  0  0  0
    1.2253    0.3708    2.9532 N   0  0  0  0  0  0  0  0  0  0  0  0
    0.0886    1.8328    3.8644 C   0  0  3  0  0  0  0  0  0  0  0  0
   -0.0537    0.0313    1.2665 C   0  0  3  0  0  0  0  0  0  0  0  0
   -1.6874   -0.0612    3.0517 C   0  0  3  0  0  0  0  0  0  0  0  0
    0.5560   -1.2249    4.0511 C   0  0  3  0  0  0  0  0  0  0  0  0
   -0.0263    1.8164    2.0445 C   0  0  0  0  0  0  0  0  0  0  0  0
   -1.4120    1.4548    3.7266 C   0  0  0  0  0  0  0  0  0  0  0  0
    0.9733    0.4504    4.8599 C   0  0  0  0  0  0  0  0  0  0  0  0
   -1.4745   -0.1995    1.5071 C   0  0  0  0  0  0  0  0  0  0  0  0
    0.7944   -1.4524    2.2124 C   0  0  0  0  0  0  0  0  0  0  0  0
   -0.9666   -1.2647    3.8920 C   0  0  0  0  0  0  0  0  0  0  0  0
    2.3644    3.1768    3.8161 C   0  0  0  0  0  0  0  0  0  0  0  0
    3.1078    3.0641    2.2629 C   0  0  0  0  0  0  0  0  0  0  0  0
    2.2248    1.1298    1.2261 C   0  0  1  0  0  0  0  0  0  0  0  0
    4.1954    1.2401    0.5920 C   0  0  0  0  0  0  0  0  0  0  0  0
    2.3299    0.0491    0.2258 C   0  0  0  0  0  0  0  0  0  0  0  0
    3.7306   -0.2519    0.3300 C   0  0  0  0  0  0  0  0  0  0  0  0
    2.2360    0.5889    2.4491 C   0  0  0  0  0  0  0  0  0  0  0  0
    0.5728   -0.3920   -0.8367 H   0  0  0  0  0  0  0  0  0  0  0  0
    0.4374    3.8993    3.4322 H   0  0  0  0  0  0  0  0  0  0  0  0
   -2.7725   -0.1978    3.0827 H   0  0  0  0  0  0  0  0  0  0  0  0
    1.1962   -2.0174    4.5538 H   0  0  0  0  0  0  0  0  0  0  0  0
   -0.1961    2.7149    1.3712 H   0  0  0  0  0  0  0  0  0  0  0  0
    0.9142    2.3466    2.1091 H   0  0  0  0  0  0  0  0  0  0  0  0
   -1.8965    1.5296    4.6880 H   0  0  0  0  0  0  0  0  0  0  0  0
   -1.8864    2.2127    3.0602 H   0  0  0  0  0  0  0  0  0  0  0  0
    2.1388    0.5702    4.7571 H   0  0  0  0  0  0  0  0  0  0  0  0
    0.8766    0.5259    5.9450 H   0  0  0  0  0  0  0  0  0  0  0  0
   -1.6711   -1.1832    1.0458 H   0  0  0  0  0  0  0  0  0  0  0  0
   -1.9595    0.5659    0.8670 H   0  0  0  0  0  0  0  0  0  0  0  0
    0.6739   -2.4643    1.7947 H   0  0  0  0  0  0  0  0  0  0  0  0
    1.9357   -1.4744    2.1789 H   0  0  0  0  0  0  0  0  0  0  0  0
   -1.3821   -1.2690    4.8878 H   0  0  0  0  0  0  0  0  0  0  0  0
   -1.1836   -2.2227    3.3802 H   0  0  0  0  0  0  0  0  0  0  0  0
    2.7107    4.1581    4.2042 H   0  0  0  0  0  0  0  0  0  0  0  0
    2.8429    2.4714    4.4968 H   0  0  0  0  0  0  0  0  0  0  0  0
    1.4951    1.7488    0.6997 H   0  0  0  0  0  0  0  0  0  0  0  0
    5.1564    1.2182    1.0391 H   0  0  0  0  0  0  0  0  0  0  0  0
    3.9774    1.8064   -0.3129 H   0  0  0  0  0  0  0  0  0  0  0  0
    1.7810   -0.9041    0.2980 H   0  0  0  0  0  0  0  0  0  0  0  0
    2.0641    0.5732   -0.6875 H   0  0  0  0  0  0  0  0  0  0  0  0
    3.8122   -0.9814    1.1572 H   0  0  0  0  0  0  0  0  0  0  0  0
    3.8459   -0.7338   -0.6365 H   0  0  0  0  0  0  0  0  0  0  0  0
  1  7  1  0  0  0  0
  1 23  1  0  0  0  0
  2 17  2  0  0  0  0
  3  6  1  0  0  0  0
  3 16  1  0  0  0  0
  3 24  1  0  0  0  0
  4 17  1  0  0  0  0
  4 18  1  0  0  0  0
  4 19  1  0  0  0  0
  5 22  3  0  0  0  0
  6 10  1  0  0  0  0
  6 11  1  0  0  0  0
  6 12  1  0  0  0  0
  7 10  1  0  0  0  0
  7 13  1  0  0  0  0
  7 14  1  0  0  0  0
  8 11  1  0  0  0  0
  8 13  1  0  0  0  0
  8 15  1  0  0  0  0
  8 25  1  0  0  0  0
  9 12  1  0  0  0  0
  9 14  1  0  0  0  0
  9 15  1  0  0  0  0
  9 26  1  0  0  0  0
 10 27  1  0  0  0  0
 10 28  1  0  0  0  0
 11 29  1  0  0  0  0
 11 30  1  0  0  0  0
 12 31  1  0  0  0  0
 12 32  1  0  0  0  0
 13 33  1  0  0  0  0
 13 34  1  0  0  0  0
 14 35  1  0  0  0  0
 14 36  1  0  0  0  0
 15 37  1  0  0  0  0
 15 38  1  0  0  0  0
 16 17  1  0  0  0  0
 16 39  1  0  0  0  0
 16 40  1  0  0  0  0
 18 20  1  0  0  0  0
 18 22  1  0  0  0  0
 18 41  1  6  0  0  0
 19 21  1  0  0  0  0
 19 42  1  0  0  0  0
 19 43  1  0  0  0  0
 20 21  1  0  0  0  0
 20 44  1  0  0  0  0
 20 45  1  0  0  0  0
 21 46  1  0  0  0  0
 21 47  1  0  0  0  0
M  END
>  <DRUGBANK_ID>
DB04876

>  <COMMON_NAME>
Vildagliptin

>  <CAS_NUMBER>
274901-16-5

>  <UNII>
I6B4B2U96P

>  <SYNONYMS>
Vildagliptin; Vildagliptina

$$$$
