
 OpenBabel10282417143D

 26 26  0  0  0  0  0  0  0  0999 V2000
   -0.7100    1.4410   -1.2128 C   0  0  0  0  0  0  0  0  0  0  0  0
   -1.0499    2.4913   -1.7394 O   0  0  0  0  0  0  0  0  0  0  0  0
    0.2267    1.3024    0.0481 C   0  0  2  0  0  0  0  0  0  0  0  0
   -1.1644    0.2553   -1.7056 O   0  0  0  0  0  0  0  0  0  0  0  0
    0.8359   -0.0706    0.0301 N   0  0  0  0  0  0  0  0  0  0  0  0
   -0.6450    1.3619    1.3209 C   0  0  0  0  0  0  0  0  0  0  0  0
    1.2512    2.4606    0.1384 C   0  0  0  0  0  0  0  0  0  0  0  0
    0.8049    3.7984    0.0695 C   0  0  0  0  0  0  0  0  0  0  0  0
    2.6188    2.2720    0.3926 C   0  0  0  0  0  0  0  0  0  0  0  0
    1.6859    4.8792    0.1964 C   0  0  0  0  0  0  0  0  0  0  0  0
    3.4870    3.3490    0.5997 C   0  0  0  0  0  0  0  0  0  0  0  0
    3.0447    4.6614    0.4456 C   0  0  0  0  0  0  0  0  0  0  0  0
    3.9579    5.8364    0.4818 C   0  0  0  0  0  0  0  0  0  0  0  0
    5.2655    5.5830    0.6835 O   0  0  0  0  0  0  0  0  0  0  0  0
    3.5494    6.9799    0.3028 O   0  0  0  0  0  0  0  0  0  0  0  0
   -0.9845   -0.5064   -1.1212 H   0  0  0  0  0  0  0  0  0  0  0  0
    1.8427    0.0094    0.1363 H   0  0  0  0  0  0  0  0  0  0  0  0
    0.7884   -0.4702   -0.9047 H   0  0  0  0  0  0  0  0  0  0  0  0
   -0.0362    1.2965    2.2335 H   0  0  0  0  0  0  0  0  0  0  0  0
   -1.2122    2.2993    1.3841 H   0  0  0  0  0  0  0  0  0  0  0  0
   -1.3805    0.5503    1.3498 H   0  0  0  0  0  0  0  0  0  0  0  0
   -0.2475    4.0293   -0.1048 H   0  0  0  0  0  0  0  0  0  0  0  0
    3.0824    1.2948    0.4543 H   0  0  0  0  0  0  0  0  0  0  0  0
    1.2930    5.8913    0.0969 H   0  0  0  0  0  0  0  0  0  0  0  0
    4.5010    3.1000    0.8836 H   0  0  0  0  0  0  0  0  0  0  0  0
    5.5503    4.6605    0.7823 H   0  0  0  0  0  0  0  0  0  0  0  0
  2  1  2  0  0  0  0
  3  6  1  0  0  0  0
  3  5  1  0  0  0  0
  3  1  1  6  0  0  0
  4  1  1  0  0  0  0
  4 16  1  0  0  0  0
  5 17  1  0  0  0  0
  5 18  1  0  0  0  0
  6 19  1  0  0  0  0
  6 20  1  0  0  0  0
  6 21  1  0  0  0  0
  7  3  1  0  0  0  0
  8  7  1  0  0  0  0
  8 22  1  0  0  0  0
  9  7  2  0  0  0  0
  9 23  1  0  0  0  0
 10  8  2  0  0  0  0
 10 24  1  0  0  0  0
 11  9  1  0  0  0  0
 11 25  1  0  0  0  0
 12 10  1  0  0  0  0
 12 11  2  0  0  0  0
 12 13  1  0  0  0  0
 13 14  1  0  0  0  0
 13 15  2  0  0  0  0
 14 26  1  0  0  0  0
M  END
>  <DRUGBANK_ID>
DB04256

>  <SECONDARY_ACCESSION_NUMBERS>
EXPT02133

>  <COMMON_NAME>
(S)-alpha-methyl-4-carboxyphenylglycine

>  <CAS_NUMBER>
150145-89-4

>  <UNII>
61F6J48NHR

>  <SYNONYMS>
(+)-MCPG; (+)-α-methyl-4-carboxyphenylglycine; (S)-(+)-α-amino-4-carboxy-2-methylbenzeneacetic; (S)-(+)-α-methyl-4-carboxyphenylglycine; (S)-a-methyl-4-carboxyphenylglycine; (S)-MCPG; (S)-α-methyl-4-carboxyphenylglycine

$$$$
