
 OpenBabel10282417143D

 43 44  0  0  0  0  0  0  0  0999 V2000
   -1.2273    0.4725    0.1138 C   0  0  0  0  0  0  0  0  0  0  0  0
   -1.1686    1.8854    0.0697 C   0  0  0  0  0  0  0  0  0  0  0  0
    0.0642    2.5475   -0.0263 C   0  0  0  0  0  0  0  0  0  0  0  0
    1.2167    1.7572   -0.0451 C   0  0  0  0  0  0  0  0  0  0  0  0
    1.1669    0.3615   -0.0136 C   0  0  0  0  0  0  0  0  0  0  0  0
   -0.0570   -0.3010    0.0209 C   0  0  0  0  0  0  0  0  0  0  0  0
   -0.0362   -1.6764    0.0370 O   0  0  0  0  0  0  0  0  0  0  0  0
   -0.5528   -2.3756   -1.0355 C   0  0  0  0  0  0  0  0  0  0  0  0
   -1.1027   -4.5645   -1.8962 C   0  0  0  0  0  0  0  0  0  0  0  0
   -1.7696   -3.9834   -2.9674 C   0  0  0  0  0  0  0  0  0  0  0  0
   -1.8174   -2.5921   -3.1184 C   0  0  0  0  0  0  0  0  0  0  0  0
   -1.1563   -1.8018   -2.1595 C   0  0  0  0  0  0  0  0  0  0  0  0
   -0.5012   -3.7655   -0.9274 C   0  0  0  0  0  0  0  0  0  0  0  0
   -2.9545   -0.3185    0.2952 Br  0  0  0  0  0  0  0  0  0  0  0  0
    2.8270   -0.5647   -0.0208 Br  0  0  0  0  0  0  0  0  0  0  0  0
    1.3009    4.7175   -0.1834 C   0  0  0  0  0  0  0  0  0  0  0  0
    1.1979    6.2202   -0.1912 C   0  0  0  0  0  0  0  0  0  0  0  0
    2.4345    4.2499   -0.2931 O   0  0  0  0  0  0  0  0  0  0  0  0
    1.9439    6.7946    0.9823 C   0  0  0  0  0  0  0  0  0  0  0  0
    2.9995    7.5846    0.6911 O   0  0  0  0  0  0  0  0  0  0  0  0
    1.6027    6.5867    2.1443 O   0  0  0  0  0  0  0  0  0  0  0  0
   -2.3446   -4.8770   -3.8238 O   0  0  0  0  0  0  0  0  0  0  0  0
    0.1228    3.9771   -0.0862 N   0  0  0  0  0  0  0  0  0  0  0  0
   -2.5450   -1.8842   -4.2431 C   0  0  0  0  0  0  0  0  0  0  0  0
   -1.8792   -2.2076   -5.5803 C   0  0  0  0  0  0  0  0  0  0  0  0
   -4.0468   -2.1897   -4.2202 C   0  0  0  0  0  0  0  0  0  0  0  0
   -2.1016    2.4428    0.1169 H   0  0  0  0  0  0  0  0  0  0  0  0
    2.2038    2.1977   -0.0807 H   0  0  0  0  0  0  0  0  0  0  0  0
   -1.0755   -5.6473   -1.8179 H   0  0  0  0  0  0  0  0  0  0  0  0
   -1.1684   -0.7229   -2.2821 H   0  0  0  0  0  0  0  0  0  0  0  0
   -0.0055   -4.2382   -0.0847 H   0  0  0  0  0  0  0  0  0  0  0  0
    1.6484    6.5662   -1.1304 H   0  0  0  0  0  0  0  0  0  0  0  0
    0.1678    6.5832   -0.1765 H   0  0  0  0  0  0  0  0  0  0  0  0
    3.2658    7.6478   -0.2459 H   0  0  0  0  0  0  0  0  0  0  0  0
   -2.7783   -4.4147   -4.5523 H   0  0  0  0  0  0  0  0  0  0  0  0
   -0.7626    4.4710   -0.0329 H   0  0  0  0  0  0  0  0  0  0  0  0
   -2.4556   -0.7960   -4.1030 H   0  0  0  0  0  0  0  0  0  0  0  0
   -1.8858   -3.2744   -5.8143 H   0  0  0  0  0  0  0  0  0  0  0  0
   -2.3804   -1.6921   -6.4028 H   0  0  0  0  0  0  0  0  0  0  0  0
   -0.8267   -1.9004   -5.5652 H   0  0  0  0  0  0  0  0  0  0  0  0
   -4.4922   -1.8679   -3.2710 H   0  0  0  0  0  0  0  0  0  0  0  0
   -4.5620   -1.6730   -5.0346 H   0  0  0  0  0  0  0  0  0  0  0  0
   -4.2758   -3.2524   -4.3223 H   0  0  0  0  0  0  0  0  0  0  0  0
  1  2  2  0  0  0  0
  1  6  1  0  0  0  0
  1 14  1  0  0  0  0
  2  3  1  0  0  0  0
  2 27  1  0  0  0  0
  3  4  2  0  0  0  0
  3 23  1  0  0  0  0
  4  5  1  0  0  0  0
  4 28  1  0  0  0  0
  5  6  2  0  0  0  0
  5 15  1  0  0  0  0
  6  7  1  0  0  0  0
  7  8  1  0  0  0  0
  8 13  1  0  0  0  0
  9 10  1  0  0  0  0
  9 13  2  0  0  0  0
  9 29  1  0  0  0  0
 10 11  2  0  0  0  0
 10 22  1  0  0  0  0
 11 12  1  0  0  0  0
 11 24  1  0  0  0  0
 12  8  2  0  0  0  0
 12 30  1  0  0  0  0
 13 31  1  0  0  0  0
 16 17  1  0  0  0  0
 16 18  2  0  0  0  0
 16 23  1  0  0  0  0
 17 19  1  0  0  0  0
 17 32  1  0  0  0  0
 17 33  1  0  0  0  0
 19 20  1  0  0  0  0
 19 21  2  0  0  0  0
 20 34  1  0  0  0  0
 22 35  1  0  0  0  0
 23 36  1  0  0  0  0
 24 25  1  0  0  0  0
 24 26  1  0  0  0  0
 24 37  1  0  0  0  0
 25 38  1  0  0  0  0
 25 39  1  0  0  0  0
 25 40  1  0  0  0  0
 26 41  1  0  0  0  0
 26 42  1  0  0  0  0
 26 43  1  0  0  0  0
M  END
>  <DRUGBANK_ID>
DB05035

>  <COMMON_NAME>
Eprotirome

>  <CAS_NUMBER>
355129-15-6

>  <UNII>
958AQ7B6R1

>  <SYNONYMS>
Eprotirome

$$$$
