
 OpenBabel10282417133D

 62 66  0  0  0  0  0  0  0  0999 V2000
   -2.0078   -0.4368    1.7830 C   0  0  0  0  0  0  0  0  0  0  0  0
   -2.5750   -1.7867    3.0964 C   0  0  0  0  0  0  0  0  0  0  0  0
   -0.5030   -2.7556    2.9406 C   0  0  0  0  0  0  0  0  0  0  0  0
   -1.7973   -3.0603    0.2962 C   0  0  0  0  0  0  0  0  0  0  0  0
   -0.6206   -3.7470   -0.1234 C   0  0  0  0  0  0  0  0  0  0  0  0
    1.7505   -0.7141   -0.1431 C   0  0  0  0  0  0  0  0  0  0  0  0
    2.1459   -4.2969   -0.0577 C   0  0  0  0  0  0  0  0  0  0  0  0
    3.5131   -4.7181   -0.6295 C   0  0  0  0  0  0  0  0  0  0  0  0
   -1.7276   -3.4030    3.0758 C   0  0  1  0  0  0  0  0  0  0  0  0
   -1.8067   -4.4862    3.9901 O   0  0  0  0  0  0  0  0  0  0  0  0
   -1.1531   -2.2864    1.4818 C   0  0  1  0  0  0  0  0  0  0  0  0
   -2.2744   -2.1912    1.4250 H   0  0  0  0  0  0  0  0  0  0  0  0
   -0.5254   -0.9388    1.4146 C   0  0  2  0  0  0  0  0  0  0  0  0
    0.0761   -0.0170    2.5362 C   0  0  0  0  0  0  0  0  0  0  0  0
    0.6466   -1.5526    0.4506 C   0  0  2  0  0  0  0  0  0  0  0  0
    1.2860   -2.0835    1.1596 H   0  0  0  0  0  0  0  0  0  0  0  0
    1.3462   -3.4248   -1.2355 C   0  0  1  0  0  0  0  0  0  0  0  0
    0.6225   -4.1109   -2.2955 O   0  0  0  0  0  0  0  0  0  0  0  0
    3.0685   -1.7338   -0.6538 C   0  0  1  0  0  0  0  0  0  0  0  0
    4.4985   -1.6890   -0.8103 O   0  0  0  0  0  0  0  0  0  0  0  0
    2.5816   -2.8916   -1.9010 C   0  0  1  0  0  0  0  0  0  0  0  0
    2.5127   -1.7901   -3.0277 C   0  0  0  0  0  0  0  0  0  0  0  0
    4.0555   -7.1960   -3.5019 C   0  0  0  0  0  0  0  0  0  0  0  0
    2.3201   -7.6245   -2.1477 C   0  0  0  0  0  0  0  0  0  0  0  0
    3.1087   -6.5434   -2.5096 C   0  0  0  0  0  0  0  0  0  0  0  0
    3.7274   -8.5966   -3.6637 O   0  0  0  0  0  0  0  0  0  0  0  0
    2.7020   -8.8846   -2.8765 C   0  0  0  0  0  0  0  0  0  0  0  0
    2.1638  -10.0347   -2.7987 O   0  0  0  0  0  0  0  0  0  0  0  0
    3.2348   -4.7313   -2.1080 C   0  0  1  0  0  0  0  0  0  0  0  0
    2.2058   -5.0841   -2.1900 H   0  0  0  0  0  0  0  0  0  0  0  0
    0.2492   -2.6025   -0.6491 C   0  0  2  0  0  0  0  0  0  0  0  0
   -0.2857   -2.0449   -1.4345 H   0  0  0  0  0  0  0  0  0  0  0  0
   -2.8808   -0.4345    1.0825 H   0  0  0  0  0  0  0  0  0  0  0  0
   -1.6033    0.0422    0.8315 H   0  0  0  0  0  0  0  0  0  0  0  0
   -3.5358   -2.2358    2.8459 H   0  0  0  0  0  0  0  0  0  0  0  0
   -2.7766   -1.3152    4.0579 H   0  0  0  0  0  0  0  0  0  0  0  0
    0.1583   -3.5828    3.2543 H   0  0  0  0  0  0  0  0  0  0  0  0
    0.4987   -2.3936    2.6585 H   0  0  0  0  0  0  0  0  0  0  0  0
   -2.6232   -3.7515    0.5854 H   0  0  0  0  0  0  0  0  0  0  0  0
   -2.2867   -2.3895   -0.4453 H   0  0  0  0  0  0  0  0  0  0  0  0
   -0.9187   -4.5999   -0.7330 H   0  0  0  0  0  0  0  0  0  0  0  0
   -0.1192   -4.1845    0.7421 H   0  0  0  0  0  0  0  0  0  0  0  0
    2.1079    0.0819    0.5234 H   0  0  0  0  0  0  0  0  0  0  0  0
    1.2546   -0.1728   -0.9699 H   0  0  0  0  0  0  0  0  0  0  0  0
    1.6640   -5.1145    0.4875 H   0  0  0  0  0  0  0  0  0  0  0  0
    2.3694   -3.5829    0.7366 H   0  0  0  0  0  0  0  0  0  0  0  0
    4.0822   -5.5620   -0.2457 H   0  0  0  0  0  0  0  0  0  0  0  0
    4.1898   -3.8903   -0.4310 H   0  0  0  0  0  0  0  0  0  0  0  0
   -1.6925   -4.0619    2.1855 H   0  0  0  0  0  0  0  0  0  0  0  0
   -1.4629   -5.2739    3.4830 H   0  0  0  0  0  0  0  0  0  0  0  0
    0.9963    0.4831    2.2445 H   0  0  0  0  0  0  0  0  0  0  0  0
   -0.5967    0.8419    2.7340 H   0  0  0  0  0  0  0  0  0  0  0  0
    0.1906   -0.4981    3.5067 H   0  0  0  0  0  0  0  0  0  0  0  0
    1.0855   -3.9511   -3.1406 H   0  0  0  0  0  0  0  0  0  0  0  0
    3.2811   -0.7003   -0.9588 H   0  0  0  0  0  0  0  0  0  0  0  0
    4.9662   -1.8518    0.0157 H   0  0  0  0  0  0  0  0  0  0  0  0
    2.4363   -0.7684   -2.5867 H   0  0  0  0  0  0  0  0  0  0  0  0
    3.4628   -1.6620   -3.5559 H   0  0  0  0  0  0  0  0  0  0  0  0
    1.6393   -1.7510   -3.6740 H   0  0  0  0  0  0  0  0  0  0  0  0
    5.0846   -7.1987   -3.1506 H   0  0  0  0  0  0  0  0  0  0  0  0
    3.9350   -6.7694   -4.4927 H   0  0  0  0  0  0  0  0  0  0  0  0
    1.4796   -7.7911   -1.4823 H   0  0  0  0  0  0  0  0  0  0  0  0
  1  2  1  0  0  0  0
  1 13  1  0  0  0  0
  1 33  1  0  0  0  0
  1 34  1  0  0  0  0
  2  9  1  0  0  0  0
  2 35  1  0  0  0  0
  2 36  1  0  0  0  0
  3 11  1  0  0  0  0
  3 37  1  0  0  0  0
  3 38  1  0  0  0  0
  4  5  1  0  0  0  0
  4 39  1  0  0  0  0
  4 40  1  0  0  0  0
  5 31  1  0  0  0  0
  5 41  1  0  0  0  0
  5 42  1  0  0  0  0
  6 15  1  0  0  0  0
  6 43  1  0  0  0  0
  6 44  1  0  0  0  0
  7  8  1  0  0  0  0
  7 45  1  0  0  0  0
  7 46  1  0  0  0  0
  8 47  1  0  0  0  0
  8 48  1  0  0  0  0
  9  3  1  0  0  0  0
  9 10  1  0  0  0  0
  9 49  1  6  0  0  0
 10 50  1  0  0  0  0
 11  4  1  0  0  0  0
 11 12  1  6  0  0  0
 13 11  1  0  0  0  0
 13 14  1  1  0  0  0
 14 51  1  0  0  0  0
 14 52  1  0  0  0  0
 14 53  1  0  0  0  0
 15 13  1  0  0  0  0
 15 31  1  0  0  0  0
 15 16  1  6  0  0  0
 17  7  1  0  0  0  0
 17 18  1  1  0  0  0
 18 54  1  0  0  0  0
 19  6  1  0  0  0  0
 19 21  1  0  0  0  0
 19 20  1  0  0  0  0
 19 55  1  6  0  0  0
 20 56  1  0  0  0  0
 21 17  1  0  0  0  0
 21 22  1  1  0  0  0
 22 57  1  0  0  0  0
 22 58  1  0  0  0  0
 22 59  1  0  0  0  0
 23 26  1  0  0  0  0
 23 25  1  0  0  0  0
 23 60  1  0  0  0  0
 23 61  1  0  0  0  0
 24 25  2  0  0  0  0
 24 62  1  0  0  0  0
 26 27  1  0  0  0  0
 27 24  1  0  0  0  0
 27 28  2  0  0  0  0
 29 21  1  0  0  0  0
 29  8  1  0  0  0  0
 29 25  1  0  0  0  0
 29 30  1  1  0  0  0
 31 17  1  0  0  0  0
 31 32  1  1  0  0  0
M  END
>  <DRUGBANK_ID>
DB03671

>  <SECONDARY_ACCESSION_NUMBERS>
EXPT01244

>  <COMMON_NAME>
Digoxigenin

>  <CAS_NUMBER>
1672-46-4

>  <UNII>
NQ1SX9LNAU

>  <SYNONYMS>
Lanadigenin

$$$$
