
 OpenBabel10282417203D

 34 37  0  0  1  0  0  0  0  0999 V2000
    1.3382    1.6306    4.2735 C   0  0  0  0  0  0  0  0  0  0  0  0
    2.3920    1.4770    5.0990 N   0  0  0  0  0  0  0  0  0  0  0  0
    3.6314    1.3906    4.5610 C   0  0  0  0  0  0  0  0  0  0  0  0
    3.7687    1.4637    3.1660 C   0  0  0  0  0  0  0  0  0  0  0  0
    2.5990    1.5529    2.4385 C   0  0  0  0  0  0  0  0  0  0  0  0
    1.3430    1.6620    2.9245 N   0  0  0  0  0  0  0  0  0  0  0  0
    3.0029    1.7643    1.1219 N   0  0  0  0  0  0  0  0  0  0  0  0
    4.3657    1.7338    1.1360 C   0  0  0  0  0  0  0  0  0  0  0  0
    4.8659    1.5324    2.3341 N   0  0  0  0  0  0  0  0  0  0  0  0
    5.3040    2.0362   -0.2505 Cl  0  0  0  0  0  0  0  0  0  0  0  0
    2.0696    2.4617    0.2399 C   0  0  1  0  0  0  0  0  0  0  0  0
    1.7457    3.7794    0.9751 C   0  0  1  0  0  0  0  0  0  0  0  0
    2.5246    4.7369    0.1231 C   0  0  1  0  0  0  0  0  0  0  0  0
    2.2174    4.2136   -1.2474 C   0  0  2  0  0  0  0  0  0  0  0  0
    2.5735    2.8223   -1.0904 O   0  0  0  0  0  0  0  0  0  0  0  0
    3.0238    5.0225   -2.2389 C   0  0  0  0  0  0  0  0  0  0  0  0
    2.7453    6.4029   -2.1324 O   0  0  0  0  0  0  0  0  0  0  0  0
    2.1069    7.0794   -0.8253 P   0  0  3  0  0  0  0  0  0  0  0  0
    0.7262    7.5994   -1.0352 O   0  0  0  0  0  0  0  0  0  0  0  0
    2.3116    6.0765    0.3898 O   0  0  0  0  0  0  0  0  0  0  0  0
    3.2755    8.1459   -0.6009 O   0  0  0  0  0  0  0  0  0  0  0  0
    0.3382    3.9338    1.0757 O   0  0  0  0  0  0  0  0  0  0  0  0
    4.7155    1.2913    5.4082 N   0  0  0  0  0  0  0  0  0  0  0  0
    0.3720    1.7666    4.7562 H   0  0  0  0  0  0  0  0  0  0  0  0
    1.2161    1.7932    0.0749 H   0  0  0  0  0  0  0  0  0  0  0  0
    2.1299    3.9015    1.9915 H   0  0  0  0  0  0  0  0  0  0  0  0
    3.5909    4.5598    0.3223 H   0  0  0  0  0  0  0  0  0  0  0  0
    1.1493    4.3055   -1.4948 H   0  0  0  0  0  0  0  0  0  0  0  0
    2.8001    4.7313   -3.2689 H   0  0  0  0  0  0  0  0  0  0  0  0
    4.1002    4.8963   -2.0906 H   0  0  0  0  0  0  0  0  0  0  0  0
    3.8402    8.1404   -1.3980 H   0  0  0  0  0  0  0  0  0  0  0  0
    0.0762    3.3021    1.7836 H   0  0  0  0  0  0  0  0  0  0  0  0
    5.5997    1.0538    4.9767 H   0  0  0  0  0  0  0  0  0  0  0  0
    4.5122    0.9854    6.3485 H   0  0  0  0  0  0  0  0  0  0  0  0
  1  2  2  0  0  0  0
  1  6  1  0  0  0  0
  1 24  1  0  0  0  0
  2  3  1  0  0  0  0
  3  4  2  0  0  0  0
  3 23  1  0  0  0  0
  4  5  1  0  0  0  0
  4  9  1  0  0  0  0
  5  6  2  0  0  0  0
  5  7  1  0  0  0  0
  7  8  1  0  0  0  0
  8  9  2  0  0  0  0
  8 10  1  0  0  0  0
 11 12  1  0  0  0  0
 11 15  1  0  0  0  0
 11 25  1  6  0  0  0
 11  7  1  0  0  0  0
 12 13  1  0  0  0  0
 12 26  1  1  0  0  0
 12 22  1  0  0  0  0
 13 14  1  0  0  0  0
 13 20  1  0  0  0  0
 13 27  1  1  0  0  0
 14 15  1  0  0  0  0
 14 16  1  0  0  0  0
 14 28  1  6  0  0  0
 16 17  1  0  0  0  0
 16 29  1  0  0  0  0
 16 30  1  0  0  0  0
 17 18  1  0  0  0  0
 18 19  2  0  0  0  0
 18 20  1  0  0  0  0
 18 21  1  0  0  0  0
 21 31  1  0  0  0  0
 22 32  1  0  0  0  0
 23 33  1  0  0  0  0
 23 34  1  0  0  0  0
M  END
>  <DRUGBANK_ID>
DB13046

>  <COMMON_NAME>
Tocladesine

>  <CAS_NUMBER>
41941-56-4

>  <UNII>
BQ94Z7E5OR

>  <SYNONYMS>
Tocladesine

$$$$
