
 OpenBabel10282417123D

107106  0  0  1  0  0  0  0  0999 V2000
    0.6392   17.1966   -2.9596 C   0  0  0  0  0  0  0  0  0  0  0  0
   -1.4164   17.9515   -9.8997 C   0  0  0  0  0  0  0  0  0  0  0  0
   -1.3248    4.2811   -6.2327 C   0  0  0  0  0  0  0  0  0  0  0  0
   -2.4894    3.6899   -8.2935 C   0  0  0  0  0  0  0  0  0  0  0  0
   -3.9458    4.8953   -7.0582 C   0  0  0  0  0  0  0  0  0  0  0  0
    1.2351   15.9887   -2.2553 C   0  0  0  0  0  0  0  0  0  0  0  0
   -1.1063   17.3515   -8.5379 C   0  0  0  0  0  0  0  0  0  0  0  0
    0.2285   15.4043   -1.2637 C   0  0  0  0  0  0  0  0  0  0  0  0
   -2.4020   17.0360   -7.7896 C   0  0  0  0  0  0  0  0  0  0  0  0
   -1.0516   14.9544   -1.9767 C   0  0  0  0  0  0  0  0  0  0  0  0
   -3.2581   16.0303   -8.5667 C   0  0  0  0  0  0  0  0  0  0  0  0
   -0.7298   13.8983   -3.0392 C   0  0  0  0  0  0  0  0  0  0  0  0
   -2.4838   14.7267   -8.7921 C   0  0  0  0  0  0  0  0  0  0  0  0
   -0.0878   12.6756   -2.3755 C   0  0  0  0  0  0  0  0  0  0  0  0
   -2.1210   14.0942   -7.4446 C   0  0  0  0  0  0  0  0  0  0  0  0
   -1.0500   12.0838   -1.3414 C   0  0  0  0  0  0  0  0  0  0  0  0
   -3.4013   13.7875   -6.6654 C   0  0  0  0  0  0  0  0  0  0  0  0
   -2.3435   11.6830   -2.0355 C   0  0  0  0  0  0  0  0  0  0  0  0
   -4.2822   12.8477   -7.4967 C   0  0  0  0  0  0  0  0  0  0  0  0
   -2.0084   10.6357   -3.0848 C   0  0  0  0  0  0  0  0  0  0  0  0
   -3.5248   11.5495   -7.7822 C   0  0  0  0  0  0  0  0  0  0  0  0
   -1.4798    9.3647   -2.4482 C   0  0  0  0  0  0  0  0  0  0  0  0
   -3.2205   10.8670   -6.4702 C   0  0  0  0  0  0  0  0  0  0  0  0
   -2.4299    8.8574   -1.3483 C   0  0  0  0  0  0  0  0  0  0  0  0
   -4.5333   10.6664   -5.7236 C   0  0  0  0  0  0  0  0  0  0  0  0
   -3.2704    2.6422   -6.0239 C   0  0  0  0  0  0  0  0  0  0  0  0
   -3.4511    2.8439   -4.4697 C   0  0  0  0  0  0  0  0  0  0  0  0
   -5.6289    9.0264   -3.3225 C   0  0  0  0  0  0  0  0  0  0  0  0
   -3.6087    8.0484   -4.6413 C   0  0  0  0  0  0  0  0  0  0  0  0
   -5.1486    8.1958   -4.5413 C   0  0  2  0  0  0  0  0  0  0  0  0
   -3.8600    8.5209   -1.7334 C   0  0  0  0  0  0  0  0  0  0  0  0
   -5.4403    9.7026   -6.4298 C   0  0  0  0  0  0  0  0  0  0  0  0
   -2.7789    3.8989   -6.8324 N   0  3  0  0  0  0  0  0  0  0  0  0
   -4.3044    7.3738   -1.5277 O   0  0  0  0  0  0  0  0  0  0  0  0
   -5.9377    9.9121   -7.5413 O   0  0  0  0  0  0  0  0  0  0  0  0
   -2.4022    5.2920   -3.9919 O   0  0  0  0  0  0  0  0  0  0  0  0
   -4.5982    6.0591   -3.5070 O   0  0  0  0  0  0  0  0  0  0  0  0
   -4.5264    9.4527   -2.4617 O   0  0  0  0  0  0  0  0  0  0  0  0
   -4.3193    3.9306   -4.0899 O   0  0  0  0  0  0  0  0  0  0  0  0
   -3.1660    6.9423   -5.3432 O   0  0  0  0  0  0  0  0  0  0  0  0
   -5.6987    8.5466   -5.8214 O   0  0  0  0  0  0  0  0  0  0  0  0
   -3.7426    5.4364   -4.7165 P   0  0  3  0  0  0  0  0  0  0  0  0
   -5.7102    7.2691   -4.4661 H   0  0  0  0  0  0  0  0  0  0  0  0
   -0.2612   16.9407   -3.5278 H   0  0  0  0  0  0  0  0  0  0  0  0
    1.3486   17.6196   -3.6708 H   0  0  0  0  0  0  0  0  0  0  0  0
    0.3655   17.9559   -2.2213 H   0  0  0  0  0  0  0  0  0  0  0  0
   -2.0009   18.8675   -9.7751 H   0  0  0  0  0  0  0  0  0  0  0  0
   -0.4981   18.1770  -10.4421 H   0  0  0  0  0  0  0  0  0  0  0  0
   -1.9942   17.2678  -10.5304 H   0  0  0  0  0  0  0  0  0  0  0  0
   -0.6050    3.5716   -6.6595 H   0  0  0  0  0  0  0  0  0  0  0  0
   -1.0684    5.3140   -6.4734 H   0  0  0  0  0  0  0  0  0  0  0  0
   -1.2307    4.0688   -5.1662 H   0  0  0  0  0  0  0  0  0  0  0  0
   -3.4366    3.4439   -8.7767 H   0  0  0  0  0  0  0  0  0  0  0  0
   -2.1232    4.6638   -8.6571 H   0  0  0  0  0  0  0  0  0  0  0  0
   -1.7482    2.9115   -8.4102 H   0  0  0  0  0  0  0  0  0  0  0  0
   -4.6995    4.7957   -7.8420 H   0  0  0  0  0  0  0  0  0  0  0  0
   -4.6682    4.5952   -6.3092 H   0  0  0  0  0  0  0  0  0  0  0  0
   -3.5172    5.8948   -7.1177 H   0  0  0  0  0  0  0  0  0  0  0  0
    1.5415   15.2426   -2.9984 H   0  0  0  0  0  0  0  0  0  0  0  0
    2.1516   16.2668   -1.7285 H   0  0  0  0  0  0  0  0  0  0  0  0
   -0.4982   18.0407   -7.9464 H   0  0  0  0  0  0  0  0  0  0  0  0
   -0.4901   16.4530   -8.6626 H   0  0  0  0  0  0  0  0  0  0  0  0
    0.6921   14.5690   -0.7242 H   0  0  0  0  0  0  0  0  0  0  0  0
   -0.0194   16.1372   -0.4908 H   0  0  0  0  0  0  0  0  0  0  0  0
   -2.9766   17.9504   -7.6159 H   0  0  0  0  0  0  0  0  0  0  0  0
   -2.1617   16.6559   -6.7890 H   0  0  0  0  0  0  0  0  0  0  0  0
   -1.7702   14.5814   -1.2391 H   0  0  0  0  0  0  0  0  0  0  0  0
   -1.5758   15.7948   -2.4371 H   0  0  0  0  0  0  0  0  0  0  0  0
   -3.5862   16.4352   -9.5269 H   0  0  0  0  0  0  0  0  0  0  0  0
   -4.1977   15.8580   -8.0308 H   0  0  0  0  0  0  0  0  0  0  0  0
   -1.6409   13.6409   -3.5890 H   0  0  0  0  0  0  0  0  0  0  0  0
   -0.0707   14.2825   -3.8215 H   0  0  0  0  0  0  0  0  0  0  0  0
   -1.5790   14.8776   -9.3851 H   0  0  0  0  0  0  0  0  0  0  0  0
   -3.0773   14.0519   -9.4174 H   0  0  0  0  0  0  0  0  0  0  0  0
    0.1976   11.9500   -3.1433 H   0  0  0  0  0  0  0  0  0  0  0  0
    0.8646   12.9109   -1.8962 H   0  0  0  0  0  0  0  0  0  0  0  0
   -1.4659   14.7333   -6.8478 H   0  0  0  0  0  0  0  0  0  0  0  0
   -1.5152   13.1975   -7.6075 H   0  0  0  0  0  0  0  0  0  0  0  0
   -0.5786   11.2343   -0.8396 H   0  0  0  0  0  0  0  0  0  0  0  0
   -1.2722   12.7750   -0.5254 H   0  0  0  0  0  0  0  0  0  0  0  0
   -3.9636   14.6913   -6.4163 H   0  0  0  0  0  0  0  0  0  0  0  0
   -3.1479   13.3752   -5.6833 H   0  0  0  0  0  0  0  0  0  0  0  0
   -3.0713   11.3257   -1.3030 H   0  0  0  0  0  0  0  0  0  0  0  0
   -2.8659   12.5231   -2.5028 H   0  0  0  0  0  0  0  0  0  0  0  0
   -4.6100   13.2862   -8.4389 H   0  0  0  0  0  0  0  0  0  0  0  0
   -5.2309   12.6892   -6.9788 H   0  0  0  0  0  0  0  0  0  0  0  0
   -2.9036   10.4218   -3.6233 H   0  0  0  0  0  0  0  0  0  0  0  0
   -1.3386   10.9956   -3.8714 H   0  0  0  0  0  0  0  0  0  0  0  0
   -2.5977   11.7015   -8.3383 H   0  0  0  0  0  0  0  0  0  0  0  0
   -4.1062   10.8949   -8.4313 H   0  0  0  0  0  0  0  0  0  0  0  0
   -1.2781    8.6182   -3.2239 H   0  0  0  0  0  0  0  0  0  0  0  0
   -0.4881    9.5470   -2.0156 H   0  0  0  0  0  0  0  0  0  0  0  0
   -2.5321   11.4568   -5.8519 H   0  0  0  0  0  0  0  0  0  0  0  0
   -2.6724    9.9422   -6.6765 H   0  0  0  0  0  0  0  0  0  0  0  0
   -1.9784    7.9341   -0.9687 H   0  0  0  0  0  0  0  0  0  0  0  0
   -2.4725    9.5383   -0.4967 H   0  0  0  0  0  0  0  0  0  0  0  0
   -5.0915   11.5675   -5.4759 H   0  0  0  0  0  0  0  0  0  0  0  0
   -4.3052   10.3507   -4.7305 H   0  0  0  0  0  0  0  0  0  0  0  0
   -2.5380    1.8508   -6.2102 H   0  0  0  0  0  0  0  0  0  0  0  0
   -4.2353    2.3769   -6.4581 H   0  0  0  0  0  0  0  0  0  0  0  0
   -2.4907    2.9571   -3.9515 H   0  0  0  0  0  0  0  0  0  0  0  0
   -3.8782    1.9308   -4.0399 H   0  0  0  0  0  0  0  0  0  0  0  0
   -6.3595    8.4725   -2.7242 H   0  0  0  0  0  0  0  0  0  0  0  0
   -6.1529    9.9176   -3.6853 H   0  0  0  0  0  0  0  0  0  0  0  0
   -3.1032    8.8576   -5.1286 H   0  0  0  0  0  0  0  0  0  0  0  0
   -3.1098    7.9359   -3.7024 H   0  0  0  0  0  0  0  0  0  0  0  0
   -4.0664    6.2113   -2.6886 H   0  0  0  0  0  0  0  0  0  0  0  0
  1 44  1  0  0  0  0
  1 45  1  0  0  0  0
  1 46  1  0  0  0  0
  2 47  1  0  0  0  0
  2 48  1  0  0  0  0
  2 49  1  0  0  0  0
  3 50  1  0  0  0  0
  3 51  1  0  0  0  0
  3 52  1  0  0  0  0
  4 53  1  0  0  0  0
  4 54  1  0  0  0  0
  4 55  1  0  0  0  0
  5 56  1  0  0  0  0
  5 57  1  0  0  0  0
  5 58  1  0  0  0  0
  6  1  1  0  0  0  0
  6 59  1  0  0  0  0
  6 60  1  0  0  0  0
  7  2  1  0  0  0  0
  7 61  1  0  0  0  0
  7 62  1  0  0  0  0
  8  6  1  0  0  0  0
  8 63  1  0  0  0  0
  8 64  1  0  0  0  0
  9  7  1  0  0  0  0
  9 65  1  0  0  0  0
  9 66  1  0  0  0  0
 10  8  1  0  0  0  0
 10 67  1  0  0  0  0
 10 68  1  0  0  0  0
 11  9  1  0  0  0  0
 11 69  1  0  0  0  0
 11 70  1  0  0  0  0
 12 10  1  0  0  0  0
 12 71  1  0  0  0  0
 12 72  1  0  0  0  0
 13 11  1  0  0  0  0
 13 73  1  0  0  0  0
 13 74  1  0  0  0  0
 14 12  1  0  0  0  0
 14 75  1  0  0  0  0
 14 76  1  0  0  0  0
 15 13  1  0  0  0  0
 15 77  1  0  0  0  0
 15 78  1  0  0  0  0
 16 14  1  0  0  0  0
 16 79  1  0  0  0  0
 16 80  1  0  0  0  0
 17 15  1  0  0  0  0
 17 81  1  0  0  0  0
 17 82  1  0  0  0  0
 18 16  1  0  0  0  0
 18 83  1  0  0  0  0
 18 84  1  0  0  0  0
 19 17  1  0  0  0  0
 19 85  1  0  0  0  0
 19 86  1  0  0  0  0
 20 18  1  0  0  0  0
 20 87  1  0  0  0  0
 20 88  1  0  0  0  0
 21 19  1  0  0  0  0
 21 89  1  0  0  0  0
 21 90  1  0  0  0  0
 22 20  1  0  0  0  0
 22 91  1  0  0  0  0
 22 92  1  0  0  0  0
 23 21  1  0  0  0  0
 23 93  1  0  0  0  0
 23 94  1  0  0  0  0
 24 22  1  0  0  0  0
 24 95  1  0  0  0  0
 24 96  1  0  0  0  0
 25 23  1  0  0  0  0
 25 97  1  0  0  0  0
 25 98  1  0  0  0  0
 26 99  1  0  0  0  0
 26100  1  0  0  0  0
 27 26  1  0  0  0  0
 27101  1  0  0  0  0
 27102  1  0  0  0  0
 28103  1  0  0  0  0
 28104  1  0  0  0  0
 29105  1  0  0  0  0
 29106  1  0  0  0  0
 30 41  1  0  0  0  0
 30 43  1  1  0  0  0
 30 29  1  0  0  0  0
 30 28  1  0  0  0  0
 31 24  1  0  0  0  0
 32 25  1  0  0  0  0
 33  3  1  0  0  0  0
 33  4  1  0  0  0  0
 33  5  1  0  0  0  0
 33 26  1  0  0  0  0
 34 31  2  0  0  0  0
 35 32  2  0  0  0  0
 37107  1  0  0  0  0
 38 28  1  0  0  0  0
 38 31  1  0  0  0  0
 39 27  1  0  0  0  0
 40 29  1  0  0  0  0
 41 32  1  0  0  0  0
 42 36  2  0  0  0  0
 42 37  1  0  0  0  0
 42 39  1  0  0  0  0
 42 40  1  0  0  0  0
M  CHG  1  33   1
M  END
>  <DRUGBANK_ID>
DB02777

>  <SECONDARY_ACCESSION_NUMBERS>
EXPT02605

>  <COMMON_NAME>
Diundecyl Phosphatidyl Choline

$$$$
