
 OpenBabel10282417233D

 37 38  0  0  0  0  0  0  0  0999 V2000
    0.8327   -0.1920    0.1360 N   0  0  0  0  0  0  0  0  0  0  0  0
   -0.0007   -0.9025   -0.7164 C   0  0  0  0  0  0  0  0  0  0  0  0
    0.1977    0.5525    1.2171 C   0  0  0  0  0  0  0  0  0  0  0  0
    2.3058   -0.0439    0.0230 C   0  0  0  0  0  0  0  0  0  0  0  0
    0.3734   -2.1435   -1.2078 C   0  0  0  0  0  0  0  0  0  0  0  0
   -1.0433   -0.2289   -1.2719 N   0  0  0  0  0  0  0  0  0  0  0  0
    0.4760   -0.0796    2.5577 C   0  0  0  0  0  0  0  0  0  0  0  0
    3.0198   -0.4955   -1.2801 C   0  0  0  0  0  0  0  0  0  0  0  0
   -0.1490   -2.6033   -2.4235 C   0  0  0  0  0  0  0  0  0  0  0  0
   -1.5419   -0.6867   -2.4544 C   0  0  0  0  0  0  0  0  0  0  0  0
    0.9383    0.5891    3.7347 C   0  0  0  0  0  0  0  0  0  0  0  0
    0.3758   -1.4441    2.7726 C   0  0  0  0  0  0  0  0  0  0  0  0
    2.8090    0.2790   -2.5339 N   0  0  0  0  0  0  0  0  0  0  0  0
   -1.1042   -1.8354   -3.0812 C   0  0  0  0  0  0  0  0  0  0  0  0
    1.1095   -0.2795    4.7908 C   0  0  0  0  0  0  0  0  0  0  0  0
    0.7732   -1.8996    4.3627 S   0  0  0  0  0  0  0  0  0  0  0  0
    3.1908   -0.5565   -3.6810 C   0  0  0  0  0  0  0  0  0  0  0  0
    1.4182    0.6500   -2.7439 C   0  0  0  0  0  0  0  0  0  0  0  0
    0.5611    1.5909    1.2126 H   0  0  0  0  0  0  0  0  0  0  0  0
   -0.8916    0.6254    1.0990 H   0  0  0  0  0  0  0  0  0  0  0  0
    2.5701    1.0120    0.1816 H   0  0  0  0  0  0  0  0  0  0  0  0
    2.7643   -0.5865    0.8615 H   0  0  0  0  0  0  0  0  0  0  0  0
    1.1798   -2.6959   -0.7343 H   0  0  0  0  0  0  0  0  0  0  0  0
    4.0996   -0.4434   -1.0778 H   0  0  0  0  0  0  0  0  0  0  0  0
    2.8369   -1.5638   -1.4275 H   0  0  0  0  0  0  0  0  0  0  0  0
    0.2823   -3.4748   -2.9002 H   0  0  0  0  0  0  0  0  0  0  0  0
   -2.2281   -0.0056   -2.9566 H   0  0  0  0  0  0  0  0  0  0  0  0
    1.1342    1.6527    3.8058 H   0  0  0  0  0  0  0  0  0  0  0  0
    0.1010   -2.1904    2.0383 H   0  0  0  0  0  0  0  0  0  0  0  0
   -1.4280   -2.0870   -4.0870 H   0  0  0  0  0  0  0  0  0  0  0  0
    1.4267   -0.0484    5.7969 H   0  0  0  0  0  0  0  0  0  0  0  0
    2.7238   -1.5510   -3.6434 H   0  0  0  0  0  0  0  0  0  0  0  0
    2.8669   -0.0889   -4.6183 H   0  0  0  0  0  0  0  0  0  0  0  0
    4.2739   -0.6746   -3.7238 H   0  0  0  0  0  0  0  0  0  0  0  0
    0.8776   -0.2677   -2.9073 H   0  0  0  0  0  0  0  0  0  0  0  0
    1.0069    1.2432   -1.9246 H   0  0  0  0  0  0  0  0  0  0  0  0
    1.2278    1.2228   -3.6536 H   0  0  0  0  0  0  0  0  0  0  0  0
  1  2  1  0  0  0  0
  1  3  1  0  0  0  0
  1  4  1  0  0  0  0
  2  5  2  0  0  0  0
  2  6  1  0  0  0  0
  3  7  1  0  0  0  0
  3 19  1  0  0  0  0
  3 20  1  0  0  0  0
  4  8  1  0  0  0  0
  4 21  1  0  0  0  0
  4 22  1  0  0  0  0
  5  9  1  0  0  0  0
  5 23  1  0  0  0  0
  6 10  2  0  0  0  0
  7 11  1  0  0  0  0
  7 12  2  0  0  0  0
  8 13  1  0  0  0  0
  8 24  1  0  0  0  0
  8 25  1  0  0  0  0
  9 14  2  0  0  0  0
  9 26  1  0  0  0  0
 10 14  1  0  0  0  0
 10 27  1  0  0  0  0
 11 15  2  0  0  0  0
 11 28  1  0  0  0  0
 12 16  1  0  0  0  0
 12 29  1  0  0  0  0
 13 17  1  0  0  0  0
 13 18  1  0  0  0  0
 14 30  1  0  0  0  0
 15 16  1  0  0  0  0
 15 31  1  0  0  0  0
 17 32  1  0  0  0  0
 17 33  1  0  0  0  0
 17 34  1  0  0  0  0
 18 35  1  0  0  0  0
 18 36  1  0  0  0  0
 18 37  1  0  0  0  0
M  END
>  <DRUGBANK_ID>
DB16022

>  <COMMON_NAME>
Thenyldiamine

>  <CAS_NUMBER>
91-79-2

>  <UNII>
E4U52363JE

>  <SYNONYMS>
Tenildiamina; Thenyldiamine; Thenyldiaminum

$$$$
