
 OpenBabel10282417133D

 18 19  0  0  0  0  0  0  0  0999 V2000
   -2.9881   -0.1938   -0.0467 C   0  0  0  0  0  0  0  0  0  0  0  0
   -2.7906    1.1863    0.0288 C   0  0  0  0  0  0  0  0  0  0  0  0
   -1.8920   -1.0678   -0.0687 C   0  0  0  0  0  0  0  0  0  0  0  0
   -1.4976    1.6976    0.0572 C   0  0  0  0  0  0  0  0  0  0  0  0
    1.8233   -0.8378    0.0241 C   0  0  0  0  0  0  0  0  0  0  0  0
   -0.5858   -0.5669   -0.0213 C   0  0  0  0  0  0  0  0  0  0  0  0
    0.6128   -1.4045    0.0037 C   0  0  0  0  0  0  0  0  0  0  0  0
   -0.4180    0.8172    0.0235 C   0  0  0  0  0  0  0  0  0  0  0  0
    2.0024    0.6208    0.0011 C   0  0  0  0  0  0  0  0  0  0  0  0
    0.4225   -2.7686    0.0270 O   0  0  0  0  0  0  0  0  0  0  0  0
    3.1284    1.1081   -0.0331 O   0  0  0  0  0  0  0  0  0  0  0  0
    0.8622    1.4016    0.0309 O   0  0  0  0  0  0  0  0  0  0  0  0
   -3.9998   -0.5914   -0.0838 H   0  0  0  0  0  0  0  0  0  0  0  0
   -3.6414    1.8622    0.0620 H   0  0  0  0  0  0  0  0  0  0  0  0
   -2.0715   -2.1397   -0.1199 H   0  0  0  0  0  0  0  0  0  0  0  0
   -1.3260    2.7687    0.1065 H   0  0  0  0  0  0  0  0  0  0  0  0
    2.7402   -1.4106    0.0567 H   0  0  0  0  0  0  0  0  0  0  0  0
    1.2902   -3.2087    0.0556 H   0  0  0  0  0  0  0  0  0  0  0  0
  1 13  1  0  0  0  0
  2  1  2  0  0  0  0
  2 14  1  0  0  0  0
  3  1  1  0  0  0  0
  3 15  1  0  0  0  0
  4  2  1  0  0  0  0
  4 16  1  0  0  0  0
  5 17  1  0  0  0  0
  6  3  2  0  0  0  0
  7  5  2  0  0  0  0
  7  6  1  0  0  0  0
  8  4  2  0  0  0  0
  8  6  1  0  0  0  0
  9  5  1  0  0  0  0
 10  7  1  0  0  0  0
 10 18  1  0  0  0  0
 11  9  2  0  0  0  0
 12  8  1  0  0  0  0
 12  9  1  0  0  0  0
M  END
>  <DRUGBANK_ID>
DB03410

>  <SECONDARY_ACCESSION_NUMBERS>
EXPT00215

>  <COMMON_NAME>
4-hydroxycoumarin

>  <CAS_NUMBER>
1076-38-6

>  <UNII>
X954ZLL2RD

>  <SYNONYMS>
4-coumarinol; 4-hydroxy-2-chromenone; 4-hydroxy-2H-1-benzopyran-2-one; 4-hydroxy-2H-benzo[b]pyran-2-one; 4-hydroxychromen-2-one; 4-hydroxycoumarin; Benzotetronic acid

$$$$
