GA0
 OpenBabel10282417163D

 51 53  0  0  0  0  0  0  0  0999 V2000
    0.8421    0.0627   -0.1679 N   0  0  0  0  0  0  0  0  0  0  0  0
    0.4772   -0.4963    1.1440 C   0  0  0  0  0  0  0  0  0  0  0  0
    1.0184    0.3632    2.2780 C   0  0  0  0  0  0  0  0  0  0  0  0
    0.2739    0.9395    3.0861 O   0  0  0  0  0  0  0  0  0  0  0  0
    2.3595    0.5288    2.4227 N   0  0  0  0  0  0  0  0  0  0  0  0
    3.4516   -0.0987    1.6869 C   0  0  1  0  0  0  0  0  0  0  0  0
    4.2632    0.9478    0.9343 C   0  0  0  0  0  0  0  0  0  0  0  0
    4.4631   -0.9417    2.4665 C   0  0  0  0  0  0  0  0  0  0  0  0
    4.6984   -2.0935    2.0839 O   0  0  0  0  0  0  0  0  0  0  0  0
    5.2053   -0.3567    3.4697 N   0  0  0  0  0  0  0  0  0  0  0  0
    4.8715    0.7097    4.3972 C   0  0  0  0  0  0  0  0  0  0  0  0
    6.5306   -0.8701    3.7710 C   0  0  1  0  0  0  0  0  0  0  0  0
    7.1533    0.2490    4.6471 C   0  0  0  0  0  0  0  0  0  0  0  0
    6.1613    1.4184    4.6278 C   0  0  0  0  0  0  0  0  0  0  0  0
    6.6528   -2.2742    4.4535 C   0  0  0  0  0  0  0  0  0  0  0  0
    7.6358   -2.9788    4.1736 O   0  0  0  0  0  0  0  0  0  0  0  0
    5.8977   -2.6693    5.5416 N   0  0  0  0  0  0  0  0  0  0  0  0
    4.7043   -2.1405    6.0628 C   0  0  0  0  0  0  0  0  0  0  0  0
    4.5696   -1.8455    7.4183 C   0  0  0  0  0  0  0  0  0  0  0  0
    3.4520   -1.0928    7.8725 C   0  0  0  0  0  0  0  0  0  0  0  0
    2.5106   -0.5998    6.9369 C   0  0  0  0  0  0  0  0  0  0  0  0
    1.4522    0.2303    7.3230 C   0  0  0  0  0  0  0  0  0  0  0  0
    1.2318    0.4768    8.6699 C   0  0  0  0  0  0  0  0  0  0  0  0
    2.1055   -0.0537    9.6172 C   0  0  0  0  0  0  0  0  0  0  0  0
    3.2264   -0.7979    9.2231 C   0  0  0  0  0  0  0  0  0  0  0  0
    2.6115   -0.9962    5.6162 C   0  0  0  0  0  0  0  0  0  0  0  0
    3.6312   -1.8648    5.2284 C   0  0  0  0  0  0  0  0  0  0  0  0
    3.0234   -0.8024    0.9696 H   0  0  0  0  0  0  0  0  0  0  0  0
    7.0720   -0.9298    2.8144 H   0  0  0  0  0  0  0  0  0  0  0  0
    0.5426    1.0369   -0.2027 H   0  0  0  0  0  0  0  0  0  0  0  0
    1.8513    0.0905   -0.2773 H   0  0  0  0  0  0  0  0  0  0  0  0
   -0.6144   -0.5184    1.2179 H   0  0  0  0  0  0  0  0  0  0  0  0
    0.8416   -1.5210    1.2670 H   0  0  0  0  0  0  0  0  0  0  0  0
    2.5615    1.1805    3.1627 H   0  0  0  0  0  0  0  0  0  0  0  0
    4.8276    1.5812    1.6271 H   0  0  0  0  0  0  0  0  0  0  0  0
    4.9906    0.4567    0.2778 H   0  0  0  0  0  0  0  0  0  0  0  0
    3.6266    1.5985    0.3315 H   0  0  0  0  0  0  0  0  0  0  0  0
    4.6637    0.2858    5.3733 H   0  0  0  0  0  0  0  0  0  0  0  0
    4.0291    1.3315    4.1407 H   0  0  0  0  0  0  0  0  0  0  0  0
    8.1210    0.5878    4.2677 H   0  0  0  0  0  0  0  0  0  0  0  0
    7.3010   -0.1013    5.6744 H   0  0  0  0  0  0  0  0  0  0  0  0
    6.3322    2.1167    3.8059 H   0  0  0  0  0  0  0  0  0  0  0  0
    6.1308    1.9656    5.5758 H   0  0  0  0  0  0  0  0  0  0  0  0
    6.2987   -3.4693    6.0169 H   0  0  0  0  0  0  0  0  0  0  0  0
    5.3461   -2.1379    8.1208 H   0  0  0  0  0  0  0  0  0  0  0  0
    0.7626    0.6383    6.5840 H   0  0  0  0  0  0  0  0  0  0  0  0
    0.3616    1.0513    8.9767 H   0  0  0  0  0  0  0  0  0  0  0  0
    1.9072    0.1048   10.6731 H   0  0  0  0  0  0  0  0  0  0  0  0
    3.9002   -1.1798    9.9850 H   0  0  0  0  0  0  0  0  0  0  0  0
    1.9452   -0.5831    4.8649 H   0  0  0  0  0  0  0  0  0  0  0  0
    3.6423   -2.2321    4.2154 H   0  0  0  0  0  0  0  0  0  0  0  0
  1  2  1  0  0  0  0
  1 30  1  0  0  0  0
  1 31  1  0  0  0  0
  2  3  1  0  0  0  0
  2 32  1  0  0  0  0
  2 33  1  0  0  0  0
  3  4  2  0  0  0  0
  3  5  1  0  0  0  0
  5  6  1  0  0  0  0
  5 34  1  0  0  0  0
  6  7  1  0  0  0  0
  6  8  1  0  0  0  0
  6 28  1  6  0  0  0
  7 35  1  0  0  0  0
  7 36  1  0  0  0  0
  7 37  1  0  0  0  0
  8  9  2  0  0  0  0
  8 10  1  0  0  0  0
 10 11  1  0  0  0  0
 10 12  1  0  0  0  0
 11 14  1  0  0  0  0
 11 38  1  0  0  0  0
 11 39  1  0  0  0  0
 12 13  1  0  0  0  0
 12 29  1  6  0  0  0
 12 15  1  0  0  0  0
 13 14  1  0  0  0  0
 13 40  1  0  0  0  0
 13 41  1  0  0  0  0
 14 42  1  0  0  0  0
 14 43  1  0  0  0  0
 15 16  2  0  0  0  0
 15 17  1  0  0  0  0
 17 18  1  0  0  0  0
 17 44  1  0  0  0  0
 18 19  1  0  0  0  0
 18 27  2  0  0  0  0
 19 20  2  0  0  0  0
 19 45  1  0  0  0  0
 20 21  1  0  0  0  0
 20 25  1  0  0  0  0
 21 22  1  0  0  0  0
 21 26  2  0  0  0  0
 22 23  2  0  0  0  0
 22 46  1  0  0  0  0
 23 24  1  0  0  0  0
 23 47  1  0  0  0  0
 24 25  2  0  0  0  0
 24 48  1  0  0  0  0
 25 49  1  0  0  0  0
 26 27  1  0  0  0  0
 26 50  1  0  0  0  0
 27 51  1  0  0  0  0
M  END
>  <DRUGBANK_ID>
DB07813

>  <COMMON_NAME>
GLYCYLALANYL-N-2-NAPHTHYL-L-PROLINEAMIDE

$$$$
