
 OpenBabel10282417123D

108107  0  0  0  0  0  0  0  0999 V2000
   -2.8416    6.0146   -1.9169 C   0  0  0  0  0  0  0  0  0  0  0  0
   -2.1786    7.3245   -2.3120 C   0  0  0  0  0  0  0  0  0  0  0  0
   -2.0377    5.1991   -0.8994 C   0  0  0  0  0  0  0  0  0  0  0  0
   -3.0247    1.6498   -1.2061 O   0  0  0  0  0  0  0  0  0  0  0  0
   -2.8206    3.9753   -0.3849 C   0  0  1  0  0  0  0  0  0  0  0  0
   -3.2281    2.8727   -1.4258 C   0  0  0  0  0  0  0  0  0  0  0  0
   -2.0066    3.2756    0.6666 N   0  0  0  0  0  0  0  0  0  0  0  0
   -3.6928    3.4055   -2.5897 O   0  0  0  0  0  0  0  0  0  0  0  0
   -3.8777    2.6552   -3.8226 C   0  0  0  0  0  0  0  0  0  0  0  0
   -2.5299    3.1159    1.9363 C   0  0  0  0  0  0  0  0  0  0  0  0
   -1.6810    2.4786    3.0021 C   0  0  0  0  0  0  0  0  0  0  0  0
   -3.7158    3.3210    2.1626 O   0  0  0  0  0  0  0  0  0  0  0  0
   -1.8872    8.1808   -1.1886 N   0  0  0  0  0  0  0  0  0  0  0  0
   -0.5941    8.4997   -0.8410 C   0  0  0  0  0  0  0  0  0  0  0  0
   -0.3512    9.3913    0.3433 C   0  0  0  0  0  0  0  0  0  0  0  0
    0.3455    8.0109   -1.4788 O   0  0  0  0  0  0  0  0  0  0  0  0
   -2.9901    8.5688   -0.4411 O   0  5  0  0  0  0  0  0  0  0  0  0
    0.8915    9.7804    0.7061 C   0  0  0  0  0  0  0  0  0  0  0  0
    1.1365   10.6431    1.9291 C   0  0  0  0  0  0  0  0  0  0  0  0
    2.0934    9.3942   -0.1166 C   0  0  0  0  0  0  0  0  0  0  0  0
    1.9783    9.9526    3.0114 C   0  0  0  0  0  0  0  0  0  0  0  0
    3.3018    9.6477    2.5863 O   0  0  0  0  0  0  0  0  0  0  0  0
   -1.3817    0.3276   -4.3519 C   0  0  0  0  0  0  0  0  0  0  0  0
   -1.5531    1.7173   -3.9154 C   0  0  0  0  0  0  0  0  0  0  0  0
   -2.5873    2.4845   -4.6403 C   0  0  0  0  0  0  0  0  0  0  0  0
   -0.8189    2.2469   -2.9384 C   0  0  0  0  0  0  0  0  0  0  0  0
   -0.1972    1.4263   -1.9157 C   0  0  0  0  0  0  0  0  0  0  0  0
   -0.4827    1.8197   -0.7541 O   0  0  0  0  0  0  0  0  0  0  0  0
   -0.0631    0.0514   -1.7445 N   0  0  0  0  0  0  0  0  0  0  0  0
   -0.7586   -0.9864   -2.2175 O   0  5  0  0  0  0  0  0  0  0  0  0
    1.0427   -0.5383   -1.1000 C   0  0  0  0  0  0  0  0  0  0  0  0
    2.1943    1.4254    2.6536 N   0  0  0  0  0  0  0  0  0  0  0  0
    1.2635    1.6179    1.5456 C   0  0  1  0  0  0  0  0  0  0  0  0
    1.9124    1.8565    0.1157 C   0  0  0  0  0  0  0  0  0  0  0  0
    1.9372    0.6093   -0.7806 C   0  0  0  0  0  0  0  0  0  0  0  0
    2.8125    0.2292    2.9422 C   0  0  0  0  0  0  0  0  0  0  0  0
    2.4814   -0.9523    2.0618 C   0  0  1  0  0  0  0  0  0  0  0  0
    0.3140    0.3259    1.7321 C   0  0  0  0  0  0  0  0  0  0  0  0
    0.9809   -0.8677    1.9279 N   0  0  0  0  0  0  0  0  0  0  0  0
    3.7047    0.1823    3.8329 O   0  0  0  0  0  0  0  0  0  0  0  0
   -0.8828    0.2433    1.3667 O   0  0  0  0  0  0  0  0  0  0  0  0
    5.1526   -5.1115   -1.1804 C   0  0  0  0  0  0  0  0  0  0  0  0
    5.5581   -4.0166   -0.2604 C   0  0  0  0  0  0  0  0  0  0  0  0
    6.7434   -3.7337   -0.0664 O   0  0  0  0  0  0  0  0  0  0  0  0
    4.5936   -3.2853    0.3762 N   0  0  0  0  0  0  0  0  0  0  0  0
    3.2306   -3.6321    0.3373 O   0  5  0  0  0  0  0  0  0  0  0  0
    3.3863   -0.7983    0.8032 C   0  0  0  0  0  0  0  0  0  0  0  0
    4.8460   -0.9173    0.8170 C   0  0  0  0  0  0  0  0  0  0  0  0
    5.0592   -2.2867    1.3278 C   0  0  0  0  0  0  0  0  0  0  0  0
    6.0843   -5.9283   -1.7098 C   0  0  0  0  0  0  0  0  0  0  0  0
    5.7075   -7.0296   -2.6679 C   0  0  0  0  0  0  0  0  0  0  0  0
    7.5397   -5.7802   -1.3418 C   0  0  0  0  0  0  0  0  0  0  0  0
    6.3102   -6.8454   -4.0634 C   0  0  0  0  0  0  0  0  0  0  0  0
    0.7696    2.5662    1.7518 H   0  0  0  0  0  0  0  0  0  0  0  0
    2.6050   -1.9186    2.5463 H   0  0  0  0  0  0  0  0  0  0  0  0
   -1.6458    0.0119   -0.5360 Fe  0  1  0  0  0  0  0  0  0  0  0  0
    7.7311   -6.8998   -4.0664 O   0  0  0  0  0  0  0  0  0  0  0  0
   -2.9545    5.4628   -2.8501 H   0  0  0  0  0  0  0  0  0  0  0  0
   -3.8438    6.2007   -1.5164 H   0  0  0  0  0  0  0  0  0  0  0  0
   -1.2475    7.0748   -2.8395 H   0  0  0  0  0  0  0  0  0  0  0  0
   -2.7955    7.8672   -3.0372 H   0  0  0  0  0  0  0  0  0  0  0  0
   -1.0566    4.9424   -1.3178 H   0  0  0  0  0  0  0  0  0  0  0  0
   -1.8054    5.8267   -0.0268 H   0  0  0  0  0  0  0  0  0  0  0  0
   -3.7500    4.3268    0.0694 H   0  0  0  0  0  0  0  0  0  0  0  0
   -1.0022    3.2936    0.4966 H   0  0  0  0  0  0  0  0  0  0  0  0
   -4.3621    1.7038   -3.5871 H   0  0  0  0  0  0  0  0  0  0  0  0
   -4.5601    3.2279   -4.4642 H   0  0  0  0  0  0  0  0  0  0  0  0
   -1.5315    3.1109    3.8736 H   0  0  0  0  0  0  0  0  0  0  0  0
   -2.1221    1.5170    3.2881 H   0  0  0  0  0  0  0  0  0  0  0  0
   -0.7015    2.2645    2.6515 H   0  0  0  0  0  0  0  0  0  0  0  0
   -1.2292    9.6961    0.9034 H   0  0  0  0  0  0  0  0  0  0  0  0
    1.6224   11.5736    1.6111 H   0  0  0  0  0  0  0  0  0  0  0  0
    0.1809   10.9311    2.3890 H   0  0  0  0  0  0  0  0  0  0  0  0
    2.2467    8.3092   -0.0460 H   0  0  0  0  0  0  0  0  0  0  0  0
    1.9724    9.6951   -1.1607 H   0  0  0  0  0  0  0  0  0  0  0  0
    3.0137    9.8812    0.2043 H   0  0  0  0  0  0  0  0  0  0  0  0
    2.0806   10.6141    3.8761 H   0  0  0  0  0  0  0  0  0  0  0  0
    1.5040    9.0246    3.3449 H   0  0  0  0  0  0  0  0  0  0  0  0
    3.2203    8.9442    1.9206 H   0  0  0  0  0  0  0  0  0  0  0  0
   -0.2952    0.1711   -4.3756 H   0  0  0  0  0  0  0  0  0  0  0  0
   -1.9972   -0.2496   -3.6621 H   0  0  0  0  0  0  0  0  0  0  0  0
   -1.7501    0.0276   -5.3195 H   0  0  0  0  0  0  0  0  0  0  0  0
   -2.8139    1.9247   -5.5546 H   0  0  0  0  0  0  0  0  0  0  0  0
   -2.1463    3.4384   -4.9366 H   0  0  0  0  0  0  0  0  0  0  0  0
   -0.9556    3.2954   -2.6702 H   0  0  0  0  0  0  0  0  0  0  0  0
    0.5756   -1.0783   -0.2492 H   0  0  0  0  0  0  0  0  0  0  0  0
    1.5313   -1.4205   -1.5597 H   0  0  0  0  0  0  0  0  0  0  0  0
    2.4494    2.1999    3.2572 H   0  0  0  0  0  0  0  0  0  0  0  0
    2.9398    2.2023    0.2822 H   0  0  0  0  0  0  0  0  0  0  0  0
    1.4755    2.6840   -0.4450 H   0  0  0  0  0  0  0  0  0  0  0  0
    1.9108    0.1146    0.1257 H   0  0  0  0  0  0  0  0  0  0  0  0
    2.8316    0.5271   -1.3971 H   0  0  0  0  0  0  0  0  0  0  0  0
    0.4981   -1.7644    1.9748 H   0  0  0  0  0  0  0  0  0  0  0  0
    4.0976   -5.2086   -1.4048 H   0  0  0  0  0  0  0  0  0  0  0  0
    3.0148   -1.3811   -0.0509 H   0  0  0  0  0  0  0  0  0  0  0  0
    3.4962    0.2443    0.5411 H   0  0  0  0  0  0  0  0  0  0  0  0
    5.2165   -0.7400   -0.2114 H   0  0  0  0  0  0  0  0  0  0  0  0
    5.2298   -0.1024    1.4392 H   0  0  0  0  0  0  0  0  0  0  0  0
    6.1340   -2.3222    1.4888 H   0  0  0  0  0  0  0  0  0  0  0  0
    4.5776   -2.4321    2.2917 H   0  0  0  0  0  0  0  0  0  0  0  0
    6.0214   -7.9864   -2.2358 H   0  0  0  0  0  0  0  0  0  0  0  0
    4.6150   -7.0780   -2.7795 H   0  0  0  0  0  0  0  0  0  0  0  0
    7.9179   -4.8277   -1.7399 H   0  0  0  0  0  0  0  0  0  0  0  0
    7.6803   -5.8224   -0.2572 H   0  0  0  0  0  0  0  0  0  0  0  0
    8.1707   -6.5755   -1.7307 H   0  0  0  0  0  0  0  0  0  0  0  0
    5.9697   -7.6534   -4.7156 H   0  0  0  0  0  0  0  0  0  0  0  0
    5.9999   -5.8931   -4.5052 H   0  0  0  0  0  0  0  0  0  0  0  0
    8.0359   -6.0784   -3.6413 H   0  0  0  0  0  0  0  0  0  0  0  0
  1 58  1  0  0  0  0
  1 59  1  0  0  0  0
  2  1  1  0  0  0  0
  2 13  1  0  0  0  0
  2 60  1  0  0  0  0
  2 61  1  0  0  0  0
  3  1  1  0  0  0  0
  3 62  1  0  0  0  0
  3 63  1  0  0  0  0
  5  3  1  0  0  0  0
  5  7  1  0  0  0  0
  5 64  1  1  0  0  0
  6  4  2  0  0  0  0
  6  5  1  0  0  0  0
  6  8  1  0  0  0  0
  7 10  1  0  0  0  0
  7 65  1  0  0  0  0
  8  9  1  0  0  0  0
  9 25  1  0  0  0  0
  9 66  1  0  0  0  0
  9 67  1  0  0  0  0
 10 11  1  0  0  0  0
 10 12  2  0  0  0  0
 11 68  1  0  0  0  0
 11 69  1  0  0  0  0
 11 70  1  0  0  0  0
 13 14  1  0  0  0  0
 14 15  1  0  0  0  0
 15 18  2  0  0  0  0
 15 71  1  0  0  0  0
 16 14  2  0  0  0  0
 17 13  1  0  0  0  0
 18 19  1  0  0  0  0
 18 20  1  0  0  0  0
 19 21  1  0  0  0  0
 19 72  1  0  0  0  0
 19 73  1  0  0  0  0
 20 74  1  0  0  0  0
 20 75  1  0  0  0  0
 20 76  1  0  0  0  0
 21 22  1  0  0  0  0
 21 77  1  0  0  0  0
 21 78  1  0  0  0  0
 22 79  1  0  0  0  0
 23 80  1  0  0  0  0
 23 81  1  0  0  0  0
 23 82  1  0  0  0  0
 24 23  1  0  0  0  0
 25 24  1  0  0  0  0
 25 83  1  0  0  0  0
 25 84  1  0  0  0  0
 26 24  2  0  0  0  0
 26 85  1  0  0  0  0
 27 26  1  0  0  0  0
 28 27  2  0  0  0  0
 29 27  1  0  0  0  0
 29 31  1  0  0  0  0
 30 29  1  0  0  0  0
 31 86  1  0  0  0  0
 31 87  1  0  0  0  0
 32 88  1  0  0  0  0
 33 32  1  0  0  0  0
 33 54  1  1  0  0  0
 34 33  1  0  0  0  0
 34 89  1  0  0  0  0
 34 90  1  0  0  0  0
 35 34  1  0  0  0  0
 35 31  1  0  0  0  0
 35 91  1  0  0  0  0
 35 92  1  0  0  0  0
 36 32  1  0  0  0  0
 36 40  2  0  0  0  0
 37 36  1  0  0  0  0
 37 55  1  1  0  0  0
 38 33  1  0  0  0  0
 38 41  2  0  0  0  0
 39 38  1  0  0  0  0
 39 37  1  0  0  0  0
 39 93  1  0  0  0  0
 42 94  1  0  0  0  0
 43 42  1  0  0  0  0
 44 43  2  0  0  0  0
 45 43  1  0  0  0  0
 46 45  1  0  0  0  0
 47 37  1  0  0  0  0
 47 48  1  0  0  0  0
 47 95  1  0  0  0  0
 47 96  1  0  0  0  0
 48 49  1  0  0  0  0
 48 97  1  0  0  0  0
 48 98  1  0  0  0  0
 49 45  1  0  0  0  0
 49 99  1  0  0  0  0
 49100  1  0  0  0  0
 50 42  2  0  0  0  0
 50 52  1  0  0  0  0
 51 50  1  0  0  0  0
 51 53  1  0  0  0  0
 51101  1  0  0  0  0
 51102  1  0  0  0  0
 52103  1  0  0  0  0
 52104  1  0  0  0  0
 52105  1  0  0  0  0
 53 57  1  0  0  0  0
 53106  1  0  0  0  0
 53107  1  0  0  0  0
 57108  1  0  0  0  0
M  CHG  4  17  -1  30  -1  46  -1  56   3
M  END
>  <DRUGBANK_ID>
DB01747

>  <SECONDARY_ACCESSION_NUMBERS>
EXPT01001

>  <COMMON_NAME>
Coprogen

>  <CAS_NUMBER>
31418-71-0

>  <UNII>
9262JXU362

$$$$
