
 OpenBabel10282417183D

 68 71  0  0  1  0  0  0  0  0999 V2000
    2.3867    0.1495    0.0048 C   0  0  0  0  0  0  0  0  0  0  0  0
    0.8473    0.2004    0.0782 C   0  0  0  0  0  0  0  0  0  0  0  0
    0.0091    1.5211    0.0646 C   0  0  0  0  0  0  0  0  0  0  0  0
   -1.4665    1.6040    0.0432 C   0  0  0  0  0  0  0  0  0  0  0  0
   -1.9187    0.2402    0.0468 C   0  0  0  0  0  0  0  0  0  0  0  0
   -1.1615   -1.0068    0.0704 C   0  0  0  0  0  0  0  0  0  0  0  0
    0.2263   -1.0651    0.1120 C   0  0  0  0  0  0  0  0  0  0  0  0
    0.9391   -2.4223    0.0117 C   0  0  0  0  0  0  0  0  0  0  0  0
    0.6205   -3.4007    1.0412 N   0  0  0  0  0  0  0  0  0  0  0  0
   -0.0182   -4.5973    0.9377 C   0  0  0  0  0  0  0  0  0  0  0  0
   -0.4630   -5.0911    1.9908 O   0  0  0  0  0  0  0  0  0  0  0  0
   -0.2451   -5.1428   -0.2909 N   0  0  0  0  0  0  0  0  0  0  0  0
    0.6601   -5.1908   -1.4296 C   0  0  0  0  0  0  0  0  0  0  0  0
   -0.2970   -5.1119   -2.5968 C   0  0  0  0  0  0  0  0  0  0  0  0
   -1.4155   -6.0367   -2.1477 C   0  0  0  0  0  0  0  0  0  0  0  0
   -1.4515   -5.9455   -0.5980 C   0  0  1  0  0  0  0  0  0  0  0  0
   -1.4764   -7.3765    0.0276 C   0  0  0  0  0  0  0  0  0  0  0  0
   -0.5974   -7.7574    0.8070 O   0  0  0  0  0  0  0  0  0  0  0  0
   -2.5220   -8.2417   -0.3205 N   0  0  0  0  0  0  0  0  0  0  0  0
   -3.5967   -7.9701   -1.2616 C   0  0  0  0  0  0  0  0  0  0  0  0
   -2.5182   -9.5663    0.2842 C   0  0  0  0  0  0  0  0  0  0  0  0
   -2.9207    2.6744   -0.0568 C   0  0  0  0  0  0  0  0  0  0  0  0
   -3.9358    2.0128   -0.4061 O   0  0  0  0  0  0  0  0  0  0  0  0
   -3.3520    4.2247    0.2223 N   0  0  0  0  0  0  0  0  0  0  0  0
   -4.6590    4.8350    1.4549 C   0  0  0  0  0  0  0  0  0  0  0  0
   -4.1352    5.3900    3.2053 C   0  0  0  0  0  0  0  0  0  0  0  0
   -3.0793    4.4533    3.7105 C   0  0  0  0  0  0  0  0  0  0  0  0
   -2.7268    3.9918    2.3935 C   0  0  0  0  0  0  0  0  0  0  0  0
   -2.3593    5.5230    1.4568 C   0  0  0  0  0  0  0  0  0  0  0  0
   -2.0832    5.0055    0.2554 C   0  0  0  0  0  0  0  0  0  0  0  0
   -1.6500    5.9401   -0.7460 C   0  0  0  0  0  0  0  0  0  0  0  0
   -2.0808    7.2787   -0.8565 C   0  0  0  0  0  0  0  0  0  0  0  0
   -3.0169    7.6684    0.0472 C   0  0  0  0  0  0  0  0  0  0  0  0
   -3.1234    6.8333    1.1709 C   0  0  0  0  0  0  0  0  0  0  0  0
    2.8072   -0.4091    0.8598 H   0  0  0  0  0  0  0  0  0  0  0  0
    2.7381   -0.3836   -0.8986 H   0  0  0  0  0  0  0  0  0  0  0  0
    2.8446    1.1352    0.0001 H   0  0  0  0  0  0  0  0  0  0  0  0
    0.6586    2.3980    0.0249 H   0  0  0  0  0  0  0  0  0  0  0  0
   -2.9904    0.0656    0.0035 H   0  0  0  0  0  0  0  0  0  0  0  0
   -1.7129   -1.9510    0.0157 H   0  0  0  0  0  0  0  0  0  0  0  0
    0.6559   -2.8064   -0.9625 H   0  0  0  0  0  0  0  0  0  0  0  0
    2.0328   -2.3623    0.0291 H   0  0  0  0  0  0  0  0  0  0  0  0
    0.7232   -3.1002    2.0032 H   0  0  0  0  0  0  0  0  0  0  0  0
    1.1639   -6.1635   -1.4108 H   0  0  0  0  0  0  0  0  0  0  0  0
    1.4506   -4.4457   -1.4537 H   0  0  0  0  0  0  0  0  0  0  0  0
   -0.6945   -4.0952   -2.7154 H   0  0  0  0  0  0  0  0  0  0  0  0
    0.1426   -5.4230   -3.5470 H   0  0  0  0  0  0  0  0  0  0  0  0
   -2.3530   -5.7236   -2.6180 H   0  0  0  0  0  0  0  0  0  0  0  0
   -1.1968   -7.0587   -2.4796 H   0  0  0  0  0  0  0  0  0  0  0  0
   -2.3291   -5.3927   -0.2377 H   0  0  0  0  0  0  0  0  0  0  0  0
   -3.4982   -8.6550   -2.1115 H   0  0  0  0  0  0  0  0  0  0  0  0
   -4.5588   -8.1226   -0.7691 H   0  0  0  0  0  0  0  0  0  0  0  0
   -3.5919   -6.9504   -1.6272 H   0  0  0  0  0  0  0  0  0  0  0  0
   -1.5756  -10.0739    0.0560 H   0  0  0  0  0  0  0  0  0  0  0  0
   -2.6137   -9.4646    1.3695 H   0  0  0  0  0  0  0  0  0  0  0  0
   -3.3494  -10.1690   -0.0951 H   0  0  0  0  0  0  0  0  0  0  0  0
   -5.2813    5.7401    1.2203 H   0  0  0  0  0  0  0  0  0  0  0  0
   -5.4460    4.0711    1.5708 H   0  0  0  0  0  0  0  0  0  0  0  0
   -4.8685    5.5976    3.9949 H   0  0  0  0  0  0  0  0  0  0  0  0
   -3.6477    6.3915    3.2274 H   0  0  0  0  0  0  0  0  0  0  0  0
   -3.5050    3.6731    4.3427 H   0  0  0  0  0  0  0  0  0  0  0  0
   -2.1303    4.8435    4.0714 H   0  0  0  0  0  0  0  0  0  0  0  0
   -3.6254    3.3342    2.1205 H   0  0  0  0  0  0  0  0  0  0  0  0
   -1.9870    3.1976    2.2974 H   0  0  0  0  0  0  0  0  0  0  0  0
   -0.7385    5.7273   -1.3146 H   0  0  0  0  0  0  0  0  0  0  0  0
   -1.7306    7.9807   -1.6047 H   0  0  0  0  0  0  0  0  0  0  0  0
   -3.6563    8.5393   -0.1047 H   0  0  0  0  0  0  0  0  0  0  0  0
   -4.1033    7.1228    1.5956 H   0  0  0  0  0  0  0  0  0  0  0  0
  1  2  1  0  0  0  0
  1 35  1  0  0  0  0
  1 36  1  0  0  0  0
  1 37  1  0  0  0  0
  2  3  2  0  0  0  0
  2  7  1  0  0  0  0
  3  4  1  0  0  0  0
  3 38  1  0  0  0  0
  4  5  2  0  0  0  0
  4 22  1  0  0  0  0
  5  6  1  0  0  0  0
  5 39  1  0  0  0  0
  6  7  2  0  0  0  0
  6 40  1  0  0  0  0
  7  8  1  0  0  0  0
  8  9  1  0  0  0  0
  8 41  1  0  0  0  0
  8 42  1  0  0  0  0
  9 10  1  0  0  0  0
  9 43  1  0  0  0  0
 10 11  2  0  0  0  0
 10 12  1  0  0  0  0
 12 13  1  0  0  0  0
 12 16  1  0  0  0  0
 13 14  1  0  0  0  0
 13 44  1  0  0  0  0
 13 45  1  0  0  0  0
 14 15  1  0  0  0  0
 14 46  1  0  0  0  0
 14 47  1  0  0  0  0
 15 16  1  0  0  0  0
 15 48  1  0  0  0  0
 15 49  1  0  0  0  0
 16 50  1  1  0  0  0
 16 17  1  0  0  0  0
 17 18  2  0  0  0  0
 17 19  1  0  0  0  0
 19 20  1  0  0  0  0
 19 21  1  0  0  0  0
 20 51  1  0  0  0  0
 20 52  1  0  0  0  0
 20 53  1  0  0  0  0
 21 54  1  0  0  0  0
 21 55  1  0  0  0  0
 21 56  1  0  0  0  0
 22 23  2  0  0  0  0
 22 24  1  0  0  0  0
 24 25  1  0  0  0  0
 24 30  1  0  0  0  0
 25 26  1  0  0  0  0
 25 57  1  0  0  0  0
 25 58  1  0  0  0  0
 26 27  1  0  0  0  0
 26 59  1  0  0  0  0
 26 60  1  0  0  0  0
 27 28  1  0  0  0  0
 27 61  1  0  0  0  0
 27 62  1  0  0  0  0
 28 29  1  0  0  0  0
 28 63  1  0  0  0  0
 28 64  1  0  0  0  0
 29 30  2  0  0  0  0
 29 34  1  0  0  0  0
 30 31  1  0  0  0  0
 31 32  2  0  0  0  0
 31 65  1  0  0  0  0
 32 33  1  0  0  0  0
 32 66  1  0  0  0  0
 33 34  2  0  0  0  0
 33 67  1  0  0  0  0
 34 68  1  0  0  0  0
M  END
>  <DRUGBANK_ID>
DB11734

>  <COMMON_NAME>
Fedovapagon

>  <CAS_NUMBER>
347887-36-9

>  <UNII>
VX2GBO4I0V

>  <SYNONYMS>
Fedovapagon

$$$$
