
 OpenBabel10282417153D

 17 17  0  0  0  0  0  0  0  0999 V2000
    0.9711   -0.6781    0.1432 C   0  0  0  0  0  0  0  0  0  0  0  0
   -0.3436   -1.0796    0.0381 C   0  0  0  0  0  0  0  0  0  0  0  0
    0.9517    0.6811    0.0513 N   0  0  0  0  0  0  0  0  0  0  0  0
   -1.1644    0.0249   -0.0262 N   0  0  0  0  0  0  0  0  0  0  0  0
   -0.3592    1.0611    0.0027 C   0  0  0  0  0  0  0  0  0  0  0  0
   -0.8826   -2.4725   -0.0158 C   0  0  0  0  0  0  0  0  0  0  0  0
   -0.4118   -3.2546   -1.2563 C   0  0  0  0  0  0  0  0  0  0  0  0
    1.0464   -3.4235   -1.3363 N   0  0  0  0  0  0  0  0  0  0  0  0
    1.8924   -1.2382    0.2266 H   0  0  0  0  0  0  0  0  0  0  0  0
    1.7556    1.2886    0.0331 H   0  0  0  0  0  0  0  0  0  0  0  0
   -0.6537    2.1026   -0.0170 H   0  0  0  0  0  0  0  0  0  0  0  0
   -0.5903   -3.0078    0.8958 H   0  0  0  0  0  0  0  0  0  0  0  0
   -1.9805   -2.4420   -0.0191 H   0  0  0  0  0  0  0  0  0  0  0  0
   -0.8639   -4.2520   -1.2437 H   0  0  0  0  0  0  0  0  0  0  0  0
   -0.7552   -2.7485   -2.1659 H   0  0  0  0  0  0  0  0  0  0  0  0
    1.2872   -3.9072   -2.1986 H   0  0  0  0  0  0  0  0  0  0  0  0
    1.4598   -2.4967   -1.4390 H   0  0  0  0  0  0  0  0  0  0  0  0
  1  2  2  0  0  0  0
  1  3  1  0  0  0  0
  1  9  1  0  0  0  0
  2  4  1  0  0  0  0
  2  6  1  0  0  0  0
  3  5  1  0  0  0  0
  3 10  1  0  0  0  0
  4  5  2  0  0  0  0
  5 11  1  0  0  0  0
  6  7  1  0  0  0  0
  6 12  1  0  0  0  0
  6 13  1  0  0  0  0
  7  8  1  0  0  0  0
  7 14  1  0  0  0  0
  7 15  1  0  0  0  0
  8 16  1  0  0  0  0
  8 17  1  0  0  0  0
M  END
>  <DRUGBANK_ID>
DB05381

>  <SECONDARY_ACCESSION_NUMBERS>
APRD01015; DB05891; DB11320; DB00667

>  <COMMON_NAME>
Histamine

>  <CAS_NUMBER>
51-45-6

>  <UNII>
820484N8I3

>  <SYNONYMS>
1H-Imidazole-4-ethanamine; 2-(4-imidazolyl)ethylamine; 4-imidazoleethylamine; 5-imidazoleethylamine; beta-aminoethylglyoxaline; beta-aminoethylimidazole

$$$$
