21U
 OpenBabel10282417163D

 50 51  0  0  0  0  0  0  0  0999 V2000
    1.1216   -0.1445   -0.1620 C   0  0  0  0  0  0  0  0  0  0  0  0
    0.9559   -0.2575    2.3700 N   0  0  0  0  0  0  0  0  0  0  0  0
    0.3723   -0.7494    1.1005 C   0  0  1  0  0  0  0  0  0  0  0  0
   -1.2533   -0.7270    1.3045 C   0  0  0  0  0  0  0  0  0  0  0  0
   -1.8546   -1.8100    1.2151 O   0  0  0  0  0  0  0  0  0  0  0  0
   -1.9721    0.4459    1.6253 N   0  0  0  0  0  0  0  0  0  0  0  0
   -1.7784    1.8009    1.1781 C   0  0  0  0  0  0  0  0  0  0  0  0
   -2.3769    2.7583    2.1163 C   0  0  0  0  0  0  0  0  0  0  0  0
   -3.6231    1.9735    2.4487 C   0  0  0  0  0  0  0  0  0  0  0  0
   -3.2773    0.4408    2.2636 C   0  0  1  0  0  0  0  0  0  0  0  0
   -4.4232   -0.2563    1.4988 C   0  0  0  0  0  0  0  0  0  0  0  0
   -4.5382   -0.1180    0.1343 N   0  0  0  0  0  0  0  0  0  0  0  0
   -5.6928   -0.6565   -0.5720 C   0  0  0  0  0  0  0  0  0  0  0  0
   -6.4524    0.4185   -1.3117 C   0  0  0  0  0  0  0  0  0  0  0  0
   -6.9412    1.5349   -0.6145 C   0  0  0  0  0  0  0  0  0  0  0  0
   -7.6605    2.5255   -1.2810 C   0  0  0  0  0  0  0  0  0  0  0  0
   -7.9110    2.4179   -2.6466 C   0  0  0  0  0  0  0  0  0  0  0  0
   -7.4550    1.3003   -3.3461 C   0  0  0  0  0  0  0  0  0  0  0  0
   -6.7362    0.3016   -2.6811 C   0  0  0  0  0  0  0  0  0  0  0  0
   -5.3558   -0.7728    2.1660 O   0  0  0  0  0  0  0  0  0  0  0  0
    0.7826    1.3172   -0.4097 C   0  0  0  0  0  0  0  0  0  0  0  0
    1.4557    2.2749   -1.3555 C   0  0  0  0  0  0  0  0  0  0  0  0
   -0.6057    1.2724   -1.0247 C   0  0  0  0  0  0  0  0  0  0  0  0
   -8.2415    3.8894   -0.4079 Cl  0  0  0  0  0  0  0  0  0  0  0  0
    0.6314   -1.8236    1.0602 H   0  0  0  0  0  0  0  0  0  0  0  0
   -3.1409   -0.0499    3.2306 H   0  0  0  0  0  0  0  0  0  0  0  0
    0.8373   -0.7246   -1.0486 H   0  0  0  0  0  0  0  0  0  0  0  0
    2.2078   -0.2676   -0.0518 H   0  0  0  0  0  0  0  0  0  0  0  0
    0.6309   -0.8813    3.1150 H   0  0  0  0  0  0  0  0  0  0  0  0
    1.9678   -0.3716    2.3461 H   0  0  0  0  0  0  0  0  0  0  0  0
   -2.3952    1.9047    0.2657 H   0  0  0  0  0  0  0  0  0  0  0  0
   -0.7586    2.0976    1.1051 H   0  0  0  0  0  0  0  0  0  0  0  0
   -1.6619    2.9090    2.9278 H   0  0  0  0  0  0  0  0  0  0  0  0
   -2.5257    3.7120    1.5871 H   0  0  0  0  0  0  0  0  0  0  0  0
   -3.9268    2.2325    3.4606 H   0  0  0  0  0  0  0  0  0  0  0  0
   -4.4060    2.2887    1.7462 H   0  0  0  0  0  0  0  0  0  0  0  0
   -3.7568    0.2171   -0.4186 H   0  0  0  0  0  0  0  0  0  0  0  0
   -5.3397   -1.4321   -1.2609 H   0  0  0  0  0  0  0  0  0  0  0  0
   -6.3846   -1.1412    0.1263 H   0  0  0  0  0  0  0  0  0  0  0  0
   -6.7628    1.6216    0.4552 H   0  0  0  0  0  0  0  0  0  0  0  0
   -8.4645    3.1945   -3.1675 H   0  0  0  0  0  0  0  0  0  0  0  0
   -7.6632    1.2060   -4.4095 H   0  0  0  0  0  0  0  0  0  0  0  0
   -6.4066   -0.5711   -3.2421 H   0  0  0  0  0  0  0  0  0  0  0  0
    0.9119    1.7886    0.5777 H   0  0  0  0  0  0  0  0  0  0  0  0
    1.1676    2.0407   -2.3833 H   0  0  0  0  0  0  0  0  0  0  0  0
    1.0341    3.2761   -1.1404 H   0  0  0  0  0  0  0  0  0  0  0  0
    2.5318    2.3356   -1.2483 H   0  0  0  0  0  0  0  0  0  0  0  0
   -1.1484    0.5841   -0.4233 H   0  0  0  0  0  0  0  0  0  0  0  0
   -1.0356    2.2805   -1.0564 H   0  0  0  0  0  0  0  0  0  0  0  0
   -0.8032    0.7633   -1.9611 H   0  0  0  0  0  0  0  0  0  0  0  0
  1  3  1  0  0  0  0
  1 21  1  0  0  0  0
  1 27  1  0  0  0  0
  1 28  1  0  0  0  0
  2 29  1  0  0  0  0
  2 30  1  0  0  0  0
  3  2  1  0  0  0  0
  3  4  1  0  0  0  0
  3 25  1  6  0  0  0
  4  5  2  0  0  0  0
  4  6  1  0  0  0  0
  6  7  1  0  0  0  0
  6 10  1  0  0  0  0
  7  8  1  0  0  0  0
  7 31  1  0  0  0  0
  7 32  1  0  0  0  0
  8  9  1  0  0  0  0
  8 33  1  0  0  0  0
  8 34  1  0  0  0  0
  9 10  1  0  0  0  0
  9 35  1  0  0  0  0
  9 36  1  0  0  0  0
 10 26  1  1  0  0  0
 10 11  1  0  0  0  0
 11 12  1  0  0  0  0
 11 20  2  0  0  0  0
 12 13  1  0  0  0  0
 12 37  1  0  0  0  0
 13 14  1  0  0  0  0
 13 38  1  0  0  0  0
 13 39  1  0  0  0  0
 14 15  2  0  0  0  0
 14 19  1  0  0  0  0
 15 16  1  0  0  0  0
 15 40  1  0  0  0  0
 16 17  2  0  0  0  0
 16 24  1  0  0  0  0
 17 18  1  0  0  0  0
 17 41  1  0  0  0  0
 18 19  2  0  0  0  0
 18 42  1  0  0  0  0
 19 43  1  0  0  0  0
 21 22  1  0  0  0  0
 21 23  1  0  0  0  0
 21 44  1  0  0  0  0
 22 45  1  0  0  0  0
 22 46  1  0  0  0  0
 22 47  1  0  0  0  0
 23 48  1  0  0  0  0
 23 49  1  0  0  0  0
 23 50  1  0  0  0  0
M  END
>  <DRUGBANK_ID>
DB06911

>  <COMMON_NAME>
D-leucyl-N-(3-chlorobenzyl)-L-prolinamide

$$$$
