
 OpenBabel10282417143D

 21 21  0  0  1  0  0  0  0  0999 V2000
    1.1777   -2.1208   -1.1727 N   0  0  0  0  0  0  0  0  0  0  0  0
    0.5978   -0.7561   -1.1576 C   0  0  2  0  0  0  0  0  0  0  0  0
    1.1120    0.0607    0.0582 C   0  0  0  0  0  0  0  0  0  0  0  0
    1.6910   -0.6657    1.0466 O   0  0  0  0  0  0  0  0  0  0  0  0
    1.0107    1.2802    0.1545 O   0  0  0  0  0  0  0  0  0  0  0  0
   -0.9262   -0.7679   -1.2193 C   0  0  0  0  0  0  0  0  0  0  0  0
   -1.6473    0.4428   -1.2508 C   0  0  0  0  0  0  0  0  0  0  0  0
   -3.0478    0.4515   -1.2663 C   0  0  0  0  0  0  0  0  0  0  0  0
   -3.7372   -0.7550   -1.2719 C   0  0  0  0  0  0  0  0  0  0  0  0
   -5.0981   -0.8164   -1.2941 O   0  0  0  0  0  0  0  0  0  0  0  0
   -3.0523   -1.9594   -1.2609 C   0  0  0  0  0  0  0  0  0  0  0  0
   -1.6595   -1.9660   -1.2461 C   0  0  0  0  0  0  0  0  0  0  0  0
    0.8180   -2.6924   -0.4167 H   0  0  0  0  0  0  0  0  0  0  0  0
    2.1926   -2.0989   -1.1948 H   0  0  0  0  0  0  0  0  0  0  0  0
    0.9746   -0.2575   -2.0608 H   0  0  0  0  0  0  0  0  0  0  0  0
    1.7103   -1.6207    0.8631 H   0  0  0  0  0  0  0  0  0  0  0  0
   -1.1232    1.3993   -1.2466 H   0  0  0  0  0  0  0  0  0  0  0  0
   -3.5713    1.4028   -1.2647 H   0  0  0  0  0  0  0  0  0  0  0  0
   -5.4531    0.0856   -1.3337 H   0  0  0  0  0  0  0  0  0  0  0  0
   -3.5974   -2.8980   -1.2648 H   0  0  0  0  0  0  0  0  0  0  0  0
   -1.1637   -2.9320   -1.2615 H   0  0  0  0  0  0  0  0  0  0  0  0
  1 13  1  0  0  0  0
  1 14  1  0  0  0  0
  2  6  1  0  0  0  0
  2 15  1  6  0  0  0
  2  3  1  0  0  0  0
  2  1  1  0  0  0  0
  3  4  1  0  0  0  0
  3  5  2  0  0  0  0
  4 16  1  0  0  0  0
  6  7  2  0  0  0  0
  6 12  1  0  0  0  0
  7  8  1  0  0  0  0
  7 17  1  0  0  0  0
  8  9  2  0  0  0  0
  8 18  1  0  0  0  0
  9 10  1  0  0  0  0
  9 11  1  0  0  0  0
 10 19  1  0  0  0  0
 11 12  2  0  0  0  0
 11 20  1  0  0  0  0
 12 21  1  0  0  0  0
M  END
>  <DRUGBANK_ID>
DB04291

>  <SECONDARY_ACCESSION_NUMBERS>
EXPT01097

>  <COMMON_NAME>
Oxfenicine

>  <CAS_NUMBER>
32462-30-9

>  <UNII>
9YH0WH2Z02

>  <SYNONYMS>
(2S)-Amino(4-Hydroxyphenyl)Acetic Acid; (S)-(4-hydroxyphenyl)glycine; L-2-(p-hydroxyphenyl)glycine; L-4-hydroxyphenylglycine; Oxfenicine

$$$$
