1694
 OpenBabel10282417143D

 14 15  0  0  0  0  0  0  0  0999 V2000
    1.0144    0.1091   -0.0593 Br  0  0  0  0  0  0  0  0  0  0  0  0
    7.7668   -0.0939   -0.0878 Br  0  0  0  0  0  0  0  0  0  0  0  0
    2.6294   -2.8909   -0.0471 Br  0  0  0  0  0  0  0  0  0  0  0  0
    5.9754   -2.9916   -0.0852 Br  0  0  0  0  0  0  0  0  0  0  0  0
    3.3219    2.4439   -0.0658 N   0  0  0  0  0  0  0  0  0  0  0  0
    5.6147    2.3688   -0.0749 N   0  0  0  0  0  0  0  0  0  0  0  0
    4.4915    3.0867   -0.0699 N   0  0  0  0  0  0  0  0  0  0  0  0
    3.6926    1.1489   -0.0671 C   0  0  0  0  0  0  0  0  0  0  0  0
    5.1588    1.1013   -0.0737 C   0  0  0  0  0  0  0  0  0  0  0  0
    2.9048   -0.0250   -0.0632 C   0  0  0  0  0  0  0  0  0  0  0  0
    5.8720   -0.1172   -0.0780 C   0  0  0  0  0  0  0  0  0  0  0  0
    3.6322   -1.2447   -0.0641 C   0  0  0  0  0  0  0  0  0  0  0  0
    5.0720   -1.2894   -0.0738 C   0  0  0  0  0  0  0  0  0  0  0  0
    4.5275    4.1045   -0.0691 H   0  0  0  0  0  0  0  0  0  0  0  0
  1 10  1  0  0  0  0
  2 11  1  0  0  0  0
  3 12  1  0  0  0  0
  4 13  1  0  0  0  0
  5  7  1  0  0  0  0
  5  8  2  0  0  0  0
  6  7  1  0  0  0  0
  6  9  2  0  0  0  0
  7 14  1  0  0  0  0
  8  9  1  0  0  0  0
  8 10  1  0  0  0  0
  9 11  1  0  0  0  0
 10 12  2  0  0  0  0
 11 13  2  0  0  0  0
 12 13  1  0  0  0  0
M  END
>  <DRUGBANK_ID>
DB04462

>  <SECONDARY_ACCESSION_NUMBERS>
EXPT03020

>  <COMMON_NAME>
Tetrabromo-2-Benzotriazole

$$$$
