
 OpenBabel10282417103D

 30 31  0  0  0  0  0  0  0  0999 V2000
    1.4479   -0.0315   -0.0023 C   0  0  0  0  0  0  0  0  0  0  0  0
    2.8248   -0.0524    0.0121 N   0  0  0  0  0  0  0  0  0  0  0  0
    0.7740    1.1862    0.0422 C   0  0  0  0  0  0  0  0  0  0  0  0
    0.7545   -1.1943   -0.0635 N   0  0  0  0  0  0  0  0  0  0  0  0
    3.5899   -0.7113   -1.0394 C   0  0  0  0  0  0  0  0  0  0  0  0
    3.6101    0.5623    1.0774 C   0  0  0  0  0  0  0  0  0  0  0  0
   -0.6143    1.2259    0.0146 C   0  0  0  0  0  0  0  0  0  0  0  0
   -0.6118   -1.1858   -0.0403 C   0  0  0  0  0  0  0  0  0  0  0  0
    4.4850   -1.7961   -0.4400 C   0  0  0  0  0  0  0  0  0  0  0  0
    4.4931   -0.5070    1.7347 C   0  0  0  0  0  0  0  0  0  0  0  0
   -1.3299    0.0234   -0.0089 N   0  3  0  0  0  0  0  0  0  0  0  0
   -1.3110    2.4387    0.1108 N   0  0  0  0  0  0  0  0  0  0  0  0
   -1.3191   -2.3797   -0.0531 N   0  0  0  0  0  0  0  0  0  0  0  0
    5.3442   -1.2581    0.7075 C   0  0  0  0  0  0  0  0  0  0  0  0
   -2.6263    0.0355    0.0025 O   0  5  0  0  0  0  0  0  0  0  0  0
    1.3391    2.1118    0.0503 H   0  0  0  0  0  0  0  0  0  0  0  0
    4.2327    0.0452   -1.5122 H   0  0  0  0  0  0  0  0  0  0  0  0
    2.9574   -1.1200   -1.8341 H   0  0  0  0  0  0  0  0  0  0  0  0
    2.9849    1.0408    1.8390 H   0  0  0  0  0  0  0  0  0  0  0  0
    4.2501    1.3419    0.6449 H   0  0  0  0  0  0  0  0  0  0  0  0
    5.1378   -2.2106   -1.2173 H   0  0  0  0  0  0  0  0  0  0  0  0
    3.8617   -2.6164   -0.0665 H   0  0  0  0  0  0  0  0  0  0  0  0
    3.8594   -1.2300    2.2629 H   0  0  0  0  0  0  0  0  0  0  0  0
    5.1476   -0.0445    2.4825 H   0  0  0  0  0  0  0  0  0  0  0  0
   -2.3215    2.3416    0.0067 H   0  0  0  0  0  0  0  0  0  0  0  0
   -0.8714    3.3299   -0.0596 H   0  0  0  0  0  0  0  0  0  0  0  0
   -2.3282   -2.2892    0.0088 H   0  0  0  0  0  0  0  0  0  0  0  0
   -0.8351   -3.2586    0.0001 H   0  0  0  0  0  0  0  0  0  0  0  0
    5.8694   -2.0886    1.1954 H   0  0  0  0  0  0  0  0  0  0  0  0
    6.1180   -0.5888    0.3104 H   0  0  0  0  0  0  0  0  0  0  0  0
  1  2  1  0  0  0  0
  1  3  1  0  0  0  0
  1  4  2  0  0  0  0
  2  5  1  0  0  0  0
  2  6  1  0  0  0  0
  3  7  2  0  0  0  0
  3 16  1  0  0  0  0
  4  8  1  0  0  0  0
  5  9  1  0  0  0  0
  5 17  1  0  0  0  0
  5 18  1  0  0  0  0
  6 10  1  0  0  0  0
  6 19  1  0  0  0  0
  6 20  1  0  0  0  0
  7 11  1  0  0  0  0
  7 12  1  0  0  0  0
  8 13  1  0  0  0  0
  8 11  2  0  0  0  0
  9 14  1  0  0  0  0
  9 21  1  0  0  0  0
  9 22  1  0  0  0  0
 10 14  1  0  0  0  0
 10 23  1  0  0  0  0
 10 24  1  0  0  0  0
 11 15  1  0  0  0  0
 12 25  1  0  0  0  0
 12 26  1  0  0  0  0
 13 27  1  0  0  0  0
 13 28  1  0  0  0  0
 14 29  1  0  0  0  0
 14 30  1  0  0  0  0
M  CHG  2  11   1  15  -1
M  END
>  <DRUGBANK_ID>
DB00350

>  <SECONDARY_ACCESSION_NUMBERS>
APRD00086; DB08225

>  <COMMON_NAME>
Minoxidil

>  <CAS_NUMBER>
38304-91-5

>  <UNII>
5965120SH1

>  <SYNONYMS>
2,4-Diamino-6-piperidinopyrimidine 3-oxide; 6-Piperidin-1-ylpyrimidine-2,4-diamine 3-oxide; Minossidile; Minoxidil; Minoxidilum

$$$$
