
 OpenBabel10282417103D

 37 41  0  0  0  0  0  0  0  0999 V2000
    4.7938   -2.6116   -0.2075 O   0  0  0  0  0  0  0  0  0  0  0  0
    3.6600   -1.8694   -0.0589 C   0  0  0  0  0  0  0  0  0  0  0  0
    2.5365    0.2128    0.3558 C   0  0  0  0  0  0  0  0  0  0  0  0
    3.7213   -0.5126    0.2276 C   0  0  0  0  0  0  0  0  0  0  0  0
   -0.0078    0.3809    0.2926 C   0  0  0  0  0  0  0  0  0  0  0  0
    1.2814   -0.4081    0.1936 C   0  0  0  0  0  0  0  0  0  0  0  0
   -1.2454   -0.4814    0.1347 C   0  0  0  0  0  0  0  0  0  0  0  0
    1.2468   -1.7793   -0.0746 C   0  0  0  0  0  0  0  0  0  0  0  0
   -1.1187   -1.8536   -0.1004 C   0  0  0  0  0  0  0  0  0  0  0  0
   -2.5427    0.0636    0.2313 C   0  0  0  0  0  0  0  0  0  0  0  0
    2.4342   -2.5087   -0.2026 C   0  0  0  0  0  0  0  0  0  0  0  0
    0.0871   -2.4975   -0.2297 O   0  0  0  0  0  0  0  0  0  0  0  0
   -2.2541   -2.6634   -0.2227 C   0  0  0  0  0  0  0  0  0  0  0  0
   -3.6757   -0.7413    0.1042 C   0  0  0  0  0  0  0  0  0  0  0  0
   -3.5213   -2.1029   -0.1146 C   0  0  0  0  0  0  0  0  0  0  0  0
   -4.6025   -2.9256   -0.2275 O   0  0  0  0  0  0  0  0  0  0  0  0
   -0.1420    2.3403    1.5780 C   0  0  0  0  0  0  0  0  0  0  0  0
   -0.0609    0.9793    1.6195 O   0  0  0  0  0  0  0  0  0  0  0  0
   -0.1220    2.7268    0.1739 C   0  0  0  0  0  0  0  0  0  0  0  0
   -0.0189    1.5858   -0.5993 C   0  0  0  0  0  0  0  0  0  0  0  0
    0.0582    1.6820   -1.9811 C   0  0  0  0  0  0  0  0  0  0  0  0
    0.0074    2.9526   -2.5620 C   0  0  0  0  0  0  0  0  0  0  0  0
   -0.1824    3.9973   -0.3747 C   0  0  0  0  0  0  0  0  0  0  0  0
   -0.2078    3.0911    2.5313 O   0  0  0  0  0  0  0  0  0  0  0  0
   -0.1216    4.1031   -1.7652 C   0  0  0  0  0  0  0  0  0  0  0  0
    5.5655   -2.0326   -0.0909 H   0  0  0  0  0  0  0  0  0  0  0  0
    2.5989    1.2754    0.5811 H   0  0  0  0  0  0  0  0  0  0  0  0
    4.6707   -0.0025    0.3562 H   0  0  0  0  0  0  0  0  0  0  0  0
   -2.6830    1.1272    0.4120 H   0  0  0  0  0  0  0  0  0  0  0  0
    2.4024   -3.5744   -0.4127 H   0  0  0  0  0  0  0  0  0  0  0  0
   -2.1486   -3.7310   -0.3963 H   0  0  0  0  0  0  0  0  0  0  0  0
   -4.6590   -0.2889    0.1848 H   0  0  0  0  0  0  0  0  0  0  0  0
   -5.4105   -2.3994   -0.1052 H   0  0  0  0  0  0  0  0  0  0  0  0
    0.1593    0.7944   -2.5998 H   0  0  0  0  0  0  0  0  0  0  0  0
    0.0674    3.0528   -3.6441 H   0  0  0  0  0  0  0  0  0  0  0  0
   -0.2728    4.8794    0.2523 H   0  0  0  0  0  0  0  0  0  0  0  0
   -0.1700    5.0818   -2.2387 H   0  0  0  0  0  0  0  0  0  0  0  0
  1 26  1  0  0  0  0
  2  1  1  0  0  0  0
  3  4  1  0  0  0  0
  3 27  1  0  0  0  0
  4  2  2  0  0  0  0
  4 28  1  0  0  0  0
  5 20  1  0  0  0  0
  5  6  1  0  0  0  0
  5  7  1  0  0  0  0
  6  3  2  0  0  0  0
  6  8  1  0  0  0  0
  7  9  1  0  0  0  0
  7 10  2  0  0  0  0
  8 11  2  0  0  0  0
  8 12  1  0  0  0  0
  9 12  1  0  0  0  0
  9 13  2  0  0  0  0
 10 14  1  0  0  0  0
 10 29  1  0  0  0  0
 11  2  1  0  0  0  0
 11 30  1  0  0  0  0
 13 15  1  0  0  0  0
 13 31  1  0  0  0  0
 14 15  2  0  0  0  0
 14 32  1  0  0  0  0
 15 16  1  0  0  0  0
 16 33  1  0  0  0  0
 17 18  1  0  0  0  0
 17 24  2  0  0  0  0
 18  5  1  0  0  0  0
 19 17  1  0  0  0  0
 19 20  2  0  0  0  0
 20 21  1  0  0  0  0
 21 22  2  0  0  0  0
 21 34  1  0  0  0  0
 22 25  1  0  0  0  0
 22 35  1  0  0  0  0
 23 19  1  0  0  0  0
 23 36  1  0  0  0  0
 25 23  2  0  0  0  0
 25 37  1  0  0  0  0
M  END
>  <DRUGBANK_ID>
DB00693

>  <SECONDARY_ACCESSION_NUMBERS>
APRD00979; EXPT01447; DB07777

>  <COMMON_NAME>
Fluorescein

>  <CAS_NUMBER>
2321-07-5

>  <UNII>
TPY09G7XIR

>  <SYNONYMS>
3,6-fluorandiol; 3',6'-dihydroxyfluoran; 9-(o-carboxyphenyl)-6-hydroxy-3-isoxanthenone; 9-(o-carboxyphenyl)-6-hydroxy-3H-xanthen-3-one; C.I. Solvent Yellow 94; D and C Yellow No. 7; D&C Yellow No. 7; Fluorescein; Fluoresceina; Fluoresce√≠na; Fluoresceine; Fluoreszein; Japan Yellow 201; Resorcinolphthalein; Solvent Yellow 94; Yellow fluorescein

$$$$
