
 OpenBabel10282417143D

 19 18  0  0  0  0  0  0  0  0999 V2000
    1.0100    0.1937   -0.0335 O   0  0  0  0  0  0  0  0  0  0  0  0
    0.4266    1.2230   -0.6985 C   0  0  0  0  0  0  0  0  0  0  0  0
    1.1106    2.0677   -1.2560 O   0  0  0  0  0  0  0  0  0  0  0  0
   -1.1039    1.1297   -0.7479 C   0  0  0  0  0  0  0  0  0  0  0  0
   -1.6020   -0.1748   -1.3660 N   0  3  0  0  0  0  0  0  0  0  0  0
   -1.2068   -1.4153   -0.5373 C   0  0  0  0  0  0  0  0  0  0  0  0
   -1.8168   -1.3974    1.1879 P   0  0  0  0  0  0  0  0  0  0  0  0
   -1.0092   -2.8152    1.3226 O   0  0  0  0  0  0  0  0  0  0  0  0
   -0.6655   -0.3218    1.6123 O   0  0  0  0  0  0  0  0  0  0  0  0
   -2.3329   -1.3823    2.6477 O   0  0  0  0  0  0  0  0  0  0  0  0
    1.9928    0.2854   -0.0968 H   0  0  0  0  0  0  0  0  0  0  0  0
   -1.5616    1.2352    0.2413 H   0  0  0  0  0  0  0  0  0  0  0  0
   -1.5167    1.9338   -1.3610 H   0  0  0  0  0  0  0  0  0  0  0  0
   -2.6325   -0.1324   -1.3936 H   0  0  0  0  0  0  0  0  0  0  0  0
   -1.2869   -0.2588   -2.3400 H   0  0  0  0  0  0  0  0  0  0  0  0
   -1.6951   -2.2462   -1.0602 H   0  0  0  0  0  0  0  0  0  0  0  0
   -0.1353   -1.5788   -0.6631 H   0  0  0  0  0  0  0  0  0  0  0  0
   -1.5809   -3.5260    1.6875 H   0  0  0  0  0  0  0  0  0  0  0  0
    0.2265   -0.3237    1.2148 H   0  0  0  0  0  0  0  0  0  0  0  0
  1  2  1  0  0  0  0
  1 11  1  0  0  0  0
  2  3  2  0  0  0  0
  2  4  1  0  0  0  0
  4  5  1  0  0  0  0
  4 12  1  0  0  0  0
  4 13  1  0  0  0  0
  5  6  1  0  0  0  0
  5 14  1  0  0  0  0
  5 15  1  0  0  0  0
  6  7  1  0  0  0  0
  6 16  1  0  0  0  0
  6 17  1  0  0  0  0
  7  8  1  0  0  0  0
  7  9  1  0  0  0  0
  7 10  2  0  0  0  0
  8 18  1  0  0  0  0
  9 19  1  0  0  0  0
M  CHG  1   5   1
M  END
>  <DRUGBANK_ID>
DB04539

>  <SECONDARY_ACCESSION_NUMBERS>
EXPT01639

>  <COMMON_NAME>
Glyphosate

>  <CAS_NUMBER>
1071-83-6

>  <UNII>
4632WW1X5A

$$$$
