
 OpenBabel10282417223D

 55 59  0  0  1  0  0  0  0  0999 V2000
    0.9934    2.9977   -0.3737 C   0  0  0  0  0  0  0  0  0  0  0  0
   -0.4632    2.1230   -0.3328 O   0  0  0  0  0  0  0  0  0  0  0  0
   -0.7580    0.8145    0.5408 C   0  0  0  0  0  0  0  0  0  0  0  0
    0.3466    0.8368    1.4564 C   0  0  0  0  0  0  0  0  0  0  0  0
    0.0518    2.3047    1.7664 C   0  0  1  0  0  0  0  0  0  0  0  0
   -1.0742    3.4213    2.1756 C   0  0  0  0  0  0  0  0  0  0  0  0
   -0.7970    4.0713    3.9385 C   0  0  1  0  0  0  0  0  0  0  0  0
   -0.8016    2.8743    4.7584 C   0  0  0  0  0  0  0  0  0  0  0  0
   -0.7888    2.0895    3.5399 N   0  0  2  0  0  0  0  0  0  0  0  0
   -2.5562    2.1271    2.7867 C   0  0  0  0  0  0  0  0  0  0  0  0
   -3.5644    3.6956    2.2465 C   0  0  0  0  0  0  0  0  0  0  0  0
   -2.8371    5.4000    2.1209 C   0  0  0  0  0  0  0  0  0  0  0  0
   -1.5159    5.8742    1.8272 C   0  0  0  0  0  0  0  0  0  0  0  0
   -1.2664    7.2154    2.0272 N   0  0  0  0  0  0  0  0  0  0  0  0
   -2.2712    7.5731    2.8842 C   0  0  0  0  0  0  0  0  0  0  0  0
   -3.2451    6.5321    2.8666 C   0  0  0  0  0  0  0  0  0  0  0  0
   -4.2378    6.5241    3.8122 C   0  0  0  0  0  0  0  0  0  0  0  0
   -4.3244    7.6217    4.6319 C   0  0  0  0  0  0  0  0  0  0  0  0
   -3.3293    8.6066    4.6656 C   0  0  0  0  0  0  0  0  0  0  0  0
   -2.2016    8.5476    3.8679 C   0  0  0  0  0  0  0  0  0  0  0  0
   -0.1794    5.0833    1.7489 C   0  0  2  0  0  0  0  0  0  0  0  0
   -0.5876    5.4295    3.6013 C   0  0  0  0  0  0  0  0  0  0  0  0
    0.3806    3.3344    2.5838 C   0  0  2  0  0  0  0  0  0  0  0  0
   -1.1729    4.7869   -0.0348 C   0  0  0  0  0  0  0  0  0  0  0  0
   -2.3376    4.9357   -0.2307 O   0  0  0  0  0  0  0  0  0  0  0  0
   -0.5618    4.3902   -1.2171 O   0  0  0  0  0  0  0  0  0  0  0  0
   -1.0991    3.3864   -2.3412 C   0  0  0  0  0  0  0  0  0  0  0  0
    1.1591    3.8391   -1.0812 H   0  0  0  0  0  0  0  0  0  0  0  0
    1.8508    2.3599   -0.4236 H   0  0  0  0  0  0  0  0  0  0  0  0
    1.0650    3.7469    0.4519 H   0  0  0  0  0  0  0  0  0  0  0  0
   -1.3006    0.8026    1.5138 H   0  0  0  0  0  0  0  0  0  0  0  0
   -1.7014    0.2898    0.2908 H   0  0  0  0  0  0  0  0  0  0  0  0
    0.5400    0.1314    2.2715 H   0  0  0  0  0  0  0  0  0  0  0  0
    1.0895    0.5733    0.6846 H   0  0  0  0  0  0  0  0  0  0  0  0
    1.0467    2.4602    1.4483 H   0  0  0  0  0  0  0  0  0  0  0  0
   -1.8976    3.7125    2.9130 H   0  0  0  0  0  0  0  0  0  0  0  0
   -1.7507    3.5828    1.3621 H   0  0  0  0  0  0  0  0  0  0  0  0
    0.2483    4.2713    4.2273 H   0  0  0  0  0  0  0  0  0  0  0  0
   -1.6317    2.5998    5.3803 H   0  0  0  0  0  0  0  0  0  0  0  0
    0.1744    2.8230    5.2579 H   0  0  0  0  0  0  0  0  0  0  0  0
   -2.4769    1.8649    1.7038 H   0  0  0  0  0  0  0  0  0  0  0  0
   -3.0989    1.2521    3.1320 H   0  0  0  0  0  0  0  0  0  0  0  0
   -4.3151    3.7488    3.0176 H   0  0  0  0  0  0  0  0  0  0  0  0
   -3.9680    3.5038    1.2228 H   0  0  0  0  0  0  0  0  0  0  0  0
   -0.3020    7.5014    2.2203 H   0  0  0  0  0  0  0  0  0  0  0  0
   -4.8619    5.6461    3.8856 H   0  0  0  0  0  0  0  0  0  0  0  0
   -5.1988    7.6759    5.2550 H   0  0  0  0  0  0  0  0  0  0  0  0
   -3.4370    9.4470    5.3331 H   0  0  0  0  0  0  0  0  0  0  0  0
   -1.3188    9.1698    4.0229 H   0  0  0  0  0  0  0  0  0  0  0  0
   -0.5455    6.4253    4.0802 H   0  0  0  0  0  0  0  0  0  0  0  0
   -1.5366    5.3924    4.2419 H   0  0  0  0  0  0  0  0  0  0  0  0
    1.4404    3.3234    2.9489 H   0  0  0  0  0  0  0  0  0  0  0  0
   -1.9014    2.6749   -2.0571 H   0  0  0  0  0  0  0  0  0  0  0  0
   -1.3640    3.9677   -3.2195 H   0  0  0  0  0  0  0  0  0  0  0  0
   -0.2534    2.7304   -2.6748 H   0  0  0  0  0  0  0  0  0  0  0  0
  1  2  1  0  0  0  0
  1 28  1  0  0  0  0
  1 29  1  0  0  0  0
  1 30  1  0  0  0  0
  2  3  1  0  0  0  0
  3  4  1  0  0  0  0
  3 31  1  0  0  0  0
  3 32  1  0  0  0  0
  4 33  1  0  0  0  0
  4 34  1  0  0  0  0
  5  6  1  0  0  0  0
  5 35  1  6  0  0  0
  5  4  1  0  0  0  0
  6 36  1  0  0  0  0
  6 37  1  0  0  0  0
  7  6  1  0  0  0  0
  7  8  1  0  0  0  0
  7 22  1  0  0  0  0
  7 38  1  1  0  0  0
  8 39  1  0  0  0  0
  8 40  1  0  0  0  0
  9  8  1  6  0  0  0
  9 10  1  0  0  0  0
 10 11  1  0  0  0  0
 10 41  1  0  0  0  0
 10 42  1  0  0  0  0
 11 12  1  0  0  0  0
 11 43  1  0  0  0  0
 11 44  1  0  0  0  0
 12 13  2  0  0  0  0
 12 16  1  0  0  0  0
 13 14  1  0  0  0  0
 14 15  1  0  0  0  0
 14 45  1  0  0  0  0
 15 16  2  0  0  0  0
 15 20  1  0  0  0  0
 16 17  1  0  0  0  0
 17 18  2  0  0  0  0
 17 46  1  0  0  0  0
 18 19  1  0  0  0  0
 18 47  1  0  0  0  0
 19 20  2  0  0  0  0
 19 48  1  0  0  0  0
 20 49  1  0  0  0  0
 21 13  1  0  0  0  0
 21 22  1  0  0  0  0
 21 24  1  1  0  0  0
 22 50  1  0  0  0  0
 22 51  1  0  0  0  0
 23 21  1  0  0  0  0
 23  5  1  0  0  0  0
 23  9  1  0  0  0  0
 23 52  1  1  0  0  0
 24 25  2  0  0  0  0
 24 26  1  0  0  0  0
 26 27  1  0  0  0  0
 27 53  1  0  0  0  0
 27 54  1  0  0  0  0
 27 55  1  0  0  0  0
M  END
>  <DRUGBANK_ID>
DB15096

>  <COMMON_NAME>
18-methoxycoronaridine

>  <CAS_NUMBER>
308123-60-6

>  <UNII>
KX8NQX91Z8

$$$$
