
 OpenBabel10282417183D

 18 12  0  0  0  0  0  0  0  0999 V2000
    0.9955    0.0690   -0.0723 C   0  0  0  0  0  0  0  0  0  0  0  0
    0.4888    0.8206    1.1479 C   0  0  0  0  0  0  0  0  0  0  0  0
    0.5055    0.7275   -1.2917 N   0  0  0  0  0  0  0  0  0  0  0  0
   -0.2419    1.8501    1.0019 O   0  0  0  0  0  0  0  0  0  0  0  0
    0.8318    0.3724    2.4509 O   0  5  0  0  0  0  0  0  0  0  0  0
    1.0485    0.0874    0.0032 Al  0  1  0  0  0  0  0  0  0  0  0  0
    1.0113   -0.0700   -0.0705 Cl  0  5  0  0  0  0  0  0  0  0  0  0
    0.9349   -0.0645   -0.0400 O   0  0  0  0  0  0  0  0  0  0  0  0
    1.0723    0.0186    0.0665 O   0  0  0  0  0  0  0  0  0  0  0  0
    1.0861    0.0298   -0.0412 Zr  0  0  0  0  0  0  0  0  0  0  0  0
    0.6388   -0.9394   -0.0435 H   0  0  0  0  0  0  0  0  0  0  0  0
    2.0655    0.0690   -0.0723 H   0  0  0  0  0  0  0  0  0  0  0  0
   -0.5145    0.7275   -1.2917 H   0  0  0  0  0  0  0  0  0  0  0  0
    0.8455    1.6888   -1.3191 H   0  0  0  0  0  0  0  0  0  0  0  0
    0.6015    0.5361   -0.7667 H   0  0  0  0  0  0  0  0  0  0  0  0
    1.9349   -0.0645   -0.0400 H   0  0  0  0  0  0  0  0  0  0  0  0
    0.7389    0.6408    0.7749 H   0  0  0  0  0  0  0  0  0  0  0  0
    2.0723    0.0186    0.0665 H   0  0  0  0  0  0  0  0  0  0  0  0
  1 11  1  0  0  0  0
  1 12  1  0  0  0  0
  2  1  1  0  0  0  0
  3  1  1  0  0  0  0
  3 13  1  0  0  0  0
  3 14  1  0  0  0  0
  4  2  2  0  0  0  0
  5  2  1  0  0  0  0
  8 15  1  0  0  0  0
  8 16  1  0  0  0  0
  9 17  1  0  0  0  0
  9 18  1  0  0  0  0
M  CHG  4   5  -1   6   3   7  -1  10   4
M  END
>  <DRUGBANK_ID>
DB11200

>  <COMMON_NAME>
Aluminum zirconium octachlorohydrex gly

>  <CAS_NUMBER>
174514-58-0

>  <UNII>
P9D3YP29MY

>  <SYNONYMS>
Aluminium zirconium octachlorohydrex gly; Aluminium zirconium octachlorohydrex glycine complex; Aluminum zirconium octachlorohydrex gly; Aluminum zirconium octachlorohydrex glycine complex

$$$$
