
 OpenBabel10282417233D

 91 96  0  0  1  0  0  0  0  0999 V2000
    2.9777    5.6429   -8.4317 C   0  0  0  0  0  0  0  0  0  0  0  0
    2.8858    5.8408   -7.0366 N   0  0  0  0  0  0  0  0  0  0  0  0
    3.5664    6.8030   -6.3621 C   0  0  0  0  0  0  0  0  0  0  0  0
    3.9877    7.9443   -6.9224 N   0  0  0  0  0  0  0  0  0  0  0  0
    4.6527    8.7844   -6.1149 C   0  0  0  0  0  0  0  0  0  0  0  0
    5.0953   10.0405   -6.5755 N   0  0  0  0  0  0  0  0  0  0  0  0
    5.9827   11.0870   -5.9135 C   0  0  3  0  0  0  0  0  0  0  0  0
    7.5123   10.6988   -5.9057 C   0  0  0  0  0  0  0  0  0  0  0  0
    7.9327    9.8973   -4.7536 C   0  0  0  0  0  0  0  0  0  0  0  0
    6.8716   10.5165   -3.3453 N   0  0  0  0  0  0  0  0  0  0  0  0
    6.4492    9.4283   -2.4123 C   0  0  0  0  0  0  0  0  0  0  0  0
    5.6190    7.8057   -2.8101 C   0  0  0  0  0  0  0  0  0  0  0  0
    6.4399    6.5784   -4.3208 C   0  0  0  0  0  0  0  0  0  0  0  0
    5.7087    5.1956   -4.6829 C   0  0  0  0  0  0  0  0  0  0  0  0
    4.2608    5.0357   -3.6526 C   0  0  0  0  0  0  0  0  0  0  0  0
    3.1173    4.3430   -3.8624 N   0  0  0  0  0  0  0  0  0  0  0  0
    3.2995    3.3730   -4.9300 C   0  0  0  0  0  0  0  0  0  0  0  0
    3.5653    1.9537   -4.4339 C   0  0  2  0  0  0  0  0  0  0  0  0
    2.1979    1.5275   -3.9693 C   0  0  0  0  0  0  0  0  0  0  0  0
    4.6957    1.7577   -3.4786 N   0  0  0  0  0  0  0  0  0  0  0  0
    4.6244    0.4401   -2.8535 C   0  0  0  0  0  0  0  0  0  0  0  0
    3.5652    0.2448   -1.7560 C   0  0  0  0  0  0  0  0  0  0  0  0
    3.6146    1.3744   -0.7551 N   0  0  0  0  0  0  0  0  0  0  0  0
    3.6123    2.6694   -1.3736 C   0  0  0  0  0  0  0  0  0  0  0  0
    4.7007    2.7134   -2.3896 C   0  0  0  0  0  0  0  0  0  0  0  0
    4.8446    1.3580    0.3870 S   0  0  0  0  0  0  0  0  0  0  0  0
    6.4392    1.5418   -0.4851 C   0  0  0  0  0  0  0  0  0  0  0  0
    4.6674    2.5479    1.1978 O   0  0  0  0  0  0  0  0  0  0  0  0
    4.7840    0.0338    0.9538 O   0  0  0  0  0  0  0  0  0  0  0  0
    2.2033    4.5993   -2.8361 C   0  0  0  0  0  0  0  0  0  0  0  0
    2.7144    5.4057   -1.8373 C   0  0  0  0  0  0  0  0  0  0  0  0
    3.7459    6.0652   -2.3924 C   0  0  0  0  0  0  0  0  0  0  0  0
    4.4505    7.4178   -1.8946 C   0  0  0  0  0  0  0  0  0  0  0  0
    4.4553    7.8971   -0.4827 C   0  0  0  0  0  0  0  0  0  0  0  0
    1.0520    3.8321   -2.5064 C   0  0  0  0  0  0  0  0  0  0  0  0
    0.3472    2.9993   -2.1123 N   0  0  0  0  0  0  0  0  0  0  0  0
    5.4131   10.8278   -3.4235 C   0  0  0  0  0  0  0  0  0  0  0  0
    5.3852   11.6912   -4.5919 C   0  0  0  0  0  0  0  0  0  0  0  0
    5.1286    8.1719   -4.9136 C   0  0  0  0  0  0  0  0  0  0  0  0
    6.5306    8.4768   -4.3256 C   0  0  0  0  0  0  0  0  0  0  0  0
    7.5421    7.6320   -2.9891 C   0  0  0  0  0  0  0  0  0  0  0  0
    8.1050    8.3248   -1.3148 C   0  0  0  0  0  0  0  0  0  0  0  0
    9.4063    9.0341   -1.7833 C   0  0  0  0  0  0  0  0  0  0  0  0
    9.2935   10.0827   -2.6551 F   0  0  0  0  0  0  0  0  0  0  0  0
   10.1127    9.5664   -0.7797 F   0  0  0  0  0  0  0  0  0  0  0  0
   10.0834    8.0977   -2.4696 F   0  0  0  0  0  0  0  0  0  0  0  0
    6.1554    5.8536   -2.4788 S   0  0  0  0  0  0  0  0  0  0  0  0
    4.6158    6.9830   -4.2165 C   0  0  0  0  0  0  0  0  0  0  0  0
    3.6490    6.4366   -5.0858 N   0  0  0  0  0  0  0  0  0  0  0  0
    3.7810    6.2392   -8.8655 H   0  0  0  0  0  0  0  0  0  0  0  0
    2.0199    5.9185   -8.8666 H   0  0  0  0  0  0  0  0  0  0  0  0
    3.1842    4.5879   -8.6432 H   0  0  0  0  0  0  0  0  0  0  0  0
    2.3181    5.2770   -6.4279 H   0  0  0  0  0  0  0  0  0  0  0  0
    4.7073   10.3030   -7.4790 H   0  0  0  0  0  0  0  0  0  0  0  0
    5.9900   11.9493   -6.5769 H   0  0  0  0  0  0  0  0  0  0  0  0
    7.7519   10.1310   -6.8290 H   0  0  0  0  0  0  0  0  0  0  0  0
    8.1863   11.4932   -5.6659 H   0  0  0  0  0  0  0  0  0  0  0  0
    7.6778    8.9525   -5.5027 H   0  0  0  0  0  0  0  0  0  0  0  0
    8.7847    9.1941   -4.5008 H   0  0  0  0  0  0  0  0  0  0  0  0
    7.5077    9.4145   -2.5597 H   0  0  0  0  0  0  0  0  0  0  0  0
    6.0760    9.6267   -1.4361 H   0  0  0  0  0  0  0  0  0  0  0  0
    7.3206    6.8495   -4.9604 H   0  0  0  0  0  0  0  0  0  0  0  0
    5.7768    4.9300   -5.7400 H   0  0  0  0  0  0  0  0  0  0  0  0
    2.3954    3.4609   -5.5150 H   0  0  0  0  0  0  0  0  0  0  0  0
    4.1339    3.6439   -5.5996 H   0  0  0  0  0  0  0  0  0  0  0  0
    3.7959    1.3282   -5.3014 H   0  0  0  0  0  0  0  0  0  0  0  0
    2.1531    1.5027   -2.9135 H   0  0  0  0  0  0  0  0  0  0  0  0
    1.4483    2.2787   -4.1602 H   0  0  0  0  0  0  0  0  0  0  0  0
    1.8491    0.5646   -4.2974 H   0  0  0  0  0  0  0  0  0  0  0  0
    4.6337   -0.3282   -3.6143 H   0  0  0  0  0  0  0  0  0  0  0  0
    5.5566    0.2781   -2.3681 H   0  0  0  0  0  0  0  0  0  0  0  0
    2.6018    0.0463   -2.2304 H   0  0  0  0  0  0  0  0  0  0  0  0
    3.6472   -0.6908   -1.2286 H   0  0  0  0  0  0  0  0  0  0  0  0
    2.7284    2.7142   -1.9146 H   0  0  0  0  0  0  0  0  0  0  0  0
    3.5130    3.5110   -0.6816 H   0  0  0  0  0  0  0  0  0  0  0  0
    5.5833    2.9391   -1.8835 H   0  0  0  0  0  0  0  0  0  0  0  0
    4.9243    3.6078   -2.8173 H   0  0  0  0  0  0  0  0  0  0  0  0
    6.6818    2.5127   -0.8977 H   0  0  0  0  0  0  0  0  0  0  0  0
    7.2252    1.4703    0.2339 H   0  0  0  0  0  0  0  0  0  0  0  0
    6.6422    0.7712   -1.2081 H   0  0  0  0  0  0  0  0  0  0  0  0
    2.4252    5.5984   -0.8143 H   0  0  0  0  0  0  0  0  0  0  0  0
    3.4862    8.3534   -0.3958 H   0  0  0  0  0  0  0  0  0  0  0  0
    4.6916    7.0880    0.2244 H   0  0  0  0  0  0  0  0  0  0  0  0
    5.2163    8.6392   -0.2512 H   0  0  0  0  0  0  0  0  0  0  0  0
    5.0823   11.1282   -2.3994 H   0  0  0  0  0  0  0  0  0  0  0  0
    4.6485   10.0251   -3.5617 H   0  0  0  0  0  0  0  0  0  0  0  0
    6.0134   12.5167   -4.2554 H   0  0  0  0  0  0  0  0  0  0  0  0
    4.3397   11.9576   -4.7005 H   0  0  0  0  0  0  0  0  0  0  0  0
    6.2149    9.4371   -4.6004 H   0  0  0  0  0  0  0  0  0  0  0  0
    7.6107    9.2538   -0.7399 H   0  0  0  0  0  0  0  0  0  0  0  0
    7.7444    7.5463   -0.6147 H   0  0  0  0  0  0  0  0  0  0  0  0
  1  2  1  0  0  0  0
  1 50  1  0  0  0  0
  1 51  1  0  0  0  0
  1 52  1  0  0  0  0
  2  3  1  0  0  0  0
  2 53  1  0  0  0  0
  3  4  2  0  0  0  0
  3 49  1  0  0  0  0
  4  5  1  0  0  0  0
  5  6  1  0  0  0  0
  5 39  2  0  0  0  0
  6  7  1  0  0  0  0
  6 54  1  0  0  0  0
  7  8  1  0  0  0  0
  7 38  1  0  0  0  0
  7 55  1  0  0  0  0
  8  9  1  0  0  0  0
  8 56  1  0  0  0  0
  8 57  1  0  0  0  0
  9 10  1  0  0  0  0
  9 58  1  0  0  0  0
  9 59  1  0  0  0  0
 10 11  1  0  0  0  0
 10 37  1  0  0  0  0
 11 12  1  0  0  0  0
 11 60  1  0  0  0  0
 11 61  1  0  0  0  0
 12 13  2  0  0  0  0
 12 33  1  0  0  0  0
 13 14  1  0  0  0  0
 13 62  1  0  0  0  0
 14 15  2  0  0  0  0
 14 63  1  0  0  0  0
 15 16  1  0  0  0  0
 15 32  1  0  0  0  0
 16 17  1  0  0  0  0
 16 30  1  0  0  0  0
 17 64  1  0  0  0  0
 17 65  1  0  0  0  0
 18 20  1  0  0  0  0
 18 66  1  6  0  0  0
 18 19  1  0  0  0  0
 18 17  1  0  0  0  0
 19 67  1  0  0  0  0
 19 68  1  0  0  0  0
 19 69  1  0  0  0  0
 20 21  1  0  0  0  0
 20 25  1  0  0  0  0
 21 22  1  0  0  0  0
 21 70  1  0  0  0  0
 21 71  1  0  0  0  0
 22 23  1  0  0  0  0
 22 72  1  0  0  0  0
 22 73  1  0  0  0  0
 23 24  1  0  0  0  0
 23 26  1  0  0  0  0
 24 25  1  0  0  0  0
 24 74  1  0  0  0  0
 24 75  1  0  0  0  0
 25 76  1  0  0  0  0
 25 77  1  0  0  0  0
 26 27  1  0  0  0  0
 26 28  2  0  0  0  0
 26 29  2  0  0  0  0
 27 78  1  0  0  0  0
 27 79  1  0  0  0  0
 27 80  1  0  0  0  0
 30 31  2  0  0  0  0
 30 35  1  0  0  0  0
 31 32  1  0  0  0  0
 31 81  1  0  0  0  0
 32 33  2  0  0  0  0
 33 34  1  0  0  0  0
 34 82  1  0  0  0  0
 34 83  1  0  0  0  0
 34 84  1  0  0  0  0
 35 36  3  0  0  0  0
 37 38  1  0  0  0  0
 37 85  1  0  0  0  0
 37 86  1  0  0  0  0
 38 87  1  0  0  0  0
 38 88  1  0  0  0  0
 39 40  1  0  0  0  0
 39 48  1  0  0  0  0
 40 41  2  0  0  0  0
 40 89  1  0  0  0  0
 41 42  1  0  0  0  0
 41 47  1  0  0  0  0
 42 43  1  0  0  0  0
 42 90  1  0  0  0  0
 42 91  1  0  0  0  0
 43 44  1  0  0  0  0
 43 45  1  0  0  0  0
 43 46  1  0  0  0  0
 47 48  1  0  0  0  0
 48 49  2  0  0  0  0
M  END
>  <DRUGBANK_ID>
DB17171

>  <COMMON_NAME>
Ziftomenib

>  <CAS_NUMBER>
2134675-36-6

>  <UNII>
4MOD1F4ENC

>  <SYNONYMS>
(s)-4-methyl-5-((4-((2-(methylamino)-6-(2,2,2-trifluoroethyl)thieno(2,3-d)pyrimidin-4-yl)amino)piperidin-1-yl)methyl)-1-(2-(4-(methylsulfonyl)piperazin-1-yl)propyl)-1h-indole-2-carbonitrile; 1h-indole-2-carbonitrile, 4-methyl-5-((4-((2-(methylamino)-6-(2,2,2-trifluoroethyl)thieno(2,3-d)pyrimidin-4-yl)amino)-1-piperidinyl)methyl)-1-((2s)-2-(4-(methylsulfonyl)-1-piperazinyl)propyl)-; Menin-mll interaction inhibitor ko 539

$$$$
