
 OpenBabel10282417173D

 61 65  0  0  0  0  0  0  0  0999 V2000
    0.0130    0.7008   -0.0073 C   0  0  0  0  0  0  0  0  0  0  0  0
    0.0836   -0.6895   -0.0823 C   0  0  0  0  0  0  0  0  0  0  0  0
   -1.1285   -1.4391   -0.0410 C   0  0  0  0  0  0  0  0  0  0  0  0
   -2.3418   -0.7537   -0.0053 C   0  0  0  0  0  0  0  0  0  0  0  0
   -2.3087    0.6253    0.0141 C   0  0  0  0  0  0  0  0  0  0  0  0
   -1.1678    1.3513    0.0273 N   0  0  0  0  0  0  0  0  0  0  0  0
    1.2211    1.4125    0.0036 C   0  0  0  0  0  0  0  0  0  0  0  0
    2.5224    0.8268    0.0023 C   0  0  0  0  0  0  0  0  0  0  0  0
    2.5968   -0.5581   -0.0597 C   0  0  0  0  0  0  0  0  0  0  0  0
    1.3781   -1.2223   -0.2096 C   0  0  0  0  0  0  0  0  0  0  0  0
    3.4638    1.8260    0.0320 O   0  0  0  0  0  0  0  0  0  0  0  0
    4.8221    1.4907   -0.0704 C   0  0  0  0  0  0  0  0  0  0  0  0
    3.5451   -1.5466   -0.0185 O   0  0  0  0  0  0  0  0  0  0  0  0
    4.9019   -1.2577    0.1100 C   0  0  0  0  0  0  0  0  0  0  0  0
   -1.2976   -2.8201   -0.0353 O   0  0  0  0  0  0  0  0  0  0  0  0
   -0.2285   -3.6733    0.0632 C   0  0  0  0  0  0  0  0  0  0  0  0
    0.6650   -3.6651    1.1397 C   0  0  0  0  0  0  0  0  0  0  0  0
    1.9161   -4.2911    0.9766 C   0  0  0  0  0  0  0  0  0  0  0  0
    2.1704   -5.0830   -0.1610 C   0  0  0  0  0  0  0  0  0  0  0  0
    1.1429   -5.3056   -1.0549 C   0  0  0  0  0  0  0  0  0  0  0  0
    0.0065   -4.5156   -1.0187 C   0  0  0  0  0  0  0  0  0  0  0  0
    3.4515   -5.6120   -0.4316 N   0  0  0  0  0  0  0  0  0  0  0  0
    3.7072   -6.7346   -1.2484 C   0  0  0  0  0  0  0  0  0  0  0  0
    4.9731   -7.4845   -0.8714 C   0  0  0  0  0  0  0  0  0  0  0  0
    2.9923   -7.1997   -2.1092 O   0  0  0  0  0  0  0  0  0  0  0  0
    5.3634   -7.3929    0.6074 C   0  0  0  0  0  0  0  0  0  0  0  0
    4.2975   -7.0125    1.4416 N   0  0  0  0  0  0  0  0  0  0  0  0
    6.5011   -7.6033    0.9775 O   0  0  0  0  0  0  0  0  0  0  0  0
    4.3515   -6.2720    2.6378 C   0  0  0  0  0  0  0  0  0  0  0  0
    5.5025   -5.6117    3.0534 C   0  0  0  0  0  0  0  0  0  0  0  0
    5.5018   -4.9251    4.2672 C   0  0  0  0  0  0  0  0  0  0  0  0
    4.3343   -4.8453    5.0200 C   0  0  0  0  0  0  0  0  0  0  0  0
    3.1390   -5.3592    4.5400 C   0  0  0  0  0  0  0  0  0  0  0  0
    3.1529   -6.0985    3.3575 C   0  0  0  0  0  0  0  0  0  0  0  0
    4.3688   -4.2857    6.2352 F   0  0  0  0  0  0  0  0  0  0  0  0
    5.3383   -8.8369   -1.5435 C   0  0  0  0  0  0  0  0  0  0  0  0
    5.9460   -7.5812   -2.0667 C   0  0  0  0  0  0  0  0  0  0  0  0
   -3.2907   -1.2809   -0.0009 H   0  0  0  0  0  0  0  0  0  0  0  0
   -3.2280    1.2061    0.0222 H   0  0  0  0  0  0  0  0  0  0  0  0
    1.1515    2.5003    0.0112 H   0  0  0  0  0  0  0  0  0  0  0  0
    1.4979   -2.2566   -0.4730 H   0  0  0  0  0  0  0  0  0  0  0  0
    5.0996    0.9845    0.8478 H   0  0  0  0  0  0  0  0  0  0  0  0
    4.9882    0.9972   -1.0274 H   0  0  0  0  0  0  0  0  0  0  0  0
    5.5109    2.3359   -0.0859 H   0  0  0  0  0  0  0  0  0  0  0  0
    5.1930   -0.7626   -0.8071 H   0  0  0  0  0  0  0  0  0  0  0  0
    5.0490   -0.7835    1.0768 H   0  0  0  0  0  0  0  0  0  0  0  0
    5.5713   -2.1198    0.1318 H   0  0  0  0  0  0  0  0  0  0  0  0
    0.5089   -2.9758    1.9689 H   0  0  0  0  0  0  0  0  0  0  0  0
    2.6778   -4.0684    1.7224 H   0  0  0  0  0  0  0  0  0  0  0  0
    1.2433   -6.0075   -1.8688 H   0  0  0  0  0  0  0  0  0  0  0  0
   -0.6219   -4.5101   -1.9019 H   0  0  0  0  0  0  0  0  0  0  0  0
    4.1879   -5.3097    0.2021 H   0  0  0  0  0  0  0  0  0  0  0  0
    3.3575   -7.0537    1.0516 H   0  0  0  0  0  0  0  0  0  0  0  0
    6.4015   -5.6123    2.4441 H   0  0  0  0  0  0  0  0  0  0  0  0
    6.4133   -4.4673    4.6357 H   0  0  0  0  0  0  0  0  0  0  0  0
    2.2186   -5.2027    5.0958 H   0  0  0  0  0  0  0  0  0  0  0  0
    2.2153   -6.5280    3.0060 H   0  0  0  0  0  0  0  0  0  0  0  0
    6.0552   -9.5280   -1.1034 H   0  0  0  0  0  0  0  0  0  0  0  0
    4.5971   -9.3546   -2.1459 H   0  0  0  0  0  0  0  0  0  0  0  0
    5.5994   -7.2954   -3.0631 H   0  0  0  0  0  0  0  0  0  0  0  0
    7.0093   -7.4226   -1.9491 H   0  0  0  0  0  0  0  0  0  0  0  0
  1  2  2  0  0  0  0
  1  6  1  0  0  0  0
  1  7  1  0  0  0  0
  2  3  1  0  0  0  0
  2 10  1  0  0  0  0
  3  4  2  0  0  0  0
  3 15  1  0  0  0  0
  4  5  1  0  0  0  0
  4 38  1  0  0  0  0
  5  6  2  0  0  0  0
  5 39  1  0  0  0  0
  7  8  2  0  0  0  0
  7 40  1  0  0  0  0
  8  9  1  0  0  0  0
  8 11  1  0  0  0  0
  9 10  2  0  0  0  0
  9 13  1  0  0  0  0
 10 41  1  0  0  0  0
 11 12  1  0  0  0  0
 12 42  1  0  0  0  0
 12 43  1  0  0  0  0
 12 44  1  0  0  0  0
 13 14  1  0  0  0  0
 14 45  1  0  0  0  0
 14 46  1  0  0  0  0
 14 47  1  0  0  0  0
 15 16  1  0  0  0  0
 16 17  2  0  0  0  0
 16 21  1  0  0  0  0
 17 18  1  0  0  0  0
 17 48  1  0  0  0  0
 18 19  2  0  0  0  0
 18 49  1  0  0  0  0
 19 20  1  0  0  0  0
 19 22  1  0  0  0  0
 20 21  2  0  0  0  0
 20 50  1  0  0  0  0
 21 51  1  0  0  0  0
 22 23  1  0  0  0  0
 22 52  1  0  0  0  0
 23 24  1  0  0  0  0
 23 25  2  0  0  0  0
 24 26  1  0  0  0  0
 24 36  1  0  0  0  0
 26 27  1  0  0  0  0
 26 28  2  0  0  0  0
 27 29  1  0  0  0  0
 27 53  1  0  0  0  0
 29 30  2  0  0  0  0
 29 34  1  0  0  0  0
 30 31  1  0  0  0  0
 30 54  1  0  0  0  0
 31 32  2  0  0  0  0
 31 55  1  0  0  0  0
 32 33  1  0  0  0  0
 32 35  1  0  0  0  0
 33 34  2  0  0  0  0
 33 56  1  0  0  0  0
 34 57  1  0  0  0  0
 36 37  1  0  0  0  0
 36 58  1  0  0  0  0
 36 59  1  0  0  0  0
 37 24  1  0  0  0  0
 37 60  1  0  0  0  0
 37 61  1  0  0  0  0
M  END
>  <DRUGBANK_ID>
DB08875

>  <SECONDARY_ACCESSION_NUMBERS>
DB05153

>  <COMMON_NAME>
Cabozantinib

>  <CAS_NUMBER>
849217-68-1

>  <UNII>
1C39JW444G

>  <SYNONYMS>
Cabozantinib

$$$$
