
 OpenBabel10282417213D

 19 19  0  0  0  0  0  0  0  0999 V2000
    1.0809   -0.0991    0.0498 C   0  0  0  0  0  0  0  0  0  0  0  0
    0.3037   -1.0520   -0.7905 C   0  0  0  0  0  0  0  0  0  0  0  0
    0.4683    0.7424    0.7070 O   0  0  0  0  0  0  0  0  0  0  0  0
   -2.2203   -3.5807   -2.9233 O   0  0  0  0  0  0  0  0  0  0  0  0
   -0.8371   -0.5602   -1.4400 C   0  0  0  0  0  0  0  0  0  0  0  0
    0.5809   -2.4246   -0.8596 C   0  0  0  0  0  0  0  0  0  0  0  0
   -1.3616   -2.7770   -2.2358 C   0  0  0  0  0  0  0  0  0  0  0  0
    2.4346   -0.1394    0.0768 O   0  0  0  0  0  0  0  0  0  0  0  0
   -0.2305   -3.2836   -1.6090 C   0  0  0  0  0  0  0  0  0  0  0  0
   -1.6698   -1.4242   -2.1559 C   0  0  0  0  0  0  0  0  0  0  0  0
    3.2357   -0.9567   -0.7849 C   0  0  0  0  0  0  0  0  0  0  0  0
   -1.9221   -4.5026   -2.8578 H   0  0  0  0  0  0  0  0  0  0  0  0
   -1.1004    0.4936   -1.3640 H   0  0  0  0  0  0  0  0  0  0  0  0
    1.4000   -2.8660   -0.3048 H   0  0  0  0  0  0  0  0  0  0  0  0
    0.0236   -4.3381   -1.6626 H   0  0  0  0  0  0  0  0  0  0  0  0
   -2.5684   -1.0452   -2.6342 H   0  0  0  0  0  0  0  0  0  0  0  0
    3.1731   -1.9970   -0.4693 H   0  0  0  0  0  0  0  0  0  0  0  0
    2.9552   -0.8236   -1.8326 H   0  0  0  0  0  0  0  0  0  0  0  0
    4.2816   -0.6679   -0.6541 H   0  0  0  0  0  0  0  0  0  0  0  0
  2  1  1  0  0  0  0
  3  1  2  0  0  0  0
  4  7  1  0  0  0  0
  4 12  1  0  0  0  0
  5  2  2  0  0  0  0
  5 13  1  0  0  0  0
  6  2  1  0  0  0  0
  6 14  1  0  0  0  0
  7  9  1  0  0  0  0
  8  1  1  0  0  0  0
  9  6  2  0  0  0  0
  9 15  1  0  0  0  0
 10  5  1  0  0  0  0
 10  7  2  0  0  0  0
 10 16  1  0  0  0  0
 11  8  1  0  0  0  0
 11 17  1  0  0  0  0
 11 18  1  0  0  0  0
 11 19  1  0  0  0  0
M  END
>  <DRUGBANK_ID>
DB14212

>  <COMMON_NAME>
Methylparaben

>  <CAS_NUMBER>
99-76-3

>  <UNII>
A2I8C7HI9T

>  <SYNONYMS>
Methyl 4-hydroxybenzoate; methyl p-hydroxybenzoate; Methyl paraben; Methylparaben; p-Hydroxybenzoic acid methyl ester; p-Methoxycarbonylphenol; p-Oxybenzoesauremethylester

$$$$
