
 OpenBabel10282417223D

189193  0  0  0  0  0  0  0  0999 V2000
    0.9454    0.0753    0.0367 Ga  0  1  0  0  0  0  0  0  0  0  0  0
   21.4037   -9.3749   -4.7576 C   0  0  0  0  0  0  0  0  0  0  0  0
   21.4474  -10.4736   -4.1204 O   0  0  0  0  0  0  0  0  0  0  0  0
   21.0349   -8.1790   -4.0866 O   0  5  0  0  0  0  0  0  0  0  0  0
   21.7462   -9.3408   -6.2381 C   0  0  0  0  0  0  0  0  0  0  0  0
   22.0920  -10.6955   -6.6923 N   0  0  0  0  0  0  0  0  0  0  0  0
   20.9926  -11.2456   -7.4984 C   0  0  0  0  0  0  0  0  0  0  0  0
   21.0000  -10.8456   -8.9549 C   0  0  0  0  0  0  0  0  0  0  0  0
   21.8592  -11.6811   -9.7850 N   0  0  0  0  0  0  0  0  0  0  0  0
   23.2869  -11.3850   -9.6056 C   0  0  0  0  0  0  0  0  0  0  0  0
   24.1492  -12.5982   -9.8976 C   0  0  0  0  0  0  0  0  0  0  0  0
   24.3650  -13.4260   -8.7058 N   0  0  0  0  0  0  0  0  0  0  0  0
   25.4645  -12.8759   -7.8998 C   0  0  0  0  0  0  0  0  0  0  0  0
   25.4571  -13.2759   -6.4433 C   0  0  0  0  0  0  0  0  0  0  0  0
   24.5984  -12.4395   -5.6132 N   0  0  0  0  0  0  0  0  0  0  0  0
   23.1702  -12.7364   -5.7926 C   0  0  0  0  0  0  0  0  0  0  0  0
   22.3079  -11.5232   -5.5006 C   0  0  0  0  0  0  0  0  0  0  0  0
   24.8332  -11.0313   -5.9637 C   0  0  0  0  0  0  0  0  0  0  0  0
   24.4342  -10.7962   -7.4114 C   0  0  0  0  0  0  0  0  0  0  0  0
   23.4201   -9.8527   -7.7241 O   0  5  0  0  0  0  0  0  0  0  0  0
   25.0082  -11.4441   -8.3420 O   0  0  0  0  0  0  0  0  0  0  0  0
   24.7039  -14.7951   -9.1200 C   0  0  0  0  0  0  0  0  0  0  0  0
   25.9793  -14.7733   -9.9466 C   0  0  0  0  0  0  0  0  0  0  0  0
   27.1197  -15.4991   -9.5117 O   0  5  0  0  0  0  0  0  0  0  0  0
   26.0250  -14.1056  -11.0270 O   0  0  0  0  0  0  0  0  0  0  0  0
   21.5076  -11.4609  -11.1953 C   0  0  0  0  0  0  0  0  0  0  0  0
   21.7863  -10.0137  -11.5669 C   0  0  0  0  0  0  0  0  0  0  0  0
   22.6140   -9.7434  -12.4927 O   0  0  0  0  0  0  0  0  0  0  0  0
   21.0985   -8.9266  -10.8556 N   0  0  0  0  0  0  0  0  0  0  0  0
   20.1411   -9.2391   -9.7847 C   0  0  1  0  0  0  0  0  0  0  0  0
   20.6129   -8.6103   -8.4838 C   0  0  0  0  0  0  0  0  0  0  0  0
   19.8809   -7.7599   -7.8870 O   0  0  0  0  0  0  0  0  0  0  0  0
   21.9158   -8.9857   -7.9161 N   0  0  0  0  0  0  0  0  0  0  0  0
   22.7558   -9.9781   -8.6019 C   0  0  1  0  0  0  0  0  0  0  0  0
    5.1307   -6.8221   -8.7075 C   0  0  0  0  0  0  0  0  0  0  0  0
    6.1649   -8.0441   -9.5520 S   0  0  0  0  0  0  0  0  0  0  0  0
    4.9859   -9.1557  -10.8878 S   0  0  0  0  0  0  0  0  0  0  0  0
    6.0201  -10.3777  -11.7323 C   0  0  0  0  0  0  0  0  0  0  0  0
    7.1213   -9.6652  -12.5006 C   0  0  1  0  0  0  0  0  0  0  0  0
    6.5005   -8.7311  -13.5265 C   0  0  0  0  0  0  0  0  0  0  0  0
    6.7880   -8.9145  -14.9564 N   0  0  0  0  0  0  0  0  0  0  0  0
    6.1877   -8.0111  -15.9486 C   0  0  1  0  0  0  0  0  0  0  0  0
    7.2525   -7.2736  -16.7439 C   0  0  2  0  0  0  0  0  0  0  0  0
    6.6288   -6.4101  -17.6829 O   0  0  0  0  0  0  0  0  0  0  0  0
    8.1223   -8.2794  -17.4804 C   0  0  0  0  0  0  0  0  0  0  0  0
    5.3343   -8.8157  -16.9154 C   0  0  0  0  0  0  0  0  0  0  0  0
    4.3056   -9.4813  -16.1977 O   0  0  0  0  0  0  0  0  0  0  0  0
    5.7328   -7.7916  -13.1481 O   0  0  0  0  0  0  0  0  0  0  0  0
    7.9466   -8.8871  -11.5656 N   0  0  0  0  0  0  0  0  0  0  0  0
    9.3835   -9.1714  -11.4418 C   0  0  0  0  0  0  0  0  0  0  0  0
   10.2369   -8.3669  -10.4750 C   0  0  1  0  0  0  0  0  0  0  0  0
   10.8373   -9.2702   -9.4828 N   0  0  0  0  0  0  0  0  0  0  0  0
   12.2995   -9.3656   -9.3654 C   0  0  0  0  0  0  0  0  0  0  0  0
   12.9203  -10.2997   -8.3395 C   0  0  1  0  0  0  0  0  0  0  0  0
   13.7602  -11.2921   -9.0254 N   0  0  0  0  0  0  0  0  0  0  0  0
   15.1955  -11.3775   -8.7194 C   0  0  0  0  0  0  0  0  0  0  0  0
   16.0640  -12.4037   -9.4286 C   0  0  2  0  0  0  0  0  0  0  0  0
   17.1290  -11.7146  -10.1716 N   0  0  0  0  0  0  0  0  0  0  0  0
   18.5390  -11.9889   -9.8593 C   0  0  0  0  0  0  0  0  0  0  0  0
   19.6401  -11.2765  -10.6276 C   0  0  1  0  0  0  0  0  0  0  0  0
   20.4654  -10.4984   -9.6926 N   0  0  0  0  0  0  0  0  0  0  0  0
   21.9024  -10.7827   -9.5688 C   0  0  0  0  0  0  0  0  0  0  0  0
   22.4311  -11.7012  -10.2701 O   0  0  0  0  0  0  0  0  0  0  0  0
   20.5086  -12.3027  -11.3368 C   0  0  0  0  0  0  0  0  0  0  0  0
   19.7630  -13.1731  -12.3352 C   0  0  0  0  0  0  0  0  0  0  0  0
   20.1416  -13.0463  -13.6536 C   0  0  0  0  0  0  0  0  0  0  0  0
   19.4378  -13.6979  -14.6719 C   0  0  0  0  0  0  0  0  0  0  0  0
   18.3411  -14.5011  -14.2968 C   0  0  0  0  0  0  0  0  0  0  0  0
   17.9551  -14.5959  -12.9810 C   0  0  0  0  0  0  0  0  0  0  0  0
   18.6727  -13.9389  -12.0003 C   0  0  0  0  0  0  0  0  0  0  0  0
   17.6171  -15.1867  -15.2104 O   0  0  0  0  0  0  0  0  0  0  0  0
   18.8373  -12.8218   -8.9468 O   0  0  0  0  0  0  0  0  0  0  0  0
   15.2106  -13.2082  -10.3954 C   0  0  0  0  0  0  0  0  0  0  0  0
   16.0792  -14.2344  -11.1047 C   0  0  0  0  0  0  0  0  0  0  0  0
   16.8036  -15.3339  -10.5312 C   0  0  0  0  0  0  0  0  0  0  0  0
   17.5360  -15.9552  -11.5485 C   0  0  0  0  0  0  0  0  0  0  0  0
   17.2877  -15.2466  -12.7409 N   0  0  0  0  0  0  0  0  0  0  0  0
   16.3621  -14.2134  -12.4169 C   0  0  0  0  0  0  0  0  0  0  0  0
   18.2670  -17.1104  -11.3078 C   0  0  0  0  0  0  0  0  0  0  0  0
   18.2369  -17.6185  -10.0133 C   0  0  0  0  0  0  0  0  0  0  0  0
   17.5284  -16.9939   -9.0042 C   0  0  0  0  0  0  0  0  0  0  0  0
   16.8214  -15.8632   -9.2441 C   0  0  0  0  0  0  0  0  0  0  0  0
   15.7102  -10.5932   -7.8619 O   0  0  0  0  0  0  0  0  0  0  0  0
   13.7737   -9.4951   -7.3727 C   0  0  0  0  0  0  0  0  0  0  0  0
   12.8322   -8.7623   -6.4308 C   0  0  0  0  0  0  0  0  0  0  0  0
   11.9848   -9.7724   -5.6744 C   0  0  0  0  0  0  0  0  0  0  0  0
   12.8897  -10.6927   -4.8715 C   0  0  0  0  0  0  0  0  0  0  0  0
   13.6737   -9.8974   -3.9157 N   0  0  0  0  0  0  0  0  0  0  0  0
   13.0446   -8.6670  -10.1217 O   0  0  0  0  0  0  0  0  0  0  0  0
   11.3381   -7.6544  -11.2433 C   0  0  2  0  0  0  0  0  0  0  0  0
   10.8220   -7.2105  -12.4894 O   0  0  0  0  0  0  0  0  0  0  0  0
   12.4970   -8.6076  -11.4854 C   0  0  0  0  0  0  0  0  0  0  0  0
    9.9123  -10.0900  -12.1431 O   0  0  0  0  0  0  0  0  0  0  0  0
   18.7740   -8.6838  -10.1494 C   0  0  0  0  0  0  0  0  0  0  0  0
   18.3022   -9.3127  -11.4503 C   0  0  0  0  0  0  0  0  0  0  0  0
   17.0546   -9.0903  -11.8468 C   0  0  0  0  0  0  0  0  0  0  0  0
   16.6194   -9.5378  -13.0708 C   0  0  0  0  0  0  0  0  0  0  0  0
   17.4274  -10.2990  -13.8691 C   0  0  0  0  0  0  0  0  0  0  0  0
   18.6808  -10.4355  -13.4763 C   0  0  0  0  0  0  0  0  0  0  0  0
   19.1531  -10.1278  -12.1785 C   0  0  0  0  0  0  0  0  0  0  0  0
   20.9028   -8.9836   -6.7913 H   0  0  0  0  0  0  0  0  0  0  0  0
   22.5791   -8.6881   -6.3966 H   0  0  0  0  0  0  0  0  0  0  0  0
   21.1153  -12.3084   -7.4818 H   0  0  0  0  0  0  0  0  0  0  0  0
   20.0699  -10.9150   -7.0690 H   0  0  0  0  0  0  0  0  0  0  0  0
   20.0006  -10.9647   -9.3182 H   0  0  0  0  0  0  0  0  0  0  0  0
   21.3409   -9.8339   -9.0262 H   0  0  0  0  0  0  0  0  0  0  0  0
   23.5568  -10.6094  -10.2914 H   0  0  0  0  0  0  0  0  0  0  0  0
   23.4531  -11.0759   -8.5947 H   0  0  0  0  0  0  0  0  0  0  0  0
   23.6392  -13.1959  -10.6240 H   0  0  0  0  0  0  0  0  0  0  0  0
   25.0985  -12.2661  -10.2628 H   0  0  0  0  0  0  0  0  0  0  0  0
   26.3657  -13.2779   -8.3134 H   0  0  0  0  0  0  0  0  0  0  0  0
   25.4099  -11.8084   -7.9502 H   0  0  0  0  0  0  0  0  0  0  0  0
   25.0689  -14.2717   -6.3931 H   0  0  0  0  0  0  0  0  0  0  0  0
   26.4574  -13.2100   -6.0692 H   0  0  0  0  0  0  0  0  0  0  0  0
   23.0127  -13.0221   -6.8117 H   0  0  0  0  0  0  0  0  0  0  0  0
   22.8935  -13.5276   -5.1275 H   0  0  0  0  0  0  0  0  0  0  0  0
   22.8179  -10.9256   -4.7742 H   0  0  0  0  0  0  0  0  0  0  0  0
   21.3586  -11.8553   -5.1354 H   0  0  0  0  0  0  0  0  0  0  0  0
   24.2478  -10.4026   -5.3258 H   0  0  0  0  0  0  0  0  0  0  0  0
   25.8704  -10.8006   -5.8376 H   0  0  0  0  0  0  0  0  0  0  0  0
   24.8515  -15.4039   -8.2525 H   0  0  0  0  0  0  0  0  0  0  0  0
   23.9053  -15.1982   -9.7070 H   0  0  0  0  0  0  0  0  0  0  0  0
   22.0940  -12.1074  -11.8142 H   0  0  0  0  0  0  0  0  0  0  0  0
   20.4690  -11.6730  -11.3412 H   0  0  0  0  0  0  0  0  0  0  0  0
   21.2855   -7.9554  -11.1050 H   0  0  0  0  0  0  0  0  0  0  0  0
   20.0746  -10.3003   -9.6644 H   0  0  0  0  0  0  0  0  0  0  0  0
   22.2324   -8.5637   -7.0431 H   0  0  0  0  0  0  0  0  0  0  0  0
   23.1928  -10.6357   -7.8797 H   0  0  0  0  0  0  0  0  0  0  0  0
    4.3555   -7.3236   -8.1667 H   0  0  0  0  0  0  0  0  0  0  0  0
    5.7314   -6.2557   -8.0269 H   0  0  0  0  0  0  0  0  0  0  0  0
    5.4194  -10.9441  -12.4129 H   0  0  0  0  0  0  0  0  0  0  0  0
    6.4571  -11.0352  -11.0101 H   0  0  0  0  0  0  0  0  0  0  0  0
    7.7327  -10.3876  -12.9998 H   0  0  0  0  0  0  0  0  0  0  0  0
    7.4041   -9.6685  -15.2601 H   0  0  0  0  0  0  0  0  0  0  0  0
    5.5763   -7.2888  -15.4494 H   0  0  0  0  0  0  0  0  0  0  0  0
    7.8598   -6.6971  -16.0778 H   0  0  0  0  0  0  0  0  0  0  0  0
    6.6358   -5.4869  -17.2987 H   0  0  0  0  0  0  0  0  0  0  0  0
    8.8719   -7.7602  -18.0402 H   0  0  0  0  0  0  0  0  0  0  0  0
    8.5923   -8.9300  -16.7728 H   0  0  0  0  0  0  0  0  0  0  0  0
    7.5150   -8.8559  -18.1464 H   0  0  0  0  0  0  0  0  0  0  0  0
    4.8973   -8.1582  -17.6376 H   0  0  0  0  0  0  0  0  0  0  0  0
    5.9457   -9.5381  -17.4147 H   0  0  0  0  0  0  0  0  0  0  0  0
    4.7140  -10.0958  -15.5227 H   0  0  0  0  0  0  0  0  0  0  0  0
    7.5222   -8.1499  -11.0027 H   0  0  0  0  0  0  0  0  0  0  0  0
    9.6255   -7.6445   -9.9757 H   0  0  0  0  0  0  0  0  0  0  0  0
   10.2393   -9.8309   -8.8758 H   0  0  0  0  0  0  0  0  0  0  0  0
   12.1451  -10.8012   -7.7986 H   0  0  0  0  0  0  0  0  0  0  0  0
   13.3471  -11.9215   -9.7136 H   0  0  0  0  0  0  0  0  0  0  0  0
   16.5010  -13.0612   -8.7064 H   0  0  0  0  0  0  0  0  0  0  0  0
   16.8895  -11.0462  -10.9039 H   0  0  0  0  0  0  0  0  0  0  0  0
   19.2031  -10.6189  -11.3498 H   0  0  0  0  0  0  0  0  0  0  0  0
   20.0411   -9.7612   -9.1297 H   0  0  0  0  0  0  0  0  0  0  0  0
   21.2738  -11.7533  -11.8442 H   0  0  0  0  0  0  0  0  0  0  0  0
   20.9527  -12.9219  -10.5856 H   0  0  0  0  0  0  0  0  0  0  0  0
   20.9873  -12.4400  -13.9027 H   0  0  0  0  0  0  0  0  0  0  0  0
   19.7213  -13.5907  -15.6981 H   0  0  0  0  0  0  0  0  0  0  0  0
   17.0980  -15.1792  -12.7161 H   0  0  0  0  0  0  0  0  0  0  0  0
   18.3780  -14.0269  -10.9754 H   0  0  0  0  0  0  0  0  0  0  0  0
   17.8647  -15.1445  -16.1784 H   0  0  0  0  0  0  0  0  0  0  0  0
   14.4355  -13.7098   -9.8546 H   0  0  0  0  0  0  0  0  0  0  0  0
   14.7736  -12.5507  -11.1176 H   0  0  0  0  0  0  0  0  0  0  0  0
   17.6921  -15.4366  -13.6579 H   0  0  0  0  0  0  0  0  0  0  0  0
   15.9508  -13.5191  -13.1196 H   0  0  0  0  0  0  0  0  0  0  0  0
   18.8284  -17.5886  -12.0831 H   0  0  0  0  0  0  0  0  0  0  0  0
   18.7762  -18.5160   -9.7930 H   0  0  0  0  0  0  0  0  0  0  0  0
   17.5384  -17.4097   -8.0184 H   0  0  0  0  0  0  0  0  0  0  0  0
   16.2834  -15.3829   -8.4537 H   0  0  0  0  0  0  0  0  0  0  0  0
   14.4106  -10.1430   -6.8075 H   0  0  0  0  0  0  0  0  0  0  0  0
   14.3702   -8.7841   -7.9051 H   0  0  0  0  0  0  0  0  0  0  0  0
   13.4029   -8.1834   -5.7351 H   0  0  0  0  0  0  0  0  0  0  0  0
   12.1952   -8.1145   -6.9960 H   0  0  0  0  0  0  0  0  0  0  0  0
   11.3220   -9.2566   -5.0114 H   0  0  0  0  0  0  0  0  0  0  0  0
   11.4141  -10.3513   -6.3701 H   0  0  0  0  0  0  0  0  0  0  0  0
   12.2932  -11.4038   -4.3390 H   0  0  0  0  0  0  0  0  0  0  0  0
   13.5524  -11.2085   -5.5345 H   0  0  0  0  0  0  0  0  0  0  0  0
   14.2810  -10.5150   -3.3770 H   0  0  0  0  0  0  0  0  0  0  0  0
   14.2424   -9.2196   -4.4233 H   0  0  0  0  0  0  0  0  0  0  0  0
   11.6807   -6.8124  -10.6788 H   0  0  0  0  0  0  0  0  0  0  0  0
   10.9960   -7.9819  -13.1016 H   0  0  0  0  0  0  0  0  0  0  0  0
   12.8293   -8.9816  -10.5396 H   0  0  0  0  0  0  0  0  0  0  0  0
   12.5139   -9.3974  -12.2071 H   0  0  0  0  0  0  0  0  0  0  0  0
   13.1455   -7.8187  -11.8048 H   0  0  0  0  0  0  0  0  0  0  0  0
   18.0771   -8.9114   -9.3700 H   0  0  0  0  0  0  0  0  0  0  0  0
   18.8406   -7.6227  -10.2698 H   0  0  0  0  0  0  0  0  0  0  0  0
   16.3821   -8.5577  -11.2073 H   0  0  0  0  0  0  0  0  0  0  0  0
   15.6340   -9.2871  -13.4041 H   0  0  0  0  0  0  0  0  0  0  0  0
   17.0637  -10.7592  -14.7640 H   0  0  0  0  0  0  0  0  0  0  0  0
   19.3884  -10.8046  -14.1890 H   0  0  0  0  0  0  0  0  0  0  0  0
   20.0831  -10.4917  -11.7944 H   0  0  0  0  0  0  0  0  0  0  0  0
  2  3  2  0  0  0  0
  2  4  1  0  0  0  0
  2  5  1  0  0  0  0
  5101  1  0  0  0  0
  5102  1  0  0  0  0
  6  5  1  0  0  0  0
  6 17  1  0  0  0  0
  7  6  1  0  0  0  0
  7103  1  0  0  0  0
  7104  1  0  0  0  0
  8  7  1  0  0  0  0
  8105  1  0  0  0  0
  8106  1  0  0  0  0
  9  8  1  0  0  0  0
 10  9  1  0  0  0  0
 10107  1  0  0  0  0
 10108  1  0  0  0  0
 11 10  1  0  0  0  0
 11109  1  0  0  0  0
 11110  1  0  0  0  0
 12 11  1  0  0  0  0
 12 22  1  0  0  0  0
 13 12  1  0  0  0  0
 13111  1  0  0  0  0
 13112  1  0  0  0  0
 14 13  1  0  0  0  0
 14113  1  0  0  0  0
 14114  1  0  0  0  0
 15 14  1  0  0  0  0
 15 18  1  0  0  0  0
 16 15  1  0  0  0  0
 16115  1  0  0  0  0
 16116  1  0  0  0  0
 17 16  1  0  0  0  0
 17117  1  0  0  0  0
 17118  1  0  0  0  0
 18119  1  0  0  0  0
 18120  1  0  0  0  0
 19 18  1  0  0  0  0
 19 20  1  0  0  0  0
 19 21  2  0  0  0  0
 22121  1  0  0  0  0
 22122  1  0  0  0  0
 23 22  1  0  0  0  0
 23 24  1  0  0  0  0
 23 25  2  0  0  0  0
 26  9  1  0  0  0  0
 26123  1  0  0  0  0
 26124  1  0  0  0  0
 27 26  1  0  0  0  0
 27 28  2  0  0  0  0
 29 27  1  0  0  0  0
 29 30  1  0  0  0  0
 29125  1  0  0  0  0
 30 31  1  0  0  0  0
 30 94  1  0  0  0  0
 30126  1  1  0  0  0
 31 32  2  0  0  0  0
 33 31  1  0  0  0  0
 33127  1  0  0  0  0
 34 35  1  0  0  0  0
 34 62  1  0  0  0  0
 34128  1  1  0  0  0
 34 33  1  0  0  0  0
 35 36  1  0  0  0  0
 35129  1  0  0  0  0
 35130  1  0  0  0  0
 36 37  1  0  0  0  0
 38 37  1  0  0  0  0
 38131  1  0  0  0  0
 38132  1  0  0  0  0
 39 38  1  0  0  0  0
 39 40  1  0  0  0  0
 39133  1  6  0  0  0
 40 48  2  0  0  0  0
 41 40  1  0  0  0  0
 41134  1  0  0  0  0
 42 41  1  0  0  0  0
 42 46  1  0  0  0  0
 42135  1  1  0  0  0
 43 45  1  0  0  0  0
 43136  1  1  0  0  0
 43 44  1  0  0  0  0
 43 42  1  0  0  0  0
 44137  1  0  0  0  0
 45138  1  0  0  0  0
 45139  1  0  0  0  0
 45140  1  0  0  0  0
 46 47  1  0  0  0  0
 46141  1  0  0  0  0
 46142  1  0  0  0  0
 47143  1  0  0  0  0
 49 39  1  0  0  0  0
 49144  1  0  0  0  0
 50 49  1  0  0  0  0
 50 93  2  0  0  0  0
 51 50  1  0  0  0  0
 51 52  1  0  0  0  0
 51145  1  1  0  0  0
 51 90  1  0  0  0  0
 52 53  1  0  0  0  0
 52146  1  0  0  0  0
 53 89  2  0  0  0  0
 54 53  1  0  0  0  0
 54147  1  1  0  0  0
 54 84  1  0  0  0  0
 55 54  1  0  0  0  0
 55 56  1  0  0  0  0
 55148  1  0  0  0  0
 56 83  2  0  0  0  0
 57 56  1  0  0  0  0
 57 73  1  0  0  0  0
 57149  1  1  0  0  0
 58 57  1  0  0  0  0
 58 59  1  0  0  0  0
 58150  1  0  0  0  0
 59 72  2  0  0  0  0
 60 59  1  0  0  0  0
 60151  1  6  0  0  0
 60 64  1  0  0  0  0
 61 60  1  0  0  0  0
 61 62  1  0  0  0  0
 61152  1  0  0  0  0
 62 63  2  0  0  0  0
 64 65  1  0  0  0  0
 64153  1  0  0  0  0
 64154  1  0  0  0  0
 65 70  1  0  0  0  0
 66 65  2  0  0  0  0
 66155  1  0  0  0  0
 67 66  1  0  0  0  0
 67156  1  0  0  0  0
 68 67  2  0  0  0  0
 68 71  1  0  0  0  0
 69 68  1  0  0  0  0
 69157  1  0  0  0  0
 70 69  2  0  0  0  0
 70158  1  0  0  0  0
 71159  1  0  0  0  0
 73 74  1  0  0  0  0
 73160  1  0  0  0  0
 73161  1  0  0  0  0
 74 75  1  0  0  0  0
 75 76  2  0  0  0  0
 76 77  1  0  0  0  0
 76 79  1  0  0  0  0
 77 78  1  0  0  0  0
 77162  1  0  0  0  0
 78 74  2  0  0  0  0
 78163  1  0  0  0  0
 79 80  2  0  0  0  0
 79164  1  0  0  0  0
 80 81  1  0  0  0  0
 80165  1  0  0  0  0
 81 82  2  0  0  0  0
 81166  1  0  0  0  0
 82 75  1  0  0  0  0
 82167  1  0  0  0  0
 84 85  1  0  0  0  0
 84168  1  0  0  0  0
 84169  1  0  0  0  0
 85 86  1  0  0  0  0
 85170  1  0  0  0  0
 85171  1  0  0  0  0
 86 87  1  0  0  0  0
 86172  1  0  0  0  0
 86173  1  0  0  0  0
 87 88  1  0  0  0  0
 87174  1  0  0  0  0
 87175  1  0  0  0  0
 88176  1  0  0  0  0
 88177  1  0  0  0  0
 90178  1  1  0  0  0
 90 92  1  0  0  0  0
 90 91  1  0  0  0  0
 91179  1  0  0  0  0
 92180  1  0  0  0  0
 92181  1  0  0  0  0
 92182  1  0  0  0  0
 94 95  1  0  0  0  0
 94183  1  0  0  0  0
 94184  1  0  0  0  0
 95100  1  0  0  0  0
 96 95  2  0  0  0  0
 96185  1  0  0  0  0
 97 96  1  0  0  0  0
 97186  1  0  0  0  0
 98 97  2  0  0  0  0
 98187  1  0  0  0  0
 99 98  1  0  0  0  0
 99188  1  0  0  0  0
100 99  2  0  0  0  0
100189  1  0  0  0  0
M  ISO  1   1  68
M  CHG  4   1   3   4  -1  20  -1  24  -1
M  END
>  <DRUGBANK_ID>
DB15494

>  <COMMON_NAME>
Edotreotide gallium Ga-68

>  <CAS_NUMBER>
2101630-92-4

>  <UNII>
Y68179SY2L

>  <SYNONYMS>
Edotreotide Gallium Ga-68; Gallium (68Ga) edotreotide; Gallium edotreotide Ga-68; Gallium Ga 68-dotatoc; Gallium Ga 68-edotreotide; Gallium Ga-68 edotreotide; Gallium-68 (DOTA0-Phel-Tyr3)octreotide

$$$$
