
 OpenBabel10282417213D

 61 64  0  0  0  0  0  0  0  0999 V2000
   -3.2700    0.3161   -1.6159 C   0  0  0  0  0  0  0  0  0  0  0  0
   -2.0790   -0.8509   -1.2442 C   0  0  0  0  0  0  0  0  0  0  0  0
   -2.2941   -1.9357   -0.0742 C   0  0  0  0  0  0  0  0  0  0  0  0
   -1.6296   -3.1076    0.4678 C   0  0  0  0  0  0  0  0  0  0  0  0
   -2.6951   -2.3879    2.4625 C   0  0  0  0  0  0  0  0  0  0  0  0
   -3.7684   -1.5430    1.8727 C   0  0  0  0  0  0  0  0  0  0  0  0
   -7.3859   -0.0120   -0.1995 C   0  0  0  0  0  0  0  0  0  0  0  0
   -7.0947    3.0702   -1.2833 C   0  0  0  0  0  0  0  0  0  0  0  0
   -5.8339    2.1600   -1.0439 C   0  0  0  0  0  0  0  0  0  0  0  0
   -4.9129   -0.6601   -0.1230 C   0  0  2  0  0  0  0  0  0  0  0  0
   -4.8561    0.1995    0.5741 H   0  0  0  0  0  0  0  0  0  0  0  0
   -5.8570    0.8253   -1.8879 C   0  0  1  0  0  0  0  0  0  0  0  0
   -5.6604    0.8881   -2.9581 H   0  0  0  0  0  0  0  0  0  0  0  0
   -4.7499   -0.1421   -1.5018 C   0  0  2  0  0  0  0  0  0  0  0  0
   -4.9169   -0.9006   -2.2630 H   0  0  0  0  0  0  0  0  0  0  0  0
   -7.3689    0.5918   -1.8667 C   0  0  1  0  0  0  0  0  0  0  0  0
   -7.5281    2.3452   -2.5543 C   0  0  1  0  0  0  0  0  0  0  0  0
   -2.7321   -3.4674    1.4750 C   0  0  0  0  0  0  0  0  0  0  0  0
   -3.6028   -4.3583    1.2860 O   0  0  0  0  0  0  0  0  0  0  0  0
   -6.3926   -1.2848   -0.0162 C   0  0  1  0  0  0  0  0  0  0  0  0
   -7.1756   -2.2041    0.7890 O   0  0  0  0  0  0  0  0  0  0  0  0
   -7.9898    3.6164   -3.6419 C   0  0  0  0  0  0  0  0  0  0  0  0
   -7.2684    4.6495   -3.7474 O   0  0  0  0  0  0  0  0  0  0  0  0
   -9.2432    3.6650   -4.5051 C   0  0  0  0  0  0  0  0  0  0  0  0
  -10.0506    4.8706   -4.3824 O   0  0  0  0  0  0  0  0  0  0  0  0
   -6.1942    2.6330   -3.4827 O   0  0  0  0  0  0  0  0  0  0  0  0
   -8.1185   -0.7287   -2.3941 C   0  0  0  0  0  0  0  0  0  0  0  0
   -3.7900   -1.6974    0.2553 C   0  0  2  0  0  0  0  0  0  0  0  0
   -4.1284   -2.8399   -0.7970 C   0  0  0  0  0  0  0  0  0  0  0  0
  -10.3468    5.2252   -3.1049 C   0  0  0  0  0  0  0  0  0  0  0  0
   -9.9636    4.5977   -2.1256 O   0  0  0  0  0  0  0  0  0  0  0  0
  -11.2578    6.4156   -2.9950 C   0  0  0  0  0  0  0  0  0  0  0  0
   -3.2048    0.7013   -2.6460 H   0  0  0  0  0  0  0  0  0  0  0  0
   -3.0439    1.2175   -1.0213 H   0  0  0  0  0  0  0  0  0  0  0  0
   -1.9637   -1.3989   -2.1868 H   0  0  0  0  0  0  0  0  0  0  0  0
   -1.1884   -0.2630   -1.0064 H   0  0  0  0  0  0  0  0  0  0  0  0
   -1.3653   -4.0654    1.0888 H   0  0  0  0  0  0  0  0  0  0  0  0
   -2.6235   -2.7161    3.4877 H   0  0  0  0  0  0  0  0  0  0  0  0
   -1.7677   -1.8001    2.3167 H   0  0  0  0  0  0  0  0  0  0  0  0
   -4.7082   -1.8019    2.3547 H   0  0  0  0  0  0  0  0  0  0  0  0
   -3.5463   -0.4928    2.1625 H   0  0  0  0  0  0  0  0  0  0  0  0
   -8.4012   -0.3527    0.0546 H   0  0  0  0  0  0  0  0  0  0  0  0
   -7.1299    0.6853    0.5992 H   0  0  0  0  0  0  0  0  0  0  0  0
   -8.1912    3.2148   -1.1830 H   0  0  0  0  0  0  0  0  0  0  0  0
   -7.3946    2.9245   -0.2276 H   0  0  0  0  0  0  0  0  0  0  0  0
   -5.7855    1.9985    0.0393 H   0  0  0  0  0  0  0  0  0  0  0  0
   -4.8855    2.6484   -1.2536 H   0  0  0  0  0  0  0  0  0  0  0  0
   -5.8615   -1.5471    0.8796 H   0  0  0  0  0  0  0  0  0  0  0  0
   -7.7104   -2.8020    0.2531 H   0  0  0  0  0  0  0  0  0  0  0  0
   -8.9303    3.6604   -5.5664 H   0  0  0  0  0  0  0  0  0  0  0  0
   -9.8373    2.7876   -4.3022 H   0  0  0  0  0  0  0  0  0  0  0  0
   -5.9527    3.5941   -3.3570 H   0  0  0  0  0  0  0  0  0  0  0  0
   -7.6909   -1.6492   -1.9346 H   0  0  0  0  0  0  0  0  0  0  0  0
   -9.1491   -0.7979   -1.9787 H   0  0  0  0  0  0  0  0  0  0  0  0
   -8.1502   -0.9955   -3.4475 H   0  0  0  0  0  0  0  0  0  0  0  0
   -4.3127   -2.4500   -1.8002 H   0  0  0  0  0  0  0  0  0  0  0  0
   -3.3048   -3.4999   -1.1274 H   0  0  0  0  0  0  0  0  0  0  0  0
   -4.9732   -3.4254   -0.4941 H   0  0  0  0  0  0  0  0  0  0  0  0
  -10.7985    7.3248   -3.3891 H   0  0  0  0  0  0  0  0  0  0  0  0
  -12.2145    6.2150   -3.4831 H   0  0  0  0  0  0  0  0  0  0  0  0
  -11.4635    6.5836   -1.9298 H   0  0  0  0  0  0  0  0  0  0  0  0
  1  2  1  0  0  0  0
  1 33  1  0  0  0  0
  1 34  1  0  0  0  0
  2  3  1  0  0  0  0
  2 35  1  0  0  0  0
  2 36  1  0  0  0  0
  3  4  2  0  0  0  0
  3 28  1  0  0  0  0
  4 18  1  0  0  0  0
  4 37  1  0  0  0  0
  5  6  1  0  0  0  0
  5 38  1  0  0  0  0
  5 39  1  0  0  0  0
  6 28  1  0  0  0  0
  6 40  1  0  0  0  0
  6 41  1  0  0  0  0
  7 16  1  0  0  0  0
  7 42  1  0  0  0  0
  7 43  1  0  0  0  0
  8  9  1  0  0  0  0
  8 44  1  0  0  0  0
  8 45  1  0  0  0  0
  9 12  1  0  0  0  0
  9 46  1  0  0  0  0
  9 47  1  0  0  0  0
 10 20  1  0  0  0  0
 10 11  1  6  0  0  0
 12 13  1  6  0  0  0
 14  1  1  0  0  0  0
 14 10  1  0  0  0  0
 14 12  1  0  0  0  0
 14 15  1  1  0  0  0
 16 17  1  0  0  0  0
 16 12  1  0  0  0  0
 16 27  1  1  0  0  0
 17  8  1  0  0  0  0
 17 22  1  6  0  0  0
 17 26  1  0  0  0  0
 18  5  1  0  0  0  0
 18 19  2  0  0  0  0
 20  7  1  0  0  0  0
 20 21  1  0  0  0  0
 20 48  1  6  0  0  0
 21 49  1  0  0  0  0
 22 24  1  0  0  0  0
 22 23  2  0  0  0  0
 24 25  1  0  0  0  0
 24 50  1  0  0  0  0
 24 51  1  0  0  0  0
 25 30  1  0  0  0  0
 26 52  1  0  0  0  0
 27 53  1  0  0  0  0
 27 54  1  0  0  0  0
 27 55  1  0  0  0  0
 28 10  1  0  0  0  0
 28 29  1  1  0  0  0
 29 56  1  0  0  0  0
 29 57  1  0  0  0  0
 29 58  1  0  0  0  0
 30 31  2  0  0  0  0
 30 32  1  0  0  0  0
 32 59  1  0  0  0  0
 32 60  1  0  0  0  0
 32 61  1  0  0  0  0
M  END
>  <DRUGBANK_ID>
DB14539

>  <SECONDARY_ACCESSION_NUMBERS>
DBSALT000369

>  <COMMON_NAME>
Hydrocortisone acetate

>  <CAS_NUMBER>
50-03-3

>  <UNII>
3X7931PO74

>  <SYNONYMS>
21-O-acetylcortisol; Cortisol 21-acetate; Hydrocortisone 21-acetate; Hydrocortisone acetate

$$$$
