1607
 OpenBabel10282417123D

 41 43  0  0  1  0  0  0  0  0999 V2000
    0.9131   -0.9012   -0.6034 S   0  0  0  0  0  0  0  0  0  0  0  0
    0.6550   -3.4423    2.4361 S   0  0  0  0  0  0  0  0  0  0  0  0
   -2.7802    1.3157   -0.6567 O   0  0  0  0  0  0  0  0  0  0  0  0
   -0.4932    3.7073    0.9522 O   0  0  0  0  0  0  0  0  0  0  0  0
    1.1365    2.6991    2.0969 O   0  0  0  0  0  0  0  0  0  0  0  0
   -2.2110   -3.9055   -2.3437 O   0  0  0  0  0  0  0  0  0  0  0  0
   -4.7907   -4.7007    0.8737 O   0  0  0  0  0  0  0  0  0  0  0  0
   -3.9906   -2.6756    1.2376 O   0  0  0  0  0  0  0  0  0  0  0  0
   -0.8393    0.7111    0.5008 N   0  0  0  0  0  0  0  0  0  0  0  0
   -1.9907   -1.9850   -1.2125 N   0  0  0  0  0  0  0  0  0  0  0  0
   -0.5051   -0.6770    0.5331 C   0  0  1  0  0  0  0  0  0  0  0  0
    1.5596    0.6931   -0.0111 C   0  0  0  0  0  0  0  0  0  0  0  0
    0.2651    1.5737    0.1059 C   0  0  2  0  0  0  0  0  0  0  0  0
   -1.9014   -1.0357   -0.0304 C   0  0  1  0  0  0  0  0  0  0  0  0
   -2.0093    0.5021   -0.1673 C   0  0  0  0  0  0  0  0  0  0  0  0
    2.4789    1.1613   -1.1221 C   0  0  0  0  0  0  0  0  0  0  0  0
    2.3510    0.4085    1.2833 C   0  0  0  0  0  0  0  0  0  0  0  0
    0.3834    2.6958    1.1350 C   0  0  0  0  0  0  0  0  0  0  0  0
   -2.2326   -3.3583   -1.2295 C   0  0  0  0  0  0  0  0  0  0  0  0
   -2.5314   -4.2544    0.0445 C   0  0  1  0  0  0  0  0  0  0  0  0
   -1.3590   -4.4091    1.0347 C   0  0  0  0  0  0  0  0  0  0  0  0
   -3.8067   -3.7837    0.7559 C   0  0  0  0  0  0  0  0  0  0  0  0
   -0.8052   -5.4765    1.8130 C   0  0  0  0  0  0  0  0  0  0  0  0
   -0.4712   -3.4065    1.2075 C   0  0  0  0  0  0  0  0  0  0  0  0
    0.2406   -5.0714    2.6438 C   0  0  0  0  0  0  0  0  0  0  0  0
   -0.3066   -0.9365    1.5777 H   0  0  0  0  0  0  0  0  0  0  0  0
   -1.1722    3.5460    0.2681 H   0  0  0  0  0  0  0  0  0  0  0  0
   -4.6185   -5.5854    0.5110 H   0  0  0  0  0  0  0  0  0  0  0  0
   -1.8061   -1.6128   -2.1463 H   0  0  0  0  0  0  0  0  0  0  0  0
   -0.0001    1.9785   -0.8762 H   0  0  0  0  0  0  0  0  0  0  0  0
   -2.5193   -1.3897    0.7740 H   0  0  0  0  0  0  0  0  0  0  0  0
    2.8604    2.1555   -0.8899 H   0  0  0  0  0  0  0  0  0  0  0  0
    3.3328    0.4836   -1.2516 H   0  0  0  0  0  0  0  0  0  0  0  0
    1.9475    1.2116   -2.0806 H   0  0  0  0  0  0  0  0  0  0  0  0
    3.1445   -0.3380    1.1491 H   0  0  0  0  0  0  0  0  0  0  0  0
    2.8679    1.3102    1.6223 H   0  0  0  0  0  0  0  0  0  0  0  0
    1.7141    0.0607    2.1070 H   0  0  0  0  0  0  0  0  0  0  0  0
   -2.7218   -5.2613   -0.3529 H   0  0  0  0  0  0  0  0  0  0  0  0
   -1.1268   -6.5030    1.7804 H   0  0  0  0  0  0  0  0  0  0  0  0
   -0.4571   -2.6500    0.5082 H   0  0  0  0  0  0  0  0  0  0  0  0
    0.8387   -5.6151    3.3532 H   0  0  0  0  0  0  0  0  0  0  0  0
  1 11  1  0  0  0  0
  1 12  1  0  0  0  0
  2 24  1  0  0  0  0
  2 25  1  0  0  0  0
  3 15  2  0  0  0  0
  4 18  1  0  0  0  0
  4 27  1  0  0  0  0
  5 18  2  0  0  0  0
  6 19  2  0  0  0  0
  7 22  1  0  0  0  0
  7 28  1  0  0  0  0
  8 22  2  0  0  0  0
  9 11  1  0  0  0  0
  9 13  1  0  0  0  0
  9 15  1  0  0  0  0
 10 19  1  0  0  0  0
 10 29  1  0  0  0  0
 11 14  1  0  0  0  0
 11 26  1  1  0  0  0
 12 13  1  0  0  0  0
 12 16  1  0  0  0  0
 12 17  1  0  0  0  0
 13 30  1  6  0  0  0
 13 18  1  0  0  0  0
 14 15  1  0  0  0  0
 14 31  1  1  0  0  0
 14 10  1  0  0  0  0
 16 32  1  0  0  0  0
 16 33  1  0  0  0  0
 16 34  1  0  0  0  0
 17 35  1  0  0  0  0
 17 36  1  0  0  0  0
 17 37  1  0  0  0  0
 20 19  1  0  0  0  0
 20 21  1  0  0  0  0
 20 22  1  0  0  0  0
 20 38  1  6  0  0  0
 21 23  1  0  0  0  0
 21 24  2  0  0  0  0
 23 25  2  0  0  0  0
 23 39  1  0  0  0  0
 24 40  1  0  0  0  0
 25 41  1  0  0  0  0
M  END
>  <DRUGBANK_ID>
DB01607

>  <COMMON_NAME>
Ticarcillin

>  <CAS_NUMBER>
34787-01-4

>  <UNII>
F93UJX4SWT

>  <SYNONYMS>
(2S,5R,6R)-6-{[(2R)-2-carboxy-2-thiophen-3-ylacetyl]amino}-3,3-dimethyl-7-oxo-4-thia-1-azabicyclo[3.2.0]heptane-2-carboxylic acid; Ticarcilina; Ticarcillin; Ticarcilline; Ticarcillinum; Î±-carboxy-3-thienylmethylpenicillin

$$$$
