
 OpenBabel10282417133D

 22 22  0  0  1  0  0  0  0  0999 V2000
    0.9069    0.0064   -0.0206 C   0  0  0  0  0  0  0  0  0  0  0  0
    0.1579   -1.2538   -2.1866 C   0  0  0  0  0  0  0  0  0  0  0  0
    1.0982    2.5636    0.3067 C   0  0  0  0  0  0  0  0  0  0  0  0
   -0.3851    0.3724   -3.4589 C   0  0  0  0  0  0  0  0  0  0  0  0
    0.4877    1.2329    0.8075 C   0  0  1  0  0  0  0  0  0  0  0  0
    0.3183   -0.1291   -1.4038 C   0  0  0  0  0  0  0  0  0  0  0  0
   -1.0115    1.2825    0.8429 N   0  3  0  0  0  0  0  0  0  0  0  0
   -0.2759   -0.9258   -3.4451 N   0  0  0  0  0  0  0  0  0  0  0  0
   -0.1419    0.8883   -2.2231 N   0  0  0  0  0  0  0  0  0  0  0  0
    0.9038    2.7823   -1.0825 O   0  0  0  0  0  0  0  0  0  0  0  0
    0.7934    1.1068    1.8534 H   0  0  0  0  0  0  0  0  0  0  0  0
    0.6169   -0.8898    0.5471 H   0  0  0  0  0  0  0  0  0  0  0  0
    2.0028   -0.0245   -0.0821 H   0  0  0  0  0  0  0  0  0  0  0  0
    0.3682   -2.2830   -1.9256 H   0  0  0  0  0  0  0  0  0  0  0  0
    0.6576    3.4166    0.8298 H   0  0  0  0  0  0  0  0  0  0  0  0
    2.1780    2.5734    0.4850 H   0  0  0  0  0  0  0  0  0  0  0  0
   -0.6305    1.0039   -4.3083 H   0  0  0  0  0  0  0  0  0  0  0  0
   -1.3897    0.4423    1.3046 H   0  0  0  0  0  0  0  0  0  0  0  0
   -1.3803    2.1034    1.3383 H   0  0  0  0  0  0  0  0  0  0  0  0
   -1.4158    1.2853   -0.1023 H   0  0  0  0  0  0  0  0  0  0  0  0
   -0.1634    1.8802   -2.0224 H   0  0  0  0  0  0  0  0  0  0  0  0
    1.6783    2.3815   -1.5412 H   0  0  0  0  0  0  0  0  0  0  0  0
  1 12  1  0  0  0  0
  1 13  1  0  0  0  0
  2 14  1  0  0  0  0
  3 15  1  0  0  0  0
  3 16  1  0  0  0  0
  4 17  1  0  0  0  0
  5  1  1  0  0  0  0
  5  3  1  0  0  0  0
  5  7  1  0  0  0  0
  5 11  1  1  0  0  0
  6  1  1  0  0  0  0
  6  2  2  0  0  0  0
  7 18  1  0  0  0  0
  7 19  1  0  0  0  0
  7 20  1  0  0  0  0
  8  2  1  0  0  0  0
  8  4  2  0  0  0  0
  9  4  1  0  0  0  0
  9  6  1  0  0  0  0
  9 21  1  0  0  0  0
 10  3  1  0  0  0  0
 10 22  1  0  0  0  0
M  CHG  1   7   1
M  END
>  <DRUGBANK_ID>
DB03811

>  <SECONDARY_ACCESSION_NUMBERS>
EXPT01786

>  <COMMON_NAME>
Histidinol

$$$$
