
 OpenBabel10282417123D

 67 69  0  0  1  0  0  0  0  0999 V2000
    1.1309   -0.5104   -0.5772 C   0  0  0  0  0  0  0  0  0  0  0  0
    0.5878   -0.3323    1.5559 C   0  0  0  0  0  0  0  0  0  0  0  0
    0.0757    1.5195    3.8713 C   0  0  0  0  0  0  0  0  0  0  0  0
   -0.0419    1.0302    0.0814 C   0  0  2  0  0  0  0  0  0  0  0  0
    1.9007    0.9379    0.6616 C   0  0  2  0  0  0  0  0  0  0  0  0
   -0.7223    2.2698    2.8226 C   0  0  2  0  0  0  0  0  0  0  0  0
    1.3566    2.1078   -0.8056 C   0  0  2  0  0  0  0  0  0  0  0  0
    2.1117    3.5836   -1.4977 C   0  0  1  0  0  0  0  0  0  0  0  0
   -0.0491    3.2748   -1.9381 C   0  0  2  0  0  0  0  0  0  0  0  0
   -0.8130    4.6153    1.8411 C   0  0  2  0  0  0  0  0  0  0  0  0
    0.4073    4.6528   -0.4725 C   0  0  2  0  0  0  0  0  0  0  0  0
    3.2298    3.5669   -0.5214 C   0  0  2  0  0  0  0  0  0  0  0  0
   -2.1483    4.1275    0.6319 C   0  0  2  0  0  0  0  0  0  0  0  0
   -0.7543    1.5160   -1.4240 C   0  0  2  0  0  0  0  0  0  0  0  0
    0.2273    3.5613    2.8755 C   0  0  2  0  0  0  0  0  0  0  0  0
    1.2332    3.8727    0.9244 C   0  0  0  0  0  0  0  0  0  0  0  0
    3.1489    2.7209    1.2192 C   0  0  2  0  0  0  0  0  0  0  0  0
   -2.4475    2.5595    0.6920 C   0  0  2  0  0  0  0  0  0  0  0  0
    0.6913    2.3592    1.1757 N   0  0  0  0  0  0  0  0  0  0  0  0
    2.1039    4.8511    1.9929 N   0  0  0  0  0  0  0  0  0  0  0  0
    0.7290   -0.9125   -1.8078 O   0  0  0  0  0  0  0  0  0  0  0  0
    1.1700   -1.0957    2.5382 O   0  0  0  0  0  0  0  0  0  0  0  0
   -0.5116    0.2850    4.1200 O   0  0  0  0  0  0  0  0  0  0  0  0
   -0.2193    2.8306   -0.1719 O   0  0  0  0  0  0  0  0  0  0  0  0
    1.8392    4.3214   -2.9564 O   0  0  0  0  0  0  0  0  0  0  0  0
    0.9367    2.5299   -3.0775 O   0  0  0  0  0  0  0  0  0  0  0  0
   -0.0272    5.9210    1.7492 O   0  0  0  0  0  0  0  0  0  0  0  0
   -0.4748    5.7626   -0.4907 O   0  0  0  0  0  0  0  0  0  0  0  0
    3.7228    4.8758   -0.6077 O   0  0  0  0  0  0  0  0  0  0  0  0
   -2.4672    4.6631   -0.7295 O   0  0  0  0  0  0  0  0  0  0  0  0
    2.5821    6.1122    1.7907 O   0  0  0  0  0  0  0  0  0  0  0  0
    3.1995    1.2358    1.0991 O   0  0  0  0  0  0  0  0  0  0  0  0
   -2.0784    2.0945    2.1397 O   0  0  0  0  0  0  0  0  0  0  0  0
   -2.1488    1.7477   -0.8525 O   0  0  0  0  0  0  0  0  0  0  0  0
    2.0845    3.0232    2.7112 O   0  0  0  0  0  0  0  0  0  0  0  0
   -0.9982    0.7422    0.5877 H   0  0  0  0  0  0  0  0  0  0  0  0
    1.7619    1.9257    0.2717 H   0  0  0  0  0  0  0  0  0  0  0  0
   -0.4260    1.4695    2.2024 H   0  0  0  0  0  0  0  0  0  0  0  0
    1.3737    1.3404   -1.5548 H   0  0  0  0  0  0  0  0  0  0  0  0
    1.4954    4.4661   -1.6678 H   0  0  0  0  0  0  0  0  0  0  0  0
   -0.8468    3.8120   -2.3148 H   0  0  0  0  0  0  0  0  0  0  0  0
   -0.4768    4.0340    1.1069 H   0  0  0  0  0  0  0  0  0  0  0  0
    1.2683    5.3766   -0.5292 H   0  0  0  0  0  0  0  0  0  0  0  0
    3.7624    2.8355   -1.1509 H   0  0  0  0  0  0  0  0  0  0  0  0
   -2.8020    4.7782    1.1559 H   0  0  0  0  0  0  0  0  0  0  0  0
   -0.3566    1.0517   -2.3436 H   0  0  0  0  0  0  0  0  0  0  0  0
    0.2856    4.3527    3.6115 H   0  0  0  0  0  0  0  0  0  0  0  0
    4.1946    2.9667    1.4280 H   0  0  0  0  0  0  0  0  0  0  0  0
   -3.5362    2.4415    0.5643 H   0  0  0  0  0  0  0  0  0  0  0  0
    1.4277   -1.3804    0.0994 H   0  0  0  0  0  0  0  0  0  0  0  0
    2.2452   -0.2836   -0.6695 H   0  0  0  0  0  0  0  0  0  0  0  0
   -0.5547   -0.2649    1.7908 H   0  0  0  0  0  0  0  0  0  0  0  0
    0.0214   -1.1109    0.8503 H   0  0  0  0  0  0  0  0  0  0  0  0
    1.1567    1.3698    3.5809 H   0  0  0  0  0  0  0  0  0  0  0  0
    0.0832    2.1922    4.7096 H   0  0  0  0  0  0  0  0  0  0  0  0
    2.3423    4.4567    2.9650 H   0  0  0  0  0  0  0  0  0  0  0  0
    1.0355   -0.1733   -2.3516 H   0  0  0  0  0  0  0  0  0  0  0  0
    1.8764   -0.4717    2.7302 H   0  0  0  0  0  0  0  0  0  0  0  0
   -1.1409    0.1565    3.3877 H   0  0  0  0  0  0  0  0  0  0  0  0
   -1.1716    2.8308   -0.5926 H   0  0  0  0  0  0  0  0  0  0  0  0
    0.9664    3.9426   -3.3636 H   0  0  0  0  0  0  0  0  0  0  0  0
    1.9482    2.4622   -2.8947 H   0  0  0  0  0  0  0  0  0  0  0  0
   -0.0203    6.6439    1.0710 H   0  0  0  0  0  0  0  0  0  0  0  0
   -1.0009    5.8251    0.3321 H   0  0  0  0  0  0  0  0  0  0  0  0
    3.0950    5.4665   -0.1541 H   0  0  0  0  0  0  0  0  0  0  0  0
   -2.1761    4.3419   -1.6118 H   0  0  0  0  0  0  0  0  0  0  0  0
    1.8923    6.4566    1.2231 H   0  0  0  0  0  0  0  0  0  0  0  0
  1 50  1  0  0  0  0
  1 51  1  0  0  0  0
  2 52  1  0  0  0  0
  2 53  1  0  0  0  0
  3 54  1  0  0  0  0
  3 55  1  0  0  0  0
  4  1  1  0  0  0  0
  4 36  1  1  0  0  0
  5  2  1  0  0  0  0
  5 37  1  1  0  0  0
  6  3  1  0  0  0  0
  6 38  1  6  0  0  0
  7  5  1  0  0  0  0
  7 24  1  0  0  0  0
  7 39  1  6  0  0  0
  8  7  1  0  0  0  0
  8 25  1  0  0  0  0
  8 40  1  1  0  0  0
  9 26  1  0  0  0  0
  9 41  1  6  0  0  0
 10 27  1  0  0  0  0
 10 42  1  6  0  0  0
 11  9  1  0  0  0  0
 11 43  1  6  0  0  0
 11 28  1  0  0  0  0
 12  8  1  0  0  0  0
 12 29  1  0  0  0  0
 12 44  1  6  0  0  0
 13 10  1  0  0  0  0
 13 30  1  0  0  0  0
 13 45  1  1  0  0  0
 14  4  1  0  0  0  0
 14  9  1  0  0  0  0
 14 34  1  0  0  0  0
 14 46  1  6  0  0  0
 15  6  1  0  0  0  0
 15 10  1  0  0  0  0
 15 35  1  0  0  0  0
 15 47  1  1  0  0  0
 16 11  1  0  0  0  0
 17 12  1  0  0  0  0
 17 35  1  0  0  0  0
 17 48  1  1  0  0  0
 18 13  1  0  0  0  0
 18 34  1  0  0  0  0
 18 49  1  1  0  0  0
 19  4  1  0  0  0  0
 19 16  2  0  0  0  0
 20 16  1  0  0  0  0
 20 56  1  0  0  0  0
 21  1  1  0  0  0  0
 21 57  1  0  0  0  0
 22  2  1  0  0  0  0
 22 58  1  0  0  0  0
 23  3  1  0  0  0  0
 23 59  1  0  0  0  0
 24 60  1  0  0  0  0
 25 61  1  0  0  0  0
 26 62  1  0  0  0  0
 27 63  1  0  0  0  0
 28 64  1  0  0  0  0
 29 65  1  0  0  0  0
 30 66  1  0  0  0  0
 31 20  1  0  0  0  0
 31 67  1  0  0  0  0
 32  5  1  0  0  0  0
 32 17  1  0  0  0  0
 33  6  1  0  0  0  0
 33 18  1  0  0  0  0
M  END
>  <DRUGBANK_ID>
DB01922

>  <SECONDARY_ACCESSION_NUMBERS>
EXPT01998

>  <COMMON_NAME>
Maltosyl-Alpha (1,4)-D-Gluconhydroximo-1,5-Lactam

$$$$
