
 OpenBabel10282417233D

 33 36  0  0  0  0  0  0  0  0999 V2000
   -0.0060    0.8559    0.5557 C   0  0  0  0  0  0  0  0  0  0  0  0
    0.8010    0.2708    1.4715 C   0  0  0  0  0  0  0  0  0  0  0  0
    1.3622    1.2481    2.3040 C   0  0  0  0  0  0  0  0  0  0  0  0
   -0.9998    1.6216    1.2207 C   0  0  0  0  0  0  0  0  0  0  0  0
   -0.7898    2.3005    2.5369 C   0  0  0  0  0  0  0  0  0  0  0  0
    0.5419    2.2139    2.9528 C   0  0  0  0  0  0  0  0  0  0  0  0
    1.0269    3.0264    4.0213 C   0  0  0  0  0  0  0  0  0  0  0  0
    0.2105    3.8064    4.8405 C   0  0  0  0  0  0  0  0  0  0  0  0
   -1.6581    3.0308    3.4971 C   0  0  0  0  0  0  0  0  0  0  0  0
   -1.1504    3.7801    4.6237 C   0  0  0  0  0  0  0  0  0  0  0  0
   -3.9765    3.2856    4.6702 C   0  0  0  0  0  0  0  0  0  0  0  0
   -3.1547    3.0346    3.3798 C   0  0  0  0  0  0  0  0  0  0  0  0
   -3.4395    4.2577    5.5762 C   0  0  0  0  0  0  0  0  0  0  0  0
   -2.0854    4.4624    5.5184 C   0  0  0  0  0  0  0  0  0  0  0  0
   -1.7113    5.4107    6.4215 O   0  0  0  0  0  0  0  0  0  0  0  0
   -2.8636    5.8264    7.0441 C   0  0  0  0  0  0  0  0  0  0  0  0
   -3.9637    5.1304    6.5677 C   0  0  0  0  0  0  0  0  0  0  0  0
   -5.0169    2.6517    4.9101 O   0  0  0  0  0  0  0  0  0  0  0  0
   -3.7274    2.9388    2.2945 O   0  0  0  0  0  0  0  0  0  0  0  0
    2.8348    1.4610    2.1333 C   0  0  0  0  0  0  0  0  0  0  0  0
   -5.3891    5.2920    6.9549 C   0  0  0  0  0  0  0  0  0  0  0  0
    0.6115    1.2700   -0.2705 H   0  0  0  0  0  0  0  0  0  0  0  0
    0.1774   -0.4931    1.9884 H   0  0  0  0  0  0  0  0  0  0  0  0
   -2.0188    1.4151    0.8920 H   0  0  0  0  0  0  0  0  0  0  0  0
    2.0810    3.0055    4.2852 H   0  0  0  0  0  0  0  0  0  0  0  0
    0.6466    4.3596    5.6716 H   0  0  0  0  0  0  0  0  0  0  0  0
   -2.7466    6.6166    7.7796 H   0  0  0  0  0  0  0  0  0  0  0  0
    3.3303    0.4914    2.1835 H   0  0  0  0  0  0  0  0  0  0  0  0
    3.0137    1.9232    1.1547 H   0  0  0  0  0  0  0  0  0  0  0  0
    3.2665    2.1093    2.8924 H   0  0  0  0  0  0  0  0  0  0  0  0
   -5.5357    5.0823    8.0188 H   0  0  0  0  0  0  0  0  0  0  0  0
   -5.7364    6.3100    6.7474 H   0  0  0  0  0  0  0  0  0  0  0  0
   -6.0284    4.6077    6.3887 H   0  0  0  0  0  0  0  0  0  0  0  0
  1  2  2  0  0  0  0
  1 22  1  0  0  0  0
  2  3  1  0  0  0  0
  2 23  1  0  0  0  0
  3  6  2  0  0  0  0
  3 20  1  0  0  0  0
  4  1  1  0  0  0  0
  4 24  1  0  0  0  0
  5  6  1  0  0  0  0
  5  4  2  0  0  0  0
  6  7  1  0  0  0  0
  7  8  2  0  0  0  0
  7 25  1  0  0  0  0
  8 10  1  0  0  0  0
  8 26  1  0  0  0  0
  9 12  1  0  0  0  0
  9  5  1  0  0  0  0
  9 10  2  0  0  0  0
 10 14  1  0  0  0  0
 11 12  1  0  0  0  0
 11 18  2  0  0  0  0
 12 19  2  0  0  0  0
 13 11  1  0  0  0  0
 13 14  2  0  0  0  0
 14 15  1  0  0  0  0
 15 16  1  0  0  0  0
 16 17  2  0  0  0  0
 16 27  1  0  0  0  0
 17 13  1  0  0  0  0
 17 21  1  0  0  0  0
 20 28  1  0  0  0  0
 20 29  1  0  0  0  0
 20 30  1  0  0  0  0
 21 31  1  0  0  0  0
 21 32  1  0  0  0  0
 21 33  1  0  0  0  0
M  END
>  <DRUGBANK_ID>
DB16886

>  <COMMON_NAME>
Tanshinone I

>  <CAS_NUMBER>
568-73-0

>  <UNII>
03UUH3J385

>  <SYNONYMS>
Tanshinon I; Tanshinone A

$$$$
