
 OpenBabel10282417123D

 30 29  0  0  1  0  0  0  0  0999 V2000
    5.1524   -1.5129    0.1742 O   0  0  0  0  0  0  0  0  0  0  0  0
    3.8903   -1.0898   -0.3209 C   0  0  0  0  0  0  0  0  0  0  0  0
    4.0600    0.0471   -1.3113 C   0  0  0  0  0  0  0  0  0  0  0  0
    4.9156   -0.3199   -2.5352 C   0  0  1  0  0  0  0  0  0  0  0  0
    4.3317   -1.4119   -3.2553 O   0  0  0  0  0  0  0  0  0  0  0  0
    5.1660    0.8193   -3.5599 C   0  0  2  0  0  0  0  0  0  0  0  0
    6.5436    0.8230   -3.9946 O   0  0  0  0  0  0  0  0  0  0  0  0
    4.7838    2.2082   -3.0322 C   0  0  2  0  0  0  0  0  0  0  0  0
    3.3631    2.3566   -2.9784 O   0  0  0  0  0  0  0  0  0  0  0  0
    5.3131    3.3082   -3.8763 C   0  0  0  0  0  0  0  0  0  0  0  0
    6.1150    4.2616   -3.3661 C   0  0  0  0  0  0  0  0  0  0  0  0
    6.3809    5.7795   -4.1530 P   0  0  0  0  0  0  0  0  0  0  0  0
    4.9828    5.9793   -4.9252 O   0  0  0  0  0  0  0  0  0  0  0  0
    6.2103    6.8178   -2.9397 O   0  0  0  0  0  0  0  0  0  0  0  0
    7.5351    6.1267   -5.0354 O   0  0  0  0  0  0  0  0  0  0  0  0
    5.6746   -1.8799   -0.5576 H   0  0  0  0  0  0  0  0  0  0  0  0
    3.3662   -1.9383   -0.7671 H   0  0  0  0  0  0  0  0  0  0  0  0
    3.2984   -0.7429    0.5313 H   0  0  0  0  0  0  0  0  0  0  0  0
    3.0626    0.3740   -1.6211 H   0  0  0  0  0  0  0  0  0  0  0  0
    4.5419    0.8649   -0.7622 H   0  0  0  0  0  0  0  0  0  0  0  0
    5.8872   -0.6789   -2.1834 H   0  0  0  0  0  0  0  0  0  0  0  0
    4.1887   -2.1611   -2.6567 H   0  0  0  0  0  0  0  0  0  0  0  0
    4.5775    0.6191   -4.4641 H   0  0  0  0  0  0  0  0  0  0  0  0
    7.0783    0.2473   -3.4261 H   0  0  0  0  0  0  0  0  0  0  0  0
    5.1570    2.3451   -2.0127 H   0  0  0  0  0  0  0  0  0  0  0  0
    3.0632    2.8586   -3.7556 H   0  0  0  0  0  0  0  0  0  0  0  0
    4.9500    3.3689   -4.8949 H   0  0  0  0  0  0  0  0  0  0  0  0
    6.4556    4.1588   -2.3440 H   0  0  0  0  0  0  0  0  0  0  0  0
    5.0192    5.5264   -5.7882 H   0  0  0  0  0  0  0  0  0  0  0  0
    6.3608    6.4183   -2.0638 H   0  0  0  0  0  0  0  0  0  0  0  0
  1  2  1  0  0  0  0
  1 16  1  0  0  0  0
  2  3  1  0  0  0  0
  2 17  1  0  0  0  0
  2 18  1  0  0  0  0
  3  4  1  0  0  0  0
  3 19  1  0  0  0  0
  3 20  1  0  0  0  0
  4  5  1  0  0  0  0
  4 21  1  1  0  0  0
  5 22  1  0  0  0  0
  6 23  1  6  0  0  0
  6  7  1  0  0  0  0
  6  4  1  0  0  0  0
  7 24  1  0  0  0  0
  8 10  1  0  0  0  0
  8 25  1  1  0  0  0
  8  9  1  0  0  0  0
  8  6  1  0  0  0  0
  9 26  1  0  0  0  0
 10 11  2  0  0  0  0
 10 27  1  0  0  0  0
 11 12  1  0  0  0  0
 11 28  1  0  0  0  0
 12 13  1  0  0  0  0
 12 14  1  0  0  0  0
 12 15  2  0  0  0  0
 13 29  1  0  0  0  0
 14 30  1  0  0  0  0
M  END
>  <DRUGBANK_ID>
DB01840

>  <SECONDARY_ACCESSION_NUMBERS>
EXPT01100

>  <COMMON_NAME>
2-Deoxy-D-Glucitol 6-(E)-Vinylhomophosphonate

$$$$
