
 OpenBabel10282417193D

200205  0  0  1  0  0  0  0  0999 V2000
   -3.2981   -6.9060    3.7568 C   0  0  0  0  0  0  0  0  0  0  0  0
   -2.1893   -6.6583    4.6393 N   0  0  0  0  0  0  0  0  0  0  0  0
   -1.2605   -5.8911    4.0244 C   0  0  2  0  0  0  0  0  0  0  0  0
   -1.9119   -4.3612    3.7254 C   0  0  0  0  0  0  0  0  0  0  0  0
   -1.3267   -3.5245    2.7074 C   0  0  0  0  0  0  0  0  0  0  0  0
   -2.3271   -3.0191    1.7622 C   0  0  0  0  0  0  0  0  0  0  0  0
   -1.7389   -3.7328    0.6066 C   0  0  1  0  0  0  0  0  0  0  0  0
   -1.1476   -4.6206    0.8878 H   0  0  0  0  0  0  0  0  0  0  0  0
   -2.8456   -4.3505   -0.1731 C   0  0  1  0  0  0  0  0  0  0  0  0
   -2.2930   -5.5299   -0.9570 C   0  0  2  0  0  0  0  0  0  0  0  0
   -2.2982   -6.7938   -0.1580 C   0  0  0  0  0  0  0  0  0  0  0  0
   -2.4896   -6.6971    1.0460 O   0  0  0  0  0  0  0  0  0  0  0  0
   -1.9176   -8.1036   -0.8327 C   0  0  0  0  0  0  0  0  0  0  0  0
   -2.3942   -8.0315   -2.2849 C   0  0  0  0  0  0  0  0  0  0  0  0
   -0.3791   -8.2324   -0.8314 C   0  0  0  0  0  0  0  0  0  0  0  0
   -2.5580   -9.3589   -0.1302 C   0  0  1  0  0  0  0  0  0  0  0  0
   -1.5832  -10.3974   -0.2353 O   0  0  0  0  0  0  0  0  0  0  0  0
   -2.9746   -9.2127    1.3472 C   0  0  0  0  0  0  0  0  0  0  0  0
   -2.9174  -10.4616    2.2125 C   0  0  0  0  0  0  0  0  0  0  0  0
   -2.6439  -11.5735    1.7907 O   0  0  0  0  0  0  0  0  0  0  0  0
   -3.0597  -10.2726    3.5502 O   0  0  0  0  0  0  0  0  0  0  0  0
   -1.9113   -9.7310    4.2360 C   0  0  2  0  0  0  0  0  0  0  0  0
   -1.1369  -10.8621    4.7278 C   0  0  0  0  0  0  0  0  0  0  0  0
    0.2860  -10.8680    4.3227 C   0  0  0  0  0  0  0  0  0  0  0  0
   -1.7298  -11.7415    5.5464 C   0  0  0  0  0  0  0  0  0  0  0  0
   -1.0540  -12.8622    6.0376 C   0  0  0  0  0  0  0  0  0  0  0  0
   -1.5610  -14.1301    5.9510 C   0  0  0  0  0  0  0  0  0  0  0  0
   -0.3393  -15.2251    6.4296 S   0  0  0  0  0  0  0  0  0  0  0  0
    0.7304  -13.9052    6.7139 C   0  0  0  0  0  0  0  0  0  0  0  0
    2.1207  -14.1321    7.1748 C   0  0  0  0  0  0  0  0  0  0  0  0
    0.2256  -12.7167    6.4989 N   0  0  0  0  0  0  0  0  0  0  0  0
   -2.0702   -8.8292    5.4708 C   0  0  0  0  0  0  0  0  0  0  0  0
   -1.3062   -7.5688    5.0855 C   0  0  2  0  0  0  0  0  0  0  0  0
   -0.8393   -5.3360   -1.3742 C   0  0  0  0  0  0  0  0  0  0  0  0
   -3.9490   -4.7570    0.6570 O   0  0  0  0  0  0  0  0  0  0  0  0
   -0.7197   -2.7699   -0.0156 C   0  0  0  0  0  0  0  0  0  0  0  0
   -4.3557   -7.8727    4.1783 C   0  0  0  0  0  0  0  0  0  0  0  0
   -5.3593   -8.1248    3.2624 O   0  0  0  0  0  0  0  0  0  0  0  0
   -6.1932   -7.0938    3.1821 C   0  0  0  0  0  0  0  0  0  0  0  0
   -6.0184   -5.9364    3.5157 O   0  0  0  0  0  0  0  0  0  0  0  0
   -7.3318   -7.5816    2.6948 O   0  0  0  0  0  0  0  0  0  0  0  0
   -8.3070   -6.5838    2.8541 C   0  0  0  0  0  0  0  0  0  0  0  0
   -9.0584   -6.7557    4.1763 C   0  0  0  0  0  0  0  0  0  0  0  0
   -8.5653   -6.3534    5.8990 S   0  0  0  0  0  0  0  0  0  0  0  0
   -7.1244   -7.6316    6.4863 S   0  0  0  0  0  0  0  0  0  0  0  0
   -5.9540   -6.6632    7.6226 C   0  0  0  0  0  0  0  0  0  0  0  0
   -5.4362   -4.9937    7.8072 C   0  0  1  0  0  0  0  0  0  0  0  0
   -6.4650   -3.9324    7.3874 C   0  0  0  0  0  0  0  0  0  0  0  0
   -6.6162   -2.8573    7.9408 O   0  0  0  0  0  0  0  0  0  0  0  0
   -6.8982   -4.1433    6.1224 O   0  0  0  0  0  0  0  0  0  0  0  0
   -4.0310   -4.8474    8.5729 N   0  0  0  0  0  0  0  0  0  0  0  0
   -2.6873   -4.5838    8.2394 C   0  0  0  0  0  0  0  0  0  0  0  0
   -1.9277   -4.4012    9.1916 O   0  0  0  0  0  0  0  0  0  0  0  0
   -2.0675   -4.6347    6.8060 C   0  0  2  0  0  0  0  0  0  0  0  0
   -3.2305   -4.6797    5.9194 C   0  0  0  0  0  0  0  0  0  0  0  0
   -3.9442   -5.8780    6.1067 C   0  0  0  0  0  0  0  0  0  0  0  0
   -5.0367   -5.9291    5.5775 O   0  0  0  0  0  0  0  0  0  0  0  0
   -3.3625   -6.7745    6.9145 O   0  0  0  0  0  0  0  0  0  0  0  0
   -0.6556   -5.4323    6.7325 N   0  0  0  0  0  0  0  0  0  0  0  0
    0.6706   -5.3067    6.1274 C   0  0  0  0  0  0  0  0  0  0  0  0
    1.4360   -6.2715    6.2661 O   0  0  0  0  0  0  0  0  0  0  0  0
    1.1318   -3.9886    5.0855 C   0  0  2  0  0  0  0  0  0  0  0  0
    1.2885   -4.2038    3.5267 C   0  0  0  0  0  0  0  0  0  0  0  0
    2.5388   -4.6454    2.9063 C   0  0  0  0  0  0  0  0  0  0  0  0
    2.6499   -6.0482    3.4039 C   0  0  0  0  0  0  0  0  0  0  0  0
    1.5431   -6.8814    2.9100 N   0  0  0  0  0  0  0  0  0  0  0  0
    1.8174   -7.9977    2.2425 C   0  0  0  0  0  0  0  0  0  0  0  0
    0.7804   -8.8122    2.0328 N   0  0  0  0  0  0  0  0  0  0  0  0
    3.0070   -8.2508    1.8557 N   0  0  0  0  0  0  0  0  0  0  0  0
    2.1814   -3.0391    5.5972 N   0  0  0  0  0  0  0  0  0  0  0  0
    2.2915   -1.7807    6.1776 C   0  0  0  0  0  0  0  0  0  0  0  0
    3.4341   -1.4783    6.5444 O   0  0  0  0  0  0  0  0  0  0  0  0
    1.1471   -0.7258    6.4882 C   0  0  2  0  0  0  0  0  0  0  0  0
    0.3713   -0.0111    5.4024 C   0  0  0  0  0  0  0  0  0  0  0  0
   -0.1502   -0.9350    4.4247 C   0  0  0  0  0  0  0  0  0  0  0  0
   -1.2348   -1.4581    4.3253 O   0  0  0  0  0  0  0  0  0  0  0  0
    0.8831   -1.4060    3.7507 O   0  0  0  0  0  0  0  0  0  0  0  0
    1.1633    0.1406    7.7070 N   0  0  0  0  0  0  0  0  0  0  0  0
    0.5134    0.2316    8.9246 C   0  0  0  0  0  0  0  0  0  0  0  0
    0.8541    1.2052    9.6116 O   0  0  0  0  0  0  0  0  0  0  0  0
   -0.5665   -0.7048    9.5934 C   0  0  0  0  0  0  0  0  0  0  0  0
   -1.9370   -0.9250    8.9061 C   0  0  0  0  0  0  0  0  0  0  0  0
   -1.6765   -1.4011    7.5364 C   0  0  1  0  0  0  0  0  0  0  0  0
   -0.6150   -2.6156    7.6734 C   0  0  0  0  0  0  0  0  0  0  0  0
   -0.2475   -3.1005    6.7500 O   0  0  0  0  0  0  0  0  0  0  0  0
    0.2652   -2.9098    8.6456 O   0  0  0  0  0  0  0  0  0  0  0  0
   -2.8398   -1.3424    6.5269 N   0  0  0  0  0  0  0  0  0  0  0  0
   -3.0516   -0.3937    5.4784 C   0  0  0  0  0  0  0  0  0  0  0  0
   -4.1438   -0.6265    4.4975 C   0  0  0  0  0  0  0  0  0  0  0  0
   -5.4129   -0.6961    5.0313 C   0  0  0  0  0  0  0  0  0  0  0  0
   -6.5259   -0.5931    4.1943 C   0  0  0  0  0  0  0  0  0  0  0  0
   -6.4039   -0.4470    2.8009 C   0  0  0  0  0  0  0  0  0  0  0  0
   -7.5451   -0.3551    2.0224 N   0  0  0  0  0  0  0  0  0  0  0  0
   -7.5401   -0.3656    0.5591 C   0  0  0  0  0  0  0  0  0  0  0  0
   -8.0495   -1.6610   -0.0370 C   0  0  0  0  0  0  0  0  0  0  0  0
   -7.5340   -2.8783    0.4101 C   0  0  0  0  0  0  0  0  0  0  0  0
   -7.8647   -4.0747   -0.1351 N   0  0  0  0  0  0  0  0  0  0  0  0
   -8.7151   -4.0279   -1.1818 C   0  0  0  0  0  0  0  0  0  0  0  0
   -9.0246   -5.2740   -1.7370 N   0  0  0  0  0  0  0  0  0  0  0  0
   -9.8352   -5.3031   -2.7415 C   0  0  0  0  0  0  0  0  0  0  0  0
  -10.1619   -6.4813   -3.3085 N   0  0  0  0  0  0  0  0  0  0  0  0
  -10.3915   -4.1741   -3.2680 N   0  0  0  0  0  0  0  0  0  0  0  0
  -10.1516   -2.9009   -2.7903 C   0  0  0  0  0  0  0  0  0  0  0  0
  -10.6872   -1.9243   -3.3031 O   0  0  0  0  0  0  0  0  0  0  0  0
   -9.2246   -2.8186   -1.6393 C   0  0  0  0  0  0  0  0  0  0  0  0
   -8.9150   -1.6080   -1.0890 N   0  0  0  0  0  0  0  0  0  0  0  0
   -5.1132   -0.3231    2.2819 C   0  0  0  0  0  0  0  0  0  0  0  0
   -3.9912   -0.4320    3.1125 C   0  0  0  0  0  0  0  0  0  0  0  0
   -2.4415    0.6517    5.2754 O   0  0  0  0  0  0  0  0  0  0  0  0
   -2.8400   -7.1451    2.8475 H   0  0  0  0  0  0  0  0  0  0  0  0
   -3.8371   -5.9934    3.5463 H   0  0  0  0  0  0  0  0  0  0  0  0
   -0.4858   -5.4369    4.5634 H   0  0  0  0  0  0  0  0  0  0  0  0
   -2.9140   -4.4989    3.3414 H   0  0  0  0  0  0  0  0  0  0  0  0
   -1.9533   -3.6129    4.5264 H   0  0  0  0  0  0  0  0  0  0  0  0
   -0.7379   -2.6566    2.8158 H   0  0  0  0  0  0  0  0  0  0  0  0
   -0.6339   -4.2311    2.3425 H   0  0  0  0  0  0  0  0  0  0  0  0
   -3.3565   -3.2136    2.0716 H   0  0  0  0  0  0  0  0  0  0  0  0
   -2.2741   -1.9391    1.6364 H   0  0  0  0  0  0  0  0  0  0  0  0
   -3.2239   -3.5755   -0.8245 H   0  0  0  0  0  0  0  0  0  0  0  0
   -3.0019   -5.6623   -1.7627 H   0  0  0  0  0  0  0  0  0  0  0  0
   -1.9698   -7.1827   -2.8277 H   0  0  0  0  0  0  0  0  0  0  0  0
   -2.0973   -8.9157   -2.8421 H   0  0  0  0  0  0  0  0  0  0  0  0
   -3.4804   -7.8969   -2.3206 H   0  0  0  0  0  0  0  0  0  0  0  0
   -0.0646   -8.1941    0.1890 H   0  0  0  0  0  0  0  0  0  0  0  0
   -0.0225   -9.1455   -1.3102 H   0  0  0  0  0  0  0  0  0  0  0  0
    0.2222   -7.4518   -1.2799 H   0  0  0  0  0  0  0  0  0  0  0  0
   -3.4339   -9.6844   -0.7033 H   0  0  0  0  0  0  0  0  0  0  0  0
   -1.0656  -10.4024    0.5898 H   0  0  0  0  0  0  0  0  0  0  0  0
   -2.2093   -8.5992    1.8001 H   0  0  0  0  0  0  0  0  0  0  0  0
   -3.9508   -8.7133    1.3864 H   0  0  0  0  0  0  0  0  0  0  0  0
   -1.3663   -9.1287    3.5176 H   0  0  0  0  0  0  0  0  0  0  0  0
    0.9501  -10.8455    5.1833 H   0  0  0  0  0  0  0  0  0  0  0  0
    0.4678  -11.7028    3.6487 H   0  0  0  0  0  0  0  0  0  0  0  0
    0.5263   -9.9507    3.8111 H   0  0  0  0  0  0  0  0  0  0  0  0
   -2.7801  -11.6132    5.8100 H   0  0  0  0  0  0  0  0  0  0  0  0
   -2.5316  -14.4234    5.5759 H   0  0  0  0  0  0  0  0  0  0  0  0
    2.1158  -14.6319    8.1461 H   0  0  0  0  0  0  0  0  0  0  0  0
    2.6742  -14.7408    6.4546 H   0  0  0  0  0  0  0  0  0  0  0  0
    2.6520  -13.1797    7.2869 H   0  0  0  0  0  0  0  0  0  0  0  0
   -3.0745   -8.6738    5.8673 H   0  0  0  0  0  0  0  0  0  0  0  0
   -1.7012   -9.2930    6.4134 H   0  0  0  0  0  0  0  0  0  0  0  0
   -0.5137   -7.5840    5.8369 H   0  0  0  0  0  0  0  0  0  0  0  0
   -0.6860   -4.3590   -1.8048 H   0  0  0  0  0  0  0  0  0  0  0  0
   -0.1388   -5.5078   -0.5285 H   0  0  0  0  0  0  0  0  0  0  0  0
   -0.5314   -6.0090   -2.1591 H   0  0  0  0  0  0  0  0  0  0  0  0
   -3.6019   -5.3511    1.3636 H   0  0  0  0  0  0  0  0  0  0  0  0
   -0.2623   -2.0920    0.7192 H   0  0  0  0  0  0  0  0  0  0  0  0
    0.1543   -3.2756   -0.4314 H   0  0  0  0  0  0  0  0  0  0  0  0
   -1.2393   -2.1838   -0.7643 H   0  0  0  0  0  0  0  0  0  0  0  0
   -3.8606   -8.7691    4.1873 H   0  0  0  0  0  0  0  0  0  0  0  0
   -4.7141   -7.8982    5.2030 H   0  0  0  0  0  0  0  0  0  0  0  0
   -7.9373   -5.5622    2.6811 H   0  0  0  0  0  0  0  0  0  0  0  0
   -8.9906   -6.7653    2.0251 H   0  0  0  0  0  0  0  0  0  0  0  0
   -9.9045   -6.0799    4.0800 H   0  0  0  0  0  0  0  0  0  0  0  0
   -9.4011   -7.7877    4.2296 H   0  0  0  0  0  0  0  0  0  0  0  0
   -6.2275   -6.9638    8.6180 H   0  0  0  0  0  0  0  0  0  0  0  0
   -5.1398   -7.3943    7.4724 H   0  0  0  0  0  0  0  0  0  0  0  0
   -4.9503   -4.4772    6.9981 H   0  0  0  0  0  0  0  0  0  0  0  0
   -7.7416   -3.7245    5.8754 H   0  0  0  0  0  0  0  0  0  0  0  0
   -4.1204   -4.7646    9.5739 H   0  0  0  0  0  0  0  0  0  0  0  0
   -1.8703   -3.6845    6.3825 H   0  0  0  0  0  0  0  0  0  0  0  0
   -3.7839   -3.7542    5.6772 H   0  0  0  0  0  0  0  0  0  0  0  0
   -3.1219   -4.9349    4.9472 H   0  0  0  0  0  0  0  0  0  0  0  0
   -3.5661   -6.5871    7.8516 H   0  0  0  0  0  0  0  0  0  0  0  0
   -0.7544   -6.3529    7.1424 H   0  0  0  0  0  0  0  0  0  0  0  0
    0.1978   -3.4701    5.0071 H   0  0  0  0  0  0  0  0  0  0  0  0
    0.5909   -4.9475    3.2181 H   0  0  0  0  0  0  0  0  0  0  0  0
    1.0811   -3.3793    2.8486 H   0  0  0  0  0  0  0  0  0  0  0  0
    2.4212   -4.5852    1.8089 H   0  0  0  0  0  0  0  0  0  0  0  0
    3.3010   -3.9327    3.2140 H   0  0  0  0  0  0  0  0  0  0  0  0
    3.6234   -6.4153    3.1196 H   0  0  0  0  0  0  0  0  0  0  0  0
    2.6435   -6.0034    4.4848 H   0  0  0  0  0  0  0  0  0  0  0  0
    0.6223   -6.8165    3.3203 H   0  0  0  0  0  0  0  0  0  0  0  0
    0.9249   -9.5563    1.3630 H   0  0  0  0  0  0  0  0  0  0  0  0
   -0.1562   -8.4369    2.0784 H   0  0  0  0  0  0  0  0  0  0  0  0
    3.0379   -9.1563    1.4120 H   0  0  0  0  0  0  0  0  0  0  0  0
    3.1048   -3.4472    5.5232 H   0  0  0  0  0  0  0  0  0  0  0  0
    0.5040   -1.4090    6.8655 H   0  0  0  0  0  0  0  0  0  0  0  0
   -0.4720    0.5225    5.8090 H   0  0  0  0  0  0  0  0  0  0  0  0
    0.9387    0.7002    4.8269 H   0  0  0  0  0  0  0  0  0  0  0  0
    0.4654   -2.2694    3.7752 H   0  0  0  0  0  0  0  0  0  0  0  0
    1.7457    0.9500    7.5397 H   0  0  0  0  0  0  0  0  0  0  0  0
   -0.0812   -1.6149    9.9332 H   0  0  0  0  0  0  0  0  0  0  0  0
   -0.7997   -0.3460   10.5947 H   0  0  0  0  0  0  0  0  0  0  0  0
   -2.5631   -1.6842    9.3888 H   0  0  0  0  0  0  0  0  0  0  0  0
   -2.4832    0.0151    8.8455 H   0  0  0  0  0  0  0  0  0  0  0  0
   -1.1427   -0.5644    7.1500 H   0  0  0  0  0  0  0  0  0  0  0  0
    0.8184   -3.5836    8.1682 H   0  0  0  0  0  0  0  0  0  0  0  0
   -3.5227   -2.0769    6.5405 H   0  0  0  0  0  0  0  0  0  0  0  0
   -5.5224   -0.7301    6.1090 H   0  0  0  0  0  0  0  0  0  0  0  0
   -7.4987   -0.5809    4.6745 H   0  0  0  0  0  0  0  0  0  0  0  0
   -8.4310   -0.5728    2.4673 H   0  0  0  0  0  0  0  0  0  0  0  0
   -8.1478    0.4774    0.2159 H   0  0  0  0  0  0  0  0  0  0  0  0
   -6.5494   -0.2082    0.1278 H   0  0  0  0  0  0  0  0  0  0  0  0
   -6.8185   -2.9254    1.2266 H   0  0  0  0  0  0  0  0  0  0  0  0
  -10.7969   -6.5893   -4.0836 H   0  0  0  0  0  0  0  0  0  0  0  0
   -9.7493   -7.3175   -2.9100 H   0  0  0  0  0  0  0  0  0  0  0  0
  -11.0230   -4.2364   -4.0513 H   0  0  0  0  0  0  0  0  0  0  0  0
   -4.9363   -0.0859    1.2358 H   0  0  0  0  0  0  0  0  0  0  0  0
   -3.0131   -0.3157    2.6516 H   0  0  0  0  0  0  0  0  0  0  0  0
  1  2  1  0  0  0  0
  1 37  1  0  0  0  0
  1110  1  0  0  0  0
  1111  1  0  0  0  0
  3  2  1  0  0  0  0
  3  4  1  0  0  0  0
  3112  1  1  0  0  0
  4  5  1  0  0  0  0
  4113  1  0  0  0  0
  4114  1  0  0  0  0
  5  6  1  0  0  0  0
  5115  1  0  0  0  0
  5116  1  0  0  0  0
  6  7  1  0  0  0  0
  6117  1  0  0  0  0
  6118  1  0  0  0  0
  7  9  1  0  0  0  0
  7 36  1  0  0  0  0
  7  8  1  1  0  0  0
  9 10  1  0  0  0  0
  9 35  1  0  0  0  0
  9119  1  6  0  0  0
 10 11  1  0  0  0  0
 10120  1  6  0  0  0
 10 34  1  0  0  0  0
 11 12  2  0  0  0  0
 13 11  1  0  0  0  0
 13 14  1  0  0  0  0
 13 15  1  0  0  0  0
 14121  1  0  0  0  0
 14122  1  0  0  0  0
 14123  1  0  0  0  0
 15124  1  0  0  0  0
 15125  1  0  0  0  0
 15126  1  0  0  0  0
 16 13  1  0  0  0  0
 16127  1  6  0  0  0
 16 17  1  0  0  0  0
 17128  1  0  0  0  0
 18 16  1  0  0  0  0
 18129  1  0  0  0  0
 18130  1  0  0  0  0
 19 18  1  0  0  0  0
 19 20  2  0  0  0  0
 21 19  1  0  0  0  0
 22 21  1  0  0  0  0
 22 23  1  0  0  0  0
 22131  1  6  0  0  0
 23 24  1  0  0  0  0
 23 25  2  0  0  0  0
 24132  1  0  0  0  0
 24133  1  0  0  0  0
 24134  1  0  0  0  0
 25 26  1  0  0  0  0
 25135  1  0  0  0  0
 26 27  2  0  0  0  0
 26 31  1  0  0  0  0
 27 28  1  0  0  0  0
 27136  1  0  0  0  0
 29 28  1  0  0  0  0
 29 30  1  0  0  0  0
 30137  1  0  0  0  0
 30138  1  0  0  0  0
 30139  1  0  0  0  0
 31 29  2  0  0  0  0
 32 22  1  0  0  0  0
 32140  1  0  0  0  0
 32141  1  0  0  0  0
 33 32  1  0  0  0  0
 33  3  1  0  0  0  0
 33  2  1  0  0  0  0
 33142  1  1  0  0  0
 34143  1  0  0  0  0
 34144  1  0  0  0  0
 34145  1  0  0  0  0
 35146  1  0  0  0  0
 36147  1  0  0  0  0
 36148  1  0  0  0  0
 36149  1  0  0  0  0
 37 38  1  0  0  0  0
 37150  1  0  0  0  0
 37151  1  0  0  0  0
 38 39  1  0  0  0  0
 39 40  2  0  0  0  0
 39 41  1  0  0  0  0
 41 42  1  0  0  0  0
 42 43  1  0  0  0  0
 42152  1  0  0  0  0
 42153  1  0  0  0  0
 43 44  1  0  0  0  0
 43154  1  0  0  0  0
 43155  1  0  0  0  0
 44 45  1  0  0  0  0
 45 46  1  0  0  0  0
 46 47  1  0  0  0  0
 46156  1  0  0  0  0
 46157  1  0  0  0  0
 47 48  1  0  0  0  0
 47 51  1  0  0  0  0
 47158  1  6  0  0  0
 48 49  2  0  0  0  0
 48 50  1  0  0  0  0
 50159  1  0  0  0  0
 51 52  1  0  0  0  0
 51160  1  0  0  0  0
 52 53  2  0  0  0  0
 54 59  1  0  0  0  0
 54161  1  6  0  0  0
 54 55  1  0  0  0  0
 54 52  1  0  0  0  0
 55 56  1  0  0  0  0
 55162  1  0  0  0  0
 55163  1  0  0  0  0
 56 57  2  0  0  0  0
 56 58  1  0  0  0  0
 58164  1  0  0  0  0
 59 60  1  0  0  0  0
 59165  1  0  0  0  0
 60 61  2  0  0  0  0
 62 70  1  0  0  0  0
 62166  1  1  0  0  0
 62 63  1  0  0  0  0
 62 60  1  0  0  0  0
 63 64  1  0  0  0  0
 63167  1  0  0  0  0
 63168  1  0  0  0  0
 64 65  1  0  0  0  0
 64169  1  0  0  0  0
 64170  1  0  0  0  0
 65 66  1  0  0  0  0
 65171  1  0  0  0  0
 65172  1  0  0  0  0
 66 67  1  0  0  0  0
 66173  1  0  0  0  0
 67 68  1  0  0  0  0
 67 69  2  0  0  0  0
 68174  1  0  0  0  0
 68175  1  0  0  0  0
 69176  1  0  0  0  0
 70 71  1  0  0  0  0
 70177  1  0  0  0  0
 71 72  2  0  0  0  0
 73 78  1  0  0  0  0
 73178  1  1  0  0  0
 73 74  1  0  0  0  0
 73 71  1  0  0  0  0
 74 75  1  0  0  0  0
 74179  1  0  0  0  0
 74180  1  0  0  0  0
 75 76  2  0  0  0  0
 75 77  1  0  0  0  0
 77181  1  0  0  0  0
 78 79  1  0  0  0  0
 78182  1  0  0  0  0
 79 80  2  0  0  0  0
 79 81  1  0  0  0  0
 81 82  1  0  0  0  0
 81183  1  0  0  0  0
 81184  1  0  0  0  0
 82 83  1  0  0  0  0
 82185  1  0  0  0  0
 82186  1  0  0  0  0
 83 84  1  0  0  0  0
 83 87  1  0  0  0  0
 83187  1  6  0  0  0
 84 85  2  0  0  0  0
 84 86  1  0  0  0  0
 86188  1  0  0  0  0
 87 88  1  0  0  0  0
 87189  1  0  0  0  0
 88 89  1  0  0  0  0
 88109  2  0  0  0  0
 89 90  1  0  0  0  0
 89108  2  0  0  0  0
 90 91  2  0  0  0  0
 90190  1  0  0  0  0
 91 92  1  0  0  0  0
 91191  1  0  0  0  0
 92 93  1  0  0  0  0
 93 94  1  0  0  0  0
 93192  1  0  0  0  0
 94 95  1  0  0  0  0
 94193  1  0  0  0  0
 94194  1  0  0  0  0
 95 96  2  0  0  0  0
 95106  1  0  0  0  0
 96 97  1  0  0  0  0
 96195  1  0  0  0  0
 97 98  2  0  0  0  0
 98 99  1  0  0  0  0
 99100  2  0  0  0  0
100101  1  0  0  0  0
101196  1  0  0  0  0
101197  1  0  0  0  0
102100  1  0  0  0  0
102198  1  0  0  0  0
103102  1  0  0  0  0
103104  2  0  0  0  0
105103  1  0  0  0  0
105 98  1  0  0  0  0
106105  2  0  0  0  0
107 92  2  0  0  0  0
107199  1  0  0  0  0
108107  1  0  0  0  0
108200  1  0  0  0  0
M  END
>  <DRUGBANK_ID>
DB12266

>  <COMMON_NAME>
Epofolate

>  <CAS_NUMBER>
958646-17-8

>  <UNII>
Q3XAW4B1DP

$$$$
