F6F
 OpenBabel10282417163D

 32 32  0  0  0  0  0  0  0  0999 V2000
    1.3843   -0.3218    0.0342 C   0  0  0  0  0  0  0  0  0  0  0  0
    0.4610   -1.3697    0.0164 C   0  0  0  0  0  0  0  0  0  0  0  0
   -0.9194   -1.1284   -0.0343 C   0  0  0  0  0  0  0  0  0  0  0  0
   -1.4130    0.1696   -0.1149 C   0  0  0  0  0  0  0  0  0  0  0  0
   -0.4731    1.2067   -0.1304 C   0  0  0  0  0  0  0  0  0  0  0  0
    0.9059    0.9770   -0.0494 C   0  0  0  0  0  0  0  0  0  0  0  0
    2.7413   -0.4455    0.1242 O   0  0  0  0  0  0  0  0  0  0  0  0
    3.2359   -1.7667    0.2804 C   0  0  0  0  0  0  0  0  0  0  0  0
    2.7099   -2.3575    1.3759 F   0  0  0  0  0  0  0  0  0  0  0  0
    2.9553   -2.5106   -0.8118 F   0  0  0  0  0  0  0  0  0  0  0  0
    4.5768   -1.7274    0.4294 F   0  0  0  0  0  0  0  0  0  0  0  0
   -2.9050    0.3668   -0.2112 C   0  0  0  0  0  0  0  0  0  0  0  0
   -3.3668    1.6570   -0.3578 N   0  0  0  0  0  0  0  0  0  0  0  0
   -3.6699   -0.5984   -0.1828 O   0  0  0  0  0  0  0  0  0  0  0  0
   -4.7950    2.0216   -0.4490 C   0  0  0  0  0  0  0  0  0  0  0  0
   -5.3208    2.8413    0.7542 C   0  0  0  0  0  0  0  0  0  0  0  0
   -4.6604    4.1092    0.8723 O   0  0  0  0  0  0  0  0  0  0  0  0
   -2.9656    3.8235    1.0693 P   0  0  0  0  0  0  0  0  0  0  0  0
   -2.6294    4.8514   -0.1443 O   0  0  0  0  0  0  0  0  0  0  0  0
   -2.9162    4.6072    2.3747 O   0  0  0  0  0  0  0  0  0  0  0  0
   -1.2707    3.5378    1.2663 O   0  0  0  0  0  0  0  0  0  0  0  0
    0.7731   -2.4084    0.0327 H   0  0  0  0  0  0  0  0  0  0  0  0
   -1.6026   -1.9745   -0.0270 H   0  0  0  0  0  0  0  0  0  0  0  0
   -0.7593    2.2375   -0.2194 H   0  0  0  0  0  0  0  0  0  0  0  0
    1.5861    1.8288   -0.0696 H   0  0  0  0  0  0  0  0  0  0  0  0
   -2.6806    2.2961   -0.7296 H   0  0  0  0  0  0  0  0  0  0  0  0
   -4.8932    2.6231   -1.3581 H   0  0  0  0  0  0  0  0  0  0  0  0
   -5.3961    1.1147   -0.5522 H   0  0  0  0  0  0  0  0  0  0  0  0
   -6.3902    3.0432    0.6340 H   0  0  0  0  0  0  0  0  0  0  0  0
   -5.1842    2.2934    1.6935 H   0  0  0  0  0  0  0  0  0  0  0  0
   -2.6330    4.4530   -1.0290 H   0  0  0  0  0  0  0  0  0  0  0  0
   -1.0990    3.9208    2.1556 H   0  0  0  0  0  0  0  0  0  0  0  0
  1  2  1  0  0  0  0
  1  6  2  0  0  0  0
  1  7  1  0  0  0  0
  2  3  2  0  0  0  0
  2 22  1  0  0  0  0
  3  4  1  0  0  0  0
  3 23  1  0  0  0  0
  4  5  2  0  0  0  0
  4 12  1  0  0  0  0
  5  6  1  0  0  0  0
  5 24  1  0  0  0  0
  6 25  1  0  0  0  0
  7  8  1  0  0  0  0
  8  9  1  0  0  0  0
  8 10  1  0  0  0  0
  8 11  1  0  0  0  0
 12 13  1  0  0  0  0
 12 14  2  0  0  0  0
 13 15  1  0  0  0  0
 13 26  1  0  0  0  0
 15 16  1  0  0  0  0
 15 27  1  0  0  0  0
 15 28  1  0  0  0  0
 16 17  1  0  0  0  0
 16 29  1  0  0  0  0
 16 30  1  0  0  0  0
 17 18  1  0  0  0  0
 18 19  1  0  0  0  0
 18 20  2  0  0  0  0
 18 21  1  0  0  0  0
 19 31  1  0  0  0  0
 21 32  1  0  0  0  0
M  END
>  <DRUGBANK_ID>
DB07745

>  <COMMON_NAME>
2-{[4-(TRIFLUOROMETHOXY)BENZOYL]AMINO}ETHYL DIHYDROGEN PHOSPHATE

$$$$
