
 OpenBabel10282417113D

 39 42  0  0  0  0  0  0  0  0999 V2000
    0.1761   -0.8482    0.0600 C   0  0  0  0  0  0  0  0  0  0  0  0
    1.4881   -1.2918    0.1738 N   0  0  0  0  0  0  0  0  0  0  0  0
    0.2858    0.5169   -0.2173 C   0  0  0  0  0  0  0  0  0  0  0  0
   -0.8755    1.3256   -0.1575 C   0  0  0  0  0  0  0  0  0  0  0  0
   -0.9713   -1.5252    0.1531 N   0  0  0  0  0  0  0  0  0  0  0  0
    1.5798    0.8130   -0.5279 N   0  0  0  0  0  0  0  0  0  0  0  0
   -2.0579    0.6447   -0.0278 N   0  0  0  0  0  0  0  0  0  0  0  0
    2.2823   -0.1977   -0.0866 C   0  0  0  0  0  0  0  0  0  0  0  0
   -2.0544   -0.7137    0.0559 C   0  0  0  0  0  0  0  0  0  0  0  0
    2.1068   -2.5975   -0.0384 C   0  0  1  0  0  0  0  0  0  0  0  0
   -0.9180    2.7508   -0.2365 N   0  0  0  0  0  0  0  0  0  0  0  0
    2.3425   -3.6393    1.0034 C   0  0  0  0  0  0  0  0  0  0  0  0
    0.1822    3.7215    0.0258 C   0  0  0  0  0  0  0  0  0  0  0  0
    2.1527   -4.8599    0.4794 C   0  0  0  0  0  0  0  0  0  0  0  0
    1.3647    3.8571   -0.9042 C   0  0  0  0  0  0  0  0  0  0  0  0
    1.5534    3.3453    0.4996 C   0  0  0  0  0  0  0  0  0  0  0  0
    1.5601   -3.3367   -1.2537 C   0  0  0  0  0  0  0  0  0  0  0  0
   -3.2572   -1.3522    0.0268 N   0  0  0  0  0  0  0  0  0  0  0  0
    1.4796   -4.8170   -0.8613 C   0  0  2  0  0  0  0  0  0  0  0  0
   -0.6382   -5.2725   -1.9835 O   0  0  0  0  0  0  0  0  0  0  0  0
    0.0451   -5.3400   -0.7389 C   0  0  0  0  0  0  0  0  0  0  0  0
    3.3584   -0.2194   -0.0434 H   0  0  0  0  0  0  0  0  0  0  0  0
    3.1513   -2.3340   -0.2620 H   0  0  0  0  0  0  0  0  0  0  0  0
   -1.8683    3.0609   -0.0429 H   0  0  0  0  0  0  0  0  0  0  0  0
    2.9186   -3.4884    1.9095 H   0  0  0  0  0  0  0  0  0  0  0  0
   -0.2030    4.6628    0.4164 H   0  0  0  0  0  0  0  0  0  0  0  0
    2.4914   -5.7899    0.9229 H   0  0  0  0  0  0  0  0  0  0  0  0
    1.3961    3.2121   -1.7740 H   0  0  0  0  0  0  0  0  0  0  0  0
    1.8113    4.8313   -1.0902 H   0  0  0  0  0  0  0  0  0  0  0  0
    2.1639    3.9406    1.1612 H   0  0  0  0  0  0  0  0  0  0  0  0
    1.6643    2.3276    0.8106 H   0  0  0  0  0  0  0  0  0  0  0  0
    0.6040   -2.9391   -1.5995 H   0  0  0  0  0  0  0  0  0  0  0  0
    2.2685   -3.1898   -2.0789 H   0  0  0  0  0  0  0  0  0  0  0  0
   -3.2432   -2.3595    0.0122 H   0  0  0  0  0  0  0  0  0  0  0  0
   -4.1090   -0.8180   -0.0277 H   0  0  0  0  0  0  0  0  0  0  0  0
    2.0205   -5.4015   -1.6144 H   0  0  0  0  0  0  0  0  0  0  0  0
   -0.7662   -4.3335   -2.2022 H   0  0  0  0  0  0  0  0  0  0  0  0
    0.0598   -6.3917   -0.4318 H   0  0  0  0  0  0  0  0  0  0  0  0
   -0.5299   -4.7872    0.0141 H   0  0  0  0  0  0  0  0  0  0  0  0
  2  1  1  0  0  0  0
  3  1  2  0  0  0  0
  4  3  1  0  0  0  0
  5  1  1  0  0  0  0
  6  3  1  0  0  0  0
  7  9  1  0  0  0  0
  7  4  2  0  0  0  0
  8  2  1  0  0  0  0
  8  6  2  0  0  0  0
  8 22  1  0  0  0  0
  9  5  2  0  0  0  0
 10  2  1  0  0  0  0
 10 23  1  6  0  0  0
 11  4  1  0  0  0  0
 11 24  1  0  0  0  0
 12 10  1  0  0  0  0
 12 25  1  0  0  0  0
 13 11  1  0  0  0  0
 13 26  1  0  0  0  0
 14 12  2  0  0  0  0
 14 27  1  0  0  0  0
 15 13  1  0  0  0  0
 15 28  1  0  0  0  0
 15 29  1  0  0  0  0
 16 13  1  0  0  0  0
 16 15  1  0  0  0  0
 16 30  1  0  0  0  0
 16 31  1  0  0  0  0
 17 10  1  0  0  0  0
 17 32  1  0  0  0  0
 17 33  1  0  0  0  0
 18  9  1  0  0  0  0
 18 34  1  0  0  0  0
 18 35  1  0  0  0  0
 19 17  1  0  0  0  0
 19 21  1  0  0  0  0
 19 14  1  0  0  0  0
 19 36  1  6  0  0  0
 20 21  1  0  0  0  0
 20 37  1  0  0  0  0
 21 38  1  0  0  0  0
 21 39  1  0  0  0  0
M  END
>  <DRUGBANK_ID>
DB01048

>  <SECONDARY_ACCESSION_NUMBERS>
APRD00216

>  <COMMON_NAME>
Abacavir

>  <CAS_NUMBER>
136470-78-5

>  <UNII>
WR2TIP26VS

>  <SYNONYMS>
{(1S-cis)-4-[2-amino-6-(cyclopropylamino)-9H-purin-9-yl]cyclopent-2-en-1-yl}methanol; Abacavir; ABC

$$$$
