
 OpenBabel10282417133D

 21 21  0  0  1  0  0  0  0  0999 V2000
   -1.0248    1.0572   -0.0090 C   0  0  1  0  0  0  0  0  0  0  0  0
   -1.4355   -0.3866    0.0029 C   0  0  0  0  0  0  0  0  0  0  0  0
    0.4545    1.3845    0.1297 C   0  0  2  0  0  0  0  0  0  0  0  0
   -0.5310   -1.3909    0.0120 C   0  0  0  0  0  0  0  0  0  0  0  0
   -0.7810   -2.8798    0.0016 C   0  0  0  0  0  0  0  0  0  0  0  0
    1.3800    0.1842   -0.0655 C   0  0  2  0  0  0  0  0  0  0  0  0
   -1.5422    1.6110   -1.2256 O   0  0  0  0  0  0  0  0  0  0  0  0
   -2.8088   -0.4493    0.0346 O   0  0  0  0  0  0  0  0  0  0  0  0
    0.6692    1.9938    1.4176 O   0  0  0  0  0  0  0  0  0  0  0  0
   -2.0243   -3.3788    0.0139 O   0  0  0  0  0  0  0  0  0  0  0  0
    0.1619   -3.6719    0.0052 O   0  0  0  0  0  0  0  0  0  0  0  0
    2.0655    0.2895   -1.3121 O   0  0  0  0  0  0  0  0  0  0  0  0
    0.8310   -1.1165    0.0635 O   0  0  0  0  0  0  0  0  0  0  0  0
   -1.5627    1.5316    0.8240 H   0  0  0  0  0  0  0  0  0  0  0  0
    0.7365    2.1602   -0.5932 H   0  0  0  0  0  0  0  0  0  0  0  0
    2.1652    0.2529    0.6981 H   0  0  0  0  0  0  0  0  0  0  0  0
   -1.0900    2.4532   -1.3957 H   0  0  0  0  0  0  0  0  0  0  0  0
   -3.2102   -1.3109    0.0628 H   0  0  0  0  0  0  0  0  0  0  0  0
    0.4246    1.3435    2.0994 H   0  0  0  0  0  0  0  0  0  0  0  0
   -2.8201   -2.8594   -0.1081 H   0  0  0  0  0  0  0  0  0  0  0  0
    1.3861    0.3128   -2.0042 H   0  0  0  0  0  0  0  0  0  0  0  0
  1 14  1  1  0  0  0
  1  7  1  0  0  0  0
  2  1  1  0  0  0  0
  3  1  1  0  0  0  0
  3  9  1  0  0  0  0
  3 15  1  6  0  0  0
  4  2  2  0  0  0  0
  5  4  1  0  0  0  0
  6  3  1  0  0  0  0
  6 12  1  0  0  0  0
  6 16  1  1  0  0  0
  7 17  1  0  0  0  0
  8  2  1  0  0  0  0
  8 18  1  0  0  0  0
  9 19  1  0  0  0  0
 10  5  1  0  0  0  0
 10 20  1  0  0  0  0
 11  5  2  0  0  0  0
 12 21  1  0  0  0  0
 13  4  1  0  0  0  0
 13  6  1  0  0  0  0
M  END
>  <DRUGBANK_ID>
DB03569

>  <SECONDARY_ACCESSION_NUMBERS>
EXPT01844

>  <COMMON_NAME>
4,5-Dehydro-L-Iduronic Acid

$$$$
