
 OpenBabel10282417163D

 43 36  0  0  0  0  0  0  0  0999 V2000
    0.9557    0.0235    0.0865 Fe  0  1  0  0  0  0  0  0  0  0  0  0
    1.0438    0.0592   -0.0677 Fe  0  1  0  0  0  0  0  0  0  0  0  0
    0.9783   -0.0966   -0.0142 Fe  0  1  0  0  0  0  0  0  0  0  0  0
    0.9100   -0.0079    0.0429 Fe  0  1  0  0  0  0  0  0  0  0  0  0
    0.9177    0.0147   -0.0549 N   0  0  0  0  0  0  0  0  0  0  0  0
    4.2587    0.7171    1.9030 C   0  0  0  0  0  0  0  0  0  0  0  0
    4.2587    0.0147   -0.0549 Fe  0  0  0  0  0  0  0  0  0  0  0  0
    4.2587   -1.9431    0.6474 C   0  0  0  0  0  0  0  0  0  0  0  0
    2.1787    0.0147   -0.0549 C   0  0  0  0  0  0  0  0  0  0  0  0
    6.3387    0.0147   -0.0549 C   0  0  0  0  0  0  0  0  0  0  0  0
    4.2587   -0.6876   -2.0127 C   0  0  0  0  0  0  0  0  0  0  0  0
    4.2587    1.1428    3.0899 N   0  0  0  0  0  0  0  0  0  0  0  0
    4.2587   -1.1134   -3.1996 N   0  0  0  0  0  0  0  0  0  0  0  0
    7.5996    0.0147   -0.0549 N   0  0  0  0  0  0  0  0  0  0  0  0
    4.2587   -3.1300    1.0732 N   0  0  0  0  0  0  0  0  0  0  0  0
    4.2587    3.1595   -1.1830 N   0  0  0  0  0  0  0  0  0  0  0  0
    4.2587    1.9726   -0.7572 C   0  0  0  0  0  0  0  0  0  0  0  0
    0.9119   -0.0453    0.0134 N   0  0  0  0  0  0  0  0  0  0  0  0
    4.2528   -0.8996   -1.8830 C   0  0  0  0  0  0  0  0  0  0  0  0
    4.2528   -0.0453    0.0134 Fe  0  0  0  0  0  0  0  0  0  0  0  0
    4.2528    1.8511   -0.8409 C   0  0  0  0  0  0  0  0  0  0  0  0
    2.1728   -0.0453    0.0134 C   0  0  0  0  0  0  0  0  0  0  0  0
    6.3328   -0.0453    0.0134 C   0  0  0  0  0  0  0  0  0  0  0  0
    4.2528    0.8090    1.9099 C   0  0  0  0  0  0  0  0  0  0  0  0
    4.2528   -1.4175   -3.0327 N   0  0  0  0  0  0  0  0  0  0  0  0
    4.2528    1.3269    3.0596 N   0  0  0  0  0  0  0  0  0  0  0  0
    7.5938   -0.0453    0.0134 N   0  0  0  0  0  0  0  0  0  0  0  0
    4.2528    3.0008   -1.3588 N   0  0  0  0  0  0  0  0  0  0  0  0
    4.2528   -3.0915    1.3857 N   0  0  0  0  0  0  0  0  0  0  0  0
    4.2528   -1.9418    0.8678 C   0  0  0  0  0  0  0  0  0  0  0  0
    1.0784    0.0588    0.0200 N   0  0  0  0  0  0  0  0  0  0  0  0
    4.4194    1.4465   -1.5294 C   0  0  0  0  0  0  0  0  0  0  0  0
    4.4194    0.0588    0.0200 Fe  0  0  0  0  0  0  0  0  0  0  0  0
    4.4194    1.6082    1.4077 C   0  0  0  0  0  0  0  0  0  0  0  0
    2.3394    0.0588    0.0200 C   0  0  0  0  0  0  0  0  0  0  0  0
    6.4994    0.0588    0.0200 C   0  0  0  0  0  0  0  0  0  0  0  0
    4.4194   -1.3289    1.5695 C   0  0  0  0  0  0  0  0  0  0  0  0
    4.4194    2.2877   -2.4687 N   0  0  0  0  0  0  0  0  0  0  0  0
    4.4194   -2.1702    2.5088 N   0  0  0  0  0  0  0  0  0  0  0  0
    7.7603    0.0588    0.0200 N   0  0  0  0  0  0  0  0  0  0  0  0
    4.4194    2.5475    2.2490 N   0  0  0  0  0  0  0  0  0  0  0  0
    4.4194   -2.4299   -2.2089 N   0  0  0  0  0  0  0  0  0  0  0  0
    4.4194   -1.4906   -1.3677 C   0  0  0  0  0  0  0  0  0  0  0  0
  5  9  3  0  0  0  0
  6  7  1  0  0  0  0
  7  8  1  0  0  0  0
  7  9  1  0  0  0  0
 10  7  1  0  0  0  0
 11  7  1  0  0  0  0
 12  6  3  0  0  0  0
 13 11  3  0  0  0  0
 14 10  3  0  0  0  0
 15  8  3  0  0  0  0
 16 17  3  0  0  0  0
 17  7  1  0  0  0  0
 18 22  3  0  0  0  0
 19 20  1  0  0  0  0
 20 21  1  0  0  0  0
 20 22  1  0  0  0  0
 23 20  1  0  0  0  0
 24 20  1  0  0  0  0
 25 19  3  0  0  0  0
 26 24  3  0  0  0  0
 27 23  3  0  0  0  0
 28 21  3  0  0  0  0
 29 30  3  0  0  0  0
 30 20  1  0  0  0  0
 31 35  3  0  0  0  0
 32 33  1  0  0  0  0
 33 34  1  0  0  0  0
 33 35  1  0  0  0  0
 36 33  1  0  0  0  0
 37 33  1  0  0  0  0
 38 32  3  0  0  0  0
 39 37  3  0  0  0  0
 40 36  3  0  0  0  0
 41 34  3  0  0  0  0
 42 43  3  0  0  0  0
 43 33  1  0  0  0  0
M  CHG  7   1   3   2   3   3   3   4   3   7  -4  20  -4  33  -4
M  END
>  <DRUGBANK_ID>
DB06783

>  <SECONDARY_ACCESSION_NUMBERS>
DB09538

>  <COMMON_NAME>
Prussian blue

>  <CAS_NUMBER>
14038-43-8

>  <UNII>
TLE294X33A

>  <SYNONYMS>
Berlin blue; Ferric ferrocyanide; Ferric hexacyanoferrate; Ferric hexacyanoferrate(II); Ferrocin; Iron(III) ferrocyanide; Iron(III) hexacyanoferrate(II); Paris blue; Parisian blue; Prussian blue insoluble

$$$$
