
 OpenBabel10282417163D

 53 52  0  0  1  0  0  0  0  0999 V2000
    5.1620    4.1334    1.4141 O   0  0  0  0  0  0  0  0  0  0  0  0
   -5.1106   12.4394   -2.1554 O   0  0  0  0  0  0  0  0  0  0  0  0
   -4.2203   11.2734   -0.4670 O   0  0  0  0  0  0  0  0  0  0  0  0
    4.5606    4.3749    0.1513 C   0  0  1  0  0  0  0  0  0  0  0  0
    5.1753    3.4294   -0.8968 C   0  0  0  0  0  0  0  0  0  0  0  0
    4.9810    1.9288   -0.6067 C   0  0  0  0  0  0  0  0  0  0  0  0
   -2.2676    8.5929   -1.0033 C   0  0  0  0  0  0  0  0  0  0  0  0
   -1.7476    9.9964   -1.3378 C   0  0  0  0  0  0  0  0  0  0  0  0
   -1.7674    7.5687   -2.0286 C   0  0  0  0  0  0  0  0  0  0  0  0
    3.5244    1.4484   -0.6401 C   0  0  0  0  0  0  0  0  0  0  0  0
   -2.2875   10.4759   -2.6892 C   0  0  0  0  0  0  0  0  0  0  0  0
   -0.2427    7.5283   -2.0401 C   0  0  0  0  0  0  0  0  0  0  0  0
    2.7986    1.8646   -1.9220 C   0  0  0  0  0  0  0  0  0  0  0  0
   -3.8161   10.4931   -2.7263 C   0  0  0  0  0  0  0  0  0  0  0  0
    0.2863    7.2312   -0.6477 C   0  0  0  0  0  0  0  0  0  0  0  0
    3.3834    1.0647   -3.0686 C   0  0  0  0  0  0  0  0  0  0  0  0
   -4.3822   11.4158   -1.6614 C   0  0  0  0  0  0  0  0  0  0  0  0
    3.0859    4.2482    0.3435 C   0  0  0  0  0  0  0  0  0  0  0  0
   -0.1058    5.8426   -0.2440 C   0  0  0  0  0  0  0  0  0  0  0  0
    2.1955    5.1241   -0.1025 C   0  0  0  0  0  0  0  0  0  0  0  0
    0.7825    4.8798   -0.0035 C   0  0  0  0  0  0  0  0  0  0  0  0
    4.9464    3.2191    1.6605 H   0  0  0  0  0  0  0  0  0  0  0  0
   -5.2179   12.4387   -3.1214 H   0  0  0  0  0  0  0  0  0  0  0  0
    4.8094    5.4027   -0.1380 H   0  0  0  0  0  0  0  0  0  0  0  0
    4.8132    3.6837   -1.9019 H   0  0  0  0  0  0  0  0  0  0  0  0
    6.2568    3.6165   -0.9343 H   0  0  0  0  0  0  0  0  0  0  0  0
    5.5602    1.3526   -1.3374 H   0  0  0  0  0  0  0  0  0  0  0  0
    5.4225    1.6774    0.3627 H   0  0  0  0  0  0  0  0  0  0  0  0
   -3.3582    8.5561   -0.9560 H   0  0  0  0  0  0  0  0  0  0  0  0
   -1.9684    8.3292    0.0162 H   0  0  0  0  0  0  0  0  0  0  0  0
   -2.0094   10.6889   -0.5353 H   0  0  0  0  0  0  0  0  0  0  0  0
   -0.6526   10.0325   -1.3456 H   0  0  0  0  0  0  0  0  0  0  0  0
   -2.1310    7.7920   -3.0354 H   0  0  0  0  0  0  0  0  0  0  0  0
   -2.1827    6.5830   -1.7966 H   0  0  0  0  0  0  0  0  0  0  0  0
    3.4828    0.3613   -0.5232 H   0  0  0  0  0  0  0  0  0  0  0  0
    2.9902    1.7744    0.2456 H   0  0  0  0  0  0  0  0  0  0  0  0
   -1.8848   11.4685   -2.9121 H   0  0  0  0  0  0  0  0  0  0  0  0
   -1.9147    9.8254   -3.4919 H   0  0  0  0  0  0  0  0  0  0  0  0
    0.1809    8.4813   -2.3766 H   0  0  0  0  0  0  0  0  0  0  0  0
    0.1161    6.7892   -2.7662 H   0  0  0  0  0  0  0  0  0  0  0  0
    1.7233    1.6800   -1.8277 H   0  0  0  0  0  0  0  0  0  0  0  0
    2.8879    2.9347   -2.1430 H   0  0  0  0  0  0  0  0  0  0  0  0
   -4.1519   10.7835   -3.7255 H   0  0  0  0  0  0  0  0  0  0  0  0
   -4.2416    9.4960   -2.5657 H   0  0  0  0  0  0  0  0  0  0  0  0
   -0.0474    7.9263    0.1254 H   0  0  0  0  0  0  0  0  0  0  0  0
    1.3572    7.4137   -0.6814 H   0  0  0  0  0  0  0  0  0  0  0  0
    3.2688   -0.0024   -2.8572 H   0  0  0  0  0  0  0  0  0  0  0  0
    2.8924    1.3028   -4.0116 H   0  0  0  0  0  0  0  0  0  0  0  0
    4.4516    1.2722   -3.1887 H   0  0  0  0  0  0  0  0  0  0  0  0
    2.6706    3.4147    0.8852 H   0  0  0  0  0  0  0  0  0  0  0  0
   -1.1651    5.6024   -0.1535 H   0  0  0  0  0  0  0  0  0  0  0  0
    2.5844    6.0302   -0.5455 H   0  0  0  0  0  0  0  0  0  0  0  0
    0.4205    3.8847    0.2526 H   0  0  0  0  0  0  0  0  0  0  0  0
  1 22  1  0  0  0  0
  2 17  1  0  0  0  0
  2 23  1  0  0  0  0
  3 17  2  0  0  0  0
  4  1  1  0  0  0  0
  4  5  1  0  0  0  0
  4 18  1  0  0  0  0
  4 24  1  6  0  0  0
  5  6  1  0  0  0  0
  5 25  1  0  0  0  0
  5 26  1  0  0  0  0
  6 10  1  0  0  0  0
  6 27  1  0  0  0  0
  6 28  1  0  0  0  0
  7  8  1  0  0  0  0
  7  9  1  0  0  0  0
  7 29  1  0  0  0  0
  7 30  1  0  0  0  0
  8 11  1  0  0  0  0
  8 31  1  0  0  0  0
  8 32  1  0  0  0  0
  9 12  1  0  0  0  0
  9 33  1  0  0  0  0
  9 34  1  0  0  0  0
 10 13  1  0  0  0  0
 10 35  1  0  0  0  0
 10 36  1  0  0  0  0
 11 14  1  0  0  0  0
 11 37  1  0  0  0  0
 11 38  1  0  0  0  0
 12 15  1  0  0  0  0
 12 39  1  0  0  0  0
 12 40  1  0  0  0  0
 13 16  1  0  0  0  0
 13 41  1  0  0  0  0
 13 42  1  0  0  0  0
 14 17  1  0  0  0  0
 14 43  1  0  0  0  0
 14 44  1  0  0  0  0
 15 19  1  0  0  0  0
 15 45  1  0  0  0  0
 15 46  1  0  0  0  0
 16 47  1  0  0  0  0
 16 48  1  0  0  0  0
 16 49  1  0  0  0  0
 18 20  2  0  0  0  0
 18 50  1  0  0  0  0
 19 21  2  0  0  0  0
 19 51  1  0  0  0  0
 20 21  1  0  0  0  0
 20 52  1  0  0  0  0
 21 53  1  0  0  0  0
M  END
>  <DRUGBANK_ID>
DB06926

>  <COMMON_NAME>
(9Z,11E,13S)-13-hydroxyoctadeca-9,11-dienoic acid

>  <UNII>
53CYY2A5PM

$$$$
