
 OpenBabel10282417213D

190195  0  0  0  0  0  0  0  0999 V2000
  -19.0327  -15.8101    7.1801 N   0  0  0  0  0  0  0  0  0  0  0  0
  -19.7238  -15.2704    8.1925 C   0  0  0  0  0  0  0  0  0  0  0  0
  -18.6602  -13.6962    8.2256 C   0  0  0  0  0  0  0  0  0  0  0  0
  -16.5696  -12.8539    8.0878 C   0  0  0  0  0  0  0  0  0  0  0  0
  -17.7307  -14.2909    6.9870 C   0  0  0  0  0  0  0  0  0  0  0  0
  -14.6630  -11.3074    9.0059 C   0  0  0  0  0  0  0  0  0  0  0  0
  -12.4668  -10.0851   10.4080 C   0  0  2  0  0  0  0  0  0  0  0  0
  -10.3852   -8.9463   12.0274 C   0  0  0  0  0  0  0  0  0  0  0  0
   -9.2960   -7.9167   13.0463 O   0  0  0  0  0  0  0  0  0  0  0  0
   -8.6279   -7.6625   13.4399 N   0  0  0  0  0  0  0  0  0  0  0  0
   -7.4520   -6.1648   15.0735 C   0  0  1  0  0  0  0  0  0  0  0  0
   -6.9574   -4.4864   16.6786 C   0  0  0  0  0  0  0  0  0  0  0  0
   -8.3407   -3.9660   16.9172 C   0  0  0  0  0  0  0  0  0  0  0  0
   -9.0643   -5.2339   17.2959 C   0  0  0  0  0  0  0  0  0  0  0  0
   -8.6875   -5.6562   18.6987 C   0  0  0  0  0  0  0  0  0  0  0  0
   -9.0540   -4.6081   19.6394 N   0  0  0  0  0  0  0  0  0  0  0  0
   -6.8565   -4.8494   14.4723 C   0  0  0  0  0  0  0  0  0  0  0  0
   -6.2592   -3.8586   14.1915 O   0  0  0  0  0  0  0  0  0  0  0  0
   -7.8452   -5.4711   13.7731 N   0  0  0  0  0  0  0  0  0  0  0  0
   -8.1411   -5.2567   12.4252 C   0  0  1  0  0  0  0  0  0  0  0  0
   -7.4225   -3.9929   12.0664 C   0  0  1  0  0  0  0  0  0  0  0  0
   -7.7837   -3.5803   10.6894 C   0  0  0  0  0  0  0  0  0  0  0  0
   -7.8030   -2.9360   12.9729 O   0  0  0  0  0  0  0  0  0  0  0  0
   -7.7301   -6.3918   11.4573 C   0  0  0  0  0  0  0  0  0  0  0  0
   -6.5476   -6.7407   11.3703 O   0  0  0  0  0  0  0  0  0  0  0  0
   -8.7221   -6.9779   10.6723 N   0  0  0  0  0  0  0  0  0  0  0  0
   -8.4031   -8.0340    9.7483 C   0  0  2  0  0  0  0  0  0  0  0  0
   -8.6225   -7.5805    8.2786 C   0  0  0  0  0  0  0  0  0  0  0  0
   -9.3732   -6.6566    7.9960 O   0  0  0  0  0  0  0  0  0  0  0  0
   -8.0050   -8.1681    7.1836 N   0  0  0  0  0  0  0  0  0  0  0  0
   -7.3615   -9.4588    7.4097 C   0  0  2  0  0  0  0  0  0  0  0  0
   -6.6280   -9.9551    6.1785 C   0  0  0  0  0  0  0  0  0  0  0  0
   -5.7604   -9.2905    5.6312 O   0  0  0  0  0  0  0  0  0  0  0  0
   -7.0532  -11.1674    5.6653 O   0  0  0  0  0  0  0  0  0  0  0  0
   -8.3711  -10.4987    7.7555 C   0  0  1  0  0  0  0  0  0  0  0  0
   -7.7579  -11.7862    8.1893 C   0  0  0  0  0  0  0  0  0  0  0  0
   -9.0883   -9.8361    8.5857 O   0  0  0  0  0  0  0  0  0  0  0  0
   -9.1240   -9.2653   10.3258 C   0  0  0  0  0  0  0  0  0  0  0  0
  -10.6119   -9.1842   10.2008 S   0  0  0  0  0  0  0  0  0  0  0  0
  -11.5713   -7.5070   11.5794 S   0  0  0  0  0  0  0  0  0  0  0  0
  -13.2566   -7.2751   11.4341 C   0  0  0  0  0  0  0  0  0  0  0  0
  -13.8392   -6.3810   10.4779 C   0  0  2  0  0  0  0  0  0  0  0  0
  -15.4209   -6.4773    9.8946 N   0  0  0  0  0  0  0  0  0  0  0  0
  -16.1161   -7.7188    9.6887 C   0  0  0  0  0  0  0  0  0  0  0  0
  -17.2942   -7.5887    9.5299 O   0  0  0  0  0  0  0  0  0  0  0  0
  -15.5316   -9.1697    9.6721 C   0  0  1  0  0  0  0  0  0  0  0  0
  -14.8059   -9.4128    8.5398 C   0  0  0  0  0  0  0  0  0  0  0  0
  -13.1007   -8.5570    7.9178 C   0  0  0  0  0  0  0  0  0  0  0  0
  -13.6847   -6.9018    8.7651 C   0  0  0  0  0  0  0  0  0  0  0  0
  -12.1383   -6.4534    9.6109 C   0  0  0  0  0  0  0  0  0  0  0  0
  -11.0657   -6.6729    9.0868 C   0  0  0  0  0  0  0  0  0  0  0  0
  -11.0878   -7.5804    7.9851 C   0  0  0  0  0  0  0  0  0  0  0  0
  -12.2346   -8.0587    7.2420 C   0  0  0  0  0  0  0  0  0  0  0  0
  -14.7579   -9.5761   10.7643 N   0  0  0  0  0  0  0  0  0  0  0  0
  -15.1011  -10.6753   11.5074 C   0  0  0  0  0  0  0  0  0  0  0  0
  -14.3122  -11.0084   12.7814 C   0  0  0  0  0  0  0  0  0  0  0  0
  -15.1445  -10.9922   13.9813 N   0  0  0  0  0  0  0  0  0  0  0  0
  -14.4089  -10.4885   15.1023 C   0  0  0  0  0  0  0  0  0  0  0  0
  -14.3093   -8.9887   15.2525 C   0  0  0  0  0  0  0  0  0  0  0  0
  -15.3982   -8.3884   16.0060 N   0  0  0  0  0  0  0  0  0  0  0  0
  -15.0316   -7.0386   16.3845 C   0  0  0  0  0  0  0  0  0  0  0  0
  -14.7861   -6.1383   15.1558 C   0  0  0  0  0  0  0  0  0  0  0  0
  -15.4727   -5.1400   14.9671 O   0  0  0  0  0  0  0  0  0  0  0  0
  -13.7923   -6.5253   14.2727 O   0  0  0  0  0  0  0  0  0  0  0  0
  -16.5647   -8.2703   15.2573 C   0  0  0  0  0  0  0  0  0  0  0  0
  -17.8760   -8.3574   16.1095 C   0  0  0  0  0  0  0  0  0  0  0  0
  -18.3645   -9.7324   16.2832 N   0  0  0  0  0  0  0  0  0  0  0  0
  -19.1838   -9.7372   17.4786 C   0  0  0  0  0  0  0  0  0  0  0  0
  -20.4184   -8.8228   17.3253 C   0  0  0  0  0  0  0  0  0  0  0  0
  -21.5486   -9.2931   17.3884 O   0  0  0  0  0  0  0  0  0  0  0  0
  -20.1901   -7.4759   17.0797 O   0  0  0  0  0  0  0  0  0  0  0  0
  -19.2472  -10.2510   15.2253 C   0  0  0  0  0  0  0  0  0  0  0  0
  -19.2726  -11.7033   14.9812 C   0  0  0  0  0  0  0  0  0  0  0  0
  -18.1578  -12.2689   14.2322 N   0  0  0  0  0  0  0  0  0  0  0  0
  -17.9032  -11.4244   13.0599 C   0  0  0  0  0  0  0  0  0  0  0  0
  -17.4197  -10.0070   13.3768 C   0  0  0  0  0  0  0  0  0  0  0  0
  -16.3528   -9.5512   13.0246 O   0  0  0  0  0  0  0  0  0  0  0  0
  -18.1545   -9.0185   13.9596 O   0  0  0  0  0  0  0  0  0  0  0  0
  -16.9405  -12.3434   15.0419 C   0  0  0  0  0  0  0  0  0  0  0  0
  -15.6795  -12.3147   14.1983 C   0  0  0  0  0  0  0  0  0  0  0  0
  -16.0620  -11.3508   11.1683 O   0  0  0  0  0  0  0  0  0  0  0  0
  -13.1490   -8.1966    9.5064 C   0  0  0  0  0  0  0  0  0  0  0  0
  -12.0264   -8.6455    9.2024 O   0  0  0  0  0  0  0  0  0  0  0  0
  -14.5095   -7.9591    7.8118 N   0  0  0  0  0  0  0  0  0  0  0  0
  -13.9622   -9.7168    6.8129 C   0  0  1  0  0  0  0  0  0  0  0  0
  -12.1991  -10.2163    7.1324 C   0  0  0  0  0  0  0  0  0  0  0  0
  -11.9973  -11.1014    6.1468 C   0  0  0  0  0  0  0  0  0  0  0  0
  -11.0449  -10.7802    5.2616 C   0  0  0  0  0  0  0  0  0  0  0  0
  -10.5754  -11.7895    4.4758 C   0  0  0  0  0  0  0  0  0  0  0  0
  -11.1041  -13.0476    4.5262 C   0  0  0  0  0  0  0  0  0  0  0  0
  -12.0353  -13.2792    5.5110 C   0  0  0  0  0  0  0  0  0  0  0  0
  -12.6261  -12.2780    6.2221 C   0  0  0  0  0  0  0  0  0  0  0  0
  -10.7611  -14.0471    3.6421 O   0  0  0  0  0  0  0  0  0  0  0  0
  -15.0354  -11.0070    7.4660 C   0  0  0  0  0  0  0  0  0  0  0  0
  -15.8888  -11.8019    8.9343 O   0  0  0  0  0  0  0  0  0  0  0  0
  -13.4998  -11.0192    8.5132 N   0  0  0  0  0  0  0  0  0  0  0  0
  -19.8598  -13.1288    9.1431 C   0  0  0  0  0  0  0  0  0  0  0  0
  -20.8853  -13.5826   10.0195 C   0  0  0  0  0  0  0  0  0  0  0  0
  -21.3179  -14.8888   10.0008 C   0  0  0  0  0  0  0  0  0  0  0  0
  -20.7965  -15.7959    9.0977 C   0  0  0  0  0  0  0  0  0  0  0  0
  -19.2541  -16.9570    6.8767 H   0  0  0  0  0  0  0  0  0  0  0  0
  -17.7635  -15.1495    5.7073 H   0  0  0  0  0  0  0  0  0  0  0  0
  -16.0076  -11.7466    7.6655 H   0  0  0  0  0  0  0  0  0  0  0  0
  -16.3273  -11.2213    7.9867 H   0  0  0  0  0  0  0  0  0  0  0  0
  -13.3391  -11.1422    9.6352 H   0  0  0  0  0  0  0  0  0  0  0  0
   -7.0940   -7.1494   14.1408 H   0  0  0  0  0  0  0  0  0  0  0  0
   -6.9601   -6.3059   16.2823 H   0  0  0  0  0  0  0  0  0  0  0  0
   -6.5528   -4.5193   17.9502 H   0  0  0  0  0  0  0  0  0  0  0  0
   -6.3129   -3.3213   16.7013 H   0  0  0  0  0  0  0  0  0  0  0  0
   -8.5961   -3.1717   17.6073 H   0  0  0  0  0  0  0  0  0  0  0  0
   -8.6074   -3.6563   15.9209 H   0  0  0  0  0  0  0  0  0  0  0  0
  -10.1284   -5.0760   17.2295 H   0  0  0  0  0  0  0  0  0  0  0  0
   -8.8109   -6.0269   16.6004 H   0  0  0  0  0  0  0  0  0  0  0  0
   -9.1979   -6.5755   18.9514 H   0  0  0  0  0  0  0  0  0  0  0  0
   -7.6177   -5.8411   18.7512 H   0  0  0  0  0  0  0  0  0  0  0  0
   -8.7922   -4.8804   20.5836 H   0  0  0  0  0  0  0  0  0  0  0  0
   -8.5593   -3.7446   19.4057 H   0  0  0  0  0  0  0  0  0  0  0  0
   -8.3260   -6.3815   14.1717 H   0  0  0  0  0  0  0  0  0  0  0  0
   -9.2083   -5.1158   12.4089 H   0  0  0  0  0  0  0  0  0  0  0  0
   -6.3405   -4.1624   12.1308 H   0  0  0  0  0  0  0  0  0  0  0  0
   -8.8524   -3.4098   10.6329 H   0  0  0  0  0  0  0  0  0  0  0  0
   -7.2674   -2.6680   10.4277 H   0  0  0  0  0  0  0  0  0  0  0  0
   -7.5117   -4.3567    9.9869 H   0  0  0  0  0  0  0  0  0  0  0  0
   -8.7523   -2.8222   12.9639 H   0  0  0  0  0  0  0  0  0  0  0  0
   -9.7194   -6.7441   10.7719 H   0  0  0  0  0  0  0  0  0  0  0  0
   -7.3398   -8.2458    9.7745 H   0  0  0  0  0  0  0  0  0  0  0  0
   -8.2793   -7.8827    6.2258 H   0  0  0  0  0  0  0  0  0  0  0  0
   -6.6559   -9.3157    8.2436 H   0  0  0  0  0  0  0  0  0  0  0  0
   -6.6357  -11.5225    4.8460 H   0  0  0  0  0  0  0  0  0  0  0  0
   -9.1243  -10.6173    7.0438 H   0  0  0  0  0  0  0  0  0  0  0  0
   -7.0394  -11.6562    8.9913 H   0  0  0  0  0  0  0  0  0  0  0  0
   -8.4982  -12.5112    8.4899 H   0  0  0  0  0  0  0  0  0  0  0  0
   -7.2359  -12.1700    7.3309 H   0  0  0  0  0  0  0  0  0  0  0  0
   -8.0809   -9.7801    9.4713 H   0  0  0  0  0  0  0  0  0  0  0  0
   -8.8307   -9.6796   11.1597 H   0  0  0  0  0  0  0  0  0  0  0  0
   -8.9468  -10.6245    9.8709 H   0  0  0  0  0  0  0  0  0  0  0  0
  -13.5189   -6.5110   12.0225 H   0  0  0  0  0  0  0  0  0  0  0  0
  -13.7743   -8.0821   11.6712 H   0  0  0  0  0  0  0  0  0  0  0  0
  -13.3977   -5.5823    9.5783 H   0  0  0  0  0  0  0  0  0  0  0  0
  -15.5554   -5.5474    9.8491 H   0  0  0  0  0  0  0  0  0  0  0  0
  -16.2819   -9.8677    9.3913 H   0  0  0  0  0  0  0  0  0  0  0  0
  -13.9234   -9.6762    8.6274 H   0  0  0  0  0  0  0  0  0  0  0  0
  -15.3578   -9.2183    7.3479 H   0  0  0  0  0  0  0  0  0  0  0  0
  -14.4053   -7.6148    9.8367 H   0  0  0  0  0  0  0  0  0  0  0  0
  -12.2371   -5.8510   10.6360 H   0  0  0  0  0  0  0  0  0  0  0  0
  -10.3034   -6.1189    9.4555 H   0  0  0  0  0  0  0  0  0  0  0  0
  -10.2137   -8.2250    7.9285 H   0  0  0  0  0  0  0  0  0  0  0  0
  -12.5686   -8.7212    6.4999 H   0  0  0  0  0  0  0  0  0  0  0  0
  -13.9145   -9.1249   10.9075 H   0  0  0  0  0  0  0  0  0  0  0  0
  -13.9096  -12.0098   12.6987 H   0  0  0  0  0  0  0  0  0  0  0  0
  -13.5014  -10.3095   12.9080 H   0  0  0  0  0  0  0  0  0  0  0  0
  -14.8942  -10.8483   15.9908 H   0  0  0  0  0  0  0  0  0  0  0  0
  -13.4051  -10.8796   14.9883 H   0  0  0  0  0  0  0  0  0  0  0  0
  -13.4070   -8.7897   15.8265 H   0  0  0  0  0  0  0  0  0  0  0  0
  -14.2487   -8.5471   14.2689 H   0  0  0  0  0  0  0  0  0  0  0  0
  -15.8403   -6.6051   16.9839 H   0  0  0  0  0  0  0  0  0  0  0  0
  -14.1475   -7.0756   17.0013 H   0  0  0  0  0  0  0  0  0  0  0  0
  -13.6367   -5.9572   13.4858 H   0  0  0  0  0  0  0  0  0  0  0  0
  -16.6258   -7.3728   14.6279 H   0  0  0  0  0  0  0  0  0  0  0  0
  -16.5578   -9.0887   14.6340 H   0  0  0  0  0  0  0  0  0  0  0  0
  -17.6414   -7.9051   17.0160 H   0  0  0  0  0  0  0  0  0  0  0  0
  -18.6866   -7.7600   15.6073 H   0  0  0  0  0  0  0  0  0  0  0  0
  -19.5198  -10.7614   17.6626 H   0  0  0  0  0  0  0  0  0  0  0  0
  -18.5908   -9.4249   18.3243 H   0  0  0  0  0  0  0  0  0  0  0  0
  -20.9742   -6.8783   16.9602 H   0  0  0  0  0  0  0  0  0  0  0  0
  -20.2018   -9.8211   15.2984 H   0  0  0  0  0  0  0  0  0  0  0  0
  -19.1073  -10.1290   14.2105 H   0  0  0  0  0  0  0  0  0  0  0  0
  -19.2845  -12.1195   15.9549 H   0  0  0  0  0  0  0  0  0  0  0  0
  -20.1882  -11.9071   14.4268 H   0  0  0  0  0  0  0  0  0  0  0  0
  -17.1379  -11.8992   12.4837 H   0  0  0  0  0  0  0  0  0  0  0  0
  -18.7714  -11.3685   12.4333 H   0  0  0  0  0  0  0  0  0  0  0  0
  -18.0685   -8.2195   14.4219 H   0  0  0  0  0  0  0  0  0  0  0  0
  -16.9086  -11.5066   15.7217 H   0  0  0  0  0  0  0  0  0  0  0  0
  -16.9487  -13.2707   15.6063 H   0  0  0  0  0  0  0  0  0  0  0  0
  -15.9112  -12.7630   13.2389 H   0  0  0  0  0  0  0  0  0  0  0  0
  -14.9037  -12.8779   14.6760 H   0  0  0  0  0  0  0  0  0  0  0  0
  -15.4096   -8.0892    8.1137 H   0  0  0  0  0  0  0  0  0  0  0  0
  -14.1968   -9.3573    5.9458 H   0  0  0  0  0  0  0  0  0  0  0  0
  -11.1827   -9.2897    6.9298 H   0  0  0  0  0  0  0  0  0  0  0  0
  -12.0463  -10.2874    8.1783 H   0  0  0  0  0  0  0  0  0  0  0  0
  -10.6626   -9.7768    5.1820 H   0  0  0  0  0  0  0  0  0  0  0  0
   -9.7660  -11.5856    3.8177 H   0  0  0  0  0  0  0  0  0  0  0  0
  -12.2827  -14.2894    5.7283 H   0  0  0  0  0  0  0  0  0  0  0  0
  -13.5129  -12.4490    6.8180 H   0  0  0  0  0  0  0  0  0  0  0  0
  -10.1051  -13.8458    2.9360 H   0  0  0  0  0  0  0  0  0  0  0  0
  -14.4531  -11.1393    7.1710 H   0  0  0  0  0  0  0  0  0  0  0  0
  -19.5744  -12.1188    9.1972 H   0  0  0  0  0  0  0  0  0  0  0  0
  -21.2902  -12.8851   10.7379 H   0  0  0  0  0  0  0  0  0  0  0  0
  -22.0864  -15.1907   10.6982 H   0  0  0  0  0  0  0  0  0  0  0  0
  -21.1493  -16.8366    9.1002 H   0  0  0  0  0  0  0  0  0  0  0  0
  1  5  1  0  0  0  0
  1101  1  0  0  0  0
  2  1  1  0  0  0  0
  2100  1  0  0  0  0
  3  2  2  0  0  0  0
  4  3  1  0  0  0  0
  5  4  2  0  0  0  0
  5102  1  0  0  0  0
  6  4  1  0  0  0  0
  6103  1  0  0  0  0
  6104  1  0  0  0  0
  7  6  1  0  0  0  0
  7  8  1  0  0  0  0
  7105  1  1  0  0  0
  8  9  2  0  0  0  0
 10  8  1  0  0  0  0
 10 11  1  0  0  0  0
 10106  1  0  0  0  0
 11 12  1  0  0  0  0
 11 17  1  0  0  0  0
 11107  1  6  0  0  0
 12 13  1  0  0  0  0
 12108  1  0  0  0  0
 12109  1  0  0  0  0
 13 14  1  0  0  0  0
 13110  1  0  0  0  0
 13111  1  0  0  0  0
 14 15  1  0  0  0  0
 14112  1  0  0  0  0
 14113  1  0  0  0  0
 15 16  1  0  0  0  0
 15114  1  0  0  0  0
 15115  1  0  0  0  0
 16116  1  0  0  0  0
 16117  1  0  0  0  0
 17 18  2  0  0  0  0
 19 17  1  0  0  0  0
 19118  1  0  0  0  0
 20 19  1  0  0  0  0
 20 21  1  0  0  0  0
 20 24  1  0  0  0  0
 20119  1  6  0  0  0
 21 22  1  0  0  0  0
 21 23  1  0  0  0  0
 21120  1  1  0  0  0
 22121  1  0  0  0  0
 22122  1  0  0  0  0
 22123  1  0  0  0  0
 23124  1  0  0  0  0
 24 25  2  0  0  0  0
 26 24  1  0  0  0  0
 26 27  1  0  0  0  0
 26125  1  0  0  0  0
 27 38  1  0  0  0  0
 27126  1  1  0  0  0
 27 28  1  0  0  0  0
 28 29  2  0  0  0  0
 30 28  1  0  0  0  0
 30127  1  0  0  0  0
 31 35  1  0  0  0  0
 31128  1  1  0  0  0
 31 32  1  0  0  0  0
 31 30  1  0  0  0  0
 32 33  2  0  0  0  0
 32 34  1  0  0  0  0
 34129  1  0  0  0  0
 35 36  1  0  0  0  0
 35 37  1  0  0  0  0
 35130  1  6  0  0  0
 36131  1  0  0  0  0
 36132  1  0  0  0  0
 36133  1  0  0  0  0
 37134  1  0  0  0  0
 38 39  1  0  0  0  0
 38135  1  0  0  0  0
 38136  1  0  0  0  0
 39 40  1  0  0  0  0
 41 40  1  0  0  0  0
 41137  1  0  0  0  0
 41138  1  0  0  0  0
 42 41  1  0  0  0  0
 42 82  1  0  0  0  0
 42139  1  6  0  0  0
 42 43  1  0  0  0  0
 43 44  1  0  0  0  0
 43140  1  0  0  0  0
 44 45  2  0  0  0  0
 46 44  1  0  0  0  0
 46 47  1  0  0  0  0
 46 54  1  0  0  0  0
 46141  1  6  0  0  0
 47 48  1  0  0  0  0
 47142  1  0  0  0  0
 47143  1  0  0  0  0
 48 53  1  0  0  0  0
 49 48  2  0  0  0  0
 49144  1  0  0  0  0
 50 49  1  0  0  0  0
 50145  1  0  0  0  0
 51 50  2  0  0  0  0
 51146  1  0  0  0  0
 52 51  1  0  0  0  0
 52147  1  0  0  0  0
 53 52  2  0  0  0  0
 53148  1  0  0  0  0
 54149  1  0  0  0  0
 55 54  1  0  0  0  0
 55 81  2  0  0  0  0
 56 55  1  0  0  0  0
 56150  1  0  0  0  0
 56151  1  0  0  0  0
 57 56  1  0  0  0  0
 57 58  1  0  0  0  0
 57 80  1  0  0  0  0
 58 59  1  0  0  0  0
 58152  1  0  0  0  0
 58153  1  0  0  0  0
 59 60  1  0  0  0  0
 59154  1  0  0  0  0
 59155  1  0  0  0  0
 60 61  1  0  0  0  0
 60 65  1  0  0  0  0
 61 62  1  0  0  0  0
 61156  1  0  0  0  0
 61157  1  0  0  0  0
 62 63  2  0  0  0  0
 62 64  1  0  0  0  0
 64158  1  0  0  0  0
 65 66  1  0  0  0  0
 65159  1  0  0  0  0
 65160  1  0  0  0  0
 66 67  1  0  0  0  0
 66161  1  0  0  0  0
 66162  1  0  0  0  0
 67 68  1  0  0  0  0
 67 72  1  0  0  0  0
 68 69  1  0  0  0  0
 68163  1  0  0  0  0
 68164  1  0  0  0  0
 69 70  2  0  0  0  0
 69 71  1  0  0  0  0
 71165  1  0  0  0  0
 72 73  1  0  0  0  0
 72166  1  0  0  0  0
 72167  1  0  0  0  0
 73 74  1  0  0  0  0
 73168  1  0  0  0  0
 73169  1  0  0  0  0
 74 75  1  0  0  0  0
 74 79  1  0  0  0  0
 75 76  1  0  0  0  0
 75170  1  0  0  0  0
 75171  1  0  0  0  0
 76 77  2  0  0  0  0
 76 78  1  0  0  0  0
 78172  1  0  0  0  0
 79 80  1  0  0  0  0
 79173  1  0  0  0  0
 79174  1  0  0  0  0
 80175  1  0  0  0  0
 80176  1  0  0  0  0
 82 83  2  0  0  0  0
 84 82  1  0  0  0  0
 84 85  1  0  0  0  0
 84177  1  0  0  0  0
 85 86  1  0  0  0  0
 85 94  1  0  0  0  0
 85178  1  6  0  0  0
 86 87  1  0  0  0  0
 86179  1  0  0  0  0
 86180  1  0  0  0  0
 87 92  1  0  0  0  0
 88 87  2  0  0  0  0
 88181  1  0  0  0  0
 89 88  1  0  0  0  0
 89182  1  0  0  0  0
 90 89  2  0  0  0  0
 90 93  1  0  0  0  0
 91 90  1  0  0  0  0
 91183  1  0  0  0  0
 92 91  2  0  0  0  0
 92184  1  0  0  0  0
 93185  1  0  0  0  0
 94 95  2  0  0  0  0
 96 94  1  0  0  0  0
 96  7  1  0  0  0  0
 96186  1  0  0  0  0
 97  3  1  0  0  0  0
 97187  1  0  0  0  0
 98 97  2  0  0  0  0
 98188  1  0  0  0  0
 99 98  1  0  0  0  0
 99189  1  0  0  0  0
100 99  2  0  0  0  0
100190  1  0  0  0  0
M  END
>  <DRUGBANK_ID>
DB14554

>  <COMMON_NAME>
Dotatate

>  <CAS_NUMBER>
177943-88-3

>  <UNII>
MRL3739G66

>  <SYNONYMS>
DOTA-octreotate; DOTA-TATE; Oxodotreotide

$$$$
