1563
 OpenBabel10282417113D

 10  9  0  0  0  0  0  0  0  0999 V2000
    0.9155   -0.0237   -0.1510 Cl  0  0  0  0  0  0  0  0  0  0  0  0
    3.3207   -0.7470   -1.6263 Cl  0  0  0  0  0  0  0  0  0  0  0  0
    3.2996    1.6424    0.0445 Cl  0  0  0  0  0  0  0  0  0  0  0  0
    2.7891   -0.3336    2.3903 O   0  0  0  0  0  0  0  0  0  0  0  0
    2.7684   -2.2353    1.1238 O   0  0  0  0  0  0  0  0  0  0  0  0
    3.2022   -0.8782    1.1371 C   0  0  0  0  0  0  0  0  0  0  0  0
    2.7095   -0.0477   -0.0975 C   0  0  0  0  0  0  0  0  0  0  0  0
    3.1136    0.5844    2.4307 H   0  0  0  0  0  0  0  0  0  0  0  0
    1.7960   -2.2070    1.0636 H   0  0  0  0  0  0  0  0  0  0  0  0
    4.2985   -0.9031    1.1473 H   0  0  0  0  0  0  0  0  0  0  0  0
  1  7  1  0  0  0  0
  2  7  1  0  0  0  0
  3  7  1  0  0  0  0
  4  6  1  0  0  0  0
  4  8  1  0  0  0  0
  5  6  1  0  0  0  0
  5  9  1  0  0  0  0
  6  7  1  0  0  0  0
  6 10  1  0  0  0  0
M  END
>  <DRUGBANK_ID>
DB01563

>  <COMMON_NAME>
Chloral hydrate

>  <CAS_NUMBER>
302-17-0

>  <UNII>
418M5916WG

>  <SYNONYMS>
1,1,1-trichloro-2,2-dihydroxyethane; 1,1,1-trichloro-2,2-ethanediol; 2,2,2-trichloro-1,1-ethanediol; Chloral hydrate; chloral monohydrate; Chloralhydrat; Trichloracetaldehyd-hydrat; trichloroacetaldehyde hydrate

$$$$
