
 OpenBabel10282417173D

 46 48  0  0  0  0  0  0  0  0999 V2000
    0.6537    0.4855   -0.0125 C   0  0  0  0  0  0  0  0  0  0  0  0
    0.0295   -0.1378    1.1465 N   0  0  0  0  0  0  0  0  0  0  0  0
   -1.3939   -0.0212    1.2014 C   0  0  0  0  0  0  0  0  0  0  0  0
    0.3630   -1.5244    1.3879 C   0  0  0  0  0  0  0  0  0  0  0  0
    0.3177   -2.6967    0.4279 C   0  0  0  0  0  0  0  0  0  0  0  0
    1.2595   -2.5008   -0.7719 C   0  0  0  0  0  0  0  0  0  0  0  0
    2.7112   -2.5062   -0.5705 O   0  0  0  0  0  0  0  0  0  0  0  0
    3.3407   -1.6000    0.2514 C   0  0  0  0  0  0  0  0  0  0  0  0
    4.1131   -0.6469   -0.3141 N   0  0  0  0  0  0  0  0  0  0  0  0
    4.5254    0.1339    0.7534 N   0  0  0  0  0  0  0  0  0  0  0  0
    5.4428    1.2809    0.5611 C   0  0  0  0  0  0  0  0  0  0  0  0
    4.8518    2.6662    0.8209 C   0  0  0  0  0  0  0  0  0  0  0  0
    4.3102    3.0521    2.0523 C   0  0  0  0  0  0  0  0  0  0  0  0
    3.5591    4.2041    2.2430 C   0  0  0  0  0  0  0  0  0  0  0  0
    3.5503    5.1538    1.2494 C   0  0  0  0  0  0  0  0  0  0  0  0
    4.2894    4.9216    0.0906 C   0  0  0  0  0  0  0  0  0  0  0  0
    4.8874    3.6705   -0.1494 C   0  0  0  0  0  0  0  0  0  0  0  0
    4.0389   -0.3284    1.9619 C   0  0  0  0  0  0  0  0  0  0  0  0
    4.0809    0.1821    3.2839 C   0  0  0  0  0  0  0  0  0  0  0  0
    3.1041   -0.2418    4.1802 C   0  0  0  0  0  0  0  0  0  0  0  0
    2.4466   -1.4121    3.9332 C   0  0  0  0  0  0  0  0  0  0  0  0
    2.7739   -2.1918    2.7978 C   0  0  0  0  0  0  0  0  0  0  0  0
    3.4047   -1.5160    1.6974 C   0  0  0  0  0  0  0  0  0  0  0  0
    0.4587    1.5589   -0.0483 H   0  0  0  0  0  0  0  0  0  0  0  0
    0.2917    0.0643   -0.9477 H   0  0  0  0  0  0  0  0  0  0  0  0
    1.7443    0.4134    0.0070 H   0  0  0  0  0  0  0  0  0  0  0  0
   -1.8440   -0.6982    0.4741 H   0  0  0  0  0  0  0  0  0  0  0  0
   -1.7164   -0.3073    2.2094 H   0  0  0  0  0  0  0  0  0  0  0  0
   -1.6993    1.0064    1.0226 H   0  0  0  0  0  0  0  0  0  0  0  0
    1.3834   -1.3667    1.4401 H   0  0  0  0  0  0  0  0  0  0  0  0
    0.0557   -1.8452    2.3920 H   0  0  0  0  0  0  0  0  0  0  0  0
    0.6641   -3.5978    0.9569 H   0  0  0  0  0  0  0  0  0  0  0  0
   -0.7255   -2.8980    0.1509 H   0  0  0  0  0  0  0  0  0  0  0  0
    1.0596   -3.3720   -1.4160 H   0  0  0  0  0  0  0  0  0  0  0  0
    0.9288   -1.6792   -1.4100 H   0  0  0  0  0  0  0  0  0  0  0  0
    6.2947    1.1002    1.2289 H   0  0  0  0  0  0  0  0  0  0  0  0
    5.8184    1.2133   -0.4676 H   0  0  0  0  0  0  0  0  0  0  0  0
    4.4728    2.5068    2.9536 H   0  0  0  0  0  0  0  0  0  0  0  0
    3.0303    4.3465    3.1824 H   0  0  0  0  0  0  0  0  0  0  0  0
    3.0091    6.0806    1.4051 H   0  0  0  0  0  0  0  0  0  0  0  0
    4.3880    5.7199   -0.6381 H   0  0  0  0  0  0  0  0  0  0  0  0
    5.3938    3.5062   -1.0972 H   0  0  0  0  0  0  0  0  0  0  0  0
    4.7615    0.9348    3.6031 H   0  0  0  0  0  0  0  0  0  0  0  0
    2.9070    0.3393    5.0844 H   0  0  0  0  0  0  0  0  0  0  0  0
    1.6345   -1.7199    4.5951 H   0  0  0  0  0  0  0  0  0  0  0  0
    2.2194   -3.1015    2.6293 H   0  0  0  0  0  0  0  0  0  0  0  0
  1  2  1  0  0  0  0
  1 24  1  0  0  0  0
  1 25  1  0  0  0  0
  1 26  1  0  0  0  0
  2  3  1  0  0  0  0
  2  4  1  0  0  0  0
  3 27  1  0  0  0  0
  3 28  1  0  0  0  0
  3 29  1  0  0  0  0
  4  5  1  0  0  0  0
  4 30  1  0  0  0  0
  4 31  1  0  0  0  0
  5  6  1  0  0  0  0
  5 32  1  0  0  0  0
  5 33  1  0  0  0  0
  6  7  1  0  0  0  0
  6 34  1  0  0  0  0
  6 35  1  0  0  0  0
  7  8  1  0  0  0  0
  8  9  2  0  0  0  0
  8 23  1  0  0  0  0
  9 10  1  0  0  0  0
 10 11  1  0  0  0  0
 10 18  1  0  0  0  0
 11 12  1  0  0  0  0
 11 36  1  0  0  0  0
 11 37  1  0  0  0  0
 12 13  2  0  0  0  0
 12 17  1  0  0  0  0
 13 14  1  0  0  0  0
 13 38  1  0  0  0  0
 14 15  2  0  0  0  0
 14 39  1  0  0  0  0
 15 16  1  0  0  0  0
 15 40  1  0  0  0  0
 16 17  2  0  0  0  0
 16 41  1  0  0  0  0
 17 42  1  0  0  0  0
 18 19  2  0  0  0  0
 18 23  1  0  0  0  0
 19 20  1  0  0  0  0
 19 43  1  0  0  0  0
 20 21  2  0  0  0  0
 20 44  1  0  0  0  0
 21 22  1  0  0  0  0
 21 45  1  0  0  0  0
 22 23  2  0  0  0  0
 22 46  1  0  0  0  0
M  END
>  <DRUGBANK_ID>
DB09084

>  <COMMON_NAME>
Benzydamine

>  <CAS_NUMBER>
642-72-8

>  <UNII>
4O21U048EF

>  <SYNONYMS>
Bencidamina; Benzydamine; Benzydaminum

$$$$
