
 OpenBabel10282417233D

 56 60  0  0  1  0  0  0  0  0999 V2000
    1.0244   -0.0631   -0.0736 C   0  0  0  0  0  0  0  0  0  0  0  0
   -0.4956   -0.0631   -0.0736 C   0  0  0  0  0  0  0  0  0  0  0  0
   -0.9454   -1.4986   -0.3672 C   0  0  0  0  0  0  0  0  0  0  0  0
   -0.4905   -2.5306    0.5979 N   0  0  0  0  0  0  0  0  0  0  0  0
    0.8383   -3.1310    0.3748 C   0  0  1  0  0  0  0  0  0  0  0  0
    1.9465   -2.1238    0.4382 C   0  0  0  0  0  0  0  0  0  0  0  0
    1.8208   -1.0039    1.9521 C   0  0  2  0  0  0  0  0  0  0  0  0
    0.3288   -0.9431    2.4481 C   0  0  0  0  0  0  0  0  0  0  0  0
   -0.4645   -2.1628    2.0203 C   0  0  2  0  0  0  0  0  0  0  0  0
    0.3166   -3.3135    2.6607 C   0  0  0  0  0  0  0  0  0  0  0  0
    1.1987   -3.9193    1.5864 C   0  0  0  0  0  0  0  0  0  0  0  0
    2.0593    0.5688    2.0653 N   0  0  0  0  0  0  0  0  0  0  0  0
    3.2145    1.3234    1.9969 C   0  0  0  0  0  0  0  0  0  0  0  0
    3.0514    2.6844    2.3846 C   0  0  0  0  0  0  0  0  0  0  0  0
    1.7656    3.2782    2.5573 C   0  0  0  0  0  0  0  0  0  0  0  0
    1.6443    4.2860    3.4920 C   0  0  0  0  0  0  0  0  0  0  0  0
    2.8056    4.8552    3.9434 C   0  0  0  0  0  0  0  0  0  0  0  0
    4.0559    4.4624    3.5792 N   0  0  0  0  0  0  0  0  0  0  0  0
    4.1500    3.3256    2.8363 C   0  0  0  0  0  0  0  0  0  0  0  0
    5.3868    2.7125    2.6277 C   0  0  0  0  0  0  0  0  0  0  0  0
    5.4705    1.4586    1.9974 C   0  0  0  0  0  0  0  0  0  0  0  0
    4.3933    0.7572    1.7083 N   0  0  0  0  0  0  0  0  0  0  0  0
    6.7036    0.8410    1.7654 N   0  0  0  0  0  0  0  0  0  0  0  0
    7.8867    1.2609    2.2215 C   0  0  0  0  0  0  0  0  0  0  0  0
    8.9455    1.6005    1.4878 N   0  0  0  0  0  0  0  0  0  0  0  0
    9.7917    2.1419    2.3807 N   0  0  0  0  0  0  0  0  0  0  0  0
    9.3521    2.0708    3.6740 C   0  0  0  0  0  0  0  0  0  0  0  0
    8.1219    1.4699    3.6019 C   0  0  0  0  0  0  0  0  0  0  0  0
   10.1243    2.5762    4.8242 C   0  0  0  0  0  0  0  0  0  0  0  0
    2.2854   -0.0631   -0.0736 N   0  0  0  0  0  0  0  0  0  0  0  0
   -1.0842    0.4118    0.7091 H   0  0  0  0  0  0  0  0  0  0  0  0
   -0.7561    0.5609   -0.9425 H   0  0  0  0  0  0  0  0  0  0  0  0
   -2.0456   -1.4907   -0.4167 H   0  0  0  0  0  0  0  0  0  0  0  0
   -0.6527   -1.7594   -1.4020 H   0  0  0  0  0  0  0  0  0  0  0  0
    0.8547   -3.7042   -0.5691 H   0  0  0  0  0  0  0  0  0  0  0  0
    1.7763   -1.8336   -0.6429 H   0  0  0  0  0  0  0  0  0  0  0  0
    2.9878   -2.4390    0.2928 H   0  0  0  0  0  0  0  0  0  0  0  0
    2.5299   -1.4219    2.6543 H   0  0  0  0  0  0  0  0  0  0  0  0
    0.3088   -0.7731    3.5281 H   0  0  0  0  0  0  0  0  0  0  0  0
   -0.1745   -0.0105    2.1675 H   0  0  0  0  0  0  0  0  0  0  0  0
   -1.4907   -2.0696    2.3856 H   0  0  0  0  0  0  0  0  0  0  0  0
    0.9560   -2.9326    3.4677 H   0  0  0  0  0  0  0  0  0  0  0  0
   -0.3484   -4.0630    3.0615 H   0  0  0  0  0  0  0  0  0  0  0  0
    2.2657   -3.7686    1.8299 H   0  0  0  0  0  0  0  0  0  0  0  0
    1.0622   -4.9812    1.4309 H   0  0  0  0  0  0  0  0  0  0  0  0
    1.5849    1.1021    1.3307 H   0  0  0  0  0  0  0  0  0  0  0  0
    0.8736    2.8806    2.0981 H   0  0  0  0  0  0  0  0  0  0  0  0
    0.6657    4.5515    3.8797 H   0  0  0  0  0  0  0  0  0  0  0  0
    2.7721    5.6793    4.6512 H   0  0  0  0  0  0  0  0  0  0  0  0
    6.2628    3.1991    3.0039 H   0  0  0  0  0  0  0  0  0  0  0  0
    6.6274    0.0976    1.0781 H   0  0  0  0  0  0  0  0  0  0  0  0
   10.6563    2.5428    2.0367 H   0  0  0  0  0  0  0  0  0  0  0  0
    7.4429    1.2573    4.4170 H   0  0  0  0  0  0  0  0  0  0  0  0
   11.0683    2.0317    4.9111 H   0  0  0  0  0  0  0  0  0  0  0  0
   10.3400    3.6431    4.7141 H   0  0  0  0  0  0  0  0  0  0  0  0
    9.5668    2.4399    5.7575 H   0  0  0  0  0  0  0  0  0  0  0  0
  1  2  1  0  0  0  0
  1 30  3  0  0  0  0
  2  3  1  0  0  0  0
  2 31  1  0  0  0  0
  2 32  1  0  0  0  0
  3  4  1  0  0  0  0
  3 33  1  0  0  0  0
  3 34  1  0  0  0  0
  5  4  1  0  0  0  0
  5  6  1  0  0  0  0
  5 11  1  0  0  0  0
  5 35  1  6  0  0  0
  6  7  1  0  0  0  0
  6 36  1  0  0  0  0
  6 37  1  0  0  0  0
  7  8  1  0  0  0  0
  7 12  1  0  0  0  0
  7 38  1  1  0  0  0
  8  9  1  0  0  0  0
  8 39  1  0  0  0  0
  8 40  1  0  0  0  0
  9 10  1  0  0  0  0
  9  4  1  0  0  0  0
  9 41  1  1  0  0  0
 10 11  1  0  0  0  0
 10 42  1  0  0  0  0
 10 43  1  0  0  0  0
 11 44  1  0  0  0  0
 11 45  1  0  0  0  0
 12 13  1  0  0  0  0
 12 46  1  0  0  0  0
 13 22  1  0  0  0  0
 14 13  2  0  0  0  0
 14 19  1  0  0  0  0
 15 14  1  0  0  0  0
 15 47  1  0  0  0  0
 16 15  2  0  0  0  0
 16 48  1  0  0  0  0
 17 16  1  0  0  0  0
 17 49  1  0  0  0  0
 18 17  2  0  0  0  0
 18 19  1  0  0  0  0
 20 19  2  0  0  0  0
 20 50  1  0  0  0  0
 21 20  1  0  0  0  0
 21 23  1  0  0  0  0
 22 21  2  0  0  0  0
 23 24  1  0  0  0  0
 23 51  1  0  0  0  0
 24 28  1  0  0  0  0
 25 24  2  0  0  0  0
 26 25  1  0  0  0  0
 26 27  1  0  0  0  0
 26 52  1  0  0  0  0
 27 29  1  0  0  0  0
 28 27  2  0  0  0  0
 28 53  1  0  0  0  0
 29 54  1  0  0  0  0
 29 55  1  0  0  0  0
 29 56  1  0  0  0  0
M  END
>  <DRUGBANK_ID>
DB16660

>  <COMMON_NAME>
Izencitinib

>  <CAS_NUMBER>
2051918-33-1

>  <UNII>
2ZT81PV5UM

>  <SYNONYMS>
3-((1r,3s,5s)-3-((7-((5-methyl-1h-pyrazol-3-yl)amino)-1,6-naphthyridin-5-yl)amino)-8-azabicyclo(3.2.1)octan-8-yl)propanenitrile; 8-azabicyclo(3.2.1)octane-8-propanenitrile, 3-((7-((5-methyl-1h-pyrazol-3-yl)amino)-1,6-naphthyridin-5-yl)amino)-, (3-exo)-

$$$$
