DMB
 OpenBabel10282417163D

 34 35  0  0  0  0  0  0  0  0999 V2000
    1.4917   -0.2948   -0.0202 C   0  0  0  0  0  0  0  0  0  0  0  0
    0.5734   -1.3840   -0.0562 C   0  0  0  0  0  0  0  0  0  0  0  0
   -0.8195   -1.1147   -0.0287 C   0  0  0  0  0  0  0  0  0  0  0  0
   -1.3259    0.1840    0.0014 C   0  0  0  0  0  0  0  0  0  0  0  0
   -0.4457    1.2524    0.0325 C   0  0  0  0  0  0  0  0  0  0  0  0
    0.9368    1.0135   -0.0064 C   0  0  0  0  0  0  0  0  0  0  0  0
    4.6991   -1.7039    0.4188 C   0  0  0  0  0  0  0  0  0  0  0  0
    5.4465   -1.0345    1.3720 C   0  0  0  0  0  0  0  0  0  0  0  0
    6.7639   -1.4031    1.6493 C   0  0  0  0  0  0  0  0  0  0  0  0
    7.3338   -2.4888    0.9760 C   0  0  0  0  0  0  0  0  0  0  0  0
    6.5787   -3.2581    0.0891 C   0  0  0  0  0  0  0  0  0  0  0  0
    5.2771   -2.8181   -0.2317 C   0  0  0  0  0  0  0  0  0  0  0  0
    0.8808   -2.8546   -0.1308 C   0  0  0  0  0  0  0  0  0  0  0  0
    7.4799   -0.6558    2.7235 C   0  0  0  0  0  0  0  0  0  0  0  0
    7.1028   -4.5811   -0.4087 C   0  0  0  0  0  0  0  0  0  0  0  0
    2.9264   -0.3480   -0.0007 N   0  0  0  0  0  0  0  0  0  0  0  0
    3.3217   -1.4612    0.3814 N   0  0  0  0  0  0  0  0  0  0  0  0
    0.0613   -3.7401    0.0972 O   0  0  0  0  0  0  0  0  0  0  0  0
    2.1145   -3.2000   -0.5034 O   0  0  0  0  0  0  0  0  0  0  0  0
    8.6376   -2.8469    1.1799 O   0  0  0  0  0  0  0  0  0  0  0  0
   -1.5323   -1.9398   -0.0393 H   0  0  0  0  0  0  0  0  0  0  0  0
   -2.4013    0.3528   -0.0151 H   0  0  0  0  0  0  0  0  0  0  0  0
   -0.8337    2.2686    0.0863 H   0  0  0  0  0  0  0  0  0  0  0  0
    1.5986    1.8788   -0.0386 H   0  0  0  0  0  0  0  0  0  0  0  0
    4.9546   -0.2514    1.9423 H   0  0  0  0  0  0  0  0  0  0  0  0
    4.6908   -3.3855   -0.9527 H   0  0  0  0  0  0  0  0  0  0  0  0
    7.7796   -1.3475    3.5160 H   0  0  0  0  0  0  0  0  0  0  0  0
    8.3495   -0.1528    2.2975 H   0  0  0  0  0  0  0  0  0  0  0  0
    6.8289    0.1021    3.1708 H   0  0  0  0  0  0  0  0  0  0  0  0
    6.4563   -5.3935   -0.0552 H   0  0  0  0  0  0  0  0  0  0  0  0
    7.1646   -4.6052   -1.4984 H   0  0  0  0  0  0  0  0  0  0  0  0
    8.1020   -4.8056   -0.0156 H   0  0  0  0  0  0  0  0  0  0  0  0
    2.3286   -4.0769   -0.1268 H   0  0  0  0  0  0  0  0  0  0  0  0
    9.0915   -2.1509    1.6782 H   0  0  0  0  0  0  0  0  0  0  0  0
  1  2  1  0  0  0  0
  1  6  2  0  0  0  0
  1 16  1  0  0  0  0
  2  3  2  0  0  0  0
  2 13  1  0  0  0  0
  3  4  1  0  0  0  0
  3 21  1  0  0  0  0
  4  5  2  0  0  0  0
  4 22  1  0  0  0  0
  5  6  1  0  0  0  0
  5 23  1  0  0  0  0
  6 24  1  0  0  0  0
  7  8  1  0  0  0  0
  7 12  2  0  0  0  0
  7 17  1  0  0  0  0
  8  9  2  0  0  0  0
  8 25  1  0  0  0  0
  9 10  1  0  0  0  0
  9 14  1  0  0  0  0
 10 11  2  0  0  0  0
 10 20  1  0  0  0  0
 11 12  1  0  0  0  0
 11 15  1  0  0  0  0
 12 26  1  0  0  0  0
 13 18  2  0  0  0  0
 13 19  1  0  0  0  0
 14 27  1  0  0  0  0
 14 28  1  0  0  0  0
 14 29  1  0  0  0  0
 15 30  1  0  0  0  0
 15 31  1  0  0  0  0
 15 32  1  0  0  0  0
 16 17  2  0  0  0  0
 19 33  1  0  0  0  0
 20 34  1  0  0  0  0
M  END
>  <DRUGBANK_ID>
DB07667

>  <COMMON_NAME>
2-((3',5'-DIMETHYL-4'-HYDROXYPHENYL)AZO)BENZOIC ACID

$$$$
