
 OpenBabel10282417213D

 85 68  0  0  0  0  0  0  0  0999 V2000
    1.9985   -1.3868   -2.6448 Fe  0  1  0  0  0  0  0  0  0  0  0  0
    2.0301    1.2848   -1.3621 O   0  5  0  0  0  0  0  0  0  0  0  0
    3.3994    1.5628   -0.1437 C   0  0  0  0  0  0  0  0  0  0  0  0
    4.2128    2.5309   -0.6516 C   0  0  0  0  0  0  0  0  0  0  0  0
    3.3502    2.4036   -2.5280 C   0  0  0  0  0  0  0  0  0  0  0  0
    1.8355    2.9079   -2.4874 C   0  0  0  0  0  0  0  0  0  0  0  0
    1.1468    4.2965   -1.0529 C   0  0  0  0  0  0  0  0  0  0  0  0
    0.0470    4.6538   -1.4634 O   0  5  0  0  0  0  0  0  0  0  0  0
    1.0837    3.5180    0.3963 O   0  0  0  0  0  0  0  0  0  0  0  0
    3.6802    3.5546   -2.3795 O   0  5  0  0  0  0  0  0  0  0  0  0
    3.7142    1.3545   -3.4082 C   0  0  0  0  0  0  0  0  0  0  0  0
    4.6307    0.0881   -2.7656 O   0  0  0  0  0  0  0  0  0  0  0  0
    2.5590    1.2535   -4.4324 O   0  5  0  0  0  0  0  0  0  0  0  0
    4.1344    0.7366    0.3571 O   0  0  0  0  0  0  0  0  0  0  0  0
    1.2340   -1.8878   -0.0758 O   0  0  0  0  0  0  0  0  0  0  0  0
    0.4214   -1.1125   -1.6876 O   0  0  0  0  0  0  0  0  0  0  0  0
   -0.5624   -1.3237    0.0932 O   0  0  0  0  0  0  0  0  0  0  0  0
   -1.0548    0.6292    0.4847 O   0  0  0  0  0  0  0  0  0  0  0  0
    0.9025   -1.7732    1.5877 O   0  0  0  0  0  0  0  0  0  0  0  0
    0.4682    0.9009    1.5206 O   0  0  0  0  0  0  0  0  0  0  0  0
    1.5364    1.3878    0.1554 O   0  0  0  0  0  0  0  0  0  0  0  0
    2.1027    1.2457    1.9308 O   0  0  0  0  0  0  0  0  0  0  0  0
    1.3028   -0.2661    0.6617 O   0  0  0  0  0  0  0  0  0  0  0  0
   -0.2185    1.5540   -1.0379 O   0  0  0  0  0  0  0  0  0  0  0  0
    0.7985    2.6117    2.2185 Fe  0  1  0  0  0  0  0  0  0  0  0  0
    1.0641    2.5606   -0.9924 Fe  0  1  0  0  0  0  0  0  0  0  0  0
    2.0033   -2.4031    2.7944 Fe  0  1  0  0  0  0  0  0  0  0  0  0
    1.4419   -0.5953    2.7591 O   0  5  0  0  0  0  0  0  0  0  0  0
    2.9868   -0.8874    1.8942 C   0  0  0  0  0  0  0  0  0  0  0  0
    3.3958   -1.7787    0.0199 C   0  0  0  0  0  0  0  0  0  0  0  0
    2.6998   -2.9644   -0.8525 C   0  0  0  0  0  0  0  0  0  0  0  0
    1.3148   -3.1238   -1.5197 C   0  0  0  0  0  0  0  0  0  0  0  0
    0.5773   -2.7796   -2.7701 C   0  0  0  0  0  0  0  0  0  0  0  0
   -0.0865   -3.2759   -3.5580 O   0  5  0  0  0  0  0  0  0  0  0  0
    0.6771   -1.7080   -3.4235 O   0  0  0  0  0  0  0  0  0  0  0  0
    3.1094   -3.7875   -1.6779 O   0  5  0  0  0  0  0  0  0  0  0  0
    3.3418   -3.2718    0.5129 C   0  0  0  0  0  0  0  0  0  0  0  0
    3.5707   -2.5884    1.6266 O   0  0  0  0  0  0  0  0  0  0  0  0
    2.6634   -4.1977    1.0099 O   0  5  0  0  0  0  0  0  0  0  0  0
    3.6898    0.5104    2.2138 O   0  0  0  0  0  0  0  0  0  0  0  0
    0.8446    0.2078   -0.9204 O   0  5  0  0  0  0  0  0  0  0  0  0
    2.6759   -0.0801   -0.7413 C   0  0  0  0  0  0  0  0  0  0  0  0
    3.4359    0.5873   -1.6687 C   0  0  0  0  0  0  0  0  0  0  0  0
    2.9716   -0.3186   -3.4249 C   0  0  0  0  0  0  0  0  0  0  0  0
    1.0970    0.4393   -3.4425 C   0  0  0  0  0  0  0  0  0  0  0  0
   -0.0666    1.6749   -3.5535 C   0  0  0  0  0  0  0  0  0  0  0  0
   -0.0744    2.2711   -4.5899 O   0  5  0  0  0  0  0  0  0  0  0  0
   -0.2784    2.7257   -2.4811 O   0  0  0  0  0  0  0  0  0  0  0  0
    4.1574   -0.0911   -4.6219 O   0  5  0  0  0  0  0  0  0  0  0  0
    3.8472   -1.9977   -3.1071 C   0  0  0  0  0  0  0  0  0  0  0  0
    4.5349   -2.1625   -2.0579 O   0  0  0  0  0  0  0  0  0  0  0  0
    2.8068   -2.4933   -3.7260 O   0  5  0  0  0  0  0  0  0  0  0  0
    3.0779   -0.5383    0.4536 O   0  0  0  0  0  0  0  0  0  0  0  0
    3.1971    2.5987    0.2450 H   0  0  0  0  0  0  0  0  0  0  0  0
    4.8480    1.7175   -0.2904 H   0  0  0  0  0  0  0  0  0  0  0  0
    1.4840    2.7923   -3.4305 H   0  0  0  0  0  0  0  0  0  0  0  0
    1.0276    1.9188   -2.3943 H   0  0  0  0  0  0  0  0  0  0  0  0
    0.0583   -1.5884    0.8644 H   0  0  0  0  0  0  0  0  0  0  0  0
    2.1760   -1.0066    0.4493 H   0  0  0  0  0  0  0  0  0  0  0  0
    0.2412   -1.7099   -0.7220 H   0  0  0  0  0  0  0  0  0  0  0  0
    1.3584   -0.1628   -1.6295 H   0  0  0  0  0  0  0  0  0  0  0  0
   -0.6976   -1.0462   -1.0436 H   0  0  0  0  0  0  0  0  0  0  0  0
    0.8549   -1.1941    0.4361 H   0  0  0  0  0  0  0  0  0  0  0  0
   -0.7122    0.9628    1.3876 H   0  0  0  0  0  0  0  0  0  0  0  0
   -0.3536   -0.1335   -0.0556 H   0  0  0  0  0  0  0  0  0  0  0  0
    0.4267   -0.4592    1.2072 H   0  0  0  0  0  0  0  0  0  0  0  0
    2.0577   -1.9982    0.9917 H   0  0  0  0  0  0  0  0  0  0  0  0
    0.9234    0.6594    0.1753 H   0  0  0  0  0  0  0  0  0  0  0  0
    1.6508    0.6739    1.0241 H   0  0  0  0  0  0  0  0  0  0  0  0
    1.4054   -0.1675   -0.2874 H   0  0  0  0  0  0  0  0  0  0  0  0
    1.8762    1.8210    0.8601 H   0  0  0  0  0  0  0  0  0  0  0  0
    1.4085    0.0629    1.8940 H   0  0  0  0  0  0  0  0  0  0  0  0
    2.9021    0.6054    1.0465 H   0  0  0  0  0  0  0  0  0  0  0  0
    0.2719    0.8561    0.5614 H   0  0  0  0  0  0  0  0  0  0  0  0
    1.7315   -1.1562   -0.5635 H   0  0  0  0  0  0  0  0  0  0  0  0
   -0.4816    0.6956   -1.3862 H   0  0  0  0  0  0  0  0  0  0  0  0
    0.7245    0.9395   -1.6790 H   0  0  0  0  0  0  0  0  0  0  0  0
    3.2730   -1.2323   -1.4842 H   0  0  0  0  0  0  0  0  0  0  0  0
    4.4176   -1.0170   -0.6888 H   0  0  0  0  0  0  0  0  0  0  0  0
    0.9101   -3.8928   -1.0168 H   0  0  0  0  0  0  0  0  0  0  0  0
    0.5134   -3.0764   -0.7456 H   0  0  0  0  0  0  0  0  0  0  0  0
    2.9002    2.1913   -1.2443 H   0  0  0  0  0  0  0  0  0  0  0  0
    4.4693    0.5452   -1.2968 H   0  0  0  0  0  0  0  0  0  0  0  0
    0.8169   -0.1651   -4.1990 H   0  0  0  0  0  0  0  0  0  0  0  0
    0.3026    0.1055   -2.8227 H   0  0  0  0  0  0  0  0  0  0  0  0
  2  3  1  0  0  0  0
  3 14  2  0  0  0  0
  3  4  1  0  0  0  0
  4  5  1  0  0  0  0
  4 54  1  0  0  0  0
  4 55  1  0  0  0  0
  5  6  1  0  0  0  0
  5 10  1  0  0  0  0
  5 11  1  0  0  0  0
  6  7  1  0  0  0  0
  6 56  1  0  0  0  0
  6 57  1  0  0  0  0
  7  8  1  0  0  0  0
  7  9  2  0  0  0  0
 11 12  2  0  0  0  0
 11 13  1  0  0  0  0
 15 58  1  0  0  0  0
 15 59  1  0  0  0  0
 16 60  1  0  0  0  0
 16 61  1  0  0  0  0
 17 62  1  0  0  0  0
 17 63  1  0  0  0  0
 18 64  1  0  0  0  0
 18 65  1  0  0  0  0
 19 66  1  0  0  0  0
 19 67  1  0  0  0  0
 20 68  1  0  0  0  0
 20 69  1  0  0  0  0
 21 70  1  0  0  0  0
 21 71  1  0  0  0  0
 22 72  1  0  0  0  0
 22 73  1  0  0  0  0
 23 74  1  0  0  0  0
 23 75  1  0  0  0  0
 24 76  1  0  0  0  0
 24 77  1  0  0  0  0
 28 29  1  0  0  0  0
 29 40  2  0  0  0  0
 29 30  1  0  0  0  0
 30 31  1  0  0  0  0
 30 78  1  0  0  0  0
 30 79  1  0  0  0  0
 31 32  1  0  0  0  0
 31 36  1  0  0  0  0
 31 37  1  0  0  0  0
 32 33  1  0  0  0  0
 32 80  1  0  0  0  0
 32 81  1  0  0  0  0
 33 34  1  0  0  0  0
 33 35  2  0  0  0  0
 37 38  2  0  0  0  0
 37 39  1  0  0  0  0
 41 42  1  0  0  0  0
 42 53  2  0  0  0  0
 42 43  1  0  0  0  0
 43 44  1  0  0  0  0
 43 82  1  0  0  0  0
 43 83  1  0  0  0  0
 44 45  1  0  0  0  0
 44 49  1  0  0  0  0
 44 50  1  0  0  0  0
 45 46  1  0  0  0  0
 45 84  1  0  0  0  0
 45 85  1  0  0  0  0
 46 47  1  0  0  0  0
 46 48  2  0  0  0  0
 50 51  2  0  0  0  0
 50 52  1  0  0  0  0
M  CHG  8   1   3   2  -1   8  -1  10  -1  13  -1  25   3  26   3  27   3
M  CHG  8  28  -1  34  -1  36  -1  39  -1  41  -1  47  -1  49  -1  52  -1
M  END
>  <DRUGBANK_ID>
DB14520

>  <SECONDARY_ACCESSION_NUMBERS>
DBSALT002619

>  <COMMON_NAME>
Tetraferric tricitrate decahydrate

>  <UNII>
Q91187K011

>  <SYNONYMS>
Ferric citrate; Ferric citrate hydrate

$$$$
