
 OpenBabel10282417183D

  7  6  0  0  0  0  0  0  0  0999 V2000
    0.9402    0.0795   -0.0100 O   0  0  0  0  0  0  0  0  0  0  0  0
    1.4149   -1.0274    2.2920 O   0  0  0  0  0  0  0  0  0  0  0  0
    0.4402   -0.5333    1.2645 B   0  0  0  0  0  0  0  0  0  0  0  0
   -1.0346   -0.6521    1.5116 O   0  0  0  0  0  0  0  0  0  0  0  0
    1.9402    0.0795   -0.0100 H   0  0  0  0  0  0  0  0  0  0  0  0
    2.3482   -0.8717    1.9682 H   0  0  0  0  0  0  0  0  0  0  0  0
   -1.1900   -1.0802    2.4018 H   0  0  0  0  0  0  0  0  0  0  0  0
  1  3  1  0  0  0  0
  1  5  1  0  0  0  0
  2  3  1  0  0  0  0
  2  6  1  0  0  0  0
  3  4  1  0  0  0  0
  4  7  1  0  0  0  0
M  END
>  <DRUGBANK_ID>
DB11326

>  <COMMON_NAME>
Boric acid

>  <CAS_NUMBER>
10043-35-3

>  <UNII>
R57ZHV85D4

>  <SYNONYMS>
ácido bórico; boracic acid; Boric acid; hydrogen borate; orthoboric acid

$$$$
