1569
 OpenBabel10282417113D

 53 56  0  0  1  0  0  0  0  0999 V2000
   -0.0416   -2.6872   -0.3244 C   0  0  0  0  0  0  0  0  0  0  0  0
    0.2268   -1.1633   -0.3449 C   0  0  1  0  0  0  0  0  0  0  0  0
   -1.0733   -0.4372   -0.7700 C   0  0  2  0  0  0  0  0  0  0  0  0
    1.5538   -1.1235   -1.1202 C   0  0  0  0  0  0  0  0  0  0  0  0
    0.6148   -0.2497    0.7654 C   0  0  0  0  0  0  0  0  0  0  0  0
   -1.7989   -0.9865   -1.9677 C   0  0  2  0  0  0  0  0  0  0  0  0
   -2.0143   -0.1290    0.4164 C   0  0  2  0  0  0  0  0  0  0  0  0
    0.8862   -1.5265   -2.6375 C   0  0  0  0  0  0  0  0  0  0  0  0
    2.7791   -0.9621   -0.3136 C   0  0  0  0  0  0  0  0  0  0  0  0
    1.3032   -0.7458    1.8002 C   0  0  0  0  0  0  0  0  0  0  0  0
   -3.0723   -0.1492   -2.3586 C   0  0  1  0  0  0  0  0  0  0  0  0
   -0.6762   -0.9477   -3.0563 C   0  0  0  0  0  0  0  0  0  0  0  0
   -2.3311   -1.0521    1.4605 O   0  0  0  0  0  0  0  0  0  0  0  0
   -3.1652    0.8601   -0.0313 C   0  0  0  0  0  0  0  0  0  0  0  0
    2.5124   -0.2007    1.1804 C   0  0  0  0  0  0  0  0  0  0  0  0
    1.2699   -2.2307    2.1241 C   0  0  0  0  0  0  0  0  0  0  0  0
   -4.1978    0.2151   -1.3333 C   0  0  1  0  0  0  0  0  0  0  0  0
   -2.7251    1.3544   -2.7944 C   0  0  0  0  0  0  0  0  0  0  0  0
    3.1518    0.7872    1.6917 O   0  0  0  0  0  0  0  0  0  0  0  0
    1.8423   -3.1106    1.4919 O   0  0  0  0  0  0  0  0  0  0  0  0
   -4.8609   -0.8329   -0.2940 C   0  0  0  0  0  0  0  0  0  0  0  0
   -5.0845    1.1775   -2.7376 C   0  0  1  0  0  0  0  0  0  0  0  0
   -3.9719    2.1871   -2.5818 C   0  0  0  0  0  0  0  0  0  0  0  0
   -5.3420    0.8125   -4.4919 C   0  0  0  0  0  0  0  0  0  0  0  0
   -6.1815    2.1026   -2.6705 O   0  0  0  0  0  0  0  0  0  0  0  0
   -2.1613   -2.0050   -1.7765 H   0  0  0  0  0  0  0  0  0  0  0  0
   -0.7331    0.5522   -1.1225 H   0  0  0  0  0  0  0  0  0  0  0  0
   -3.6013   -0.7166   -3.1409 H   0  0  0  0  0  0  0  0  0  0  0  0
   -0.5957   -3.0698   -1.1902 H   0  0  0  0  0  0  0  0  0  0  0  0
   -0.6012   -2.9712    0.5479 H   0  0  0  0  0  0  0  0  0  0  0  0
    0.8833   -3.2747   -0.4298 H   0  0  0  0  0  0  0  0  0  0  0  0
    0.8868    0.7646    0.3018 H   0  0  0  0  0  0  0  0  0  0  0  0
   -1.3729    0.5154    0.9937 H   0  0  0  0  0  0  0  0  0  0  0  0
    1.3829   -1.6918   -3.6027 H   0  0  0  0  0  0  0  0  0  0  0  0
    0.7942   -2.6030   -2.4695 H   0  0  0  0  0  0  0  0  0  0  0  0
    3.1776   -1.6567    0.5391 H   0  0  0  0  0  0  0  0  0  0  0  0
   -1.0915   -1.4118   -3.9667 H   0  0  0  0  0  0  0  0  0  0  0  0
   -0.5620    0.1062   -3.3491 H   0  0  0  0  0  0  0  0  0  0  0  0
   -1.6944   -1.7683    1.6064 H   0  0  0  0  0  0  0  0  0  0  0  0
   -3.7858    1.0983    0.8417 H   0  0  0  0  0  0  0  0  0  0  0  0
   -2.5757    1.7786   -0.1667 H   0  0  0  0  0  0  0  0  0  0  0  0
    0.7150   -2.5271    3.0185 H   0  0  0  0  0  0  0  0  0  0  0  0
   -2.3072    1.5042   -3.7856 H   0  0  0  0  0  0  0  0  0  0  0  0
   -1.9941    1.7469   -2.0909 H   0  0  0  0  0  0  0  0  0  0  0  0
   -4.7058   -1.8983   -0.4785 H   0  0  0  0  0  0  0  0  0  0  0  0
   -4.3419   -0.8066    0.6943 H   0  0  0  0  0  0  0  0  0  0  0  0
   -5.8337   -0.5588    0.1367 H   0  0  0  0  0  0  0  0  0  0  0  0
   -4.1620    3.2017   -2.9478 H   0  0  0  0  0  0  0  0  0  0  0  0
   -3.9582    2.4703   -1.5204 H   0  0  0  0  0  0  0  0  0  0  0  0
   -4.4981    0.9006   -5.2043 H   0  0  0  0  0  0  0  0  0  0  0  0
   -6.0119   -0.0348   -4.7421 H   0  0  0  0  0  0  0  0  0  0  0  0
   -5.9989    1.5994   -4.9775 H   0  0  0  0  0  0  0  0  0  0  0  0
   -6.0466    2.6584   -3.4952 H   0  0  0  0  0  0  0  0  0  0  0  0
  1 29  1  0  0  0  0
  1 30  1  0  0  0  0
  1 31  1  0  0  0  0
  2  4  1  0  0  0  0
  2  5  1  0  0  0  0
  2  1  1  6  0  0  0
  3  2  1  0  0  0  0
  3  7  1  0  0  0  0
  3 27  1  1  0  0  0
  4  8  1  0  0  0  0
  4  9  2  0  0  0  0
  5 10  2  0  0  0  0
  5 32  1  0  0  0  0
  6  3  1  0  0  0  0
  6 12  1  0  0  0  0
  6 26  1  6  0  0  0
  7 14  1  0  0  0  0
  7 13  1  0  0  0  0
  7 33  1  1  0  0  0
  8 12  1  0  0  0  0
  8 34  1  0  0  0  0
  8 35  1  0  0  0  0
  9 15  1  0  0  0  0
  9 36  1  0  0  0  0
 10 15  1  0  0  0  0
 10 16  1  0  0  0  0
 11  6  1  0  0  0  0
 11 17  1  0  0  0  0
 11 18  1  0  0  0  0
 11 28  1  6  0  0  0
 12 37  1  0  0  0  0
 12 38  1  0  0  0  0
 13 39  1  0  0  0  0
 14 40  1  0  0  0  0
 14 41  1  0  0  0  0
 15 19  2  0  0  0  0
 16 20  2  0  0  0  0
 16 42  1  0  0  0  0
 17 14  1  0  0  0  0
 17 22  1  0  0  0  0
 17 21  1  6  0  0  0
 18 23  1  0  0  0  0
 18 43  1  0  0  0  0
 18 44  1  0  0  0  0
 21 45  1  0  0  0  0
 21 46  1  0  0  0  0
 21 47  1  0  0  0  0
 22 23  1  0  0  0  0
 22 25  1  1  0  0  0
 22 24  1  0  0  0  0
 23 48  1  0  0  0  0
 23 49  1  0  0  0  0
 24 50  1  0  0  0  0
 24 51  1  0  0  0  0
 24 52  1  0  0  0  0
 25 53  1  0  0  0  0
M  END
>  <DRUGBANK_ID>
DB01569

>  <COMMON_NAME>
Formebolone

>  <CAS_NUMBER>
2454-11-7

>  <UNII>
Z2MMV08KUQ

>  <SYNONYMS>
11-alpha,17-beta-Dihydroxy-17-methyl-3-oxoandrosta-1,4-diene-2-carboxaldehyde; 2-Formyl-11-alpha-hydroxy-delta(sup 1)-methyltestosterone; 2-formyl-11α-hydroxy-17α-methyl-δ1-testosterone; 2-Formyl-17-alpha-methylandrosta-1,4-diene-11-alpha,17-beta-diol-3-one; Esiclene; Formebolona; Formebolone; Formebolonum; Formyldienolone

$$$$
