MYE
 OpenBabel10282417143D

 56 56  0  0  0  0  0  0  0  0999 V2000
    3.5674    3.6456    1.3063 C   0  0  0  0  0  0  0  0  0  0  0  0
    4.9922    3.3845    0.6932 C   0  0  0  0  0  0  0  0  0  0  0  0
    6.0690    2.5877    1.4962 C   0  0  0  0  0  0  0  0  0  0  0  0
    5.9525    1.0175    1.5429 C   0  0  2  0  0  0  0  0  0  0  0  0
    4.5866    0.6025    1.6784 N   0  0  0  0  0  0  0  0  0  0  0  0
    3.6200   -0.3203    1.7619 C   0  0  0  0  0  0  0  0  0  0  0  0
    2.4607    0.0640    1.9906 O   0  0  0  0  0  0  0  0  0  0  0  0
    3.8131   -1.7791    1.8385 C   0  0  2  0  0  0  0  0  0  0  0  0
    2.5561   -2.4033    1.1634 C   0  0  0  0  0  0  0  0  0  0  0  0
    2.2523   -3.8307    1.6030 C   0  0  0  0  0  0  0  0  0  0  0  0
    1.7308   -3.9246    3.0413 C   0  0  0  0  0  0  0  0  0  0  0  0
    1.1654   -4.4248    0.7118 C   0  0  0  0  0  0  0  0  0  0  0  0
    3.8308   -1.9429    3.2850 N   0  0  0  0  0  0  0  0  0  0  0  0
    4.7175   -2.7182    3.9423 C   0  0  0  0  0  0  0  0  0  0  0  0
    4.5074   -3.0982    5.1019 O   0  0  0  0  0  0  0  0  0  0  0  0
    5.7759   -3.0235    3.1788 O   0  0  0  0  0  0  0  0  0  0  0  0
    6.8321   -3.7720    3.7828 C   0  0  0  0  0  0  0  0  0  0  0  0
    7.4568   -3.0662    4.9593 C   0  0  0  0  0  0  0  0  0  0  0  0
    7.2494   -3.5212    6.2582 C   0  0  0  0  0  0  0  0  0  0  0  0
    7.7550   -2.8033    7.3436 C   0  0  0  0  0  0  0  0  0  0  0  0
    8.4266   -1.5985    7.1383 C   0  0  0  0  0  0  0  0  0  0  0  0
    9.1245   -0.6374    8.6046 Br  0  0  0  0  0  0  0  0  0  0  0  0
    8.6339   -1.1257    5.8540 C   0  0  0  0  0  0  0  0  0  0  0  0
    8.2117   -1.9069    4.7834 C   0  0  0  0  0  0  0  0  0  0  0  0
    6.4771    0.5791    2.8554 C   0  0  0  0  0  0  0  0  0  0  0  0
    7.2670   -0.3473    2.8673 O   0  0  0  0  0  0  0  0  0  0  0  0
    2.6221    2.4940    1.5253 C   0  0  0  0  0  0  0  0  0  0  0  0
    6.4352    0.5164    0.7039 H   0  0  0  0  0  0  0  0  0  0  0  0
    4.7380   -2.0749    1.3515 H   0  0  0  0  0  0  0  0  0  0  0  0
    3.0214    4.3074    0.6354 H   0  0  0  0  0  0  0  0  0  0  0  0
    3.6985    4.1181    2.2822 H   0  0  0  0  0  0  0  0  0  0  0  0
    4.9231    2.9545   -0.3120 H   0  0  0  0  0  0  0  0  0  0  0  0
    5.4069    4.3954    0.5567 H   0  0  0  0  0  0  0  0  0  0  0  0
    7.0585    2.8127    1.0649 H   0  0  0  0  0  0  0  0  0  0  0  0
    6.1188    3.0263    2.5050 H   0  0  0  0  0  0  0  0  0  0  0  0
    4.1715    1.4728    1.6928 H   0  0  0  0  0  0  0  0  0  0  0  0
    1.6266   -1.8255    1.3087 H   0  0  0  0  0  0  0  0  0  0  0  0
    2.7171   -2.3435    0.0765 H   0  0  0  0  0  0  0  0  0  0  0  0
    3.1748   -4.4080    1.4904 H   0  0  0  0  0  0  0  0  0  0  0  0
    0.8434   -3.2989    3.1882 H   0  0  0  0  0  0  0  0  0  0  0  0
    1.5027   -4.9591    3.3000 H   0  0  0  0  0  0  0  0  0  0  0  0
    2.4439   -3.6278    3.7964 H   0  0  0  0  0  0  0  0  0  0  0  0
    1.4452   -4.3910   -0.3439 H   0  0  0  0  0  0  0  0  0  0  0  0
    0.9955   -5.4676    0.9945 H   0  0  0  0  0  0  0  0  0  0  0  0
    0.2183   -3.8840    0.8329 H   0  0  0  0  0  0  0  0  0  0  0  0
    3.0057   -1.6630    3.8100 H   0  0  0  0  0  0  0  0  0  0  0  0
    6.4639   -4.7700    4.0411 H   0  0  0  0  0  0  0  0  0  0  0  0
    7.5916   -3.9053    3.0053 H   0  0  0  0  0  0  0  0  0  0  0  0
    6.6781   -4.4304    6.4255 H   0  0  0  0  0  0  0  0  0  0  0  0
    7.6063   -3.1913    8.3446 H   0  0  0  0  0  0  0  0  0  0  0  0
    9.1347   -0.1809    5.6618 H   0  0  0  0  0  0  0  0  0  0  0  0
    8.4785   -1.6005    3.7823 H   0  0  0  0  0  0  0  0  0  0  0  0
    6.0817    1.0600    3.7737 H   0  0  0  0  0  0  0  0  0  0  0  0
    1.5575    2.6087    1.6976 H   0  0  0  0  0  0  0  0  0  0  0  0
    2.7163    1.8227    0.6510 H   0  0  0  0  0  0  0  0  0  0  0  0
    2.9151    2.0897    2.5135 H   0  0  0  0  0  0  0  0  0  0  0  0
  1  2  1  0  0  0  0
  1 27  1  0  0  0  0
  1 30  1  0  0  0  0
  1 31  1  0  0  0  0
  2  3  1  0  0  0  0
  2 32  1  0  0  0  0
  2 33  1  0  0  0  0
  3 34  1  0  0  0  0
  3 35  1  0  0  0  0
  4 25  1  0  0  0  0
  4 28  1  6  0  0  0
  4  5  1  0  0  0  0
  4  3  1  0  0  0  0
  5  6  1  0  0  0  0
  5 36  1  0  0  0  0
  6  7  2  0  0  0  0
  8 13  1  0  0  0  0
  8 29  1  6  0  0  0
  8  9  1  0  0  0  0
  8  6  1  0  0  0  0
  9 10  1  0  0  0  0
  9 37  1  0  0  0  0
  9 38  1  0  0  0  0
 10 11  1  0  0  0  0
 10 12  1  0  0  0  0
 10 39  1  0  0  0  0
 11 40  1  0  0  0  0
 11 41  1  0  0  0  0
 11 42  1  0  0  0  0
 12 43  1  0  0  0  0
 12 44  1  0  0  0  0
 12 45  1  0  0  0  0
 13 14  1  0  0  0  0
 13 46  1  0  0  0  0
 14 15  2  0  0  0  0
 14 16  1  0  0  0  0
 16 17  1  0  0  0  0
 17 18  1  0  0  0  0
 17 47  1  0  0  0  0
 17 48  1  0  0  0  0
 18 19  2  0  0  0  0
 18 24  1  0  0  0  0
 19 20  1  0  0  0  0
 19 49  1  0  0  0  0
 20 21  2  0  0  0  0
 20 50  1  0  0  0  0
 21 22  1  0  0  0  0
 21 23  1  0  0  0  0
 23 24  2  0  0  0  0
 23 51  1  0  0  0  0
 24 52  1  0  0  0  0
 25 26  2  0  0  0  0
 25 53  1  0  0  0  0
 27 54  1  0  0  0  0
 27 55  1  0  0  0  0
 27 56  1  0  0  0  0
M  END
>  <DRUGBANK_ID>
DB04234

>  <SECONDARY_ACCESSION_NUMBERS>
EXPT02267

>  <COMMON_NAME>
N2-({[(4-Bromophenyl)Methyl]Oxy}Carbonyl)-N1-[(1s)-1-Formylpentyl]-L-Leucinamide

$$$$
