7IP
 OpenBabel10282417163D

 43 45  0  0  0  0  0  0  0  0999 V2000
    1.0459    0.0545   -0.0025 C   0  0  0  0  0  0  0  0  0  0  0  0
    0.4548    1.3448   -0.0092 O   0  0  0  0  0  0  0  0  0  0  0  0
    0.9671    2.2556    0.8717 C   0  0  0  0  0  0  0  0  0  0  0  0
    2.2910    2.3055    1.3088 C   0  0  0  0  0  0  0  0  0  0  0  0
    2.7374    3.3671    2.0982 C   0  0  0  0  0  0  0  0  0  0  0  0
    1.8691    4.4008    2.4235 C   0  0  0  0  0  0  0  0  0  0  0  0
    0.5507    4.3842    1.9567 C   0  0  0  0  0  0  0  0  0  0  0  0
    0.0905    3.2774    1.2309 C   0  0  0  0  0  0  0  0  0  0  0  0
   -0.2721    5.5811    2.0738 C   0  0  0  0  0  0  0  0  0  0  0  0
   -1.5135    5.5513    2.7125 C   0  0  0  0  0  0  0  0  0  0  0  0
   -2.2838    6.7002    2.7595 C   0  0  0  0  0  0  0  0  0  0  0  0
   -1.7854    7.8861    2.2282 C   0  0  0  0  0  0  0  0  0  0  0  0
   -0.6157    7.9193    1.4693 C   0  0  0  0  0  0  0  0  0  0  0  0
   -0.2703    9.1372    0.6413 C   0  0  0  0  0  0  0  0  0  0  0  0
   -1.2481    9.4166   -0.5342 C   0  0  0  0  0  0  0  0  0  0  0  0
   -2.6724    9.7416   -0.1188 C   0  0  0  0  0  0  0  0  0  0  0  0
   -3.0242   11.0510    0.1980 C   0  0  0  0  0  0  0  0  0  0  0  0
   -4.2296   11.2673    0.8553 C   0  0  0  0  0  0  0  0  0  0  0  0
   -5.0174   10.1843    1.2264 C   0  0  0  0  0  0  0  0  0  0  0  0
   -4.6310    8.9077    0.8368 C   0  0  0  0  0  0  0  0  0  0  0  0
   -5.2410    7.7991    1.4051 N   0  0  0  0  0  0  0  0  0  0  0  0
   -3.5131    8.6975    0.1148 N   0  0  0  0  0  0  0  0  0  0  0  0
    0.1621    6.7656    1.4393 C   0  0  0  0  0  0  0  0  0  0  0  0
    0.6539   -0.4939   -0.8644 H   0  0  0  0  0  0  0  0  0  0  0  0
    0.7514   -0.4763    0.9068 H   0  0  0  0  0  0  0  0  0  0  0  0
    2.1331    0.0725   -0.1111 H   0  0  0  0  0  0  0  0  0  0  0  0
    3.0196    1.5608    1.0145 H   0  0  0  0  0  0  0  0  0  0  0  0
    3.7754    3.4219    2.4108 H   0  0  0  0  0  0  0  0  0  0  0  0
    2.2300    5.2528    2.9964 H   0  0  0  0  0  0  0  0  0  0  0  0
   -0.9395    3.2452    0.8798 H   0  0  0  0  0  0  0  0  0  0  0  0
   -1.8853    4.6403    3.1717 H   0  0  0  0  0  0  0  0  0  0  0  0
   -3.2900    6.6794    3.1666 H   0  0  0  0  0  0  0  0  0  0  0  0
   -2.3906    8.7806    2.3273 H   0  0  0  0  0  0  0  0  0  0  0  0
   -0.1965   10.0065    1.3063 H   0  0  0  0  0  0  0  0  0  0  0  0
    0.7347    9.0035    0.2141 H   0  0  0  0  0  0  0  0  0  0  0  0
   -0.8506   10.2585   -1.1164 H   0  0  0  0  0  0  0  0  0  0  0  0
   -1.2660    8.5542   -1.2115 H   0  0  0  0  0  0  0  0  0  0  0  0
   -2.3562   11.8766   -0.0136 H   0  0  0  0  0  0  0  0  0  0  0  0
   -4.5244   12.2743    1.1409 H   0  0  0  0  0  0  0  0  0  0  0  0
   -5.8948   10.3247    1.8441 H   0  0  0  0  0  0  0  0  0  0  0  0
   -4.8891    6.9495    0.9678 H   0  0  0  0  0  0  0  0  0  0  0  0
   -6.2402    7.8415    1.5328 H   0  0  0  0  0  0  0  0  0  0  0  0
    1.1019    6.7600    0.8894 H   0  0  0  0  0  0  0  0  0  0  0  0
  1  2  1  0  0  0  0
  1 24  1  0  0  0  0
  1 25  1  0  0  0  0
  1 26  1  0  0  0  0
  2  3  1  0  0  0  0
  3  4  2  0  0  0  0
  3  8  1  0  0  0  0
  4  5  1  0  0  0  0
  4 27  1  0  0  0  0
  5  6  2  0  0  0  0
  5 28  1  0  0  0  0
  6  7  1  0  0  0  0
  6 29  1  0  0  0  0
  7  8  2  0  0  0  0
  7  9  1  0  0  0  0
  8 30  1  0  0  0  0
  9 23  2  0  0  0  0
  9 10  1  0  0  0  0
 10 11  2  0  0  0  0
 10 31  1  0  0  0  0
 11 12  1  0  0  0  0
 11 32  1  0  0  0  0
 12 13  2  0  0  0  0
 12 33  1  0  0  0  0
 13 23  1  0  0  0  0
 13 14  1  0  0  0  0
 14 15  1  0  0  0  0
 14 34  1  0  0  0  0
 14 35  1  0  0  0  0
 15 16  1  0  0  0  0
 15 36  1  0  0  0  0
 15 37  1  0  0  0  0
 16 22  1  0  0  0  0
 16 17  2  0  0  0  0
 17 18  1  0  0  0  0
 17 38  1  0  0  0  0
 18 19  2  0  0  0  0
 18 39  1  0  0  0  0
 19 20  1  0  0  0  0
 19 40  1  0  0  0  0
 20 21  1  0  0  0  0
 20 22  2  0  0  0  0
 21 41  1  0  0  0  0
 21 42  1  0  0  0  0
 23 43  1  0  0  0  0
M  END
>  <DRUGBANK_ID>
DB07245

>  <COMMON_NAME>
6-[2-(3'-METHOXYBIPHENYL-3-YL)ETHYL]PYRIDIN-2-AMINE

$$$$
