
 OpenBabel10282417183D

 27 28  0  0  0  0  0  0  0  0999 V2000
    2.5659    0.2941   -0.0102 Cl  0  0  0  0  0  0  0  0  0  0  0  0
    0.8448    0.2869   -0.0123 C   0  0  0  0  0  0  0  0  0  0  0  0
    0.0902    1.3962   -0.0137 C   0  0  0  0  0  0  0  0  0  0  0  0
   -1.2869    1.2652    0.0438 N   0  0  0  0  0  0  0  0  0  0  0  0
   -1.9759    0.0927    0.0250 C   0  0  0  0  0  0  0  0  0  0  0  0
   -3.2028    0.0351    0.0402 O   0  0  0  0  0  0  0  0  0  0  0  0
   -1.2054   -1.0286   -0.0135 N   0  0  0  0  0  0  0  0  0  0  0  0
    0.1645   -1.0436   -0.0115 C   0  0  0  0  0  0  0  0  0  0  0  0
    0.7823   -2.1017   -0.0116 O   0  0  0  0  0  0  0  0  0  0  0  0
    0.6357    2.8192   -0.0612 C   0  0  0  0  0  0  0  0  0  0  0  0
    0.1591    3.5010   -1.2515 N   0  0  0  0  0  0  0  0  0  0  0  0
   -1.1373    3.8695   -1.4790 C   0  0  0  0  0  0  0  0  0  0  0  0
   -2.1568    3.5471   -0.7610 N   0  0  0  0  0  0  0  0  0  0  0  0
   -1.2297    4.7336   -2.7034 C   0  0  0  0  0  0  0  0  0  0  0  0
    0.1403    4.5012   -3.3446 C   0  0  0  0  0  0  0  0  0  0  0  0
    1.0691    4.1664   -2.1696 C   0  0  0  0  0  0  0  0  0  0  0  0
   -1.8554    2.1207   -0.0238 H   0  0  0  0  0  0  0  0  0  0  0  0
   -1.6865   -1.9132   -0.0228 H   0  0  0  0  0  0  0  0  0  0  0  0
    0.3236    3.3650    0.8378 H   0  0  0  0  0  0  0  0  0  0  0  0
    1.7304    2.8320   -0.0505 H   0  0  0  0  0  0  0  0  0  0  0  0
   -3.0244    3.9066   -1.1739 H   0  0  0  0  0  0  0  0  0  0  0  0
   -2.0627    4.4331   -3.3420 H   0  0  0  0  0  0  0  0  0  0  0  0
   -1.3505    5.7706   -2.3780 H   0  0  0  0  0  0  0  0  0  0  0  0
    0.0885    3.6445   -4.0292 H   0  0  0  0  0  0  0  0  0  0  0  0
    0.4784    5.3678   -3.9199 H   0  0  0  0  0  0  0  0  0  0  0  0
    1.9030    3.5297   -2.4830 H   0  0  0  0  0  0  0  0  0  0  0  0
    1.4685    5.0869   -1.7273 H   0  0  0  0  0  0  0  0  0  0  0  0
  1  2  1  0  0  0  0
  2  3  2  0  0  0  0
  2  8  1  0  0  0  0
  3  4  1  0  0  0  0
  3 10  1  0  0  0  0
  4  5  1  0  0  0  0
  4 17  1  0  0  0  0
  5  6  2  0  0  0  0
  5  7  1  0  0  0  0
  7  8  1  0  0  0  0
  7 18  1  0  0  0  0
  8  9  2  0  0  0  0
 10 11  1  0  0  0  0
 10 19  1  0  0  0  0
 10 20  1  0  0  0  0
 11 12  1  0  0  0  0
 11 16  1  0  0  0  0
 12 13  2  0  0  0  0
 12 14  1  0  0  0  0
 13 21  1  0  0  0  0
 14 15  1  0  0  0  0
 14 22  1  0  0  0  0
 14 23  1  0  0  0  0
 15 16  1  0  0  0  0
 15 24  1  0  0  0  0
 15 25  1  0  0  0  0
 16 26  1  0  0  0  0
 16 27  1  0  0  0  0
M  END
>  <DRUGBANK_ID>
DB09343

>  <COMMON_NAME>
Tipiracil

>  <CAS_NUMBER>
183204-74-2

>  <UNII>
NGO10K751P

>  <SYNONYMS>
5-chloro-6-(2-iminopyrrolidin-1-yl)methyl-2,4(1H,3H)-pyrimidinedione; 5-chloro-6-[(2-iminopyrrolidin-1-yl)methyl]-1H-pyrimidine-2,4-dione; Tipiracil; Tipiracilo

$$$$
