
 OpenBabel10282417233D

 43 48  0  0  0  0  0  0  0  0999 V2000
    0.8990    0.0588    0.0174 C   0  0  0  0  0  0  0  0  0  0  0  0
    0.4222   -0.0605    1.3851 N   0  0  0  0  0  0  0  0  0  0  0  0
    0.1069    0.9530    2.2627 C   0  0  0  0  0  0  0  0  0  0  0  0
   -0.3137    0.3960    3.4751 C   0  0  0  0  0  0  0  0  0  0  0  0
   -0.2368   -1.0585    3.2943 C   0  0  0  0  0  0  0  0  0  0  0  0
    0.2217   -1.2834    1.9806 C   0  0  0  0  0  0  0  0  0  0  0  0
    0.4195   -2.5606    1.4202 C   0  0  0  0  0  0  0  0  0  0  0  0
    0.1307   -3.6404    2.2077 C   0  0  0  0  0  0  0  0  0  0  0  0
    0.2654   -4.9297    1.7993 O   0  0  0  0  0  0  0  0  0  0  0  0
   -0.1481   -5.6231    2.9855 C   0  0  0  0  0  0  0  0  0  0  0  0
   -0.5371   -4.7231    4.0588 O   0  0  0  0  0  0  0  0  0  0  0  0
   -0.3241   -3.4959    3.4878 C   0  0  0  0  0  0  0  0  0  0  0  0
   -0.5222   -2.2300    4.0713 C   0  0  0  0  0  0  0  0  0  0  0  0
   -0.7793    1.1620    4.6264 C   0  0  0  0  0  0  0  0  0  0  0  0
   -1.7135    2.1359    4.7070 C   0  0  0  0  0  0  0  0  0  0  0  0
   -1.8568    2.5737    6.1250 C   0  0  0  0  0  0  0  0  0  0  0  0
   -2.6483    3.3738    6.5773 O   0  0  0  0  0  0  0  0  0  0  0  0
   -0.9437    1.8825    6.8297 N   0  0  0  0  0  0  0  0  0  0  0  0
   -0.2535    1.0385    6.0241 C   0  0  0  0  0  0  0  0  0  0  0  0
    0.6555    0.3240    6.3982 O   0  0  0  0  0  0  0  0  0  0  0  0
   -2.4982    2.7156    3.6829 C   0  0  0  0  0  0  0  0  0  0  0  0
   -3.2549    2.0290    2.7639 C   0  0  0  0  0  0  0  0  0  0  0  0
   -3.7980    2.8887    1.8595 O   0  0  0  0  0  0  0  0  0  0  0  0
   -3.4042    4.1468    2.2154 C   0  0  0  0  0  0  0  0  0  0  0  0
   -3.7094    5.3287    1.5375 C   0  0  0  0  0  0  0  0  0  0  0  0
   -3.1950    6.5120    2.0852 C   0  0  0  0  0  0  0  0  0  0  0  0
   -2.4259    6.4866    3.2459 C   0  0  0  0  0  0  0  0  0  0  0  0
   -1.9476    7.6347    3.7436 F   0  0  0  0  0  0  0  0  0  0  0  0
   -2.1255    5.2950    3.9018 C   0  0  0  0  0  0  0  0  0  0  0  0
   -2.6236    4.0945    3.3669 C   0  0  0  0  0  0  0  0  0  0  0  0
    0.5285    0.9732   -0.4439 H   0  0  0  0  0  0  0  0  0  0  0  0
    0.5282   -0.7886   -0.5724 H   0  0  0  0  0  0  0  0  0  0  0  0
    1.9924    0.0253    0.0295 H   0  0  0  0  0  0  0  0  0  0  0  0
    0.2124    1.9809    1.9317 H   0  0  0  0  0  0  0  0  0  0  0  0
    0.7793   -2.7113    0.4105 H   0  0  0  0  0  0  0  0  0  0  0  0
   -0.9897   -6.2782    2.7240 H   0  0  0  0  0  0  0  0  0  0  0  0
    0.6810   -6.2633    3.3156 H   0  0  0  0  0  0  0  0  0  0  0  0
   -0.8800   -2.1498    5.0914 H   0  0  0  0  0  0  0  0  0  0  0  0
   -0.8183    1.9808    7.8251 H   0  0  0  0  0  0  0  0  0  0  0  0
   -3.4681    0.9792    2.6137 H   0  0  0  0  0  0  0  0  0  0  0  0
   -4.3056    5.3297    0.6324 H   0  0  0  0  0  0  0  0  0  0  0  0
   -3.3922    7.4689    1.6099 H   0  0  0  0  0  0  0  0  0  0  0  0
   -1.5229    5.3081    4.8027 H   0  0  0  0  0  0  0  0  0  0  0  0
  1  2  1  0  0  0  0
  1 31  1  0  0  0  0
  1 32  1  0  0  0  0
  1 33  1  0  0  0  0
  2  3  1  0  0  0  0
  2  6  1  0  0  0  0
  3  4  2  0  0  0  0
  3 34  1  0  0  0  0
  4  5  1  0  0  0  0
  4 14  1  0  0  0  0
  5  6  2  0  0  0  0
  5 13  1  0  0  0  0
  6  7  1  0  0  0  0
  7  8  2  0  0  0  0
  7 35  1  0  0  0  0
  8  9  1  0  0  0  0
  8 12  1  0  0  0  0
  9 10  1  0  0  0  0
 10 11  1  0  0  0  0
 10 36  1  0  0  0  0
 10 37  1  0  0  0  0
 11 12  1  0  0  0  0
 12 13  2  0  0  0  0
 13 38  1  0  0  0  0
 14 15  2  0  0  0  0
 14 19  1  0  0  0  0
 15 16  1  0  0  0  0
 15 21  1  0  0  0  0
 16 17  2  0  0  0  0
 16 18  1  0  0  0  0
 18 19  1  0  0  0  0
 18 39  1  0  0  0  0
 19 20  2  0  0  0  0
 21 22  2  0  0  0  0
 21 30  1  0  0  0  0
 22 23  1  0  0  0  0
 22 40  1  0  0  0  0
 23 24  1  0  0  0  0
 24 25  2  0  0  0  0
 24 30  1  0  0  0  0
 25 26  1  0  0  0  0
 25 41  1  0  0  0  0
 26 27  2  0  0  0  0
 26 42  1  0  0  0  0
 27 28  1  0  0  0  0
 27 29  1  0  0  0  0
 29 30  2  0  0  0  0
 29 43  1  0  0  0  0
M  END
>  <DRUGBANK_ID>
DB16047

>  <COMMON_NAME>
Elraglusib

>  <CAS_NUMBER>
1034895-42-5

>  <UNII>
ND1SOF0DLU

>  <SYNONYMS>
1H-Pyrrole-2,5-dione, 3-(5-fluoro-3-benzofuranyl)-4-(5-methyl-5H-1,3-dioxolo(4,5-F)indol-7-yl)-; 3-(5-Fluoro-benzofuran-3-yl)-4-(5-methyl-5H-(1,3)dioxolo(4,5-F)indol-7-yl)-pyrrole-2,5-dione

$$$$
