132
 OpenBabel10282417103D

 50 49  0  0  0  0  0  0  0  0999 V2000
    1.0064   -0.2029    0.0812 O   0  0  0  0  0  0  0  0  0  0  0  0
    1.1081   -1.1671    2.0900 O   0  0  0  0  0  0  0  0  0  0  0  0
   -1.6804    0.8912   -1.3075 C   0  0  0  0  0  0  0  0  0  0  0  0
   -3.2130    0.8675   -1.3258 C   0  0  0  0  0  0  0  0  0  0  0  0
   -1.1683    1.5976   -0.0451 C   0  0  0  0  0  0  0  0  0  0  0  0
   -3.7601    2.2901   -1.3097 C   0  0  0  0  0  0  0  0  0  0  0  0
   -1.5752    0.8220    1.2102 C   0  0  0  0  0  0  0  0  0  0  0  0
   -3.1887    3.0816   -2.4746 C   0  0  0  0  0  0  0  0  0  0  0  0
   -1.0785   -0.6240    1.1792 C   0  0  0  0  0  0  0  0  0  0  0  0
   -3.6611    2.4917   -3.7710 C   0  0  0  0  0  0  0  0  0  0  0  0
    0.4248   -0.7061    1.1850 C   0  0  0  0  0  0  0  0  0  0  0  0
   -4.4310    3.1567   -4.6294 C   0  0  0  0  0  0  0  0  0  0  0  0
   -4.8399    4.5575   -4.3806 C   0  0  0  0  0  0  0  0  0  0  0  0
   -4.3806    5.4403   -5.4826 C   0  0  0  0  0  0  0  0  0  0  0  0
   -5.2286    6.2037   -6.1728 C   0  0  0  0  0  0  0  0  0  0  0  0
   -6.6958    6.1861   -5.9185 C   0  0  0  0  0  0  0  0  0  0  0  0
   -7.2110    7.5463   -5.6137 C   0  0  0  0  0  0  0  0  0  0  0  0
   -8.1818    8.1320   -6.3228 C   0  0  0  0  0  0  0  0  0  0  0  0
   -8.8411    7.5010   -7.5138 C   0  0  0  0  0  0  0  0  0  0  0  0
  -10.3131    7.2690   -7.2578 C   0  0  0  0  0  0  0  0  0  0  0  0
    1.9667   -0.1602    0.2654 H   0  0  0  0  0  0  0  0  0  0  0  0
   -1.2637    1.3816   -2.1926 H   0  0  0  0  0  0  0  0  0  0  0  0
   -1.3046   -0.1300   -1.4002 H   0  0  0  0  0  0  0  0  0  0  0  0
   -3.5633    0.3228   -2.2078 H   0  0  0  0  0  0  0  0  0  0  0  0
   -3.6228    0.3106   -0.4788 H   0  0  0  0  0  0  0  0  0  0  0  0
   -1.5287    2.6294    0.0236 H   0  0  0  0  0  0  0  0  0  0  0  0
   -0.0864    1.7306   -0.1002 H   0  0  0  0  0  0  0  0  0  0  0  0
   -4.8558    2.2827   -1.3337 H   0  0  0  0  0  0  0  0  0  0  0  0
   -3.5052    2.8062   -0.3767 H   0  0  0  0  0  0  0  0  0  0  0  0
   -2.6689    0.8240    1.3106 H   0  0  0  0  0  0  0  0  0  0  0  0
   -1.2040    1.3409    2.0991 H   0  0  0  0  0  0  0  0  0  0  0  0
   -3.4682    4.1157   -2.2948 H   0  0  0  0  0  0  0  0  0  0  0  0
   -2.0982    3.1326   -2.4968 H   0  0  0  0  0  0  0  0  0  0  0  0
   -1.4659   -1.1878    0.3236 H   0  0  0  0  0  0  0  0  0  0  0  0
   -1.4602   -1.1499    2.0593 H   0  0  0  0  0  0  0  0  0  0  0  0
   -3.4034    1.4630   -4.0124 H   0  0  0  0  0  0  0  0  0  0  0  0
   -4.8067    2.6604   -5.5225 H   0  0  0  0  0  0  0  0  0  0  0  0
   -5.9088    4.5011   -4.1934 H   0  0  0  0  0  0  0  0  0  0  0  0
   -4.4587    5.0275   -3.4785 H   0  0  0  0  0  0  0  0  0  0  0  0
   -3.3144    5.4725   -5.6981 H   0  0  0  0  0  0  0  0  0  0  0  0
   -4.8531    6.8338   -6.9745 H   0  0  0  0  0  0  0  0  0  0  0  0
   -7.1280    5.6876   -6.7822 H   0  0  0  0  0  0  0  0  0  0  0  0
   -7.0354    5.5744   -5.0850 H   0  0  0  0  0  0  0  0  0  0  0  0
   -6.7970    8.0446   -4.7365 H   0  0  0  0  0  0  0  0  0  0  0  0
   -8.5247    9.1168   -6.0156 H   0  0  0  0  0  0  0  0  0  0  0  0
   -8.6732    8.1333   -8.3882 H   0  0  0  0  0  0  0  0  0  0  0  0
   -8.4223    6.5306   -7.7825 H   0  0  0  0  0  0  0  0  0  0  0  0
  -10.8359    8.2188   -7.1266 H   0  0  0  0  0  0  0  0  0  0  0  0
  -10.7500    6.7377   -8.1080 H   0  0  0  0  0  0  0  0  0  0  0  0
  -10.4685    6.6548   -6.3626 H   0  0  0  0  0  0  0  0  0  0  0  0
  1 11  1  0  0  0  0
  1 21  1  0  0  0  0
  2 11  2  0  0  0  0
  3  4  1  0  0  0  0
  3  5  1  0  0  0  0
  3 22  1  0  0  0  0
  3 23  1  0  0  0  0
  4  6  1  0  0  0  0
  4 24  1  0  0  0  0
  4 25  1  0  0  0  0
  5  7  1  0  0  0  0
  5 26  1  0  0  0  0
  5 27  1  0  0  0  0
  6  8  1  0  0  0  0
  6 28  1  0  0  0  0
  6 29  1  0  0  0  0
  7  9  1  0  0  0  0
  7 30  1  0  0  0  0
  7 31  1  0  0  0  0
  8 10  1  0  0  0  0
  8 32  1  0  0  0  0
  8 33  1  0  0  0  0
  9 11  1  0  0  0  0
  9 34  1  0  0  0  0
  9 35  1  0  0  0  0
 10 12  2  0  0  0  0
 10 36  1  0  0  0  0
 12 13  1  0  0  0  0
 12 37  1  0  0  0  0
 13 14  1  0  0  0  0
 13 38  1  0  0  0  0
 13 39  1  0  0  0  0
 14 15  2  0  0  0  0
 14 40  1  0  0  0  0
 15 16  1  0  0  0  0
 15 41  1  0  0  0  0
 16 17  1  0  0  0  0
 16 42  1  0  0  0  0
 16 43  1  0  0  0  0
 17 18  2  0  0  0  0
 17 44  1  0  0  0  0
 18 19  1  0  0  0  0
 18 45  1  0  0  0  0
 19 20  1  0  0  0  0
 19 46  1  0  0  0  0
 19 47  1  0  0  0  0
 20 48  1  0  0  0  0
 20 49  1  0  0  0  0
 20 50  1  0  0  0  0
M  END
>  <DRUGBANK_ID>
DB00132

>  <SECONDARY_ACCESSION_NUMBERS>
NUTR00034

>  <COMMON_NAME>
alpha-Linolenic acid

>  <CAS_NUMBER>
463-40-1

>  <UNII>
0RBV727H71

>  <SYNONYMS>
(9,12,15)-linolenic acid; (9Z,12Z,15Z)-Octadecatrienoic acid; (Z,Z,Z)-9,12,15-octadecatrienoic acid; 9-cis,12-cis,15-cis-octadecatrienoic acid; 9,12,15-Octadecatrienoic acid; ALA; all-cis-9,12,15-Octadecatrienoic acid; alpha-Linolenic acid; cis-delta(9,12,15)-Octadecatrienoic acid; cis,cis,cis-9,12,15-Octadecatrienoic acid; Linolenic acid; Î±-linolenic acid

$$$$
