
 OpenBabel10282417153D

 62 63  0  0  1  0  0  0  0  0999 V2000
   -1.1302    0.3324    3.2096 C   0  0  0  0  0  0  0  0  0  0  0  0
    0.2754    0.6918    2.7887 C   0  0  0  0  0  0  0  0  0  0  0  0
    0.9709   -0.6107    2.3989 C   0  0  2  0  0  0  0  0  0  0  0  0
    0.6254   -0.9852    0.9493 C   0  0  0  0  0  0  0  0  0  0  0  0
    0.6571   -1.7443    3.4392 C   0  0  0  0  0  0  0  0  0  0  0  0
    1.2197   -3.1170    3.1743 C   0  0  0  0  0  0  0  0  0  0  0  0
    2.7766   -3.1166    3.1295 C   0  0  1  0  0  0  0  0  0  0  0  0
    3.1841   -4.3220    2.2665 C   0  0  0  0  0  0  0  0  0  0  0  0
    4.5141   -4.1370    1.5736 C   0  0  0  0  0  0  0  0  0  0  0  0
    4.4974   -2.7540    0.9537 C   0  0  1  0  0  0  0  0  0  0  0  0
    4.5022   -1.7380    2.0663 C   0  0  2  0  0  0  0  0  0  0  0  0
    3.2514   -1.8388    2.6846 O   0  0  0  0  0  0  0  0  0  0  0  0
    4.7800   -0.4204    1.3263 C   0  0  0  0  0  0  0  0  0  0  0  0
    5.8137   -0.9095    0.3563 C   0  0  0  0  0  0  0  0  0  0  0  0
    6.6408   -0.1840   -0.1796 O   0  0  0  0  0  0  0  0  0  0  0  0
    5.7072   -2.4053    0.1398 C   0  0  2  0  0  0  0  0  0  0  0  0
    5.4703   -2.7621   -1.3175 C   0  0  0  0  0  0  0  0  0  0  0  0
    6.7274   -2.4848   -2.1256 C   0  0  0  0  0  0  0  0  0  0  0  0
    7.9172   -3.2400   -1.5266 C   0  0  0  0  0  0  0  0  0  0  0  0
    7.6530   -4.7518   -1.5431 C   0  0  0  0  0  0  0  0  0  0  0  0
    7.5274   -5.2578   -2.9825 C   0  0  0  0  0  0  0  0  0  0  0  0
    8.7647   -4.9218   -3.8165 C   0  0  0  0  0  0  0  0  0  0  0  0
    9.9966   -5.6129   -3.2997 C   0  0  0  0  0  0  0  0  0  0  0  0
   10.6270   -6.4839   -3.8955 O   0  0  0  0  0  0  0  0  0  0  0  0
   10.3817   -5.2155   -2.0750 O   0  0  0  0  0  0  0  0  0  0  0  0
    3.2384   -3.2526    4.4741 O   0  0  0  0  0  0  0  0  0  0  0  0
    0.7699   -3.9748    4.1375 F   0  0  0  0  0  0  0  0  0  0  0  0
    0.6597   -3.5989    2.0296 F   0  0  0  0  0  0  0  0  0  0  0  0
   -1.5396   -0.4215    2.5256 H   0  0  0  0  0  0  0  0  0  0  0  0
   -1.8084    1.1747    3.2355 H   0  0  0  0  0  0  0  0  0  0  0  0
   -1.0876   -0.1078    4.2130 H   0  0  0  0  0  0  0  0  0  0  0  0
    0.3014    1.3897    1.9426 H   0  0  0  0  0  0  0  0  0  0  0  0
    0.8142    1.1815    3.6129 H   0  0  0  0  0  0  0  0  0  0  0  0
    2.0153   -0.3030    2.4125 H   0  0  0  0  0  0  0  0  0  0  0  0
    0.6933   -2.0485    0.7359 H   0  0  0  0  0  0  0  0  0  0  0  0
   -0.3850   -0.6697    0.6787 H   0  0  0  0  0  0  0  0  0  0  0  0
    1.3201   -0.5000    0.2563 H   0  0  0  0  0  0  0  0  0  0  0  0
    0.9571   -1.4224    4.4454 H   0  0  0  0  0  0  0  0  0  0  0  0
   -0.4177   -1.9401    3.4847 H   0  0  0  0  0  0  0  0  0  0  0  0
    3.1657   -5.2442    2.8521 H   0  0  0  0  0  0  0  0  0  0  0  0
    2.4686   -4.4527    1.4434 H   0  0  0  0  0  0  0  0  0  0  0  0
    5.3279   -4.2394    2.2988 H   0  0  0  0  0  0  0  0  0  0  0  0
    4.6411   -4.9048    0.8056 H   0  0  0  0  0  0  0  0  0  0  0  0
    3.5858   -2.6341    0.3459 H   0  0  0  0  0  0  0  0  0  0  0  0
    5.2904   -1.8963    2.8119 H   0  0  0  0  0  0  0  0  0  0  0  0
    5.2027    0.3645    1.9569 H   0  0  0  0  0  0  0  0  0  0  0  0
    3.9266   -0.0346    0.7591 H   0  0  0  0  0  0  0  0  0  0  0  0
    6.5647   -2.8917    0.6104 H   0  0  0  0  0  0  0  0  0  0  0  0
    5.1761   -3.8171   -1.3983 H   0  0  0  0  0  0  0  0  0  0  0  0
    4.6259   -2.2046   -1.7380 H   0  0  0  0  0  0  0  0  0  0  0  0
    6.5535   -2.7575   -3.1706 H   0  0  0  0  0  0  0  0  0  0  0  0
    6.9417   -1.4145   -2.1565 H   0  0  0  0  0  0  0  0  0  0  0  0
    8.8251   -2.9630   -2.0661 H   0  0  0  0  0  0  0  0  0  0  0  0
    8.1419   -2.9193   -0.5054 H   0  0  0  0  0  0  0  0  0  0  0  0
    8.4395   -5.2785   -1.0002 H   0  0  0  0  0  0  0  0  0  0  0  0
    6.7560   -5.0206   -0.9753 H   0  0  0  0  0  0  0  0  0  0  0  0
    7.3408   -6.3358   -2.9798 H   0  0  0  0  0  0  0  0  0  0  0  0
    6.6420   -4.8145   -3.4579 H   0  0  0  0  0  0  0  0  0  0  0  0
    8.5924   -5.2354   -4.8503 H   0  0  0  0  0  0  0  0  0  0  0  0
    8.9562   -3.8449   -3.8784 H   0  0  0  0  0  0  0  0  0  0  0  0
   11.0851   -5.8312   -1.7849 H   0  0  0  0  0  0  0  0  0  0  0  0
    4.2004   -3.3169    4.4511 H   0  0  0  0  0  0  0  0  0  0  0  0
  1  2  1  0  0  0  0
  1 29  1  0  0  0  0
  1 30  1  0  0  0  0
  1 31  1  0  0  0  0
  2 32  1  0  0  0  0
  2 33  1  0  0  0  0
  3  5  1  0  0  0  0
  3 34  1  1  0  0  0
  3  4  1  0  0  0  0
  3  2  1  0  0  0  0
  4 35  1  0  0  0  0
  4 36  1  0  0  0  0
  4 37  1  0  0  0  0
  5  6  1  0  0  0  0
  5 38  1  0  0  0  0
  5 39  1  0  0  0  0
  6 27  1  0  0  0  0
  6 28  1  0  0  0  0
  7  6  1  0  0  0  0
  7  8  1  0  0  0  0
  7 12  1  0  0  0  0
  7 26  1  1  0  0  0
  8  9  1  0  0  0  0
  8 40  1  0  0  0  0
  8 41  1  0  0  0  0
  9 42  1  0  0  0  0
  9 43  1  0  0  0  0
 10  9  1  0  0  0  0
 10 11  1  0  0  0  0
 10 16  1  0  0  0  0
 10 44  1  6  0  0  0
 11 12  1  0  0  0  0
 11 13  1  0  0  0  0
 11 45  1  1  0  0  0
 13 14  1  0  0  0  0
 13 46  1  0  0  0  0
 13 47  1  0  0  0  0
 14 15  2  0  0  0  0
 14 16  1  0  0  0  0
 16 17  1  0  0  0  0
 16 48  1  1  0  0  0
 17 18  1  0  0  0  0
 17 49  1  0  0  0  0
 17 50  1  0  0  0  0
 18 19  1  0  0  0  0
 18 51  1  0  0  0  0
 18 52  1  0  0  0  0
 19 20  1  0  0  0  0
 19 53  1  0  0  0  0
 19 54  1  0  0  0  0
 20 21  1  0  0  0  0
 20 55  1  0  0  0  0
 20 56  1  0  0  0  0
 21 22  1  0  0  0  0
 21 57  1  0  0  0  0
 21 58  1  0  0  0  0
 22 23  1  0  0  0  0
 22 59  1  0  0  0  0
 22 60  1  0  0  0  0
 23 24  2  0  0  0  0
 23 25  1  0  0  0  0
 25 61  1  0  0  0  0
 26 62  1  0  0  0  0
M  END
>  <DRUGBANK_ID>
DB05514

>  <COMMON_NAME>
Cobiprostone

>  <CAS_NUMBER>
333963-42-1

>  <UNII>
IL870Q3Z8I

>  <SYNONYMS>
Cobiprostone

$$$$
