
 OpenBabel10282417213D

 53 54  0  0  0  0  0  0  0  0999 V2000
   -0.0121   -0.8519   -0.0048 C   0  0  0  0  0  0  0  0  0  0  0  0
    0.0024    0.5338   -0.0463 C   0  0  0  0  0  0  0  0  0  0  0  0
    1.2465   -1.5776    0.0170 C   0  0  0  0  0  0  0  0  0  0  0  0
   -1.2410   -1.5087   -0.0075 C   0  0  0  0  0  0  0  0  0  0  0  0
    1.1238    1.2955    0.0596 O   0  0  0  0  0  0  0  0  0  0  0  0
   -1.1860    1.2412   -0.1581 C   0  0  0  0  0  0  0  0  0  0  0  0
    2.3693   -0.8764    0.0114 C   0  0  0  0  0  0  0  0  0  0  0  0
   -2.4414   -0.7969   -0.0124 C   0  0  0  0  0  0  0  0  0  0  0  0
   -1.2531   -2.8767    0.0120 O   0  0  0  0  0  0  0  0  0  0  0  0
    2.3973    0.6316    0.0226 C   0  0  3  0  0  0  0  0  0  0  0  0
   -2.4263    0.5986   -0.0670 C   0  0  0  0  0  0  0  0  0  0  0  0
    3.0443    1.0675   -1.3058 C   0  0  0  0  0  0  0  0  0  0  0  0
    3.1169    1.0036    1.3249 C   0  0  0  0  0  0  0  0  0  0  0  0
   -3.7186    1.3751    0.0089 C   0  0  0  0  0  0  0  0  0  0  0  0
    3.1654    2.5767   -1.5139 C   0  0  0  0  0  0  0  0  0  0  0  0
   -3.8207    2.2661    1.2614 C   0  0  0  0  0  0  0  0  0  0  0  0
    4.1416    3.1915   -0.5610 C   0  0  0  0  0  0  0  0  0  0  0  0
   -2.7997    3.4128    1.3194 C   0  0  0  0  0  0  0  0  0  0  0  0
    5.3375    3.7126   -0.8571 C   0  0  0  0  0  0  0  0  0  0  0  0
   -2.8173    4.2811    0.0546 C   0  0  0  0  0  0  0  0  0  0  0  0
    6.2475    4.1764    0.2430 C   0  0  0  0  0  0  0  0  0  0  0  0
    5.7618    3.8717   -2.2780 C   0  0  0  0  0  0  0  0  0  0  0  0
   -4.1347    5.0241   -0.0536 C   0  0  0  0  0  0  0  0  0  0  0  0
    1.2409   -2.6606    0.0132 H   0  0  0  0  0  0  0  0  0  0  0  0
   -1.0965    2.3147   -0.2770 H   0  0  0  0  0  0  0  0  0  0  0  0
    3.3306   -1.3860    0.0080 H   0  0  0  0  0  0  0  0  0  0  0  0
   -3.3909   -1.3194    0.0280 H   0  0  0  0  0  0  0  0  0  0  0  0
   -2.1726   -3.1790   -0.0101 H   0  0  0  0  0  0  0  0  0  0  0  0
    4.0180    0.5809   -1.4502 H   0  0  0  0  0  0  0  0  0  0  0  0
    2.4036    0.7039   -2.1270 H   0  0  0  0  0  0  0  0  0  0  0  0
    2.6755    0.4737    2.1781 H   0  0  0  0  0  0  0  0  0  0  0  0
    4.1836    0.7569    1.2859 H   0  0  0  0  0  0  0  0  0  0  0  0
    2.9778    2.0479    1.6090 H   0  0  0  0  0  0  0  0  0  0  0  0
   -3.8535    1.9490   -0.9143 H   0  0  0  0  0  0  0  0  0  0  0  0
   -4.5660    0.6775    0.0277 H   0  0  0  0  0  0  0  0  0  0  0  0
    3.4667    2.7360   -2.5552 H   0  0  0  0  0  0  0  0  0  0  0  0
    2.1947    3.0705   -1.4067 H   0  0  0  0  0  0  0  0  0  0  0  0
   -4.8304    2.6925    1.3037 H   0  0  0  0  0  0  0  0  0  0  0  0
   -3.7229    1.6528    2.1653 H   0  0  0  0  0  0  0  0  0  0  0  0
    3.8593    3.2287    0.4792 H   0  0  0  0  0  0  0  0  0  0  0  0
   -2.9910    4.0381    2.1982 H   0  0  0  0  0  0  0  0  0  0  0  0
   -1.7983    3.0131    1.5067 H   0  0  0  0  0  0  0  0  0  0  0  0
   -1.9809    4.9875    0.0780 H   0  0  0  0  0  0  0  0  0  0  0  0
   -2.6745    3.6918   -0.8582 H   0  0  0  0  0  0  0  0  0  0  0  0
    7.2163    3.6721    0.1773 H   0  0  0  0  0  0  0  0  0  0  0  0
    6.3919    5.2574    0.1878 H   0  0  0  0  0  0  0  0  0  0  0  0
    5.8400    3.9477    1.2373 H   0  0  0  0  0  0  0  0  0  0  0  0
    5.8394    2.8960   -2.7687 H   0  0  0  0  0  0  0  0  0  0  0  0
    5.0116    4.4727   -2.8072 H   0  0  0  0  0  0  0  0  0  0  0  0
    6.7186    4.3874   -2.3609 H   0  0  0  0  0  0  0  0  0  0  0  0
   -4.2762    5.6555    0.8274 H   0  0  0  0  0  0  0  0  0  0  0  0
   -4.1550    5.6468   -0.9497 H   0  0  0  0  0  0  0  0  0  0  0  0
   -4.9794    4.3311   -0.1184 H   0  0  0  0  0  0  0  0  0  0  0  0
  1  2  2  0  0  0  0
  1  3  1  0  0  0  0
  1  4  1  0  0  0  0
  2  5  1  0  0  0  0
  2  6  1  0  0  0  0
  3  7  2  0  0  0  0
  3 24  1  0  0  0  0
  4  8  2  0  0  0  0
  4  9  1  0  0  0  0
  5 10  1  0  0  0  0
  6 11  2  0  0  0  0
  6 25  1  0  0  0  0
  7 10  1  0  0  0  0
  7 26  1  0  0  0  0
  8 11  1  0  0  0  0
  8 27  1  0  0  0  0
  9 28  1  0  0  0  0
 10 12  1  4  0  0  0
 10 13  1  0  0  0  0
 11 14  1  0  0  0  0
 12 15  1  0  0  0  0
 12 29  1  0  0  0  0
 12 30  1  0  0  0  0
 13 31  1  0  0  0  0
 13 32  1  0  0  0  0
 13 33  1  0  0  0  0
 14 16  1  0  0  0  0
 14 34  1  0  0  0  0
 14 35  1  0  0  0  0
 15 17  1  0  0  0  0
 15 36  1  0  0  0  0
 15 37  1  0  0  0  0
 16 18  1  0  0  0  0
 16 38  1  0  0  0  0
 16 39  1  0  0  0  0
 17 19  2  0  0  0  0
 17 40  1  0  0  0  0
 18 20  1  0  0  0  0
 18 41  1  0  0  0  0
 18 42  1  0  0  0  0
 19 21  1  0  0  0  0
 19 22  1  0  0  0  0
 20 23  1  0  0  0  0
 20 43  1  0  0  0  0
 20 44  1  0  0  0  0
 21 45  1  0  0  0  0
 21 46  1  0  0  0  0
 21 47  1  0  0  0  0
 22 48  1  0  0  0  0
 22 49  1  0  0  0  0
 22 50  1  0  0  0  0
 23 51  1  0  0  0  0
 23 52  1  0  0  0  0
 23 53  1  0  0  0  0
M  END
>  <DRUGBANK_ID>
DB14735

>  <COMMON_NAME>
Cannabichromene

>  <CAS_NUMBER>
20675-51-8

>  <UNII>
K4497H250W

>  <SYNONYMS>
2-Methyl-2-(4-methyl-3-pentenyl)-7-pentyl-2H-1-benzopyran-5-ol; Cannabichrome; Cannabinochromene; Cannanbichromene; Pentylcannabichromene

$$$$
