
 OpenBabel10282417233D

125130  0  0  1  0  0  0  0  0999 V2000
    4.1898   -4.6505   11.5983 H   0  0  0  0  0  0  0  0  0  0  0  0
    3.3455   -5.3794   11.2341 C   0  0  2  0  0  0  0  0  0  0  0  0
    1.8619   -4.0350   11.5105 C   0  0  2  0  0  0  0  0  0  0  0  0
    1.9912   -4.1683   12.9127 O   0  0  0  0  0  0  0  0  0  0  0  0
    2.0621   -4.1459   14.2035 C   0  0  0  0  0  0  0  0  0  0  0  0
    2.0326   -5.0611   15.0062 O   0  0  0  0  0  0  0  0  0  0  0  0
    1.7003   -2.8426   14.4565 C   0  0  0  0  0  0  0  0  0  0  0  0
    0.4593   -2.4648   13.9087 C   0  0  0  0  0  0  0  0  0  0  0  0
   -0.3039   -1.6671   14.6521 C   0  0  0  0  0  0  0  0  0  0  0  0
    0.3390   -1.1253   15.7442 C   0  0  0  0  0  0  0  0  0  0  0  0
    1.6160   -1.5433   16.2203 C   0  0  0  0  0  0  0  0  0  0  0  0
    2.3601   -2.4465   15.5576 C   0  0  0  0  0  0  0  0  0  0  0  0
    1.0318   -3.3181   10.0815 C   0  0  2  0  0  0  0  0  0  0  0  0
    1.6566   -2.0230    9.7742 O   0  0  0  0  0  0  0  0  0  0  0  0
   -0.4507   -3.0766    9.8945 C   0  0  0  0  0  0  0  0  0  0  0  0
   -0.7910   -3.9369    8.6451 C   0  0  2  0  0  0  0  0  0  0  0  0
   -1.5536   -3.6631    7.4480 O   0  0  0  0  0  0  0  0  0  0  0  0
   -1.0872   -3.7012    6.1296 C   0  0  0  0  0  0  0  0  0  0  0  0
   -1.9179   -3.5318    5.2369 O   0  0  0  0  0  0  0  0  0  0  0  0
    0.3975   -3.9503    5.6708 C   0  0  2  0  0  0  0  0  0  0  0  0
    1.3524   -3.2315    6.4366 O   0  0  0  0  0  0  0  0  0  0  0  0
    0.7806   -3.6470    4.2204 C   0  0  2  0  0  0  0  0  0  0  0  0
    1.0994   -4.9013    3.3718 C   0  0  0  0  0  0  0  0  0  0  0  0
   -0.0099   -5.1973    2.3633 C   0  0  0  0  0  0  0  0  0  0  0  0
   -0.2468   -3.9873    1.4634 C   0  0  0  0  0  0  0  0  0  0  0  0
    0.3921   -6.3910    1.5042 C   0  0  0  0  0  0  0  0  0  0  0  0
    1.9539   -2.7710    4.1348 N   0  0  0  0  0  0  0  0  0  0  0  0
    1.9222   -1.4514    3.8072 C   0  0  0  0  0  0  0  0  0  0  0  0
    2.9590   -0.8056    3.8801 O   0  0  0  0  0  0  0  0  0  0  0  0
    0.7064   -1.0034    3.3894 O   0  0  0  0  0  0  0  0  0  0  0  0
    0.5866    0.3678    2.9266 C   0  0  0  0  0  0  0  0  0  0  0  0
    0.9185    1.3447    4.0526 C   0  0  0  0  0  0  0  0  0  0  0  0
    1.4872    0.6037    1.7140 C   0  0  0  0  0  0  0  0  0  0  0  0
   -0.8662    0.6315    2.4878 C   0  0  0  0  0  0  0  0  0  0  0  0
   -0.8760   -5.4189    8.9498 C   0  0  0  0  0  0  0  0  0  0  0  0
   -1.5394   -6.4520    9.6766 C   0  0  0  0  0  0  0  0  0  0  0  0
    0.3257   -5.9184    8.9907 C   0  0  0  0  0  0  0  0  0  0  0  0
    1.0998   -7.6036    8.9365 C   0  0  2  0  0  0  0  0  0  0  0  0
    1.7217   -7.5464   10.0813 O   0  0  0  0  0  0  0  0  0  0  0  0
    2.0837   -6.2277    9.8638 C   0  0  0  0  0  0  0  0  0  0  0  0
    2.8743   -5.1111    8.2432 C   0  0  0  0  0  0  0  0  0  0  0  0
    1.4441   -5.9067   10.8658 O   0  0  0  0  0  0  0  0  0  0  0  0
    2.6471   -7.9370    8.6675 C   0  0  2  0  0  0  0  0  0  0  0  0
    2.8832   -9.3418    8.6262 O   0  0  0  0  0  0  0  0  0  0  0  0
    4.0217   -9.4661    9.3692 C   0  0  3  0  0  0  0  0  0  0  0  0
    3.6653   -9.4681   10.7047 O   0  0  0  0  0  0  0  0  0  0  0  0
    4.3647   -8.3356   11.1035 C   0  0  1  0  0  0  0  0  0  0  0  0
    4.5130   -8.3321   12.9425 C   0  0  0  0  0  0  0  0  0  0  0  0
    4.8437   -6.9362   13.0864 C   0  0  1  0  0  0  0  0  0  0  0  0
    3.8929   -6.7456   12.1776 O   0  0  0  0  0  0  0  0  0  0  0  0
    4.0734   -5.7777   13.8570 C   0  0  0  0  0  0  0  0  0  0  0  0
    2.9950   -6.0354   12.9482 C   0  0  1  0  0  0  0  0  0  0  0  0
    1.6901   -6.8904   13.1086 O   0  0  0  0  0  0  0  0  0  0  0  0
    0.3558   -6.4265   13.0290 C   0  0  0  0  0  0  0  0  0  0  0  0
   -0.2813   -5.4259   13.9221 C   0  0  0  0  0  0  0  0  0  0  0  0
   -0.5456   -6.9971   12.3966 O   0  0  0  0  0  0  0  0  0  0  0  0
    3.9172   -6.8321    9.9097 C   0  0  2  0  0  0  0  0  0  0  0  0
    4.4719   -6.7053    7.9487 C   0  0  0  0  0  0  0  0  0  0  0  0
    4.9633  -10.4761    8.9534 C   0  0  0  0  0  0  0  0  0  0  0  0
    4.5468  -11.5923    8.3788 C   0  0  0  0  0  0  0  0  0  0  0  0
    1.3218   -4.5143    9.1989 C   0  0  0  0  0  0  0  0  0  0  0  0
    1.0315   -5.6219    7.5429 C   0  0  0  0  0  0  0  0  0  0  0  0
    3.1495   -3.8004    9.7330 C   0  0  0  0  0  0  0  0  0  0  0  0
    0.8499   -4.3377   11.7426 H   0  0  0  0  0  0  0  0  0  0  0  0
   -0.0117   -2.9297   13.0487 H   0  0  0  0  0  0  0  0  0  0  0  0
   -1.3217   -1.5042   14.3287 H   0  0  0  0  0  0  0  0  0  0  0  0
   -0.1451   -0.2930   16.2120 H   0  0  0  0  0  0  0  0  0  0  0  0
    2.0175   -1.1711   17.1388 H   0  0  0  0  0  0  0  0  0  0  0  0
    3.3126   -2.9030   15.8350 H   0  0  0  0  0  0  0  0  0  0  0  0
    2.6129   -1.9949    9.5565 H   0  0  0  0  0  0  0  0  0  0  0  0
   -1.2594   -2.3759    9.9826 H   0  0  0  0  0  0  0  0  0  0  0  0
   -0.2713   -2.8251   10.9402 H   0  0  0  0  0  0  0  0  0  0  0  0
    0.1010   -3.6096    8.0822 H   0  0  0  0  0  0  0  0  0  0  0  0
    0.4737   -5.0352    5.6308 H   0  0  0  0  0  0  0  0  0  0  0  0
    2.2401   -3.3683    6.0594 H   0  0  0  0  0  0  0  0  0  0  0  0
   -0.0695   -3.1085    3.8444 H   0  0  0  0  0  0  0  0  0  0  0  0
    2.0374   -4.7387    2.8199 H   0  0  0  0  0  0  0  0  0  0  0  0
    1.2863   -5.8002    3.9767 H   0  0  0  0  0  0  0  0  0  0  0  0
   -0.9336   -5.4412    2.9033 H   0  0  0  0  0  0  0  0  0  0  0  0
    0.6757   -3.7160    0.9399 H   0  0  0  0  0  0  0  0  0  0  0  0
   -1.0301   -4.1939    0.7339 H   0  0  0  0  0  0  0  0  0  0  0  0
   -0.5749   -3.1114    2.0248 H   0  0  0  0  0  0  0  0  0  0  0  0
    0.5543   -7.2808    2.1203 H   0  0  0  0  0  0  0  0  0  0  0  0
   -0.3883   -6.6154    0.7717 H   0  0  0  0  0  0  0  0  0  0  0  0
    1.3201   -6.1794    0.9607 H   0  0  0  0  0  0  0  0  0  0  0  0
    2.8746   -3.0853    4.4162 H   0  0  0  0  0  0  0  0  0  0  0  0
    1.9401    1.2102    4.4108 H   0  0  0  0  0  0  0  0  0  0  0  0
    0.8262    2.3811    3.7146 H   0  0  0  0  0  0  0  0  0  0  0  0
    0.2558    1.1863    4.9095 H   0  0  0  0  0  0  0  0  0  0  0  0
    1.2309   -0.0839    0.9011 H   0  0  0  0  0  0  0  0  0  0  0  0
    1.4008    1.6328    1.3530 H   0  0  0  0  0  0  0  0  0  0  0  0
    2.5373    0.4324    1.9558 H   0  0  0  0  0  0  0  0  0  0  0  0
   -1.1707   -0.0381    1.6761 H   0  0  0  0  0  0  0  0  0  0  0  0
   -1.5701    0.4807    3.3131 H   0  0  0  0  0  0  0  0  0  0  0  0
   -0.9847    1.6642    2.1314 H   0  0  0  0  0  0  0  0  0  0  0  0
   -2.5060   -6.0759    9.8709 H   0  0  0  0  0  0  0  0  0  0  0  0
   -1.4353   -7.4295    9.1791 H   0  0  0  0  0  0  0  0  0  0  0  0
   -0.9294   -6.5741   10.5663 H   0  0  0  0  0  0  0  0  0  0  0  0
    0.4602   -8.4601    8.6420 H   0  0  0  0  0  0  0  0  0  0  0  0
    2.3279   -3.9527    8.0651 H   0  0  0  0  0  0  0  0  0  0  0  0
    3.7866   -4.4791    8.1043 H   0  0  0  0  0  0  0  0  0  0  0  0
    2.6853   -4.8631    7.2008 H   0  0  0  0  0  0  0  0  0  0  0  0
    2.5986   -7.8985    7.5620 H   0  0  0  0  0  0  0  0  0  0  0  0
    4.6614   -8.6278    9.0926 H   0  0  0  0  0  0  0  0  0  0  0  0
    5.4156   -8.6302   11.0652 H   0  0  0  0  0  0  0  0  0  0  0  0
    3.9186   -9.1594   13.3367 H   0  0  0  0  0  0  0  0  0  0  0  0
    3.6829   -8.0197   13.6713 H   0  0  0  0  0  0  0  0  0  0  0  0
    5.6366   -6.3389   12.5162 H   0  0  0  0  0  0  0  0  0  0  0  0
    3.8574   -6.3618   14.7489 H   0  0  0  0  0  0  0  0  0  0  0  0
    3.9414   -4.7857   14.2777 H   0  0  0  0  0  0  0  0  0  0  0  0
   -0.9615   -4.7593   13.3751 H   0  0  0  0  0  0  0  0  0  0  0  0
   -0.4760   -5.7805   14.9220 H   0  0  0  0  0  0  0  0  0  0  0  0
    0.2698   -4.6243   14.2271 H   0  0  0  0  0  0  0  0  0  0  0  0
    4.1314   -5.9075    7.2187 H   0  0  0  0  0  0  0  0  0  0  0  0
    5.4708   -6.8587    7.5890 H   0  0  0  0  0  0  0  0  0  0  0  0
    4.0160   -7.3838    7.1292 H   0  0  0  0  0  0  0  0  0  0  0  0
    5.9963  -10.1393    8.9712 H   0  0  0  0  0  0  0  0  0  0  0  0
    5.2671  -12.2535    7.9454 H   0  0  0  0  0  0  0  0  0  0  0  0
    3.4781  -11.7860    8.3420 H   0  0  0  0  0  0  0  0  0  0  0  0
    0.1047   -6.1512    7.1270 H   0  0  0  0  0  0  0  0  0  0  0  0
    1.5667   -5.6209    6.6021 H   0  0  0  0  0  0  0  0  0  0  0  0
    1.7675   -6.4441    7.5917 H   0  0  0  0  0  0  0  0  0  0  0  0
    3.5623   -4.7652    9.7734 H   0  0  0  0  0  0  0  0  0  0  0  0
    4.2552   -3.8753    9.5184 H   0  0  0  0  0  0  0  0  0  0  0  0
    3.3358   -3.1778   10.6392 H   0  0  0  0  0  0  0  0  0  0  0  0
  2  3  1  0  0  0  0
  2 52  1  0  0  0  0
  2 57  1  0  0  0  0
  2  1  1  6  0  0  0
  3 13  1  0  0  0  0
  3 64  1  1  0  0  0
  3  4  1  0  0  0  0
  4  5  1  0  0  0  0
  5  6  2  0  0  0  0
  5  7  1  0  0  0  0
  7  8  2  0  0  0  0
  7 12  1  0  0  0  0
  8  9  1  0  0  0  0
  8 65  1  0  0  0  0
  9 10  2  0  0  0  0
  9 66  1  0  0  0  0
 10 11  1  0  0  0  0
 10 67  1  0  0  0  0
 11 12  2  0  0  0  0
 11 68  1  0  0  0  0
 12 69  1  0  0  0  0
 13 15  1  0  0  0  0
 13 61  1  0  0  0  0
 13 14  1  6  0  0  0
 14 70  1  0  0  0  0
 15 71  1  0  0  0  0
 15 72  1  0  0  0  0
 16 15  1  0  0  0  0
 16 35  1  0  0  0  0
 16 17  1  0  0  0  0
 16 73  1  6  0  0  0
 17 18  1  0  0  0  0
 18 19  2  0  0  0  0
 20 74  1  1  0  0  0
 20 21  1  0  0  0  0
 20 18  1  0  0  0  0
 21 75  1  0  0  0  0
 22 27  1  0  0  0  0
 22 76  1  6  0  0  0
 22 23  1  0  0  0  0
 22 20  1  0  0  0  0
 23 24  1  0  0  0  0
 23 77  1  0  0  0  0
 23 78  1  0  0  0  0
 24 25  1  0  0  0  0
 24 26  1  0  0  0  0
 24 79  1  0  0  0  0
 25 80  1  0  0  0  0
 25 81  1  0  0  0  0
 25 82  1  0  0  0  0
 26 83  1  0  0  0  0
 26 84  1  0  0  0  0
 26 85  1  0  0  0  0
 27 28  1  0  0  0  0
 27 86  1  0  0  0  0
 28 29  2  0  0  0  0
 28 30  1  0  0  0  0
 30 31  1  0  0  0  0
 31 32  1  0  0  0  0
 31 33  1  0  0  0  0
 31 34  1  0  0  0  0
 32 87  1  0  0  0  0
 32 88  1  0  0  0  0
 32 89  1  0  0  0  0
 33 90  1  0  0  0  0
 33 91  1  0  0  0  0
 33 92  1  0  0  0  0
 34 93  1  0  0  0  0
 34 94  1  0  0  0  0
 34 95  1  0  0  0  0
 35 37  2  0  0  0  0
 35 36  1  0  0  0  0
 36 96  1  0  0  0  0
 36 97  1  0  0  0  0
 36 98  1  0  0  0  0
 37 61  1  0  0  0  0
 38 37  1  0  0  0  0
 38 99  1  6  0  0  0
 38 39  1  0  0  0  0
 39 40  1  0  0  0  0
 40 41  1  0  0  0  0
 40 42  2  0  0  0  0
 41100  1  0  0  0  0
 41101  1  0  0  0  0
 41102  1  0  0  0  0
 43 38  1  0  0  0  0
 43 44  1  0  0  0  0
 43103  1  6  0  0  0
 44 45  1  0  0  0  0
 45 46  1  0  0  0  0
 45 59  1  0  0  0  0
 45104  1  0  0  0  0
 47 46  1  0  0  0  0
 47 48  1  0  0  0  0
 47105  1  1  0  0  0
 48106  1  0  0  0  0
 48107  1  0  0  0  0
 49 48  1  0  0  0  0
 49 50  1  0  0  0  0
 49108  1  1  0  0  0
 50 51  1  0  0  0  0
 51109  1  0  0  0  0
 51110  1  0  0  0  0
 52 51  1  0  0  0  0
 52 49  1  0  0  0  0
 52 53  1  1  0  0  0
 53 54  1  0  0  0  0
 54 55  1  0  0  0  0
 54 56  2  0  0  0  0
 55111  1  0  0  0  0
 55112  1  0  0  0  0
 55113  1  0  0  0  0
 57 47  1  0  0  0  0
 57 43  1  0  0  0  0
 57 58  1  6  0  0  0
 58114  1  0  0  0  0
 58115  1  0  0  0  0
 58116  1  0  0  0  0
 59 60  2  0  0  0  0
 59117  1  0  0  0  0
 60118  1  0  0  0  0
 60119  1  0  0  0  0
 61 62  1  0  0  0  0
 61 63  1  0  0  0  0
 62120  1  0  0  0  0
 62121  1  0  0  0  0
 62122  1  0  0  0  0
 63123  1  0  0  0  0
 63124  1  0  0  0  0
 63125  1  0  0  0  0
M  END
>  <DRUGBANK_ID>
DB17168

>  <COMMON_NAME>
TPI-287

>  <CAS_NUMBER>
849213-15-6

>  <UNII>
A2VM2V569A

>  <SYNONYMS>
(2'R,3'S)-2'-hydroxy-N-carboxy-3'-amino-5'-methyl-hexanoic,N-tert-butyl ester, 13 ester 5B-20-epoxy-1B,2a,4a,7B,9a,10a,13a-heptahydroxy-4,10-diacetate-2-benzoate-(1"S)-7,9-acrolein acetal-11(15-1)-abeotaxane; TPI-287

$$$$
