
 OpenBabel10282417193D

 45 48  0  0  0  0  0  0  0  0999 V2000
    2.2106   -0.6671   -0.0053 C   0  0  0  0  0  0  0  0  0  0  0  0
    2.1781    0.7250   -0.0186 C   0  0  0  0  0  0  0  0  0  0  0  0
    0.9669    1.4225    0.0030 C   0  0  0  0  0  0  0  0  0  0  0  0
   -0.2075    0.6648   -0.0041 C   0  0  0  0  0  0  0  0  0  0  0  0
   -0.2074   -0.7282    0.0014 C   0  0  0  0  0  0  0  0  0  0  0  0
    1.0262   -1.4064    0.0239 C   0  0  0  0  0  0  0  0  0  0  0  0
   -1.5669   -1.1593   -0.0423 C   0  0  0  0  0  0  0  0  0  0  0  0
   -2.3355   -0.0151   -0.1516 C   0  0  0  0  0  0  0  0  0  0  0  0
   -1.5192    1.0750   -0.0304 N   0  0  0  0  0  0  0  0  0  0  0  0
   -2.0478   -2.5837   -0.0249 C   0  0  0  0  0  0  0  0  0  0  0  0
   -2.9444   -2.9014    1.1791 C   0  0  0  0  0  0  0  0  0  0  0  0
   -4.1474   -2.1058    1.0752 N   0  0  0  0  0  0  0  0  0  0  0  0
   -5.4211   -2.6008    1.1090 C   0  0  0  0  0  0  0  0  0  0  0  0
   -5.8102   -3.6494    1.9368 C   0  0  0  0  0  0  0  0  0  0  0  0
   -7.1351   -4.0964    1.9465 C   0  0  0  0  0  0  0  0  0  0  0  0
   -8.0871   -3.4990    1.1166 C   0  0  0  0  0  0  0  0  0  0  0  0
   -7.6910   -2.4085    0.3336 C   0  0  0  0  0  0  0  0  0  0  0  0
   -6.3702   -1.9938    0.2945 C   0  0  0  0  0  0  0  0  0  0  0  0
   -9.4251   -3.9273    1.1209 N   0  0  0  0  0  0  0  0  0  0  0  0
  -10.4245   -3.5517    0.2042 C   0  0  0  0  0  0  0  0  0  0  0  0
  -10.1961   -3.5358   -1.1750 C   0  0  0  0  0  0  0  0  0  0  0  0
  -11.1766   -3.0270   -2.0073 C   0  0  0  0  0  0  0  0  0  0  0  0
  -12.3609   -2.5594   -1.5641 N   0  0  0  0  0  0  0  0  0  0  0  0
  -12.5716   -2.6154   -0.2308 C   0  0  0  0  0  0  0  0  0  0  0  0
  -11.6554   -3.1144    0.6800 C   0  0  0  0  0  0  0  0  0  0  0  0
    3.1629   -1.1898   -0.0289 H   0  0  0  0  0  0  0  0  0  0  0  0
    3.1109    1.2814   -0.0535 H   0  0  0  0  0  0  0  0  0  0  0  0
    0.9434    2.5060   -0.0040 H   0  0  0  0  0  0  0  0  0  0  0  0
    1.0604   -2.4910    0.0272 H   0  0  0  0  0  0  0  0  0  0  0  0
   -3.4025    0.1226   -0.2732 H   0  0  0  0  0  0  0  0  0  0  0  0
   -1.8280    2.0328   -0.0192 H   0  0  0  0  0  0  0  0  0  0  0  0
   -2.5873   -2.7867   -0.9590 H   0  0  0  0  0  0  0  0  0  0  0  0
   -1.1942   -3.2705   -0.0013 H   0  0  0  0  0  0  0  0  0  0  0  0
   -3.1695   -3.9738    1.1701 H   0  0  0  0  0  0  0  0  0  0  0  0
   -2.4342   -2.6719    2.1212 H   0  0  0  0  0  0  0  0  0  0  0  0
   -4.0528   -1.1173    1.2774 H   0  0  0  0  0  0  0  0  0  0  0  0
   -5.0871   -4.1022    2.6085 H   0  0  0  0  0  0  0  0  0  0  0  0
   -7.4039   -4.9017    2.6230 H   0  0  0  0  0  0  0  0  0  0  0  0
   -8.4099   -1.8551   -0.2617 H   0  0  0  0  0  0  0  0  0  0  0  0
   -6.0859   -1.2025   -0.3944 H   0  0  0  0  0  0  0  0  0  0  0  0
   -9.6307   -4.7585    1.6619 H   0  0  0  0  0  0  0  0  0  0  0  0
   -9.2531   -3.8728   -1.5936 H   0  0  0  0  0  0  0  0  0  0  0  0
  -11.0199   -2.9643   -3.0802 H   0  0  0  0  0  0  0  0  0  0  0  0
  -13.5224   -2.2118    0.1030 H   0  0  0  0  0  0  0  0  0  0  0  0
  -11.8669   -3.0901    1.7424 H   0  0  0  0  0  0  0  0  0  0  0  0
  1  2  2  0  0  0  0
  1  6  1  0  0  0  0
  1 26  1  0  0  0  0
  2  3  1  0  0  0  0
  2 27  1  0  0  0  0
  3  4  2  0  0  0  0
  3 28  1  0  0  0  0
  4  5  1  0  0  0  0
  4  9  1  0  0  0  0
  5  6  2  0  0  0  0
  5  7  1  0  0  0  0
  6 29  1  0  0  0  0
  7  8  2  0  0  0  0
  7 10  1  0  0  0  0
  8  9  1  0  0  0  0
  8 30  1  0  0  0  0
  9 31  1  0  0  0  0
 10 11  1  0  0  0  0
 10 32  1  0  0  0  0
 10 33  1  0  0  0  0
 11 12  1  0  0  0  0
 11 34  1  0  0  0  0
 11 35  1  0  0  0  0
 12 13  1  0  0  0  0
 12 36  1  0  0  0  0
 13 14  2  0  0  0  0
 13 18  1  0  0  0  0
 14 15  1  0  0  0  0
 14 37  1  0  0  0  0
 15 16  2  0  0  0  0
 15 38  1  0  0  0  0
 16 17  1  0  0  0  0
 16 19  1  0  0  0  0
 17 18  2  0  0  0  0
 17 39  1  0  0  0  0
 18 40  1  0  0  0  0
 19 20  1  0  0  0  0
 19 41  1  0  0  0  0
 20 21  2  0  0  0  0
 20 25  1  0  0  0  0
 21 22  1  0  0  0  0
 21 42  1  0  0  0  0
 22 23  2  0  0  0  0
 22 43  1  0  0  0  0
 23 24  1  0  0  0  0
 24 25  2  0  0  0  0
 24 44  1  0  0  0  0
 25 45  1  0  0  0  0
M  END
>  <DRUGBANK_ID>
DB12027

>  <COMMON_NAME>
Serdemetan

>  <CAS_NUMBER>
881202-45-5

>  <UNII>
ID6YB4W3V8

>  <SYNONYMS>
Serdemetan

$$$$
