
 OpenBabel10282417233D

 53 57  0  0  0  0  0  0  0  0999 V2000
    2.5137   -0.2044    0.4060 O   0  0  0  0  0  0  0  0  0  0  0  0
    1.3279   -0.0401    0.1407 C   0  0  0  0  0  0  0  0  0  0  0  0
    0.7605    1.3402    0.0478 C   0  0  0  0  0  0  0  0  0  0  0  0
   -1.0205    1.1367   -0.0099 S   0  0  0  0  0  0  0  0  0  0  0  0
   -0.9167   -0.6103   -0.0362 C   0  0  0  0  0  0  0  0  0  0  0  0
   -1.9134   -1.3152    0.0027 O   0  0  0  0  0  0  0  0  0  0  0  0
    0.3855   -1.0202   -0.0611 N   0  0  0  0  0  0  0  0  0  0  0  0
    0.7175   -2.4424   -0.0893 C   0  0  0  0  0  0  0  0  0  0  0  0
    1.4983   -2.8148   -1.3369 C   0  0  0  0  0  0  0  0  0  0  0  0
    2.7946   -2.2962   -1.5533 C   0  0  0  0  0  0  0  0  0  0  0  0
    3.4078   -2.4946   -2.7646 C   0  0  0  0  0  0  0  0  0  0  0  0
    4.6645   -2.0438   -3.3632 C   0  0  0  0  0  0  0  0  0  0  0  0
    5.6326   -1.2698   -2.8459 C   0  0  0  0  0  0  0  0  0  0  0  0
    6.7109   -0.9595   -3.6969 C   0  0  0  0  0  0  0  0  0  0  0  0
    6.7760   -0.3506   -4.9405 C   0  0  0  0  0  0  0  0  0  0  0  0
    8.1176   -0.4304   -5.4211 C   0  0  0  0  0  0  0  0  0  0  0  0
    8.7012    0.4395   -6.5550 C   0  0  0  0  0  0  0  0  0  0  0  0
    9.5375    1.6548   -6.1970 N   0  0  0  0  0  0  0  0  0  0  0  0
   10.8270    1.3662   -5.5264 C   0  0  0  0  0  0  0  0  0  0  0  0
   10.5737    0.8965   -4.1056 C   0  0  0  0  0  0  0  0  0  0  0  0
    9.7143    1.6953   -3.2864 O   0  0  0  0  0  0  0  0  0  0  0  0
    8.5301    2.1558   -3.9605 C   0  0  0  0  0  0  0  0  0  0  0  0
    8.8303    2.6579   -5.3692 C   0  0  0  0  0  0  0  0  0  0  0  0
    8.6942   -1.3959   -4.5800 C   0  0  0  0  0  0  0  0  0  0  0  0
    7.9606   -1.4155   -3.4050 N   0  0  0  0  0  0  0  0  0  0  0  0
    4.7090   -2.6580   -4.7640 C   0  0  0  0  0  0  0  0  0  0  0  0
    5.5314   -2.6269   -5.6337 O   0  0  0  0  0  0  0  0  0  0  0  0
    3.5312   -3.3634   -4.8697 N   0  0  0  0  0  0  0  0  0  0  0  0
    2.7750   -3.2823   -3.7225 C   0  0  0  0  0  0  0  0  0  0  0  0
    1.5636   -3.8990   -3.5200 C   0  0  0  0  0  0  0  0  0  0  0  0
    0.9137   -3.6526   -2.3136 C   0  0  0  0  0  0  0  0  0  0  0  0
    1.1396    1.8334   -0.8522 H   0  0  0  0  0  0  0  0  0  0  0  0
    1.0685    1.8868    0.9419 H   0  0  0  0  0  0  0  0  0  0  0  0
    1.2992   -2.7066    0.7999 H   0  0  0  0  0  0  0  0  0  0  0  0
   -0.2063   -3.0364   -0.0541 H   0  0  0  0  0  0  0  0  0  0  0  0
    3.3221   -1.7300   -0.7999 H   0  0  0  0  0  0  0  0  0  0  0  0
    5.6149   -0.8812   -1.8279 H   0  0  0  0  0  0  0  0  0  0  0  0
    5.9495    0.1593   -5.4143 H   0  0  0  0  0  0  0  0  0  0  0  0
    9.2651   -0.1860   -7.2556 H   0  0  0  0  0  0  0  0  0  0  0  0
    7.8515    0.8347   -7.1325 H   0  0  0  0  0  0  0  0  0  0  0  0
   11.4839    2.2450   -5.4895 H   0  0  0  0  0  0  0  0  0  0  0  0
   11.3659    0.5997   -6.0987 H   0  0  0  0  0  0  0  0  0  0  0  0
   10.0687    0.0143   -4.3225 H   0  0  0  0  0  0  0  0  0  0  0  0
   11.4069    0.4636   -3.5469 H   0  0  0  0  0  0  0  0  0  0  0  0
    8.0347    2.9063   -3.3409 H   0  0  0  0  0  0  0  0  0  0  0  0
    7.7713    1.3971   -3.9968 H   0  0  0  0  0  0  0  0  0  0  0  0
    9.4737    3.5418   -5.2502 H   0  0  0  0  0  0  0  0  0  0  0  0
    7.9266    3.0038   -5.8808 H   0  0  0  0  0  0  0  0  0  0  0  0
    9.6979   -1.8061   -4.5299 H   0  0  0  0  0  0  0  0  0  0  0  0
    8.2903   -1.7652   -2.5111 H   0  0  0  0  0  0  0  0  0  0  0  0
    3.3282   -3.8754   -5.7090 H   0  0  0  0  0  0  0  0  0  0  0  0
    1.1336   -4.5379   -4.2808 H   0  0  0  0  0  0  0  0  0  0  0  0
   -0.0556   -4.1177   -2.1429 H   0  0  0  0  0  0  0  0  0  0  0  0
  1  2  2  0  0  0  0
  2  3  1  0  0  0  0
  2  7  1  0  0  0  0
  3  4  1  0  0  0  0
  3 32  1  0  0  0  0
  3 33  1  0  0  0  0
  4  5  1  0  0  0  0
  5  6  2  0  0  0  0
  5  7  1  0  0  0  0
  7  8  1  0  0  0  0
  8  9  1  0  0  0  0
  8 34  1  0  0  0  0
  8 35  1  0  0  0  0
  9 10  2  0  0  0  0
  9 31  1  0  0  0  0
 10 11  1  0  0  0  0
 10 36  1  0  0  0  0
 11 12  1  0  0  0  0
 11 29  2  0  0  0  0
 12 13  2  0  0  0  0
 13 14  1  0  0  0  0
 13 37  1  0  0  0  0
 14 15  2  0  0  0  0
 14 25  1  0  0  0  0
 15 16  1  0  0  0  0
 15 38  1  0  0  0  0
 16 17  1  0  0  0  0
 16 24  2  0  0  0  0
 17 18  1  0  0  0  0
 17 39  1  0  0  0  0
 17 40  1  0  0  0  0
 18 19  1  0  0  0  0
 18 23  1  0  0  0  0
 19 20  1  0  0  0  0
 19 41  1  0  0  0  0
 19 42  1  0  0  0  0
 20 21  1  0  0  0  0
 20 43  1  0  0  0  0
 20 44  1  0  0  0  0
 21 22  1  0  0  0  0
 22 23  1  0  0  0  0
 22 45  1  0  0  0  0
 22 46  1  0  0  0  0
 23 47  1  0  0  0  0
 23 48  1  0  0  0  0
 24 25  1  0  0  0  0
 24 49  1  0  0  0  0
 25 50  1  0  0  0  0
 26 12  1  0  0  0  0
 26 27  2  0  0  0  0
 28 26  1  0  0  0  0
 28 51  1  0  0  0  0
 29 28  1  0  0  0  0
 29 30  1  0  0  0  0
 30 31  2  0  0  0  0
 30 52  1  0  0  0  0
 31 53  1  0  0  0  0
M  END
>  <DRUGBANK_ID>
DB16821

>  <COMMON_NAME>
S-49076

>  <CAS_NUMBER>
1265965-22-7

>  <UNII>
65ZUU7MATU

$$$$
