
 OpenBabel10282417223D

 71 73  0  0  1  0  0  0  0  0999 V2000
    0.2060    7.7147    2.9857 C   0  0  0  0  0  0  0  0  0  0  0  0
    0.3532    7.6739    1.4759 C   0  0  1  0  0  0  0  0  0  0  0  0
    0.7635    6.1899    1.5849 N   0  0  0  0  0  0  0  0  0  0  0  0
   -0.8909    8.5570    0.3573 C   0  0  1  0  0  0  0  0  0  0  0  0
   -0.5844    9.2331   -1.0828 O   0  0  0  0  0  0  0  0  0  0  0  0
   -0.8691    8.2816   -2.2842 C   0  0  1  0  0  0  0  0  0  0  0  0
    0.5866    7.9718   -3.2163 O   0  0  0  0  0  0  0  0  0  0  0  0
    1.4449    6.5663   -3.1856 C   0  0  2  0  0  0  0  0  0  0  0  0
    0.5170    5.9822   -2.2708 C   0  0  1  0  0  0  0  0  0  0  0  0
   -0.0270    4.7281   -2.5740 O   0  0  0  0  0  0  0  0  0  0  0  0
    1.1063    6.8662   -0.9362 C   0  0  2  0  0  0  0  0  0  0  0  0
    1.3735    8.3159   -1.0469 N   0  0  0  0  0  0  0  0  0  0  0  0
    2.5384    6.7533   -0.2530 C   0  0  0  0  0  0  0  0  0  0  0  0
    3.5429    6.9970   -1.3243 C   0  0  2  0  0  0  0  0  0  0  0  0
    3.6697    8.4526   -1.5699 N   0  0  0  0  0  0  0  0  0  0  0  0
    2.8883    6.0668   -2.3909 C   0  0  1  0  0  0  0  0  0  0  0  0
    2.7832    4.5565   -1.8740 O   0  0  0  0  0  0  0  0  0  0  0  0
    2.0601    3.9508   -0.6563 C   0  0  1  0  0  0  0  0  0  0  0  0
    0.6782    4.3406   -0.4446 O   0  0  0  0  0  0  0  0  0  0  0  0
   -0.4738    3.5442    0.0019 C   0  0  2  0  0  0  0  0  0  0  0  0
   -1.1186    4.1090    1.3173 C   0  0  1  0  0  0  0  0  0  0  0  0
   -1.7820    5.3879    0.9686 C   0  0  0  0  0  0  0  0  0  0  0  0
   -2.1285    3.3182    1.9101 O   0  0  0  0  0  0  0  0  0  0  0  0
   -0.1976    2.0814    0.1444 C   0  0  1  0  0  0  0  0  0  0  0  0
   -0.4051    1.4416   -1.1231 O   0  0  0  0  0  0  0  0  0  0  0  0
    1.2479    1.9542    0.6302 C   0  0  2  0  0  0  0  0  0  0  0  0
    1.4556    2.6736    1.8637 O   0  0  0  0  0  0  0  0  0  0  0  0
    2.2633    2.4329   -0.4601 C   0  0  1  0  0  0  0  0  0  0  0  0
    2.1731    1.7250   -1.7379 N   0  0  0  0  0  0  0  0  0  0  0  0
   -1.9024    7.2826   -1.5589 C   0  0  2  0  0  0  0  0  0  0  0  0
   -3.0649    6.9726   -2.3288 O   0  0  0  0  0  0  0  0  0  0  0  0
   -2.2042    7.9460   -0.1490 C   0  0  2  0  0  0  0  0  0  0  0  0
   -3.1884    8.9676   -0.4036 O   0  0  0  0  0  0  0  0  0  0  0  0
   -0.6326    7.0996    3.3103 H   0  0  0  0  0  0  0  0  0  0  0  0
    0.1920    8.7264    3.3561 H   0  0  0  0  0  0  0  0  0  0  0  0
    1.1118    7.2606    3.4616 H   0  0  0  0  0  0  0  0  0  0  0  0
    1.2677    8.2652    1.3741 H   0  0  0  0  0  0  0  0  0  0  0  0
    0.8050    5.6216    0.7394 H   0  0  0  0  0  0  0  0  0  0  0  0
    1.6894    6.0473    2.0089 H   0  0  0  0  0  0  0  0  0  0  0  0
   -1.0385    9.4708    0.9444 H   0  0  0  0  0  0  0  0  0  0  0  0
   -1.4027    8.8413   -3.0622 H   0  0  0  0  0  0  0  0  0  0  0  0
    1.3947    6.0586   -4.1464 H   0  0  0  0  0  0  0  0  0  0  0  0
   -0.3687    6.3830   -2.7009 H   0  0  0  0  0  0  0  0  0  0  0  0
    0.5485    3.9984   -2.2265 H   0  0  0  0  0  0  0  0  0  0  0  0
    0.2237    6.7646   -0.3733 H   0  0  0  0  0  0  0  0  0  0  0  0
    1.2943    8.9177   -0.2383 H   0  0  0  0  0  0  0  0  0  0  0  0
    0.8805    8.8260   -1.7788 H   0  0  0  0  0  0  0  0  0  0  0  0
    2.7442    7.4147    0.6047 H   0  0  0  0  0  0  0  0  0  0  0  0
    2.8397    5.8538    0.2324 H   0  0  0  0  0  0  0  0  0  0  0  0
    4.5066    6.6889   -0.9114 H   0  0  0  0  0  0  0  0  0  0  0  0
    3.9900    8.7150   -2.4879 H   0  0  0  0  0  0  0  0  0  0  0  0
    2.6734    8.7440   -1.6284 H   0  0  0  0  0  0  0  0  0  0  0  0
    3.6477    6.0348   -3.1731 H   0  0  0  0  0  0  0  0  0  0  0  0
    2.5820    4.2623    0.2392 H   0  0  0  0  0  0  0  0  0  0  0  0
   -1.2563    3.6703   -0.7655 H   0  0  0  0  0  0  0  0  0  0  0  0
   -0.3724    4.3043    2.0842 H   0  0  0  0  0  0  0  0  0  0  0  0
   -2.7812    5.3045    0.5384 H   0  0  0  0  0  0  0  0  0  0  0  0
   -1.7883    6.0783    1.8105 H   0  0  0  0  0  0  0  0  0  0  0  0
   -1.1653    5.7989    0.2100 H   0  0  0  0  0  0  0  0  0  0  0  0
   -2.9607    3.8233    1.8564 H   0  0  0  0  0  0  0  0  0  0  0  0
   -0.9178    1.6386    0.8369 H   0  0  0  0  0  0  0  0  0  0  0  0
   -1.3685    1.3280   -1.2389 H   0  0  0  0  0  0  0  0  0  0  0  0
    1.4215    0.9074    0.8719 H   0  0  0  0  0  0  0  0  0  0  0  0
    1.3498    3.6334    1.7246 H   0  0  0  0  0  0  0  0  0  0  0  0
    3.2784    2.2934   -0.0625 H   0  0  0  0  0  0  0  0  0  0  0  0
    2.1327    0.7261   -1.5458 H   0  0  0  0  0  0  0  0  0  0  0  0
    1.2381    1.9182   -2.1179 H   0  0  0  0  0  0  0  0  0  0  0  0
   -1.5334    6.2888   -1.4037 H   0  0  0  0  0  0  0  0  0  0  0  0
   -3.6572    7.7386   -2.3219 H   0  0  0  0  0  0  0  0  0  0  0  0
   -2.6833    7.3725    0.6251 H   0  0  0  0  0  0  0  0  0  0  0  0
   -2.7925    9.5696   -1.0564 H   0  0  0  0  0  0  0  0  0  0  0  0
  1 34  1  0  0  0  0
  1 35  1  0  0  0  0
  1 36  1  0  0  0  0
  2  1  1  0  0  0  0
  2  3  1  0  0  0  0
  2 37  1  6  0  0  0
  3 38  1  0  0  0  0
  3 39  1  0  0  0  0
  4  2  1  0  0  0  0
  4  5  1  0  0  0  0
  4 32  1  0  0  0  0
  4 40  1  1  0  0  0
  6  5  1  0  0  0  0
  6 41  1  6  0  0  0
  6  7  1  0  0  0  0
  8  7  1  0  0  0  0
  8  9  1  0  0  0  0
  8 16  1  0  0  0  0
  8 42  1  6  0  0  0
  9 11  1  0  0  0  0
  9 43  1  6  0  0  0
  9 10  1  0  0  0  0
 10 44  1  0  0  0  0
 11 12  1  0  0  0  0
 11 13  1  0  0  0  0
 11 45  1  1  0  0  0
 12 46  1  0  0  0  0
 12 47  1  0  0  0  0
 13 48  1  0  0  0  0
 13 49  1  0  0  0  0
 14 13  1  0  0  0  0
 14 15  1  0  0  0  0
 14 50  1  1  0  0  0
 15 51  1  0  0  0  0
 15 52  1  0  0  0  0
 16 14  1  0  0  0  0
 16 17  1  0  0  0  0
 16 53  1  6  0  0  0
 18 19  1  0  0  0  0
 18 54  1  1  0  0  0
 18 17  1  0  0  0  0
 20 19  1  0  0  0  0
 20 21  1  0  0  0  0
 20 24  1  0  0  0  0
 20 55  1  6  0  0  0
 21 22  1  0  0  0  0
 21 23  1  0  0  0  0
 21 56  1  1  0  0  0
 22 57  1  0  0  0  0
 22 58  1  0  0  0  0
 22 59  1  0  0  0  0
 23 60  1  0  0  0  0
 24 26  1  0  0  0  0
 24 61  1  1  0  0  0
 24 25  1  0  0  0  0
 25 62  1  0  0  0  0
 26 27  1  0  0  0  0
 26 28  1  0  0  0  0
 26 63  1  1  0  0  0
 27 64  1  0  0  0  0
 28 18  1  0  0  0  0
 28 29  1  0  0  0  0
 28 65  1  1  0  0  0
 29 66  1  0  0  0  0
 29 67  1  0  0  0  0
 30  6  1  0  0  0  0
 30 31  1  0  0  0  0
 30 68  1  1  0  0  0
 31 69  1  0  0  0  0
 32 30  1  0  0  0  0
 32 33  1  0  0  0  0
 32 70  1  1  0  0  0
 33 71  1  0  0  0  0
M  END
>  <DRUGBANK_ID>
DB15080

>  <COMMON_NAME>
ELX-02

>  <CAS_NUMBER>
1375073-95-2

$$$$
