
 OpenBabel10282417243D

 86 91  0  0  1  0  0  0  0  0999 V2000
    3.5588    6.1002   10.4847 C   0  0  0  0  0  0  0  0  0  0  0  0
    5.0123    6.4091   10.7452 C   0  0  0  0  0  0  0  0  0  0  0  0
    5.3391    5.9086   12.1500 C   0  0  0  0  0  0  0  0  0  0  0  0
    5.9268    5.8615    9.6806 N   0  0  0  0  0  0  0  0  0  0  0  0
    6.5221    6.8927    8.7934 C   0  0  0  0  0  0  0  0  0  0  0  0
    8.0287    6.9813    8.9786 C   0  0  0  0  0  0  0  0  0  0  0  0
    6.1539    6.7212    7.3230 C   0  0  0  0  0  0  0  0  0  0  0  0
    6.2042    4.4526    9.6400 C   0  0  0  0  0  0  0  0  0  0  0  0
    5.8184    3.6610   10.4757 O   0  0  0  0  0  0  0  0  0  0  0  0
    7.0233    3.8222    8.5608 C   0  0  0  0  0  0  0  0  0  0  0  0
    8.3947    4.0892    8.5750 C   0  0  0  0  0  0  0  0  0  0  0  0
    9.1929    3.7893    7.4786 C   0  0  0  0  0  0  0  0  0  0  0  0
   10.4008    4.3578    7.3703 F   0  0  0  0  0  0  0  0  0  0  0  0
    8.7294    2.9566    6.4838 C   0  0  0  0  0  0  0  0  0  0  0  0
    7.4330    2.4526    6.5951 C   0  0  0  0  0  0  0  0  0  0  0  0
    6.5504    2.8941    7.6153 C   0  0  0  0  0  0  0  0  0  0  0  0
    5.3310    2.2447    7.5510 O   0  0  0  0  0  0  0  0  0  0  0  0
    4.3140    2.5476    8.4054 C   0  0  0  0  0  0  0  0  0  0  0  0
    3.5996    3.7113    8.2316 C   0  0  0  0  0  0  0  0  0  0  0  0
    2.5217    4.0385    8.9651 N   0  0  0  0  0  0  0  0  0  0  0  0
    2.2782    3.2346   10.0116 C   0  0  0  0  0  0  0  0  0  0  0  0
    2.8355    2.0486   10.2284 N   0  0  0  0  0  0  0  0  0  0  0  0
    3.8351    1.6866    9.3948 C   0  0  0  0  0  0  0  0  0  0  0  0
    4.3622    0.4302    9.6788 N   0  0  0  0  0  0  0  0  0  0  0  0
    5.6789   -0.0810    9.5803 C   0  0  0  0  0  0  0  0  0  0  0  0
    5.0904   -1.2941    8.8395 C   0  0  0  0  0  0  0  0  0  0  0  0
    3.7323   -0.8270    9.4102 C   0  0  0  0  0  0  0  0  0  0  0  0
    5.5763   -2.6431    9.3509 C   0  0  0  0  0  0  0  0  0  0  0  0
    6.9982   -2.8676    8.8077 C   0  0  0  0  0  0  0  0  0  0  0  0
    7.0319   -2.7914    7.3273 N   0  0  0  0  0  0  0  0  0  0  0  0
    6.5566   -1.5500    6.7761 C   0  0  0  0  0  0  0  0  0  0  0  0
    5.1676   -1.1956    7.3048 C   0  0  0  0  0  0  0  0  0  0  0  0
    7.2803   -3.8449    6.4088 C   0  0  0  0  0  0  0  0  0  0  0  0
    7.3443   -3.6927    5.2054 O   0  0  0  0  0  0  0  0  0  0  0  0
    7.3356   -5.2200    7.0695 C   0  0  1  0  0  0  0  0  0  0  0  0
    6.0628   -5.2167    7.7662 N   0  0  0  0  0  0  0  0  0  0  0  0
    5.0510   -6.0639    7.1571 C   0  0  1  0  0  0  0  0  0  0  0  0
    5.0594   -6.7919    5.7490 C   0  0  0  0  0  0  0  0  0  0  0  0
    6.3680   -6.5384    5.0843 C   0  0  0  0  0  0  0  0  0  0  0  0
    7.3620   -6.5169    6.2396 C   0  0  2  0  0  0  0  0  0  0  0  0
    6.8960   -7.6523    7.3564 C   0  0  0  0  0  0  0  0  0  0  0  0
    8.0201   -8.1217    7.9402 C   0  0  0  0  0  0  0  0  0  0  0  0
    5.3454   -7.2854    7.9878 C   0  0  0  0  0  0  0  0  0  0  0  0
    3.4917    5.0454   10.6970 H   0  0  0  0  0  0  0  0  0  0  0  0
    3.2500    6.3411    9.4628 H   0  0  0  0  0  0  0  0  0  0  0  0
    2.8468    6.5630   11.1760 H   0  0  0  0  0  0  0  0  0  0  0  0
    5.0837    7.5032   10.7538 H   0  0  0  0  0  0  0  0  0  0  0  0
    5.2627    4.8222   12.2355 H   0  0  0  0  0  0  0  0  0  0  0  0
    6.3483    6.2036   12.4325 H   0  0  0  0  0  0  0  0  0  0  0  0
    4.6180    6.2992   12.8757 H   0  0  0  0  0  0  0  0  0  0  0  0
    6.1300    7.8717    9.1000 H   0  0  0  0  0  0  0  0  0  0  0  0
    8.5035    6.3163    8.2678 H   0  0  0  0  0  0  0  0  0  0  0  0
    8.4574    7.9475    8.7146 H   0  0  0  0  0  0  0  0  0  0  0  0
    8.3213    6.7240   10.0036 H   0  0  0  0  0  0  0  0  0  0  0  0
    5.0797    6.8548    7.1674 H   0  0  0  0  0  0  0  0  0  0  0  0
    6.6894    7.4535    6.7096 H   0  0  0  0  0  0  0  0  0  0  0  0
    6.4172    5.7352    6.9407 H   0  0  0  0  0  0  0  0  0  0  0  0
    8.8455    4.6192    9.4072 H   0  0  0  0  0  0  0  0  0  0  0  0
    9.3909    2.6740    5.6699 H   0  0  0  0  0  0  0  0  0  0  0  0
    7.1072    1.7031    5.8753 H   0  0  0  0  0  0  0  0  0  0  0  0
    3.9439    4.4875    7.5538 H   0  0  0  0  0  0  0  0  0  0  0  0
    1.6849    3.6524   10.8220 H   0  0  0  0  0  0  0  0  0  0  0  0
    6.0534   -0.2771   10.5932 H   0  0  0  0  0  0  0  0  0  0  0  0
    6.4138    0.5134    9.0451 H   0  0  0  0  0  0  0  0  0  0  0  0
    2.8945   -0.8146    8.7056 H   0  0  0  0  0  0  0  0  0  0  0  0
    3.4083   -1.2988   10.3459 H   0  0  0  0  0  0  0  0  0  0  0  0
    4.8722   -3.4191    9.0273 H   0  0  0  0  0  0  0  0  0  0  0  0
    5.5821   -2.6816   10.4483 H   0  0  0  0  0  0  0  0  0  0  0  0
    7.4201   -3.7943    9.2070 H   0  0  0  0  0  0  0  0  0  0  0  0
    7.6640   -2.0787    9.1680 H   0  0  0  0  0  0  0  0  0  0  0  0
    7.3046   -0.8040    7.0502 H   0  0  0  0  0  0  0  0  0  0  0  0
    6.5095   -1.5988    5.6850 H   0  0  0  0  0  0  0  0  0  0  0  0
    4.4186   -1.8641    6.8635 H   0  0  0  0  0  0  0  0  0  0  0  0
    4.9303   -0.1855    6.9621 H   0  0  0  0  0  0  0  0  0  0  0  0
    8.2272   -5.2090    7.7238 H   0  0  0  0  0  0  0  0  0  0  0  0
    6.1530   -5.3049    8.7800 H   0  0  0  0  0  0  0  0  0  0  0  0
    4.1723   -5.4171    7.1723 H   0  0  0  0  0  0  0  0  0  0  0  0
    5.0305   -7.9010    5.8628 H   0  0  0  0  0  0  0  0  0  0  0  0
    4.1641   -6.6241    5.1571 H   0  0  0  0  0  0  0  0  0  0  0  0
    6.6342   -7.3261    4.3681 H   0  0  0  0  0  0  0  0  0  0  0  0
    6.2717   -5.6111    4.5230 H   0  0  0  0  0  0  0  0  0  0  0  0
    8.3728   -6.6734    5.8369 H   0  0  0  0  0  0  0  0  0  0  0  0
    8.5192   -7.4203    8.6268 H   0  0  0  0  0  0  0  0  0  0  0  0
    8.8288   -8.3448    7.2199 H   0  0  0  0  0  0  0  0  0  0  0  0
    5.2727   -7.1700    9.0792 H   0  0  0  0  0  0  0  0  0  0  0  0
    4.4622   -7.9009    7.7344 H   0  0  0  0  0  0  0  0  0  0  0  0
  1  2  1  0  0  0  0
  1 44  1  0  0  0  0
  1 45  1  0  0  0  0
  1 46  1  0  0  0  0
  2  3  1  0  0  0  0
  2  4  1  0  0  0  0
  2 47  1  0  0  0  0
  3 48  1  0  0  0  0
  3 49  1  0  0  0  0
  3 50  1  0  0  0  0
  4  5  1  0  0  0  0
  4  8  1  0  0  0  0
  5  6  1  0  0  0  0
  5  7  1  0  0  0  0
  5 51  1  0  0  0  0
  6 52  1  0  0  0  0
  6 53  1  0  0  0  0
  6 54  1  0  0  0  0
  7 55  1  0  0  0  0
  7 56  1  0  0  0  0
  7 57  1  0  0  0  0
  8  9  2  0  0  0  0
  8 10  1  0  0  0  0
 10 11  2  0  0  0  0
 10 16  1  0  0  0  0
 11 12  1  0  0  0  0
 11 58  1  0  0  0  0
 12 13  1  0  0  0  0
 12 14  2  0  0  0  0
 14 15  1  0  0  0  0
 14 59  1  0  0  0  0
 15 16  2  0  0  0  0
 15 60  1  0  0  0  0
 16 17  1  0  0  0  0
 17 18  1  0  0  0  0
 18 19  2  0  0  0  0
 18 23  1  0  0  0  0
 19 20  1  0  0  0  0
 19 61  1  0  0  0  0
 20 21  2  0  0  0  0
 21 22  1  0  0  0  0
 21 62  1  0  0  0  0
 22 23  2  0  0  0  0
 23 24  1  0  0  0  0
 24 25  1  0  0  0  0
 24 27  1  0  0  0  0
 25 26  1  0  0  0  0
 25 63  1  0  0  0  0
 25 64  1  0  0  0  0
 26 27  1  0  0  0  0
 26 28  1  0  0  0  0
 26 32  1  0  0  0  0
 27 65  1  0  0  0  0
 27 66  1  0  0  0  0
 28 29  1  0  0  0  0
 28 67  1  0  0  0  0
 28 68  1  0  0  0  0
 29 30  1  0  0  0  0
 29 69  1  0  0  0  0
 29 70  1  0  0  0  0
 30 31  1  0  0  0  0
 30 33  1  0  0  0  0
 31 32  1  0  0  0  0
 31 71  1  0  0  0  0
 31 72  1  0  0  0  0
 32 73  1  0  0  0  0
 32 74  1  0  0  0  0
 33 34  2  0  0  0  0
 35 36  1  0  0  0  0
 35 40  1  0  0  0  0
 35 75  1  1  0  0  0
 35 33  1  0  0  0  0
 36 76  1  0  0  0  0
 37 36  1  0  0  0  0
 37 38  1  0  0  0  0
 37 43  1  0  0  0  0
 37 77  1  1  0  0  0
 38 39  1  0  0  0  0
 38 78  1  0  0  0  0
 38 79  1  0  0  0  0
 39 80  1  0  0  0  0
 39 81  1  0  0  0  0
 40 39  1  0  0  0  0
 40 41  1  0  0  0  0
 40 82  1  6  0  0  0
 41 43  1  0  0  0  0
 41 42  2  0  0  0  0
 42 83  1  0  0  0  0
 42 84  1  0  0  0  0
 43 85  1  0  0  0  0
 43 86  1  0  0  0  0
M  END
>  <DRUGBANK_ID>
DB18514

>  <COMMON_NAME>
DSP-5336

>  <CAS_NUMBER>
2412555-70-3

>  <UNII>
VW83Y2JLZ5

>  <SYNONYMS>
BENZAMIDE, 5-FLUORO-2-((4-(7-(((1S,3S,4R)-5-METHYLENE-2-AZABICYCLO(2.2.2)OCT-3-YL)CARBONYL)-2,7-DIAZASPIRO(3.5)NON-2-YL)-5-PYRIMIDINYL)OXY)-N,N-BIS(1-METHYLETHYL)-

$$$$
