LRG
 OpenBabel10282417173D

 42 44  0  0  0  0  0  0  0  0999 V2000
   -2.3403   -4.5130    2.9577 C   0  0  0  0  0  0  0  0  0  0  0  0
   -2.7927   -5.6187    3.6747 C   0  0  0  0  0  0  0  0  0  0  0  0
   -2.3996   -6.9015    3.2970 C   0  0  0  0  0  0  0  0  0  0  0  0
   -1.6061   -7.0868    2.1664 C   0  0  0  0  0  0  0  0  0  0  0  0
   -1.1765   -5.9854    1.4299 C   0  0  0  0  0  0  0  0  0  0  0  0
   -1.5263   -4.6876    1.8298 C   0  0  0  0  0  0  0  0  0  0  0  0
   -0.9692   -3.4896    1.0981 C   0  0  0  0  0  0  0  0  0  0  0  0
    0.5647   -3.4052    1.1722 C   0  0  1  0  0  0  0  0  0  0  0  0
    1.0088   -2.5997   -0.0442 C   0  0  0  0  0  0  0  0  0  0  0  0
    1.5205   -3.3687   -1.0323 O   0  0  0  0  0  0  0  0  0  0  0  0
    0.8925   -1.3902   -0.2180 O   0  0  0  0  0  0  0  0  0  0  0  0
    0.9652   -2.6960    2.3545 O   0  0  0  0  0  0  0  0  0  0  0  0
    0.8059   -3.3299    3.5582 C   0  0  0  0  0  0  0  0  0  0  0  0
    0.9551   -4.7001    3.7773 C   0  0  0  0  0  0  0  0  0  0  0  0
    0.7850   -5.2436    5.0570 C   0  0  0  0  0  0  0  0  0  0  0  0
    0.5135   -2.5016    4.6386 C   0  0  0  0  0  0  0  0  0  0  0  0
    0.4187   -3.0346    5.9258 C   0  0  0  0  0  0  0  0  0  0  0  0
    0.5126   -4.4182    6.1512 C   0  0  0  0  0  0  0  0  0  0  0  0
    0.3493   -4.9489    7.5100 C   0  0  0  0  0  0  0  0  0  0  0  0
   -0.7735   -4.5986    8.2792 C   0  0  0  0  0  0  0  0  0  0  0  0
   -0.8391   -4.9160    9.6354 C   0  0  0  0  0  0  0  0  0  0  0  0
    0.1741   -5.6706   10.2200 C   0  0  0  0  0  0  0  0  0  0  0  0
    1.2599   -6.0910    9.4541 C   0  0  0  0  0  0  0  0  0  0  0  0
    1.3480   -5.7307    8.1079 C   0  0  0  0  0  0  0  0  0  0  0  0
    1.0760   -4.3727    1.1026 H   0  0  0  0  0  0  0  0  0  0  0  0
   -2.5778   -3.5140    3.3191 H   0  0  0  0  0  0  0  0  0  0  0  0
   -3.4339   -5.4762    4.5401 H   0  0  0  0  0  0  0  0  0  0  0  0
   -2.7012   -7.7573    3.8937 H   0  0  0  0  0  0  0  0  0  0  0  0
   -1.3125   -8.0879    1.8639 H   0  0  0  0  0  0  0  0  0  0  0  0
   -0.5210   -6.1426    0.5761 H   0  0  0  0  0  0  0  0  0  0  0  0
   -1.3251   -3.5436    0.0624 H   0  0  0  0  0  0  0  0  0  0  0  0
   -1.3936   -2.5708    1.5260 H   0  0  0  0  0  0  0  0  0  0  0  0
    1.7406   -2.7357   -1.7502 H   0  0  0  0  0  0  0  0  0  0  0  0
    1.1642   -5.3885    2.9676 H   0  0  0  0  0  0  0  0  0  0  0  0
    0.8645   -6.3208    5.1865 H   0  0  0  0  0  0  0  0  0  0  0  0
    0.3498   -1.4380    4.4871 H   0  0  0  0  0  0  0  0  0  0  0  0
    0.2912   -2.3572    6.7684 H   0  0  0  0  0  0  0  0  0  0  0  0
   -1.5959   -4.0503    7.8229 H   0  0  0  0  0  0  0  0  0  0  0  0
   -1.6685   -4.5532   10.2364 H   0  0  0  0  0  0  0  0  0  0  0  0
    0.1181   -5.9292   11.2736 H   0  0  0  0  0  0  0  0  0  0  0  0
    2.0576   -6.6698    9.9113 H   0  0  0  0  0  0  0  0  0  0  0  0
    2.2228   -6.0305    7.5351 H   0  0  0  0  0  0  0  0  0  0  0  0
  1  6  1  0  0  0  0
  1 26  1  0  0  0  0
  2  1  2  0  0  0  0
  2 27  1  0  0  0  0
  3  4  2  0  0  0  0
  3  2  1  0  0  0  0
  3 28  1  0  0  0  0
  4  5  1  0  0  0  0
  4 29  1  0  0  0  0
  5  6  2  0  0  0  0
  5 30  1  0  0  0  0
  6  7  1  0  0  0  0
  7 31  1  0  0  0  0
  7 32  1  0  0  0  0
  8 25  1  6  0  0  0
  8 12  1  0  0  0  0
  8  9  1  0  0  0  0
  8  7  1  0  0  0  0
  9 11  2  0  0  0  0
  9 10  1  0  0  0  0
 10 33  1  0  0  0  0
 12 13  1  0  0  0  0
 13 14  2  0  0  0  0
 14 34  1  0  0  0  0
 15 14  1  0  0  0  0
 15 35  1  0  0  0  0
 16 13  1  0  0  0  0
 16 36  1  0  0  0  0
 17 16  2  0  0  0  0
 17 18  1  0  0  0  0
 17 37  1  0  0  0  0
 18 15  2  0  0  0  0
 19 24  1  0  0  0  0
 19 18  1  0  0  0  0
 20 19  2  0  0  0  0
 20 38  1  0  0  0  0
 21 22  2  0  0  0  0
 21 20  1  0  0  0  0
 21 39  1  0  0  0  0
 22 23  1  0  0  0  0
 22 40  1  0  0  0  0
 23 24  2  0  0  0  0
 23 41  1  0  0  0  0
 24 42  1  0  0  0  0
M  END
>  <DRUGBANK_ID>
DB08121

>  <COMMON_NAME>
(2S)-2-(biphenyl-4-yloxy)-3-phenylpropanoic acid

$$$$
