322
 OpenBabel10282417103D

 28 29  0  0  1  0  0  0  0  0999 V2000
    0.8840    0.0469    0.1894 F   0  0  0  0  0  0  0  0  0  0  0  0
    5.5453    2.4378   -1.7016 O   0  0  0  0  0  0  0  0  0  0  0  0
    6.7924    4.8897   -0.1715 O   0  0  0  0  0  0  0  0  0  0  0  0
    7.5157    0.6110   -2.2677 O   0  0  0  0  0  0  0  0  0  0  0  0
    6.2311   -0.1462   -0.2488 O   0  0  0  0  0  0  0  0  0  0  0  0
    2.3073   -2.3189   -0.0703 O   0  0  0  0  0  0  0  0  0  0  0  0
    4.3173    1.1642   -0.1144 N   0  0  0  0  0  0  0  0  0  0  0  0
    4.2697   -1.1768    0.0085 N   0  0  0  0  0  0  0  0  0  0  0  0
    7.1383    3.5065   -0.2817 C   0  0  1  0  0  0  0  0  0  0  0  0
    5.0375    2.4175   -0.3543 C   0  0  1  0  0  0  0  0  0  0  0  0
    6.2060    2.6940    0.5814 C   0  0  0  0  0  0  0  0  0  0  0  0
    6.8888    2.9736   -1.6952 C   0  0  1  0  0  0  0  0  0  0  0  0
    7.9595    1.9478   -2.1349 C   0  0  0  0  0  0  0  0  0  0  0  0
    5.0108   -0.0387   -0.1351 C   0  0  0  0  0  0  0  0  0  0  0  0
    2.9402    1.1812    0.0621 C   0  0  0  0  0  0  0  0  0  0  0  0
    2.2252    0.0537    0.0855 C   0  0  0  0  0  0  0  0  0  0  0  0
    2.9071   -1.2486   -0.0058 C   0  0  0  0  0  0  0  0  0  0  0  0
    5.9083    5.0340   -0.5496 H   0  0  0  0  0  0  0  0  0  0  0  0
    7.1773    0.3215   -1.3942 H   0  0  0  0  0  0  0  0  0  0  0  0
    4.7819   -2.0444   -0.0308 H   0  0  0  0  0  0  0  0  0  0  0  0
    8.1811    3.4224    0.0358 H   0  0  0  0  0  0  0  0  0  0  0  0
    4.3274    3.2540   -0.2867 H   0  0  0  0  0  0  0  0  0  0  0  0
    6.7132    1.7795    0.8932 H   0  0  0  0  0  0  0  0  0  0  0  0
    5.8772    3.2109    1.4871 H   0  0  0  0  0  0  0  0  0  0  0  0
    6.9180    3.8065   -2.4098 H   0  0  0  0  0  0  0  0  0  0  0  0
    8.3396    2.2325   -3.1207 H   0  0  0  0  0  0  0  0  0  0  0  0
    8.8243    1.9597   -1.4636 H   0  0  0  0  0  0  0  0  0  0  0  0
    2.4456    2.1412    0.1691 H   0  0  0  0  0  0  0  0  0  0  0  0
  1 16  1  0  0  0  0
  2 10  1  0  0  0  0
  2 12  1  0  0  0  0
  3 18  1  0  0  0  0
  4 13  1  0  0  0  0
  4 19  1  0  0  0  0
  5 14  2  0  0  0  0
  6 17  2  0  0  0  0
  7 14  1  0  0  0  0
  7 15  1  0  0  0  0
  8 14  1  0  0  0  0
  8 17  1  0  0  0  0
  8 20  1  0  0  0  0
  9  3  1  0  0  0  0
  9 11  1  0  0  0  0
  9 12  1  0  0  0  0
  9 21  1  1  0  0  0
 10  7  1  0  0  0  0
 10 11  1  0  0  0  0
 10 22  1  1  0  0  0
 11 23  1  0  0  0  0
 11 24  1  0  0  0  0
 12 25  1  6  0  0  0
 12 13  1  0  0  0  0
 13 26  1  0  0  0  0
 13 27  1  0  0  0  0
 15 16  2  0  0  0  0
 15 28  1  0  0  0  0
 16 17  1  0  0  0  0
M  END
>  <DRUGBANK_ID>
DB00322

>  <SECONDARY_ACCESSION_NUMBERS>
APRD00692

>  <COMMON_NAME>
Floxuridine

>  <CAS_NUMBER>
50-91-9

>  <UNII>
039LU44I5M

>  <SYNONYMS>
1-(2-Deoxy-beta-D-ribofuranosyl)-5-fluorouracil; 1-beta-D-2'-Deoxyribofuranosyl-5-flurouracil; 1beta-D-2'-Deoxyribofuranosyl-5-flurouracil; 2'-Deoxy-5-fluorouridine; 5-Fluoro-2-desoxyuridine; 5-fluoro-2'-deoxyuridine; 5-Fluorodeoxyuridine; 5-Fluorouracil 2'-deoxyriboside; 5-Fluorouracil deoxyriboside; 5FDU; beta-5-Fluoro-2'-deoxyuridine; Deoxyfluorouridine; FdU; Floxiridina; Floxuridin; Floxuridine; Floxuridinum; Fluorodeoxyuridine; Fluoruridine deoxyribose

$$$$
