269
 OpenBabel10282417163D

 22 22  0  0  0  0  0  0  0  0999 V2000
    1.4045    2.2616   -2.8355 C   0  0  0  0  0  0  0  0  0  0  0  0
    1.3846    2.9234   -4.0628 C   0  0  0  0  0  0  0  0  0  0  0  0
    1.3786    4.3157   -4.1099 C   0  0  0  0  0  0  0  0  0  0  0  0
    1.3204    5.0473   -2.9272 C   0  0  0  0  0  0  0  0  0  0  0  0
    1.3039    4.3853   -1.7050 C   0  0  0  0  0  0  0  0  0  0  0  0
    1.4203    2.9880   -1.6322 C   0  0  0  0  0  0  0  0  0  0  0  0
    1.6977    2.2595   -0.3280 C   0  0  2  0  0  0  0  0  0  0  0  0
    0.7348    1.2213   -0.1664 O   0  0  0  0  0  0  0  0  0  0  0  0
    1.6932    3.1780    0.9027 C   0  0  0  0  0  0  0  0  0  0  0  0
    2.1052    2.5154    2.2050 C   0  0  0  0  0  0  0  0  0  0  0  0
    3.7900    1.9504    2.1540 Cl  0  0  0  0  0  0  0  0  0  0  0  0
    2.6872    1.7978   -0.4417 H   0  0  0  0  0  0  0  0  0  0  0  0
    1.4318    1.1736   -2.8129 H   0  0  0  0  0  0  0  0  0  0  0  0
    1.4020    2.3504   -4.9872 H   0  0  0  0  0  0  0  0  0  0  0  0
    1.4124    4.8337   -5.0617 H   0  0  0  0  0  0  0  0  0  0  0  0
    1.3106    6.1330   -2.9498 H   0  0  0  0  0  0  0  0  0  0  0  0
    1.2297    4.9972   -0.8093 H   0  0  0  0  0  0  0  0  0  0  0  0
    1.0210    0.6605    0.5727 H   0  0  0  0  0  0  0  0  0  0  0  0
    2.3637    4.0311    0.7389 H   0  0  0  0  0  0  0  0  0  0  0  0
    0.6794    3.5771    1.0393 H   0  0  0  0  0  0  0  0  0  0  0  0
    2.0324    3.2411    3.0204 H   0  0  0  0  0  0  0  0  0  0  0  0
    1.4653    1.6641    2.4468 H   0  0  0  0  0  0  0  0  0  0  0  0
  1  2  2  0  0  0  0
  1  6  1  0  0  0  0
  1 13  1  0  0  0  0
  2  3  1  0  0  0  0
  2 14  1  0  0  0  0
  3  4  2  0  0  0  0
  3 15  1  0  0  0  0
  4  5  1  0  0  0  0
  4 16  1  0  0  0  0
  5  6  2  0  0  0  0
  5 17  1  0  0  0  0
  7  9  1  0  0  0  0
  7 12  1  6  0  0  0
  7  8  1  0  0  0  0
  7  6  1  0  0  0  0
  8 18  1  0  0  0  0
  9 10  1  0  0  0  0
  9 19  1  0  0  0  0
  9 20  1  0  0  0  0
 10 11  1  0  0  0  0
 10 21  1  0  0  0  0
 10 22  1  0  0  0  0
M  END
>  <DRUGBANK_ID>
DB06934

>  <COMMON_NAME>
(1R)-3-chloro-1-phenylpropan-1-ol

>  <UNII>
4GCY8M2PYD

$$$$
