1213
 OpenBabel10282417113D

 12 12  0  0  0  0  0  0  0  0999 V2000
   -1.2487    0.6867   -0.0014 N   0  0  0  0  0  0  0  0  0  0  0  0
   -1.3499   -0.6516    0.0006 N   0  0  0  0  0  0  0  0  0  0  0  0
    0.8399    0.0097   -0.0004 C   0  0  0  0  0  0  0  0  0  0  0  0
    0.0402    1.1323    0.0012 C   0  0  0  0  0  0  0  0  0  0  0  0
    2.3168   -0.0621   -0.0054 C   0  0  0  0  0  0  0  0  0  0  0  0
   -0.0800   -1.0633    0.0014 C   0  0  0  0  0  0  0  0  0  0  0  0
   -2.1028    1.2345   -0.0055 H   0  0  0  0  0  0  0  0  0  0  0  0
    0.2717    2.1876    0.0016 H   0  0  0  0  0  0  0  0  0  0  0  0
    2.6788   -0.6014    0.8756 H   0  0  0  0  0  0  0  0  0  0  0  0
    2.6717   -0.5822   -0.9007 H   0  0  0  0  0  0  0  0  0  0  0  0
    2.7607    0.9387    0.0033 H   0  0  0  0  0  0  0  0  0  0  0  0
    0.1251   -2.1266    0.0021 H   0  0  0  0  0  0  0  0  0  0  0  0
  1  2  1  0  0  0  0
  1  4  1  0  0  0  0
  1  7  1  0  0  0  0
  2  6  2  0  0  0  0
  3  4  2  0  0  0  0
  3  5  1  0  0  0  0
  3  6  1  0  0  0  0
  4  8  1  0  0  0  0
  5  9  1  0  0  0  0
  5 10  1  0  0  0  0
  5 11  1  0  0  0  0
  6 12  1  0  0  0  0
M  END
>  <DRUGBANK_ID>
DB01213

>  <SECONDARY_ACCESSION_NUMBERS>
APRD00985

>  <COMMON_NAME>
Fomepizole

>  <CAS_NUMBER>
7554-65-6

>  <UNII>
83LCM6L2BY

>  <SYNONYMS>
4-methylpyrazol; 4-methylpyrazole; Fomepizol; Fomepizole; Fomepizolum

$$$$
