
 OpenBabel10282417143D

 76 80  0  0  0  0  0  0  0  0999 V2000
    3.0595    3.2191    0.4463 O   0  0  0  0  0  0  0  0  0  0  0  0
    2.3187    2.2668    0.6160 C   0  0  0  0  0  0  0  0  0  0  0  0
    0.9545    2.4010    0.5140 N   0  0  0  0  0  0  0  0  0  0  0  0
   -0.0181    1.3647    0.7340 C   0  0  0  0  0  0  0  0  0  0  0  0
    2.8581    0.8625    0.9499 C   0  0  2  0  0  0  0  0  0  0  0  0
    2.4422   -0.1344   -0.1953 C   0  0  0  0  0  0  0  0  0  0  0  0
    2.8590   -1.5617   -0.0065 C   0  0  0  0  0  0  0  0  0  0  0  0
    4.0301   -1.8184    0.6697 C   0  0  0  0  0  0  0  0  0  0  0  0
    4.3816   -3.1068    1.0168 C   0  0  0  0  0  0  0  0  0  0  0  0
    5.5077   -3.2567    1.7947 C   0  0  0  0  0  0  0  0  0  0  0  0
    5.9362   -4.4999    2.2235 C   0  0  0  0  0  0  0  0  0  0  0  0
    5.2660   -5.6211    1.7603 C   0  0  0  0  0  0  0  0  0  0  0  0
    4.1198   -5.4798    0.9632 C   0  0  0  0  0  0  0  0  0  0  0  0
    3.6276   -4.2078    0.6204 C   0  0  0  0  0  0  0  0  0  0  0  0
    2.4547   -3.9573   -0.1109 C   0  0  0  0  0  0  0  0  0  0  0  0
    2.0676   -2.6430   -0.4110 C   0  0  0  0  0  0  0  0  0  0  0  0
    2.5046    0.5200    2.3654 N   0  0  0  0  0  0  0  0  0  0  0  0
    1.7741   -0.6862    2.7751 C   0  0  0  0  0  0  0  0  0  0  0  0
    2.6096   -1.7255    3.4753 C   0  0  0  0  0  0  0  0  0  0  0  0
    2.5518   -1.4267    4.9375 C   0  0  0  0  0  0  0  0  0  0  0  0
    2.1829   -2.2925    5.7288 O   0  0  0  0  0  0  0  0  0  0  0  0
    2.9809   -0.1502    5.3174 N   0  0  0  0  0  0  0  0  0  0  0  0
    3.8208    0.7006    4.4386 C   0  0  1  0  0  0  0  0  0  0  0  0
    5.1229    0.0813    3.8635 C   0  0  0  0  0  0  0  0  0  0  0  0
    5.9646   -0.7774    4.8464 C   0  0  0  0  0  0  0  0  0  0  0  0
    5.2242   -1.9155    5.5413 C   0  0  0  0  0  0  0  0  0  0  0  0
    7.1447   -1.4623    4.1776 C   0  0  0  0  0  0  0  0  0  0  0  0
    2.9391    1.3746    3.3799 C   0  0  0  0  0  0  0  0  0  0  0  0
    2.5619    2.5286    3.4908 O   0  0  0  0  0  0  0  0  0  0  0  0
    2.4571    0.3676    6.5882 C   0  0  0  0  0  0  0  0  0  0  0  0
    3.4473    0.9802    7.5419 C   0  0  0  0  0  0  0  0  0  0  0  0
    3.6634    0.4602    8.8203 C   0  0  0  0  0  0  0  0  0  0  0  0
    4.5534    1.1037    9.7005 C   0  0  0  0  0  0  0  0  0  0  0  0
    4.7546    0.6758   11.0225 C   0  0  0  0  0  0  0  0  0  0  0  0
    5.6484    1.3554   11.8520 C   0  0  0  0  0  0  0  0  0  0  0  0
    6.3550    2.4512   11.3660 C   0  0  0  0  0  0  0  0  0  0  0  0
    6.1516    2.8776   10.0566 C   0  0  0  0  0  0  0  0  0  0  0  0
    5.2508    2.2356    9.2288 C   0  0  0  0  0  0  0  0  0  0  0  0
    5.0478    2.7506    8.0194 N   0  0  0  0  0  0  0  0  0  0  0  0
    4.1182    2.1600    7.2467 C   0  0  0  0  0  0  0  0  0  0  0  0
    0.6473    3.3452    0.3197 H   0  0  0  0  0  0  0  0  0  0  0  0
   -0.7895    1.6838    1.4245 H   0  0  0  0  0  0  0  0  0  0  0  0
   -0.4072    1.0436   -0.2339 H   0  0  0  0  0  0  0  0  0  0  0  0
    0.4212    0.4997    1.2004 H   0  0  0  0  0  0  0  0  0  0  0  0
    3.9529    0.9787    0.9367 H   0  0  0  0  0  0  0  0  0  0  0  0
    1.3663   -0.1904   -0.3381 H   0  0  0  0  0  0  0  0  0  0  0  0
    2.8146    0.2359   -1.1575 H   0  0  0  0  0  0  0  0  0  0  0  0
    4.6294   -0.9924    1.0312 H   0  0  0  0  0  0  0  0  0  0  0  0
    6.0364   -2.3490    2.0356 H   0  0  0  0  0  0  0  0  0  0  0  0
    6.8047   -4.5857    2.8713 H   0  0  0  0  0  0  0  0  0  0  0  0
    5.6533   -6.6062    1.9993 H   0  0  0  0  0  0  0  0  0  0  0  0
    3.6252   -6.3678    0.5865 H   0  0  0  0  0  0  0  0  0  0  0  0
    1.8351   -4.7856   -0.4396 H   0  0  0  0  0  0  0  0  0  0  0  0
    1.1336   -2.4725   -0.9412 H   0  0  0  0  0  0  0  0  0  0  0  0
    0.9900   -0.3426    3.4648 H   0  0  0  0  0  0  0  0  0  0  0  0
    1.2529   -1.1446    1.9410 H   0  0  0  0  0  0  0  0  0  0  0  0
    2.2261   -2.7329    3.2910 H   0  0  0  0  0  0  0  0  0  0  0  0
    3.6366   -1.7565    3.1576 H   0  0  0  0  0  0  0  0  0  0  0  0
    4.2283    1.5267    4.9981 H   0  0  0  0  0  0  0  0  0  0  0  0
    4.9257   -0.4505    2.9435 H   0  0  0  0  0  0  0  0  0  0  0  0
    5.7466    0.9085    3.4835 H   0  0  0  0  0  0  0  0  0  0  0  0
    6.3489   -0.0982    5.6111 H   0  0  0  0  0  0  0  0  0  0  0  0
    4.7209   -2.5552    4.8085 H   0  0  0  0  0  0  0  0  0  0  0  0
    5.8666   -2.5860    6.1103 H   0  0  0  0  0  0  0  0  0  0  0  0
    4.5423   -1.5186    6.2858 H   0  0  0  0  0  0  0  0  0  0  0  0
    7.7080   -0.8157    3.5063 H   0  0  0  0  0  0  0  0  0  0  0  0
    7.7965   -1.9256    4.9206 H   0  0  0  0  0  0  0  0  0  0  0  0
    6.8006   -2.3249    3.6313 H   0  0  0  0  0  0  0  0  0  0  0  0
    1.6797    1.1007    6.3477 H   0  0  0  0  0  0  0  0  0  0  0  0
    1.9351   -0.4500    7.1019 H   0  0  0  0  0  0  0  0  0  0  0  0
    3.1133   -0.4192    9.1520 H   0  0  0  0  0  0  0  0  0  0  0  0
    4.2068   -0.1768   11.4154 H   0  0  0  0  0  0  0  0  0  0  0  0
    5.7947    1.0300   12.8779 H   0  0  0  0  0  0  0  0  0  0  0  0
    7.0563    2.9852   12.0005 H   0  0  0  0  0  0  0  0  0  0  0  0
    6.6896    3.7418    9.6739 H   0  0  0  0  0  0  0  0  0  0  0  0
    3.9154    2.7316    6.3479 H   0  0  0  0  0  0  0  0  0  0  0  0
  2  1  2  0  0  0  0
  2  3  1  0  0  0  0
  3 41  1  0  0  0  0
  4  3  1  0  0  0  0
  4 42  1  0  0  0  0
  4 43  1  0  0  0  0
  4 44  1  0  0  0  0
  5 17  1  0  0  0  0
  5 45  1  6  0  0  0
  5  6  1  0  0  0  0
  5  2  1  0  0  0  0
  6  7  1  0  0  0  0
  6 46  1  0  0  0  0
  6 47  1  0  0  0  0
  7  8  2  0  0  0  0
  7 16  1  0  0  0  0
  8 48  1  0  0  0  0
  9  8  1  0  0  0  0
  9 10  2  0  0  0  0
 10 11  1  0  0  0  0
 10 49  1  0  0  0  0
 11 12  2  0  0  0  0
 11 50  1  0  0  0  0
 12 13  1  0  0  0  0
 12 51  1  0  0  0  0
 13 52  1  0  0  0  0
 14  9  1  0  0  0  0
 14 13  2  0  0  0  0
 15 14  1  0  0  0  0
 15 53  1  0  0  0  0
 16 15  2  0  0  0  0
 16 54  1  0  0  0  0
 18 17  1  0  0  0  0
 18 19  1  0  0  0  0
 18 55  1  0  0  0  0
 18 56  1  0  0  0  0
 19 20  1  0  0  0  0
 19 57  1  0  0  0  0
 19 58  1  0  0  0  0
 20 21  2  0  0  0  0
 20 22  1  0  0  0  0
 23 22  1  0  0  0  0
 23 59  1  1  0  0  0
 23 24  1  0  0  0  0
 24 25  1  0  0  0  0
 24 60  1  0  0  0  0
 24 61  1  0  0  0  0
 25 26  1  0  0  0  0
 25 27  1  0  0  0  0
 25 62  1  0  0  0  0
 26 63  1  0  0  0  0
 26 64  1  0  0  0  0
 26 65  1  0  0  0  0
 27 66  1  0  0  0  0
 27 67  1  0  0  0  0
 27 68  1  0  0  0  0
 28 17  1  0  0  0  0
 28 23  1  0  0  0  0
 28 29  2  0  0  0  0
 30 22  1  0  0  0  0
 30 31  1  0  0  0  0
 30 69  1  0  0  0  0
 30 70  1  0  0  0  0
 31 32  2  0  0  0  0
 31 40  1  0  0  0  0
 32 71  1  0  0  0  0
 33 32  1  0  0  0  0
 33 34  2  0  0  0  0
 34 35  1  0  0  0  0
 34 72  1  0  0  0  0
 35 36  2  0  0  0  0
 35 73  1  0  0  0  0
 36 37  1  0  0  0  0
 36 74  1  0  0  0  0
 37 75  1  0  0  0  0
 38 33  1  0  0  0  0
 38 37  2  0  0  0  0
 38 39  1  0  0  0  0
 40 39  2  0  0  0  0
 40 76  1  0  0  0  0
M  END
>  <DRUGBANK_ID>
DB04724

>  <COMMON_NAME>
(S)-2-((S)-3-isobutyl-2,5-dioxo-4-quinolin-3-ylmethyl-[1,4]diazepan-1yl)-N-methyl-3-naphtalen-2-yl-propionamide

$$$$
