807
 OpenBabel10282417113D

 47 47  0  0  0  0  0  0  0  0999 V2000
    1.0589   -0.4916   -0.1331 O   0  0  0  0  0  0  0  0  0  0  0  0
    5.1974    0.4504   -5.0344 O   0  0  0  0  0  0  0  0  0  0  0  0
    3.0495   -0.9333    0.7946 O   0  0  0  0  0  0  0  0  0  0  0  0
    1.6225    2.2586   -1.5062 N   0  0  0  0  0  0  0  0  0  0  0  0
    5.5189   -2.2921   -3.4256 N   0  0  0  0  0  0  0  0  0  0  0  0
    0.3263    1.5903   -1.5305 C   0  0  0  0  0  0  0  0  0  0  0  0
    1.9559    3.2856   -2.4865 C   0  0  0  0  0  0  0  0  0  0  0  0
    2.4133    2.1334   -0.2793 C   0  0  0  0  0  0  0  0  0  0  0  0
    0.2386    0.0469   -1.1953 C   0  0  0  0  0  0  0  0  0  0  0  0
    1.8060    4.5493   -1.7246 C   0  0  0  0  0  0  0  0  0  0  0  0
    2.2361    2.8924    0.9627 C   0  0  0  0  0  0  0  0  0  0  0  0
    3.1502   -0.4451   -1.5364 C   0  0  0  0  0  0  0  0  0  0  0  0
    2.4336   -0.6804   -0.2004 C   0  0  0  0  0  0  0  0  0  0  0  0
    4.4689   -0.0957   -4.0191 C   0  0  0  0  0  0  0  0  0  0  0  0
    4.7493   -1.1675   -3.1092 C   0  0  0  0  0  0  0  0  0  0  0  0
    4.1512   -1.2767   -1.8357 C   0  0  0  0  0  0  0  0  0  0  0  0
    3.1994    0.6787   -2.3730 C   0  0  0  0  0  0  0  0  0  0  0  0
    6.4240   -0.1476   -5.3216 C   0  0  0  0  0  0  0  0  0  0  0  0
    3.5228    0.7981   -3.6969 C   0  0  0  0  0  0  0  0  0  0  0  0
    7.5552    0.1163   -4.2900 C   0  0  0  0  0  0  0  0  0  0  0  0
    7.3827   -0.1078   -2.7779 C   0  0  0  0  0  0  0  0  0  0  0  0
    5.9082   -2.6632   -2.5624 H   0  0  0  0  0  0  0  0  0  0  0  0
    6.2576   -2.0596   -4.0589 H   0  0  0  0  0  0  0  0  0  0  0  0
   -0.1660    1.6989   -2.5090 H   0  0  0  0  0  0  0  0  0  0  0  0
   -0.2815    2.1545   -0.8206 H   0  0  0  0  0  0  0  0  0  0  0  0
    3.0111    3.2819   -2.8060 H   0  0  0  0  0  0  0  0  0  0  0  0
    1.4029    3.2163   -3.4384 H   0  0  0  0  0  0  0  0  0  0  0  0
    2.0450    1.2399    0.1299 H   0  0  0  0  0  0  0  0  0  0  0  0
    3.4995    1.9650   -0.3446 H   0  0  0  0  0  0  0  0  0  0  0  0
    0.4092   -0.5910   -2.0640 H   0  0  0  0  0  0  0  0  0  0  0  0
   -0.8018   -0.1300   -0.8809 H   0  0  0  0  0  0  0  0  0  0  0  0
    2.5947    4.5415   -0.9717 H   0  0  0  0  0  0  0  0  0  0  0  0
    1.9909    5.4294   -2.3255 H   0  0  0  0  0  0  0  0  0  0  0  0
    0.8231    4.5542   -1.2499 H   0  0  0  0  0  0  0  0  0  0  0  0
    1.1697    2.9184    1.1568 H   0  0  0  0  0  0  0  0  0  0  0  0
    2.7463    2.2973    1.7358 H   0  0  0  0  0  0  0  0  0  0  0  0
    2.7404    3.8410    0.8712 H   0  0  0  0  0  0  0  0  0  0  0  0
    4.5186   -1.9450   -1.0629 H   0  0  0  0  0  0  0  0  0  0  0  0
    3.7567    1.5534   -1.9702 H   0  0  0  0  0  0  0  0  0  0  0  0
    6.2080   -1.1818   -5.5857 H   0  0  0  0  0  0  0  0  0  0  0  0
    6.7419    0.2798   -6.2801 H   0  0  0  0  0  0  0  0  0  0  0  0
    3.4810    1.7674   -4.2068 H   0  0  0  0  0  0  0  0  0  0  0  0
    8.3926   -0.5069   -4.6115 H   0  0  0  0  0  0  0  0  0  0  0  0
    7.8441    1.1672   -4.3881 H   0  0  0  0  0  0  0  0  0  0  0  0
    7.3320   -1.1706   -2.5404 H   0  0  0  0  0  0  0  0  0  0  0  0
    8.2402    0.2199   -2.1852 H   0  0  0  0  0  0  0  0  0  0  0  0
    6.5262    0.4342   -2.3661 H   0  0  0  0  0  0  0  0  0  0  0  0
  1  9  1  0  0  0  0
  1 13  1  0  0  0  0
  2 14  1  0  0  0  0
  2 18  1  0  0  0  0
  3 13  2  0  0  0  0
  4  6  1  0  0  0  0
  4  7  1  0  0  0  0
  4  8  1  0  0  0  0
  5 15  1  0  0  0  0
  5 22  1  0  0  0  0
  5 23  1  0  0  0  0
  6  9  1  0  0  0  0
  6 24  1  0  0  0  0
  6 25  1  0  0  0  0
  7 10  1  0  0  0  0
  7 26  1  0  0  0  0
  7 27  1  0  0  0  0
  8 11  1  0  0  0  0
  8 28  1  0  0  0  0
  8 29  1  0  0  0  0
  9 30  1  0  0  0  0
  9 31  1  0  0  0  0
 10 32  1  0  0  0  0
 10 33  1  0  0  0  0
 10 34  1  0  0  0  0
 11 35  1  0  0  0  0
 11 36  1  0  0  0  0
 11 37  1  0  0  0  0
 12 13  1  0  0  0  0
 12 16  2  0  0  0  0
 12 17  1  0  0  0  0
 14 15  2  0  0  0  0
 14 19  1  0  0  0  0
 15 16  1  0  0  0  0
 16 38  1  0  0  0  0
 17 19  2  0  0  0  0
 17 39  1  0  0  0  0
 18 20  1  0  0  0  0
 18 40  1  0  0  0  0
 18 41  1  0  0  0  0
 19 42  1  0  0  0  0
 20 21  1  0  0  0  0
 20 43  1  0  0  0  0
 20 44  1  0  0  0  0
 21 45  1  0  0  0  0
 21 46  1  0  0  0  0
 21 47  1  0  0  0  0
M  END
>  <DRUGBANK_ID>
DB00807

>  <SECONDARY_ACCESSION_NUMBERS>
APRD00522

>  <COMMON_NAME>
Proparacaine

>  <CAS_NUMBER>
499-67-2

>  <UNII>
B4OB0JHI1X

>  <SYNONYMS>
Proximetacaina; Proxymetacaine; Proxymetacainum

$$$$
