
 OpenBabel10282417123D

 29 28  0  0  0  0  0  0  0  0999 V2000
    1.0737    0.2626   -0.0964 O   0  0  0  0  0  0  0  0  0  0  0  0
    0.5540    0.2833    1.2353 C   0  0  0  0  0  0  0  0  0  0  0  0
    1.0885   -0.8365    2.1744 C   0  0  0  0  0  0  0  0  0  0  0  0
    2.6241   -0.6682    2.3904 C   0  0  0  0  0  0  0  0  0  0  0  0
    2.9702    0.6087    2.9096 O   0  0  0  0  0  0  0  0  0  0  0  0
    0.4912   -0.6386    3.6112 C   0  0  0  0  0  0  0  0  0  0  0  0
   -0.9299   -0.6690    3.6640 O   0  0  0  0  0  0  0  0  0  0  0  0
    0.6396   -2.1698    1.6689 N   0  0  0  0  0  0  0  0  0  0  0  0
    1.0982   -2.6081    0.3491 C   0  0  0  0  0  0  0  0  0  0  0  0
    2.5959   -2.8019    0.1745 C   0  0  0  0  0  0  0  0  0  0  0  0
    3.2843   -3.9144    1.3990 S   0  0  0  0  0  0  0  0  0  0  0  0
    2.6855   -5.2692    0.7650 O   0  0  0  0  0  0  0  0  0  0  0  0
    4.7154   -3.9097    1.2829 O   0  0  0  0  0  0  0  0  0  0  0  0
    2.6174   -3.7594    2.6812 O   0  0  0  0  0  0  0  0  0  0  0  0
    2.0250    0.0874   -0.0811 H   0  0  0  0  0  0  0  0  0  0  0  0
    0.7947    1.2655    1.6463 H   0  0  0  0  0  0  0  0  0  0  0  0
   -0.5349    0.2252    1.1439 H   0  0  0  0  0  0  0  0  0  0  0  0
    3.0290   -1.4295    3.0626 H   0  0  0  0  0  0  0  0  0  0  0  0
    3.1876   -0.7051    1.4734 H   0  0  0  0  0  0  0  0  0  0  0  0
    2.9019    1.2395    2.1715 H   0  0  0  0  0  0  0  0  0  0  0  0
    0.8594   -1.4218    4.2874 H   0  0  0  0  0  0  0  0  0  0  0  0
    0.8158    0.3197    4.0311 H   0  0  0  0  0  0  0  0  0  0  0  0
   -1.2680    0.0192    3.0702 H   0  0  0  0  0  0  0  0  0  0  0  0
    0.8624   -2.8759    2.3855 H   0  0  0  0  0  0  0  0  0  0  0  0
    0.6043   -3.5602    0.1175 H   0  0  0  0  0  0  0  0  0  0  0  0
    0.7083   -1.9411   -0.4235 H   0  0  0  0  0  0  0  0  0  0  0  0
    2.8436   -3.1900   -0.8157 H   0  0  0  0  0  0  0  0  0  0  0  0
    3.1500   -1.8725    0.1901 H   0  0  0  0  0  0  0  0  0  0  0  0
    1.7481   -5.3623    1.0416 H   0  0  0  0  0  0  0  0  0  0  0  0
  1  2  1  0  0  0  0
  1 15  1  0  0  0  0
  2  3  1  0  0  0  0
  2 16  1  0  0  0  0
  2 17  1  0  0  0  0
  3  4  1  0  0  0  0
  3  6  1  0  0  0  0
  3  8  1  0  0  0  0
  4  5  1  0  0  0  0
  4 18  1  0  0  0  0
  4 19  1  0  0  0  0
  5 20  1  0  0  0  0
  6  7  1  0  0  0  0
  6 21  1  0  0  0  0
  6 22  1  0  0  0  0
  7 23  1  0  0  0  0
  8  9  1  0  0  0  0
  8 24  1  0  0  0  0
  9 10  1  0  0  0  0
  9 25  1  0  0  0  0
  9 26  1  0  0  0  0
 10 11  1  0  0  0  0
 10 27  1  0  0  0  0
 10 28  1  0  0  0  0
 11 12  1  0  0  0  0
 11 13  2  0  0  0  0
 11 14  2  0  0  0  0
 12 29  1  0  0  0  0
M  END
>  <DRUGBANK_ID>
DB02371

>  <SECONDARY_ACCESSION_NUMBERS>
EXPT02328

>  <COMMON_NAME>
2-(2-Hydroxy-1,1-Dihydroxymethyl-Ethylamino)-Ethanesulfonic Acid

>  <CAS_NUMBER>
7365-44-8

>  <UNII>
L173DK6289

$$$$
