
 OpenBabel10282417213D

 29 30  0  0  0  0  0  0  0  0999 V2000
    0.9296    0.0097   -0.0622 C   0  0  0  0  0  0  0  0  0  0  0  0
    0.0975    0.1642   -1.0507 N   0  0  0  0  0  0  0  0  0  0  0  0
    0.3689   -0.2861    1.1400 N   0  0  0  0  0  0  0  0  0  0  0  0
    2.2934    0.0132   -0.1471 N   0  0  0  0  0  0  0  0  0  0  0  0
    3.4137    1.4946   -3.3646 C   0  0  0  0  0  0  0  0  0  0  0  0
    4.4764    0.6549   -3.6812 C   0  0  0  0  0  0  0  0  0  0  0  0
    4.8441   -0.3632   -2.8029 C   0  0  0  0  0  0  0  0  0  0  0  0
    4.1649   -0.5238   -1.5923 C   0  0  0  0  0  0  0  0  0  0  0  0
    3.0825    0.3047   -1.2698 C   0  0  0  0  0  0  0  0  0  0  0  0
    2.7323    1.3249   -2.1622 C   0  0  0  0  0  0  0  0  0  0  0  0
    0.9332   -0.3364    2.4197 C   0  0  0  0  0  0  0  0  0  0  0  0
    1.9936    0.4949    2.7932 C   0  0  0  0  0  0  0  0  0  0  0  0
    2.6072    0.3655    4.0362 C   0  0  0  0  0  0  0  0  0  0  0  0
    2.1339   -0.5733    4.9466 C   0  0  0  0  0  0  0  0  0  0  0  0
    1.0512   -1.3836    4.6102 C   0  0  0  0  0  0  0  0  0  0  0  0
    0.4748   -1.2881    3.3407 C   0  0  0  0  0  0  0  0  0  0  0  0
    0.6378    0.2641   -1.9115 H   0  0  0  0  0  0  0  0  0  0  0  0
   -0.6433   -0.3103    1.1079 H   0  0  0  0  0  0  0  0  0  0  0  0
    2.7951   -0.4031    0.6272 H   0  0  0  0  0  0  0  0  0  0  0  0
    3.0945    2.2684   -4.0569 H   0  0  0  0  0  0  0  0  0  0  0  0
    5.0133    0.7916   -4.6156 H   0  0  0  0  0  0  0  0  0  0  0  0
    5.6402   -1.0515   -3.0750 H   0  0  0  0  0  0  0  0  0  0  0  0
    4.4621   -1.3308   -0.9261 H   0  0  0  0  0  0  0  0  0  0  0  0
    1.9100    1.9965   -1.9231 H   0  0  0  0  0  0  0  0  0  0  0  0
    2.3411    1.2730    2.1177 H   0  0  0  0  0  0  0  0  0  0  0  0
    3.4435    1.0101    4.2900 H   0  0  0  0  0  0  0  0  0  0  0  0
    2.6071   -0.6688    5.9197 H   0  0  0  0  0  0  0  0  0  0  0  0
    0.6610   -2.0944    5.3341 H   0  0  0  0  0  0  0  0  0  0  0  0
   -0.3181   -1.9825    3.0682 H   0  0  0  0  0  0  0  0  0  0  0  0
  2  1  2  0  0  0  0
  2 17  1  0  0  0  0
  3  1  1  0  0  0  0
  3 11  1  0  0  0  0
  3 18  1  0  0  0  0
  4  1  1  0  0  0  0
  4 19  1  0  0  0  0
  5 20  1  0  0  0  0
  6  5  1  0  0  0  0
  6 21  1  0  0  0  0
  7  6  2  0  0  0  0
  7 22  1  0  0  0  0
  8  7  1  0  0  0  0
  8 23  1  0  0  0  0
  9  4  1  0  0  0  0
  9  8  2  0  0  0  0
 10  5  2  0  0  0  0
 10  9  1  0  0  0  0
 10 24  1  0  0  0  0
 11 12  1  0  0  0  0
 12 13  2  0  0  0  0
 12 25  1  0  0  0  0
 13 14  1  0  0  0  0
 13 26  1  0  0  0  0
 14 15  2  0  0  0  0
 14 27  1  0  0  0  0
 15 16  1  0  0  0  0
 15 28  1  0  0  0  0
 16 11  2  0  0  0  0
 16 29  1  0  0  0  0
M  END
>  <DRUGBANK_ID>
DB14191

>  <COMMON_NAME>
Diphenylguanidine

>  <CAS_NUMBER>
102-06-7

>  <UNII>
6MRZ85RNHQ

>  <SYNONYMS>
1,3-diphenylguanidine; DPG; DPG vulcanizer; Melaniline; N,N'-diphenylguanidine; s-Diphenylguanidine

$$$$
