AL9
 OpenBabel10282417133D

 36 37  0  0  0  0  0  0  0  0999 V2000
    0.1336    1.2732   -0.0021 C   0  0  0  0  0  0  0  0  0  0  0  0
    1.9783   -3.5860    1.2002 C   0  0  0  0  0  0  0  0  0  0  0  0
    1.3335   -3.9544    2.4914 C   0  0  0  0  0  0  0  0  0  0  0  0
    1.2250   -5.3005    2.8291 C   0  0  0  0  0  0  0  0  0  0  0  0
    0.6087   -5.6655    4.0167 C   0  0  0  0  0  0  0  0  0  0  0  0
    0.0856   -4.6918    4.8709 C   0  0  0  0  0  0  0  0  0  0  0  0
    0.1949   -3.3421    4.5333 C   0  0  0  0  0  0  0  0  0  0  0  0
    0.7834   -2.9733    3.3287 C   0  0  0  0  0  0  0  0  0  0  0  0
   -0.9547    3.2331   -1.2992 O   0  0  0  0  0  0  0  0  0  0  0  0
   -0.9862    3.2652    1.2473 O   0  0  0  0  0  0  0  0  0  0  0  0
    1.1139    3.8529   -0.0356 N   0  0  0  0  0  0  0  0  0  0  0  0
   -0.3479    2.9847   -0.0199 S   0  0  0  0  0  0  0  0  0  0  0  0
    1.4067    0.7503   -0.0125 C   0  0  0  0  0  0  0  0  0  0  0  0
    1.4063   -0.6519   -0.1114 C   0  0  0  0  0  0  0  0  0  0  0  0
    0.1416   -1.2054   -0.0708 C   0  0  0  0  0  0  0  0  0  0  0  0
   -1.0576    0.0287   -0.0058 S   0  0  0  0  0  0  0  0  0  0  0  0
   -0.3370   -2.9322   -0.0936 S   0  0  0  0  0  0  0  0  0  0  0  0
   -1.1280   -3.1760    1.0846 O   0  0  0  0  0  0  0  0  0  0  0  0
   -0.8588   -3.1944   -1.4178 O   0  0  0  0  0  0  0  0  0  0  0  0
    1.1244   -3.8129    0.0223 N   0  0  0  0  0  0  0  0  0  0  0  0
   -0.5681   -4.9507    6.0443 O   0  0  0  0  0  0  0  0  0  0  0  0
   -0.7810   -6.3272    6.3355 C   0  0  0  0  0  0  0  0  0  0  0  0
    2.8998   -4.1722    1.0825 H   0  0  0  0  0  0  0  0  0  0  0  0
    2.3375   -2.5616    1.2686 H   0  0  0  0  0  0  0  0  0  0  0  0
    1.6002   -6.0684    2.1580 H   0  0  0  0  0  0  0  0  0  0  0  0
    0.5523   -6.7231    4.2419 H   0  0  0  0  0  0  0  0  0  0  0  0
   -0.1974   -2.5746    5.1954 H   0  0  0  0  0  0  0  0  0  0  0  0
    0.7541   -1.9281    3.0245 H   0  0  0  0  0  0  0  0  0  0  0  0
    1.6461    3.6527   -0.8835 H   0  0  0  0  0  0  0  0  0  0  0  0
    0.9208    4.8529    0.0436 H   0  0  0  0  0  0  0  0  0  0  0  0
    2.2993    1.3603    0.0066 H   0  0  0  0  0  0  0  0  0  0  0  0
    2.3110   -1.2339   -0.1937 H   0  0  0  0  0  0  0  0  0  0  0  0
    0.9297   -4.8040   -0.1277 H   0  0  0  0  0  0  0  0  0  0  0  0
   -1.3538   -6.8227    5.5422 H   0  0  0  0  0  0  0  0  0  0  0  0
    0.1747   -6.8347    6.5045 H   0  0  0  0  0  0  0  0  0  0  0  0
   -1.3644   -6.3929    7.2564 H   0  0  0  0  0  0  0  0  0  0  0  0
  1 12  1  0  0  0  0
  1 13  2  0  0  0  0
  1 16  1  0  0  0  0
  2  3  1  0  0  0  0
  2 20  1  0  0  0  0
  2 23  1  0  0  0  0
  2 24  1  0  0  0  0
  3  4  2  0  0  0  0
  3  8  1  0  0  0  0
  4  5  1  0  0  0  0
  4 25  1  0  0  0  0
  5  6  2  0  0  0  0
  5 26  1  0  0  0  0
  6  7  1  0  0  0  0
  6 21  1  0  0  0  0
  7  8  2  0  0  0  0
  7 27  1  0  0  0  0
  8 28  1  0  0  0  0
  9 12  2  0  0  0  0
 10 12  2  0  0  0  0
 11 12  1  0  0  0  0
 11 29  1  0  0  0  0
 11 30  1  0  0  0  0
 13 14  1  0  0  0  0
 13 31  1  0  0  0  0
 14 15  2  0  0  0  0
 14 32  1  0  0  0  0
 15 16  1  0  0  0  0
 15 17  1  0  0  0  0
 17 18  2  0  0  0  0
 17 19  2  0  0  0  0
 17 20  1  0  0  0  0
 20 33  1  0  0  0  0
 21 22  1  0  0  0  0
 22 34  1  0  0  0  0
 22 35  1  0  0  0  0
 22 36  1  0  0  0  0
M  END
>  <DRUGBANK_ID>
DB03526

>  <SECONDARY_ACCESSION_NUMBERS>
EXPT00493

>  <COMMON_NAME>
AL5927

$$$$
