
 OpenBabel10282417133D

 77 80  0  0  0  0  0  0  0  0999 V2000
    1.4330   -0.1848    0.1842 C   0  0  0  0  0  0  0  0  0  0  0  0
    0.6014   -1.2765    0.0774 C   0  0  0  0  0  0  0  0  0  0  0  0
   -0.7573   -1.0591    0.0210 C   0  0  0  0  0  0  0  0  0  0  0  0
   -1.3719    0.2294   -0.0079 C   0  0  0  0  0  0  0  0  0  0  0  0
   -0.5310    1.3131    0.1379 C   0  0  0  0  0  0  0  0  0  0  0  0
    0.8529    1.0994    0.2368 C   0  0  0  0  0  0  0  0  0  0  0  0
   -2.8926    0.3940   -0.2188 C   0  0  0  0  0  0  0  0  0  0  0  0
   -3.5476    0.8796    0.8714 F   0  0  0  0  0  0  0  0  0  0  0  0
   -3.2652    1.1243   -1.2948 F   0  0  0  0  0  0  0  0  0  0  0  0
   -3.5663   -1.2652   -0.4713 P   0  0  0  0  0  0  0  0  0  0  0  0
   -2.8566   -1.9804   -1.5867 O   0  0  0  0  0  0  0  0  0  0  0  0
   -3.1315   -1.7668    1.0370 O   0  0  0  0  0  0  0  0  0  0  0  0
   -4.9021   -2.1033   -0.2749 O   0  0  0  0  0  0  0  0  0  0  0  0
    2.9199   -0.4192    0.2650 C   0  0  0  0  0  0  0  0  0  0  0  0
    3.7246   -0.0174   -0.9692 C   0  0  1  0  0  0  0  0  0  0  0  0
    3.5465    1.4055   -1.4457 C   0  0  0  0  0  0  0  0  0  0  0  0
    4.3640    2.4063   -0.9541 N   0  0  0  0  0  0  0  0  0  0  0  0
    2.5879    1.5413   -2.2030 O   0  0  0  0  0  0  0  0  0  0  0  0
    5.1277   -0.3492   -0.8573 N   0  0  0  0  0  0  0  0  0  0  0  0
    5.8304   -1.0152   -1.8208 C   0  0  0  0  0  0  0  0  0  0  0  0
    7.0426   -1.1555   -1.6900 O   0  0  0  0  0  0  0  0  0  0  0  0
    5.0685   -1.5566   -3.0100 C   0  0  0  0  0  0  0  0  0  0  0  0
    4.1635    3.8713   -1.1788 C   0  0  2  0  0  0  0  0  0  0  0  0
    2.6958    4.2929   -1.4259 C   0  0  0  0  0  0  0  0  0  0  0  0
    2.2909    5.5698   -1.2001 N   0  0  0  0  0  0  0  0  0  0  0  0
    1.8278    3.5568   -1.9137 O   0  0  0  0  0  0  0  0  0  0  0  0
    3.2130    6.6711   -1.0588 C   0  0  0  0  0  0  0  0  0  0  0  0
    4.1565    6.8652   -2.2188 C   0  0  0  0  0  0  0  0  0  0  0  0
    0.8555    5.8028   -1.3848 C   0  0  0  0  0  0  0  0  0  0  0  0
    0.1998    6.3909   -0.1780 C   0  0  0  0  0  0  0  0  0  0  0  0
    5.3648    5.9583   -2.1456 C   0  0  0  0  0  0  0  0  0  0  0  0
    5.0601    4.4570   -2.2855 C   0  0  0  0  0  0  0  0  0  0  0  0
    0.5861    7.6516    0.2771 C   0  0  0  0  0  0  0  0  0  0  0  0
   -0.0505    8.2765    1.3125 C   0  0  0  0  0  0  0  0  0  0  0  0
   -1.1521    7.6683    1.8798 C   0  0  0  0  0  0  0  0  0  0  0  0
   -1.5830    6.4129    1.4147 C   0  0  0  0  0  0  0  0  0  0  0  0
   -0.8704    5.7394    0.4368 C   0  0  0  0  0  0  0  0  0  0  0  0
   -1.8590    8.3370    2.9459 C   0  0  0  0  0  0  0  0  0  0  0  0
   -2.3499    9.6373    2.7769 C   0  0  0  0  0  0  0  0  0  0  0  0
   -3.1577   10.1969    3.7552 C   0  0  0  0  0  0  0  0  0  0  0  0
   -3.4736    9.4573    4.8950 C   0  0  0  0  0  0  0  0  0  0  0  0
   -2.9506    8.1791    5.0824 C   0  0  0  0  0  0  0  0  0  0  0  0
   -2.0996    7.6425    4.1335 C   0  0  0  0  0  0  0  0  0  0  0  0
    0.9618   -2.3023    0.0229 H   0  0  0  0  0  0  0  0  0  0  0  0
   -1.2996   -2.0011   -0.0215 H   0  0  0  0  0  0  0  0  0  0  0  0
   -0.9229    2.3242    0.1440 H   0  0  0  0  0  0  0  0  0  0  0  0
    1.4865    1.9781    0.2948 H   0  0  0  0  0  0  0  0  0  0  0  0
   -3.0659   -1.0043    1.6667 H   0  0  0  0  0  0  0  0  0  0  0  0
   -4.4822   -3.0108   -0.3524 H   0  0  0  0  0  0  0  0  0  0  0  0
    3.2903    0.0440    1.1808 H   0  0  0  0  0  0  0  0  0  0  0  0
    3.0801   -1.5031    0.3913 H   0  0  0  0  0  0  0  0  0  0  0  0
    3.2972   -0.5860   -1.8006 H   0  0  0  0  0  0  0  0  0  0  0  0
    5.3250    2.1224   -0.7949 H   0  0  0  0  0  0  0  0  0  0  0  0
    5.6722    0.0286   -0.0928 H   0  0  0  0  0  0  0  0  0  0  0  0
    4.2737   -2.2340   -2.6786 H   0  0  0  0  0  0  0  0  0  0  0  0
    4.6378   -0.7353   -3.5931 H   0  0  0  0  0  0  0  0  0  0  0  0
    5.7427   -2.1217   -3.6549 H   0  0  0  0  0  0  0  0  0  0  0  0
    4.4780    4.3083   -0.2181 H   0  0  0  0  0  0  0  0  0  0  0  0
    3.7161    6.5874   -0.0905 H   0  0  0  0  0  0  0  0  0  0  0  0
    2.6606    7.5925   -1.0971 H   0  0  0  0  0  0  0  0  0  0  0  0
    4.5051    7.9068   -2.1678 H   0  0  0  0  0  0  0  0  0  0  0  0
    3.6235    6.7608   -3.1709 H   0  0  0  0  0  0  0  0  0  0  0  0
    0.7028    6.4181   -2.2746 H   0  0  0  0  0  0  0  0  0  0  0  0
    0.3048    4.8738   -1.5954 H   0  0  0  0  0  0  0  0  0  0  0  0
    5.8949    6.1529   -1.2043 H   0  0  0  0  0  0  0  0  0  0  0  0
    6.0420    6.2645   -2.9516 H   0  0  0  0  0  0  0  0  0  0  0  0
    6.0292    3.9460   -2.2917 H   0  0  0  0  0  0  0  0  0  0  0  0
    4.5936    4.2826   -3.2610 H   0  0  0  0  0  0  0  0  0  0  0  0
    1.3721    8.2325   -0.1620 H   0  0  0  0  0  0  0  0  0  0  0  0
    0.3083    9.2517    1.6244 H   0  0  0  0  0  0  0  0  0  0  0  0
   -2.5011    5.9759    1.8013 H   0  0  0  0  0  0  0  0  0  0  0  0
   -1.1873    4.7433    0.1342 H   0  0  0  0  0  0  0  0  0  0  0  0
   -2.1318   10.1965    1.8680 H   0  0  0  0  0  0  0  0  0  0  0  0
   -3.5691   11.1902    3.6078 H   0  0  0  0  0  0  0  0  0  0  0  0
   -4.1346    9.8784    5.6441 H   0  0  0  0  0  0  0  0  0  0  0  0
   -3.2208    7.5851    5.9484 H   0  0  0  0  0  0  0  0  0  0  0  0
   -1.6422    6.6673    4.2921 H   0  0  0  0  0  0  0  0  0  0  0  0
  1  2  1  0  0  0  0
  1  6  2  0  0  0  0
  1 14  1  0  0  0  0
  2  3  2  0  0  0  0
  2 44  1  0  0  0  0
  3  4  1  0  0  0  0
  3 45  1  0  0  0  0
  4  5  2  0  0  0  0
  5  6  1  0  0  0  0
  5 46  1  0  0  0  0
  6 47  1  0  0  0  0
  7  4  1  0  0  0  0
  7  8  1  0  0  0  0
  7  9  1  0  0  0  0
  7 10  1  0  0  0  0
 11 10  2  0  0  0  0
 12 10  1  0  0  0  0
 12 48  1  0  0  0  0
 13 10  1  0  0  0  0
 13 49  1  0  0  0  0
 14 15  1  0  0  0  0
 14 50  1  0  0  0  0
 14 51  1  0  0  0  0
 15 16  1  0  0  0  0
 15 19  1  0  0  0  0
 15 52  1  6  0  0  0
 16 17  1  0  0  0  0
 16 18  2  0  0  0  0
 17 53  1  0  0  0  0
 19 54  1  0  0  0  0
 20 19  1  0  0  0  0
 20 21  2  0  0  0  0
 20 22  1  0  0  0  0
 22 55  1  0  0  0  0
 22 56  1  0  0  0  0
 22 57  1  0  0  0  0
 23 17  1  0  0  0  0
 23 24  1  0  0  0  0
 23 32  1  0  0  0  0
 23 58  1  1  0  0  0
 24 25  1  0  0  0  0
 24 26  2  0  0  0  0
 27 25  1  0  0  0  0
 27 28  1  0  0  0  0
 27 59  1  0  0  0  0
 27 60  1  0  0  0  0
 28 31  1  0  0  0  0
 28 61  1  0  0  0  0
 28 62  1  0  0  0  0
 29 25  1  0  0  0  0
 29 30  1  0  0  0  0
 29 63  1  0  0  0  0
 29 64  1  0  0  0  0
 30 33  1  0  0  0  0
 30 37  2  0  0  0  0
 31 32  1  0  0  0  0
 31 65  1  0  0  0  0
 31 66  1  0  0  0  0
 32 67  1  0  0  0  0
 32 68  1  0  0  0  0
 33 34  2  0  0  0  0
 33 69  1  0  0  0  0
 34 35  1  0  0  0  0
 34 70  1  0  0  0  0
 35 36  2  0  0  0  0
 35 38  1  0  0  0  0
 36 37  1  0  0  0  0
 36 71  1  0  0  0  0
 37 72  1  0  0  0  0
 38 39  1  0  0  0  0
 38 43  2  0  0  0  0
 39 40  2  0  0  0  0
 39 73  1  0  0  0  0
 40 41  1  0  0  0  0
 40 74  1  0  0  0  0
 41 42  2  0  0  0  0
 41 75  1  0  0  0  0
 42 43  1  0  0  0  0
 42 76  1  0  0  0  0
 43 77  1  0  0  0  0
M  END
>  <DRUGBANK_ID>
DB03591

>  <SECONDARY_ACCESSION_NUMBERS>
EXPT00322

>  <COMMON_NAME>
RU82209

$$$$
