2S3
 OpenBabel10282417163D

 31 32  0  0  0  0  0  0  0  0999 V2000
    0.8998    0.1704    0.2156 O   0  0  0  0  0  0  0  0  0  0  0  0
    0.2324    1.1306   -0.4511 C   0  0  0  0  0  0  0  0  0  0  0  0
    0.8706    1.9671   -1.1005 O   0  0  0  0  0  0  0  0  0  0  0  0
   -1.2931    1.0072   -0.4118 C   0  0  1  0  0  0  0  0  0  0  0  0
   -1.7350   -0.2486   -1.2131 C   0  0  0  0  0  0  0  0  0  0  0  0
   -1.1751   -1.6284   -0.7737 C   0  0  0  0  0  0  0  0  0  0  0  0
   -1.4969   -1.9733    0.6510 C   0  0  0  0  0  0  0  0  0  0  0  0
   -1.8800    1.1722    1.0010 C   0  0  0  0  0  0  0  0  0  0  0  0
   -2.0144    2.3906    1.7495 C   0  0  0  0  0  0  0  0  0  0  0  0
   -1.8627    3.7459    1.4368 C   0  0  0  0  0  0  0  0  0  0  0  0
   -2.2680    4.6839    2.3951 C   0  0  0  0  0  0  0  0  0  0  0  0
   -2.7500    4.2981    3.6518 C   0  0  0  0  0  0  0  0  0  0  0  0
   -2.8308    2.9649    4.0140 C   0  0  0  0  0  0  0  0  0  0  0  0
   -2.4699    2.0631    3.0325 C   0  0  0  0  0  0  0  0  0  0  0  0
   -2.5303    0.7131    3.0928 N   0  0  0  0  0  0  0  0  0  0  0  0
   -2.5989    0.2980    1.8004 C   0  0  0  0  0  0  0  0  0  0  0  0
   -1.6528    1.8736   -0.9939 H   0  0  0  0  0  0  0  0  0  0  0  0
    1.8476    0.2829   -0.0048 H   0  0  0  0  0  0  0  0  0  0  0  0
   -2.8332   -0.2760   -1.2312 H   0  0  0  0  0  0  0  0  0  0  0  0
   -1.4287   -0.1175   -2.2627 H   0  0  0  0  0  0  0  0  0  0  0  0
   -1.6094   -2.4104   -1.4022 H   0  0  0  0  0  0  0  0  0  0  0  0
   -0.0934   -1.6687   -0.9038 H   0  0  0  0  0  0  0  0  0  0  0  0
   -2.5882   -1.9948    0.6901 H   0  0  0  0  0  0  0  0  0  0  0  0
   -1.1867   -2.9273    1.0655 H   0  0  0  0  0  0  0  0  0  0  0  0
   -0.9960   -1.2452    1.2940 H   0  0  0  0  0  0  0  0  0  0  0  0
   -1.5312    4.0551    0.4505 H   0  0  0  0  0  0  0  0  0  0  0  0
   -2.2280    5.7378    2.1441 H   0  0  0  0  0  0  0  0  0  0  0  0
   -3.0805    5.0424    4.3668 H   0  0  0  0  0  0  0  0  0  0  0  0
   -3.2136    2.6252    4.9700 H   0  0  0  0  0  0  0  0  0  0  0  0
   -2.8127    0.1576    3.8889 H   0  0  0  0  0  0  0  0  0  0  0  0
   -3.0474   -0.6618    1.7060 H   0  0  0  0  0  0  0  0  0  0  0  0
  1  2  1  0  0  0  0
  1 18  1  0  0  0  0
  2  3  2  0  0  0  0
  2  4  1  0  0  0  0
  4  5  1  0  0  0  0
  4  8  1  0  0  0  0
  4 17  1  6  0  0  0
  5  6  1  0  0  0  0
  5 19  1  0  0  0  0
  5 20  1  0  0  0  0
  6  7  1  0  0  0  0
  6 21  1  0  0  0  0
  6 22  1  0  0  0  0
  7 23  1  0  0  0  0
  7 24  1  0  0  0  0
  7 25  1  0  0  0  0
  8  9  1  0  0  0  0
  8 16  2  0  0  0  0
  9 10  2  0  0  0  0
  9 14  1  0  0  0  0
 10 11  1  0  0  0  0
 10 26  1  0  0  0  0
 11 12  2  0  0  0  0
 11 27  1  0  0  0  0
 12 13  1  0  0  0  0
 12 28  1  0  0  0  0
 13 14  2  0  0  0  0
 13 29  1  0  0  0  0
 14 15  1  0  0  0  0
 15 16  1  0  0  0  0
 15 30  1  0  0  0  0
 16 31  1  0  0  0  0
M  END
>  <DRUGBANK_ID>
DB06981

>  <COMMON_NAME>
(2S)-2-(1H-indol-3-yl)pentanoic acid

$$$$
