MTH
 OpenBabel10282417133D

 36 38  0  0  0  0  0  0  0  0999 V2000
    1.1042    0.0714   -0.0791 C   0  0  0  0  0  0  0  0  0  0  0  0
    0.4296    0.8075   -1.5985 S   0  0  0  0  0  0  0  0  0  0  0  0
    1.1136    2.5049   -1.5050 C   0  0  0  0  0  0  0  0  0  0  0  0
    0.5844    3.3204   -0.3165 C   0  0  1  0  0  0  0  0  0  0  0  0
    1.7067    4.0455    0.2516 O   0  0  0  0  0  0  0  0  0  0  0  0
    0.3014    5.6635   -0.7850 C   0  0  2  0  0  0  0  0  0  0  0  0
   -0.5064    6.8105   -0.5392 O   0  0  0  0  0  0  0  0  0  0  0  0
   -0.4825    4.3603   -0.6959 C   0  0  2  0  0  0  0  0  0  0  0  0
   -1.4894    4.4717    0.3254 O   0  0  0  0  0  0  0  0  0  0  0  0
    1.3790    5.4474    0.2740 C   0  0  2  0  0  0  0  0  0  0  0  0
    2.5780    6.2454    0.0733 N   0  0  0  0  0  0  0  0  0  0  0  0
    3.4310    6.2039   -1.0066 C   0  0  0  0  0  0  0  0  0  0  0  0
    4.3668    7.2036   -0.8442 C   0  0  0  0  0  0  0  0  0  0  0  0
    4.0909    7.8611    0.3842 C   0  0  0  0  0  0  0  0  0  0  0  0
    4.6467    8.9236    1.1046 C   0  0  0  0  0  0  0  0  0  0  0  0
    5.7441    9.6231    0.6555 N   0  0  0  0  0  0  0  0  0  0  0  0
    4.0909    9.2781    2.2783 N   0  0  0  0  0  0  0  0  0  0  0  0
    3.0114    8.5886    2.7030 C   0  0  0  0  0  0  0  0  0  0  0  0
    2.3860    7.5611    2.0983 N   0  0  0  0  0  0  0  0  0  0  0  0
    2.9774    7.2398    0.9367 C   0  0  0  0  0  0  0  0  0  0  0  0
    0.2081    2.6739    0.4816 H   0  0  0  0  0  0  0  0  0  0  0  0
    0.7378    5.7598   -1.7852 H   0  0  0  0  0  0  0  0  0  0  0  0
   -1.0097    4.1207   -1.6245 H   0  0  0  0  0  0  0  0  0  0  0  0
    0.9876    5.6726    1.2719 H   0  0  0  0  0  0  0  0  0  0  0  0
    0.7727   -0.9705   -0.0256 H   0  0  0  0  0  0  0  0  0  0  0  0
    0.7302    0.5776    0.8137 H   0  0  0  0  0  0  0  0  0  0  0  0
    2.1971    0.0817   -0.0817 H   0  0  0  0  0  0  0  0  0  0  0  0
    2.2076    2.4438   -1.5012 H   0  0  0  0  0  0  0  0  0  0  0  0
    0.8389    2.9933   -2.4468 H   0  0  0  0  0  0  0  0  0  0  0  0
   -1.0323    6.6400    0.2648 H   0  0  0  0  0  0  0  0  0  0  0  0
   -1.0715    4.5670    1.1977 H   0  0  0  0  0  0  0  0  0  0  0  0
    3.3005    5.4894   -1.8083 H   0  0  0  0  0  0  0  0  0  0  0  0
    5.1668    7.4477   -1.5316 H   0  0  0  0  0  0  0  0  0  0  0  0
    6.1831    9.3808   -0.2159 H   0  0  0  0  0  0  0  0  0  0  0  0
    6.0917   10.3747    1.2291 H   0  0  0  0  0  0  0  0  0  0  0  0
    2.5931    8.9025    3.6541 H   0  0  0  0  0  0  0  0  0  0  0  0
  1  2  1  0  0  0  0
  1 25  1  0  0  0  0
  1 26  1  0  0  0  0
  1 27  1  0  0  0  0
  2  3  1  0  0  0  0
  3 28  1  0  0  0  0
  3 29  1  0  0  0  0
  4  3  1  0  0  0  0
  4  5  1  0  0  0  0
  4  8  1  0  0  0  0
  4 21  1  1  0  0  0
  5 10  1  0  0  0  0
  6  7  1  0  0  0  0
  6  8  1  0  0  0  0
  6 10  1  0  0  0  0
  6 22  1  6  0  0  0
  7 30  1  0  0  0  0
  8  9  1  0  0  0  0
  8 23  1  6  0  0  0
  9 31  1  0  0  0  0
 10 24  1  1  0  0  0
 10 11  1  0  0  0  0
 11 12  1  0  0  0  0
 11 20  1  0  0  0  0
 12 13  2  0  0  0  0
 12 32  1  0  0  0  0
 13 14  1  0  0  0  0
 13 33  1  0  0  0  0
 14 15  2  0  0  0  0
 14 20  1  0  0  0  0
 15 16  1  0  0  0  0
 15 17  1  0  0  0  0
 16 34  1  0  0  0  0
 16 35  1  0  0  0  0
 17 18  2  0  0  0  0
 18 19  1  0  0  0  0
 18 36  1  0  0  0  0
 19 20  2  0  0  0  0
M  END
>  <DRUGBANK_ID>
DB02933

>  <SECONDARY_ACCESSION_NUMBERS>
EXPT02244

>  <COMMON_NAME>
5'-Deoxy-5'-(Methylthio)-Tubercidin

$$$$
