
 OpenBabel10282417243D

 67 71  0  0  1  0  0  0  0  0999 V2000
    0.4878    0.2463    0.0718 C   0  0  0  0  0  0  0  0  0  0  0  0
    0.1923    0.5783   -1.2687 O   0  0  0  0  0  0  0  0  0  0  0  0
    0.8049    1.7065   -1.6816 C   0  0  0  0  0  0  0  0  0  0  0  0
   -0.0201    2.6231   -2.1904 N   0  0  0  0  0  0  0  0  0  0  0  0
    0.7910    3.6527   -2.4771 N   0  0  0  0  0  0  0  0  0  0  0  0
    0.1983    4.8938   -2.9303 C   0  0  0  0  0  0  0  0  0  0  0  0
    2.1141    3.3933   -2.1986 C   0  0  0  0  0  0  0  0  0  0  0  0
    2.1795    2.0935   -1.7203 C   0  0  0  0  0  0  0  0  0  0  0  0
    3.3261    1.4292   -1.3540 N   0  0  0  0  0  0  0  0  0  0  0  0
    3.4371    0.1080   -0.8518 C   0  0  0  0  0  0  0  0  0  0  0  0
    3.8393   -0.0656    0.4259 N   0  0  0  0  0  0  0  0  0  0  0  0
    3.5227   -1.2485    1.0328 C   0  0  0  0  0  0  0  0  0  0  0  0
    2.9016   -2.2936    0.4222 C   0  0  0  0  0  0  0  0  0  0  0  0
    2.6084   -2.0527   -0.8754 C   0  0  0  0  0  0  0  0  0  0  0  0
    2.8861   -0.8981   -1.5370 N   0  0  0  0  0  0  0  0  0  0  0  0
    2.1424   -3.1745   -1.6276 C   0  0  0  0  0  0  0  0  0  0  0  0
    2.9991   -3.6282   -2.5738 C   0  0  0  0  0  0  0  0  0  0  0  0
    2.3033   -4.5645   -3.2368 N   0  0  0  0  0  0  0  0  0  0  0  0
    1.0512   -4.8689   -2.7483 C   0  0  0  0  0  0  0  0  0  0  0  0
   -0.0520   -5.6199   -3.2868 C   0  0  0  0  0  0  0  0  0  0  0  0
   -0.2015   -6.2659   -4.5727 N   0  0  0  0  0  0  0  0  0  0  0  0
    0.5439   -6.2828   -5.7636 C   0  0  0  0  0  0  0  0  0  0  0  0
    0.1968   -6.9707   -6.6982 O   0  0  0  0  0  0  0  0  0  0  0  0
    1.8254   -5.4525   -5.7990 C   0  0  1  0  0  0  0  0  0  0  0  0
    2.9985   -5.9307   -6.6421 C   0  0  0  0  0  0  0  0  0  0  0  0
    1.5832   -3.9558   -5.9523 N   0  0  0  0  0  0  0  0  0  0  0  0
    0.4337   -3.3104   -5.2616 C   0  0  0  0  0  0  0  0  0  0  0  0
    0.1365   -1.8381   -5.5941 C   0  0  0  0  0  0  0  0  0  0  0  0
    1.2999   -0.9417   -5.5042 N   0  0  0  0  0  0  0  0  0  0  0  0
    1.6256   -0.6713   -4.1067 C   0  0  0  0  0  0  0  0  0  0  0  0
    2.4540   -1.5381   -6.1953 C   0  0  0  0  0  0  0  0  0  0  0  0
    2.7519   -3.0380   -5.9370 C   0  0  0  0  0  0  0  0  0  0  0  0
   -1.1845   -5.6325   -2.4452 C   0  0  0  0  0  0  0  0  0  0  0  0
   -1.2350   -4.9032   -1.2470 C   0  0  0  0  0  0  0  0  0  0  0  0
   -0.1869   -4.0648   -0.8557 C   0  0  0  0  0  0  0  0  0  0  0  0
    0.9754   -4.0206   -1.6295 C   0  0  0  0  0  0  0  0  0  0  0  0
    0.1949   -0.7931    0.2458 H   0  0  0  0  0  0  0  0  0  0  0  0
    0.0115    0.9112    0.7891 H   0  0  0  0  0  0  0  0  0  0  0  0
    1.5327    0.3167    0.3021 H   0  0  0  0  0  0  0  0  0  0  0  0
   -0.3605    4.7157   -3.8546 H   0  0  0  0  0  0  0  0  0  0  0  0
   -0.4836    5.2528   -2.1524 H   0  0  0  0  0  0  0  0  0  0  0  0
    0.9773    5.6389   -3.1059 H   0  0  0  0  0  0  0  0  0  0  0  0
    2.8643    4.1497   -2.3775 H   0  0  0  0  0  0  0  0  0  0  0  0
    4.1478    1.9625   -1.1003 H   0  0  0  0  0  0  0  0  0  0  0  0
    3.7284   -1.3286    2.0932 H   0  0  0  0  0  0  0  0  0  0  0  0
    2.6769   -3.2520    0.8666 H   0  0  0  0  0  0  0  0  0  0  0  0
    3.8974   -3.1799   -2.9868 H   0  0  0  0  0  0  0  0  0  0  0  0
    2.4467   -4.4877   -4.2055 H   0  0  0  0  0  0  0  0  0  0  0  0
   -1.0714   -6.7728   -4.7237 H   0  0  0  0  0  0  0  0  0  0  0  0
    2.2208   -5.8805   -4.8739 H   0  0  0  0  0  0  0  0  0  0  0  0
    3.9089   -5.3901   -6.3403 H   0  0  0  0  0  0  0  0  0  0  0  0
    3.2283   -6.9816   -6.4268 H   0  0  0  0  0  0  0  0  0  0  0  0
    2.8246   -5.7981   -7.7051 H   0  0  0  0  0  0  0  0  0  0  0  0
   -0.4952   -3.8725   -5.3788 H   0  0  0  0  0  0  0  0  0  0  0  0
    0.6086   -3.2185   -4.2005 H   0  0  0  0  0  0  0  0  0  0  0  0
   -0.2991   -1.7821   -6.5919 H   0  0  0  0  0  0  0  0  0  0  0  0
   -0.6428   -1.4909   -4.8956 H   0  0  0  0  0  0  0  0  0  0  0  0
    1.9414   -1.5810   -3.6193 H   0  0  0  0  0  0  0  0  0  0  0  0
    2.4383    0.0559   -4.0094 H   0  0  0  0  0  0  0  0  0  0  0  0
    0.7637   -0.2927   -3.5539 H   0  0  0  0  0  0  0  0  0  0  0  0
    2.3075   -1.4023   -7.2683 H   0  0  0  0  0  0  0  0  0  0  0  0
    3.3585   -0.9719   -5.9301 H   0  0  0  0  0  0  0  0  0  0  0  0
    3.2611   -3.0387   -4.9780 H   0  0  0  0  0  0  0  0  0  0  0  0
    3.5236   -3.3539   -6.6419 H   0  0  0  0  0  0  0  0  0  0  0  0
   -2.0820   -6.1830   -2.7316 H   0  0  0  0  0  0  0  0  0  0  0  0
   -2.1233   -4.9458   -0.6218 H   0  0  0  0  0  0  0  0  0  0  0  0
   -0.2678   -3.4351    0.0219 H   0  0  0  0  0  0  0  0  0  0  0  0
  1  2  1  0  0  0  0
  1 37  1  0  0  0  0
  1 38  1  0  0  0  0
  1 39  1  0  0  0  0
  2  3  1  0  0  0  0
  3  4  2  0  0  0  0
  3  8  1  0  0  0  0
  4  5  1  0  0  0  0
  5  6  1  0  0  0  0
  5  7  1  0  0  0  0
  6 40  1  0  0  0  0
  6 41  1  0  0  0  0
  6 42  1  0  0  0  0
  7  8  2  0  0  0  0
  7 43  1  0  0  0  0
  8  9  1  0  0  0  0
  9 10  1  0  0  0  0
  9 44  1  0  0  0  0
 10 11  2  0  0  0  0
 10 15  1  0  0  0  0
 11 12  1  0  0  0  0
 12 13  2  0  0  0  0
 12 45  1  0  0  0  0
 13 14  1  0  0  0  0
 13 46  1  0  0  0  0
 14 15  2  0  0  0  0
 14 16  1  0  0  0  0
 16 17  2  0  0  0  0
 16 36  1  0  0  0  0
 17 18  1  0  0  0  0
 17 47  1  0  0  0  0
 18 19  1  0  0  0  0
 18 48  1  0  0  0  0
 19 20  2  0  0  0  0
 19 36  1  0  0  0  0
 20 21  1  0  0  0  0
 20 33  1  0  0  0  0
 21 22  1  0  0  0  0
 21 49  1  0  0  0  0
 22 23  2  0  0  0  0
 24 22  1  0  0  0  0
 24 25  1  0  0  0  0
 24 26  1  0  0  0  0
 24 50  1  1  0  0  0
 25 51  1  0  0  0  0
 25 52  1  0  0  0  0
 25 53  1  0  0  0  0
 26 27  1  0  0  0  0
 26 32  1  0  0  0  0
 27 28  1  0  0  0  0
 27 54  1  0  0  0  0
 27 55  1  0  0  0  0
 28 29  1  0  0  0  0
 28 56  1  0  0  0  0
 28 57  1  0  0  0  0
 29 30  1  0  0  0  0
 29 31  1  0  0  0  0
 30 58  1  0  0  0  0
 30 59  1  0  0  0  0
 30 60  1  0  0  0  0
 31 32  1  0  0  0  0
 31 61  1  0  0  0  0
 31 62  1  0  0  0  0
 32 63  1  0  0  0  0
 32 64  1  0  0  0  0
 33 34  2  0  0  0  0
 33 65  1  0  0  0  0
 34 35  1  0  0  0  0
 34 66  1  0  0  0  0
 35 36  2  0  0  0  0
 35 67  1  0  0  0  0
M  END
>  <DRUGBANK_ID>
DB18057

>  <COMMON_NAME>
Golidocitinib

>  <CAS_NUMBER>
2091134-68-6

>  <UNII>
3BY9Z3M34G

>  <SYNONYMS>
(.alpha.r)-n-(3-(2-((3-methoxy-1-methyl-1h-pyrazol-4-yl)amino)-4-pyrimidinyl)-1h-indol-7-yl)-.alpha.,4-dimethyl-1-piperazineacetamide; 1-piperazineacetamide, n-(3-(2-((3-methoxy-1-methyl-1h-pyrazol-4-yl)amino)-4-pyrimidinyl)-1h-indol-7-yl)-.alpha.,4-dimethyl-, (.alpha.r)-

$$$$
