
 OpenBabel10282417123D

 58 60  0  0  0  0  0  0  0  0999 V2000
   -3.6989   -0.0091   -0.8333 C   0  0  0  0  0  0  0  0  0  0  0  0
   -3.5316    1.2080   -0.2142 C   0  0  0  0  0  0  0  0  0  0  0  0
   -2.5173   -0.7436   -1.2082 C   0  0  0  0  0  0  0  0  0  0  0  0
   -2.2223    1.6550   -0.0584 C   0  0  0  0  0  0  0  0  0  0  0  0
   -1.1625   -0.4944   -0.6969 C   0  0  0  0  0  0  0  0  0  0  0  0
   -1.0617    0.8654   -0.2538 C   0  0  0  0  0  0  0  0  0  0  0  0
    1.2442    0.7168   -0.0250 C   0  0  0  0  0  0  0  0  0  0  0  0
    0.1066    1.4189    0.0101 N   0  0  0  0  0  0  0  0  0  0  0  0
    1.2848   -0.7143   -0.1456 C   0  0  0  0  0  0  0  0  0  0  0  0
    0.0654   -1.3830   -0.4200 C   0  0  0  0  0  0  0  0  0  0  0  0
    3.6641    0.7713    0.0320 C   0  0  0  0  0  0  0  0  0  0  0  0
    2.4271    1.4048    0.0367 C   0  0  0  0  0  0  0  0  0  0  0  0
    3.7308   -0.6157    0.0291 C   0  0  0  0  0  0  0  0  0  0  0  0
    2.5549   -1.3337   -0.0358 C   0  0  0  0  0  0  0  0  0  0  0  0
    0.2065   -2.8475   -0.4727 N   0  0  0  0  0  0  0  0  0  0  0  0
   -0.7647   -3.9480   -0.2694 C   0  0  3  0  0  0  0  0  0  0  0  0
   -0.9577   -4.8797   -1.4807 C   0  0  0  0  0  0  0  0  0  0  0  0
   -0.8918   -4.6236    1.2422 C   0  0  0  0  0  0  0  0  0  0  0  0
   -1.1949   -3.8084    2.6948 C   0  0  0  0  0  0  0  0  0  0  0  0
   -2.5818   -3.0344    3.2315 C   0  0  0  0  0  0  0  0  0  0  0  0
   -3.9161   -3.6590    2.9104 N   0  0  0  0  0  0  0  0  0  0  0  0
   -5.0496   -2.6781    2.9359 C   0  0  0  0  0  0  0  0  0  0  0  0
   -3.9613   -4.3614    1.6065 C   0  0  0  0  0  0  0  0  0  0  0  0
   -4.9142   -0.6375   -0.9802 O   0  0  0  0  0  0  0  0  0  0  0  0
   -6.1258   -0.0100   -0.5175 C   0  0  0  0  0  0  0  0  0  0  0  0
    5.1197    1.6779    0.0144 Cl  0  0  0  0  0  0  0  0  0  0  0  0
   -5.4508   -1.8655    1.7055 C   0  0  0  0  0  0  0  0  0  0  0  0
   -6.4666   -2.9085    0.5559 Cl  0  0  0  0  0  0  0  0  0  0  0  0
   -3.5657   -3.5276    0.3914 C   0  0  0  0  0  0  0  0  0  0  0  0
   -2.5044   -2.2198    0.8847 Cl  0  0  0  0  0  0  0  0  0  0  0  0
   -4.3733    1.8119    0.1090 H   0  0  0  0  0  0  0  0  0  0  0  0
   -2.6976   -1.7440   -1.6117 H   0  0  0  0  0  0  0  0  0  0  0  0
   -2.1038    2.6978    0.2627 H   0  0  0  0  0  0  0  0  0  0  0  0
    2.3894    2.5012    0.0494 H   0  0  0  0  0  0  0  0  0  0  0  0
    4.6810   -1.1377    0.0335 H   0  0  0  0  0  0  0  0  0  0  0  0
    2.6731   -2.4185   -0.0655 H   0  0  0  0  0  0  0  0  0  0  0  0
    1.0375   -3.1440    0.0245 H   0  0  0  0  0  0  0  0  0  0  0  0
   -1.6478   -3.4712   -0.5607 H   0  0  0  0  0  0  0  0  0  0  0  0
   -0.1943   -5.6283   -1.6601 H   0  0  0  0  0  0  0  0  0  0  0  0
   -1.9344   -5.3912   -1.4093 H   0  0  0  0  0  0  0  0  0  0  0  0
   -1.0596   -4.2404   -2.3747 H   0  0  0  0  0  0  0  0  0  0  0  0
   -1.6294   -5.4303    1.1664 H   0  0  0  0  0  0  0  0  0  0  0  0
    0.0212   -5.2137    1.4324 H   0  0  0  0  0  0  0  0  0  0  0  0
   -1.0524   -4.5559    3.4870 H   0  0  0  0  0  0  0  0  0  0  0  0
   -0.3680   -3.0904    2.7898 H   0  0  0  0  0  0  0  0  0  0  0  0
   -2.4612   -2.7846    4.2950 H   0  0  0  0  0  0  0  0  0  0  0  0
   -2.6198   -1.9572    2.9682 H   0  0  0  0  0  0  0  0  0  0  0  0
   -5.9553   -3.2509    3.1425 H   0  0  0  0  0  0  0  0  0  0  0  0
   -4.9045   -1.9658    3.7486 H   0  0  0  0  0  0  0  0  0  0  0  0
   -3.3884   -5.2837    1.6878 H   0  0  0  0  0  0  0  0  0  0  0  0
   -4.9549   -4.7760    1.4297 H   0  0  0  0  0  0  0  0  0  0  0  0
   -6.0449    0.5144    0.4443 H   0  0  0  0  0  0  0  0  0  0  0  0
   -6.5278    0.6116   -1.3061 H   0  0  0  0  0  0  0  0  0  0  0  0
   -6.9120   -0.7550   -0.3517 H   0  0  0  0  0  0  0  0  0  0  0  0
   -6.1118   -1.0477    1.9569 H   0  0  0  0  0  0  0  0  0  0  0  0
   -4.5922   -1.3388    1.2812 H   0  0  0  0  0  0  0  0  0  0  0  0
   -3.3775   -4.1116   -0.5170 H   0  0  0  0  0  0  0  0  0  0  0  0
   -4.2702   -2.8615   -0.0403 H   0  0  0  0  0  0  0  0  0  0  0  0
  1 24  1  0  0  0  0
  1  2  1  0  0  0  0
  2 31  1  0  0  0  0
  3  1  2  0  0  0  0
  3 32  1  0  0  0  0
  4  2  2  0  0  0  0
  4 33  1  0  0  0  0
  5  3  1  0  0  0  0
  5  6  1  0  0  0  0
  6  4  1  0  0  0  0
  7  8  1  0  0  0  0
  8  6  2  0  0  0  0
  9  7  1  0  0  0  0
  9 10  1  0  0  0  0
 10  5  2  0  0  0  0
 11 12  1  0  0  0  0
 12  7  2  0  0  0  0
 12 34  1  0  0  0  0
 13 11  2  0  0  0  0
 13 14  1  0  0  0  0
 13 35  1  0  0  0  0
 14  9  2  0  0  0  0
 14 36  1  0  0  0  0
 15 10  1  0  0  0  0
 15 37  1  0  0  0  0
 16 15  1  0  0  0  0
 16 38  1  0  0  0  0
 17 16  1  0  0  0  0
 17 39  1  0  0  0  0
 17 40  1  0  0  0  0
 17 41  1  0  0  0  0
 18 16  1  0  0  0  0
 18 42  1  0  0  0  0
 18 43  1  0  0  0  0
 19 18  1  0  0  0  0
 19 44  1  0  0  0  0
 19 45  1  0  0  0  0
 20 19  1  0  0  0  0
 20 46  1  0  0  0  0
 20 47  1  0  0  0  0
 21 20  1  0  0  0  0
 22 21  1  0  0  0  0
 22 48  1  0  0  0  0
 22 49  1  0  0  0  0
 23 21  1  0  0  0  0
 23 50  1  0  0  0  0
 23 51  1  0  0  0  0
 25 24  1  0  0  0  0
 25 52  1  0  0  0  0
 25 53  1  0  0  0  0
 25 54  1  0  0  0  0
 26 11  1  0  0  0  0
 27 22  1  0  0  0  0
 27 28  1  0  0  0  0
 27 55  1  0  0  0  0
 27 56  1  0  0  0  0
 29 23  1  0  0  0  0
 29 30  1  0  0  0  0
 29 57  1  0  0  0  0
 29 58  1  0  0  0  0
M  END
>  <DRUGBANK_ID>
DB02240

>  <SECONDARY_ACCESSION_NUMBERS>
EXPT02733

>  <COMMON_NAME>
Quinacrine mustard

>  <CAS_NUMBER>
64046-79-3

>  <UNII>
8Y3YQP8GW6

$$$$
