947
 OpenBabel10282417173D

  2  1  0  0  0  0  0  0  0  0999 V2000
    0.9831   -0.0533    0.0093 N   0  0  0  0  0  0  0  0  0  0  0  0
    2.4031   -0.0533    0.0093 N   0  0  0  0  0  0  0  0  0  0  0  0
  1  2  3  0  0  0  0
M  END
>  <DRUGBANK_ID>
DB09152

>  <COMMON_NAME>
Nitrogen

>  <CAS_NUMBER>
7727-37-9

>  <UNII>
N762921K75

$$$$
