MSQ
 OpenBabel10282417133D

 40 42  0  0  0  0  0  0  0  0999 V2000
   -2.3465    0.6276    0.0078 N   0  0  0  0  0  0  0  0  0  0  0  0
   -2.2259   -0.6940    0.0213 C   0  0  0  0  0  0  0  0  0  0  0  0
   -1.0795   -1.3763    0.0139 N   0  0  0  0  0  0  0  0  0  0  0  0
    0.0473   -0.6476    0.0008 C   0  0  0  0  0  0  0  0  0  0  0  0
    0.0566    0.7355   -0.0130 C   0  0  0  0  0  0  0  0  0  0  0  0
   -1.2113    1.3566   -0.0259 C   0  0  0  0  0  0  0  0  0  0  0  0
    1.2660   -1.3175   -0.0064 C   0  0  0  0  0  0  0  0  0  0  0  0
    2.5348   -0.6788    0.0032 C   0  0  0  0  0  0  0  0  0  0  0  0
    2.5582    0.7213    0.0099 C   0  0  0  0  0  0  0  0  0  0  0  0
    1.3129    1.3985   -0.0085 C   0  0  0  0  0  0  0  0  0  0  0  0
   -1.3540    2.7404   -0.2406 N   0  0  0  0  0  0  0  0  0  0  0  0
   -2.5552    3.4688   -0.1043 C   0  0  0  0  0  0  0  0  0  0  0  0
   -3.4067    3.3066    1.0004 C   0  0  0  0  0  0  0  0  0  0  0  0
   -4.5934    4.0375    1.1190 C   0  0  0  0  0  0  0  0  0  0  0  0
   -4.9088    4.9612    0.1132 C   0  0  0  0  0  0  0  0  0  0  0  0
   -4.0444    5.1689   -0.9645 C   0  0  0  0  0  0  0  0  0  0  0  0
   -2.8768    4.4179   -1.0745 C   0  0  0  0  0  0  0  0  0  0  0  0
   -5.7397    3.8873    2.4879 S   0  0  0  0  0  0  0  0  0  0  0  0
   -4.9331    2.6841    3.5837 C   0  0  0  0  0  0  0  0  0  0  0  0
    3.4763   -1.6748    0.0061 O   0  0  0  0  0  0  0  0  0  0  0  0
    4.8504   -1.4049    0.0338 C   0  0  0  0  0  0  0  0  0  0  0  0
    3.5226    1.6925    0.0324 O   0  0  0  0  0  0  0  0  0  0  0  0
    4.8925    1.4021    0.0541 C   0  0  0  0  0  0  0  0  0  0  0  0
   -3.1484   -1.2658    0.0307 H   0  0  0  0  0  0  0  0  0  0  0  0
    1.2345   -2.4071   -0.0188 H   0  0  0  0  0  0  0  0  0  0  0  0
    1.3414    2.4850   -0.0021 H   0  0  0  0  0  0  0  0  0  0  0  0
   -0.5403    3.3091   -0.0516 H   0  0  0  0  0  0  0  0  0  0  0  0
   -3.1274    2.5794    1.7538 H   0  0  0  0  0  0  0  0  0  0  0  0
   -5.8355    5.5301    0.1573 H   0  0  0  0  0  0  0  0  0  0  0  0
   -4.2857    5.9082   -1.7230 H   0  0  0  0  0  0  0  0  0  0  0  0
   -2.2427    4.5313   -1.9499 H   0  0  0  0  0  0  0  0  0  0  0  0
   -4.8385    1.7125    3.0910 H   0  0  0  0  0  0  0  0  0  0  0  0
   -3.9489    3.0384    3.9039 H   0  0  0  0  0  0  0  0  0  0  0  0
   -5.5495    2.5516    4.4773 H   0  0  0  0  0  0  0  0  0  0  0  0
    5.1266   -0.9048   -0.8902 H   0  0  0  0  0  0  0  0  0  0  0  0
    5.0929   -0.9201    0.9756 H   0  0  0  0  0  0  0  0  0  0  0  0
    5.4616   -2.3104    0.0372 H   0  0  0  0  0  0  0  0  0  0  0  0
    5.1331    0.9001    0.9872 H   0  0  0  0  0  0  0  0  0  0  0  0
    5.1634    0.9142   -0.8781 H   0  0  0  0  0  0  0  0  0  0  0  0
    5.5105    2.3026    0.0710 H   0  0  0  0  0  0  0  0  0  0  0  0
  1  2  2  0  0  0  0
  1  6  1  0  0  0  0
  2  3  1  0  0  0  0
  2 24  1  0  0  0  0
  3  4  2  0  0  0  0
  4  5  1  0  0  0  0
  4  7  1  0  0  0  0
  5  6  2  0  0  0  0
  5 10  1  0  0  0  0
  6 11  1  0  0  0  0
  7  8  2  0  0  0  0
  7 25  1  0  0  0  0
  8  9  1  0  0  0  0
  8 20  1  0  0  0  0
  9 10  2  0  0  0  0
  9 22  1  0  0  0  0
 10 26  1  0  0  0  0
 11 12  1  0  0  0  0
 11 27  1  0  0  0  0
 12 13  2  0  0  0  0
 12 17  1  0  0  0  0
 13 14  1  0  0  0  0
 13 28  1  0  0  0  0
 14 15  2  0  0  0  0
 14 18  1  0  0  0  0
 15 16  1  0  0  0  0
 15 29  1  0  0  0  0
 16 17  2  0  0  0  0
 16 30  1  0  0  0  0
 17 31  1  0  0  0  0
 18 19  1  0  0  0  0
 19 32  1  0  0  0  0
 19 33  1  0  0  0  0
 19 34  1  0  0  0  0
 20 21  1  0  0  0  0
 21 35  1  0  0  0  0
 21 36  1  0  0  0  0
 21 37  1  0  0  0  0
 22 23  1  0  0  0  0
 23 38  1  0  0  0  0
 23 39  1  0  0  0  0
 23 40  1  0  0  0  0
M  END
>  <DRUGBANK_ID>
DB02984

>  <SECONDARY_ACCESSION_NUMBERS>
EXPT02240

>  <COMMON_NAME>
4-[3-Methylsulfanylanilino]-6,7-Dimethoxyquinazoline

$$$$
