575
 OpenBabel10282417103D

 23 24  0  0  0  0  0  0  0  0999 V2000
   -2.6050    0.8968   -0.0460 Cl  0  0  0  0  0  0  0  0  0  0  0  0
    2.9169    0.3713    0.1825 Cl  0  0  0  0  0  0  0  0  0  0  0  0
    2.1302    2.9742   -1.1024 N   0  0  0  0  0  0  0  0  0  0  0  0
    0.1506    2.1174   -0.2246 N   0  0  0  0  0  0  0  0  0  0  0  0
    1.4628    3.7297    0.9314 N   0  0  0  0  0  0  0  0  0  0  0  0
    3.3508    3.5366   -0.5682 C   0  0  0  0  0  0  0  0  0  0  0  0
    2.7742    4.3719    0.5753 C   0  0  0  0  0  0  0  0  0  0  0  0
    1.2365    2.9295   -0.0719 C   0  0  0  0  0  0  0  0  0  0  0  0
    0.1427    0.6926   -0.0391 C   0  0  0  0  0  0  0  0  0  0  0  0
   -1.1094    0.0170   -0.0407 C   0  0  0  0  0  0  0  0  0  0  0  0
    1.2809   -0.1434    0.0197 C   0  0  0  0  0  0  0  0  0  0  0  0
   -1.2084   -1.3863   -0.0124 C   0  0  0  0  0  0  0  0  0  0  0  0
    1.1717   -1.5429    0.0193 C   0  0  0  0  0  0  0  0  0  0  0  0
   -0.0628   -2.1674   -0.0023 C   0  0  0  0  0  0  0  0  0  0  0  0
    2.1925    2.1525   -1.6842 H   0  0  0  0  0  0  0  0  0  0  0  0
   -0.6657    2.5081    0.2433 H   0  0  0  0  0  0  0  0  0  0  0  0
    3.9150    4.1141   -1.3024 H   0  0  0  0  0  0  0  0  0  0  0  0
    4.0137    2.7634   -0.1644 H   0  0  0  0  0  0  0  0  0  0  0  0
    3.4497    4.3968    1.4371 H   0  0  0  0  0  0  0  0  0  0  0  0
    2.5898    5.3976    0.2399 H   0  0  0  0  0  0  0  0  0  0  0  0
   -2.1783   -1.8791   -0.0066 H   0  0  0  0  0  0  0  0  0  0  0  0
    2.0744   -2.1511    0.0447 H   0  0  0  0  0  0  0  0  0  0  0  0
   -0.1170   -3.2525    0.0029 H   0  0  0  0  0  0  0  0  0  0  0  0
  1 10  1  0  0  0  0
  2 11  1  0  0  0  0
  3  6  1  0  0  0  0
  3  8  1  0  0  0  0
  3 15  1  0  0  0  0
  4  8  1  0  0  0  0
  4  9  1  0  0  0  0
  4 16  1  0  0  0  0
  5  7  1  0  0  0  0
  5  8  2  0  0  0  0
  6  7  1  0  0  0  0
  6 17  1  0  0  0  0
  6 18  1  0  0  0  0
  7 19  1  0  0  0  0
  7 20  1  0  0  0  0
  9 10  2  0  0  0  0
  9 11  1  0  0  0  0
 10 12  1  0  0  0  0
 11 13  2  0  0  0  0
 12 14  2  0  0  0  0
 12 21  1  0  0  0  0
 13 14  1  0  0  0  0
 13 22  1  0  0  0  0
 14 23  1  0  0  0  0
M  END
>  <DRUGBANK_ID>
DB00575

>  <SECONDARY_ACCESSION_NUMBERS>
APRD00174; DB07566

>  <COMMON_NAME>
Clonidine

>  <CAS_NUMBER>
4205-90-7

>  <UNII>
MN3L5RMN02

>  <SYNONYMS>
2-((2,6-Dichlorophenyl)imino)imidazolidine; 2,6-Dichloro-N-2-imidazolidinylidenebenzenamine; Chlofazoline; Clonidin; Clonidina; Clonidine; Clonidinum

$$$$
