
 OpenBabel10282417183D

 50 52  0  0  0  0  0  0  0  0999 V2000
   -6.0924    3.0620   -0.2181 C   0  0  0  0  0  0  0  0  0  0  0  0
   -5.1290    4.0568   -0.0898 C   0  0  0  0  0  0  0  0  0  0  0  0
   -5.5427    5.3788    0.0074 C   0  0  0  0  0  0  0  0  0  0  0  0
   -6.9055    5.7170    0.0035 C   0  0  0  0  0  0  0  0  0  0  0  0
   -7.8605    4.6848   -0.0646 C   0  0  0  0  0  0  0  0  0  0  0  0
   -7.4393    3.3665   -0.1671 C   0  0  0  0  0  0  0  0  0  0  0  0
   -7.3552    7.1174    0.0644 C   0  0  0  0  0  0  0  0  0  0  0  0
   -6.5291    8.1816    0.1166 C   0  0  0  0  0  0  0  0  0  0  0  0
   -6.9939    9.5665    0.1623 C   0  0  0  0  0  0  0  0  0  0  0  0
   -8.0222    9.9647    1.0240 C   0  0  0  0  0  0  0  0  0  0  0  0
   -8.4237   11.3004    1.0747 C   0  0  0  0  0  0  0  0  0  0  0  0
   -7.7823   12.2368    0.2696 C   0  0  0  0  0  0  0  0  0  0  0  0
   -6.7501   11.8596   -0.5804 C   0  0  0  0  0  0  0  0  0  0  0  0
   -6.3479   10.5255   -0.6284 C   0  0  0  0  0  0  0  0  0  0  0  0
   -8.2900    2.3021   -0.2205 O   0  0  0  0  0  0  0  0  0  0  0  0
   -8.1337   13.5535    0.2862 O   0  0  0  0  0  0  0  0  0  0  0  0
   -3.2930    2.5192   -0.0180 C   0  0  2  0  0  0  0  0  0  0  0  0
   -3.6588    1.8598   -1.2333 O   0  0  0  0  0  0  0  0  0  0  0  0
   -3.7235    1.7763    1.2788 C   0  0  1  0  0  0  0  0  0  0  0  0
   -3.2213    0.5054   -1.3159 C   0  0  1  0  0  0  0  0  0  0  0  0
   -3.3692    0.2900    1.1964 C   0  0  2  0  0  0  0  0  0  0  0  0
   -3.1756    2.3865    2.4569 O   0  0  0  0  0  0  0  0  0  0  0  0
   -3.7821   -0.3194   -0.1541 C   0  0  2  0  0  0  0  0  0  0  0  0
   -3.7129   -0.0625   -2.6555 C   0  0  0  0  0  0  0  0  0  0  0  0
   -4.0131   -0.4218    2.2641 O   0  0  0  0  0  0  0  0  0  0  0  0
   -3.3454   -1.6750   -0.2547 O   0  0  0  0  0  0  0  0  0  0  0  0
   -3.2055    0.7182   -3.7369 O   0  0  0  0  0  0  0  0  0  0  0  0
   -3.7746    3.8699   -0.0301 O   0  0  0  0  0  0  0  0  0  0  0  0
   -5.8443    2.0177   -0.3416 H   0  0  0  0  0  0  0  0  0  0  0  0
   -4.7682    6.1358    0.0833 H   0  0  0  0  0  0  0  0  0  0  0  0
   -8.9210    4.9125   -0.0482 H   0  0  0  0  0  0  0  0  0  0  0  0
   -8.4298    7.2726    0.0399 H   0  0  0  0  0  0  0  0  0  0  0  0
   -5.4504    8.0804    0.1120 H   0  0  0  0  0  0  0  0  0  0  0  0
   -8.5069    9.2363    1.6699 H   0  0  0  0  0  0  0  0  0  0  0  0
   -9.2282   11.5832    1.7449 H   0  0  0  0  0  0  0  0  0  0  0  0
   -6.2596   12.6015   -1.2034 H   0  0  0  0  0  0  0  0  0  0  0  0
   -5.5351   10.2408   -1.2930 H   0  0  0  0  0  0  0  0  0  0  0  0
   -9.2064    2.6177   -0.2244 H   0  0  0  0  0  0  0  0  0  0  0  0
   -8.8410   13.6796    0.9389 H   0  0  0  0  0  0  0  0  0  0  0  0
   -2.1992    2.6076   -0.0126 H   0  0  0  0  0  0  0  0  0  0  0  0
   -4.7988    1.8352    1.4491 H   0  0  0  0  0  0  0  0  0  0  0  0
   -2.1241    0.4992   -1.3185 H   0  0  0  0  0  0  0  0  0  0  0  0
   -2.2957    0.1535    1.3623 H   0  0  0  0  0  0  0  0  0  0  0  0
   -2.2085    2.3191    2.4352 H   0  0  0  0  0  0  0  0  0  0  0  0
   -4.8785   -0.3378   -0.2085 H   0  0  0  0  0  0  0  0  0  0  0  0
   -3.3748   -1.0929   -2.7965 H   0  0  0  0  0  0  0  0  0  0  0  0
   -4.8066   -0.0394   -2.7173 H   0  0  0  0  0  0  0  0  0  0  0  0
   -4.9745   -0.2719    2.1968 H   0  0  0  0  0  0  0  0  0  0  0  0
   -2.3860   -1.7086   -0.0961 H   0  0  0  0  0  0  0  0  0  0  0  0
   -3.5289    1.6266   -3.5826 H   0  0  0  0  0  0  0  0  0  0  0  0
  1  2  1  0  0  0  0
  1 29  1  0  0  0  0
  2  3  2  0  0  0  0
  2 28  1  0  0  0  0
  3  4  1  0  0  0  0
  3 30  1  0  0  0  0
  4  7  1  0  0  0  0
  4  5  2  0  0  0  0
  5  6  1  0  0  0  0
  5 31  1  0  0  0  0
  6 15  1  0  0  0  0
  6  1  2  0  0  0  0
  7  8  2  0  0  0  0
  7 32  1  0  0  0  0
  8  9  1  0  0  0  0
  8 33  1  0  0  0  0
  9 10  2  0  0  0  0
 10 11  1  0  0  0  0
 10 34  1  0  0  0  0
 11 12  2  0  0  0  0
 11 35  1  0  0  0  0
 12 16  1  0  0  0  0
 12 13  1  0  0  0  0
 13 14  2  0  0  0  0
 13 36  1  0  0  0  0
 14  9  1  0  0  0  0
 14 37  1  0  0  0  0
 15 38  1  0  0  0  0
 16 39  1  0  0  0  0
 17 18  1  0  0  0  0
 17 19  1  0  0  0  0
 17 40  1  1  0  0  0
 17 28  1  0  0  0  0
 18 20  1  0  0  0  0
 19 21  1  0  0  0  0
 19 22  1  0  0  0  0
 19 41  1  1  0  0  0
 20 23  1  0  0  0  0
 20 24  1  0  0  0  0
 20 42  1  1  0  0  0
 21 25  1  0  0  0  0
 21 23  1  0  0  0  0
 21 43  1  1  0  0  0
 22 44  1  0  0  0  0
 23 26  1  0  0  0  0
 23 45  1  6  0  0  0
 24 27  1  0  0  0  0
 24 46  1  0  0  0  0
 24 47  1  0  0  0  0
 25 48  1  0  0  0  0
 26 49  1  0  0  0  0
 27 50  1  0  0  0  0
M  END
>  <DRUGBANK_ID>
DB11263

>  <COMMON_NAME>
Polydatin

>  <CAS_NUMBER>
27208-80-6

>  <UNII>
XM261C37CQ

>  <SYNONYMS>
3,4,5-Trihydroxystilbene-3-beta-monoglucoside; 3,4',5-trihydroxystilbene-3-β-d-glucoside; Piceid; Polydatin (E)-isomer; Resveratrol 3-O-beta-glucopyranoside; resveratrol-3-O-b-mono-D-glucoside; trans-piceid; trans-resveratrol 3-O-β-D-glucoside; trans-resveratrol 3-β-D-glucoside; trans-resveratrol 3-β-glucoside

$$$$
