
 OpenBabel10282417213D

 29 30  0  0  0  0  0  0  0  0999 V2000
    1.3993   -0.1796    0.0245 C   0  0  0  0  0  0  0  0  0  0  0  0
    2.8046   -0.3719    0.1371 N   0  0  0  0  0  0  0  0  0  0  0  0
    3.7294    0.6590    0.2202 C   0  0  0  0  0  0  0  0  0  0  0  0
    5.1527    0.3207    0.4485 C   0  0  0  0  0  0  0  0  0  0  0  0
    5.7652   -0.6509   -0.3518 C   0  0  0  0  0  0  0  0  0  0  0  0
    7.1525   -0.8077   -0.3128 C   0  0  0  0  0  0  0  0  0  0  0  0
    7.9324    0.0302    0.4842 C   0  0  0  0  0  0  0  0  0  0  0  0
    7.3284    1.0122    1.2676 C   0  0  0  0  0  0  0  0  0  0  0  0
    5.9308    1.1254    1.3116 C   0  0  0  0  0  0  0  0  0  0  0  0
    5.3269    2.0613    2.3272 C   0  0  0  0  0  0  0  0  0  0  0  0
    3.4943    1.8642    0.1016 O   0  0  0  0  0  0  0  0  0  0  0  0
    0.5432   -1.2873    0.0141 C   0  0  0  0  0  0  0  0  0  0  0  0
   -0.8501   -1.1057   -0.0153 C   0  0  0  0  0  0  0  0  0  0  0  0
   -1.3983    0.1767   -0.0058 C   0  0  0  0  0  0  0  0  0  0  0  0
   -0.5577    1.2773    0.0137 C   0  0  0  0  0  0  0  0  0  0  0  0
    0.8220    1.0941   -0.0259 C   0  0  0  0  0  0  0  0  0  0  0  0
    3.1293   -1.3238    0.2593 H   0  0  0  0  0  0  0  0  0  0  0  0
    5.1819   -1.2518   -1.0428 H   0  0  0  0  0  0  0  0  0  0  0  0
    7.6337   -1.5548   -0.9387 H   0  0  0  0  0  0  0  0  0  0  0  0
    9.0139   -0.0824    0.5011 H   0  0  0  0  0  0  0  0  0  0  0  0
    7.9514    1.6922    1.8467 H   0  0  0  0  0  0  0  0  0  0  0  0
    5.6526    1.7520    3.3270 H   0  0  0  0  0  0  0  0  0  0  0  0
    5.6369    3.0953    2.1512 H   0  0  0  0  0  0  0  0  0  0  0  0
    4.2349    2.0275    2.3525 H   0  0  0  0  0  0  0  0  0  0  0  0
    0.9306   -2.3023    0.0290 H   0  0  0  0  0  0  0  0  0  0  0  0
   -1.5163   -1.9647   -0.0275 H   0  0  0  0  0  0  0  0  0  0  0  0
   -2.4739    0.3266   -0.0206 H   0  0  0  0  0  0  0  0  0  0  0  0
   -0.9534    2.2877    0.0654 H   0  0  0  0  0  0  0  0  0  0  0  0
    1.4156    1.9972   -0.0855 H   0  0  0  0  0  0  0  0  0  0  0  0
  1  2  1  0  0  0  0
  1 12  1  0  0  0  0
  1 16  2  0  0  0  0
  2  3  1  0  0  0  0
  2 17  1  0  0  0  0
  3  4  1  0  0  0  0
  3 11  2  0  0  0  0
  4  5  1  0  0  0  0
  4  9  2  0  0  0  0
  5  6  2  0  0  0  0
  5 18  1  0  0  0  0
  6  7  1  0  0  0  0
  6 19  1  0  0  0  0
  7 20  1  0  0  0  0
  8  7  2  0  0  0  0
  8 21  1  0  0  0  0
  9  8  1  0  0  0  0
  9 10  1  0  0  0  0
 10 22  1  0  0  0  0
 10 23  1  0  0  0  0
 10 24  1  0  0  0  0
 12 13  2  0  0  0  0
 12 25  1  0  0  0  0
 13 14  1  0  0  0  0
 13 26  1  0  0  0  0
 14 27  1  0  0  0  0
 15 14  2  0  0  0  0
 15 28  1  0  0  0  0
 16 15  1  0  0  0  0
 16 29  1  0  0  0  0
M  END
>  <DRUGBANK_ID>
DB14728

>  <COMMON_NAME>
Mebenil

>  <CAS_NUMBER>
7055-03-0

>  <UNII>
B8MA40FMWG

>  <SYNONYMS>
2-Methyl-N-phenylbenzamide; 2-Methylbenzanilide; 2-Methylbenzoanilide; 2-Methylbenzoic acid anilide; o-Methylbenzanilide; o-Toluanilide

$$$$
