
 OpenBabel10282417233D

 22 22  0  0  0  0  0  0  0  0999 V2000
    0.1670   -1.2500    0.0142 C   0  0  0  0  0  0  0  0  0  0  0  0
    0.8769   -0.0369    0.0107 C   0  0  0  0  0  0  0  0  0  0  0  0
   -1.2299   -1.1928   -0.0020 C   0  0  0  0  0  0  0  0  0  0  0  0
    0.8895   -2.5588    0.0405 C   0  0  0  0  0  0  0  0  0  0  0  0
    0.2009    1.1903    0.0105 C   0  0  0  0  0  0  0  0  0  0  0  0
    2.2473    0.0315    0.0043 O   0  0  0  0  0  0  0  0  0  0  0  0
   -1.9019    0.0311   -0.0129 C   0  0  0  0  0  0  0  0  0  0  0  0
    0.1364   -3.8699    0.0636 C   0  0  0  0  0  0  0  0  0  0  0  0
    2.1250   -2.5501    0.0467 O   0  0  0  0  0  0  0  0  0  0  0  0
   -1.1959    1.2298   -0.0013 C   0  0  0  0  0  0  0  0  0  0  0  0
   -1.7731    2.4711   -0.0020 O   0  0  0  0  0  0  0  0  0  0  0  0
   -3.1999    2.5028   -0.0177 C   0  0  0  0  0  0  0  0  0  0  0  0
   -1.8554   -2.0755   -0.0073 H   0  0  0  0  0  0  0  0  0  0  0  0
    0.7715    2.1162    0.0194 H   0  0  0  0  0  0  0  0  0  0  0  0
    2.6019   -0.8865   -0.0033 H   0  0  0  0  0  0  0  0  0  0  0  0
   -2.9861    0.0034   -0.0282 H   0  0  0  0  0  0  0  0  0  0  0  0
    0.4130   -4.4551   -0.8173 H   0  0  0  0  0  0  0  0  0  0  0  0
    0.3976   -4.4162    0.9739 H   0  0  0  0  0  0  0  0  0  0  0  0
   -0.9462   -3.7714    0.0526 H   0  0  0  0  0  0  0  0  0  0  0  0
   -3.5952    2.0353   -0.9272 H   0  0  0  0  0  0  0  0  0  0  0  0
   -3.6160    2.0263    0.8777 H   0  0  0  0  0  0  0  0  0  0  0  0
   -3.5227    3.5474   -0.0162 H   0  0  0  0  0  0  0  0  0  0  0  0
  1  2  1  0  0  0  0
  1  3  2  0  0  0  0
  1  4  1  0  0  0  0
  2  5  2  0  0  0  0
  2  6  1  0  0  0  0
  3  7  1  0  0  0  0
  3 13  1  0  0  0  0
  4  8  1  0  0  0  0
  4  9  2  0  0  0  0
  5 10  1  0  0  0  0
  5 14  1  0  0  0  0
  6 15  1  0  0  0  0
  7 10  2  0  0  0  0
  7 16  1  0  0  0  0
  8 17  1  0  0  0  0
  8 18  1  0  0  0  0
  8 19  1  0  0  0  0
 10 11  1  0  0  0  0
 11 12  1  0  0  0  0
 12 20  1  0  0  0  0
 12 21  1  0  0  0  0
 12 22  1  0  0  0  0
M  END
>  <DRUGBANK_ID>
DB16830

>  <COMMON_NAME>
Paeonol

>  <CAS_NUMBER>
552-41-0

>  <UNII>
3R834EPI82

>  <SYNONYMS>
Peonol

$$$$
