
 OpenBabel10282417203D

 43 44  0  0  0  0  0  0  0  0999 V2000
    2.3831   -0.6707    0.0119 C   0  0  0  0  0  0  0  0  0  0  0  0
    1.1337   -1.2989    0.0376 C   0  0  0  0  0  0  0  0  0  0  0  0
   -0.0661   -0.6128    0.0361 C   0  0  0  0  0  0  0  0  0  0  0  0
   -0.0520    0.7859    0.0311 C   0  0  0  0  0  0  0  0  0  0  0  0
   -1.2949    1.4405    0.0040 C   0  0  0  0  0  0  0  0  0  0  0  0
   -2.4992    0.7161   -0.0096 C   0  0  0  0  0  0  0  0  0  0  0  0
   -3.6421    1.4703   -0.0265 O   0  0  0  0  0  0  0  0  0  0  0  0
   -4.8664    0.7420   -0.0199 C   0  0  0  0  0  0  0  0  0  0  0  0
   -2.4739   -0.6773   -0.0039 C   0  0  0  0  0  0  0  0  0  0  0  0
   -1.2588   -1.3403    0.0208 C   0  0  0  0  0  0  0  0  0  0  0  0
    1.1972    1.4474    0.0423 C   0  0  0  0  0  0  0  0  0  0  0  0
    2.4039    0.7274    0.0238 C   0  0  0  0  0  0  0  0  0  0  0  0
    3.6545   -1.5111   -0.0916 C   0  0  1  0  0  0  0  0  0  0  0  0
    3.8645   -2.3273    1.2312 C   0  0  0  0  0  0  0  0  0  0  0  0
    2.8374   -3.4019    1.5819 C   0  0  0  0  0  0  0  0  0  0  0  0
    3.7923   -2.3343   -1.4483 C   0  0  0  0  0  0  0  0  0  0  0  0
    3.6710   -1.3687   -2.6561 C   0  0  0  0  0  0  0  0  0  0  0  0
    4.6959   -1.3601   -3.5372 O   0  0  0  0  0  0  0  0  0  0  0  0
    2.6884   -0.6880   -2.8840 O   0  0  0  0  0  0  0  0  0  0  0  0
    5.1363   -3.0933   -1.4353 C   0  0  0  0  0  0  0  0  0  0  0  0
    2.6973   -3.3894   -1.7011 C   0  0  0  0  0  0  0  0  0  0  0  0
    1.0599   -2.3769    0.0238 H   0  0  0  0  0  0  0  0  0  0  0  0
   -1.3261    2.5258   -0.0163 H   0  0  0  0  0  0  0  0  0  0  0  0
   -4.9633    0.1250   -0.9206 H   0  0  0  0  0  0  0  0  0  0  0  0
   -4.9595    0.1307    0.8854 H   0  0  0  0  0  0  0  0  0  0  0  0
   -5.6878    1.4624   -0.0198 H   0  0  0  0  0  0  0  0  0  0  0  0
   -3.3734   -1.2816   -0.0225 H   0  0  0  0  0  0  0  0  0  0  0  0
   -1.2510   -2.4285    0.0199 H   0  0  0  0  0  0  0  0  0  0  0  0
    1.2344    2.5340    0.0431 H   0  0  0  0  0  0  0  0  0  0  0  0
    3.3439    1.2743   -0.0193 H   0  0  0  0  0  0  0  0  0  0  0  0
    4.4930   -0.7911   -0.1053 H   0  0  0  0  0  0  0  0  0  0  0  0
    4.8533   -2.7983    1.2213 H   0  0  0  0  0  0  0  0  0  0  0  0
    3.8967   -1.6239    2.0738 H   0  0  0  0  0  0  0  0  0  0  0  0
    2.8034   -4.2028    0.8513 H   0  0  0  0  0  0  0  0  0  0  0  0
    3.0695   -3.8903    2.5282 H   0  0  0  0  0  0  0  0  0  0  0  0
    1.8371   -2.9920    1.7113 H   0  0  0  0  0  0  0  0  0  0  0  0
    5.4428   -1.9585   -3.3838 H   0  0  0  0  0  0  0  0  0  0  0  0
    5.2233   -3.7756   -0.5855 H   0  0  0  0  0  0  0  0  0  0  0  0
    5.2388   -3.7186   -2.3294 H   0  0  0  0  0  0  0  0  0  0  0  0
    5.9866   -2.4027   -1.3995 H   0  0  0  0  0  0  0  0  0  0  0  0
    2.7170   -4.2006   -0.9808 H   0  0  0  0  0  0  0  0  0  0  0  0
    1.6963   -2.9608   -1.7284 H   0  0  0  0  0  0  0  0  0  0  0  0
    2.8127   -3.8717   -2.6741 H   0  0  0  0  0  0  0  0  0  0  0  0
  1  2  1  0  0  0  0
  1 12  2  0  0  0  0
  1 13  1  0  0  0  0
  2  3  2  0  0  0  0
  2 22  1  0  0  0  0
  3  4  1  0  0  0  0
  3 10  1  0  0  0  0
  4  5  1  0  0  0  0
  4 11  2  0  0  0  0
  5  6  2  0  0  0  0
  5 23  1  0  0  0  0
  6  7  1  0  0  0  0
  6  9  1  0  0  0  0
  7  8  1  0  0  0  0
  8 24  1  0  0  0  0
  8 25  1  0  0  0  0
  8 26  1  0  0  0  0
  9 10  2  0  0  0  0
  9 27  1  0  0  0  0
 10 28  1  0  0  0  0
 11 12  1  0  0  0  0
 11 29  1  0  0  0  0
 12 30  1  0  0  0  0
 13 14  1  0  0  0  0
 13 16  1  0  0  0  0
 13 31  1  6  0  0  0
 14 15  1  0  0  0  0
 14 32  1  0  0  0  0
 14 33  1  0  0  0  0
 15 34  1  0  0  0  0
 15 35  1  0  0  0  0
 15 36  1  0  0  0  0
 16 17  1  0  0  0  0
 16 20  1  0  0  0  0
 16 21  1  0  0  0  0
 17 18  1  0  0  0  0
 17 19  2  0  0  0  0
 18 37  1  0  0  0  0
 20 38  1  0  0  0  0
 20 39  1  0  0  0  0
 20 40  1  0  0  0  0
 21 41  1  0  0  0  0
 21 42  1  0  0  0  0
 21 43  1  0  0  0  0
M  END
>  <DRUGBANK_ID>
DB13143

>  <COMMON_NAME>
Methallenestril

>  <CAS_NUMBER>
517-18-0

>  <UNII>
XL025389JS

>  <SYNONYMS>
Metalenestrilo; Methallenestril; Methallenestrilum

$$$$
