
 OpenBabel10282417173D

 55 59  0  0  1  0  0  0  0  0999 V2000
    2.4582    0.0043   -0.0179 C   0  0  0  0  0  0  0  0  0  0  0  0
   -2.5368   -5.8416    0.8118 C   0  0  0  0  0  0  0  0  0  0  0  0
    0.2370    1.2031   -0.0041 C   0  0  0  0  0  0  0  0  0  0  0  0
    3.8121   -4.4262   -5.9611 C   0  0  0  0  0  0  0  0  0  0  0  0
   -1.1584    1.1773   -0.0221 C   0  0  0  0  0  0  0  0  0  0  0  0
    2.5351   -4.4514   -5.3748 C   0  0  0  0  0  0  0  0  0  0  0  0
   -1.3359   -5.8407   -1.4472 C   0  0  0  0  0  0  0  0  0  0  0  0
   -5.2708   -0.2709    0.5228 C   0  0  0  0  0  0  0  0  0  0  0  0
   -5.1997    0.4117   -0.6959 C   0  0  0  0  0  0  0  0  0  0  0  0
   -0.0177   -6.4443   -0.9935 C   0  0  0  0  0  0  0  0  0  0  0  0
    1.2376   -4.7139    0.2942 C   0  0  0  0  0  0  0  0  0  0  0  0
   -0.0620   -4.1834    0.9761 C   0  0  0  0  0  0  0  0  0  0  0  0
    0.2522   -1.2077    0.0334 C   0  0  0  0  0  0  0  0  0  0  0  0
    4.8573   -5.1351   -3.8697 C   0  0  0  0  0  0  0  0  0  0  0  0
    0.9552    0.0098    0.0126 C   0  0  0  0  0  0  0  0  0  0  0  0
   -2.0265   -5.0032   -0.3662 C   0  0  2  0  0  0  0  0  0  0  0  0
    4.9472   -4.7750   -5.2225 C   0  0  0  0  0  0  0  0  0  0  0  0
   -1.1496   -1.2781    0.1100 C   0  0  0  0  0  0  0  0  0  0  0  0
    3.5898   -5.1408   -3.2630 C   0  0  0  0  0  0  0  0  0  0  0  0
   -1.8507   -0.0491    0.0488 C   0  0  0  0  0  0  0  0  0  0  0  0
    2.4794   -4.8307   -4.0311 C   0  0  0  0  0  0  0  0  0  0  0  0
   -1.8610   -2.6044    0.0298 C   0  0  0  0  0  0  0  0  0  0  0  0
    1.8870   -5.3018   -1.9895 C   0  0  0  0  0  0  0  0  0  0  0  0
    6.4924   -4.7529   -5.9902 Cl  0  0  0  0  0  0  0  0  0  0  0  0
   -4.0450   -0.4212    1.0332 N   0  0  0  0  0  0  0  0  0  0  0  0
   -3.9254    0.7049   -0.9772 N   0  0  0  0  0  0  0  0  0  0  0  0
    3.2020   -5.3948   -1.9644 N   0  0  0  0  0  0  0  0  0  0  0  0
    0.9995   -5.4066   -0.9694 N   0  0  0  0  0  0  0  0  0  0  0  0
   -1.2076   -3.8545    0.0930 N   0  0  0  0  0  0  0  0  0  0  0  0
   -3.2656    0.0039   -0.0027 N   0  0  0  0  0  0  0  0  0  0  0  0
   -3.0723   -2.5809   -0.2123 O   0  0  0  0  0  0  0  0  0  0  0  0
    1.3778   -4.9701   -3.2274 O   0  0  0  0  0  0  0  0  0  0  0  0
   -2.9242   -4.6219   -0.8695 H   0  0  0  0  0  0  0  0  0  0  0  0
    2.8516   -0.5220    0.8586 H   0  0  0  0  0  0  0  0  0  0  0  0
    2.8216   -0.4914   -0.9242 H   0  0  0  0  0  0  0  0  0  0  0  0
    2.8649    1.0209   -0.0041 H   0  0  0  0  0  0  0  0  0  0  0  0
   -3.3111   -6.5412    0.4897 H   0  0  0  0  0  0  0  0  0  0  0  0
   -1.7458   -6.4423    1.2684 H   0  0  0  0  0  0  0  0  0  0  0  0
   -2.9436   -5.1958    1.5976 H   0  0  0  0  0  0  0  0  0  0  0  0
    0.7573    2.1586   -0.0202 H   0  0  0  0  0  0  0  0  0  0  0  0
    3.9181   -4.1355   -7.0067 H   0  0  0  0  0  0  0  0  0  0  0  0
   -1.7037    2.1199   -0.0554 H   0  0  0  0  0  0  0  0  0  0  0  0
    1.6494   -4.1837   -5.9390 H   0  0  0  0  0  0  0  0  0  0  0  0
   -1.1700   -5.2165   -2.3353 H   0  0  0  0  0  0  0  0  0  0  0  0
   -2.0198   -6.6417   -1.7520 H   0  0  0  0  0  0  0  0  0  0  0  0
   -6.1335   -0.6383    1.0601 H   0  0  0  0  0  0  0  0  0  0  0  0
   -5.9975    0.7207   -1.3584 H   0  0  0  0  0  0  0  0  0  0  0  0
   -0.1171   -6.8960    0.0014 H   0  0  0  0  0  0  0  0  0  0  0  0
    0.2613   -7.2775   -1.6491 H   0  0  0  0  0  0  0  0  0  0  0  0
    1.7445   -5.3822    1.0031 H   0  0  0  0  0  0  0  0  0  0  0  0
    1.9184   -3.8715    0.1378 H   0  0  0  0  0  0  0  0  0  0  0  0
   -0.3993   -4.9639    1.6647 H   0  0  0  0  0  0  0  0  0  0  0  0
    0.1489   -3.3509    1.6546 H   0  0  0  0  0  0  0  0  0  0  0  0
    0.8405   -2.1055   -0.0629 H   0  0  0  0  0  0  0  0  0  0  0  0
    5.7400   -5.4006   -3.3003 H   0  0  0  0  0  0  0  0  0  0  0  0
  1 34  1  0  0  0  0
  1 35  1  0  0  0  0
  1 36  1  0  0  0  0
  2 37  1  0  0  0  0
  2 38  1  0  0  0  0
  2 39  1  0  0  0  0
  3 40  1  0  0  0  0
  4 41  1  0  0  0  0
  5  3  2  0  0  0  0
  5 42  1  0  0  0  0
  6  4  2  0  0  0  0
  6 43  1  0  0  0  0
  7 44  1  0  0  0  0
  7 45  1  0  0  0  0
  8 46  1  0  0  0  0
  9  8  1  0  0  0  0
  9 47  1  0  0  0  0
 10  7  1  0  0  0  0
 10 48  1  0  0  0  0
 10 49  1  0  0  0  0
 11 50  1  0  0  0  0
 11 51  1  0  0  0  0
 12 11  1  0  0  0  0
 12 52  1  0  0  0  0
 12 53  1  0  0  0  0
 13 54  1  0  0  0  0
 14 55  1  0  0  0  0
 15  1  1  0  0  0  0
 15  3  1  0  0  0  0
 15 13  2  0  0  0  0
 16  7  1  0  0  0  0
 16 33  1  6  0  0  0
 16  2  1  0  0  0  0
 17  4  1  0  0  0  0
 17 14  2  0  0  0  0
 18 13  1  0  0  0  0
 19 14  1  0  0  0  0
 20  5  1  0  0  0  0
 20 18  2  0  0  0  0
 21  6  1  0  0  0  0
 21 19  2  0  0  0  0
 22 18  1  0  0  0  0
 24 17  1  0  0  0  0
 25  8  2  0  0  0  0
 26  9  2  0  0  0  0
 27 19  1  0  0  0  0
 27 23  2  0  0  0  0
 28 10  1  0  0  0  0
 28 11  1  0  0  0  0
 28 23  1  0  0  0  0
 29 12  1  0  0  0  0
 29 16  1  0  0  0  0
 29 22  1  0  0  0  0
 30 20  1  0  0  0  0
 30 25  1  0  0  0  0
 30 26  1  0  0  0  0
 31 22  2  0  0  0  0
 32 21  1  0  0  0  0
 32 23  1  0  0  0  0
M  END
>  <DRUGBANK_ID>
DB09034

>  <COMMON_NAME>
Suvorexant

>  <CAS_NUMBER>
1030377-33-3

>  <UNII>
081L192FO9

>  <SYNONYMS>
Suvorexant

$$$$
