
 OpenBabel10282417133D

 19 19  0  0  0  0  0  0  0  0999 V2000
    1.0534   -0.0491   -0.0071 C   0  0  0  0  0  0  0  0  0  0  0  0
    0.5731    0.3212    1.2814 O   0  0  0  0  0  0  0  0  0  0  0  0
    0.1546   -0.6643    2.1370 C   0  0  0  0  0  0  0  0  0  0  0  0
    0.0600   -2.0275    1.8441 C   0  0  0  0  0  0  0  0  0  0  0  0
   -0.4415   -2.9232    2.7981 C   0  0  0  0  0  0  0  0  0  0  0  0
   -0.5919   -4.2770    2.5956 O   0  0  0  0  0  0  0  0  0  0  0  0
   -0.1612   -4.6140    1.2487 O   0  0  0  0  0  0  0  0  0  0  0  0
   -0.8315   -2.4577    4.0539 C   0  0  0  0  0  0  0  0  0  0  0  0
   -0.7198   -1.1051    4.3684 C   0  0  0  0  0  0  0  0  0  0  0  0
   -0.2300   -0.2236    3.4101 C   0  0  0  0  0  0  0  0  0  0  0  0
   -0.1345    1.0970    3.7600 O   0  0  0  0  0  0  0  0  0  0  0  0
    0.7529    0.7315   -0.7124 H   0  0  0  0  0  0  0  0  0  0  0  0
    0.6524   -0.9826   -0.4055 H   0  0  0  0  0  0  0  0  0  0  0  0
    2.1462   -0.0918    0.0148 H   0  0  0  0  0  0  0  0  0  0  0  0
    0.3595   -2.4219    0.8849 H   0  0  0  0  0  0  0  0  0  0  0  0
   -0.3446   -5.5661    1.3238 H   0  0  0  0  0  0  0  0  0  0  0  0
   -1.2227   -3.1519    4.7936 H   0  0  0  0  0  0  0  0  0  0  0  0
   -1.0139   -0.7390    5.3460 H   0  0  0  0  0  0  0  0  0  0  0  0
    0.2337    1.5489    2.9770 H   0  0  0  0  0  0  0  0  0  0  0  0
  1  2  1  0  0  0  0
  1 12  1  0  0  0  0
  1 13  1  0  0  0  0
  1 14  1  0  0  0  0
  2  3  1  0  0  0  0
  3  4  2  0  0  0  0
  3 10  1  0  0  0  0
  4  5  1  0  0  0  0
  4 15  1  0  0  0  0
  5  6  1  0  0  0  0
  5  8  2  0  0  0  0
  6  7  1  0  0  0  0
  7 16  1  0  0  0  0
  8  9  1  0  0  0  0
  8 17  1  0  0  0  0
  9 10  2  0  0  0  0
  9 18  1  0  0  0  0
 10 11  1  0  0  0  0
 11 19  1  0  0  0  0
M  END
>  <DRUGBANK_ID>
DB03764

>  <SECONDARY_ACCESSION_NUMBERS>
EXPT00216

>  <COMMON_NAME>
4-Hydroperoxy-2-Methoxy-Phenol

$$$$
