
 OpenBabel10282417223D

 22 22  0  0  0  0  0  0  0  0999 V2000
    0.1579   -1.1664   -0.1544 C   0  0  0  0  0  0  0  0  0  0  0  0
   -1.2255   -0.9826   -0.3159 C   0  0  0  0  0  0  0  0  0  0  0  0
    0.8410   -2.5074   -0.0371 C   0  0  0  0  0  0  0  0  0  0  0  0
    0.9167    0.0068   -0.0344 C   0  0  0  0  0  0  0  0  0  0  0  0
   -1.8605    0.2430   -0.1539 C   0  0  0  0  0  0  0  0  0  0  0  0
    0.1835   -3.6869    0.1009 O   0  0  0  0  0  0  0  0  0  0  0  0
    2.0795   -2.5185   -0.0060 O   0  0  0  0  0  0  0  0  0  0  0  0
    0.2935    1.2624    0.0117 C   0  0  0  0  0  0  0  0  0  0  0  0
   -1.0960    1.3769   -0.0071 C   0  0  0  0  0  0  0  0  0  0  0  0
   -1.2396   -3.8743    0.1740 C   0  0  0  0  0  0  0  0  0  0  0  0
   -1.8091   -3.2621    1.4534 C   0  0  0  0  0  0  0  0  0  0  0  0
    2.2863    0.0305    0.0383 O   0  0  0  0  0  0  0  0  0  0  0  0
   -1.9278   -1.7693   -0.5075 H   0  0  0  0  0  0  0  0  0  0  0  0
   -2.9479    0.2761   -0.1451 H   0  0  0  0  0  0  0  0  0  0  0  0
    0.8983    2.1609    0.0795 H   0  0  0  0  0  0  0  0  0  0  0  0
   -1.5861    2.3414    0.0681 H   0  0  0  0  0  0  0  0  0  0  0  0
   -1.6718   -3.5414   -0.7754 H   0  0  0  0  0  0  0  0  0  0  0  0
   -1.4555   -4.9463    0.1726 H   0  0  0  0  0  0  0  0  0  0  0  0
   -1.4056   -2.2758    1.7009 H   0  0  0  0  0  0  0  0  0  0  0  0
   -2.8970   -3.1696    1.3919 H   0  0  0  0  0  0  0  0  0  0  0  0
   -1.5325   -3.8689    2.3161 H   0  0  0  0  0  0  0  0  0  0  0  0
    2.6225   -0.8935   -0.0008 H   0  0  0  0  0  0  0  0  0  0  0  0
  1  2  2  0  0  0  0
  1  3  1  0  0  0  0
  1  4  1  0  0  0  0
  2  5  1  0  0  0  0
  2 13  1  0  0  0  0
  3  6  1  0  0  0  0
  3  7  2  0  0  0  0
  4  8  2  0  0  0  0
  4 12  1  0  0  0  0
  5  9  2  0  0  0  0
  5 14  1  0  0  0  0
  6 10  1  0  0  0  0
  8  9  1  0  0  0  0
  8 15  1  0  0  0  0
  9 16  1  0  0  0  0
 10 11  1  0  0  0  0
 10 17  1  0  0  0  0
 10 18  1  0  0  0  0
 11 19  1  0  0  0  0
 11 20  1  0  0  0  0
 11 21  1  0  0  0  0
 12 22  1  0  0  0  0
M  END
>  <DRUGBANK_ID>
DB15576

>  <COMMON_NAME>
Ethyl salicylate

>  <CAS_NUMBER>
118-61-6

>  <UNII>
555U6TZ2MV

>  <SYNONYMS>
Ethyl 2-hydroxybenzoate; Ethyl o-hydroxybenzoate; Ethyl salicylate; Salicyclic acid, ethyl ester; Salicylic ether; Salicylic ethyl ester

$$$$
