
 OpenBabel10282417163D

 34 35  0  0  0  0  0  0  0  0999 V2000
   -0.5004    1.3141   -0.0091 C   0  0  0  0  0  0  0  0  0  0  0  0
   -1.1866    2.6449    0.0759 C   0  0  0  0  0  0  0  0  0  0  0  0
   -1.3280    0.1542   -0.0075 C   0  0  0  0  0  0  0  0  0  0  0  0
    0.8859    1.1063   -0.0410 C   0  0  0  0  0  0  0  0  0  0  0  0
   -0.4897    3.9892   -0.1445 C   0  0  0  0  0  0  0  0  0  0  0  0
   -2.3757    2.6170    0.3876 O   0  0  0  0  0  0  0  0  0  0  0  0
   -0.7916   -1.1361   -0.0024 C   0  0  0  0  0  0  0  0  0  0  0  0
   -2.7047    0.1834   -0.0208 O   0  0  0  0  0  0  0  0  0  0  0  0
    1.4147   -0.1877   -0.0316 C   0  0  0  0  0  0  0  0  0  0  0  0
    1.8746    2.0455   -0.1163 O   0  0  0  0  0  0  0  0  0  0  0  0
   -0.7391    4.6884   -1.4777 C   0  0  0  0  0  0  0  0  0  0  0  0
    0.5809   -1.2942   -0.0064 C   0  0  0  0  0  0  0  0  0  0  0  0
   -2.1571    5.1481   -1.6309 C   0  0  0  0  0  0  0  0  0  0  0  0
    1.0990   -2.5528    0.0089 O   0  0  0  0  0  0  0  0  0  0  0  0
   -2.5007    6.5011   -1.5467 C   0  0  0  0  0  0  0  0  0  0  0  0
   -3.1670    4.1935   -1.7891 C   0  0  0  0  0  0  0  0  0  0  0  0
   -3.8446    6.8788   -1.5894 C   0  0  0  0  0  0  0  0  0  0  0  0
   -4.5016    4.5565   -1.7308 C   0  0  0  0  0  0  0  0  0  0  0  0
   -4.8324    5.8977   -1.6610 C   0  0  0  0  0  0  0  0  0  0  0  0
   -6.1591    6.2032   -1.6867 O   0  0  0  0  0  0  0  0  0  0  0  0
   -0.7787    4.6240    0.7032 H   0  0  0  0  0  0  0  0  0  0  0  0
    0.5803    3.9271   -0.0789 H   0  0  0  0  0  0  0  0  0  0  0  0
   -1.4451   -2.0045    0.0130 H   0  0  0  0  0  0  0  0  0  0  0  0
   -3.0012    1.1153    0.0847 H   0  0  0  0  0  0  0  0  0  0  0  0
    2.4938   -0.3044   -0.0339 H   0  0  0  0  0  0  0  0  0  0  0  0
    1.7041    2.7958    0.4671 H   0  0  0  0  0  0  0  0  0  0  0  0
   -0.0681    5.5586   -1.5258 H   0  0  0  0  0  0  0  0  0  0  0  0
   -0.4609    4.0453   -2.3200 H   0  0  0  0  0  0  0  0  0  0  0  0
    2.0688   -2.4849   -0.0040 H   0  0  0  0  0  0  0  0  0  0  0  0
   -1.7298    7.2621   -1.4427 H   0  0  0  0  0  0  0  0  0  0  0  0
   -2.9241    3.1395   -1.8884 H   0  0  0  0  0  0  0  0  0  0  0  0
   -4.0985    7.9322   -1.5464 H   0  0  0  0  0  0  0  0  0  0  0  0
   -5.2684    3.7892   -1.7346 H   0  0  0  0  0  0  0  0  0  0  0  0
   -6.2513    7.1657   -1.7469 H   0  0  0  0  0  0  0  0  0  0  0  0
  1  2  1  0  0  0  0
  1  3  1  0  0  0  0
  1  4  2  0  0  0  0
  2  5  1  0  0  0  0
  2  6  2  0  0  0  0
  3  7  2  0  0  0  0
  3  8  1  0  0  0  0
  4  9  1  0  0  0  0
  4 10  1  0  0  0  0
  5 11  1  0  0  0  0
  5 21  1  0  0  0  0
  5 22  1  0  0  0  0
  7 12  1  0  0  0  0
  7 23  1  0  0  0  0
  8 24  1  0  0  0  0
  9 12  2  0  0  0  0
  9 25  1  0  0  0  0
 10 26  1  0  0  0  0
 11 13  1  0  0  0  0
 11 27  1  0  0  0  0
 11 28  1  0  0  0  0
 12 14  1  0  0  0  0
 13 15  1  0  0  0  0
 13 16  2  0  0  0  0
 14 29  1  0  0  0  0
 15 17  2  0  0  0  0
 15 30  1  0  0  0  0
 16 18  1  0  0  0  0
 16 31  1  0  0  0  0
 17 19  1  0  0  0  0
 17 32  1  0  0  0  0
 18 19  2  0  0  0  0
 18 33  1  0  0  0  0
 19 20  1  0  0  0  0
 20 34  1  0  0  0  0
M  END
>  <DRUGBANK_ID>
DB07810

>  <COMMON_NAME>
Phloretin

>  <CAS_NUMBER>
60-82-2

>  <UNII>
S5J5OE47MK

>  <SYNONYMS>
2',4,4',6'-Tetrahydroxy-Dihydrochalcone; 2',4,4',6'-Tetrahydroxydihydrochalcone; Dihydronaringenin; Phloretol

$$$$
