
 OpenBabel10282417183D

167175  0  0  0  0  0  0  0  0999 V2000
   -1.8903   -3.2702   -0.2719 O   0  0  0  0  0  0  0  0  0  0  0  0
   -1.1157   -3.0923    0.7974 C   0  0  1  0  0  0  0  0  0  0  0  0
   -0.8993   -1.6993    0.9308 C   0  0  1  0  0  0  0  0  0  0  0  0
   -1.5540   -1.1020   -0.0640 C   0  0  0  0  0  0  0  0  0  0  0  0
   -2.1612   -2.0573   -0.8021 C   0  0  0  0  0  0  0  0  0  0  0  0
   -0.5230   -4.0405    1.7454 C   0  0  0  0  0  0  0  0  0  0  0  0
   -0.4616   -3.3581    3.0921 C   0  0  0  0  0  0  0  0  0  0  0  0
   -0.2637   -2.0731    3.2160 C   0  0  0  0  0  0  0  0  0  0  0  0
   -0.0796   -1.1655    2.0211 C   0  0  1  0  0  0  0  0  0  0  0  0
    5.7180    0.5594    6.7620 C   0  0  0  0  0  0  0  0  0  0  0  0
    5.9481    1.0296    5.3349 C   0  0  0  0  0  0  0  0  0  0  0  0
    4.9497    1.6566    4.6561 C   0  0  0  0  0  0  0  0  0  0  0  0
    5.1798    2.1268    3.2291 C   0  0  0  0  0  0  0  0  0  0  0  0
    4.1878    1.4413    2.3036 C   0  0  2  0  0  0  0  0  0  0  0  0
    3.7026   -0.3199    0.1638 C   0  0  0  0  0  0  0  0  0  0  0  0
    3.4991   -0.7189    1.5202 C   0  0  1  0  0  0  0  0  0  0  0  0
    3.7997   -2.2134    1.6623 O   0  0  0  0  0  0  0  0  0  0  0  0
    5.2355   -2.4843    1.2030 C   0  0  1  0  0  0  0  0  0  0  0  0
    5.3992   -1.9922   -0.2393 C   0  0  2  0  0  0  0  0  0  0  0  0
    5.0386   -0.5064   -0.3068 C   0  0  0  0  0  0  0  0  0  0  0  0
    2.7612    1.7930    2.7337 C   0  0  0  0  0  0  0  0  0  0  0  0
    1.7678    1.0507    1.8348 C   0  0  1  0  0  0  0  0  0  0  0  0
    2.0450   -0.4536    1.9175 C   0  0  0  0  0  0  0  0  0  0  0  0
    4.3702    0.0261    2.3738 O   0  0  0  0  0  0  0  0  0  0  0  0
    7.2936    0.7992    4.6664 C   0  0  0  0  0  0  0  0  0  0  0  0
    4.3499    1.7728    1.2992 H   0  0  0  0  0  0  0  0  0  0  0  0
    4.4768   -2.7815   -1.1539 C   0  0  0  0  0  0  0  0  0  0  0  0
    0.4379    1.3170    2.2551 O   0  0  0  0  0  0  0  0  0  0  0  0
   -0.4997    0.2556    2.3594 C   0  0  0  0  0  0  0  0  0  0  0  0
   -1.6900    0.4939    2.7356 O   0  0  0  0  0  0  0  0  0  0  0  0
   -0.6363   -4.1971    4.3475 C   0  0  0  0  0  0  0  0  0  0  0  0
   -0.1185   -5.2624    1.4733 N   0  0  0  0  0  0  0  0  0  0  0  0
    9.5776   -2.2853    6.8488 C   0  0  0  0  0  0  0  0  0  0  0  0
    8.1613   -1.9354    7.2755 C   0  0  0  0  0  0  0  0  0  0  0  0
    7.3285   -1.2963    6.4102 C   0  0  0  0  0  0  0  0  0  0  0  0
    5.9123   -0.9463    6.8369 C   0  0  2  0  0  0  0  0  0  0  0  0
    4.9203   -1.6318    5.9114 C   0  0  0  0  0  0  0  0  0  0  0  0
    0.9499   -1.1496    1.7299 H   0  0  0  0  0  0  0  0  0  0  0  0
   -0.9943   -4.1097    1.1060 H   0  0  0  0  0  0  0  0  0  0  0  0
   -0.3372   -0.5638    1.5719 O   0  0  0  0  0  0  0  0  0  0  0  0
   -0.2352   -5.7551    0.2003 O   0  0  0  0  0  0  0  0  0  0  0  0
    6.2080   -1.7449    2.1073 C   0  0  0  0  0  0  0  0  0  0  0  0
    7.5448   -0.3038    1.4405 C   0  0  0  0  0  0  0  0  0  0  0  0
   -1.8903   -3.2702   -0.2719 O   0  0  0  0  0  0  0  0  0  0  0  0
   -1.1157   -3.0923    0.7974 C   0  0  1  0  0  0  0  0  0  0  0  0
   -0.8993   -1.6993    0.9308 C   0  0  1  0  0  0  0  0  0  0  0  0
   -1.5540   -1.1020   -0.0640 C   0  0  0  0  0  0  0  0  0  0  0  0
   -2.1612   -2.0573   -0.8021 C   0  0  0  0  0  0  0  0  0  0  0  0
   -0.5230   -4.0405    1.7454 C   0  0  0  0  0  0  0  0  0  0  0  0
   -0.4616   -3.3581    3.0921 C   0  0  0  0  0  0  0  0  0  0  0  0
   -0.2637   -2.0731    3.2160 C   0  0  0  0  0  0  0  0  0  0  0  0
   -0.0796   -1.1655    2.0211 C   0  0  1  0  0  0  0  0  0  0  0  0
    5.7180    0.5594    6.7620 C   0  0  0  0  0  0  0  0  0  0  0  0
    5.9481    1.0296    5.3349 C   0  0  0  0  0  0  0  0  0  0  0  0
    4.9497    1.6566    4.6561 C   0  0  0  0  0  0  0  0  0  0  0  0
    5.1798    2.1268    3.2291 C   0  0  0  0  0  0  0  0  0  0  0  0
    4.1878    1.4413    2.3036 C   0  0  2  0  0  0  0  0  0  0  0  0
    3.7026   -0.3199    0.1638 C   0  0  0  0  0  0  0  0  0  0  0  0
    3.4991   -0.7189    1.5202 C   0  0  1  0  0  0  0  0  0  0  0  0
    3.7997   -2.2134    1.6623 O   0  0  0  0  0  0  0  0  0  0  0  0
    5.2355   -2.4843    1.2030 C   0  0  1  0  0  0  0  0  0  0  0  0
    5.3992   -1.9922   -0.2393 C   0  0  2  0  0  0  0  0  0  0  0  0
    5.0386   -0.5064   -0.3068 C   0  0  0  0  0  0  0  0  0  0  0  0
    2.7612    1.7930    2.7337 C   0  0  0  0  0  0  0  0  0  0  0  0
    1.7678    1.0507    1.8348 C   0  0  1  0  0  0  0  0  0  0  0  0
    2.0450   -0.4536    1.9175 C   0  0  0  0  0  0  0  0  0  0  0  0
    4.3702    0.0261    2.3738 O   0  0  0  0  0  0  0  0  0  0  0  0
    7.2936    0.7992    4.6664 C   0  0  0  0  0  0  0  0  0  0  0  0
    4.3499    1.7728    1.2992 H   0  0  0  0  0  0  0  0  0  0  0  0
    4.4768   -2.7815   -1.1539 C   0  0  0  0  0  0  0  0  0  0  0  0
    0.4379    1.3170    2.2551 O   0  0  0  0  0  0  0  0  0  0  0  0
   -0.4997    0.2556    2.3594 C   0  0  0  0  0  0  0  0  0  0  0  0
   -1.6900    0.4939    2.7356 O   0  0  0  0  0  0  0  0  0  0  0  0
   -0.6363   -4.1971    4.3475 C   0  0  0  0  0  0  0  0  0  0  0  0
   -0.1185   -5.2624    1.4733 N   0  0  0  0  0  0  0  0  0  0  0  0
    9.5776   -2.2853    6.8488 C   0  0  0  0  0  0  0  0  0  0  0  0
    8.1613   -1.9354    7.2755 C   0  0  0  0  0  0  0  0  0  0  0  0
    7.3285   -1.2963    6.4102 C   0  0  0  0  0  0  0  0  0  0  0  0
    5.9123   -0.9463    6.8369 C   0  0  2  0  0  0  0  0  0  0  0  0
    4.9203   -1.6318    5.9114 C   0  0  0  0  0  0  0  0  0  0  0  0
    0.9499   -1.1496    1.7299 H   0  0  0  0  0  0  0  0  0  0  0  0
   -0.9943   -4.1097    1.1060 H   0  0  0  0  0  0  0  0  0  0  0  0
   -0.3372   -0.5638    1.5719 O   0  0  0  0  0  0  0  0  0  0  0  0
   -0.2352   -5.7551    0.2003 O   0  0  0  0  0  0  0  0  0  0  0  0
    6.2080   -1.7449    2.1073 C   0  0  0  0  0  0  0  0  0  0  0  0
   -3.2186   -1.8934   -0.8010 H   0  0  0  0  0  0  0  0  0  0  0  0
   -1.7975   -2.0173   -1.8076 H   0  0  0  0  0  0  0  0  0  0  0  0
   -0.2307   -1.6479    4.1973 H   0  0  0  0  0  0  0  0  0  0  0  0
    6.4163    1.0419    7.4134 H   0  0  0  0  0  0  0  0  0  0  0  0
    4.7210    0.8058    7.0623 H   0  0  0  0  0  0  0  0  0  0  0  0
    4.0025    1.8187    5.1267 H   0  0  0  0  0  0  0  0  0  0  0  0
    6.1767    1.8804    2.9287 H   0  0  0  0  0  0  0  0  0  0  0  0
    5.0430    3.1867    3.1763 H   0  0  0  0  0  0  0  0  0  0  0  0
    3.0746   -0.9433   -0.4378 H   0  0  0  0  0  0  0  0  0  0  0  0
    3.4588    0.7185    0.0792 H   0  0  0  0  0  0  0  0  0  0  0  0
    5.4388   -3.5337    1.2521 H   0  0  0  0  0  0  0  0  0  0  0  0
    6.4122   -2.1313   -0.5543 H   0  0  0  0  0  0  0  0  0  0  0  0
    5.7143    0.0533    0.3056 H   0  0  0  0  0  0  0  0  0  0  0  0
    5.1110   -0.1672   -1.3190 H   0  0  0  0  0  0  0  0  0  0  0  0
    2.6083    2.8482    2.6445 H   0  0  0  0  0  0  0  0  0  0  0  0
    2.6115    1.4994    3.7516 H   0  0  0  0  0  0  0  0  0  0  0  0
    1.8833    1.3848    0.8249 H   0  0  0  0  0  0  0  0  0  0  0  0
    1.3892   -0.9775    1.2539 H   0  0  0  0  0  0  0  0  0  0  0  0
    1.8795   -0.7937    2.9185 H   0  0  0  0  0  0  0  0  0  0  0  0
    7.1589    0.1983    3.7915 H   0  0  0  0  0  0  0  0  0  0  0  0
    7.7204    1.7407    4.3902 H   0  0  0  0  0  0  0  0  0  0  0  0
    7.9486    0.2966    5.3470 H   0  0  0  0  0  0  0  0  0  0  0  0
    3.5879   -2.2399   -1.4021 H   0  0  0  0  0  0  0  0  0  0  0  0
    5.0352   -2.9781   -2.0451 H   0  0  0  0  0  0  0  0  0  0  0  0
    4.2118   -3.7073   -0.6875 H   0  0  0  0  0  0  0  0  0  0  0  0
   -1.5952   -4.6715    4.3288 H   0  0  0  0  0  0  0  0  0  0  0  0
    0.1299   -4.9428    4.3875 H   0  0  0  0  0  0  0  0  0  0  0  0
   -0.5666   -3.5674    5.2098 H   0  0  0  0  0  0  0  0  0  0  0  0
    9.9196   -2.0291    5.8679 H   0  0  0  0  0  0  0  0  0  0  0  0
    7.8193   -2.1916    8.2564 H   0  0  0  0  0  0  0  0  0  0  0  0
    7.6705   -1.0400    5.4292 H   0  0  0  0  0  0  0  0  0  0  0  0
    5.7503   -1.2773    7.8414 H   0  0  0  0  0  0  0  0  0  0  0  0
    4.9818   -1.2506    4.9135 H   0  0  0  0  0  0  0  0  0  0  0  0
    5.0494   -2.6938    5.8961 H   0  0  0  0  0  0  0  0  0  0  0  0
    3.9625   -1.3948    6.3253 H   0  0  0  0  0  0  0  0  0  0  0  0
   -0.6170    0.2651    1.0874 H   0  0  0  0  0  0  0  0  0  0  0  0
    0.0723   -6.6839   -0.0066 H   0  0  0  0  0  0  0  0  0  0  0  0
    5.8398   -1.8547    3.1059 H   0  0  0  0  0  0  0  0  0  0  0  0
    7.2087   -2.1198    2.0528 H   0  0  0  0  0  0  0  0  0  0  0  0
    7.1177    0.7211    1.3422 H   0  0  0  0  0  0  0  0  0  0  0  0
    8.3416   -0.0874    2.1782 H   0  0  0  0  0  0  0  0  0  0  0  0
    7.9672   -0.5360    0.4643 H   0  0  0  0  0  0  0  0  0  0  0  0
   -3.2186   -1.8934   -0.8010 H   0  0  0  0  0  0  0  0  0  0  0  0
   -1.7975   -2.0173   -1.8076 H   0  0  0  0  0  0  0  0  0  0  0  0
   -0.2307   -1.6479    4.1973 H   0  0  0  0  0  0  0  0  0  0  0  0
    6.4163    1.0419    7.4134 H   0  0  0  0  0  0  0  0  0  0  0  0
    4.7210    0.8058    7.0623 H   0  0  0  0  0  0  0  0  0  0  0  0
    4.0025    1.8187    5.1267 H   0  0  0  0  0  0  0  0  0  0  0  0
    6.1767    1.8804    2.9287 H   0  0  0  0  0  0  0  0  0  0  0  0
    5.0430    3.1867    3.1763 H   0  0  0  0  0  0  0  0  0  0  0  0
    3.0746   -0.9433   -0.4378 H   0  0  0  0  0  0  0  0  0  0  0  0
    3.4588    0.7185    0.0792 H   0  0  0  0  0  0  0  0  0  0  0  0
    5.4388   -3.5337    1.2521 H   0  0  0  0  0  0  0  0  0  0  0  0
    6.4122   -2.1313   -0.5543 H   0  0  0  0  0  0  0  0  0  0  0  0
    5.7143    0.0533    0.3056 H   0  0  0  0  0  0  0  0  0  0  0  0
    5.1110   -0.1672   -1.3190 H   0  0  0  0  0  0  0  0  0  0  0  0
    2.6083    2.8482    2.6445 H   0  0  0  0  0  0  0  0  0  0  0  0
    2.6115    1.4994    3.7516 H   0  0  0  0  0  0  0  0  0  0  0  0
    1.8833    1.3848    0.8249 H   0  0  0  0  0  0  0  0  0  0  0  0
    1.3892   -0.9775    1.2539 H   0  0  0  0  0  0  0  0  0  0  0  0
    1.8795   -0.7937    2.9185 H   0  0  0  0  0  0  0  0  0  0  0  0
    7.1589    0.1983    3.7915 H   0  0  0  0  0  0  0  0  0  0  0  0
    7.7204    1.7407    4.3902 H   0  0  0  0  0  0  0  0  0  0  0  0
    7.9486    0.2966    5.3470 H   0  0  0  0  0  0  0  0  0  0  0  0
    3.5879   -2.2399   -1.4021 H   0  0  0  0  0  0  0  0  0  0  0  0
    5.0352   -2.9781   -2.0451 H   0  0  0  0  0  0  0  0  0  0  0  0
    4.2118   -3.7073   -0.6875 H   0  0  0  0  0  0  0  0  0  0  0  0
   -1.5952   -4.6715    4.3288 H   0  0  0  0  0  0  0  0  0  0  0  0
    0.1299   -4.9428    4.3875 H   0  0  0  0  0  0  0  0  0  0  0  0
   -0.5666   -3.5674    5.2098 H   0  0  0  0  0  0  0  0  0  0  0  0
    9.9196   -2.0291    5.8679 H   0  0  0  0  0  0  0  0  0  0  0  0
    7.8193   -2.1916    8.2564 H   0  0  0  0  0  0  0  0  0  0  0  0
    7.6705   -1.0400    5.4292 H   0  0  0  0  0  0  0  0  0  0  0  0
    5.7503   -1.2773    7.8414 H   0  0  0  0  0  0  0  0  0  0  0  0
    4.9818   -1.2506    4.9135 H   0  0  0  0  0  0  0  0  0  0  0  0
    5.0494   -2.6938    5.8961 H   0  0  0  0  0  0  0  0  0  0  0  0
    3.9625   -1.3948    6.3253 H   0  0  0  0  0  0  0  0  0  0  0  0
   -0.6170    0.2651    1.0874 H   0  0  0  0  0  0  0  0  0  0  0  0
    0.0723   -6.6839   -0.0066 H   0  0  0  0  0  0  0  0  0  0  0  0
    6.1379   -0.2502    2.3871 H   0  0  0  0  0  0  0  0  0  0  0  0
    5.8398   -1.8547    3.1059 H   0  0  0  0  0  0  0  0  0  0  0  0
    7.2087   -2.1198    2.0528 H   0  0  0  0  0  0  0  0  0  0  0  0
  1  2  1  0  0  0  0
  2  3  1  0  0  0  0
  2  6  1  0  0  0  0
  2 39  1  6  0  0  0
  3  4  1  0  0  0  0
  3  9  1  0  0  0  0
  3 40  1  6  0  0  0
  4  5  1  0  0  0  0
  4 33  2  0  0  0  0
  5  1  1  0  0  0  0
  5 86  1  0  0  0  0
  5 87  1  0  0  0  0
  6 32  2  0  0  0  0
  6  7  1  0  0  0  0
  7 31  1  0  0  0  0
  7  8  2  0  0  0  0
  8  9  1  0  0  0  0
  8 88  1  0  0  0  0
  9 38  1  1  0  0  0
 10 11  1  0  0  0  0
 10 89  1  0  0  0  0
 10 90  1  0  0  0  0
 11 12  2  0  0  0  0
 11 25  1  0  0  0  0
 12 13  1  0  0  0  0
 12 91  1  0  0  0  0
 13 92  1  0  0  0  0
 13 93  1  0  0  0  0
 14 21  1  0  0  0  0
 14 24  1  0  0  0  0
 14 26  1  6  0  0  0
 14 13  1  0  0  0  0
 15 20  1  0  0  0  0
 15 94  1  0  0  0  0
 15 95  1  0  0  0  0
 16 24  1  6  0  0  0
 16 15  1  0  0  0  0
 16 17  1  0  0  0  0
 17 18  1  0  0  0  0
 18 19  1  0  0  0  0
 18 96  1  1  0  0  0
 18 42  1  0  0  0  0
 19 20  1  0  0  0  0
 19 97  1  6  0  0  0
 19 27  1  0  0  0  0
 20 98  1  0  0  0  0
 20 99  1  0  0  0  0
 21 22  1  0  0  0  0
 21100  1  0  0  0  0
 21101  1  0  0  0  0
 22 23  1  0  0  0  0
 22 28  1  0  0  0  0
 22102  1  6  0  0  0
 23 16  1  0  0  0  0
 23103  1  0  0  0  0
 23104  1  0  0  0  0
 25105  1  0  0  0  0
 25106  1  0  0  0  0
 25107  1  0  0  0  0
 27108  1  0  0  0  0
 27109  1  0  0  0  0
 27110  1  0  0  0  0
 28 29  1  0  0  0  0
 29  9  1  0  0  0  0
 29 30  2  0  0  0  0
 31111  1  0  0  0  0
 31112  1  0  0  0  0
 31113  1  0  0  0  0
 32 41  1  0  0  0  0
 33 34  1  0  0  0  0
 33114  1  0  0  0  0
 34 35  2  0  0  0  0
 34115  1  0  0  0  0
 35 36  1  0  0  0  0
 35116  1  0  0  0  0
 36 10  1  0  0  0  0
 36117  1  1  0  0  0
 36 37  1  0  0  0  0
 37118  1  0  0  0  0
 37119  1  0  0  0  0
 37120  1  0  0  0  0
 40121  1  0  0  0  0
 41122  1  0  0  0  0
 42 43  1  0  0  0  0
 42123  1  0  0  0  0
 42124  1  0  0  0  0
 43125  1  0  0  0  0
 43126  1  0  0  0  0
 43127  1  0  0  0  0
 44 45  1  0  0  0  0
 45 46  1  0  0  0  0
 45 49  1  0  0  0  0
 45 82  1  6  0  0  0
 46 47  1  0  0  0  0
 46 52  1  0  0  0  0
 46 83  1  6  0  0  0
 47 48  1  0  0  0  0
 47 76  2  0  0  0  0
 48 44  1  0  0  0  0
 48128  1  0  0  0  0
 48129  1  0  0  0  0
 49 75  2  0  0  0  0
 49 50  1  0  0  0  0
 50 74  1  0  0  0  0
 50 51  2  0  0  0  0
 51 52  1  0  0  0  0
 51130  1  0  0  0  0
 52 81  1  1  0  0  0
 53 54  1  0  0  0  0
 53131  1  0  0  0  0
 53132  1  0  0  0  0
 54 55  2  0  0  0  0
 54 68  1  0  0  0  0
 55 56  1  0  0  0  0
 55133  1  0  0  0  0
 56134  1  0  0  0  0
 56135  1  0  0  0  0
 57 64  1  0  0  0  0
 57 67  1  0  0  0  0
 57 69  1  6  0  0  0
 57 56  1  0  0  0  0
 58 63  1  0  0  0  0
 58136  1  0  0  0  0
 58137  1  0  0  0  0
 59 67  1  6  0  0  0
 59 58  1  0  0  0  0
 59 60  1  0  0  0  0
 60 61  1  0  0  0  0
 61 62  1  0  0  0  0
 61138  1  1  0  0  0
 61 85  1  0  0  0  0
 62 63  1  0  0  0  0
 62139  1  6  0  0  0
 62 70  1  0  0  0  0
 63140  1  0  0  0  0
 63141  1  0  0  0  0
 64 65  1  0  0  0  0
 64142  1  0  0  0  0
 64143  1  0  0  0  0
 65 66  1  0  0  0  0
 65 71  1  0  0  0  0
 65144  1  6  0  0  0
 66 59  1  0  0  0  0
 66145  1  0  0  0  0
 66146  1  0  0  0  0
 68147  1  0  0  0  0
 68148  1  0  0  0  0
 68149  1  0  0  0  0
 70150  1  0  0  0  0
 70151  1  0  0  0  0
 70152  1  0  0  0  0
 71 72  1  0  0  0  0
 72 52  1  0  0  0  0
 72 73  2  0  0  0  0
 74153  1  0  0  0  0
 74154  1  0  0  0  0
 74155  1  0  0  0  0
 75 84  1  0  0  0  0
 76 77  1  0  0  0  0
 76156  1  0  0  0  0
 77 78  2  0  0  0  0
 77157  1  0  0  0  0
 78 79  1  0  0  0  0
 78158  1  0  0  0  0
 79 53  1  0  0  0  0
 79159  1  1  0  0  0
 79 80  1  0  0  0  0
 80160  1  0  0  0  0
 80161  1  0  0  0  0
 80162  1  0  0  0  0
 83163  1  0  0  0  0
 84164  1  0  0  0  0
 85165  1  0  0  0  0
 85166  1  0  0  0  0
 85167  1  0  0  0  0
M  END
>  <DRUGBANK_ID>
DB11531

>  <COMMON_NAME>
Milbemycin oxime

>  <CAS_NUMBER>
129496-10-2

>  <UNII>
0502PUN0GT

$$$$
