ESP
 OpenBabel10282417133D

 20 21  0  0  0  0  0  0  0  0999 V2000
    0.9833   -0.0750    0.0572 C   0  0  0  0  0  0  0  0  0  0  0  0
    0.2338    0.6903    1.0355 C   0  0  0  0  0  0  0  0  0  0  0  0
    0.3183   -0.7722   -0.8391 N   0  0  0  0  0  0  0  0  0  0  0  0
    2.2944   -0.0467    0.0761 N   0  3  0  0  0  0  0  0  0  0  0  0
   -1.2020    0.1187    1.7675 S   0  0  0  0  0  0  0  0  0  0  0  0
   -1.4522    1.5910    2.5876 C   0  0  0  0  0  0  0  0  0  0  0  0
   -0.4445    2.5169    2.3403 C   0  0  0  0  0  0  0  0  0  0  0  0
    0.5553    1.9639    1.4663 C   0  0  0  0  0  0  0  0  0  0  0  0
   -2.5479    1.7752    3.3485 N   0  0  0  0  0  0  0  0  0  0  0  0
   -2.6442    3.0098    3.8854 C   0  0  0  0  0  0  0  0  0  0  0  0
   -1.7227    4.0291    3.7160 C   0  0  0  0  0  0  0  0  0  0  0  0
   -0.5897    3.7861    2.9399 C   0  0  0  0  0  0  0  0  0  0  0  0
    0.7757   -1.3168   -1.5567 H   0  0  0  0  0  0  0  0  0  0  0  0
   -0.6973   -0.7741   -0.8257 H   0  0  0  0  0  0  0  0  0  0  0  0
    2.7924    0.4727    0.7915 H   0  0  0  0  0  0  0  0  0  0  0  0
    2.8517   -0.5667   -0.5895 H   0  0  0  0  0  0  0  0  0  0  0  0
    1.4198    2.5272    1.1346 H   0  0  0  0  0  0  0  0  0  0  0  0
   -3.5378    3.1771    4.4852 H   0  0  0  0  0  0  0  0  0  0  0  0
   -1.8875    5.0002    4.1740 H   0  0  0  0  0  0  0  0  0  0  0  0
    0.1434    4.5731    2.7862 H   0  0  0  0  0  0  0  0  0  0  0  0
  1  2  1  0  0  0  0
  1  3  1  0  0  0  0
  1  4  2  0  0  0  0
  2  5  1  0  0  0  0
  2  8  2  0  0  0  0
  3 13  1  0  0  0  0
  3 14  1  0  0  0  0
  4 15  1  0  0  0  0
  4 16  1  0  0  0  0
  5  6  1  0  0  0  0
  6  7  2  0  0  0  0
  6  9  1  0  0  0  0
  7  8  1  0  0  0  0
  7 12  1  0  0  0  0
  8 17  1  0  0  0  0
  9 10  2  0  0  0  0
 10 11  1  0  0  0  0
 10 18  1  0  0  0  0
 11 12  2  0  0  0  0
 11 19  1  0  0  0  0
 12 20  1  0  0  0  0
M  CHG  1   4   1
M  END
>  <DRUGBANK_ID>
DB03876

>  <SECONDARY_ACCESSION_NUMBERS>
EXPT01363

>  <COMMON_NAME>
Thieno[2,3-B]Pyridine-2-Carboxamidine

$$$$
