
 OpenBabel10282417213D

 57 60  0  0  0  0  0  0  0  0999 V2000
   -0.6749    0.6228    0.7254 O   0  0  0  0  0  0  0  0  0  0  0  0
   -1.1850   -0.6570    0.7301 C   0  0  0  0  0  0  0  0  0  0  0  0
    0.7489    0.9426    0.7613 C   0  0  1  0  0  0  0  0  0  0  0  0
   -0.3114   -1.8508    1.0516 C   0  0  0  0  0  0  0  0  0  0  0  0
   -2.3959   -0.8451    0.5929 O   0  0  0  0  0  0  0  0  0  0  0  0
    1.4596    0.0304   -0.5718 C   0  0  0  0  0  0  0  0  0  0  0  0
    1.1538    2.7070    1.1138 C   0  0  2  0  0  0  0  0  0  0  0  0
    1.3364    0.4438    2.0927 C   0  0  0  0  0  0  0  0  0  0  0  0
    2.9218   -0.5256   -0.5405 C   0  0  0  0  0  0  0  0  0  0  0  0
    0.7713   -0.3298   -1.5402 O   0  0  0  0  0  0  0  0  0  0  0  0
    2.1356    2.5486   -0.0147 C   0  0  0  0  0  0  0  0  0  0  0  0
    1.3600    2.7285    2.6810 C   0  0  1  0  0  0  0  0  0  0  0  0
    1.2034    4.3684    0.9630 C   0  0  0  0  0  0  0  0  0  0  0  0
    2.2594   -0.4865    2.3848 C   0  0  0  0  0  0  0  0  0  0  0  0
    0.8615    1.3662    3.1474 C   0  0  0  0  0  0  0  0  0  0  0  0
    2.7995    3.2130    3.0933 C   0  0  1  0  0  0  0  0  0  0  0  0
    2.7671    5.0388    1.5159 C   0  0  0  0  0  0  0  0  0  0  0  0
    3.0268    4.8248    3.1895 C   0  0  2  0  0  0  0  0  0  0  0  0
    3.2468    2.7020    4.4045 C   0  0  0  0  0  0  0  0  0  0  0  0
    4.4383    5.4431    4.3047 C   0  0  2  0  0  0  0  0  0  0  0  0
    4.7498    2.8806    4.4633 C   0  0  0  0  0  0  0  0  0  0  0  0
    5.3401    4.2480    4.1547 C   0  0  0  0  0  0  0  0  0  0  0  0
    4.9534    5.8455    6.1068 C   0  0  0  0  0  0  0  0  0  0  0  0
    6.6342    4.5422    4.3912 C   0  0  0  0  0  0  0  0  0  0  0  0
    6.5924    5.6498    6.5259 C   0  0  0  0  0  0  0  0  0  0  0  0
    6.7588    4.3813    5.8662 C   0  0  0  0  0  0  0  0  0  0  0  0
    6.5621    3.3298    6.5430 O   0  0  0  0  0  0  0  0  0  0  0  0
    3.4556    2.7682    2.3204 H   0  0  0  0  0  0  0  0  0  0  0  0
    2.1641    5.3347    3.6115 H   0  0  0  0  0  0  0  0  0  0  0  0
    0.6561    3.4267    3.1711 H   0  0  0  0  0  0  0  0  0  0  0  0
    4.8075    6.3354    3.7798 H   0  0  0  0  0  0  0  0  0  0  0  0
   -0.4814   -2.1531    2.0894 H   0  0  0  0  0  0  0  0  0  0  0  0
   -0.5253   -2.6869    0.3787 H   0  0  0  0  0  0  0  0  0  0  0  0
    0.7449   -1.6962    0.9150 H   0  0  0  0  0  0  0  0  0  0  0  0
    2.9020   -1.6110   -0.3587 H   0  0  0  0  0  0  0  0  0  0  0  0
    3.4292   -0.3921   -1.5028 H   0  0  0  0  0  0  0  0  0  0  0  0
    3.5762   -0.0658    0.2022 H   0  0  0  0  0  0  0  0  0  0  0  0
    2.9361    3.2314   -0.1808 H   0  0  0  0  0  0  0  0  0  0  0  0
    2.7012    1.6739    0.2094 H   0  0  0  0  0  0  0  0  0  0  0  0
    1.5383    2.5048   -0.9487 H   0  0  0  0  0  0  0  0  0  0  0  0
    0.9820    4.7246   -0.0595 H   0  0  0  0  0  0  0  0  0  0  0  0
    0.4847    4.9052    1.6004 H   0  0  0  0  0  0  0  0  0  0  0  0
    2.6884   -0.5680    3.3749 H   0  0  0  0  0  0  0  0  0  0  0  0
    2.6739   -1.1993    1.6900 H   0  0  0  0  0  0  0  0  0  0  0  0
   -0.2383    1.3265    3.1719 H   0  0  0  0  0  0  0  0  0  0  0  0
    1.1906    1.0771    4.1406 H   0  0  0  0  0  0  0  0  0  0  0  0
    3.5520    4.5272    0.9327 H   0  0  0  0  0  0  0  0  0  0  0  0
    2.8341    6.0794    1.1788 H   0  0  0  0  0  0  0  0  0  0  0  0
    3.0548    1.6362    4.5202 H   0  0  0  0  0  0  0  0  0  0  0  0
    2.6942    3.2394    5.1799 H   0  0  0  0  0  0  0  0  0  0  0  0
    5.2125    2.2010    3.7383 H   0  0  0  0  0  0  0  0  0  0  0  0
    4.9745    2.5093    5.4544 H   0  0  0  0  0  0  0  0  0  0  0  0
    5.1684    6.8738    6.4658 H   0  0  0  0  0  0  0  0  0  0  0  0
    4.0800    5.9318    6.7750 H   0  0  0  0  0  0  0  0  0  0  0  0
    6.8973    5.5963    4.1732 H   0  0  0  0  0  0  0  0  0  0  0  0
    7.0345    5.4760    7.5329 H   0  0  0  0  0  0  0  0  0  0  0  0
    7.2382    6.4613    6.1075 H   0  0  0  0  0  0  0  0  0  0  0  0
  1  2  1  0  0  0  0
  2  4  1  0  0  0  0
  2  5  2  0  0  0  0
  3  8  1  0  0  0  0
  3  6  1  6  0  0  0
  3  1  1  0  0  0  0
  4 32  1  0  0  0  0
  4 33  1  0  0  0  0
  4 34  1  0  0  0  0
  6  9  1  0  0  0  0
  6 10  2  0  0  0  0
  7  3  1  0  0  0  0
  7 11  1  6  0  0  0
  7 13  1  0  0  0  0
  8 14  2  0  0  0  0
  8 15  1  0  0  0  0
  9 35  1  0  0  0  0
  9 36  1  0  0  0  0
  9 37  1  0  0  0  0
 11 38  1  0  0  0  0
 11 39  1  0  0  0  0
 11 40  1  0  0  0  0
 12  7  1  0  0  0  0
 12 15  1  0  0  0  0
 12 16  1  0  0  0  0
 12 30  1  1  0  0  0
 13 17  1  0  0  0  0
 13 41  1  0  0  0  0
 13 42  1  0  0  0  0
 14 43  1  0  0  0  0
 14 44  1  0  0  0  0
 15 45  1  0  0  0  0
 15 46  1  0  0  0  0
 16 18  1  0  0  0  0
 16 19  1  0  0  0  0
 16 28  1  6  0  0  0
 17 47  1  0  0  0  0
 17 48  1  0  0  0  0
 18 17  1  0  0  0  0
 18 20  1  0  0  0  0
 18 29  1  1  0  0  0
 19 21  1  0  0  0  0
 19 49  1  0  0  0  0
 19 50  1  0  0  0  0
 20 22  1  0  0  0  0
 20 23  1  0  0  0  0
 20 31  1  6  0  0  0
 21 22  1  0  0  0  0
 21 51  1  0  0  0  0
 21 52  1  0  0  0  0
 22 24  2  0  0  0  0
 23 25  1  0  0  0  0
 23 53  1  0  0  0  0
 23 54  1  0  0  0  0
 24 26  1  0  0  0  0
 24 55  1  0  0  0  0
 25 26  1  0  0  0  0
 25 56  1  0  0  0  0
 25 57  1  0  0  0  0
 26 27  2  0  0  0  0
M  END
>  <DRUGBANK_ID>
DB14583

>  <COMMON_NAME>
Segesterone acetate

>  <CAS_NUMBER>
7759-35-5

>  <UNII>
9AMX4Q13CC

>  <SYNONYMS>
16-Methylene-17-alpha-acetoxy-19-nor-4-pregnene-3,20-dione; 17-Hydroxy-16-methylene-19-norpregn-4-ene-3,20-dione acetate; Elcometrine; Nestorone; Segesterone acetate

$$$$
