
 OpenBabel10282417203D

 44 48  0  0  0  0  0  0  0  0999 V2000
   -2.4005   -0.7253   -0.0059 C   0  0  0  0  0  0  0  0  0  0  0  0
   -1.2020   -1.4230   -0.0184 C   0  0  0  0  0  0  0  0  0  0  0  0
    0.0086   -0.7213   -0.0213 C   0  0  0  0  0  0  0  0  0  0  0  0
    1.2395   -1.3912   -0.0230 C   0  0  0  0  0  0  0  0  0  0  0  0
    2.4520   -0.6874    0.0201 C   0  0  0  0  0  0  0  0  0  0  0  0
    2.4068    0.7096    0.0062 C   0  0  0  0  0  0  0  0  0  0  0  0
    1.1741    1.3743   -0.0122 C   0  0  0  0  0  0  0  0  0  0  0  0
   -0.0330    0.6881   -0.0127 C   0  0  0  0  0  0  0  0  0  0  0  0
   -1.1926    1.3672   -0.0044 N   0  0  0  0  0  0  0  0  0  0  0  0
   -2.3431    0.6563    0.0015 C   0  0  0  0  0  0  0  0  0  0  0  0
    3.7700   -1.4241    0.0846 C   0  0  0  0  0  0  0  0  0  0  0  0
    3.8993   -2.1959    1.3076 N   0  0  0  0  0  0  0  0  0  0  0  0
    4.7989   -2.0166    2.3180 C   0  0  0  0  0  0  0  0  0  0  0  0
    4.4469   -3.0010    3.2365 C   0  0  0  0  0  0  0  0  0  0  0  0
    5.1078   -3.1634    4.4111 N   0  0  0  0  0  0  0  0  0  0  0  0
    6.1326   -2.2838    4.5485 C   0  0  0  0  0  0  0  0  0  0  0  0
    6.4744   -1.3096    3.6048 C   0  0  0  0  0  0  0  0  0  0  0  0
    5.8036   -1.1188    2.4350 N   0  0  0  0  0  0  0  0  0  0  0  0
    7.5899   -0.4310    3.8453 C   0  0  0  0  0  0  0  0  0  0  0  0
    8.9452   -0.7128    4.1093 C   0  0  0  0  0  0  0  0  0  0  0  0
    9.6591    0.3959    4.3243 N   0  0  0  0  0  0  0  0  0  0  0  0
    8.7593    1.3916    4.1618 N   0  0  0  0  0  0  0  0  0  0  0  0
    7.4992    0.9424    3.9012 C   0  0  0  0  0  0  0  0  0  0  0  0
    9.1760    2.7748    4.3169 C   0  0  0  0  0  0  0  0  0  0  0  0
    9.7498    3.0476    5.7035 C   0  0  0  0  0  0  0  0  0  0  0  0
   10.9497    2.3188    5.9480 O   0  0  0  0  0  0  0  0  0  0  0  0
    3.4055   -3.7365    2.7558 N   0  0  0  0  0  0  0  0  0  0  0  0
    3.1049   -3.2698    1.5465 N   0  0  0  0  0  0  0  0  0  0  0  0
   -3.3515   -1.2446   -0.0000 H   0  0  0  0  0  0  0  0  0  0  0  0
   -1.2141   -2.5110   -0.0180 H   0  0  0  0  0  0  0  0  0  0  0  0
    1.2447   -2.4815   -0.0305 H   0  0  0  0  0  0  0  0  0  0  0  0
    3.3211    1.2995    0.0149 H   0  0  0  0  0  0  0  0  0  0  0  0
    1.1527    2.4624   -0.0174 H   0  0  0  0  0  0  0  0  0  0  0  0
   -3.2515    1.2509    0.0132 H   0  0  0  0  0  0  0  0  0  0  0  0
    3.8671   -2.1117   -0.7629 H   0  0  0  0  0  0  0  0  0  0  0  0
    4.6097   -0.7213    0.0371 H   0  0  0  0  0  0  0  0  0  0  0  0
    6.6851   -2.3781    5.4793 H   0  0  0  0  0  0  0  0  0  0  0  0
    9.4418   -1.6747    4.1574 H   0  0  0  0  0  0  0  0  0  0  0  0
    6.6605    1.6148    3.7849 H   0  0  0  0  0  0  0  0  0  0  0  0
    9.9092    2.9735    3.5282 H   0  0  0  0  0  0  0  0  0  0  0  0
    8.2959    3.4049    4.1483 H   0  0  0  0  0  0  0  0  0  0  0  0
    9.9933    4.1105    5.7961 H   0  0  0  0  0  0  0  0  0  0  0  0
    9.0297    2.7935    6.4877 H   0  0  0  0  0  0  0  0  0  0  0  0
   10.7711    1.3890    5.6800 H   0  0  0  0  0  0  0  0  0  0  0  0
  1  2  1  0  0  0  0
  1 10  2  0  0  0  0
  1 29  1  0  0  0  0
  2  3  2  0  0  0  0
  2 30  1  0  0  0  0
  3  4  1  0  0  0  0
  3  8  1  0  0  0  0
  4  5  2  0  0  0  0
  4 31  1  0  0  0  0
  5  6  1  0  0  0  0
  5 11  1  0  0  0  0
  6  7  2  0  0  0  0
  6 32  1  0  0  0  0
  7  8  1  0  0  0  0
  7 33  1  0  0  0  0
  8  9  2  0  0  0  0
  9 10  1  0  0  0  0
 10 34  1  0  0  0  0
 11 12  1  0  0  0  0
 11 35  1  0  0  0  0
 11 36  1  0  0  0  0
 12 13  1  0  0  0  0
 12 28  1  0  0  0  0
 13 14  1  0  0  0  0
 13 18  2  0  0  0  0
 14 15  2  0  0  0  0
 14 27  1  0  0  0  0
 15 16  1  0  0  0  0
 16 17  2  0  0  0  0
 16 37  1  0  0  0  0
 17 18  1  0  0  0  0
 17 19  1  0  0  0  0
 19 20  1  0  0  0  0
 19 23  2  0  0  0  0
 20 21  2  0  0  0  0
 20 38  1  0  0  0  0
 21 22  1  0  0  0  0
 22 23  1  0  0  0  0
 22 24  1  0  0  0  0
 23 39  1  0  0  0  0
 24 25  1  0  0  0  0
 24 40  1  0  0  0  0
 24 41  1  0  0  0  0
 25 26  1  0  0  0  0
 25 42  1  0  0  0  0
 25 43  1  0  0  0  0
 26 44  1  0  0  0  0
 27 28  2  0  0  0  0
M  END
>  <DRUGBANK_ID>
DB12848

>  <COMMON_NAME>
PF-04217903

>  <CAS_NUMBER>
956905-27-4

>  <UNII>
CYJ9ATV1IJ

$$$$
