265
 OpenBabel10282417103D

 32 32  0  0  0  0  0  0  0  0999 V2000
    0.9320   -0.1050   -0.2016 O   0  0  0  0  0  0  0  0  0  0  0  0
    2.9353   -1.1561    0.3177 N   0  0  0  0  0  0  0  0  0  0  0  0
    4.3661   -1.1716    0.4213 C   0  0  0  0  0  0  0  0  0  0  0  0
    2.2154   -2.3308    0.8469 C   0  0  0  0  0  0  0  0  0  0  0  0
    5.1023   -0.0893    0.9481 C   0  0  0  0  0  0  0  0  0  0  0  0
    5.0688   -2.3055   -0.0388 C   0  0  0  0  0  0  0  0  0  0  0  0
    2.1679   -0.1090   -0.2255 C   0  0  0  0  0  0  0  0  0  0  0  0
    6.5085   -0.1254    0.8981 C   0  0  0  0  0  0  0  0  0  0  0  0
    1.3616   -2.0078    2.0720 C   0  0  0  0  0  0  0  0  0  0  0  0
    4.4711    1.1242    1.5824 C   0  0  0  0  0  0  0  0  0  0  0  0
    6.4668   -2.3351   -0.0550 C   0  0  0  0  0  0  0  0  0  0  0  0
    7.1856   -1.2363    0.3980 C   0  0  0  0  0  0  0  0  0  0  0  0
    2.8747    1.0492   -0.8635 C   0  0  0  0  0  0  0  0  0  0  0  0
    2.2663    2.2208   -1.1169 C   0  0  0  0  0  0  0  0  0  0  0  0
    3.0177    3.4432   -1.5457 C   0  0  0  0  0  0  0  0  0  0  0  0
    1.5841   -2.7364    0.0483 H   0  0  0  0  0  0  0  0  0  0  0  0
    2.9156   -3.1208    1.1439 H   0  0  0  0  0  0  0  0  0  0  0  0
    4.5397   -3.1677   -0.4401 H   0  0  0  0  0  0  0  0  0  0  0  0
    7.0843    0.7264    1.2549 H   0  0  0  0  0  0  0  0  0  0  0  0
    0.5912   -1.2638    1.8558 H   0  0  0  0  0  0  0  0  0  0  0  0
    0.8495   -2.9079    2.4278 H   0  0  0  0  0  0  0  0  0  0  0  0
    1.9792   -1.6173    2.8869 H   0  0  0  0  0  0  0  0  0  0  0  0
    4.8477    1.2843    2.5937 H   0  0  0  0  0  0  0  0  0  0  0  0
    4.6932    2.0101    0.9759 H   0  0  0  0  0  0  0  0  0  0  0  0
    3.3873    1.0333    1.6828 H   0  0  0  0  0  0  0  0  0  0  0  0
    6.9928   -3.2056   -0.4415 H   0  0  0  0  0  0  0  0  0  0  0  0
    8.2725   -1.2437    0.3700 H   0  0  0  0  0  0  0  0  0  0  0  0
    3.9392    0.9707   -1.0286 H   0  0  0  0  0  0  0  0  0  0  0  0
    1.1936    2.3258   -0.9658 H   0  0  0  0  0  0  0  0  0  0  0  0
    2.7734    3.6979   -2.5794 H   0  0  0  0  0  0  0  0  0  0  0  0
    2.7542    4.2934   -0.9062 H   0  0  0  0  0  0  0  0  0  0  0  0
    4.1027    3.3077   -1.4684 H   0  0  0  0  0  0  0  0  0  0  0  0
  1  7  2  0  0  0  0
  2  3  1  0  0  0  0
  2  4  1  0  0  0  0
  2  7  1  0  0  0  0
  3  5  1  0  0  0  0
  3  6  2  0  0  0  0
  4  9  1  0  0  0  0
  4 16  1  0  0  0  0
  4 17  1  0  0  0  0
  5  8  2  0  0  0  0
  5 10  1  0  0  0  0
  6 11  1  0  0  0  0
  6 18  1  0  0  0  0
  7 13  1  0  0  0  0
  8 12  1  0  0  0  0
  8 19  1  0  0  0  0
  9 20  1  0  0  0  0
  9 21  1  0  0  0  0
  9 22  1  0  0  0  0
 10 23  1  0  0  0  0
 10 24  1  0  0  0  0
 10 25  1  0  0  0  0
 11 12  2  0  0  0  0
 11 26  1  0  0  0  0
 12 27  1  0  0  0  0
 13 14  2  3  0  0  0
 13 28  1  0  0  0  0
 14 15  1  0  0  0  0
 14 29  1  0  0  0  0
 15 30  1  0  0  0  0
 15 31  1  0  0  0  0
 15 32  1  0  0  0  0
M  END
>  <DRUGBANK_ID>
DB00265

>  <SECONDARY_ACCESSION_NUMBERS>
APRD00211

>  <COMMON_NAME>
Crotamiton

>  <CAS_NUMBER>
483-63-6

>  <UNII>
2EEH27851Y

>  <SYNONYMS>
Crotamiton

$$$$
