
 OpenBabel10282417213D

 40 41  0  0  0  0  0  0  0  0999 V2000
    1.0670    0.0391   -0.0631 C   0  0  0  0  0  0  0  0  0  0  0  0
   -3.8273    5.9227    0.8409 C   0  0  0  0  0  0  0  0  0  0  0  0
   -0.2369    0.0391   -0.0631 C   0  0  0  0  0  0  0  0  0  0  0  0
   -4.2435    4.8092    1.7451 C   0  0  0  0  0  0  0  0  0  0  0  0
   -2.5917   -2.3306    4.3619 C   0  0  0  0  0  0  0  0  0  0  0  0
   -3.0781   -1.4679    3.3923 C   0  0  0  0  0  0  0  0  0  0  0  0
   -4.1194    2.0593    3.2918 C   0  0  0  0  0  0  0  0  0  0  0  0
   -3.5496    2.5760    4.4400 C   0  0  0  0  0  0  0  0  0  0  0  0
   -1.7569    0.0391   -0.0631 C   0  0  0  0  0  0  0  0  0  0  0  0
   -2.2355   -1.8026    5.5840 C   0  0  0  0  0  0  0  0  0  0  0  0
   -4.3014    0.5090    1.3593 C   0  0  0  0  0  0  0  0  0  0  0  0
   -3.8396    0.7953    2.7854 C   0  0  0  0  0  0  0  0  0  0  0  0
   -3.2240   -0.1019    3.6765 C   0  0  0  0  0  0  0  0  0  0  0  0
   -3.6990    1.4320    0.2486 C   0  0  3  0  0  0  0  0  0  0  0  0
   -2.9188    1.7014    5.2917 C   0  0  0  0  0  0  0  0  0  0  0  0
   -2.7966    0.3488    4.9664 C   0  0  0  0  0  0  0  0  0  0  0  0
   -4.2225    2.8884    0.3142 C   0  0  0  0  0  0  0  0  0  0  0  0
   -2.2219    1.3918    0.2009 N   0  0  0  0  0  0  0  0  0  0  0  0
   -2.3102   -0.4967    5.8886 N   0  0  0  0  0  0  0  0  0  0  0  0
   -2.5019    2.1746    6.5122 O   0  0  0  0  0  0  0  0  0  0  0  0
   -5.1882    3.2850   -0.3112 O   0  0  0  0  0  0  0  0  0  0  0  0
   -3.5637    3.6277    1.2622 O   0  0  0  0  0  0  0  0  0  0  0  0
    2.1324    0.0441   -0.0628 H   0  0  0  0  0  0  0  0  0  0  0  0
   -4.1594    5.6961   -0.1741 H   0  0  0  0  0  0  0  0  0  0  0  0
   -4.2323    6.8821    1.1602 H   0  0  0  0  0  0  0  0  0  0  0  0
   -2.7342    5.9569    0.8292 H   0  0  0  0  0  0  0  0  0  0  0  0
   -5.3338    4.6704    1.8013 H   0  0  0  0  0  0  0  0  0  0  0  0
   -3.9079    5.0098    2.7725 H   0  0  0  0  0  0  0  0  0  0  0  0
   -2.5114   -3.3928    4.1707 H   0  0  0  0  0  0  0  0  0  0  0  0
   -3.3845   -1.8943    2.4434 H   0  0  0  0  0  0  0  0  0  0  0  0
   -4.8239    2.6772    2.7601 H   0  0  0  0  0  0  0  0  0  0  0  0
   -3.6671    3.6291    4.6687 H   0  0  0  0  0  0  0  0  0  0  0  0
   -2.1043   -0.3119   -1.0410 H   0  0  0  0  0  0  0  0  0  0  0  0
   -2.0518   -0.6849    0.6984 H   0  0  0  0  0  0  0  0  0  0  0  0
   -1.8683   -2.4309    6.3869 H   0  0  0  0  0  0  0  0  0  0  0  0
   -5.3946    0.5579    1.3345 H   0  0  0  0  0  0  0  0  0  0  0  0
   -4.0724   -0.5225    1.0747 H   0  0  0  0  0  0  0  0  0  0  0  0
   -4.0599    1.0741   -0.7269 H   0  0  0  0  0  0  0  0  0  0  0  0
   -1.8502    1.7068    1.0996 H   0  0  0  0  0  0  0  0  0  0  0  0
   -2.7078    3.1202    6.5802 H   0  0  0  0  0  0  0  0  0  0  0  0
  1 23  1  0  0  0  0
  2 24  1  0  0  0  0
  2 25  1  0  0  0  0
  2 26  1  0  0  0  0
  3  1  3  0  0  0  0
  4  2  1  0  0  0  0
  4 27  1  0  0  0  0
  4 28  1  0  0  0  0
  5 29  1  0  0  0  0
  6  5  2  0  0  0  0
  6 30  1  0  0  0  0
  7 31  1  0  0  0  0
  8  7  2  0  0  0  0
  8 32  1  0  0  0  0
  9  3  1  0  0  0  0
  9 33  1  0  0  0  0
  9 34  1  0  0  0  0
 10  5  1  0  0  0  0
 10 35  1  0  0  0  0
 11 36  1  0  0  0  0
 11 37  1  0  0  0  0
 12  7  1  0  0  0  0
 12 11  1  0  0  0  0
 13  6  1  0  0  0  0
 13 12  2  0  0  0  0
 14 11  1  0  0  0  0
 14 38  1  0  0  0  0
 15  8  1  0  0  0  0
 16 13  1  0  0  0  0
 16 15  2  0  0  0  0
 17 14  1  0  0  0  0
 18  9  1  0  0  0  0
 18 14  1  0  0  0  0
 18 39  1  0  0  0  0
 19 10  2  0  0  0  0
 19 16  1  0  0  0  0
 20 15  1  0  0  0  0
 20 40  1  0  0  0  0
 21 17  2  0  0  0  0
 22  4  1  0  0  0  0
 22 17  1  0  0  0  0
M  END
>  <DRUGBANK_ID>
DB14701

>  <COMMON_NAME>
Ethyl 8-hydroxy-alpha-(2-propynylamino)-5-quinolinepropanoate

>  <CAS_NUMBER>
686723-15-9

>  <UNII>
R333AH7MH1

>  <SYNONYMS>
5-Quinolinepropanoic acid, 8-hydroxy-alpha-(2-propyn-1-ylamino)-, ethyl ester; Ethyl 8-hydroxy-alpha-(2-propynylamino)-5-quinolinepropanoate

$$$$
