ICL
 OpenBabel10282417173D

 47 47  0  0  0  0  0  0  0  0999 V2000
   -0.6248   -5.3140   -1.7335 C   0  0  0  0  0  0  0  0  0  0  0  0
    0.1303   -4.8968   -2.6056 O   0  0  0  0  0  0  0  0  0  0  0  0
   -1.4297   -4.3825   -0.9499 C   0  0  0  0  0  0  0  0  0  0  0  0
   -1.6733   -4.5701    0.4473 C   0  0  0  0  0  0  0  0  0  0  0  0
   -1.0447   -5.9163    1.3129 Cl  0  0  0  0  0  0  0  0  0  0  0  0
   -2.3880   -3.6344    1.2218 C   0  0  0  0  0  0  0  0  0  0  0  0
   -2.7534   -2.4745    0.6320 C   0  0  0  0  0  0  0  0  0  0  0  0
   -2.3488   -2.3378   -0.6762 C   0  0  0  0  0  0  0  0  0  0  0  0
   -1.8825   -3.2462   -1.5748 C   0  0  0  0  0  0  0  0  0  0  0  0
   -1.8566   -2.9249   -2.9667 N   0  0  0  0  0  0  0  0  0  0  0  0
   -2.4498   -1.9051   -3.7062 C   0  0  0  0  0  0  0  0  0  0  0  0
   -2.1330   -1.8155   -4.9035 O   0  0  0  0  0  0  0  0  0  0  0  0
   -3.3633   -0.7661   -3.1045 C   0  0  2  0  0  0  0  0  0  0  0  0
   -2.4643    0.4739   -2.6889 C   0  0  0  0  0  0  0  0  0  0  0  0
   -3.3273    1.6850   -2.3533 C   0  0  0  0  0  0  0  0  0  0  0  0
   -1.4573    0.3350   -1.5233 C   0  0  0  0  0  0  0  0  0  0  0  0
   -4.2899   -1.1942   -2.0551 N   0  0  0  0  0  0  0  0  0  0  0  0
   -5.5453   -1.4881   -1.8887 C   0  0  0  0  0  0  0  0  0  0  0  0
   -5.8253   -2.0231   -0.8037 O   0  0  0  0  0  0  0  0  0  0  0  0
   -6.3357   -1.0600   -2.8416 O   0  0  0  0  0  0  0  0  0  0  0  0
   -7.7172   -1.2139   -2.5363 C   0  0  0  0  0  0  0  0  0  0  0  0
   -8.0557   -2.7050   -2.4233 C   0  0  0  0  0  0  0  0  0  0  0  0
   -8.1133   -0.4196   -1.2781 C   0  0  0  0  0  0  0  0  0  0  0  0
   -8.3716   -0.6057   -3.7628 C   0  0  0  0  0  0  0  0  0  0  0  0
   -4.0203   -0.4514   -3.9286 H   0  0  0  0  0  0  0  0  0  0  0  0
   -0.7369   -6.3824   -1.5154 H   0  0  0  0  0  0  0  0  0  0  0  0
   -2.6008   -3.7416    2.2792 H   0  0  0  0  0  0  0  0  0  0  0  0
   -3.3043   -1.6643    1.1090 H   0  0  0  0  0  0  0  0  0  0  0  0
   -2.4397   -1.3752   -1.0572 H   0  0  0  0  0  0  0  0  0  0  0  0
   -1.3044   -3.5509   -3.5584 H   0  0  0  0  0  0  0  0  0  0  0  0
   -1.8492    0.7118   -3.5635 H   0  0  0  0  0  0  0  0  0  0  0  0
   -3.9784    1.4852   -1.4946 H   0  0  0  0  0  0  0  0  0  0  0  0
   -2.6846    2.5318   -2.0890 H   0  0  0  0  0  0  0  0  0  0  0  0
   -3.9430    1.9747   -3.2061 H   0  0  0  0  0  0  0  0  0  0  0  0
   -0.7976   -0.5284   -1.6789 H   0  0  0  0  0  0  0  0  0  0  0  0
   -0.7974    1.1895   -1.3909 H   0  0  0  0  0  0  0  0  0  0  0  0
   -1.9856    0.2722   -0.5567 H   0  0  0  0  0  0  0  0  0  0  0  0
   -4.0318   -1.4692   -1.1386 H   0  0  0  0  0  0  0  0  0  0  0  0
   -7.5794   -3.1877   -1.5625 H   0  0  0  0  0  0  0  0  0  0  0  0
   -9.1288   -2.8551   -2.3144 H   0  0  0  0  0  0  0  0  0  0  0  0
   -7.6824   -3.2460   -3.3003 H   0  0  0  0  0  0  0  0  0  0  0  0
   -7.7940    0.6261   -1.3592 H   0  0  0  0  0  0  0  0  0  0  0  0
   -9.1910   -0.4661   -1.1149 H   0  0  0  0  0  0  0  0  0  0  0  0
   -7.6440   -0.7947   -0.3617 H   0  0  0  0  0  0  0  0  0  0  0  0
   -8.0666    0.4431   -3.8739 H   0  0  0  0  0  0  0  0  0  0  0  0
   -8.0201   -1.1177   -4.6673 H   0  0  0  0  0  0  0  0  0  0  0  0
   -9.4564   -0.6679   -3.7016 H   0  0  0  0  0  0  0  0  0  0  0  0
  1  2  2  0  0  0  0
  1  3  1  0  0  0  0
  1 26  1  0  0  0  0
  3  4  2  0  0  0  0
  3  9  1  0  0  0  0
  4  5  1  0  0  0  0
  4  6  1  0  0  0  0
  6  7  2  0  0  0  0
  6 27  1  0  0  0  0
  7  8  1  0  0  0  0
  7 28  1  0  0  0  0
  8  9  2  0  0  0  0
  8 29  1  0  0  0  0
  9 10  1  0  0  0  0
 10 11  1  0  0  0  0
 10 30  1  0  0  0  0
 11 12  2  0  0  0  0
 13 17  1  0  0  0  0
 13 25  1  6  0  0  0
 13 14  1  0  0  0  0
 13 11  1  0  0  0  0
 14 15  1  0  0  0  0
 14 16  1  0  0  0  0
 14 31  1  0  0  0  0
 15 32  1  0  0  0  0
 15 33  1  0  0  0  0
 15 34  1  0  0  0  0
 16 35  1  0  0  0  0
 16 36  1  0  0  0  0
 16 37  1  0  0  0  0
 17 18  1  0  0  0  0
 17 38  1  0  0  0  0
 18 19  2  0  0  0  0
 18 20  1  0  0  0  0
 20 21  1  0  0  0  0
 21 22  1  0  0  0  0
 21 23  1  0  0  0  0
 21 24  1  0  0  0  0
 22 39  1  0  0  0  0
 22 40  1  0  0  0  0
 22 41  1  0  0  0  0
 23 42  1  0  0  0  0
 23 43  1  0  0  0  0
 23 44  1  0  0  0  0
 24 45  1  0  0  0  0
 24 46  1  0  0  0  0
 24 47  1  0  0  0  0
M  END
>  <DRUGBANK_ID>
DB07956

>  <COMMON_NAME>
[1-(3-CHLORO-2-FORMYL-PHENYLCARBAMOYL)-2-METHYL-PROPYL]-CARBAMIC ACID TERT-BUTYL ESTER

$$$$
