Thymol
 OpenBabel10282417123D
Marvin  09140623232D
 25 25  0  0  0  0  0  0  0  0999 V2000
   -1.1393   -1.0828   -0.0177 C   0  0  0  0  0  0  0  0  0  0  0  0
   -1.1282    0.3187   -0.0101 C   0  0  0  0  0  0  0  0  0  0  0  0
    0.1049   -1.7466    0.0027 C   0  0  0  0  0  0  0  0  0  0  0  0
   -2.4082   -1.9162   -0.0598 C   0  0  0  0  0  0  0  0  0  0  0  0
    0.0683    1.0279   -0.0033 C   0  0  0  0  0  0  0  0  0  0  0  0
   -2.2345    1.1162   -0.0130 O   0  0  0  0  0  0  0  0  0  0  0  0
    1.3102   -1.0303    0.0188 C   0  0  0  0  0  0  0  0  0  0  0  0
   -3.2583   -1.7123    1.1985 C   0  0  0  0  0  0  0  0  0  0  0  0
   -3.1949   -1.6650   -1.3514 C   0  0  0  0  0  0  0  0  0  0  0  0
    1.2940    0.3648    0.0069 C   0  0  0  0  0  0  0  0  0  0  0  0
    2.5435    1.1884    0.0008 C   0  0  0  0  0  0  0  0  0  0  0  0
    0.1529   -2.8350    0.0019 H   0  0  0  0  0  0  0  0  0  0  0  0
   -2.1317   -2.9806   -0.0730 H   0  0  0  0  0  0  0  0  0  0  0  0
    0.0308    2.1135   -0.0095 H   0  0  0  0  0  0  0  0  0  0  0  0
   -3.0365    0.5763   -0.0103 H   0  0  0  0  0  0  0  0  0  0  0  0
    2.2534   -1.5717    0.0360 H   0  0  0  0  0  0  0  0  0  0  0  0
   -3.5901   -0.6803    1.3340 H   0  0  0  0  0  0  0  0  0  0  0  0
   -4.1568   -2.3357    1.1672 H   0  0  0  0  0  0  0  0  0  0  0  0
   -2.6878   -1.9796    2.0953 H   0  0  0  0  0  0  0  0  0  0  0  0
   -2.5812   -1.9032   -2.2280 H   0  0  0  0  0  0  0  0  0  0  0  0
   -4.0955   -2.2849   -1.3878 H   0  0  0  0  0  0  0  0  0  0  0  0
   -3.5152   -0.6265   -1.4655 H   0  0  0  0  0  0  0  0  0  0  0  0
    2.5632    1.8174   -0.8958 H   0  0  0  0  0  0  0  0  0  0  0  0
    2.5637    1.8329    0.8858 H   0  0  0  0  0  0  0  0  0  0  0  0
    3.4433    0.5682    0.0045 H   0  0  0  0  0  0  0  0  0  0  0  0
  1  2  2  0  0  0  0
  1  3  1  0  0  0  0
  1  4  1  0  0  0  0
  2  5  1  0  0  0  0
  2  6  1  0  0  0  0
  3  7  2  0  0  0  0
  3 12  1  0  0  0  0
  4  8  1  0  0  0  0
  4  9  1  0  0  0  0
  4 13  1  0  0  0  0
  5 10  2  0  0  0  0
  5 14  1  0  0  0  0
  6 15  1  0  0  0  0
  7 10  1  0  0  0  0
  7 16  1  0  0  0  0
  8 17  1  0  0  0  0
  8 18  1  0  0  0  0
  8 19  1  0  0  0  0
  9 20  1  0  0  0  0
  9 21  1  0  0  0  0
  9 22  1  0  0  0  0
 10 11  1  0  0  0  0
 11 23  1  0  0  0  0
 11 24  1  0  0  0  0
 11 25  1  0  0  0  0
M  END
>  <DRUGBANK_ID>
DB02513

>  <SECONDARY_ACCESSION_NUMBERS>
EXPT01913

>  <COMMON_NAME>
Thymol

>  <CAS_NUMBER>
89-83-8

>  <UNII>
3J50XA376E

>  <SYNONYMS>
2-isopropyl-5-methylphenol; 5-Methyl-2-(1-Methylethyl)Phenol; IPMP

$$$$
