
 OpenBabel10282417243D

 97 98  0  0  1  0  0  0  0  0999 V2000
    1.0546    0.0469   -0.0535 Na  0  3  0  0  0  0  0  0  0  0  0  0
   -2.3939    5.0649    6.3482 C   0  0  0  0  0  0  0  0  0  0  0  0
   -1.3710    4.9341    5.2403 C   0  0  0  0  0  0  0  0  0  0  0  0
   -1.4221    3.6001    4.5283 C   0  0  0  0  0  0  0  0  0  0  0  0
   -2.7197    3.4411    3.7945 C   0  0  0  0  0  0  0  0  0  0  0  0
   -3.7059    4.5450    2.6284 C   0  0  1  0  0  0  0  0  0  0  0  0
   -2.3220    4.6146    1.9242 N   0  0  0  0  0  0  0  0  0  0  0  0
   -2.3363    4.0760    0.7592 C   0  0  0  0  0  0  0  0  0  0  0  0
   -1.3132    4.1862    0.0923 O   0  0  0  0  0  0  0  0  0  0  0  0
   -3.9377    3.8281    0.6609 C   0  0  1  0  0  0  0  0  0  0  0  0
   -4.3556    2.5591    1.5116 C   0  0  0  0  0  0  0  0  0  0  0  0
   -4.7616    2.7212    3.0061 C   0  0  0  0  0  0  0  0  0  0  0  0
   -4.9963    1.6904    3.8225 C   0  0  0  0  0  0  0  0  0  0  0  0
   -5.0980    2.3645    5.0653 N   0  0  0  0  0  0  0  0  0  0  0  0
   -4.3768    1.8034    6.0862 C   0  0  0  0  0  0  0  0  0  0  0  0
   -4.1286    2.4389    7.0874 O   0  0  0  0  0  0  0  0  0  0  0  0
   -3.9573    0.5574    5.7317 O   0  0  0  0  0  0  0  0  0  0  0  0
   -3.6475   -0.1296    6.9069 C   0  0  0  0  0  0  0  0  0  0  0  0
   -5.4890    3.7846    5.1312 C   0  0  0  0  0  0  0  0  0  0  0  0
   -5.4462    5.0350    5.8594 C   0  0  0  0  0  0  0  0  0  0  0  0
   -5.3278    6.5673    5.3387 C   0  0  0  0  0  0  0  0  0  0  0  0
   -5.3561    7.0751    4.1139 C   0  0  0  0  0  0  0  0  0  0  0  0
   -5.2267    5.9142    3.5322 C   0  0  0  0  0  0  0  0  0  0  0  0
   -5.2202    4.2274    3.8919 C   0  0  0  0  0  0  0  0  0  0  0  0
   -4.9815    5.4074    0.4650 N   0  0  0  0  0  0  0  0  0  0  0  0
   -5.7007    6.3024   -0.6112 C   0  0  0  0  0  0  0  0  0  0  0  0
   -6.1067    7.4527   -0.3619 O   0  0  0  0  0  0  0  0  0  0  0  0
   -5.4473    5.7902   -2.3310 C   0  0  2  0  0  0  0  0  0  0  0  0
   -4.6856    4.4148   -2.8839 C   0  0  0  0  0  0  0  0  0  0  0  0
   -4.1076    3.7312   -1.7243 C   0  0  0  0  0  0  0  0  0  0  0  0
   -5.5058    2.6123   -1.1327 C   0  0  0  0  0  0  0  0  0  0  0  0
   -2.7386    3.1000   -1.7343 C   0  0  0  0  0  0  0  0  0  0  0  0
   -3.6212    5.1311   -1.1382 C   0  0  0  0  0  0  0  0  0  0  0  0
   -4.8346    6.8669   -3.0558 N   0  0  0  0  0  0  0  0  0  0  0  0
   -5.3533    7.3284   -4.2043 C   0  0  0  0  0  0  0  0  0  0  0  0
   -4.6020    7.9422   -4.9589 O   0  0  0  0  0  0  0  0  0  0  0  0
   -6.6607    6.9291   -4.4784 N   0  0  0  0  0  0  0  0  0  0  0  0
   -7.0104    6.7662   -5.8774 C   0  0  1  0  0  0  0  0  0  0  0  0
   -7.1642    5.2891   -6.2411 C   0  0  0  0  0  0  0  0  0  0  0  0
   -8.2439    7.5961   -6.2194 C   0  0  0  0  0  0  0  0  0  0  0  0
   -9.3973    7.3789   -5.2469 C   0  0  0  0  0  0  0  0  0  0  0  0
   -8.9502    7.7218   -3.8415 C   0  0  0  0  0  0  0  0  0  0  0  0
   -7.7751    6.8490   -3.4500 C   0  0  1  0  0  0  0  0  0  0  0  0
   -8.3326    5.3959   -3.1157 C   0  0  0  0  0  0  0  0  0  0  0  0
   -5.7079    4.3887    2.0145 C   0  0  0  0  0  0  0  0  0  0  0  0
   -6.6073    5.3870    1.8956 O   0  5  0  0  0  0  0  0  0  0  0  0
   -6.5260    3.3085    2.0337 O   0  0  0  0  0  0  0  0  0  0  0  0
   -3.3133    4.9657    5.8299 H   0  0  0  0  0  0  0  0  0  0  0  0
   -2.4672    6.0566    6.7970 H   0  0  0  0  0  0  0  0  0  0  0  0
   -2.4002    4.2736    7.1028 H   0  0  0  0  0  0  0  0  0  0  0  0
   -1.5975    5.7082    4.5015 H   0  0  0  0  0  0  0  0  0  0  0  0
   -0.3834    5.0723    5.6564 H   0  0  0  0  0  0  0  0  0  0  0  0
   -0.6140    3.3995    3.8290 H   0  0  0  0  0  0  0  0  0  0  0  0
   -1.4165    2.7773    5.2760 H   0  0  0  0  0  0  0  0  0  0  0  0
   -2.6212    2.4111    3.4014 H   0  0  0  0  0  0  0  0  0  0  0  0
   -3.2821    3.4561    4.6907 H   0  0  0  0  0  0  0  0  0  0  0  0
   -3.3384    5.5019    3.0907 H   0  0  0  0  0  0  0  0  0  0  0  0
   -1.3686    4.5965    2.2971 H   0  0  0  0  0  0  0  0  0  0  0  0
   -3.9915    3.1042   -0.0745 H   0  0  0  0  0  0  0  0  0  0  0  0
   -5.3154    2.3411    1.1138 H   0  0  0  0  0  0  0  0  0  0  0  0
   -3.8541    1.6402    1.1281 H   0  0  0  0  0  0  0  0  0  0  0  0
   -4.6175    0.6941    3.5445 H   0  0  0  0  0  0  0  0  0  0  0  0
   -2.7418    0.2926    7.3439 H   0  0  0  0  0  0  0  0  0  0  0  0
   -4.5043   -0.0350    7.5794 H   0  0  0  0  0  0  0  0  0  0  0  0
   -3.5020   -1.1781    6.6598 H   0  0  0  0  0  0  0  0  0  0  0  0
   -5.0802    4.9809    6.8599 H   0  0  0  0  0  0  0  0  0  0  0  0
   -5.0820    7.3572    6.0185 H   0  0  0  0  0  0  0  0  0  0  0  0
   -5.3647    7.9977    3.5225 H   0  0  0  0  0  0  0  0  0  0  0  0
   -5.2063    6.3733    2.5048 H   0  0  0  0  0  0  0  0  0  0  0  0
   -4.6610    6.0853    1.1117 H   0  0  0  0  0  0  0  0  0  0  0  0
   -6.4114    5.6197   -2.5969 H   0  0  0  0  0  0  0  0  0  0  0  0
   -5.2322    3.5873   -3.3224 H   0  0  0  0  0  0  0  0  0  0  0  0
   -3.7796    4.7075   -3.4069 H   0  0  0  0  0  0  0  0  0  0  0  0
   -5.3761    1.7283   -1.7414 H   0  0  0  0  0  0  0  0  0  0  0  0
   -5.5574    1.8207   -0.3324 H   0  0  0  0  0  0  0  0  0  0  0  0
   -6.4676    3.1041   -0.8343 H   0  0  0  0  0  0  0  0  0  0  0  0
   -2.0491    3.9373   -1.9438 H   0  0  0  0  0  0  0  0  0  0  0  0
   -2.4001    2.6571   -0.7825 H   0  0  0  0  0  0  0  0  0  0  0  0
   -2.6766    2.2157   -2.3012 H   0  0  0  0  0  0  0  0  0  0  0  0
   -3.5964    6.2101   -1.3860 H   0  0  0  0  0  0  0  0  0  0  0  0
   -4.6868    4.8257   -1.0169 H   0  0  0  0  0  0  0  0  0  0  0  0
   -3.2415    5.5075   -0.1603 H   0  0  0  0  0  0  0  0  0  0  0  0
   -3.8273    6.9663   -2.9609 H   0  0  0  0  0  0  0  0  0  0  0  0
   -6.1776    7.1256   -6.4952 H   0  0  0  0  0  0  0  0  0  0  0  0
   -7.3930    5.1811   -7.3038 H   0  0  0  0  0  0  0  0  0  0  0  0
   -6.2463    4.7329   -6.0205 H   0  0  0  0  0  0  0  0  0  0  0  0
   -7.9720    4.7984   -5.7036 H   0  0  0  0  0  0  0  0  0  0  0  0
   -8.5767    7.3693   -7.2339 H   0  0  0  0  0  0  0  0  0  0  0  0
   -7.9621    8.6564   -6.1879 H   0  0  0  0  0  0  0  0  0  0  0  0
   -9.7413    6.3405   -5.2940 H   0  0  0  0  0  0  0  0  0  0  0  0
  -10.2454    8.0093   -5.5167 H   0  0  0  0  0  0  0  0  0  0  0  0
   -9.7664    7.5702   -3.1269 H   0  0  0  0  0  0  0  0  0  0  0  0
   -8.6589    8.7770   -3.7829 H   0  0  0  0  0  0  0  0  0  0  0  0
   -7.3950    7.3195   -2.5320 H   0  0  0  0  0  0  0  0  0  0  0  0
   -7.6436    4.5850   -2.8286 H   0  0  0  0  0  0  0  0  0  0  0  0
   -9.0130    5.4626   -2.2638 H   0  0  0  0  0  0  0  0  0  0  0  0
   -8.8217    4.9399   -3.9638 H   0  0  0  0  0  0  0  0  0  0  0  0
  2  3  1  0  0  0  0
  2 48  1  0  0  0  0
  2 49  1  0  0  0  0
  2 50  1  0  0  0  0
  3  4  1  0  0  0  0
  3 51  1  0  0  0  0
  3 52  1  0  0  0  0
  4  5  1  0  0  0  0
  4 53  1  0  0  0  0
  4 54  1  0  0  0  0
  5 55  1  0  0  0  0
  5 56  1  0  0  0  0
  6  5  1  0  0  0  0
  6  7  1  0  0  0  0
  6 45  1  0  0  0  0
  6 57  1  1  0  0  0
  7  8  1  0  0  0  0
  7 58  1  0  0  0  0
  8  9  2  0  0  0  0
 10  8  1  0  0  0  0
 10 11  1  0  0  0  0
 10 25  1  0  0  0  0
 10 59  1  6  0  0  0
 11 12  1  0  0  0  0
 11 60  1  0  0  0  0
 11 61  1  0  0  0  0
 12 13  2  0  0  0  0
 12 24  1  0  0  0  0
 13 14  1  0  0  0  0
 13 62  1  0  0  0  0
 14 15  1  0  0  0  0
 14 19  1  0  0  0  0
 15 16  2  0  0  0  0
 15 17  1  0  0  0  0
 17 18  1  0  0  0  0
 18 63  1  0  0  0  0
 18 64  1  0  0  0  0
 18 65  1  0  0  0  0
 19 20  2  0  0  0  0
 19 24  1  0  0  0  0
 20 21  1  0  0  0  0
 20 66  1  0  0  0  0
 21 22  2  0  0  0  0
 21 67  1  0  0  0  0
 22 23  1  0  0  0  0
 22 68  1  0  0  0  0
 23 24  2  0  0  0  0
 23 69  1  0  0  0  0
 25 26  1  0  0  0  0
 25 70  1  0  0  0  0
 26 27  2  0  0  0  0
 28 34  1  0  0  0  0
 28 71  1  6  0  0  0
 28 29  1  0  0  0  0
 28 26  1  0  0  0  0
 29 30  1  0  0  0  0
 29 72  1  0  0  0  0
 29 73  1  0  0  0  0
 30 31  1  0  0  0  0
 30 32  1  0  0  0  0
 30 33  1  0  0  0  0
 31 74  1  0  0  0  0
 31 75  1  0  0  0  0
 31 76  1  0  0  0  0
 32 77  1  0  0  0  0
 32 78  1  0  0  0  0
 32 79  1  0  0  0  0
 33 80  1  0  0  0  0
 33 81  1  0  0  0  0
 33 82  1  0  0  0  0
 34 35  1  0  0  0  0
 34 83  1  0  0  0  0
 35 36  2  0  0  0  0
 35 37  1  0  0  0  0
 38 37  1  0  0  0  0
 38 39  1  0  0  0  0
 38 40  1  0  0  0  0
 38 84  1  6  0  0  0
 39 85  1  0  0  0  0
 39 86  1  0  0  0  0
 39 87  1  0  0  0  0
 40 41  1  0  0  0  0
 40 88  1  0  0  0  0
 40 89  1  0  0  0  0
 41 42  1  0  0  0  0
 41 90  1  0  0  0  0
 41 91  1  0  0  0  0
 42 92  1  0  0  0  0
 42 93  1  0  0  0  0
 43 42  1  0  0  0  0
 43 37  1  0  0  0  0
 43 44  1  0  0  0  0
 43 94  1  1  0  0  0
 44 95  1  0  0  0  0
 44 96  1  0  0  0  0
 44 97  1  0  0  0  0
 45 46  1  0  0  0  0
 45 47  2  0  0  0  0
M  CHG  2   1   1  46  -1
M  END
>  <DRUGBANK_ID>
DB17984

>  <COMMON_NAME>
BQ-788

>  <CAS_NUMBER>
156161-89-6

>  <UNII>
44OLL8XEJ4

>  <SYNONYMS>
BQ 788; BQ788; D-norleucine, n-(((2r,6s)-2,6-dimethyl-1-piperidinyl)carbonyl)-4-methyl-l-leucyl-1-(methoxycarbonyl)-d-tryptophyl-, sodium salt (1:1)

$$$$
