PD7
 OpenBabel10282417173D

 59 58  0  0  0  0  0  0  0  0999 V2000
    0.5072   -0.0703   -0.5116 O   0  0  0  0  0  0  0  0  0  0  0  0
    1.6856    0.2782   -0.5266 C   0  0  0  0  0  0  0  0  0  0  0  0
    2.2420    1.1977    0.6003 C   0  0  0  0  0  0  0  0  0  0  0  0
    2.1953    2.6589    0.7049 C   0  0  0  0  0  0  0  0  0  0  0  0
    0.7754    2.7227    1.1588 C   0  0  0  0  0  0  0  0  0  0  0  0
    0.5902    2.1056    2.5785 C   0  0  0  0  0  0  0  0  0  0  0  0
    1.4575    2.8129    3.6210 C   0  0  0  0  0  0  0  0  0  0  0  0
    1.2025    4.3019    3.5087 C   0  0  0  0  0  0  0  0  0  0  0  0
    2.5904   -0.2849   -1.4438 O   0  0  0  0  0  0  0  0  0  0  0  0
    4.0677   -0.6495   -1.3894 C   0  0  0  0  0  0  0  0  0  0  0  0
    5.0362    0.5764   -1.3612 C   0  0  2  0  0  0  0  0  0  0  0  0
    4.9620    1.5154   -0.1515 C   0  0  0  0  0  0  0  0  0  0  0  0
    4.8798    0.9656    1.2064 O   0  0  0  0  0  0  0  0  0  0  0  0
    4.3031   -0.6455    1.4607 P   0  0  0  0  0  0  0  0  0  0  0  0
    5.6631   -1.2467    0.8503 O   0  0  0  0  0  0  0  0  0  0  0  0
    3.7870   -2.0875    1.6882 O   0  0  0  0  0  0  0  0  0  0  0  0
    2.8446   -0.8254    0.9321 O   0  0  0  0  0  0  0  0  0  0  0  0
    4.5550    1.2688   -2.5339 O   0  0  0  0  0  0  0  0  0  0  0  0
    4.9647    2.5169   -2.8611 C   0  0  0  0  0  0  0  0  0  0  0  0
    5.6981    3.2005   -2.2212 O   0  0  0  0  0  0  0  0  0  0  0  0
    4.3466    2.8948   -4.1826 C   0  0  0  0  0  0  0  0  0  0  0  0
    4.8349    1.9369   -5.2682 C   0  0  0  0  0  0  0  0  0  0  0  0
    4.2848    0.5049   -5.1303 C   0  0  0  0  0  0  0  0  0  0  0  0
    2.7518    0.4716   -5.1245 C   0  0  0  0  0  0  0  0  0  0  0  0
    2.1887    0.9928   -6.4454 C   0  0  0  0  0  0  0  0  0  0  0  0
    2.6832    0.1419   -7.6048 C   0  0  0  0  0  0  0  0  0  0  0  0
    6.0850    0.3009   -1.5282 H   0  0  0  0  0  0  0  0  0  0  0  0
    2.3219    0.8755    1.6614 H   0  0  0  0  0  0  0  0  0  0  0  0
    3.1931    0.9659    0.3425 H   0  0  0  0  0  0  0  0  0  0  0  0
    2.9512    3.0193    1.4367 H   0  0  0  0  0  0  0  0  0  0  0  0
    2.4298    3.1357   -0.2425 H   0  0  0  0  0  0  0  0  0  0  0  0
    0.4419    3.7458    1.0606 H   0  0  0  0  0  0  0  0  0  0  0  0
    0.1810    2.1421    0.4479 H   0  0  0  0  0  0  0  0  0  0  0  0
   -0.4696    2.1626    2.8190 H   0  0  0  0  0  0  0  0  0  0  0  0
    0.7988    1.0240    2.6466 H   0  0  0  0  0  0  0  0  0  0  0  0
    1.2109    2.4412    4.6206 H   0  0  0  0  0  0  0  0  0  0  0  0
    2.5292    2.6022    3.4879 H   0  0  0  0  0  0  0  0  0  0  0  0
    0.1276    4.4842    3.6001 H   0  0  0  0  0  0  0  0  0  0  0  0
    1.7475    4.8598    4.2651 H   0  0  0  0  0  0  0  0  0  0  0  0
    1.5260    4.6943    2.5384 H   0  0  0  0  0  0  0  0  0  0  0  0
    4.2241   -1.4617   -0.6825 H   0  0  0  0  0  0  0  0  0  0  0  0
    4.2986   -1.2427   -2.2862 H   0  0  0  0  0  0  0  0  0  0  0  0
    5.5072    2.4574   -0.0975 H   0  0  0  0  0  0  0  0  0  0  0  0
    4.0582    2.0312   -0.4735 H   0  0  0  0  0  0  0  0  0  0  0  0
    6.1195   -0.8438    0.1085 H   0  0  0  0  0  0  0  0  0  0  0  0
    2.2992   -1.1531    1.6978 H   0  0  0  0  0  0  0  0  0  0  0  0
    3.2557    2.9407   -4.0954 H   0  0  0  0  0  0  0  0  0  0  0  0
    4.6789    3.9124   -4.3979 H   0  0  0  0  0  0  0  0  0  0  0  0
    4.5569    2.3490   -6.2436 H   0  0  0  0  0  0  0  0  0  0  0  0
    5.9299    1.8989   -5.2592 H   0  0  0  0  0  0  0  0  0  0  0  0
    4.6964   -0.1211   -5.9256 H   0  0  0  0  0  0  0  0  0  0  0  0
    4.6667    0.0002   -4.2429 H   0  0  0  0  0  0  0  0  0  0  0  0
    2.4067   -0.5529   -4.9450 H   0  0  0  0  0  0  0  0  0  0  0  0
    2.3425    1.0598   -4.2939 H   0  0  0  0  0  0  0  0  0  0  0  0
    1.0952    0.9835   -6.4102 H   0  0  0  0  0  0  0  0  0  0  0  0
    2.4755    2.0388   -6.6045 H   0  0  0  0  0  0  0  0  0  0  0  0
    2.3767   -0.8985   -7.4602 H   0  0  0  0  0  0  0  0  0  0  0  0
    2.2891    0.5090   -8.5523 H   0  0  0  0  0  0  0  0  0  0  0  0
    3.7739    0.1607   -7.6936 H   0  0  0  0  0  0  0  0  0  0  0  0
  2  1  2  0  0  0  0
  2  9  1  0  0  0  0
  3  2  1  0  0  0  0
  3 28  1  0  0  0  0
  3 29  1  0  0  0  0
  4  3  1  0  0  0  0
  4  5  1  0  0  0  0
  4 30  1  0  0  0  0
  4 31  1  0  0  0  0
  5 32  1  0  0  0  0
  5 33  1  0  0  0  0
  6  5  1  0  0  0  0
  6  7  1  0  0  0  0
  6 34  1  0  0  0  0
  6 35  1  0  0  0  0
  7 36  1  0  0  0  0
  7 37  1  0  0  0  0
  8  7  1  0  0  0  0
  8 38  1  0  0  0  0
  8 39  1  0  0  0  0
  8 40  1  0  0  0  0
  9 10  1  0  0  0  0
 10 41  1  0  0  0  0
 10 42  1  0  0  0  0
 11 10  1  0  0  0  0
 11 12  1  0  0  0  0
 11 27  1  6  0  0  0
 11 18  1  0  0  0  0
 12 13  1  0  0  0  0
 12 43  1  0  0  0  0
 12 44  1  0  0  0  0
 13 14  1  0  0  0  0
 14 17  1  0  0  0  0
 14 15  1  0  0  0  0
 15 45  1  0  0  0  0
 16 14  2  0  0  0  0
 17 46  1  0  0  0  0
 19 18  1  0  0  0  0
 20 19  2  0  0  0  0
 21 19  1  0  0  0  0
 21 47  1  0  0  0  0
 21 48  1  0  0  0  0
 22 21  1  0  0  0  0
 22 49  1  0  0  0  0
 22 50  1  0  0  0  0
 23 22  1  0  0  0  0
 23 51  1  0  0  0  0
 23 52  1  0  0  0  0
 24 23  1  0  0  0  0
 24 53  1  0  0  0  0
 24 54  1  0  0  0  0
 25 24  1  0  0  0  0
 25 55  1  0  0  0  0
 25 56  1  0  0  0  0
 26 25  1  0  0  0  0
 26 57  1  0  0  0  0
 26 58  1  0  0  0  0
 26 59  1  0  0  0  0
M  END
>  <DRUGBANK_ID>
DB08376

>  <COMMON_NAME>
(2R)-3-(phosphonooxy)propane-1,2-diyl diheptanoate

$$$$
