
 OpenBabel10282417193D

 43 45  0  0  0  0  0  0  0  0999 V2000
    1.0459    0.0368    0.0889 C   0  0  0  0  0  0  0  0  0  0  0  0
   -1.7516   -6.0996    8.5524 C   0  0  0  0  0  0  0  0  0  0  0  0
   -1.1732   -6.0308    7.2849 C   0  0  0  0  0  0  0  0  0  0  0  0
    2.4386   -3.0780   10.1461 C   0  0  0  0  0  0  0  0  0  0  0  0
    1.6779   -1.2472    8.7777 C   0  0  0  0  0  0  0  0  0  0  0  0
    2.7494   -2.1945   11.1837 C   0  0  0  0  0  0  0  0  0  0  0  0
    1.9773   -0.3591    9.8197 C   0  0  0  0  0  0  0  0  0  0  0  0
    0.6543   -2.4418    1.4563 C   0  0  0  0  0  0  0  0  0  0  0  0
   -0.0778   -1.1455    3.3520 C   0  0  0  0  0  0  0  0  0  0  0  0
    0.3904   -3.6208    2.1624 C   0  0  0  0  0  0  0  0  0  0  0  0
   -0.3388   -2.3187    4.0703 C   0  0  0  0  0  0  0  0  0  0  0  0
   -1.2480   -5.2826    9.5422 C   0  0  0  0  0  0  0  0  0  0  0  0
    1.9197   -2.6194    8.9265 C   0  0  0  0  0  0  0  0  0  0  0  0
    2.5164   -0.8366   11.0094 C   0  0  0  0  0  0  0  0  0  0  0  0
    0.4060   -1.1979    2.0376 C   0  0  0  0  0  0  0  0  0  0  0  0
   -0.1068   -3.5557    3.4660 C   0  0  0  0  0  0  0  0  0  0  0  0
   -0.1523   -5.1056    7.0290 C   0  0  0  0  0  0  0  0  0  0  0  0
    0.3498   -4.3649    8.1199 C   0  0  0  0  0  0  0  0  0  0  0  0
   -0.2058   -4.4506    9.3551 N   0  0  0  0  0  0  0  0  0  0  0  0
    1.5117   -3.5564    7.9461 N   0  0  0  0  0  0  0  0  0  0  0  0
    0.4398   -4.9194    5.7231 N   0  0  0  0  0  0  0  0  0  0  0  0
    2.7928    0.0711   11.9894 O   0  0  0  0  0  0  0  0  0  0  0  0
   -1.9216   -4.9586    4.6620 O   0  0  0  0  0  0  0  0  0  0  0  0
    0.0138   -6.1623    3.5681 O   0  0  0  0  0  0  0  0  0  0  0  0
    0.5655    0.0169    1.4299 O   0  0  0  0  0  0  0  0  0  0  0  0
   -0.5115   -5.0584    4.3331 S   0  0  0  0  0  0  0  0  0  0  0  0
    0.7272    0.9777   -0.3707 H   0  0  0  0  0  0  0  0  0  0  0  0
    0.6353   -0.7621   -0.5350 H   0  0  0  0  0  0  0  0  0  0  0  0
    2.1400    0.0082    0.0863 H   0  0  0  0  0  0  0  0  0  0  0  0
   -2.5832   -6.7652    8.7604 H   0  0  0  0  0  0  0  0  0  0  0  0
   -1.5639   -6.6853    6.5106 H   0  0  0  0  0  0  0  0  0  0  0  0
    2.5850   -4.1461   10.2863 H   0  0  0  0  0  0  0  0  0  0  0  0
    1.2227   -0.8544    7.8733 H   0  0  0  0  0  0  0  0  0  0  0  0
    3.1484   -2.5925   12.1103 H   0  0  0  0  0  0  0  0  0  0  0  0
    1.7730    0.7029    9.7145 H   0  0  0  0  0  0  0  0  0  0  0  0
    1.0354   -2.5385    0.4457 H   0  0  0  0  0  0  0  0  0  0  0  0
   -0.2719   -0.1785    3.8124 H   0  0  0  0  0  0  0  0  0  0  0  0
    0.5528   -4.5774    1.6708 H   0  0  0  0  0  0  0  0  0  0  0  0
   -0.7467   -2.2581    5.0768 H   0  0  0  0  0  0  0  0  0  0  0  0
   -1.6653   -5.2809   10.5456 H   0  0  0  0  0  0  0  0  0  0  0  0
    1.5528   -3.1929    7.0020 H   0  0  0  0  0  0  0  0  0  0  0  0
    1.4020   -5.2491    5.6216 H   0  0  0  0  0  0  0  0  0  0  0  0
    3.1708   -0.3954   12.7528 H   0  0  0  0  0  0  0  0  0  0  0  0
  1 27  1  0  0  0  0
  1 28  1  0  0  0  0
  1 29  1  0  0  0  0
  2 30  1  0  0  0  0
  3  2  2  0  0  0  0
  3 31  1  0  0  0  0
  4 32  1  0  0  0  0
  5 33  1  0  0  0  0
  6  4  1  0  0  0  0
  6 34  1  0  0  0  0
  7  5  2  0  0  0  0
  7 35  1  0  0  0  0
  8 36  1  0  0  0  0
  9 37  1  0  0  0  0
 10  8  1  0  0  0  0
 10 38  1  0  0  0  0
 11  9  2  0  0  0  0
 11 39  1  0  0  0  0
 12  2  1  0  0  0  0
 12 40  1  0  0  0  0
 13  4  2  0  0  0  0
 13  5  1  0  0  0  0
 14  6  2  0  0  0  0
 14  7  1  0  0  0  0
 15  8  2  0  0  0  0
 15  9  1  0  0  0  0
 16 10  2  0  0  0  0
 16 11  1  0  0  0  0
 17  3  1  0  0  0  0
 18 17  2  0  0  0  0
 19 12  2  0  0  0  0
 19 18  1  0  0  0  0
 20 13  1  0  0  0  0
 20 18  1  0  0  0  0
 20 41  1  0  0  0  0
 21 17  1  0  0  0  0
 21 42  1  0  0  0  0
 22 14  1  0  0  0  0
 22 43  1  0  0  0  0
 25  1  1  0  0  0  0
 25 15  1  0  0  0  0
 26 16  1  0  0  0  0
 26 21  1  0  0  0  0
 26 23  2  0  0  0  0
 26 24  2  0  0  0  0
M  END
>  <DRUGBANK_ID>
DB12254

>  <COMMON_NAME>
ABT-751

>  <CAS_NUMBER>
141430-65-1

>  <UNII>
WDT5V5OB9F

>  <SYNONYMS>
N-[2-(4-hydroxyanilino)-3-pyridinyl]-4-methoxybenzenesulfonamide; N-[2-(4-hydroxyanilino)pyridin-3-yl]-4-methoxybenzenesulfonamide; N-[2-[(4-hydroxyphenyl)amino]-3-pyridinyl]-4-methoxybenzenesulfonamide

$$$$
