581
 OpenBabel10282417133D

 12 11  0  0  1  0  0  0  0  0999 V2000
    0.9809   -2.5672   -0.0749 C   0  0  0  0  0  0  0  0  0  0  0  0
    0.4689   -1.2893   -0.7282 C   0  0  2  0  0  0  0  0  0  0  0  0
    1.0166   -0.0517   -0.0031 C   0  0  0  0  0  0  0  0  0  0  0  0
   -0.9549   -1.3511   -0.7685 O   0  0  0  0  0  0  0  0  0  0  0  0
    2.1309    0.0725    0.4842 O   0  0  0  0  0  0  0  0  0  0  0  0
    0.1223    0.9564    0.0768 O   0  0  0  0  0  0  0  0  0  0  0  0
    0.8098   -1.2375   -1.7680 H   0  0  0  0  0  0  0  0  0  0  0  0
    1.2632   -2.4040    0.9708 H   0  0  0  0  0  0  0  0  0  0  0  0
    1.8748   -2.9268   -0.5954 H   0  0  0  0  0  0  0  0  0  0  0  0
    0.2296   -3.3636   -0.0936 H   0  0  0  0  0  0  0  0  0  0  0  0
   -1.2688   -1.2938    0.1505 H   0  0  0  0  0  0  0  0  0  0  0  0
    0.5875    1.6807    0.5442 H   0  0  0  0  0  0  0  0  0  0  0  0
  1  8  1  0  0  0  0
  1  9  1  0  0  0  0
  1 10  1  0  0  0  0
  2  4  1  0  0  0  0
  2  7  1  6  0  0  0
  2  3  1  0  0  0  0
  2  1  1  0  0  0  0
  4 11  1  0  0  0  0
  5  3  2  0  0  0  0
  6  3  1  0  0  0  0
  6 12  1  0  0  0  0
M  END
>  <DRUGBANK_ID>
DB03066

>  <SECONDARY_ACCESSION_NUMBERS>
EXPT01215

>  <COMMON_NAME>
D-Lactic acid

>  <CAS_NUMBER>
10326-41-7

>  <UNII>
3Q6M5SET7W

>  <SYNONYMS>
(−)-lactic acid; (R)-(−)-lactic acid; (R)-lactic acid; D-2-Hydroxypropanoic acid; D-2-Hydroxypropionic acid; D-Milchsäure

$$$$
