
 OpenBabel10282417233D

 59 61  0  0  0  0  0  0  0  0999 V2000
   -0.2620   -1.1579    0.0126 C   0  0  0  0  0  0  0  0  0  0  0  0
   -1.1890    0.0281    0.1023 C   0  0  0  0  0  0  0  0  0  0  0  0
   -0.3784    1.1187    0.0844 C   0  0  0  0  0  0  0  0  0  0  0  0
    0.9627    0.7346    0.1420 N   0  0  0  0  0  0  0  0  0  0  0  0
    1.0296   -0.6567    0.0764 N   0  0  0  0  0  0  0  0  0  0  0  0
   -2.6761   -0.1723    0.1550 C   0  0  0  0  0  0  0  0  0  0  0  0
   -3.3470    0.5332    1.3386 C   0  0  0  0  0  0  0  0  0  0  0  0
   -3.3299    0.3857   -1.0695 C   0  0  0  0  0  0  0  0  0  0  0  0
    2.1224    1.5895   -0.0148 C   0  0  0  0  0  0  0  0  0  0  0  0
   -0.6339   -2.3286   -0.0577 O   0  0  0  0  0  0  0  0  0  0  0  0
    2.2451   -1.3571    0.0603 C   0  0  0  0  0  0  0  0  0  0  0  0
    3.2083   -1.0987    1.0462 C   0  0  0  0  0  0  0  0  0  0  0  0
    4.5036   -1.5974    0.9224 C   0  0  0  0  0  0  0  0  0  0  0  0
    4.8201   -2.4338   -0.1443 C   0  0  0  0  0  0  0  0  0  0  0  0
    3.8532   -2.7362   -1.1057 C   0  0  0  0  0  0  0  0  0  0  0  0
    2.5633   -2.2030   -1.0041 C   0  0  0  0  0  0  0  0  0  0  0  0
   -0.7143    2.6144    0.0155 C   0  0  0  0  0  0  0  0  0  0  0  0
   -1.3335    3.0827   -1.2383 N   0  0  0  0  0  0  0  0  0  0  0  0
   -1.7355    4.5188   -1.2293 C   0  0  3  0  0  0  0  0  0  0  0  0
   -0.5436    2.7244   -2.4158 C   0  0  0  0  0  0  0  0  0  0  0  0
   -0.5126    5.4549   -1.1861 C   0  0  0  0  0  0  0  0  0  0  0  0
   -2.6398    4.9178   -2.4548 C   0  0  0  0  0  0  0  0  0  0  0  0
   -3.9518    4.1664   -2.5459 C   0  0  0  0  0  0  0  0  0  0  0  0
   -3.9725    2.8022   -2.8274 C   0  0  0  0  0  0  0  0  0  0  0  0
   -5.1403    2.0456   -2.7227 C   0  0  0  0  0  0  0  0  0  0  0  0
   -6.3123    2.6393   -2.3042 C   0  0  0  0  0  0  0  0  0  0  0  0
   -6.3391    4.0187   -2.1374 C   0  0  0  0  0  0  0  0  0  0  0  0
   -5.1787    4.7859   -2.3141 C   0  0  0  0  0  0  0  0  0  0  0  0
   -2.9414   -1.2363    0.1835 H   0  0  0  0  0  0  0  0  0  0  0  0
   -3.1193    1.6045    1.3479 H   0  0  0  0  0  0  0  0  0  0  0  0
   -4.4418    0.4599    1.2716 H   0  0  0  0  0  0  0  0  0  0  0  0
   -3.0350    0.0945    2.2857 H   0  0  0  0  0  0  0  0  0  0  0  0
   -2.9737   -0.0327   -2.0150 H   0  0  0  0  0  0  0  0  0  0  0  0
   -4.4127    0.2436   -0.9998 H   0  0  0  0  0  0  0  0  0  0  0  0
   -3.1437    1.4537   -1.0480 H   0  0  0  0  0  0  0  0  0  0  0  0
    2.0547    2.2030   -0.9174 H   0  0  0  0  0  0  0  0  0  0  0  0
    2.1870    2.2442    0.8600 H   0  0  0  0  0  0  0  0  0  0  0  0
    3.0727    1.0625   -0.0868 H   0  0  0  0  0  0  0  0  0  0  0  0
    2.9498   -0.4799    1.9025 H   0  0  0  0  0  0  0  0  0  0  0  0
    5.2648   -1.3173    1.6453 H   0  0  0  0  0  0  0  0  0  0  0  0
    5.8203   -2.8525   -0.2239 H   0  0  0  0  0  0  0  0  0  0  0  0
    4.1147   -3.3663   -1.9523 H   0  0  0  0  0  0  0  0  0  0  0  0
    1.8385   -2.3973   -1.7903 H   0  0  0  0  0  0  0  0  0  0  0  0
   -1.3229    2.8832    0.8862 H   0  0  0  0  0  0  0  0  0  0  0  0
    0.2140    3.1773    0.1497 H   0  0  0  0  0  0  0  0  0  0  0  0
   -2.3332    4.7090   -0.3241 H   0  0  0  0  0  0  0  0  0  0  0  0
    0.4202    3.2344   -2.4459 H   0  0  0  0  0  0  0  0  0  0  0  0
   -0.3729    1.6469   -2.4641 H   0  0  0  0  0  0  0  0  0  0  0  0
   -1.0698    2.9602   -3.3445 H   0  0  0  0  0  0  0  0  0  0  0  0
    0.1213    5.3226   -2.0683 H   0  0  0  0  0  0  0  0  0  0  0  0
   -0.8126    6.5067   -1.1646 H   0  0  0  0  0  0  0  0  0  0  0  0
    0.1023    5.2765   -0.2984 H   0  0  0  0  0  0  0  0  0  0  0  0
   -2.8497    5.9949   -2.4031 H   0  0  0  0  0  0  0  0  0  0  0  0
   -2.0925    4.7871   -3.3954 H   0  0  0  0  0  0  0  0  0  0  0  0
   -3.0490    2.2700   -3.0270 H   0  0  0  0  0  0  0  0  0  0  0  0
   -5.1000    0.9702   -2.8737 H   0  0  0  0  0  0  0  0  0  0  0  0
   -7.1888    2.0242   -2.1286 H   0  0  0  0  0  0  0  0  0  0  0  0
   -7.2701    4.4980   -1.8563 H   0  0  0  0  0  0  0  0  0  0  0  0
   -5.2414    5.8674   -2.2525 H   0  0  0  0  0  0  0  0  0  0  0  0
  1 10  2  0  0  0  0
  1  2  1  0  0  0  0
  2  3  2  0  0  0  0
  2  6  1  0  0  0  0
  3  4  1  0  0  0  0
  3 17  1  0  0  0  0
  4  5  1  0  0  0  0
  4  9  1  0  0  0  0
  5  1  1  0  0  0  0
  5 11  1  0  0  0  0
  6  7  1  0  0  0  0
  6  8  1  0  0  0  0
  6 29  1  0  0  0  0
  7 30  1  0  0  0  0
  7 31  1  0  0  0  0
  7 32  1  0  0  0  0
  8 33  1  0  0  0  0
  8 34  1  0  0  0  0
  8 35  1  0  0  0  0
  9 36  1  0  0  0  0
  9 37  1  0  0  0  0
  9 38  1  0  0  0  0
 11 12  2  0  0  0  0
 12 13  1  0  0  0  0
 12 39  1  0  0  0  0
 13 14  2  0  0  0  0
 13 40  1  0  0  0  0
 14 15  1  0  0  0  0
 14 41  1  0  0  0  0
 15 16  2  0  0  0  0
 15 42  1  0  0  0  0
 16 11  1  0  0  0  0
 16 43  1  0  0  0  0
 17 18  1  0  0  0  0
 17 44  1  0  0  0  0
 17 45  1  0  0  0  0
 18 19  1  0  0  0  0
 18 20  1  0  0  0  0
 19 21  1  0  0  0  0
 19 22  1  0  0  0  0
 19 46  1  0  0  0  0
 20 47  1  0  0  0  0
 20 48  1  0  0  0  0
 20 49  1  0  0  0  0
 21 50  1  0  0  0  0
 21 51  1  0  0  0  0
 21 52  1  0  0  0  0
 22 23  1  0  0  0  0
 22 53  1  0  0  0  0
 22 54  1  0  0  0  0
 23 24  2  0  0  0  0
 24 25  1  0  0  0  0
 24 55  1  0  0  0  0
 25 26  2  0  0  0  0
 25 56  1  0  0  0  0
 26 27  1  0  0  0  0
 26 57  1  0  0  0  0
 27 28  2  0  0  0  0
 27 58  1  0  0  0  0
 28 23  1  0  0  0  0
 28 59  1  0  0  0  0
M  END
>  <DRUGBANK_ID>
DB16702

>  <COMMON_NAME>
Famprofazone

>  <CAS_NUMBER>
22881-35-2

>  <UNII>
HN0NCX453C

>  <SYNONYMS>
Famprofazone

$$$$
