
 OpenBabel10282417103D

 58 61  0  0  1  0  0  0  0  0999 V2000
    0.6967    1.2071    0.0334 C   0  0  1  0  0  0  0  0  0  0  0  0
   -0.7991    1.1480    0.4318 C   0  0  1  0  0  0  0  0  0  0  0  0
    1.7531    3.3970   -2.2347 C   0  0  0  0  0  0  0  0  0  0  0  0
    1.4233    2.2474   -2.8612 C   0  0  0  0  0  0  0  0  0  0  0  0
    1.0077    1.7396   -4.3511 C   0  0  0  0  0  0  0  0  0  0  0  0
    1.4110    2.5969   -5.2616 C   0  0  0  0  0  0  0  0  0  0  0  0
    1.8379    3.8136   -4.6981 C   0  0  0  0  0  0  0  0  0  0  0  0
    2.0323    4.2277   -3.2589 C   0  0  0  0  0  0  0  0  0  0  0  0
    1.8333    4.8790   -5.7094 C   0  0  0  0  0  0  0  0  0  0  0  0
    0.4554    0.2195   -5.0919 C   0  0  0  0  0  0  0  0  0  0  0  0
   -0.5860    0.4596   -5.9426 F   0  0  0  0  0  0  0  0  0  0  0  0
    0.8863    5.7863   -5.3745 F   0  0  0  0  0  0  0  0  0  0  0  0
    1.6062    3.5303   -0.6944 C   0  0  2  0  0  0  0  0  0  0  0  0
    1.5724    2.3535    0.2114 O   0  0  0  0  0  0  0  0  0  0  0  0
    0.3509    4.3770   -0.4715 C   0  0  0  0  0  0  0  0  0  0  0  0
    1.4101   -0.0338    0.2519 O   0  0  0  0  0  0  0  0  0  0  0  0
    0.7076   -1.2796    0.4186 C   0  0  0  0  0  0  0  0  0  0  0  0
   -0.8090   -1.3016    0.5065 C   0  0  0  0  0  0  0  0  0  0  0  0
   -1.4766   -0.1208   -0.0754 N   0  0  0  0  0  0  0  0  0  0  0  0
   -0.8939    1.3386    1.9220 C   0  0  0  0  0  0  0  0  0  0  0  0
   -0.2063    2.3923    2.5371 C   0  0  0  0  0  0  0  0  0  0  0  0
   -0.2267    2.5329    3.9089 C   0  0  0  0  0  0  0  0  0  0  0  0
   -0.9369    1.6150    4.6655 C   0  0  0  0  0  0  0  0  0  0  0  0
   -1.6567    0.5910    4.0791 C   0  0  0  0  0  0  0  0  0  0  0  0
   -1.6481    0.4725    2.7114 C   0  0  0  0  0  0  0  0  0  0  0  0
   -0.9479    1.7300    5.9941 F   0  0  0  0  0  0  0  0  0  0  0  0
   -1.4992   -0.3147   -1.5697 C   0  0  0  0  0  0  0  0  0  0  0  0
   -0.1344   -0.7979   -2.1368 C   0  0  0  0  0  0  0  0  0  0  0  0
    0.5413    0.2091   -2.6599 N   0  0  0  0  0  0  0  0  0  0  0  0
    1.9048   -0.2183   -2.9678 C   0  0  0  0  0  0  0  0  0  0  0  0
    1.9312   -1.4444   -2.5024 N   0  0  0  0  0  0  0  0  0  0  0  0
    0.6031   -1.8609   -2.2169 N   0  0  0  0  0  0  0  0  0  0  0  0
    2.8639    0.3004   -3.6036 O   0  0  0  0  0  0  0  0  0  0  0  0
    1.4322   -0.4120   -5.8032 F   0  0  0  0  0  0  0  0  0  0  0  0
   -0.1132   -0.8316   -4.3993 F   0  0  0  0  0  0  0  0  0  0  0  0
    3.0276    5.4855   -5.7905 F   0  0  0  0  0  0  0  0  0  0  0  0
    1.5055    4.4195   -6.9467 F   0  0  0  0  0  0  0  0  0  0  0  0
    0.4709    1.3215   -0.9804 H   0  0  0  0  0  0  0  0  0  0  0  0
   -1.3322    2.0071   -0.0003 H   0  0  0  0  0  0  0  0  0  0  0  0
    1.8292    1.5827   -2.0782 H   0  0  0  0  0  0  0  0  0  0  0  0
    1.3789    2.3052   -6.3053 H   0  0  0  0  0  0  0  0  0  0  0  0
    2.4042    5.2182   -3.0265 H   0  0  0  0  0  0  0  0  0  0  0  0
    2.4727    4.0908   -0.3140 H   0  0  0  0  0  0  0  0  0  0  0  0
    0.2417    4.7101    0.5640 H   0  0  0  0  0  0  0  0  0  0  0  0
    0.3715    5.2650   -1.1081 H   0  0  0  0  0  0  0  0  0  0  0  0
   -0.5517    3.8180   -0.7331 H   0  0  0  0  0  0  0  0  0  0  0  0
    1.3173   -1.9939    0.9756 H   0  0  0  0  0  0  0  0  0  0  0  0
    0.7896   -1.9326   -0.4071 H   0  0  0  0  0  0  0  0  0  0  0  0
   -1.0010   -1.5172    1.5483 H   0  0  0  0  0  0  0  0  0  0  0  0
   -1.2620   -2.1726    0.0060 H   0  0  0  0  0  0  0  0  0  0  0  0
    0.3802    3.1069    1.9733 H   0  0  0  0  0  0  0  0  0  0  0  0
    0.3077    3.3534    4.3694 H   0  0  0  0  0  0  0  0  0  0  0  0
   -2.2451   -0.1085    4.6550 H   0  0  0  0  0  0  0  0  0  0  0  0
   -2.2279   -0.3372    2.2836 H   0  0  0  0  0  0  0  0  0  0  0  0
   -2.2459   -1.0374   -1.8941 H   0  0  0  0  0  0  0  0  0  0  0  0
   -1.8505    0.6531   -1.9923 H   0  0  0  0  0  0  0  0  0  0  0  0
   -0.0653    1.0073   -2.8439 H   0  0  0  0  0  0  0  0  0  0  0  0
    2.8055   -1.9331   -2.5776 H   0  0  0  0  0  0  0  0  0  0  0  0
  1  2  1  0  0  0  0
  1 16  1  0  0  0  0
  1 38  1  6  0  0  0
  1 14  1  0  0  0  0
  2 19  1  0  0  0  0
  2 20  1  0  0  0  0
  2 39  1  6  0  0  0
  3  4  2  0  0  0  0
  3  8  1  0  0  0  0
  3 13  1  0  0  0  0
  4  5  1  0  0  0  0
  4 40  1  0  0  0  0
  5  6  2  0  0  0  0
  5 10  1  0  0  0  0
  6  7  1  0  0  0  0
  6 41  1  0  0  0  0
  7  8  2  0  0  0  0
  7  9  1  0  0  0  0
  8 42  1  0  0  0  0
  9 12  1  0  0  0  0
  9 36  1  0  0  0  0
  9 37  1  0  0  0  0
 10 11  1  0  0  0  0
 10 34  1  0  0  0  0
 10 35  1  0  0  0  0
 13 14  1  0  0  0  0
 13 15  1  0  0  0  0
 13 43  1  1  0  0  0
 15 44  1  0  0  0  0
 15 45  1  0  0  0  0
 15 46  1  0  0  0  0
 16 17  1  0  0  0  0
 17 18  1  0  0  0  0
 17 47  1  0  0  0  0
 17 48  1  0  0  0  0
 18 19  1  0  0  0  0
 18 49  1  0  0  0  0
 18 50  1  0  0  0  0
 19 27  1  0  0  0  0
 20 21  2  0  0  0  0
 20 25  1  0  0  0  0
 21 22  1  0  0  0  0
 21 51  1  0  0  0  0
 22 23  2  0  0  0  0
 22 52  1  0  0  0  0
 23 24  1  0  0  0  0
 23 26  1  0  0  0  0
 24 25  2  0  0  0  0
 24 53  1  0  0  0  0
 25 54  1  0  0  0  0
 27 28  1  0  0  0  0
 27 55  1  0  0  0  0
 27 56  1  0  0  0  0
 28 29  1  0  0  0  0
 28 32  2  0  0  0  0
 29 30  1  0  0  0  0
 29 57  1  0  0  0  0
 30 31  1  0  0  0  0
 30 33  2  0  0  0  0
 31 32  1  0  0  0  0
 31 58  1  0  0  0  0
M  END
>  <DRUGBANK_ID>
DB00673

>  <SECONDARY_ACCESSION_NUMBERS>
APRD00100

>  <COMMON_NAME>
Aprepitant

>  <CAS_NUMBER>
170729-80-3

>  <UNII>
1NF15YR6UY

>  <SYNONYMS>
Aprepitant; AprÃ©pitant; Aprepitantum

$$$$
