
 OpenBabel10282417223D

 58 60  0  0  0  0  0  0  0  0999 V2000
    1.1273   -0.0348    0.0837 C   0  0  0  0  0  0  0  0  0  0  0  0
    0.4069   -1.1957   -0.0712 C   0  0  0  0  0  0  0  0  0  0  0  0
    0.2722    1.2148   -0.0021 C   0  0  0  0  0  0  0  0  0  0  0  0
    2.6691    0.0274    0.1822 C   0  0  0  0  0  0  0  0  0  0  0  0
   -1.0995   -1.2718   -0.1360 C   0  0  0  0  0  0  0  0  0  0  0  0
    0.9959   -2.5859   -0.2289 C   0  0  0  0  0  0  0  0  0  0  0  0
    0.2213    1.9241   -1.2205 C   0  0  0  0  0  0  0  0  0  0  0  0
   -0.6571    1.5564    0.9995 C   0  0  0  0  0  0  0  0  0  0  0  0
    3.3530    1.2414    0.1019 C   0  0  0  0  0  0  0  0  0  0  0  0
    3.5184   -1.0905    0.3649 C   0  0  0  0  0  0  0  0  0  0  0  0
   -1.8331   -0.5092   -1.0560 C   0  0  0  0  0  0  0  0  0  0  0  0
   -1.8175   -2.1282    0.7083 C   0  0  0  0  0  0  0  0  0  0  0  0
    1.7997   -2.7231   -1.5273 C   0  0  0  0  0  0  0  0  0  0  0  0
   -0.7402    2.9276   -1.4471 C   0  0  0  0  0  0  0  0  0  0  0  0
   -1.6106    2.5710    0.7803 C   0  0  0  0  0  0  0  0  0  0  0  0
    4.7565    1.3209    0.1702 C   0  0  0  0  0  0  0  0  0  0  0  0
    4.9179   -1.0308    0.3575 C   0  0  0  0  0  0  0  0  0  0  0  0
   -3.2242   -0.4905   -1.0560 C   0  0  0  0  0  0  0  0  0  0  0  0
   -3.2103   -2.2252    0.6063 C   0  0  0  0  0  0  0  0  0  0  0  0
   -1.5841    3.3244   -0.4082 C   0  0  0  0  0  0  0  0  0  0  0  0
    5.5424    0.1805    0.2633 C   0  0  0  0  0  0  0  0  0  0  0  0
    5.3998    2.5198    0.1639 O   0  0  0  0  0  0  0  0  0  0  0  0
   -3.9138   -1.3751   -0.2462 C   0  0  0  0  0  0  0  0  0  0  0  0
   -2.1320    4.5893   -0.3051 O   0  0  0  0  0  0  0  0  0  0  0  0
   -1.6157    5.6531   -1.1435 C   0  0  0  0  0  0  0  0  0  0  0  0
   -0.1421    6.2105   -0.9522 C   0  0  0  0  0  0  0  0  0  0  0  0
    0.9364    5.2160   -0.9872 N   0  0  0  0  0  0  0  0  0  0  0  0
    2.2824    5.6733   -1.2950 C   0  0  0  0  0  0  0  0  0  0  0  0
    1.0254    4.5507    0.3086 C   0  0  0  0  0  0  0  0  0  0  0  0
    1.5360   -2.8427    0.6888 H   0  0  0  0  0  0  0  0  0  0  0  0
    0.2370   -3.3729   -0.2584 H   0  0  0  0  0  0  0  0  0  0  0  0
    0.9662    1.7371   -1.9910 H   0  0  0  0  0  0  0  0  0  0  0  0
   -0.6535    1.0228    1.9471 H   0  0  0  0  0  0  0  0  0  0  0  0
    2.8078    2.1641   -0.0256 H   0  0  0  0  0  0  0  0  0  0  0  0
    3.1718   -2.0939    0.4782 H   0  0  0  0  0  0  0  0  0  0  0  0
   -1.3317    0.1359   -1.7632 H   0  0  0  0  0  0  0  0  0  0  0  0
   -1.3028   -2.7445    1.4430 H   0  0  0  0  0  0  0  0  0  0  0  0
    2.4758   -1.8889   -1.7390 H   0  0  0  0  0  0  0  0  0  0  0  0
    2.4092   -3.6305   -1.4980 H   0  0  0  0  0  0  0  0  0  0  0  0
    1.1265   -2.7691   -2.3861 H   0  0  0  0  0  0  0  0  0  0  0  0
   -0.6567    3.5131   -2.3571 H   0  0  0  0  0  0  0  0  0  0  0  0
   -2.2751    2.8569    1.5931 H   0  0  0  0  0  0  0  0  0  0  0  0
    5.4819   -1.9607    0.4383 H   0  0  0  0  0  0  0  0  0  0  0  0
   -3.7445    0.2108   -1.7025 H   0  0  0  0  0  0  0  0  0  0  0  0
   -3.7471   -2.9610    1.1958 H   0  0  0  0  0  0  0  0  0  0  0  0
    6.6260    0.2442    0.2842 H   0  0  0  0  0  0  0  0  0  0  0  0
    4.7297    3.2186    0.2513 H   0  0  0  0  0  0  0  0  0  0  0  0
   -4.9980   -1.4078   -0.2891 H   0  0  0  0  0  0  0  0  0  0  0  0
   -1.8155    5.4111   -2.1924 H   0  0  0  0  0  0  0  0  0  0  0  0
   -2.2677    6.5098   -0.9186 H   0  0  0  0  0  0  0  0  0  0  0  0
    0.0062    6.9376   -1.7643 H   0  0  0  0  0  0  0  0  0  0  0  0
   -0.0764    6.7823   -0.0186 H   0  0  0  0  0  0  0  0  0  0  0  0
    2.7376    6.1747   -0.4345 H   0  0  0  0  0  0  0  0  0  0  0  0
    2.8979    4.7884   -1.5186 H   0  0  0  0  0  0  0  0  0  0  0  0
    2.3438    6.3262   -2.1670 H   0  0  0  0  0  0  0  0  0  0  0  0
    1.5118    5.1222    1.0926 H   0  0  0  0  0  0  0  0  0  0  0  0
    0.0577    4.3434    0.7299 H   0  0  0  0  0  0  0  0  0  0  0  0
    1.5554    3.6173    0.1706 H   0  0  0  0  0  0  0  0  0  0  0  0
  1  2  2  0  0  0  0
  1  3  1  0  0  0  0
  1  4  1  0  0  0  0
  2  5  1  0  0  0  0
  2  6  1  0  0  0  0
  3  7  1  0  0  0  0
  3  8  2  0  0  0  0
  4  9  1  0  0  0  0
  4 10  2  0  0  0  0
  5 11  2  0  0  0  0
  5 12  1  0  0  0  0
  6 13  1  0  0  0  0
  6 30  1  0  0  0  0
  6 31  1  0  0  0  0
  7 14  2  0  0  0  0
  7 32  1  0  0  0  0
  8 15  1  0  0  0  0
  8 33  1  0  0  0  0
  9 16  2  0  0  0  0
  9 34  1  0  0  0  0
 10 17  1  0  0  0  0
 10 35  1  0  0  0  0
 11 18  1  0  0  0  0
 11 36  1  0  0  0  0
 12 19  2  0  0  0  0
 12 37  1  0  0  0  0
 13 38  1  0  0  0  0
 13 39  1  0  0  0  0
 13 40  1  0  0  0  0
 14 20  1  0  0  0  0
 14 41  1  0  0  0  0
 15 20  2  0  0  0  0
 15 42  1  0  0  0  0
 16 21  1  0  0  0  0
 16 22  1  0  0  0  0
 17 21  2  0  0  0  0
 17 43  1  0  0  0  0
 18 23  2  0  0  0  0
 18 44  1  0  0  0  0
 19 23  1  0  0  0  0
 19 45  1  0  0  0  0
 20 24  1  0  0  0  0
 21 46  1  0  0  0  0
 22 47  1  0  0  0  0
 23 48  1  0  0  0  0
 24 25  1  0  0  0  0
 25 26  1  0  0  0  0
 25 49  1  0  0  0  0
 25 50  1  0  0  0  0
 26 27  1  0  0  0  0
 26 51  1  0  0  0  0
 26 52  1  0  0  0  0
 27 28  1  0  0  0  0
 27 29  1  0  0  0  0
 28 53  1  0  0  0  0
 28 54  1  0  0  0  0
 28 55  1  0  0  0  0
 29 56  1  0  0  0  0
 29 57  1  0  0  0  0
 29 58  1  0  0  0  0
M  END
>  <DRUGBANK_ID>
DB15641

>  <COMMON_NAME>
Droloxifene

>  <CAS_NUMBER>
82413-20-5

>  <UNII>
0M67U6Z98F

>  <SYNONYMS>
Droloxifene; Droloxifeno; Droloxifenum

$$$$
