
 OpenBabel10282417163D

 43 45  0  0  0  0  0  0  0  0999 V2000
   -2.2506    0.0463    0.0008 C   0  0  0  0  0  0  0  0  0  0  0  0
   -1.5144    1.1410    0.0296 N   0  0  0  0  0  0  0  0  0  0  0  0
   -0.2004    0.7168    0.0130 C   0  0  0  0  0  0  0  0  0  0  0  0
   -0.1063   -0.6658   -0.0166 C   0  0  0  0  0  0  0  0  0  0  0  0
   -1.4152   -1.0492   -0.0648 N   0  0  0  0  0  0  0  0  0  0  0  0
    0.9800    1.4637    0.0080 C   0  0  0  0  0  0  0  0  0  0  0  0
    2.2058    0.7848   -0.0011 C   0  0  0  0  0  0  0  0  0  0  0  0
    2.2680   -0.6106    0.0022 C   0  0  0  0  0  0  0  0  0  0  0  0
    1.1069   -1.3849   -0.0217 C   0  0  0  0  0  0  0  0  0  0  0  0
    1.1392   -2.8701   -0.1069 C   0  0  0  0  0  0  0  0  0  0  0  0
    0.1377   -3.5005   -0.3701 O   0  0  0  0  0  0  0  0  0  0  0  0
    2.3261   -3.5353    0.0749 N   0  0  0  0  0  0  0  0  0  0  0  0
   -4.5019   -2.8722   -0.0393 N   0  0  0  0  0  0  0  0  0  0  0  0
   -4.1396   -2.1720    1.1928 C   0  0  0  0  0  0  0  0  0  0  0  0
   -4.3952   -0.6817    1.2257 C   0  0  0  0  0  0  0  0  0  0  0  0
   -3.7802   -0.0203   -0.0191 C   0  0  0  0  0  0  0  0  0  0  0  0
   -4.3050   -0.7238   -1.2792 C   0  0  0  0  0  0  0  0  0  0  0  0
   -4.0267   -2.2240   -1.2684 C   0  0  0  0  0  0  0  0  0  0  0  0
   -4.0950   -4.2921   -0.0003 C   0  0  0  0  0  0  0  0  0  0  0  0
   -2.5817   -4.5847    0.0561 C   0  0  0  0  0  0  0  0  0  0  0  0
   -1.8914   -4.1923    1.3666 C   0  0  0  0  0  0  0  0  0  0  0  0
   -1.6818   -2.0156   -0.1349 H   0  0  0  0  0  0  0  0  0  0  0  0
    0.9299    2.5452    0.0024 H   0  0  0  0  0  0  0  0  0  0  0  0
    3.1296    1.3540   -0.0229 H   0  0  0  0  0  0  0  0  0  0  0  0
    3.2447   -1.0800   -0.0082 H   0  0  0  0  0  0  0  0  0  0  0  0
    3.2347   -3.1052    0.0814 H   0  0  0  0  0  0  0  0  0  0  0  0
    2.2956   -4.5451   -0.0085 H   0  0  0  0  0  0  0  0  0  0  0  0
   -3.0810   -2.1723    1.3112 H   0  0  0  0  0  0  0  0  0  0  0  0
   -4.5233   -2.6815    2.0839 H   0  0  0  0  0  0  0  0  0  0  0  0
   -3.9330   -0.2721    2.1349 H   0  0  0  0  0  0  0  0  0  0  0  0
   -5.4735   -0.5025    1.2960 H   0  0  0  0  0  0  0  0  0  0  0  0
   -4.1400    1.0169   -0.0327 H   0  0  0  0  0  0  0  0  0  0  0  0
   -5.3896   -0.5786   -1.3544 H   0  0  0  0  0  0  0  0  0  0  0  0
   -3.8529   -0.2789   -2.1728 H   0  0  0  0  0  0  0  0  0  0  0  0
   -4.4840   -2.6912   -2.1479 H   0  0  0  0  0  0  0  0  0  0  0  0
   -2.9602   -2.3731   -1.4300 H   0  0  0  0  0  0  0  0  0  0  0  0
   -4.5821   -4.7868    0.8488 H   0  0  0  0  0  0  0  0  0  0  0  0
   -4.5108   -4.7877   -0.8898 H   0  0  0  0  0  0  0  0  0  0  0  0
   -2.4334   -5.6613   -0.0733 H   0  0  0  0  0  0  0  0  0  0  0  0
   -2.0942   -4.1346   -0.8150 H   0  0  0  0  0  0  0  0  0  0  0  0
   -2.4873   -4.4873    2.2307 H   0  0  0  0  0  0  0  0  0  0  0  0
   -0.8959   -4.6250    1.4486 H   0  0  0  0  0  0  0  0  0  0  0  0
   -1.6720   -3.1332    1.4689 H   0  0  0  0  0  0  0  0  0  0  0  0
  1  2  2  0  0  0  0
  1  5  1  0  0  0  0
  1 16  1  0  0  0  0
  2  3  1  0  0  0  0
  3  4  1  0  0  0  0
  4  5  1  0  0  0  0
  5 22  1  0  0  0  0
  6  7  1  0  0  0  0
  6  3  2  0  0  0  0
  6 23  1  0  0  0  0
  7  8  2  0  0  0  0
  7 24  1  0  0  0  0
  8  9  1  0  0  0  0
  8 25  1  0  0  0  0
  9  4  2  0  0  0  0
  9 10  1  0  0  0  0
 10 11  2  0  0  0  0
 10 12  1  0  0  0  0
 12 26  1  0  0  0  0
 12 27  1  0  0  0  0
 13 14  1  0  0  0  0
 13 18  1  0  0  0  0
 13 19  1  0  0  0  0
 14 15  1  0  0  0  0
 14 28  1  0  0  0  0
 14 29  1  0  0  0  0
 15 16  1  0  0  0  0
 15 30  1  0  0  0  0
 15 31  1  0  0  0  0
 16 17  1  0  0  0  0
 16 32  1  0  0  0  0
 17 18  1  0  0  0  0
 17 33  1  0  0  0  0
 17 34  1  0  0  0  0
 18 35  1  0  0  0  0
 18 36  1  0  0  0  0
 19 20  1  0  0  0  0
 19 37  1  0  0  0  0
 19 38  1  0  0  0  0
 20 21  1  0  0  0  0
 20 39  1  0  0  0  0
 20 40  1  0  0  0  0
 21 41  1  0  0  0  0
 21 42  1  0  0  0  0
 21 43  1  0  0  0  0
M  END
>  <DRUGBANK_ID>
DB07330

>  <COMMON_NAME>
A-620223

>  <CAS_NUMBER>
272769-49-0

>  <UNII>
01FPW436S6

>  <SYNONYMS>
trans-4-(7-carbamoyl-1H-benzimidazol-2-yl)-1-propylpiperidinium

$$$$
