
 OpenBabel10282417213D

 72 76  0  0  1  0  0  0  0  0999 V2000
    0.8626    2.3846   -0.9696 C   0  0  0  0  0  0  0  0  0  0  0  0
    0.4043    1.3748    0.0859 C   0  0  2  0  0  0  0  0  0  0  0  0
    1.0543    0.0497   -0.0613 N   0  0  0  0  0  0  0  0  0  0  0  0
    0.7970   -1.0163   -1.4634 P   0  0  3  0  0  0  0  0  0  0  0  0
    0.8274    0.1321   -2.4543 O   0  0  0  0  0  0  0  0  0  0  0  0
    2.3044   -1.7033   -1.1638 O   0  0  0  0  0  0  0  0  0  0  0  0
    3.1039   -1.1453   -0.0460 C   0  0  0  0  0  0  0  0  0  0  0  0
    3.3637    0.3617   -0.3839 C   0  0  1  0  0  0  0  0  0  0  0  0
    2.6587    1.2591    0.4901 O   0  0  0  0  0  0  0  0  0  0  0  0
    3.0647    2.5813    0.7097 C   0  0  2  0  0  0  0  0  0  0  0  0
    4.4823    2.2058    0.7198 C   0  0  0  0  0  0  0  0  0  0  0  0
    4.6344    1.0890   -0.3389 C   0  0  2  0  0  0  0  0  0  0  0  0
    4.7930    1.6904   -1.6280 O   0  0  0  0  0  0  0  0  0  0  0  0
    2.4114    3.0155    1.9465 N   0  0  0  0  0  0  0  0  0  0  0  0
    2.3685    2.1560    3.0307 C   0  0  0  0  0  0  0  0  0  0  0  0
    1.6416    2.4201    4.1087 C   0  0  0  0  0  0  0  0  0  0  0  0
    1.5055    1.5560    5.1274 F   0  0  0  0  0  0  0  0  0  0  0  0
    1.0173    3.7361    4.2528 C   0  0  0  0  0  0  0  0  0  0  0  0
    0.3765    4.0267    5.2551 O   0  0  0  0  0  0  0  0  0  0  0  0
    1.2589    4.6035    3.2175 N   0  0  0  0  0  0  0  0  0  0  0  0
    1.7399    4.2447    1.9741 C   0  0  0  0  0  0  0  0  0  0  0  0
    1.6146    4.9900    1.0056 O   0  0  0  0  0  0  0  0  0  0  0  0
    0.5469   -2.0524   -2.8261 O   0  0  0  0  0  0  0  0  0  0  0  0
    0.5755   -3.0955   -4.5322 C   0  0  0  0  0  0  0  0  0  0  0  0
   -0.4611   -3.9735   -6.2793 C   0  0  0  0  0  0  0  0  0  0  0  0
   -1.5028   -4.6569   -7.7228 C   0  0  0  0  0  0  0  0  0  0  0  0
   -2.9439   -3.9459   -8.3340 C   0  0  0  0  0  0  0  0  0  0  0  0
   -3.2395   -2.9608   -7.4671 C   0  0  0  0  0  0  0  0  0  0  0  0
   -2.5506   -3.0577   -6.3235 C   0  0  0  0  0  0  0  0  0  0  0  0
   -1.5471   -3.9723   -6.4390 C   0  0  0  0  0  0  0  0  0  0  0  0
   -0.4319   -4.4969   -5.8113 C   0  0  0  0  0  0  0  0  0  0  0  0
    0.2237   -3.7611   -4.5242 C   0  0  0  0  0  0  0  0  0  0  0  0
    1.4608   -3.8272   -4.1415 C   0  0  0  0  0  0  0  0  0  0  0  0
   -1.0690    1.4044    0.2066 C   0  0  0  0  0  0  0  0  0  0  0  0
   -1.6247    1.7826    1.2325 O   0  0  0  0  0  0  0  0  0  0  0  0
   -1.6544    1.0120   -0.9481 O   0  0  0  0  0  0  0  0  0  0  0  0
   -3.0804    1.0147   -0.9224 C   0  0  0  0  0  0  0  0  0  0  0  0
   -3.5575    0.0307    0.1063 C   0  0  0  0  0  0  0  0  0  0  0  0
   -3.0253   -1.2623    0.1002 C   0  0  0  0  0  0  0  0  0  0  0  0
   -3.5143   -2.2289    0.9616 C   0  0  0  0  0  0  0  0  0  0  0  0
   -4.3654   -1.8544    1.9862 C   0  0  0  0  0  0  0  0  0  0  0  0
   -4.7178   -0.5163    2.1381 C   0  0  0  0  0  0  0  0  0  0  0  0
   -4.4286    0.4008    1.1296 C   0  0  0  0  0  0  0  0  0  0  0  0
    0.5871    2.0728   -1.9524 H   0  0  0  0  0  0  0  0  0  0  0  0
    1.9234    2.4794   -1.1877 H   0  0  0  0  0  0  0  0  0  0  0  0
    0.4829    3.3750   -0.7447 H   0  0  0  0  0  0  0  0  0  0  0  0
    0.6898    1.7013    1.0971 H   0  0  0  0  0  0  0  0  0  0  0  0
    0.9874   -0.4451    0.8163 H   0  0  0  0  0  0  0  0  0  0  0  0
    2.5132   -1.3675    0.8614 H   0  0  0  0  0  0  0  0  0  0  0  0
    4.0257   -1.6932    0.0621 H   0  0  0  0  0  0  0  0  0  0  0  0
    3.0071    0.3390   -1.4238 H   0  0  0  0  0  0  0  0  0  0  0  0
    2.8613    3.3564   -0.0466 H   0  0  0  0  0  0  0  0  0  0  0  0
    4.6716    1.8287    1.7201 H   0  0  0  0  0  0  0  0  0  0  0  0
    5.0336    3.0945    0.4840 H   0  0  0  0  0  0  0  0  0  0  0  0
    5.4346    0.4028   -0.1225 H   0  0  0  0  0  0  0  0  0  0  0  0
    3.9849    2.1989   -1.8548 H   0  0  0  0  0  0  0  0  0  0  0  0
    2.9272    1.2328    2.9590 H   0  0  0  0  0  0  0  0  0  0  0  0
    0.9440    5.5533    3.3401 H   0  0  0  0  0  0  0  0  0  0  0  0
   -1.9034   -5.6107   -8.5995 H   0  0  0  0  0  0  0  0  0  0  0  0
   -3.7254   -3.9479   -9.1958 H   0  0  0  0  0  0  0  0  0  0  0  0
   -3.8817   -2.1229   -7.5333 H   0  0  0  0  0  0  0  0  0  0  0  0
   -2.4662   -2.5861   -5.4283 H   0  0  0  0  0  0  0  0  0  0  0  0
    0.6183   -5.2960   -6.4162 H   0  0  0  0  0  0  0  0  0  0  0  0
   -0.9612   -2.7760   -4.6211 H   0  0  0  0  0  0  0  0  0  0  0  0
    2.0856   -4.5994   -4.6054 H   0  0  0  0  0  0  0  0  0  0  0  0
   -3.4490    2.0315   -0.7581 H   0  0  0  0  0  0  0  0  0  0  0  0
   -3.4311    0.6912   -1.9106 H   0  0  0  0  0  0  0  0  0  0  0  0
   -2.2201   -1.5057   -0.5812 H   0  0  0  0  0  0  0  0  0  0  0  0
   -3.2229   -3.2662    0.8552 H   0  0  0  0  0  0  0  0  0  0  0  0
   -4.7372   -2.6128    2.6663 H   0  0  0  0  0  0  0  0  0  0  0  0
   -5.2219   -0.1970    3.0434 H   0  0  0  0  0  0  0  0  0  0  0  0
   -4.8357    1.4086    1.1744 H   0  0  0  0  0  0  0  0  0  0  0  0
  1 44  1  0  0  0  0
  1 45  1  0  0  0  0
  1 46  1  0  0  0  0
  2 34  1  0  0  0  0
  2 47  1  1  0  0  0
  2  3  1  0  0  0  0
  2  1  1  0  0  0  0
  3  4  1  0  0  0  0
  3 48  1  0  0  0  0
  4  5  2  0  0  0  0
  4  6  1  0  0  0  0
  4 23  1  0  0  0  0
  6  7  1  0  0  0  0
  7 49  1  0  0  0  0
  7 50  1  0  0  0  0
  8  7  1  0  0  0  0
  8  9  1  0  0  0  0
  8 12  1  0  0  0  0
  8 51  1  6  0  0  0
 10  9  1  0  0  0  0
 10 11  1  0  0  0  0
 10 52  1  6  0  0  0
 10 14  1  0  0  0  0
 11 53  1  0  0  0  0
 11 54  1  0  0  0  0
 12 11  1  0  0  0  0
 12 13  1  0  0  0  0
 12 55  1  1  0  0  0
 13 56  1  0  0  0  0
 14 15  1  0  0  0  0
 14 21  1  0  0  0  0
 15 16  2  0  0  0  0
 15 57  1  0  0  0  0
 16 17  1  0  0  0  0
 16 18  1  0  0  0  0
 18 19  2  0  0  0  0
 18 20  1  0  0  0  0
 20 21  1  0  0  0  0
 20 58  1  0  0  0  0
 21 22  2  0  0  0  0
 23 24  1  0  0  0  0
 24 25  2  0  0  0  0
 24 33  1  0  0  0  0
 25 26  1  0  0  0  0
 25 30  1  0  0  0  0
 26 27  2  0  0  0  0
 26 59  1  0  0  0  0
 27 28  1  0  0  0  0
 27 60  1  0  0  0  0
 28 29  2  0  0  0  0
 28 61  1  0  0  0  0
 29 30  1  0  0  0  0
 29 62  1  0  0  0  0
 30 31  2  0  0  0  0
 31 32  1  0  0  0  0
 31 63  1  0  0  0  0
 32 33  2  0  0  0  0
 32 64  1  0  0  0  0
 33 65  1  0  0  0  0
 34 35  2  0  0  0  0
 34 36  1  0  0  0  0
 36 37  1  0  0  0  0
 37 38  1  0  0  0  0
 37 66  1  0  0  0  0
 37 67  1  0  0  0  0
 38 39  2  0  0  0  0
 38 43  1  0  0  0  0
 39 40  1  0  0  0  0
 39 68  1  0  0  0  0
 40 41  2  0  0  0  0
 40 69  1  0  0  0  0
 41 42  1  0  0  0  0
 41 70  1  0  0  0  0
 42 43  2  0  0  0  0
 42 71  1  0  0  0  0
 43 72  1  0  0  0  0
M  END
>  <DRUGBANK_ID>
DB14859

>  <COMMON_NAME>
Fosifloxuridine nafalbenamide

>  <CAS_NUMBER>
1332837-31-6

>  <UNII>
4YO6QT3SZ9

>  <SYNONYMS>
Fosifloxuridine nafalbenamide

$$$$
