
 OpenBabel10282417133D

 27 26  0  0  1  0  0  0  0  0999 V2000
    0.7484   -2.4496    2.5831 C   0  0  0  0  0  0  0  0  0  0  0  0
   -0.6139   -1.9914    2.8391 N   0  0  0  0  0  0  0  0  0  0  0  0
   -0.5748   -1.1088    3.9908 C   0  0  0  0  0  0  0  0  0  0  0  0
   -1.3002   -1.3655    1.6863 C   0  0  0  0  0  0  0  0  0  0  0  0
   -0.7484   -0.0146    1.1769 C   0  0  0  0  0  0  0  0  0  0  0  0
    0.5309   -0.1726    0.5727 O   0  0  0  0  0  0  0  0  0  0  0  0
    0.4792   -1.0868   -0.7838 P   0  0  2  0  0  0  0  0  0  0  0  0
    1.0559   -2.4616    0.0938 O   0  0  0  0  0  0  0  0  0  0  0  0
    1.8409   -1.0178   -1.4783 O   0  0  0  0  0  0  0  0  0  0  0  0
   -0.0974    0.2881   -1.6614 O   0  0  0  0  0  0  0  0  0  0  0  0
   -0.6769   -0.2184   -3.2108 P   0  0  0  0  0  0  0  0  0  0  0  0
   -1.0655   -1.6672   -2.5387 O   0  0  0  0  0  0  0  0  0  0  0  0
   -2.0573    0.5379   -2.7643 O   0  0  0  0  0  0  0  0  0  0  0  0
   -1.1955   -0.6716   -4.5975 O   0  0  0  0  0  0  0  0  0  0  0  0
    1.2682   -2.7862    3.4838 H   0  0  0  0  0  0  0  0  0  0  0  0
    1.3884   -1.6571    2.1780 H   0  0  0  0  0  0  0  0  0  0  0  0
    0.7251   -3.3459    1.9577 H   0  0  0  0  0  0  0  0  0  0  0  0
   -0.0532   -0.1711    3.7799 H   0  0  0  0  0  0  0  0  0  0  0  0
   -1.5893   -0.9034    4.3342 H   0  0  0  0  0  0  0  0  0  0  0  0
   -0.0416   -1.5996    4.8105 H   0  0  0  0  0  0  0  0  0  0  0  0
   -1.3447   -2.0805    0.8530 H   0  0  0  0  0  0  0  0  0  0  0  0
   -2.3519   -1.2071    1.9574 H   0  0  0  0  0  0  0  0  0  0  0  0
   -1.4381    0.4167    0.4388 H   0  0  0  0  0  0  0  0  0  0  0  0
   -0.6678    0.7324    1.9698 H   0  0  0  0  0  0  0  0  0  0  0  0
    2.0276   -2.3421    0.0500 H   0  0  0  0  0  0  0  0  0  0  0  0
   -0.6702   -2.3790   -3.0941 H   0  0  0  0  0  0  0  0  0  0  0  0
   -1.8591    1.4494   -2.4443 H   0  0  0  0  0  0  0  0  0  0  0  0
  1  2  1  0  0  0  0
  1 15  1  0  0  0  0
  1 16  1  0  0  0  0
  1 17  1  0  0  0  0
  2  3  1  0  0  0  0
  2  4  1  0  0  0  0
  3 18  1  0  0  0  0
  3 19  1  0  0  0  0
  3 20  1  0  0  0  0
  4  5  1  0  0  0  0
  4 21  1  0  0  0  0
  4 22  1  0  0  0  0
  5  6  1  0  0  0  0
  5 23  1  0  0  0  0
  5 24  1  0  0  0  0
  7  9  2  6  0  0  0
  7 10  1  0  0  0  0
  7  8  1  0  0  0  0
  7  6  1  0  0  0  0
  8 25  1  0  0  0  0
 10 11  1  0  0  0  0
 11 12  1  0  0  0  0
 11 13  1  0  0  0  0
 11 14  2  0  0  0  0
 12 26  1  0  0  0  0
 13 27  1  0  0  0  0
M  END
>  <DRUGBANK_ID>
DB03165

>  <SECONDARY_ACCESSION_NUMBERS>
EXPT01154

>  <COMMON_NAME>
2-Dimethylamino-Ethyl-Diphosphate

$$$$
