
 OpenBabel10282417213D

  1  0  0  0  0  0  0  0  0  0999 V2000
    1.0548    0.0499   -0.0672 P   0  0  0  0  0 15  0  0  0  0  0  0
M  END
>  <DRUGBANK_ID>
DB14151

>  <COMMON_NAME>
Phosphorus

>  <CAS_NUMBER>
7723-14-0

>  <UNII>
27YLU75U4W

>  <SYNONYMS>
Phosphorous; Phosphorus, elemental

$$$$
