
 OpenBabel10282417133D

 18 18  0  0  0  0  0  0  0  0999 V2000
    1.7549   -1.4201    0.1181 N   0  0  0  0  0  0  0  0  0  0  0  0
    0.5276   -0.7518   -0.0282 C   0  0  0  0  0  0  0  0  0  0  0  0
    0.4971    0.6573   -0.0080 C   0  0  0  0  0  0  0  0  0  0  0  0
    1.6433    1.4074    0.0031 O   0  0  0  0  0  0  0  0  0  0  0  0
   -0.6942    1.3753   -0.0051 C   0  0  0  0  0  0  0  0  0  0  0  0
   -1.9037    0.6962   -0.0147 C   0  0  0  0  0  0  0  0  0  0  0  0
   -1.9202   -0.7011   -0.0114 C   0  0  0  0  0  0  0  0  0  0  0  0
   -0.7195   -1.4420    0.0060 C   0  0  0  0  0  0  0  0  0  0  0  0
   -0.7310   -2.9474    0.0315 C   0  0  0  0  0  0  0  0  0  0  0  0
   -1.9291   -3.5686    0.0204 O   0  0  0  0  0  0  0  0  0  0  0  0
    0.3012   -3.6115    0.0445 O   0  0  0  0  0  0  0  0  0  0  0  0
    2.6364   -1.0253   -0.1665 H   0  0  0  0  0  0  0  0  0  0  0  0
    1.6998   -2.4376   -0.0237 H   0  0  0  0  0  0  0  0  0  0  0  0
    2.3842    0.7860    0.0457 H   0  0  0  0  0  0  0  0  0  0  0  0
   -0.6717    2.4619    0.0070 H   0  0  0  0  0  0  0  0  0  0  0  0
   -2.8365    1.2553   -0.0216 H   0  0  0  0  0  0  0  0  0  0  0  0
   -2.8985   -1.1651   -0.0188 H   0  0  0  0  0  0  0  0  0  0  0  0
   -2.7411   -3.0398    0.0017 H   0  0  0  0  0  0  0  0  0  0  0  0
  1  2  1  0  0  0  0
  1 12  1  0  0  0  0
  1 13  1  0  0  0  0
  2  3  2  0  0  0  0
  2  8  1  0  0  0  0
  3  4  1  0  0  0  0
  3  5  1  0  0  0  0
  4 14  1  0  0  0  0
  5  6  2  0  0  0  0
  5 15  1  0  0  0  0
  6  7  1  0  0  0  0
  6 16  1  0  0  0  0
  7  8  2  0  0  0  0
  7 17  1  0  0  0  0
  8  9  1  0  0  0  0
  9 10  1  0  0  0  0
  9 11  2  0  0  0  0
 10 18  1  0  0  0  0
M  END
>  <DRUGBANK_ID>
DB03644

>  <SECONDARY_ACCESSION_NUMBERS>
EXPT00171

>  <COMMON_NAME>
3-hydroxyanthranilic acid

>  <CAS_NUMBER>
548-93-6

>  <UNII>
1UQB1BT4OT

>  <SYNONYMS>
2-Amino-3-hydroxy-benzoic acid; 2-Amino-3-Hydroxybenzoic Acid; 3-Oxyanthranilic acid

$$$$
