335
 OpenBabel10282417103D

 41 41  0  0  1  0  0  0  0  0999 V2000
    1.0516    0.0036   -0.1545 O   0  0  0  0  0  0  0  0  0  0  0  0
    1.9032    2.3721    1.6621 O   0  0  0  0  0  0  0  0  0  0  0  0
    7.9280   -1.5904    1.4313 O   0  0  0  0  0  0  0  0  0  0  0  0
   -1.6340    3.1444    1.2546 N   0  0  0  0  0  0  0  0  0  0  0  0
    6.8855   -0.0082    2.6582 N   0  0  0  0  0  0  0  0  0  0  0  0
   -0.1900    3.3269    1.3103 C   0  0  0  0  0  0  0  0  0  0  0  0
    0.5595    1.9969    1.3392 C   0  0  3  0  0  0  0  0  0  0  0  0
   -2.3389    4.4247    1.2710 C   0  0  0  0  0  0  0  0  0  0  0  0
    0.3626    1.2523   -0.0185 C   0  0  0  0  0  0  0  0  0  0  0  0
   -1.9976    5.2738    0.0455 C   0  0  0  0  0  0  0  0  0  0  0  0
   -3.8311    4.1103    1.2865 C   0  0  0  0  0  0  0  0  0  0  0  0
    2.4121    0.0597   -0.2582 C   0  0  0  0  0  0  0  0  0  0  0  0
    5.1774    0.0647    0.1235 C   0  0  0  0  0  0  0  0  0  0  0  0
    3.1433    1.2389   -0.3875 C   0  0  0  0  0  0  0  0  0  0  0  0
    3.0828   -1.1457   -0.0809 C   0  0  0  0  0  0  0  0  0  0  0  0
    4.4984    1.2597   -0.0960 C   0  0  0  0  0  0  0  0  0  0  0  0
    4.4631   -1.1426    0.1189 C   0  0  0  0  0  0  0  0  0  0  0  0
    6.6771    0.0830    0.2319 C   0  0  0  0  0  0  0  0  0  0  0  0
    7.2107   -0.5903    1.4700 C   0  0  0  0  0  0  0  0  0  0  0  0
    2.3943    1.5455    1.8097 H   0  0  0  0  0  0  0  0  0  0  0  0
   -1.8988    2.6323    0.4152 H   0  0  0  0  0  0  0  0  0  0  0  0
    6.2237    0.7531    2.7313 H   0  0  0  0  0  0  0  0  0  0  0  0
    7.1854   -0.4749    3.5040 H   0  0  0  0  0  0  0  0  0  0  0  0
    0.0887    3.9205    2.1911 H   0  0  0  0  0  0  0  0  0  0  0  0
    0.1840    3.8868    0.4430 H   0  0  0  0  0  0  0  0  0  0  0  0
    0.2192    1.3657    2.1643 H   0  0  0  0  0  0  0  0  0  0  0  0
   -2.0855    4.9700    2.1882 H   0  0  0  0  0  0  0  0  0  0  0  0
    0.5658    1.8865   -0.8914 H   0  0  0  0  0  0  0  0  0  0  0  0
   -0.6987    0.9876   -0.1028 H   0  0  0  0  0  0  0  0  0  0  0  0
   -2.2166    4.7305   -0.8809 H   0  0  0  0  0  0  0  0  0  0  0  0
   -2.5724    6.2027    0.0489 H   0  0  0  0  0  0  0  0  0  0  0  0
   -0.9413    5.5603    0.0232 H   0  0  0  0  0  0  0  0  0  0  0  0
   -4.0996    3.5080    2.1618 H   0  0  0  0  0  0  0  0  0  0  0  0
   -4.4136    5.0352    1.3195 H   0  0  0  0  0  0  0  0  0  0  0  0
   -4.1292    3.5529    0.3903 H   0  0  0  0  0  0  0  0  0  0  0  0
    2.6643    2.1954   -0.5733 H   0  0  0  0  0  0  0  0  0  0  0  0
    2.5335   -2.0842   -0.0792 H   0  0  0  0  0  0  0  0  0  0  0  0
    5.0003    2.2219   -0.0234 H   0  0  0  0  0  0  0  0  0  0  0  0
    4.9775   -2.0865    0.2892 H   0  0  0  0  0  0  0  0  0  0  0  0
    7.0733   -0.4263   -0.6539 H   0  0  0  0  0  0  0  0  0  0  0  0
    7.0625    1.1098    0.2003 H   0  0  0  0  0  0  0  0  0  0  0  0
  1  9  1  0  0  0  0
  1 12  1  0  0  0  0
  2  7  1  0  0  0  0
  2 20  1  0  0  0  0
  3 19  2  0  0  0  0
  4  6  1  0  0  0  0
  4  8  1  0  0  0  0
  4 21  1  0  0  0  0
  5 19  1  0  0  0  0
  5 22  1  0  0  0  0
  5 23  1  0  0  0  0
  6  7  1  0  0  0  0
  6 24  1  0  0  0  0
  6 25  1  0  0  0  0
  7  9  1  0  0  0  0
  7 26  1  0  0  0  0
  8 10  1  0  0  0  0
  8 11  1  0  0  0  0
  8 27  1  0  0  0  0
  9 28  1  0  0  0  0
  9 29  1  0  0  0  0
 10 30  1  0  0  0  0
 10 31  1  0  0  0  0
 10 32  1  0  0  0  0
 11 33  1  0  0  0  0
 11 34  1  0  0  0  0
 11 35  1  0  0  0  0
 12 14  2  0  0  0  0
 12 15  1  0  0  0  0
 13 16  2  0  0  0  0
 13 17  1  0  0  0  0
 13 18  1  0  0  0  0
 14 16  1  0  0  0  0
 14 36  1  0  0  0  0
 15 17  2  0  0  0  0
 15 37  1  0  0  0  0
 16 38  1  0  0  0  0
 17 39  1  0  0  0  0
 18 19  1  0  0  0  0
 18 40  1  0  0  0  0
 18 41  1  0  0  0  0
M  END
>  <DRUGBANK_ID>
DB00335

>  <SECONDARY_ACCESSION_NUMBERS>
APRD00172

>  <COMMON_NAME>
Atenolol

>  <CAS_NUMBER>
29122-68-7

>  <UNII>
50VV3VW0TI

>  <SYNONYMS>
1-p-Carbamoylmethylphenoxy-3-isopropylamino-2-propanol; 2-(p-(2-Hydroxy-3-(isopropylamino)propoxy)phenyl)acetamide; 4-(2-Hydroxy-3-((1-methylethyl)amino)propoxy)benzeneacetamide; Atenolol; Atenololum

$$$$
