262
 OpenBabel10282417123D

 20 20  0  0  0  0  0  0  0  0999 V2000
    1.3859   -0.1963   -0.0081 C   0  0  0  0  0  0  0  0  0  0  0  0
    0.5308   -1.3019    0.0067 C   0  0  0  0  0  0  0  0  0  0  0  0
   -0.8501   -1.1231   -0.0278 C   0  0  0  0  0  0  0  0  0  0  0  0
   -1.3846    0.1590   -0.0028 C   0  0  0  0  0  0  0  0  0  0  0  0
   -0.5348    1.2624    0.0828 C   0  0  0  0  0  0  0  0  0  0  0  0
    0.8509    1.0955   -0.0245 C   0  0  0  0  0  0  0  0  0  0  0  0
    1.7733    2.2388   -0.2413 C   0  0  0  0  0  0  0  0  0  0  0  0
   -1.0216    2.5070    0.3654 O   0  0  0  0  0  0  0  0  0  0  0  0
   -2.7255    2.7391    0.5548 P   0  0  0  0  0  0  0  0  0  0  0  0
   -2.3144    4.0404    1.4561 O   0  0  0  0  0  0  0  0  0  0  0  0
   -2.6658    3.4433   -0.9240 O   0  0  0  0  0  0  0  0  0  0  0  0
   -4.2505    2.9468    0.7242 O   0  0  0  0  0  0  0  0  0  0  0  0
    1.3941    3.3959   -0.4015 O   0  0  0  0  0  0  0  0  0  0  0  0
    2.4609   -0.3584   -0.0040 H   0  0  0  0  0  0  0  0  0  0  0  0
    0.9383   -2.3095    0.0185 H   0  0  0  0  0  0  0  0  0  0  0  0
   -1.5192   -1.9804   -0.0464 H   0  0  0  0  0  0  0  0  0  0  0  0
   -2.4654    0.2552   -0.0416 H   0  0  0  0  0  0  0  0  0  0  0  0
    2.8443    1.9966   -0.3263 H   0  0  0  0  0  0  0  0  0  0  0  0
   -2.3847    3.8346    2.4027 H   0  0  0  0  0  0  0  0  0  0  0  0
   -1.9032    3.1239   -1.4369 H   0  0  0  0  0  0  0  0  0  0  0  0
  1  2  2  0  0  0  0
  1  6  1  0  0  0  0
  1 14  1  0  0  0  0
  2  3  1  0  0  0  0
  2 15  1  0  0  0  0
  3  4  2  0  0  0  0
  3 16  1  0  0  0  0
  4  5  1  0  0  0  0
  4 17  1  0  0  0  0
  5  6  2  0  0  0  0
  5  8  1  0  0  0  0
  6  7  1  0  0  0  0
  7 13  2  0  0  0  0
  7 18  1  0  0  0  0
  8  9  1  0  0  0  0
  9 10  1  0  0  0  0
  9 11  1  0  0  0  0
  9 12  2  0  0  0  0
 10 19  1  0  0  0  0
 11 20  1  0  0  0  0
M  END
>  <DRUGBANK_ID>
DB01947

>  <SECONDARY_ACCESSION_NUMBERS>
EXPT00096

>  <COMMON_NAME>
RU78262

>  <UNII>
UP67646C7V

$$$$
