
 OpenBabel10282417133D

 45 47  0  0  0  0  0  0  0  0999 V2000
    0.8663   -0.0282   -0.0324 O   0  0  0  0  0  0  0  0  0  0  0  0
    2.1104    0.0167   -0.0232 C   0  0  0  0  0  0  0  0  0  0  0  0
    2.8946    1.2153    0.0100 C   0  0  0  0  0  0  0  0  0  0  0  0
    2.5281    2.5307    0.0188 N   0  0  0  0  0  0  0  0  0  0  0  0
    4.2613    1.0676    0.0611 C   0  0  0  0  0  0  0  0  0  0  0  0
    4.9967   -0.0623    0.0401 N   0  0  0  0  0  0  0  0  0  0  0  0
    4.2685   -1.1409    0.0030 C   0  0  0  0  0  0  0  0  0  0  0  0
    2.8852   -1.1269   -0.0210 N   0  0  0  0  0  0  0  0  0  0  0  0
    4.8641   -2.3500   -0.0081 N   0  0  0  0  0  0  0  0  0  0  0  0
    4.7549    2.3262    0.1758 N   0  0  0  0  0  0  0  0  0  0  0  0
    3.6704    3.1757    0.1361 C   0  0  0  0  0  0  0  0  0  0  0  0
    6.1809    2.6204    0.2052 C   0  0  1  0  0  0  0  0  0  0  0  0
    6.6707    3.1805   -1.1107 C   0  0  2  0  0  0  0  0  0  0  0  0
    7.1736    2.3543   -2.1489 O   0  0  0  0  0  0  0  0  0  0  0  0
    7.6564    4.2377   -0.6037 C   0  0  2  0  0  0  0  0  0  0  0  0
    8.9844    3.7103   -0.5581 O   0  0  0  0  0  0  0  0  0  0  0  0
    6.4016    3.5636    1.2701 O   0  0  0  0  0  0  0  0  0  0  0  0
    7.1969    4.6803    0.8142 C   0  0  2  0  0  0  0  0  0  0  0  0
    6.3317    5.9565    1.0887 C   0  0  0  0  0  0  0  0  0  0  0  0
    5.3581    6.1649    0.0557 O   0  0  0  0  0  0  0  0  0  0  0  0
    6.0971    6.3971   -1.4912 P   0  0  3  0  0  0  0  0  0  0  0  0
    7.3806    6.8766   -0.8811 O   0  0  0  0  0  0  0  0  0  0  0  0
    5.3576    5.1101   -1.9608 O   0  0  0  0  0  0  0  0  0  0  0  0
    6.8787    6.6427   -3.1276 C   0  0  0  0  0  0  0  0  0  0  0  0
    8.7281    6.7451   -3.2555 P   0  0  0  0  0  0  0  0  0  0  0  0
    9.4213    5.4222   -3.2083 O   0  0  0  0  0  0  0  0  0  0  0  0
    8.8695    7.4036   -4.7163 O   0  0  0  0  0  0  0  0  0  0  0  0
    9.3413    7.9809   -2.4316 O   0  0  0  0  0  0  0  0  0  0  0  0
    2.3737   -1.9893   -0.0291 H   0  0  0  0  0  0  0  0  0  0  0  0
    5.8763   -2.3806    0.0155 H   0  0  0  0  0  0  0  0  0  0  0  0
    4.3583   -3.2199    0.0029 H   0  0  0  0  0  0  0  0  0  0  0  0
    3.7200    4.2537    0.1827 H   0  0  0  0  0  0  0  0  0  0  0  0
    6.7546    1.7183    0.4024 H   0  0  0  0  0  0  0  0  0  0  0  0
    5.7245    3.3804   -1.5737 H   0  0  0  0  0  0  0  0  0  0  0  0
    8.1046    2.5835   -2.3085 H   0  0  0  0  0  0  0  0  0  0  0  0
    7.8470    5.0111   -1.3121 H   0  0  0  0  0  0  0  0  0  0  0  0
    8.9522    2.7749   -0.3336 H   0  0  0  0  0  0  0  0  0  0  0  0
    8.0661    4.7648    1.4767 H   0  0  0  0  0  0  0  0  0  0  0  0
    5.7881    5.8855    2.0369 H   0  0  0  0  0  0  0  0  0  0  0  0
    6.9267    6.8782    1.2036 H   0  0  0  0  0  0  0  0  0  0  0  0
    4.8263    4.8796   -1.1778 H   0  0  0  0  0  0  0  0  0  0  0  0
    6.6824    5.7678   -3.7595 H   0  0  0  0  0  0  0  0  0  0  0  0
    6.4138    7.5050   -3.6153 H   0  0  0  0  0  0  0  0  0  0  0  0
    8.0686    7.3042   -5.2561 H   0  0  0  0  0  0  0  0  0  0  0  0
   10.1629    8.3780   -2.7899 H   0  0  0  0  0  0  0  0  0  0  0  0
  2  1  2  0  0  0  0
  2  8  1  0  0  0  0
  3  2  1  0  0  0  0
  3  4  1  0  0  0  0
  5  3  2  0  0  0  0
  5  6  1  0  0  0  0
  5 10  1  0  0  0  0
  7  6  2  0  0  0  0
  7  8  1  0  0  0  0
  7  9  1  0  0  0  0
  8 29  1  0  0  0  0
  9 30  1  0  0  0  0
  9 31  1  0  0  0  0
 11  4  2  0  0  0  0
 11 10  1  0  0  0  0
 11 32  1  0  0  0  0
 12 10  1  0  0  0  0
 12 13  1  0  0  0  0
 12 17  1  0  0  0  0
 12 33  1  1  0  0  0
 13 14  1  0  0  0  0
 13 15  1  0  0  0  0
 13 34  1  6  0  0  0
 14 35  1  0  0  0  0
 15 16  1  0  0  0  0
 15 18  1  0  0  0  0
 15 36  1  6  0  0  0
 16 37  1  0  0  0  0
 18 17  1  0  0  0  0
 18 38  1  1  0  0  0
 18 19  1  0  0  0  0
 19 20  1  0  0  0  0
 19 39  1  0  0  0  0
 19 40  1  0  0  0  0
 21 20  1  0  0  0  0
 21 23  1  0  0  0  0
 22 21  2  0  0  0  0
 23 41  1  0  0  0  0
 24 21  1  0  0  0  0
 24 25  1  0  0  0  0
 24 42  1  0  0  0  0
 24 43  1  0  0  0  0
 26 25  2  0  0  0  0
 27 25  1  0  0  0  0
 27 44  1  0  0  0  0
 28 25  1  0  0  0  0
 28 45  1  0  0  0  0
M  END
>  <DRUGBANK_ID>
DB03486

>  <SECONDARY_ACCESSION_NUMBERS>
EXPT01632

>  <COMMON_NAME>
Phosphomethylphosphonic acid guanosyl ester

$$$$
