
 OpenBabel10282417123D

114115  0  0  0  0  0  0  0  0999 V2000
   -2.9046    6.3950   -0.5750 C   0  0  0  0  0  0  0  0  0  0  0  0
   -3.0290    7.6629    0.2009 C   0  0  0  0  0  0  0  0  0  0  0  0
   -4.2279    5.8548   -1.0847 C   0  0  0  0  0  0  0  0  0  0  0  0
   -2.9348    4.6142    1.4158 C   0  0  0  0  0  0  0  0  0  0  0  0
   -2.3786    3.9010    2.2510 O   0  0  0  0  0  0  0  0  0  0  0  0
   -4.2311    4.3344    1.0016 N   0  0  0  0  0  0  0  0  0  0  0  0
   -4.6770    3.0412    0.4296 C   0  0  1  0  0  0  0  0  0  0  0  0
   -6.0300    3.1230   -0.4409 C   0  0  0  0  0  0  0  0  0  0  0  0
   -3.6415    2.2975   -0.4327 C   0  0  0  0  0  0  0  0  0  0  0  0
   -4.0314    1.3306   -0.9937 O   0  0  0  0  0  0  0  0  0  0  0  0
   -2.2892    2.5454   -0.3688 N   0  0  0  0  0  0  0  0  0  0  0  0
   -1.2236    2.1037   -1.3521 C   0  0  1  0  0  0  0  0  0  0  0  0
    0.3289    2.3758   -1.0261 C   0  0  0  0  0  0  0  0  0  0  0  0
    1.6430    2.7034   -3.4439 C   0  0  0  0  0  0  0  0  0  0  0  0
    1.4316    1.9870   -2.1024 C   0  0  0  0  0  0  0  0  0  0  0  0
    2.7650    2.1472   -1.4005 C   0  0  0  0  0  0  0  0  0  0  0  0
   -1.4514    0.6653   -1.8656 C   0  0  1  0  0  0  0  0  0  0  0  0
   -1.3761    0.2749   -3.2171 O   0  0  0  0  0  0  0  0  0  0  0  0
   -0.4825   -0.2857   -1.2469 C   0  0  0  0  0  0  0  0  0  0  0  0
   -1.1049   -0.9742   -0.0728 C   0  0  1  0  0  0  0  0  0  0  0  0
   -2.1652   -0.1641    0.6670 C   0  0  0  0  0  0  0  0  0  0  0  0
   -1.7771   -2.1800   -0.6685 C   0  0  0  0  0  0  0  0  0  0  0  0
   -2.9706   -2.1647   -0.9632 O   0  0  0  0  0  0  0  0  0  0  0  0
   -0.9905   -3.2445   -1.0097 N   0  0  0  0  0  0  0  0  0  0  0  0
   -1.6701   -4.4736   -1.4093 C   0  0  2  0  0  0  0  0  0  0  0  0
   -1.4392   -5.5482   -0.3291 C   0  0  0  0  0  0  0  0  0  0  0  0
   -0.3079   -5.9249   -0.0235 O   0  0  0  0  0  0  0  0  0  0  0  0
   -2.5661   -6.0687    0.2656 N   0  0  0  0  0  0  0  0  0  0  0  0
   -2.4424   -7.1199    1.2469 C   0  0  0  0  0  0  0  0  0  0  0  0
   -2.8920   -6.6901    2.6146 C   0  0  0  0  0  0  0  0  0  0  0  0
   -1.9610   -6.3860    3.6180 C   0  0  0  0  0  0  0  0  0  0  0  0
   -2.3907   -6.1545    4.9255 C   0  0  0  0  0  0  0  0  0  0  0  0
   -3.7537   -6.1166    5.2154 C   0  0  0  0  0  0  0  0  0  0  0  0
   -4.6874   -6.3654    4.2116 C   0  0  0  0  0  0  0  0  0  0  0  0
   -4.2586   -6.6578    2.9185 C   0  0  0  0  0  0  0  0  0  0  0  0
   -1.2334   -4.9448   -2.8079 C   0  0  0  0  0  0  0  0  0  0  0  0
    0.2455   -5.3280   -2.8665 C   0  0  0  0  0  0  0  0  0  0  0  0
   -2.0998   -6.1244   -3.2563 C   0  0  0  0  0  0  0  0  0  0  0  0
   -2.0528    5.5211    0.3420 C   0  0  1  0  0  0  0  0  0  0  0  0
   -1.1616    4.8096   -0.5727 N   0  0  0  0  0  0  0  0  0  0  0  0
   -6.3702    1.8220   -1.2353 C   0  0  0  0  0  0  0  0  0  0  0  0
   -6.7290    0.8164   -0.6205 O   0  0  0  0  0  0  0  0  0  0  0  0
   -6.1989    1.8198   -2.6364 N   0  0  0  0  0  0  0  0  0  0  0  0
   -4.9324    1.3530   -3.2382 C   0  0  0  0  0  0  0  0  0  0  0  0
   -4.7295    1.4850   -4.7440 C   0  0  0  0  0  0  0  0  0  0  0  0
   -3.3000    1.0596   -5.1557 C   0  0  0  0  0  0  0  0  0  0  0  0
   -2.3000    2.2608   -5.3644 C   0  0  0  0  0  0  0  0  0  0  0  0
   -1.5788    2.7271   -4.1288 C   0  0  0  0  0  0  0  0  0  0  0  0
   -0.9385    4.1480   -3.9590 C   0  0  0  0  0  0  0  0  0  0  0  0
   -0.2440    4.3637   -2.6434 O   0  0  0  0  0  0  0  0  0  0  0  0
   -0.5156    5.3176   -1.7039 C   0  0  0  0  0  0  0  0  0  0  0  0
   -0.1718    6.4866   -1.8299 O   0  0  0  0  0  0  0  0  0  0  0  0
   -2.3895    6.6170   -1.5109 H   0  0  0  0  0  0  0  0  0  0  0  0
   -3.6381    8.3675   -0.3498 H   0  0  0  0  0  0  0  0  0  0  0  0
   -3.4644    7.4413    1.1793 H   0  0  0  0  0  0  0  0  0  0  0  0
   -2.0220    8.0706    0.3545 H   0  0  0  0  0  0  0  0  0  0  0  0
   -4.6945    6.4939   -1.8296 H   0  0  0  0  0  0  0  0  0  0  0  0
   -4.1063    4.8600   -1.5353 H   0  0  0  0  0  0  0  0  0  0  0  0
   -4.9664    5.8625   -0.2891 H   0  0  0  0  0  0  0  0  0  0  0  0
   -4.9530    4.9381    1.3901 H   0  0  0  0  0  0  0  0  0  0  0  0
   -4.8461    2.3582    1.2646 H   0  0  0  0  0  0  0  0  0  0  0  0
   -6.0412    3.9485   -1.1609 H   0  0  0  0  0  0  0  0  0  0  0  0
   -6.8689    3.3307    0.2424 H   0  0  0  0  0  0  0  0  0  0  0  0
   -2.1542    3.4032    0.0802 H   0  0  0  0  0  0  0  0  0  0  0  0
   -1.4688    2.8666   -2.0323 H   0  0  0  0  0  0  0  0  0  0  0  0
    0.6489    3.3768   -0.7332 H   0  0  0  0  0  0  0  0  0  0  0  0
    0.4772    1.8878   -0.0531 H   0  0  0  0  0  0  0  0  0  0  0  0
    1.8006    3.7830   -3.3652 H   0  0  0  0  0  0  0  0  0  0  0  0
    2.4937    2.3102   -4.0090 H   0  0  0  0  0  0  0  0  0  0  0  0
    0.8535    2.4748   -4.1312 H   0  0  0  0  0  0  0  0  0  0  0  0
    1.2961    0.9530   -2.4051 H   0  0  0  0  0  0  0  0  0  0  0  0
    2.7695    1.5965   -0.4602 H   0  0  0  0  0  0  0  0  0  0  0  0
    3.5558    1.7691   -2.0505 H   0  0  0  0  0  0  0  0  0  0  0  0
    2.9527    3.2097   -1.1999 H   0  0  0  0  0  0  0  0  0  0  0  0
   -2.4715    0.4081   -1.6915 H   0  0  0  0  0  0  0  0  0  0  0  0
   -1.8472   -0.5871   -3.2392 H   0  0  0  0  0  0  0  0  0  0  0  0
   -0.0877   -0.9426   -2.0351 H   0  0  0  0  0  0  0  0  0  0  0  0
    0.4196    0.1701   -0.8727 H   0  0  0  0  0  0  0  0  0  0  0  0
   -0.2878   -1.1850    0.6136 H   0  0  0  0  0  0  0  0  0  0  0  0
   -2.5270   -0.6475    1.5628 H   0  0  0  0  0  0  0  0  0  0  0  0
   -1.8192    0.8329    0.9374 H   0  0  0  0  0  0  0  0  0  0  0  0
   -3.0736   -0.1013    0.0751 H   0  0  0  0  0  0  0  0  0  0  0  0
    0.0081   -3.2608   -0.8249 H   0  0  0  0  0  0  0  0  0  0  0  0
   -2.7477   -4.2785   -1.4583 H   0  0  0  0  0  0  0  0  0  0  0  0
   -3.4738   -5.6404    0.1211 H   0  0  0  0  0  0  0  0  0  0  0  0
   -3.0575   -7.9637    0.9132 H   0  0  0  0  0  0  0  0  0  0  0  0
   -1.4147   -7.4969    1.2934 H   0  0  0  0  0  0  0  0  0  0  0  0
   -0.8965   -6.3515    3.3914 H   0  0  0  0  0  0  0  0  0  0  0  0
   -1.6638   -6.0188    5.7223 H   0  0  0  0  0  0  0  0  0  0  0  0
   -4.0885   -5.8892    6.2237 H   0  0  0  0  0  0  0  0  0  0  0  0
   -5.7496   -6.3556    4.4389 H   0  0  0  0  0  0  0  0  0  0  0  0
   -4.9931   -6.8796    2.1484 H   0  0  0  0  0  0  0  0  0  0  0  0
   -1.3927   -4.1214   -3.5196 H   0  0  0  0  0  0  0  0  0  0  0  0
    0.4663   -6.1779   -2.2159 H   0  0  0  0  0  0  0  0  0  0  0  0
    0.5323   -5.6280   -3.8773 H   0  0  0  0  0  0  0  0  0  0  0  0
    0.8827   -4.4910   -2.5650 H   0  0  0  0  0  0  0  0  0  0  0  0
   -3.1588   -5.8443   -3.2837 H   0  0  0  0  0  0  0  0  0  0  0  0
   -1.8125   -6.4607   -4.2564 H   0  0  0  0  0  0  0  0  0  0  0  0
   -1.9939   -6.9753   -2.5754 H   0  0  0  0  0  0  0  0  0  0  0  0
   -1.3476    6.0679    0.9834 H   0  0  0  0  0  0  0  0  0  0  0  0
   -0.7331    4.0126   -0.1433 H   0  0  0  0  0  0  0  0  0  0  0  0
   -6.6969    2.5088   -3.1725 H   0  0  0  0  0  0  0  0  0  0  0  0
   -4.7318    0.3254   -2.8956 H   0  0  0  0  0  0  0  0  0  0  0  0
   -4.1652    2.0311   -2.8775 H   0  0  0  0  0  0  0  0  0  0  0  0
   -4.8787    2.5308   -5.0170 H   0  0  0  0  0  0  0  0  0  0  0  0
   -5.4561    0.8558   -5.2565 H   0  0  0  0  0  0  0  0  0  0  0  0
   -3.3080    0.4807   -6.0842 H   0  0  0  0  0  0  0  0  0  0  0  0
   -3.0192    0.2964   -4.4364 H   0  0  0  0  0  0  0  0  0  0  0  0
   -2.8489    3.1331   -5.6987 H   0  0  0  0  0  0  0  0  0  0  0  0
   -1.5392    1.9714   -6.0960 H   0  0  0  0  0  0  0  0  0  0  0  0
   -0.8013    1.9919   -3.9681 H   0  0  0  0  0  0  0  0  0  0  0  0
   -2.3657    2.6157   -3.4016 H   0  0  0  0  0  0  0  0  0  0  0  0
   -1.7046    4.9000   -4.0507 H   0  0  0  0  0  0  0  0  0  0  0  0
   -0.1657    4.2424   -4.7290 H   0  0  0  0  0  0  0  0  0  0  0  0
  1  2  1  0  0  0  0
  1  3  1  0  0  0  0
  1 53  1  0  0  0  0
  2 54  1  0  0  0  0
  2 55  1  0  0  0  0
  2 56  1  0  0  0  0
  3 57  1  0  0  0  0
  3 58  1  0  0  0  0
  3 59  1  0  0  0  0
  4 39  1  0  0  0  0
  4  6  1  0  0  0  0
  4  5  2  0  0  0  0
  6  7  1  0  0  0  0
  6 60  1  0  0  0  0
  7  8  1  0  0  0  0
  7 61  1  1  0  0  0
  7  9  1  0  0  0  0
  8 41  1  0  0  0  0
  8 62  1  0  0  0  0
  8 63  1  0  0  0  0
  9 11  1  0  0  0  0
  9 10  2  0  0  0  0
 11 64  1  0  0  0  0
 12 13  1  0  0  0  0
 12 65  1  6  0  0  0
 12 17  1  0  0  0  0
 12 11  1  0  0  0  0
 13 15  1  0  0  0  0
 13 66  1  0  0  0  0
 13 67  1  0  0  0  0
 14 15  1  0  0  0  0
 14 68  1  0  0  0  0
 14 69  1  0  0  0  0
 14 70  1  0  0  0  0
 15 16  1  0  0  0  0
 15 71  1  0  0  0  0
 16 72  1  0  0  0  0
 16 73  1  0  0  0  0
 16 74  1  0  0  0  0
 17 75  1  1  0  0  0
 17 18  1  0  0  0  0
 17 19  1  0  0  0  0
 18 76  1  0  0  0  0
 19 77  1  0  0  0  0
 19 78  1  0  0  0  0
 20 21  1  0  0  0  0
 20 79  1  1  0  0  0
 20 22  1  0  0  0  0
 20 19  1  0  0  0  0
 21 80  1  0  0  0  0
 21 81  1  0  0  0  0
 21 82  1  0  0  0  0
 22 24  1  0  0  0  0
 22 23  2  0  0  0  0
 24 25  1  0  0  0  0
 24 83  1  0  0  0  0
 25 36  1  0  0  0  0
 25 26  1  0  0  0  0
 25 84  1  6  0  0  0
 26 28  1  0  0  0  0
 26 27  2  0  0  0  0
 28 29  1  0  0  0  0
 28 85  1  0  0  0  0
 29 30  1  0  0  0  0
 29 86  1  0  0  0  0
 29 87  1  0  0  0  0
 30 35  1  0  0  0  0
 30 31  2  0  0  0  0
 31 32  1  0  0  0  0
 31 88  1  0  0  0  0
 32 33  2  0  0  0  0
 32 89  1  0  0  0  0
 33 34  1  0  0  0  0
 33 90  1  0  0  0  0
 34 35  2  0  0  0  0
 34 91  1  0  0  0  0
 35 92  1  0  0  0  0
 36 37  1  0  0  0  0
 36 38  1  0  0  0  0
 36 93  1  0  0  0  0
 37 94  1  0  0  0  0
 37 95  1  0  0  0  0
 37 96  1  0  0  0  0
 38 97  1  0  0  0  0
 38 98  1  0  0  0  0
 38 99  1  0  0  0  0
 39 40  1  0  0  0  0
 39100  1  1  0  0  0
 39  1  1  0  0  0  0
 40 51  1  0  0  0  0
 40101  1  0  0  0  0
 41 43  1  0  0  0  0
 41 42  2  0  0  0  0
 43 44  1  0  0  0  0
 43102  1  0  0  0  0
 44 45  1  0  0  0  0
 44103  1  0  0  0  0
 44104  1  0  0  0  0
 45 46  1  0  0  0  0
 45105  1  0  0  0  0
 45106  1  0  0  0  0
 46 47  1  0  0  0  0
 46107  1  0  0  0  0
 46108  1  0  0  0  0
 47 48  1  0  0  0  0
 47109  1  0  0  0  0
 47110  1  0  0  0  0
 48 49  1  0  0  0  0
 48111  1  0  0  0  0
 48112  1  0  0  0  0
 49 50  1  0  0  0  0
 49113  1  0  0  0  0
 49114  1  0  0  0  0
 50 51  1  0  0  0  0
 51 52  2  0  0  0  0
M  END
>  <DRUGBANK_ID>
DB02378

>  <SECONDARY_ACCESSION_NUMBERS>
EXPT02196

>  <COMMON_NAME>
MMI-175

$$$$
