
 OpenBabel10282417143D

 26 26  0  0  0  0  0  0  0  0999 V2000
    0.9833   -0.1207   -0.1053 N   0  0  0  0  0  0  0  0  0  0  0  0
    0.5311   -0.1395    1.2791 C   0  0  0  0  0  0  0  0  0  0  0  0
    0.9858    1.1103    2.0387 C   0  0  0  0  0  0  0  0  0  0  0  0
    0.3904    2.4195    1.4921 C   0  0  0  0  0  0  0  0  0  0  0  0
   -1.1487    2.4543    1.4843 C   0  0  0  0  0  0  0  0  0  0  0  0
   -1.6960    2.3523    2.8878 C   0  0  0  0  0  0  0  0  0  0  0  0
   -1.8819    1.1066    3.5016 C   0  0  0  0  0  0  0  0  0  0  0  0
   -2.1599    1.0094    4.8616 C   0  0  0  0  0  0  0  0  0  0  0  0
   -2.3005    2.1713    5.6170 C   0  0  0  0  0  0  0  0  0  0  0  0
   -2.1663    3.4165    5.0096 C   0  0  0  0  0  0  0  0  0  0  0  0
   -1.8789    3.5140    3.6483 C   0  0  0  0  0  0  0  0  0  0  0  0
    0.6035    0.7009   -0.5744 H   0  0  0  0  0  0  0  0  0  0  0  0
    1.9952   -0.0049   -0.1208 H   0  0  0  0  0  0  0  0  0  0  0  0
   -0.5562   -0.2408    1.2720 H   0  0  0  0  0  0  0  0  0  0  0  0
    0.9145   -1.0343    1.7792 H   0  0  0  0  0  0  0  0  0  0  0  0
    0.7332    1.0022    3.1004 H   0  0  0  0  0  0  0  0  0  0  0  0
    2.0804    1.1762    2.0185 H   0  0  0  0  0  0  0  0  0  0  0  0
    0.7769    3.2551    2.0908 H   0  0  0  0  0  0  0  0  0  0  0  0
    0.7581    2.5901    0.4735 H   0  0  0  0  0  0  0  0  0  0  0  0
   -1.4838    3.3901    1.0197 H   0  0  0  0  0  0  0  0  0  0  0  0
   -1.5623    1.6574    0.8558 H   0  0  0  0  0  0  0  0  0  0  0  0
   -1.7499    0.1828    2.9440 H   0  0  0  0  0  0  0  0  0  0  0  0
   -2.2356    0.0339    5.3303 H   0  0  0  0  0  0  0  0  0  0  0  0
   -2.5106    2.0986    6.6796 H   0  0  0  0  0  0  0  0  0  0  0  0
   -2.2573    4.3224    5.6050 H   0  0  0  0  0  0  0  0  0  0  0  0
   -1.7641    4.4918    3.1909 H   0  0  0  0  0  0  0  0  0  0  0  0
  1  2  1  0  0  0  0
  1 12  1  0  0  0  0
  1 13  1  0  0  0  0
  2  3  1  0  0  0  0
  2 14  1  0  0  0  0
  2 15  1  0  0  0  0
  3  4  1  0  0  0  0
  3 16  1  0  0  0  0
  3 17  1  0  0  0  0
  4  5  1  0  0  0  0
  4 18  1  0  0  0  0
  4 19  1  0  0  0  0
  5  6  1  0  0  0  0
  5 20  1  0  0  0  0
  5 21  1  0  0  0  0
  6  7  2  0  0  0  0
  6 11  1  0  0  0  0
  7  8  1  0  0  0  0
  7 22  1  0  0  0  0
  8  9  2  0  0  0  0
  8 23  1  0  0  0  0
  9 10  1  0  0  0  0
  9 24  1  0  0  0  0
 10 11  2  0  0  0  0
 10 25  1  0  0  0  0
 11 26  1  0  0  0  0
M  END
>  <DRUGBANK_ID>
DB04311

>  <SECONDARY_ACCESSION_NUMBERS>
EXPT02510

>  <COMMON_NAME>
4-Phenylbutylamine

>  <UNII>
UG8K2LT79Y

$$$$
