
 OpenBabel10282417133D

 46 48  0  0  1  0  0  0  0  0999 V2000
    1.2577    0.3308   -0.4762 C   0  0  0  0  0  0  0  0  0  0  0  0
    0.6031   -0.9032   -1.1331 C   0  0  0  0  0  0  0  0  0  0  0  0
    1.0529   -2.3042   -0.6490 C   0  0  0  0  0  0  0  0  0  0  0  0
    2.1340   -0.9555    4.1561 C   0  0  0  0  0  0  0  0  0  0  0  0
    0.6988    2.8624    5.9292 C   0  0  0  0  0  0  0  0  0  0  0  0
   -2.3429    0.8360    3.5704 C   0  0  0  0  0  0  0  0  0  0  0  0
    1.0905   -1.9178    4.9135 C   0  0  2  0  0  0  0  0  0  0  0  0
   -1.4093    2.5998    4.3329 C   0  0  0  0  0  0  0  0  0  0  0  0
    0.1587   -2.9071    4.1624 C   0  0  2  0  0  0  0  0  0  0  0  0
   -0.9827   -1.9709    3.8636 C   0  0  2  0  0  0  0  0  0  0  0  0
   -1.0080    3.8942    4.7389 C   0  0  0  0  0  0  0  0  0  0  0  0
   -0.7120    1.5399    4.8444 C   0  0  0  0  0  0  0  0  0  0  0  0
   -1.1401   -0.9733    4.9601 C   0  0  2  0  0  0  0  0  0  0  0  0
   -1.6322    5.0584    4.3759 N   0  0  0  0  0  0  0  0  0  0  0  0
    0.0724    3.9924    5.5603 N   0  0  0  0  0  0  0  0  0  0  0  0
    0.3876    1.6025    5.6368 N   0  0  0  0  0  0  0  0  0  0  0  0
   -2.4204    2.1502    3.4972 N   0  0  0  0  0  0  0  0  0  0  0  0
   -1.3765    0.4059    4.4651 N   0  0  0  0  0  0  0  0  0  0  0  0
   -0.2788   -4.0227    4.9246 O   0  0  0  0  0  0  0  0  0  0  0  0
   -2.1033   -2.4304    3.1546 O   0  0  0  0  0  0  0  0  0  0  0  0
   -0.3449   -0.9122    1.6435 O   0  0  0  0  0  0  0  0  0  0  0  0
    1.9892   -2.6140    2.3031 O   0  0  0  0  0  0  0  0  0  0  0  0
    0.5713   -2.6553    0.6578 O   0  0  0  0  0  0  0  0  0  0  0  0
    1.7247   -0.3020    2.9169 O   0  0  0  0  0  0  0  0  0  0  0  0
    0.1325   -1.0792    5.6653 O   0  0  0  0  0  0  0  0  0  0  0  0
    1.1480   -1.4786    1.7873 P   0  0  3  0  0  0  0  0  0  0  0  0
    1.6711   -2.4671    5.6614 H   0  0  0  0  0  0  0  0  0  0  0  0
    0.5421   -3.4175    3.2896 H   0  0  0  0  0  0  0  0  0  0  0  0
   -0.5062   -1.2498    3.2962 H   0  0  0  0  0  0  0  0  0  0  0  0
   -1.9839   -1.2342    5.5923 H   0  0  0  0  0  0  0  0  0  0  0  0
    1.0281    0.5291    0.5685 H   0  0  0  0  0  0  0  0  0  0  0  0
    0.9018    1.2447   -0.9568 H   0  0  0  0  0  0  0  0  0  0  0  0
    2.3460    0.2672   -0.5171 H   0  0  0  0  0  0  0  0  0  0  0  0
   -0.4880   -0.8341   -1.0455 H   0  0  0  0  0  0  0  0  0  0  0  0
    0.8410   -0.8302   -2.1992 H   0  0  0  0  0  0  0  0  0  0  0  0
    0.6673   -3.0631   -1.3382 H   0  0  0  0  0  0  0  0  0  0  0  0
    2.1456   -2.3791   -0.6546 H   0  0  0  0  0  0  0  0  0  0  0  0
    3.0618   -1.5058    3.9277 H   0  0  0  0  0  0  0  0  0  0  0  0
    2.4537   -0.1569    4.8318 H   0  0  0  0  0  0  0  0  0  0  0  0
    1.5738    2.9800    6.5696 H   0  0  0  0  0  0  0  0  0  0  0  0
   -2.9738    0.1586    2.9953 H   0  0  0  0  0  0  0  0  0  0  0  0
   -2.4887    5.0173    3.8359 H   0  0  0  0  0  0  0  0  0  0  0  0
   -1.3180    5.9145    4.8078 H   0  0  0  0  0  0  0  0  0  0  0  0
   -1.0692   -3.7664    5.4133 H   0  0  0  0  0  0  0  0  0  0  0  0
   -2.1419   -3.3987    3.2238 H   0  0  0  0  0  0  0  0  0  0  0  0
   -0.5976   -0.2427    0.9872 H   0  0  0  0  0  0  0  0  0  0  0  0
  1 31  1  0  0  0  0
  1 32  1  0  0  0  0
  1 33  1  0  0  0  0
  2  1  1  0  0  0  0
  2 34  1  0  0  0  0
  2 35  1  0  0  0  0
  3  2  1  0  0  0  0
  3 36  1  0  0  0  0
  3 37  1  0  0  0  0
  4 38  1  0  0  0  0
  4 39  1  0  0  0  0
  5 40  1  0  0  0  0
  6 41  1  0  0  0  0
  7  4  1  0  0  0  0
  7 27  1  1  0  0  0
  9  7  1  0  0  0  0
  9 19  1  0  0  0  0
  9 28  1  6  0  0  0
 10  9  1  0  0  0  0
 10 20  1  0  0  0  0
 10 29  1  6  0  0  0
 11  8  2  0  0  0  0
 12  8  1  0  0  0  0
 13 10  1  0  0  0  0
 13 30  1  1  0  0  0
 13 18  1  0  0  0  0
 14 11  1  0  0  0  0
 14 42  1  0  0  0  0
 14 43  1  0  0  0  0
 15  5  2  0  0  0  0
 15 11  1  0  0  0  0
 16  5  1  0  0  0  0
 16 12  2  0  0  0  0
 17  6  2  0  0  0  0
 17  8  1  0  0  0  0
 18  6  1  0  0  0  0
 18 12  1  0  0  0  0
 19 44  1  0  0  0  0
 20 45  1  0  0  0  0
 21 46  1  0  0  0  0
 23  3  1  0  0  0  0
 24  4  1  0  0  0  0
 25  7  1  0  0  0  0
 25 13  1  0  0  0  0
 26 21  1  0  0  0  0
 26 22  2  0  0  0  0
 26 23  1  0  0  0  0
 26 24  1  0  0  0  0
M  END
>  <DRUGBANK_ID>
DB03230

>  <SECONDARY_ACCESSION_NUMBERS>
EXPT02666

>  <COMMON_NAME>
Adenosine-5'-Propylphosphate

$$$$
