698
 OpenBabel10282417163D

 62 64  0  0  0  0  0  0  0  0999 V2000
    0.9766   -0.1697    0.2135 O   0  0  0  0  0  0  0  0  0  0  0  0
    2.1705   -0.0405   -0.0502 C   0  0  0  0  0  0  0  0  0  0  0  0
    2.9301   -1.1453   -0.2341 O   0  0  0  0  0  0  0  0  0  0  0  0
    2.9458    1.2623   -0.0101 C   0  0  2  0  0  0  0  0  0  0  0  0
    2.1859    2.5872   -0.1755 C   0  0  2  0  0  0  0  0  0  0  0  0
    1.1498    2.5942   -1.2955 C   0  0  0  0  0  0  0  0  0  0  0  0
    0.1283    1.7656   -1.3034 N   0  0  0  0  0  0  0  0  0  0  0  0
   -0.6101    1.8829   -2.4548 C   0  0  0  0  0  0  0  0  0  0  0  0
   -0.1756    2.8492   -3.3266 C   0  0  0  0  0  0  0  0  0  0  0  0
    1.1068    3.7117   -2.6057 S   0  0  0  0  0  0  0  0  0  0  0  0
    4.0338    1.3628   -1.0889 C   0  0  0  0  0  0  0  0  0  0  0  0
    4.3893    2.8755   -1.2157 C   0  0  1  0  0  0  0  0  0  0  0  0
    5.8349    3.1163   -0.6545 C   0  0  0  0  0  0  0  0  0  0  0  0
    6.9914    2.3313   -1.3366 C   0  0  0  0  0  0  0  0  0  0  0  0
    7.1020    2.6193   -2.8201 C   0  0  0  0  0  0  0  0  0  0  0  0
    8.3489    2.6422   -0.7283 C   0  0  0  0  0  0  0  0  0  0  0  0
    4.2368    3.4399   -2.6770 C   0  0  0  0  0  0  0  0  0  0  0  0
    4.0337    4.5992   -3.0076 O   0  0  0  0  0  0  0  0  0  0  0  0
    4.4409    2.5412   -3.6631 O   0  0  0  0  0  0  0  0  0  0  0  0
    3.3109    3.5246   -0.3987 N   0  0  0  0  0  0  0  0  0  0  0  0
    3.3767    4.8628   -0.0184 C   0  0  0  0  0  0  0  0  0  0  0  0
    4.3361    5.5919   -0.2577 O   0  0  0  0  0  0  0  0  0  0  0  0
    2.2847    5.4772    0.7652 C   0  0  0  0  0  0  0  0  0  0  0  0
    1.7127    6.6743    0.3257 C   0  0  0  0  0  0  0  0  0  0  0  0
    0.8010    7.3543    1.1402 C   0  0  0  0  0  0  0  0  0  0  0  0
    1.9572    4.9783    2.0223 C   0  0  0  0  0  0  0  0  0  0  0  0
    0.9985    5.6255    2.8000 C   0  0  0  0  0  0  0  0  0  0  0  0
    0.3794    6.8106    2.3672 C   0  0  0  0  0  0  0  0  0  0  0  0
   -0.7582    7.4704    3.1615 C   0  0  0  0  0  0  0  0  0  0  0  0
   -0.3726    8.8998    3.5829 C   0  0  0  0  0  0  0  0  0  0  0  0
   -2.0241    7.5310    2.2785 C   0  0  0  0  0  0  0  0  0  0  0  0
   -1.1201    6.6759    4.4350 C   0  0  0  0  0  0  0  0  0  0  0  0
    3.4251    1.2814    0.9839 H   0  0  0  0  0  0  0  0  0  0  0  0
    1.6525    2.8266    0.7444 H   0  0  0  0  0  0  0  0  0  0  0  0
    3.8971   -1.0315   -0.2621 H   0  0  0  0  0  0  0  0  0  0  0  0
   -1.4564    1.2257   -2.6028 H   0  0  0  0  0  0  0  0  0  0  0  0
   -0.5701    3.1126   -4.2959 H   0  0  0  0  0  0  0  0  0  0  0  0
    4.8840    0.7527   -0.7665 H   0  0  0  0  0  0  0  0  0  0  0  0
    3.6766    0.9309   -2.0265 H   0  0  0  0  0  0  0  0  0  0  0  0
    6.0903    4.1796   -0.7069 H   0  0  0  0  0  0  0  0  0  0  0  0
    5.8368    2.8629    0.4166 H   0  0  0  0  0  0  0  0  0  0  0  0
    6.8231    1.2565   -1.2168 H   0  0  0  0  0  0  0  0  0  0  0  0
    6.9874    3.6890   -3.0339 H   0  0  0  0  0  0  0  0  0  0  0  0
    8.0161    2.2586   -3.2928 H   0  0  0  0  0  0  0  0  0  0  0  0
    6.3483    2.0170   -3.2993 H   0  0  0  0  0  0  0  0  0  0  0  0
    8.3889    2.3497    0.3225 H   0  0  0  0  0  0  0  0  0  0  0  0
    9.1220    2.0798   -1.2668 H   0  0  0  0  0  0  0  0  0  0  0  0
    8.5824    3.7070   -0.8218 H   0  0  0  0  0  0  0  0  0  0  0  0
    4.7951    3.0913   -4.4014 H   0  0  0  0  0  0  0  0  0  0  0  0
    1.9788    7.0888   -0.6445 H   0  0  0  0  0  0  0  0  0  0  0  0
    0.4165    8.3147    0.8009 H   0  0  0  0  0  0  0  0  0  0  0  0
    2.4389    4.0896    2.4168 H   0  0  0  0  0  0  0  0  0  0  0  0
    0.7572    5.1734    3.7576 H   0  0  0  0  0  0  0  0  0  0  0  0
   -0.1691    9.5428    2.7197 H   0  0  0  0  0  0  0  0  0  0  0  0
   -1.1828    9.3725    4.1510 H   0  0  0  0  0  0  0  0  0  0  0  0
    0.5236    8.8979    4.2131 H   0  0  0  0  0  0  0  0  0  0  0  0
   -2.3304    6.5280    1.9579 H   0  0  0  0  0  0  0  0  0  0  0  0
   -2.8637    7.9806    2.8207 H   0  0  0  0  0  0  0  0  0  0  0  0
   -1.8682    8.1298    1.3741 H   0  0  0  0  0  0  0  0  0  0  0  0
   -1.4279    5.6521    4.1869 H   0  0  0  0  0  0  0  0  0  0  0  0
   -0.2661    6.6169    5.1208 H   0  0  0  0  0  0  0  0  0  0  0  0
   -1.9465    7.1384    4.9832 H   0  0  0  0  0  0  0  0  0  0  0  0
  1  2  2  0  0  0  0
  2  3  1  0  0  0  0
  3 35  1  0  0  0  0
  4  2  1  0  0  0  0
  4 33  1  1  0  0  0
  4  5  1  0  0  0  0
  4 11  1  0  0  0  0
  5 20  1  0  0  0  0
  5  6  1  0  0  0  0
  5 34  1  1  0  0  0
  6  7  2  0  0  0  0
  6 10  1  0  0  0  0
  7  8  1  0  0  0  0
  8  9  2  0  0  0  0
  8 36  1  0  0  0  0
  9 10  1  0  0  0  0
  9 37  1  0  0  0  0
 11 12  1  0  0  0  0
 11 38  1  0  0  0  0
 11 39  1  0  0  0  0
 12 13  1  0  0  0  0
 12 17  1  6  0  0  0
 12 20  1  0  0  0  0
 13 14  1  0  0  0  0
 13 40  1  0  0  0  0
 13 41  1  0  0  0  0
 14 15  1  0  0  0  0
 14 16  1  0  0  0  0
 14 42  1  0  0  0  0
 15 43  1  0  0  0  0
 15 44  1  0  0  0  0
 15 45  1  0  0  0  0
 16 46  1  0  0  0  0
 16 47  1  0  0  0  0
 16 48  1  0  0  0  0
 17 18  2  0  0  0  0
 17 19  1  0  0  0  0
 19 49  1  0  0  0  0
 20 21  1  0  0  0  0
 21 22  2  0  0  0  0
 21 23  1  0  0  0  0
 23 26  2  0  0  0  0
 23 24  1  0  0  0  0
 24 25  2  0  0  0  0
 24 50  1  0  0  0  0
 25 28  1  0  0  0  0
 25 51  1  0  0  0  0
 26 27  1  0  0  0  0
 26 52  1  0  0  0  0
 27 28  2  0  0  0  0
 27 53  1  0  0  0  0
 28 29  1  0  0  0  0
 29 30  1  0  0  0  0
 29 31  1  0  0  0  0
 29 32  1  0  0  0  0
 30 54  1  0  0  0  0
 30 55  1  0  0  0  0
 30 56  1  0  0  0  0
 31 57  1  0  0  0  0
 31 58  1  0  0  0  0
 31 59  1  0  0  0  0
 32 60  1  0  0  0  0
 32 61  1  0  0  0  0
 32 62  1  0  0  0  0
M  END
>  <DRUGBANK_ID>
DB07199

>  <COMMON_NAME>
(2S,4S,5R)-1-(4-TERT-BUTYLBENZOYL)-2-ISOBUTYL-5-(1,3-THIAZOL-2-YL)PYRROLIDINE-2,4-DICARBOXYLIC ACID

$$$$
