
 OpenBabel10282417173D

 46 47  0  0  0  0  0  0  0  0999 V2000
    1.0564    0.0473   -0.2214 C   0  0  0  0  0  0  0  0  0  0  0  0
    0.6177   -1.3590    0.1520 C   0  0  0  0  0  0  0  0  0  0  0  0
    1.1144   -1.7024    1.5557 C   0  0  0  0  0  0  0  0  0  0  0  0
    0.5742   -0.6970    2.5855 C   0  0  0  0  0  0  0  0  0  0  0  0
   -0.9626   -0.6542    2.5658 C   0  0  0  0  0  0  0  0  0  0  0  0
   -1.5071   -2.0348    2.8546 C   0  0  0  0  0  0  0  0  0  0  0  0
   -0.9615   -2.4951    4.1872 C   0  0  0  0  0  0  0  0  0  0  0  0
   -1.4664   -1.6235    5.3654 C   0  0  0  0  0  0  0  0  0  0  0  0
   -2.9778   -1.6914    5.5245 C   0  0  0  0  0  0  0  0  0  0  0  0
   -3.4982   -3.0468    5.9386 C   0  0  0  0  0  0  0  0  0  0  0  0
   -4.8375   -3.1895    6.2934 C   0  0  0  0  0  0  0  0  0  0  0  0
   -5.3113   -4.4568    6.6051 C   0  0  0  0  0  0  0  0  0  0  0  0
   -4.5217   -5.5985    6.3621 C   0  0  0  0  0  0  0  0  0  0  0  0
   -4.9705   -6.9178    6.5254 C   0  0  0  0  0  0  0  0  0  0  0  0
   -4.1986   -7.9929    6.0610 C   0  0  0  0  0  0  0  0  0  0  0  0
   -2.8951   -7.8088    5.6210 C   0  0  0  0  0  0  0  0  0  0  0  0
   -2.3744   -6.5289    5.6053 C   0  0  0  0  0  0  0  0  0  0  0  0
   -3.2049   -5.4397    5.9536 C   0  0  0  0  0  0  0  0  0  0  0  0
   -2.6560   -4.1695    5.9788 N   0  3  0  0  0  0  0  0  0  0  0  0
   -1.3951   -4.1016    6.1706 O   0  5  0  0  0  0  0  0  0  0  0  0
   -6.5700   -4.6095    7.1060 O   0  0  0  0  0  0  0  0  0  0  0  0
    0.6539    0.8010    0.4635 H   0  0  0  0  0  0  0  0  0  0  0  0
    0.7041    0.3133   -1.2171 H   0  0  0  0  0  0  0  0  0  0  0  0
    2.1476    0.1135   -0.1857 H   0  0  0  0  0  0  0  0  0  0  0  0
   -0.4750   -1.4349    0.0902 H   0  0  0  0  0  0  0  0  0  0  0  0
    1.0021   -2.0868   -0.5674 H   0  0  0  0  0  0  0  0  0  0  0  0
    0.8222   -2.7319    1.8041 H   0  0  0  0  0  0  0  0  0  0  0  0
    2.2082   -1.7075    1.5871 H   0  0  0  0  0  0  0  0  0  0  0  0
    0.9684   -0.9509    3.5753 H   0  0  0  0  0  0  0  0  0  0  0  0
    0.9664    0.3074    2.4222 H   0  0  0  0  0  0  0  0  0  0  0  0
   -1.3286    0.0695    3.2994 H   0  0  0  0  0  0  0  0  0  0  0  0
   -1.3635   -0.3074    1.6110 H   0  0  0  0  0  0  0  0  0  0  0  0
   -2.6001   -2.0579    2.8397 H   0  0  0  0  0  0  0  0  0  0  0  0
   -1.2254   -2.7647    2.0866 H   0  0  0  0  0  0  0  0  0  0  0  0
   -1.2391   -3.5459    4.1773 H   0  0  0  0  0  0  0  0  0  0  0  0
    0.1299   -2.5512    4.2534 H   0  0  0  0  0  0  0  0  0  0  0  0
   -0.9956   -1.9101    6.3127 H   0  0  0  0  0  0  0  0  0  0  0  0
   -1.1566   -0.5804    5.2444 H   0  0  0  0  0  0  0  0  0  0  0  0
   -3.2988   -0.9481    6.2622 H   0  0  0  0  0  0  0  0  0  0  0  0
   -3.4670   -1.3788    4.5886 H   0  0  0  0  0  0  0  0  0  0  0  0
   -5.4665   -2.3077    6.3794 H   0  0  0  0  0  0  0  0  0  0  0  0
   -5.9218   -7.1017    7.0082 H   0  0  0  0  0  0  0  0  0  0  0  0
   -4.6345   -8.9867    6.0415 H   0  0  0  0  0  0  0  0  0  0  0  0
   -2.2684   -8.6446    5.3248 H   0  0  0  0  0  0  0  0  0  0  0  0
   -1.3426   -6.3582    5.3037 H   0  0  0  0  0  0  0  0  0  0  0  0
   -6.9736   -3.7364    7.2423 H   0  0  0  0  0  0  0  0  0  0  0  0
  1  2  1  0  0  0  0
  1 22  1  0  0  0  0
  1 23  1  0  0  0  0
  1 24  1  0  0  0  0
  2  3  1  0  0  0  0
  2 25  1  0  0  0  0
  2 26  1  0  0  0  0
  3  4  1  0  0  0  0
  3 27  1  0  0  0  0
  3 28  1  0  0  0  0
  4  5  1  0  0  0  0
  4 29  1  0  0  0  0
  4 30  1  0  0  0  0
  5  6  1  0  0  0  0
  5 31  1  0  0  0  0
  5 32  1  0  0  0  0
  6  7  1  0  0  0  0
  6 33  1  0  0  0  0
  6 34  1  0  0  0  0
  7  8  1  0  0  0  0
  7 35  1  0  0  0  0
  7 36  1  0  0  0  0
  8  9  1  0  0  0  0
  8 37  1  0  0  0  0
  8 38  1  0  0  0  0
  9 10  1  0  0  0  0
  9 39  1  0  0  0  0
  9 40  1  0  0  0  0
 10 11  1  0  0  0  0
 10 19  2  0  0  0  0
 11 12  2  0  0  0  0
 11 41  1  0  0  0  0
 12 13  1  0  0  0  0
 12 21  1  0  0  0  0
 13 14  2  0  0  0  0
 13 18  1  0  0  0  0
 14 15  1  0  0  0  0
 14 42  1  0  0  0  0
 15 16  2  0  0  0  0
 15 43  1  0  0  0  0
 16 17  1  0  0  0  0
 16 44  1  0  0  0  0
 17 18  2  0  0  0  0
 17 45  1  0  0  0  0
 18 19  1  0  0  0  0
 19 20  1  0  0  0  0
 21 46  1  0  0  0  0
M  CHG  2  19   1  20  -1
M  END
>  <DRUGBANK_ID>
DB08453

>  <COMMON_NAME>
2-Nonyl-4-quinolinol 1-oxide

>  <CAS_NUMBER>
316-66-5

$$$$
