357
 OpenBabel10282417103D

 33 34  0  0  1  0  0  0  0  0999 V2000
   -2.1112   -1.1151   -0.1197 O   0  0  0  0  0  0  0  0  0  0  0  0
    2.3493   -0.9447   -0.0534 O   0  0  0  0  0  0  0  0  0  0  0  0
    0.1001   -0.9135   -0.1472 N   0  0  0  0  0  0  0  0  0  0  0  0
   -0.5725    2.0237    6.0519 N   0  0  0  0  0  0  0  0  0  0  0  0
   -1.2204    1.1290    0.3931 C   0  0  3  0  0  0  0  0  0  0  0  0
   -0.0543    1.8375   -0.3607 C   0  0  0  0  0  0  0  0  0  0  0  0
   -2.5688    1.7138   -0.1559 C   0  0  0  0  0  0  0  0  0  0  0  0
   -1.0690    1.3516    1.9171 C   0  0  0  0  0  0  0  0  0  0  0  0
    1.3173    1.2273   -0.0719 C   0  0  0  0  0  0  0  0  0  0  0  0
   -1.1483   -0.3690    0.0130 C   0  0  0  0  0  0  0  0  0  0  0  0
    1.3174   -0.2879   -0.1220 C   0  0  0  0  0  0  0  0  0  0  0  0
   -3.8505    1.1019    0.4343 C   0  0  0  0  0  0  0  0  0  0  0  0
   -0.0303    0.7579    2.6514 C   0  0  0  0  0  0  0  0  0  0  0  0
   -1.9360    2.1832    2.6437 C   0  0  0  0  0  0  0  0  0  0  0  0
    0.1599    1.0140    4.0056 C   0  0  0  0  0  0  0  0  0  0  0  0
   -1.8204    2.3392    4.0240 C   0  0  0  0  0  0  0  0  0  0  0  0
   -0.7556    1.7764    4.7107 C   0  0  0  0  0  0  0  0  0  0  0  0
    0.1070   -1.9213   -0.2251 H   0  0  0  0  0  0  0  0  0  0  0  0
   -1.2857    2.5065    6.5779 H   0  0  0  0  0  0  0  0  0  0  0  0
    0.2038    1.6019    6.5404 H   0  0  0  0  0  0  0  0  0  0  0  0
   -0.2212    1.7732   -1.4449 H   0  0  0  0  0  0  0  0  0  0  0  0
   -0.0265    2.9063   -0.1108 H   0  0  0  0  0  0  0  0  0  0  0  0
   -2.5864    2.8018    0.0071 H   0  0  0  0  0  0  0  0  0  0  0  0
   -2.6117    1.5892   -1.2459 H   0  0  0  0  0  0  0  0  0  0  0  0
    2.0519    1.5897   -0.7964 H   0  0  0  0  0  0  0  0  0  0  0  0
    1.6802    1.5501    0.9095 H   0  0  0  0  0  0  0  0  0  0  0  0
   -3.8837    1.1096    1.5252 H   0  0  0  0  0  0  0  0  0  0  0  0
   -4.7276    1.6496    0.0824 H   0  0  0  0  0  0  0  0  0  0  0  0
   -3.9850    0.0615    0.1430 H   0  0  0  0  0  0  0  0  0  0  0  0
    0.7014    0.0938    2.2117 H   0  0  0  0  0  0  0  0  0  0  0  0
   -2.7559    2.7226    2.1791 H   0  0  0  0  0  0  0  0  0  0  0  0
    1.0305    0.5889    4.4962 H   0  0  0  0  0  0  0  0  0  0  0  0
   -2.5740    2.9200    4.5470 H   0  0  0  0  0  0  0  0  0  0  0  0
  1 10  2  0  0  0  0
  2 11  2  0  0  0  0
  3 10  1  0  0  0  0
  3 11  1  0  0  0  0
  3 18  1  0  0  0  0
  4 17  1  0  0  0  0
  4 19  1  0  0  0  0
  4 20  1  0  0  0  0
  5  6  1  0  0  0  0
  5  7  1  0  0  0  0
  5  8  1  0  0  0  0
  5 10  1  0  0  0  0
  6  9  1  0  0  0  0
  6 21  1  0  0  0  0
  6 22  1  0  0  0  0
  7 12  1  0  0  0  0
  7 23  1  0  0  0  0
  7 24  1  0  0  0  0
  8 13  2  0  0  0  0
  8 14  1  0  0  0  0
  9 11  1  0  0  0  0
  9 25  1  0  0  0  0
  9 26  1  0  0  0  0
 12 27  1  0  0  0  0
 12 28  1  0  0  0  0
 12 29  1  0  0  0  0
 13 15  1  0  0  0  0
 13 30  1  0  0  0  0
 14 16  2  0  0  0  0
 14 31  1  0  0  0  0
 15 17  2  0  0  0  0
 15 32  1  0  0  0  0
 16 17  1  0  0  0  0
 16 33  1  0  0  0  0
M  END
>  <DRUGBANK_ID>
DB00357

>  <SECONDARY_ACCESSION_NUMBERS>
APRD00592

>  <COMMON_NAME>
Aminoglutethimide

>  <CAS_NUMBER>
125-84-8

>  <UNII>
0O54ZQ14I9

>  <SYNONYMS>
2-(p-Aminophenyl)-2-ethylglutarimide; 3-Ethyl-3-(p-aminophenyl)-2,6-dioxopiperidine; Aminoglutethimid; Aminoglutéthimide; Aminoglutethimide; Aminoglutethimidum; Aminoglutetimida; Aminoglutetimide; DL-Aminoglutethimide; p-Aminoglutethimide; α-(p-Aminophenyl)-α-ethylglutarimide

$$$$
