
 OpenBabel10282417183D

 83 86  0  0  1  0  0  0  0  0999 V2000
    0.7995   -0.0353   -0.1608 C   0  0  0  0  0  0  0  0  0  0  0  0
    0.2906    0.9946   -1.1256 C   0  0  0  0  0  0  0  0  0  0  0  0
    0.5441    0.3858   -2.4877 C   0  0  0  0  0  0  0  0  0  0  0  0
   -1.2568    1.0918   -1.0386 C   0  0  0  0  0  0  0  0  0  0  0  0
   -1.7870    1.4856    0.3085 C   0  0  0  0  0  0  0  0  0  0  0  0
   -2.1174    0.4950    1.2385 C   0  0  0  0  0  0  0  0  0  0  0  0
   -2.4221    0.8413    2.5479 C   0  0  0  0  0  0  0  0  0  0  0  0
   -2.3404    2.1710    2.9458 C   0  0  0  0  0  0  0  0  0  0  0  0
   -1.9230    3.1548    2.0398 C   0  0  0  0  0  0  0  0  0  0  0  0
   -1.7598    2.8239    0.6962 C   0  0  0  0  0  0  0  0  0  0  0  0
   -1.4452    4.4992    2.5320 C   0  0  0  0  0  0  0  0  0  0  0  0
    0.0268    4.7644    2.2051 C   0  0  0  0  0  0  0  0  0  0  0  0
    0.3645    5.7034    1.4803 O   0  0  0  0  0  0  0  0  0  0  0  0
    1.0073    3.9830    2.7529 N   0  0  0  0  0  0  0  0  0  0  0  0
    0.8687    2.8414    3.6351 C   0  0  0  0  0  0  0  0  0  0  0  0
    1.3849    1.5412    3.0751 C   0  0  0  0  0  0  0  0  0  0  0  0
    2.5713    1.4688    2.3410 C   0  0  0  0  0  0  0  0  0  0  0  0
    3.0572    0.2438    1.8685 C   0  0  0  0  0  0  0  0  0  0  0  0
    2.3534   -0.9293    2.1200 C   0  0  0  0  0  0  0  0  0  0  0  0
    1.1939   -0.9008    2.9044 C   0  0  0  0  0  0  0  0  0  0  0  0
    0.7224    0.3391    3.3703 C   0  0  0  0  0  0  0  0  0  0  0  0
    0.6142   -2.1484    3.3835 C   0  0  0  0  0  0  0  0  0  0  0  0
    1.4893   -2.9902    4.0838 C   0  0  0  0  0  0  0  0  0  0  0  0
    1.0205   -4.0767    4.7995 C   0  0  0  0  0  0  0  0  0  0  0  0
   -0.3429   -4.3301    4.8122 C   0  0  0  0  0  0  0  0  0  0  0  0
   -1.2325   -3.5275    4.1068 C   0  0  0  0  0  0  0  0  0  0  0  0
   -0.7474   -2.4672    3.3420 C   0  0  0  0  0  0  0  0  0  0  0  0
   -0.8492   -5.3839    5.5094 O   0  0  0  0  0  0  0  0  0  0  0  0
    0.9322    2.3030   -0.8646 N   0  0  0  0  0  0  0  0  0  0  0  0
    2.3948    2.3794   -0.8843 C   0  0  0  0  0  0  0  0  0  0  0  0
    3.1113    2.0459   -2.2250 C   0  0  1  0  0  0  0  0  0  0  0  0
    2.5691    2.9213   -3.3384 C   0  0  0  0  0  0  0  0  0  0  0  0
    1.6899    2.6154   -4.3634 C   0  0  0  0  0  0  0  0  0  0  0  0
    1.1614    3.6326   -5.1744 C   0  0  0  0  0  0  0  0  0  0  0  0
    1.5475    4.9656   -4.9730 C   0  0  0  0  0  0  0  0  0  0  0  0
    2.3823    5.3011   -3.9111 C   0  0  0  0  0  0  0  0  0  0  0  0
    2.9221    4.2450   -3.2314 C   0  0  0  0  0  0  0  0  0  0  0  0
    2.8605    6.6252   -3.6743 N   0  0  0  0  0  0  0  0  0  0  0  0
    3.6162    7.2217   -2.2963 S   0  0  0  0  0  0  0  0  0  0  0  0
    4.7924    7.9284   -2.8025 O   0  0  0  0  0  0  0  0  0  0  0  0
    2.6364    7.9220   -1.5191 O   0  0  0  0  0  0  0  0  0  0  0  0
    4.2641    5.9119   -1.2478 C   0  0  0  0  0  0  0  0  0  0  0  0
    1.1684    5.9302   -5.8647 O   0  0  0  0  0  0  0  0  0  0  0  0
    4.5373    2.1477   -2.0863 O   0  0  0  0  0  0  0  0  0  0  0  0
    0.3791   -1.0324   -0.3052 H   0  0  0  0  0  0  0  0  0  0  0  0
    0.5289    0.3002    0.8283 H   0  0  0  0  0  0  0  0  0  0  0  0
    1.8797   -0.1439   -0.2703 H   0  0  0  0  0  0  0  0  0  0  0  0
    0.0136   -0.5561   -2.6267 H   0  0  0  0  0  0  0  0  0  0  0  0
    0.1711    1.0801   -3.2262 H   0  0  0  0  0  0  0  0  0  0  0  0
    1.5708    0.0862   -2.6524 H   0  0  0  0  0  0  0  0  0  0  0  0
   -1.6260    1.7882   -1.8005 H   0  0  0  0  0  0  0  0  0  0  0  0
   -1.6737    0.1087   -1.2967 H   0  0  0  0  0  0  0  0  0  0  0  0
   -2.0381   -0.5533    0.9593 H   0  0  0  0  0  0  0  0  0  0  0  0
   -2.5868    0.0672    3.2919 H   0  0  0  0  0  0  0  0  0  0  0  0
   -2.4663    2.4109    3.9986 H   0  0  0  0  0  0  0  0  0  0  0  0
   -1.4638    3.5875   -0.0212 H   0  0  0  0  0  0  0  0  0  0  0  0
   -2.0595    5.2812    2.0727 H   0  0  0  0  0  0  0  0  0  0  0  0
   -1.5668    4.5905    3.6169 H   0  0  0  0  0  0  0  0  0  0  0  0
    1.9384    4.2550    2.4719 H   0  0  0  0  0  0  0  0  0  0  0  0
    1.4286    3.0570    4.5478 H   0  0  0  0  0  0  0  0  0  0  0  0
   -0.1654    2.7423    3.9442 H   0  0  0  0  0  0  0  0  0  0  0  0
    3.0780    2.3803    2.0408 H   0  0  0  0  0  0  0  0  0  0  0  0
    3.8977    0.2169    1.1786 H   0  0  0  0  0  0  0  0  0  0  0  0
    2.6431   -1.8528    1.6187 H   0  0  0  0  0  0  0  0  0  0  0  0
   -0.1846    0.3621    3.9681 H   0  0  0  0  0  0  0  0  0  0  0  0
    2.5500   -2.7460    4.1115 H   0  0  0  0  0  0  0  0  0  0  0  0
    1.7321   -4.6639    5.3661 H   0  0  0  0  0  0  0  0  0  0  0  0
   -2.3006   -3.7135    4.1724 H   0  0  0  0  0  0  0  0  0  0  0  0
   -1.4460   -1.8896    2.7486 H   0  0  0  0  0  0  0  0  0  0  0  0
   -0.1028   -5.9227    5.8198 H   0  0  0  0  0  0  0  0  0  0  0  0
    0.5262    3.0447   -1.4330 H   0  0  0  0  0  0  0  0  0  0  0  0
    2.6771    3.3754   -0.5104 H   0  0  0  0  0  0  0  0  0  0  0  0
    2.8360    1.7436   -0.1289 H   0  0  0  0  0  0  0  0  0  0  0  0
    3.0204    0.9997   -2.4462 H   0  0  0  0  0  0  0  0  0  0  0  0
    1.4071    1.5925   -4.5784 H   0  0  0  0  0  0  0  0  0  0  0  0
    0.4578    3.3560   -5.9552 H   0  0  0  0  0  0  0  0  0  0  0  0
    3.7260    4.3810   -2.5730 H   0  0  0  0  0  0  0  0  0  0  0  0
    2.2772    7.3345   -4.1291 H   0  0  0  0  0  0  0  0  0  0  0  0
    3.4244    5.3193   -0.8749 H   0  0  0  0  0  0  0  0  0  0  0  0
    5.0211    5.3479   -1.8044 H   0  0  0  0  0  0  0  0  0  0  0  0
    4.7800    6.3105   -0.3780 H   0  0  0  0  0  0  0  0  0  0  0  0
    0.7951    5.4900   -6.6490 H   0  0  0  0  0  0  0  0  0  0  0  0
    4.7858    3.0061   -1.7197 H   0  0  0  0  0  0  0  0  0  0  0  0
  1  2  1  0  0  0  0
  1 45  1  0  0  0  0
  1 46  1  0  0  0  0
  1 47  1  0  0  0  0
  2  3  1  0  0  0  0
  2  4  1  0  0  0  0
  2 29  1  0  0  0  0
  3 48  1  0  0  0  0
  3 49  1  0  0  0  0
  3 50  1  0  0  0  0
  4  5  1  0  0  0  0
  4 51  1  0  0  0  0
  4 52  1  0  0  0  0
  5  6  2  0  0  0  0
  5 10  1  0  0  0  0
  6  7  1  0  0  0  0
  6 53  1  0  0  0  0
  7  8  2  0  0  0  0
  7 54  1  0  0  0  0
  8  9  1  0  0  0  0
  8 55  1  0  0  0  0
  9 10  2  0  0  0  0
  9 11  1  0  0  0  0
 10 56  1  0  0  0  0
 11 12  1  0  0  0  0
 11 57  1  0  0  0  0
 11 58  1  0  0  0  0
 12 13  2  0  0  0  0
 12 14  1  0  0  0  0
 14 15  1  0  0  0  0
 14 59  1  0  0  0  0
 15 16  1  0  0  0  0
 15 60  1  0  0  0  0
 15 61  1  0  0  0  0
 16 17  2  0  0  0  0
 16 21  1  0  0  0  0
 17 18  1  0  0  0  0
 17 62  1  0  0  0  0
 18 19  2  0  0  0  0
 18 63  1  0  0  0  0
 19 20  1  0  0  0  0
 19 64  1  0  0  0  0
 20 21  2  0  0  0  0
 20 22  1  0  0  0  0
 21 65  1  0  0  0  0
 22 23  2  0  0  0  0
 22 27  1  0  0  0  0
 23 24  1  0  0  0  0
 23 66  1  0  0  0  0
 24 25  2  0  0  0  0
 24 67  1  0  0  0  0
 25 26  1  0  0  0  0
 25 28  1  0  0  0  0
 26 27  2  0  0  0  0
 26 68  1  0  0  0  0
 27 69  1  0  0  0  0
 28 70  1  0  0  0  0
 29 30  1  0  0  0  0
 29 71  1  0  0  0  0
 30 31  1  0  0  0  0
 30 72  1  0  0  0  0
 30 73  1  0  0  0  0
 31 32  1  0  0  0  0
 31 44  1  0  0  0  0
 31 74  1  6  0  0  0
 32 33  2  0  0  0  0
 32 37  1  0  0  0  0
 33 34  1  0  0  0  0
 33 75  1  0  0  0  0
 34 35  2  0  0  0  0
 34 76  1  0  0  0  0
 35 36  1  0  0  0  0
 35 43  1  0  0  0  0
 36 37  2  0  0  0  0
 36 38  1  0  0  0  0
 37 77  1  0  0  0  0
 38 39  1  0  0  0  0
 38 78  1  0  0  0  0
 39 40  2  0  0  0  0
 39 41  2  0  0  0  0
 39 42  1  0  0  0  0
 42 79  1  0  0  0  0
 42 80  1  0  0  0  0
 42 81  1  0  0  0  0
 43 82  1  0  0  0  0
 44 83  1  0  0  0  0
M  END
>  <DRUGBANK_ID>
DB11871

>  <COMMON_NAME>
PF-00610355

>  <CAS_NUMBER>
862541-45-5

>  <UNII>
ZH5SMU97AJ

$$$$
