
 OpenBabel10282417153D

 57 59  0  0  0  0  0  0  0  0999 V2000
    1.4346   -0.4801    0.0086 C   0  0  0  0  0  0  0  0  0  0  0  0
    0.5410   -1.5073    0.1432 C   0  0  0  0  0  0  0  0  0  0  0  0
   -0.8483   -1.2593    0.2424 C   0  0  0  0  0  0  0  0  0  0  0  0
   -1.3841    0.0334    0.1386 C   0  0  0  0  0  0  0  0  0  0  0  0
   -0.4411    0.9777    0.3608 C   0  0  0  0  0  0  0  0  0  0  0  0
    0.9322    0.7962    0.1304 C   0  0  0  0  0  0  0  0  0  0  0  0
   -2.8278    0.4248   -0.1651 C   0  0  0  0  0  0  0  0  0  0  0  0
   -3.3523    1.7163   -0.2871 C   0  0  0  0  0  0  0  0  0  0  0  0
   -4.8444    1.9468   -0.4186 C   0  0  0  0  0  0  0  0  0  0  0  0
   -5.7712    1.3253    0.4278 C   0  0  0  0  0  0  0  0  0  0  0  0
   -7.1341    1.6002    0.3240 C   0  0  0  0  0  0  0  0  0  0  0  0
   -7.5784    2.6061   -0.5291 C   0  0  0  0  0  0  0  0  0  0  0  0
   -6.6654    3.3136   -1.3027 C   0  0  0  0  0  0  0  0  0  0  0  0
   -5.3196    2.9492   -1.2890 C   0  0  0  0  0  0  0  0  0  0  0  0
   -2.5542    3.0189   -0.3796 C   0  0  0  0  0  0  0  0  0  0  0  0
   -1.6241    3.2034   -1.4148 C   0  0  0  0  0  0  0  0  0  0  0  0
   -0.8827    4.3984   -1.5485 C   0  0  0  0  0  0  0  0  0  0  0  0
   -1.0722    5.4602   -0.6596 C   0  0  0  0  0  0  0  0  0  0  0  0
   -2.0922    5.3402    0.3122 C   0  0  0  0  0  0  0  0  0  0  0  0
   -2.8018    4.1217    0.4675 C   0  0  0  0  0  0  0  0  0  0  0  0
   -0.0871    6.4172   -0.3935 O   0  0  0  0  0  0  0  0  0  0  0  0
    1.2920    6.2470   -0.8669 C   0  0  0  0  0  0  0  0  0  0  0  0
    2.3653    5.2309   -0.2781 C   0  0  0  0  0  0  0  0  0  0  0  0
    2.0205    3.8899    0.0120 O   0  0  0  0  0  0  0  0  0  0  0  0
    0.8421    3.8390    0.7661 C   0  0  0  0  0  0  0  0  0  0  0  0
    0.7696    3.7820    2.2575 C   0  0  0  0  0  0  0  0  0  0  0  0
    1.2251    5.0309    2.7762 O   0  0  0  0  0  0  0  0  0  0  0  0
   -3.6829   -0.8375   -0.4154 C   0  0  0  0  0  0  0  0  0  0  0  0
   -3.5404   -1.5875   -1.7600 C   0  0  0  0  0  0  0  0  0  0  0  0
   -2.0987   -2.5509   -2.1287 Cl  0  0  0  0  0  0  0  0  0  0  0  0
    2.5046   -0.6154   -0.1027 H   0  0  0  0  0  0  0  0  0  0  0  0
    0.9091   -2.5317    0.1293 H   0  0  0  0  0  0  0  0  0  0  0  0
   -1.4879   -2.1170    0.3669 H   0  0  0  0  0  0  0  0  0  0  0  0
   -0.8334    1.8998    0.7638 H   0  0  0  0  0  0  0  0  0  0  0  0
    1.6327    1.6082    0.0550 H   0  0  0  0  0  0  0  0  0  0  0  0
   -5.4424    0.6008    1.1690 H   0  0  0  0  0  0  0  0  0  0  0  0
   -7.8412    1.0443    0.9324 H   0  0  0  0  0  0  0  0  0  0  0  0
   -8.6350    2.8507   -0.5776 H   0  0  0  0  0  0  0  0  0  0  0  0
   -6.9919    4.1551   -1.9084 H   0  0  0  0  0  0  0  0  0  0  0  0
   -4.6354    3.4999   -1.9337 H   0  0  0  0  0  0  0  0  0  0  0  0
   -1.3328    2.3444   -2.0165 H   0  0  0  0  0  0  0  0  0  0  0  0
   -0.0002    4.3553   -2.1784 H   0  0  0  0  0  0  0  0  0  0  0  0
   -2.2310    6.1208    1.0618 H   0  0  0  0  0  0  0  0  0  0  0  0
   -3.5076    4.0240    1.2948 H   0  0  0  0  0  0  0  0  0  0  0  0
    1.2737    6.1775   -1.9538 H   0  0  0  0  0  0  0  0  0  0  0  0
    1.7598    7.2111   -0.6261 H   0  0  0  0  0  0  0  0  0  0  0  0
    3.1979    5.1690   -0.9913 H   0  0  0  0  0  0  0  0  0  0  0  0
    2.8157    5.6004    0.6431 H   0  0  0  0  0  0  0  0  0  0  0  0
    0.3608    4.7594    0.6629 H   0  0  0  0  0  0  0  0  0  0  0  0
    0.2291    3.1452    0.2563 H   0  0  0  0  0  0  0  0  0  0  0  0
   -0.2945    3.7077    2.5216 H   0  0  0  0  0  0  0  0  0  0  0  0
    1.3289    2.9628    2.6915 H   0  0  0  0  0  0  0  0  0  0  0  0
    2.1068    5.1710    2.3968 H   0  0  0  0  0  0  0  0  0  0  0  0
   -3.6429   -1.4980    0.4599 H   0  0  0  0  0  0  0  0  0  0  0  0
   -4.7346   -0.5657   -0.4688 H   0  0  0  0  0  0  0  0  0  0  0  0
   -4.3525   -2.3174   -1.8019 H   0  0  0  0  0  0  0  0  0  0  0  0
   -3.6583   -0.8866   -2.5870 H   0  0  0  0  0  0  0  0  0  0  0  0
  1  2  2  0  0  0  0
  1  6  1  0  0  0  0
  1 31  1  0  0  0  0
  2  3  1  0  0  0  0
  2 32  1  0  0  0  0
  3  4  2  0  0  0  0
  3 33  1  0  0  0  0
  4  5  1  0  0  0  0
  4  7  1  0  0  0  0
  5  6  2  0  0  0  0
  5 34  1  0  0  0  0
  6 35  1  0  0  0  0
  7  8  2  0  0  0  0
  7 28  1  0  0  0  0
  8  9  1  0  0  0  0
  8 15  1  0  0  0  0
  9 10  2  0  0  0  0
  9 14  1  0  0  0  0
 10 11  1  0  0  0  0
 10 36  1  0  0  0  0
 11 12  2  0  0  0  0
 11 37  1  0  0  0  0
 12 13  1  0  0  0  0
 12 38  1  0  0  0  0
 13 14  2  0  0  0  0
 13 39  1  0  0  0  0
 14 40  1  0  0  0  0
 15 16  2  0  0  0  0
 15 20  1  0  0  0  0
 16 17  1  0  0  0  0
 16 41  1  0  0  0  0
 17 18  2  0  0  0  0
 17 42  1  0  0  0  0
 18 19  1  0  0  0  0
 18 21  1  0  0  0  0
 19 20  2  0  0  0  0
 19 43  1  0  0  0  0
 20 44  1  0  0  0  0
 21 22  1  0  0  0  0
 22 23  1  0  0  0  0
 22 45  1  0  0  0  0
 22 46  1  0  0  0  0
 23 24  1  0  0  0  0
 23 47  1  0  0  0  0
 23 48  1  0  0  0  0
 24 25  1  0  0  0  0
 25 26  1  0  0  0  0
 25 49  1  0  0  0  0
 25 50  1  0  0  0  0
 26 27  1  0  0  0  0
 26 51  1  0  0  0  0
 26 52  1  0  0  0  0
 27 53  1  0  0  0  0
 28 29  1  0  0  0  0
 28 54  1  0  0  0  0
 28 55  1  0  0  0  0
 29 30  1  0  0  0  0
 29 56  1  0  0  0  0
 29 57  1  0  0  0  0
M  END
>  <DRUGBANK_ID>
DB06640

>  <COMMON_NAME>
Fispemifene

>  <CAS_NUMBER>
341524-89-8

>  <UNII>
3VZ2833V08

>  <SYNONYMS>
Fispemifene

$$$$
