
 OpenBabel10282417143D

 19 20  0  0  0  0  0  0  0  0999 V2000
   -3.3481    0.2702    0.1026 O   0  0  0  0  0  0  0  0  0  0  0  0
   -2.0060   -0.0645    0.0566 C   0  0  0  0  0  0  0  0  0  0  0  0
   -1.5848   -1.3333    0.0798 C   0  0  0  0  0  0  0  0  0  0  0  0
   -0.1533   -1.6881   -0.0029 C   0  0  0  0  0  0  0  0  0  0  0  0
    0.1850   -2.8613   -0.0817 O   0  0  0  0  0  0  0  0  0  0  0  0
    0.8340   -0.5937    0.0120 C   0  0  0  0  0  0  0  0  0  0  0  0
    2.2035   -0.8902    0.0250 C   0  0  0  0  0  0  0  0  0  0  0  0
    3.1417    0.1444    0.0332 C   0  0  0  0  0  0  0  0  0  0  0  0
    2.7172    1.4726    0.0275 C   0  0  0  0  0  0  0  0  0  0  0  0
    1.3536    1.7685    0.0142 C   0  0  0  0  0  0  0  0  0  0  0  0
    0.4098    0.7325    0.0041 C   0  0  0  0  0  0  0  0  0  0  0  0
   -1.0277    1.0634   -0.0320 C   0  0  0  0  0  0  0  0  0  0  0  0
   -1.3927    2.2285   -0.1303 O   0  0  0  0  0  0  0  0  0  0  0  0
   -3.8949   -0.5311    0.1184 H   0  0  0  0  0  0  0  0  0  0  0  0
   -2.2645   -2.1748    0.1440 H   0  0  0  0  0  0  0  0  0  0  0  0
    2.5443   -1.9243    0.0246 H   0  0  0  0  0  0  0  0  0  0  0  0
    4.2051   -0.0855    0.0399 H   0  0  0  0  0  0  0  0  0  0  0  0
    3.4467    2.2797    0.0274 H   0  0  0  0  0  0  0  0  0  0  0  0
    1.0282    2.8078    0.0071 H   0  0  0  0  0  0  0  0  0  0  0  0
  1  2  1  0  0  0  0
  1 14  1  0  0  0  0
  2  3  2  0  0  0  0
  2 12  1  0  0  0  0
  3  4  1  0  0  0  0
  3 15  1  0  0  0  0
  4  5  2  0  0  0  0
  4  6  1  0  0  0  0
  6  7  2  0  0  0  0
  6 11  1  0  0  0  0
  7  8  1  0  0  0  0
  7 16  1  0  0  0  0
  8  9  2  0  0  0  0
  8 17  1  0  0  0  0
  9 10  1  0  0  0  0
  9 18  1  0  0  0  0
 10 11  2  0  0  0  0
 10 19  1  0  0  0  0
 11 12  1  0  0  0  0
 12 13  2  0  0  0  0
M  END
>  <DRUGBANK_ID>
DB04744

>  <COMMON_NAME>
Lawsone

>  <CAS_NUMBER>
83-72-7

>  <UNII>
TLH4A6LV1W

>  <SYNONYMS>
2-hydroxy-1,4-naphthalenedione; 2-hydroxy-1,4-naphthoquinone; 2-hydroxynaphthoquinone; Lawsone

$$$$
