TFM
 OpenBabel10282417133D

 27 27  0  0  0  0  0  0  0  0999 V2000
    0.8212   -0.1179    0.1683 N   0  0  0  0  0  0  0  0  0  0  0  0
    0.2391    1.0863    0.4216 C   0  0  0  0  0  0  0  0  0  0  0  0
   -1.5166    1.1974    0.3931 S   0  0  0  0  0  0  0  0  0  0  0  0
    0.8494    2.1950    0.6752 N   0  0  0  0  0  0  0  0  0  0  0  0
    2.2523    2.2922    0.6268 C   0  0  0  0  0  0  0  0  0  0  0  0
    2.9866    1.7945   -0.4575 C   0  0  0  0  0  0  0  0  0  0  0  0
    4.3769    1.8691   -0.4861 C   0  0  0  0  0  0  0  0  0  0  0  0
    5.0637    2.5394    0.5298 C   0  0  0  0  0  0  0  0  0  0  0  0
    4.3268    3.1393    1.5632 C   0  0  0  0  0  0  0  0  0  0  0  0
    2.9372    2.9743    1.6339 C   0  0  0  0  0  0  0  0  0  0  0  0
   -2.1327   -0.4332   -0.0860 C   0  0  0  0  0  0  0  0  0  0  0  0
   -1.7661   -0.8264   -1.5092 C   0  0  0  0  0  0  0  0  0  0  0  0
    6.5699    2.5883    0.5334 C   0  0  0  0  0  0  0  0  0  0  0  0
    7.0619    3.8530    0.4506 F   0  0  0  0  0  0  0  0  0  0  0  0
    7.0956    2.0498    1.6687 F   0  0  0  0  0  0  0  0  0  0  0  0
    7.1344    1.8961   -0.4967 F   0  0  0  0  0  0  0  0  0  0  0  0
    0.3102   -0.9669    0.0266 H   0  0  0  0  0  0  0  0  0  0  0  0
    1.8228   -0.2019    0.2484 H   0  0  0  0  0  0  0  0  0  0  0  0
    2.4722    1.3134   -1.2852 H   0  0  0  0  0  0  0  0  0  0  0  0
    4.9136    1.4048   -1.3111 H   0  0  0  0  0  0  0  0  0  0  0  0
    4.8357    3.7304    2.3234 H   0  0  0  0  0  0  0  0  0  0  0  0
    2.3879    3.3866    2.4780 H   0  0  0  0  0  0  0  0  0  0  0  0
   -1.8026   -1.1844    0.6388 H   0  0  0  0  0  0  0  0  0  0  0  0
   -3.2269   -0.3996   -0.0169 H   0  0  0  0  0  0  0  0  0  0  0  0
   -0.6898   -0.8861   -1.6805 H   0  0  0  0  0  0  0  0  0  0  0  0
   -2.1715   -1.8181   -1.7346 H   0  0  0  0  0  0  0  0  0  0  0  0
   -2.1728   -0.1177   -2.2359 H   0  0  0  0  0  0  0  0  0  0  0  0
  1  2  1  0  0  0  0
  1 17  1  0  0  0  0
  1 18  1  0  0  0  0
  2  3  1  0  0  0  0
  2  4  2  0  0  0  0
  3 11  1  0  0  0  0
  4  5  1  0  0  0  0
  5  6  2  0  0  0  0
  5 10  1  0  0  0  0
  6  7  1  0  0  0  0
  6 19  1  0  0  0  0
  7  8  2  0  0  0  0
  7 20  1  0  0  0  0
  8  9  1  0  0  0  0
  8 13  1  0  0  0  0
  9 10  2  0  0  0  0
  9 21  1  0  0  0  0
 10 22  1  0  0  0  0
 11 12  1  0  0  0  0
 11 23  1  0  0  0  0
 11 24  1  0  0  0  0
 12 25  1  0  0  0  0
 12 26  1  0  0  0  0
 12 27  1  0  0  0  0
 13 14  1  0  0  0  0
 13 15  1  0  0  0  0
 13 16  1  0  0  0  0
M  END
>  <DRUGBANK_ID>
DB02991

>  <SECONDARY_ACCESSION_NUMBERS>
EXPT03044

>  <COMMON_NAME>
S-Ethyl-N-[4-(Trifluoromethyl)Phenyl]Isothiourea

$$$$
