QMS
 OpenBabel10282417173D

 25 26  0  0  0  0  0  0  0  0999 V2000
    0.9732   -0.0305    0.1574 O   0  0  0  0  0  0  0  0  0  0  0  0
    2.4184    0.0012    0.0375 S   0  0  0  0  0  0  0  0  0  0  0  0
    3.0973    1.1688   -0.4767 O   0  0  0  0  0  0  0  0  0  0  0  0
    3.0619   -0.3171    1.6663 C   0  0  0  0  0  0  0  0  0  0  0  0
    2.9517   -1.3141   -0.8486 N   0  0  0  0  0  0  0  0  0  0  0  0
    2.0344   -2.1478   -1.5844 C   0  0  0  0  0  0  0  0  0  0  0  0
    0.9918   -1.5538   -2.3091 C   0  0  0  0  0  0  0  0  0  0  0  0
    2.2180   -3.5450   -1.6066 C   0  0  0  0  0  0  0  0  0  0  0  0
    3.2850   -4.1364   -1.0114 N   0  0  0  0  0  0  0  0  0  0  0  0
    3.3668   -5.4891   -1.0340 C   0  0  0  0  0  0  0  0  0  0  0  0
    2.4261   -6.3166   -1.6159 C   0  0  0  0  0  0  0  0  0  0  0  0
    1.3397   -5.7213   -2.2377 C   0  0  0  0  0  0  0  0  0  0  0  0
    1.2265   -4.3248   -2.2575 C   0  0  0  0  0  0  0  0  0  0  0  0
    0.1382   -3.7170   -2.9017 C   0  0  0  0  0  0  0  0  0  0  0  0
    0.0331   -2.3335   -2.9437 C   0  0  0  0  0  0  0  0  0  0  0  0
    2.6776   -1.2694    2.0336 H   0  0  0  0  0  0  0  0  0  0  0  0
    4.1522   -0.3039    1.6416 H   0  0  0  0  0  0  0  0  0  0  0  0
    2.7058    0.4889    2.3164 H   0  0  0  0  0  0  0  0  0  0  0  0
    3.9481   -1.4493   -1.0189 H   0  0  0  0  0  0  0  0  0  0  0  0
    0.8942   -0.4718   -2.3545 H   0  0  0  0  0  0  0  0  0  0  0  0
    4.2412   -5.9086   -0.5440 H   0  0  0  0  0  0  0  0  0  0  0  0
    2.5332   -7.3955   -1.5870 H   0  0  0  0  0  0  0  0  0  0  0  0
    0.5821   -6.3504   -2.7008 H   0  0  0  0  0  0  0  0  0  0  0  0
   -0.6323   -4.3166   -3.3822 H   0  0  0  0  0  0  0  0  0  0  0  0
   -0.8038   -1.8573   -3.4474 H   0  0  0  0  0  0  0  0  0  0  0  0
  1  2  2  0  0  0  0
  2  3  2  0  0  0  0
  2  4  1  0  0  0  0
  2  5  1  0  0  0  0
  4 16  1  0  0  0  0
  4 17  1  0  0  0  0
  4 18  1  0  0  0  0
  5  6  1  0  0  0  0
  5 19  1  0  0  0  0
  6  7  2  0  0  0  0
  6  8  1  0  0  0  0
  7 15  1  0  0  0  0
  7 20  1  0  0  0  0
  8  9  1  0  0  0  0
  8 13  2  0  0  0  0
  9 10  2  0  0  0  0
 10 11  1  0  0  0  0
 10 21  1  0  0  0  0
 11 12  2  0  0  0  0
 11 22  1  0  0  0  0
 12 13  1  0  0  0  0
 12 23  1  0  0  0  0
 13 14  1  0  0  0  0
 14 15  2  0  0  0  0
 14 24  1  0  0  0  0
 15 25  1  0  0  0  0
M  END
>  <DRUGBANK_ID>
DB08451

>  <COMMON_NAME>
N-(QUINOLIN-8-YL)METHANESULFONAMIDE

$$$$
