
 OpenBabel10282417183D

 33 33  0  0  0  0  0  0  0  0999 V2000
    0.5948    0.0962    0.1131 O   0  0  0  0  0  0  0  0  0  0  0  0
    2.5669   -0.4712   -2.2919 N   0  0  0  0  0  0  0  0  0  0  0  0
    1.0707   -0.5431   -2.2247 C   0  0  2  0  0  0  0  0  0  0  0  0
    0.4568   -0.9671   -0.8401 C   0  0  1  0  0  0  0  0  0  0  0  0
    0.5226   -1.4719   -3.3387 C   0  0  0  0  0  0  0  0  0  0  0  0
    3.0545   -0.1284   -3.6412 C   0  0  0  0  0  0  0  0  0  0  0  0
    0.9174   -2.3262   -0.3367 C   0  0  0  0  0  0  0  0  0  0  0  0
    3.1613    0.4609   -1.3287 C   0  0  0  0  0  0  0  0  0  0  0  0
    2.5618    1.2271   -4.1439 C   0  0  0  0  0  0  0  0  0  0  0  0
    1.8120   -2.4965    0.7302 C   0  0  0  0  0  0  0  0  0  0  0  0
    0.4209   -3.4849   -0.9623 C   0  0  0  0  0  0  0  0  0  0  0  0
    2.1720   -3.7758    1.1549 C   0  0  0  0  0  0  0  0  0  0  0  0
    0.7999   -4.7591   -0.5593 C   0  0  0  0  0  0  0  0  0  0  0  0
    1.6746   -4.9045    0.5119 C   0  0  0  0  0  0  0  0  0  0  0  0
    1.4490   -0.0073    0.5511 H   0  0  0  0  0  0  0  0  0  0  0  0
    0.6656    0.4591   -2.4160 H   0  0  0  0  0  0  0  0  0  0  0  0
   -0.6319   -1.0322   -0.9650 H   0  0  0  0  0  0  0  0  0  0  0  0
   -0.5608   -1.6047   -3.2460 H   0  0  0  0  0  0  0  0  0  0  0  0
    0.6893   -1.0798   -4.3456 H   0  0  0  0  0  0  0  0  0  0  0  0
    1.0039   -2.4558   -3.3101 H   0  0  0  0  0  0  0  0  0  0  0  0
    4.1515   -0.1432   -3.6402 H   0  0  0  0  0  0  0  0  0  0  0  0
    2.7883   -0.9161   -4.3547 H   0  0  0  0  0  0  0  0  0  0  0  0
    2.7032    1.4549   -1.3689 H   0  0  0  0  0  0  0  0  0  0  0  0
    3.1117    0.0903   -0.3058 H   0  0  0  0  0  0  0  0  0  0  0  0
    4.2367    0.5730   -1.5124 H   0  0  0  0  0  0  0  0  0  0  0  0
    2.8953    2.0386   -3.4902 H   0  0  0  0  0  0  0  0  0  0  0  0
    2.9476    1.4250   -5.1450 H   0  0  0  0  0  0  0  0  0  0  0  0
    1.4699    1.2722   -4.2010 H   0  0  0  0  0  0  0  0  0  0  0  0
    2.2422   -1.6533    1.2567 H   0  0  0  0  0  0  0  0  0  0  0  0
   -0.2743   -3.4124   -1.7974 H   0  0  0  0  0  0  0  0  0  0  0  0
    2.8447   -3.8876    2.0029 H   0  0  0  0  0  0  0  0  0  0  0  0
    0.4031   -5.6281   -1.0737 H   0  0  0  0  0  0  0  0  0  0  0  0
    1.9592   -5.8962    0.8436 H   0  0  0  0  0  0  0  0  0  0  0  0
  1 15  1  0  0  0  0
  2  6  1  0  0  0  0
  2  8  1  0  0  0  0
  3  2  1  0  0  0  0
  3  4  1  0  0  0  0
  3  5  1  0  0  0  0
  3 16  1  6  0  0  0
  4  1  1  0  0  0  0
  4  7  1  0  0  0  0
  4 17  1  6  0  0  0
  5 18  1  0  0  0  0
  5 19  1  0  0  0  0
  5 20  1  0  0  0  0
  6  9  1  0  0  0  0
  6 21  1  0  0  0  0
  6 22  1  0  0  0  0
  7 10  2  0  0  0  0
  7 11  1  0  0  0  0
  8 23  1  0  0  0  0
  8 24  1  0  0  0  0
  8 25  1  0  0  0  0
  9 26  1  0  0  0  0
  9 27  1  0  0  0  0
  9 28  1  0  0  0  0
 10 12  1  0  0  0  0
 10 29  1  0  0  0  0
 11 13  2  0  0  0  0
 11 30  1  0  0  0  0
 12 14  2  0  0  0  0
 12 31  1  0  0  0  0
 13 14  1  0  0  0  0
 13 32  1  0  0  0  0
 14 33  1  0  0  0  0
M  END
>  <DRUGBANK_ID>
DB11587

>  <COMMON_NAME>
Etafedrine

>  <CAS_NUMBER>
48141-64-6

>  <UNII>
2Y6VQU63E8

>  <SYNONYMS>
(-)-etafedrine; alpha-(1-(ethylmethylamino)ethyl)benzyl alcohol; Etafedrine

$$$$
