903
 OpenBabel10282417113D

 31 31  0  0  0  0  0  0  0  0999 V2000
    1.6817    0.7424    0.7450 Cl  0  0  0  0  0  0  0  0  0  0  0  0
    1.2230   -2.0779   -0.0912 Cl  0  0  0  0  0  0  0  0  0  0  0  0
   -1.4254   -2.8783    0.0003 O   0  0  0  0  0  0  0  0  0  0  0  0
   -2.4020    3.3697   -0.0687 O   0  0  0  0  0  0  0  0  0  0  0  0
   -4.6369   -2.7469    1.2858 O   0  0  0  0  0  0  0  0  0  0  0  0
   -2.8805   -3.3544    2.5669 O   0  0  0  0  0  0  0  0  0  0  0  0
   -1.0972    1.3369    0.0722 C   0  0  0  0  0  0  0  0  0  0  0  0
   -0.1190    3.8906   -0.1161 C   0  0  0  0  0  0  0  0  0  0  0  0
   -1.2591    2.8994   -0.0083 C   0  0  0  0  0  0  0  0  0  0  0  0
    1.2332    3.3524   -0.2418 C   0  0  0  0  0  0  0  0  0  0  0  0
    0.0291    0.4266    0.1859 C   0  0  0  0  0  0  0  0  0  0  0  0
   -2.3634    0.7134   -0.0257 C   0  0  0  0  0  0  0  0  0  0  0  0
   -1.4089   -1.5168   -0.0222 C   0  0  0  0  0  0  0  0  0  0  0  0
   -0.1401   -0.9652    0.0236 C   0  0  0  0  0  0  0  0  0  0  0  0
   -2.5135   -0.6756   -0.0387 C   0  0  0  0  0  0  0  0  0  0  0  0
    2.0930    3.5380   -1.4576 C   0  0  0  0  0  0  0  0  0  0  0  0
   -0.2655    5.2237   -0.1525 C   0  0  0  0  0  0  0  0  0  0  0  0
   -2.6578   -3.5345    0.1449 C   0  0  0  0  0  0  0  0  0  0  0  0
   -3.3858   -3.2321    1.4453 C   0  0  0  0  0  0  0  0  0  0  0  0
   -4.9288   -2.6166    0.3624 H   0  0  0  0  0  0  0  0  0  0  0  0
    1.7691    3.4062    0.7138 H   0  0  0  0  0  0  0  0  0  0  0  0
    0.9587    2.3652   -0.5005 H   0  0  0  0  0  0  0  0  0  0  0  0
   -3.2894    1.2974   -0.0625 H   0  0  0  0  0  0  0  0  0  0  0  0
   -3.5267   -1.0465   -0.0645 H   0  0  0  0  0  0  0  0  0  0  0  0
    2.3902    4.5683   -1.6057 H   0  0  0  0  0  0  0  0  0  0  0  0
    2.9763    2.8944   -1.3489 H   0  0  0  0  0  0  0  0  0  0  0  0
    1.5468    3.1638   -2.3335 H   0  0  0  0  0  0  0  0  0  0  0  0
   -1.2249    5.7244   -0.1364 H   0  0  0  0  0  0  0  0  0  0  0  0
    0.6278    5.8455   -0.2057 H   0  0  0  0  0  0  0  0  0  0  0  0
   -3.2658   -3.3364   -0.7420 H   0  0  0  0  0  0  0  0  0  0  0  0
   -2.4364   -4.6066    0.1432 H   0  0  0  0  0  0  0  0  0  0  0  0
  1 11  1  0  0  0  0
  2 14  1  0  0  0  0
  3 13  1  0  0  0  0
  3 18  1  0  0  0  0
  4  9  2  0  0  0  0
  5 19  1  0  0  0  0
  5 20  1  0  0  0  0
  6 19  2  0  0  0  0
  7  9  1  0  0  0  0
  7 11  2  0  0  0  0
  7 12  1  0  0  0  0
  8  9  1  0  0  0  0
  8 10  1  0  0  0  0
  8 17  2  0  0  0  0
 10 16  1  0  0  0  0
 10 21  1  0  0  0  0
 10 22  1  0  0  0  0
 11 14  1  0  0  0  0
 12 15  2  0  0  0  0
 12 23  1  0  0  0  0
 13 14  2  0  0  0  0
 13 15  1  0  0  0  0
 15 24  1  0  0  0  0
 16 25  1  0  0  0  0
 16 26  1  0  0  0  0
 16 27  1  0  0  0  0
 17 28  1  0  0  0  0
 17 29  1  0  0  0  0
 18 19  1  0  0  0  0
 18 30  1  0  0  0  0
 18 31  1  0  0  0  0
M  END
>  <DRUGBANK_ID>
DB00903

>  <SECONDARY_ACCESSION_NUMBERS>
APRD00251

>  <COMMON_NAME>
Etacrynic acid

>  <CAS_NUMBER>
58-54-8

>  <UNII>
M5DP350VZV

>  <SYNONYMS>
(2,3-Dichloro-4-(2-methylene-1-oxobutyl)phenoxy)acetic acid; Acide étacrynique; ácido etacrínico; Acidum etacrynicum; Etacrinic acid; Etacrynic acid; Ethacrynate; Ethacrynic acid; Methylenebutyrylphenoxyacetic acid

$$$$
