
 OpenBabel10282417133D

 42 44  0  0  0  0  0  0  0  0999 V2000
   -0.9566   -1.4780   -0.0360 C   0  0  2  0  0  0  0  0  0  0  0  0
   -2.2509   -0.6407    0.2264 C   0  0  0  0  0  0  0  0  0  0  0  0
   -2.2689    0.7783   -0.1343 N   0  0  0  0  0  0  0  0  0  0  0  0
   -0.9448    1.7922   -0.0526 S   0  0  0  0  0  0  0  0  0  0  0  0
   -0.7972    2.4771   -1.3105 O   0  0  0  0  0  0  0  0  0  0  0  0
   -0.9224    2.4704    1.2332 O   0  0  0  0  0  0  0  0  0  0  0  0
    0.3436   -0.6931   -0.0119 C   0  0  0  0  0  0  0  0  0  0  0  0
    0.3677    0.6815   -0.0008 C   0  0  0  0  0  0  0  0  0  0  0  0
    1.6979   -1.1650    0.0082 C   0  0  0  0  0  0  0  0  0  0  0  0
    2.6103   -0.1188    0.0199 C   0  0  0  0  0  0  0  0  0  0  0  0
    1.8774    1.4014    0.0309 S   0  0  0  0  0  0  0  0  0  0  0  0
    4.7124    0.5730   -1.2604 O   0  0  0  0  0  0  0  0  0  0  0  0
    4.7286    0.5859    1.2828 O   0  0  0  0  0  0  0  0  0  0  0  0
    4.3538    0.0048    0.0149 S   0  0  0  0  0  0  0  0  0  0  0  0
    4.8858   -1.5823   -0.0083 N   0  0  0  0  0  0  0  0  0  0  0  0
   -3.5038    1.4536   -0.0510 C   0  0  0  0  0  0  0  0  0  0  0  0
   -3.7912    2.3866   -1.0391 C   0  0  0  0  0  0  0  0  0  0  0  0
   -4.8644    3.2299   -0.8639 C   0  0  0  0  0  0  0  0  0  0  0  0
   -5.7334    3.0075    0.2070 C   0  0  0  0  0  0  0  0  0  0  0  0
   -5.4636    2.0403    1.1727 C   0  0  0  0  0  0  0  0  0  0  0  0
   -4.3206    1.2785    1.0635 C   0  0  0  0  0  0  0  0  0  0  0  0
   -4.9414    4.2587   -1.7574 O   0  0  0  0  0  0  0  0  0  0  0  0
   -5.9387    5.2221   -1.4553 C   0  0  0  0  0  0  0  0  0  0  0  0
   -0.9600   -2.3164   -1.2532 N   0  0  0  0  0  0  0  0  0  0  0  0
   -2.2309   -2.3542   -1.9739 C   0  0  0  0  0  0  0  0  0  0  0  0
   -0.9030   -2.1680    0.8206 H   0  0  0  0  0  0  0  0  0  0  0  0
   -2.6118   -0.8589    1.2344 H   0  0  0  0  0  0  0  0  0  0  0  0
   -3.0737   -1.0119   -0.3875 H   0  0  0  0  0  0  0  0  0  0  0  0
    1.9899   -2.2082   -0.0004 H   0  0  0  0  0  0  0  0  0  0  0  0
    4.5376   -2.0375   -0.8516 H   0  0  0  0  0  0  0  0  0  0  0  0
    5.9027   -1.5752    0.0351 H   0  0  0  0  0  0  0  0  0  0  0  0
   -3.1407    2.4958   -1.9052 H   0  0  0  0  0  0  0  0  0  0  0  0
   -6.6318    3.5959    0.3284 H   0  0  0  0  0  0  0  0  0  0  0  0
   -6.1165    1.9177    2.0292 H   0  0  0  0  0  0  0  0  0  0  0  0
   -4.0691    0.5784    1.8530 H   0  0  0  0  0  0  0  0  0  0  0  0
   -6.9243    4.7689   -1.5916 H   0  0  0  0  0  0  0  0  0  0  0  0
   -5.8250    5.6240   -0.4403 H   0  0  0  0  0  0  0  0  0  0  0  0
   -5.8415    6.0531   -2.1558 H   0  0  0  0  0  0  0  0  0  0  0  0
   -0.7132   -3.2696   -0.9862 H   0  0  0  0  0  0  0  0  0  0  0  0
   -2.1867   -3.0267   -2.8313 H   0  0  0  0  0  0  0  0  0  0  0  0
   -3.0418   -2.7263   -1.3331 H   0  0  0  0  0  0  0  0  0  0  0  0
   -2.4850   -1.3620   -2.3683 H   0  0  0  0  0  0  0  0  0  0  0  0
  1  2  1  0  0  0  0
  1  7  1  0  0  0  0
  1 26  1  1  0  0  0
  1 24  1  0  0  0  0
  2  3  1  0  0  0  0
  2 27  1  0  0  0  0
  2 28  1  0  0  0  0
  3 16  1  0  0  0  0
  3  4  1  0  0  0  0
  4  8  1  0  0  0  0
  4  5  2  0  0  0  0
  4  6  2  0  0  0  0
  7  9  1  0  0  0  0
  7  8  2  0  0  0  0
  8 11  1  0  0  0  0
  9 10  2  0  0  0  0
  9 29  1  0  0  0  0
 10 11  1  0  0  0  0
 10 14  1  0  0  0  0
 12 14  2  0  0  0  0
 13 14  2  0  0  0  0
 14 15  1  0  0  0  0
 15 30  1  0  0  0  0
 15 31  1  0  0  0  0
 16 21  1  0  0  0  0
 16 17  2  0  0  0  0
 17 18  1  0  0  0  0
 17 32  1  0  0  0  0
 18 19  2  0  0  0  0
 18 22  1  0  0  0  0
 19 20  1  0  0  0  0
 19 33  1  0  0  0  0
 20 21  2  0  0  0  0
 20 34  1  0  0  0  0
 21 35  1  0  0  0  0
 22 23  1  0  0  0  0
 23 36  1  0  0  0  0
 23 37  1  0  0  0  0
 23 38  1  0  0  0  0
 24 25  1  0  0  0  0
 24 39  1  0  0  0  0
 25 40  1  0  0  0  0
 25 41  1  0  0  0  0
 25 42  1  0  0  0  0
M  END
>  <DRUGBANK_ID>
DB03221

>  <SECONDARY_ACCESSION_NUMBERS>
EXPT00491

>  <COMMON_NAME>
AL7099A

$$$$
