
 OpenBabel10282417123D

 55 56  0  0  0  0  0  0  0  0999 V2000
    1.0296    0.0975   -0.1742 C   0  0  0  0  0  0  0  0  0  0  0  0
    0.5497   -0.1619    1.1736 N   0  0  0  0  0  0  0  0  0  0  0  0
   -0.9372   -0.0274    1.2152 C   0  0  0  0  0  0  0  0  0  0  0  0
   -1.7570   -1.0408    0.4008 C   0  0  0  0  0  0  0  0  0  0  0  0
   -1.6424   -2.3394    1.0968 C   0  0  0  0  0  0  0  0  0  0  0  0
   -2.0822   -2.3964    2.5050 C   0  0  0  0  0  0  0  0  0  0  0  0
   -3.4852   -2.7979    2.6566 C   0  0  0  0  0  0  0  0  0  0  0  0
   -3.6679   -4.1402    1.9228 C   0  0  0  0  0  0  0  0  0  0  0  0
   -3.1164   -5.3138    2.6145 O   0  0  0  0  0  0  0  0  0  0  0  0
   -1.7640   -5.5806    2.6643 C   0  0  0  0  0  0  0  0  0  0  0  0
   -0.8625   -4.9083    3.5029 C   0  0  0  0  0  0  0  0  0  0  0  0
    0.5156   -4.9486    3.2689 C   0  0  0  0  0  0  0  0  0  0  0  0
    1.0385   -6.0381    2.5997 C   0  0  0  0  0  0  0  0  0  0  0  0
    0.1227   -6.9623    2.0836 C   0  0  0  0  0  0  0  0  0  0  0  0
    0.5155   -8.1630    1.6477 F   0  0  0  0  0  0  0  0  0  0  0  0
   -1.2546   -6.6960    2.0294 C   0  0  0  0  0  0  0  0  0  0  0  0
    2.5103   -6.2108    2.6000 C   0  0  0  0  0  0  0  0  0  0  0  0
    3.2662   -5.3110    3.0285 O   0  0  0  0  0  0  0  0  0  0  0  0
    3.1204   -7.4787    2.2063 C   0  0  0  0  0  0  0  0  0  0  0  0
    2.9867   -7.9572    0.8990 C   0  0  0  0  0  0  0  0  0  0  0  0
    3.4569   -9.2301    0.5869 C   0  0  0  0  0  0  0  0  0  0  0  0
    4.0987   -9.9881    1.5674 C   0  0  0  0  0  0  0  0  0  0  0  0
    4.7717  -11.6979    1.1273 Br  0  0  0  0  0  0  0  0  0  0  0  0
    4.2560   -9.4968    2.8653 C   0  0  0  0  0  0  0  0  0  0  0  0
    3.7624   -8.2357    3.1898 C   0  0  0  0  0  0  0  0  0  0  0  0
    1.2319   -1.3981    1.6738 C   0  0  0  0  0  0  0  0  0  0  0  0
    1.2230   -2.5776    0.6759 C   0  0  0  0  0  0  0  0  0  0  0  0
    2.0191   -3.5963    0.3713 C   0  0  0  0  0  0  0  0  0  0  0  0
    0.6481    1.0464   -0.5482 H   0  0  0  0  0  0  0  0  0  0  0  0
    0.7139   -0.6841   -0.8716 H   0  0  0  0  0  0  0  0  0  0  0  0
    2.1207    0.1263   -0.1682 H   0  0  0  0  0  0  0  0  0  0  0  0
   -1.2753   -0.0211    2.2594 H   0  0  0  0  0  0  0  0  0  0  0  0
   -1.2355    0.9659    0.8612 H   0  0  0  0  0  0  0  0  0  0  0  0
   -2.8193   -0.7979    0.3091 H   0  0  0  0  0  0  0  0  0  0  0  0
   -1.3676   -1.1436   -0.6177 H   0  0  0  0  0  0  0  0  0  0  0  0
   -1.7485   -3.2191    0.4542 H   0  0  0  0  0  0  0  0  0  0  0  0
   -0.6454   -2.4438    1.3989 H   0  0  0  0  0  0  0  0  0  0  0  0
   -1.5196   -3.2383    2.7438 H   0  0  0  0  0  0  0  0  0  0  0  0
   -1.6491   -1.7067    3.2363 H   0  0  0  0  0  0  0  0  0  0  0  0
   -3.6912   -2.9047    3.7225 H   0  0  0  0  0  0  0  0  0  0  0  0
   -4.0677   -1.9694    2.2404 H   0  0  0  0  0  0  0  0  0  0  0  0
   -4.7511   -4.2745    1.8551 H   0  0  0  0  0  0  0  0  0  0  0  0
   -3.3638   -4.1127    0.8660 H   0  0  0  0  0  0  0  0  0  0  0  0
   -1.2111   -4.1690    4.2250 H   0  0  0  0  0  0  0  0  0  0  0  0
    1.1587   -4.1423    3.6274 H   0  0  0  0  0  0  0  0  0  0  0  0
   -1.9062   -7.4154    1.5494 H   0  0  0  0  0  0  0  0  0  0  0  0
    2.4583   -7.3761    0.1480 H   0  0  0  0  0  0  0  0  0  0  0  0
    3.3025   -9.6259   -0.4130 H   0  0  0  0  0  0  0  0  0  0  0  0
    4.7505  -10.0905    3.6290 H   0  0  0  0  0  0  0  0  0  0  0  0
    3.8551   -7.8522    4.2040 H   0  0  0  0  0  0  0  0  0  0  0  0
    2.2720   -1.1680    1.9271 H   0  0  0  0  0  0  0  0  0  0  0  0
    0.7826   -1.6655    2.6476 H   0  0  0  0  0  0  0  0  0  0  0  0
    0.3554   -2.6572    0.0252 H   0  0  0  0  0  0  0  0  0  0  0  0
    1.5797   -4.3538   -0.2856 H   0  0  0  0  0  0  0  0  0  0  0  0
    3.0051   -3.7300    0.7730 H   0  0  0  0  0  0  0  0  0  0  0  0
  1  2  1  0  0  0  0
  1 29  1  0  0  0  0
  1 30  1  0  0  0  0
  1 31  1  0  0  0  0
  2  3  1  0  0  0  0
  2 26  1  0  0  0  0
  3  4  1  0  0  0  0
  3 32  1  0  0  0  0
  3 33  1  0  0  0  0
  4  5  1  0  0  0  0
  4 34  1  0  0  0  0
  4 35  1  0  0  0  0
  5  6  1  0  0  0  0
  5 36  1  0  0  0  0
  5 37  1  0  0  0  0
  6  7  1  0  0  0  0
  6 38  1  0  0  0  0
  6 39  1  0  0  0  0
  7  8  1  0  0  0  0
  7 40  1  0  0  0  0
  7 41  1  0  0  0  0
  8  9  1  0  0  0  0
  8 42  1  0  0  0  0
  8 43  1  0  0  0  0
  9 10  1  0  0  0  0
 10 11  2  0  0  0  0
 10 16  1  0  0  0  0
 11 12  1  0  0  0  0
 11 44  1  0  0  0  0
 12 13  2  0  0  0  0
 12 45  1  0  0  0  0
 13 14  1  0  0  0  0
 13 17  1  0  0  0  0
 14 15  1  0  0  0  0
 14 16  2  0  0  0  0
 16 46  1  0  0  0  0
 17 18  2  0  0  0  0
 17 19  1  0  0  0  0
 19 20  2  0  0  0  0
 19 25  1  0  0  0  0
 20 21  1  0  0  0  0
 20 47  1  0  0  0  0
 21 22  2  0  0  0  0
 21 48  1  0  0  0  0
 22 23  1  0  0  0  0
 22 24  1  0  0  0  0
 24 25  2  0  0  0  0
 24 49  1  0  0  0  0
 25 50  1  0  0  0  0
 26 27  1  0  0  0  0
 26 51  1  0  0  0  0
 26 52  1  0  0  0  0
 27 28  2  0  0  0  0
 27 53  1  0  0  0  0
 28 54  1  0  0  0  0
 28 55  1  0  0  0  0
M  END
>  <DRUGBANK_ID>
DB02016

>  <SECONDARY_ACCESSION_NUMBERS>
EXPT02749

>  <COMMON_NAME>
R048-8071

>  <CAS_NUMBER>
161582-11-2

>  <UNII>
YDR69X9Q9M

$$$$
