2475
 OpenBabel10282417173D

 40 40  0  0  1  0  0  0  0  0999 V2000
   -2.4989   -0.0806    0.0529 Cl  0  0  0  0  0  0  0  0  0  0  0  0
    1.6453    2.8116    1.7014 O   0  0  0  0  0  0  0  0  0  0  0  0
   -0.7877    2.2982   -0.0608 O   0  0  0  0  0  0  0  0  0  0  0  0
    0.5482    6.2660    1.2228 N   0  0  0  0  0  0  0  0  0  0  0  0
    1.2866    7.5377    1.2144 C   0  0  0  0  0  0  0  0  0  0  0  0
    1.4167    5.0947    1.2815 C   0  0  0  0  0  0  0  0  0  0  0  0
    0.6470    3.7805    1.3570 C   0  0  3  0  0  0  0  0  0  0  0  0
    2.1582    7.6566   -0.0470 C   0  0  0  0  0  0  0  0  0  0  0  0
    0.2264    8.6495    1.1950 C   0  0  0  0  0  0  0  0  0  0  0  0
    2.1377    7.6857    2.4856 C   0  0  0  0  0  0  0  0  0  0  0  0
   -0.0767    3.5312    0.0119 C   0  0  0  0  0  0  0  0  0  0  0  0
   -0.0705    1.1403   -0.2012 C   0  0  0  0  0  0  0  0  0  0  0  0
    1.3192    1.0951   -0.3643 C   0  0  0  0  0  0  0  0  0  0  0  0
   -0.7746   -0.0568   -0.0695 C   0  0  0  0  0  0  0  0  0  0  0  0
    2.0245   -0.0982   -0.1787 C   0  0  0  0  0  0  0  0  0  0  0  0
    1.3107   -1.2847   -0.0318 C   0  0  0  0  0  0  0  0  0  0  0  0
   -0.0867   -1.2709   -0.0100 C   0  0  0  0  0  0  0  0  0  0  0  0
    3.5231   -0.0718   -0.0866 C   0  0  0  0  0  0  0  0  0  0  0  0
    1.1816    1.9827    1.9113 H   0  0  0  0  0  0  0  0  0  0  0  0
   -0.0489    6.2257    0.3977 H   0  0  0  0  0  0  0  0  0  0  0  0
    2.0715    5.1284    2.1574 H   0  0  0  0  0  0  0  0  0  0  0  0
    2.0803    5.0444    0.4088 H   0  0  0  0  0  0  0  0  0  0  0  0
   -0.0712    3.7873    2.1827 H   0  0  0  0  0  0  0  0  0  0  0  0
    1.5556    7.5392   -0.9561 H   0  0  0  0  0  0  0  0  0  0  0  0
    2.6504    8.6325   -0.0926 H   0  0  0  0  0  0  0  0  0  0  0  0
    2.9517    6.9022   -0.0770 H   0  0  0  0  0  0  0  0  0  0  0  0
   -0.4272    8.5945    2.0739 H   0  0  0  0  0  0  0  0  0  0  0  0
    0.6997    9.6370    1.1928 H   0  0  0  0  0  0  0  0  0  0  0  0
   -0.4098    8.5843    0.3038 H   0  0  0  0  0  0  0  0  0  0  0  0
    1.5210    7.5737    3.3859 H   0  0  0  0  0  0  0  0  0  0  0  0
    2.9419    6.9441    2.5397 H   0  0  0  0  0  0  0  0  0  0  0  0
    2.6195    8.6665    2.5241 H   0  0  0  0  0  0  0  0  0  0  0  0
    0.5786    3.6478   -0.8603 H   0  0  0  0  0  0  0  0  0  0  0  0
   -0.8466    4.3042   -0.1042 H   0  0  0  0  0  0  0  0  0  0  0  0
    1.8997    1.9998   -0.5148 H   0  0  0  0  0  0  0  0  0  0  0  0
    1.8379   -2.2304    0.0751 H   0  0  0  0  0  0  0  0  0  0  0  0
   -0.6346   -2.2012    0.0895 H   0  0  0  0  0  0  0  0  0  0  0  0
    3.8530   -0.5640    0.8355 H   0  0  0  0  0  0  0  0  0  0  0  0
    3.9647   -0.5731   -0.9501 H   0  0  0  0  0  0  0  0  0  0  0  0
    3.9067    0.9550   -0.0489 H   0  0  0  0  0  0  0  0  0  0  0  0
  1 14  1  0  0  0  0
  2  7  1  0  0  0  0
  2 19  1  0  0  0  0
  3 11  1  0  0  0  0
  3 12  1  0  0  0  0
  4  5  1  0  0  0  0
  4  6  1  0  0  0  0
  4 20  1  0  0  0  0
  5  8  1  0  0  0  0
  5  9  1  0  0  0  0
  5 10  1  0  0  0  0
  6  7  1  0  0  0  0
  6 21  1  0  0  0  0
  6 22  1  0  0  0  0
  7 11  1  0  0  0  0
  7 23  1  0  0  0  0
  8 24  1  0  0  0  0
  8 25  1  0  0  0  0
  8 26  1  0  0  0  0
  9 27  1  0  0  0  0
  9 28  1  0  0  0  0
  9 29  1  0  0  0  0
 10 30  1  0  0  0  0
 10 31  1  0  0  0  0
 10 32  1  0  0  0  0
 11 33  1  0  0  0  0
 11 34  1  0  0  0  0
 12 13  1  0  0  0  0
 12 14  2  0  0  0  0
 13 15  2  0  0  0  0
 13 35  1  0  0  0  0
 14 17  1  0  0  0  0
 15 16  1  0  0  0  0
 15 18  1  0  0  0  0
 16 17  2  0  0  0  0
 16 36  1  0  0  0  0
 17 37  1  0  0  0  0
 18 38  1  0  0  0  0
 18 39  1  0  0  0  0
 18 40  1  0  0  0  0
M  END
>  <DRUGBANK_ID>
DB08808

>  <COMMON_NAME>
Bupranolol

>  <CAS_NUMBER>
14556-46-8

>  <UNII>
858YGI5PIT

>  <SYNONYMS>
Bupranolol; Bupranololum

$$$$
