
 OpenBabel10282417223D

 68 72  0  0  0  0  0  0  0  0999 V2000
   -1.6689    0.9080    0.9260 C   0  0  0  0  0  0  0  0  0  0  0  0
   -2.7748   -0.0395    0.6746 C   0  0  0  0  0  0  0  0  0  0  0  0
   -2.5764   -1.3853    0.3703 C   0  0  0  0  0  0  0  0  0  0  0  0
   -1.3641   -1.8909    0.7208 C   0  0  0  0  0  0  0  0  0  0  0  0
   -0.3739    0.3732    1.0084 C   0  0  0  0  0  0  0  0  0  0  0  0
   -0.3523   -1.0082    1.0505 C   0  0  0  0  0  0  0  0  0  0  0  0
    0.8317   -1.5950    1.2131 O   0  0  0  0  0  0  0  0  0  0  0  0
    1.1343    0.7203    0.9267 C   0  0  1  0  0  0  0  0  0  0  0  0
    1.9103   -0.9064    0.5537 C   0  0  2  0  0  0  0  0  0  0  0  0
    2.0023   -0.8051   -1.1442 C   0  0  1  0  0  0  0  0  0  0  0  0
    1.3739    0.5839   -1.5119 C   0  0  2  0  0  0  0  0  0  0  0  0
    1.8263    1.3820   -0.2815 C   0  0  1  0  0  0  0  0  0  0  0  0
    1.9196    2.7994   -0.4047 O   0  0  0  0  0  0  0  0  0  0  0  0
   -0.1989    0.2794   -1.7595 C   0  0  0  0  0  0  0  0  0  0  0  0
   -0.5867   -0.8596   -1.8619 O   0  0  0  0  0  0  0  0  0  0  0  0
   -1.1159    1.3302   -1.8823 N   0  0  0  0  0  0  0  0  0  0  0  0
   -0.6906    2.6231   -2.2588 C   0  0  0  0  0  0  0  0  0  0  0  0
   -2.5894    1.1510   -1.9498 C   0  0  0  0  0  0  0  0  0  0  0  0
    3.3107   -1.1862   -1.9177 C   0  0  0  0  0  0  0  0  0  0  0  0
    2.7810   -2.2638    0.8931 C   0  0  0  0  0  0  0  0  0  0  0  0
    1.3070    1.6206    2.0135 O   0  0  0  0  0  0  0  0  0  0  0  0
   -2.1511    2.1917    0.7833 O   0  0  0  0  0  0  0  0  0  0  0  0
   -3.3710   -2.2320   -0.3522 O   0  0  0  0  0  0  0  0  0  0  0  0
   -4.5874   -1.7429   -0.9038 C   0  0  0  0  0  0  0  0  0  0  0  0
    3.4120   -2.5438   -2.3243 C   0  0  0  0  0  0  0  0  0  0  0  0
    4.4970   -3.0531   -3.0461 C   0  0  0  0  0  0  0  0  0  0  0  0
    5.4842   -2.1893   -3.4855 C   0  0  0  0  0  0  0  0  0  0  0  0
    5.3735   -0.8284   -3.1894 C   0  0  0  0  0  0  0  0  0  0  0  0
    4.3306   -0.3329   -2.3665 C   0  0  0  0  0  0  0  0  0  0  0  0
    2.1468   -3.5832    0.9537 C   0  0  0  0  0  0  0  0  0  0  0  0
    2.8031   -4.8175    1.2408 C   0  0  0  0  0  0  0  0  0  0  0  0
    4.1817   -4.8712    1.3218 C   0  0  0  0  0  0  0  0  0  0  0  0
    4.8508   -3.6879    1.0146 C   0  0  0  0  0  0  0  0  0  0  0  0
    4.1761   -2.4101    0.8521 C   0  0  0  0  0  0  0  0  0  0  0  0
    4.7382   -6.0815    1.6525 O   0  0  0  0  0  0  0  0  0  0  0  0
    6.1540   -6.1460    1.8494 C   0  0  0  0  0  0  0  0  0  0  0  0
   -1.4479    3.4191    0.8710 C   0  0  0  0  0  0  0  0  0  0  0  0
   -3.7759    0.3413    0.4769 H   0  0  0  0  0  0  0  0  0  0  0  0
   -1.0785   -2.9176    0.5233 H   0  0  0  0  0  0  0  0  0  0  0  0
    1.3487   -1.5454   -1.5849 H   0  0  0  0  0  0  0  0  0  0  0  0
    1.7630    1.0227   -2.4372 H   0  0  0  0  0  0  0  0  0  0  0  0
    2.8864    1.1473   -0.0651 H   0  0  0  0  0  0  0  0  0  0  0  0
    2.5584    2.9906   -1.1261 H   0  0  0  0  0  0  0  0  0  0  0  0
   -1.0501    2.7437   -3.2770 H   0  0  0  0  0  0  0  0  0  0  0  0
   -1.1619    3.3584   -1.6168 H   0  0  0  0  0  0  0  0  0  0  0  0
    0.3855    2.7205   -2.2333 H   0  0  0  0  0  0  0  0  0  0  0  0
   -2.8805    0.1452   -2.2333 H   0  0  0  0  0  0  0  0  0  0  0  0
   -3.1011    1.4037   -1.0260 H   0  0  0  0  0  0  0  0  0  0  0  0
   -3.0529    1.9269   -2.5598 H   0  0  0  0  0  0  0  0  0  0  0  0
    0.6963    2.3715    1.7981 H   0  0  0  0  0  0  0  0  0  0  0  0
   -5.1743   -1.2428   -0.1354 H   0  0  0  0  0  0  0  0  0  0  0  0
   -4.4424   -1.0908   -1.7714 H   0  0  0  0  0  0  0  0  0  0  0  0
   -5.1767   -2.5936   -1.2669 H   0  0  0  0  0  0  0  0  0  0  0  0
    2.6038   -3.2358   -2.0892 H   0  0  0  0  0  0  0  0  0  0  0  0
    4.5399   -4.1131   -3.2896 H   0  0  0  0  0  0  0  0  0  0  0  0
    6.3137   -2.5722   -4.0775 H   0  0  0  0  0  0  0  0  0  0  0  0
    6.0981   -0.1471   -3.6345 H   0  0  0  0  0  0  0  0  0  0  0  0
    4.3351    0.7289   -2.1421 H   0  0  0  0  0  0  0  0  0  0  0  0
    1.0786   -3.7008    0.7465 H   0  0  0  0  0  0  0  0  0  0  0  0
    2.2197   -5.7304    1.3780 H   0  0  0  0  0  0  0  0  0  0  0  0
    5.9241   -3.7320    0.8508 H   0  0  0  0  0  0  0  0  0  0  0  0
    4.8081   -1.5724    0.5840 H   0  0  0  0  0  0  0  0  0  0  0  0
    6.6720   -6.0819    0.8879 H   0  0  0  0  0  0  0  0  0  0  0  0
    6.5142   -5.3781    2.5426 H   0  0  0  0  0  0  0  0  0  0  0  0
    6.4178   -7.1186    2.2906 H   0  0  0  0  0  0  0  0  0  0  0  0
   -1.3753    3.6913    1.9192 H   0  0  0  0  0  0  0  0  0  0  0  0
   -0.4761    3.4269    0.3783 H   0  0  0  0  0  0  0  0  0  0  0  0
   -2.0357    4.2213    0.3805 H   0  0  0  0  0  0  0  0  0  0  0  0
  1  2  2  0  0  0  0
  1 22  1  0  0  0  0
  2  3  1  0  0  0  0
  2 38  1  0  0  0  0
  3  4  2  0  0  0  0
  3 23  1  0  0  0  0
  4  6  1  0  0  0  0
  4 39  1  0  0  0  0
  5  1  1  0  0  0  0
  5  6  2  0  0  0  0
  6  7  1  0  0  0  0
  7  9  1  0  0  0  0
  8  5  1  0  0  0  0
  8  9  1  0  0  0  0
  8 21  1  1  0  0  0
  9 10  1  0  0  0  0
  9 20  1  1  0  0  0
 10 11  1  0  0  0  0
 10 19  1  0  0  0  0
 10 40  1  6  0  0  0
 11 12  1  0  0  0  0
 11 41  1  6  0  0  0
 11 14  1  0  0  0  0
 12  8  1  0  0  0  0
 12 13  1  0  0  0  0
 12 42  1  1  0  0  0
 13 43  1  0  0  0  0
 14 15  2  0  0  0  0
 14 16  1  0  0  0  0
 16 17  1  0  0  0  0
 16 18  1  0  0  0  0
 17 44  1  0  0  0  0
 17 45  1  0  0  0  0
 17 46  1  0  0  0  0
 18 47  1  0  0  0  0
 18 48  1  0  0  0  0
 18 49  1  0  0  0  0
 19 25  2  0  0  0  0
 20 30  2  0  0  0  0
 21 50  1  0  0  0  0
 22 37  1  0  0  0  0
 23 24  1  0  0  0  0
 24 51  1  0  0  0  0
 24 52  1  0  0  0  0
 24 53  1  0  0  0  0
 25 26  1  0  0  0  0
 25 54  1  0  0  0  0
 26 27  2  0  0  0  0
 26 55  1  0  0  0  0
 27 28  1  0  0  0  0
 27 56  1  0  0  0  0
 28 29  2  0  0  0  0
 28 57  1  0  0  0  0
 29 19  1  0  0  0  0
 29 58  1  0  0  0  0
 30 31  1  0  0  0  0
 30 59  1  0  0  0  0
 31 32  2  0  0  0  0
 31 60  1  0  0  0  0
 32 33  1  0  0  0  0
 32 35  1  0  0  0  0
 33 34  2  0  0  0  0
 33 61  1  0  0  0  0
 34 20  1  0  0  0  0
 34 62  1  0  0  0  0
 35 36  1  0  0  0  0
 36 63  1  0  0  0  0
 36 64  1  0  0  0  0
 36 65  1  0  0  0  0
 37 66  1  0  0  0  0
 37 67  1  0  0  0  0
 37 68  1  0  0  0  0
M  END
>  <DRUGBANK_ID>
DB15495

>  <COMMON_NAME>
Rocaglamide

>  <CAS_NUMBER>
84573-16-0

>  <UNII>
FRG4N852F7

$$$$
