
 OpenBabel10282417183D

 19 19  0  0  0  0  0  0  0  0999 V2000
    1.3440   -0.2250    0.0360 C   0  0  0  0  0  0  0  0  0  0  0  0
   -0.5090    1.2150    0.0750 C   0  0  0  0  0  0  0  0  0  0  0  0
    0.5020   -1.2510   -0.0040 C   0  0  0  0  0  0  0  0  0  0  0  0
   -1.3730    0.2230   -0.0410 C   0  0  0  0  0  0  0  0  0  0  0  0
    0.8920    1.0800   -0.0700 C   0  0  0  0  0  0  0  0  0  0  0  0
   -0.8560   -1.0420    0.0030 C   0  0  0  0  0  0  0  0  0  0  0  0
    2.0788    2.5938   -0.3900 As  0  0  0  0  0  0  0  0  0  0  0  0
   -1.7661   -2.1950    0.0586 N   0  0  0  0  0  0  0  0  0  0  0  0
    1.5977    3.4319   -1.9676 O   0  0  0  0  0  0  0  0  0  0  0  0
    1.9408    3.7927    1.0121 O   0  0  0  0  0  0  0  0  0  0  0  0
    3.6406    2.0561   -0.5048 O   0  0  0  0  0  0  0  0  0  0  0  0
   -2.9795   -2.0186    0.0653 O   0  0  0  0  0  0  0  0  0  0  0  0
   -1.3119   -3.3333    0.0983 O   0  0  0  0  0  0  0  0  0  0  0  0
    2.3915   -0.4099    0.1523 H   0  0  0  0  0  0  0  0  0  0  0  0
   -0.8953    2.1885    0.2939 H   0  0  0  0  0  0  0  0  0  0  0  0
    0.8845   -2.2496   -0.0420 H   0  0  0  0  0  0  0  0  0  0  0  0
   -2.4212    0.3997   -0.1629 H   0  0  0  0  0  0  0  0  0  0  0  0
    1.6722    2.7838   -2.7255 H   0  0  0  0  0  0  0  0  0  0  0  0
    0.9976    4.1175    1.0814 H   0  0  0  0  0  0  0  0  0  0  0  0
  1 14  1  0  0  0  0
  2 15  1  0  0  0  0
  3  1  1  0  0  0  0
  3 16  1  0  0  0  0
  4  2  2  0  0  0  0
  4 17  1  0  0  0  0
  5  1  2  0  0  0  0
  5  2  1  0  0  0  0
  6  3  2  0  0  0  0
  6  4  1  0  0  0  0
  7  5  1  0  0  0  0
  8  6  1  0  0  0  0
  9  7  1  0  0  0  0
  9 18  1  0  0  0  0
 10  7  1  0  0  0  0
 10 19  1  0  0  0  0
 11  7  2  0  0  0  0
 12  8  2  0  0  0  0
 13  8  2  0  0  0  0
M  END
>  <DRUGBANK_ID>
DB11437

>  <COMMON_NAME>
Nitarsone

>  <CAS_NUMBER>
98-72-6

>  <UNII>
JP2EN8WORU

>  <SYNONYMS>
(p-nitrophenyl)arsonic acid; 4-nitrobenzenearsonic acid; 4-nitrophenylarsonic acid; Nitarson; Nitarsone; Nitarsonum; p-nitrobenzenearsonic acid; p-nitrophenylarsonic acid

$$$$
