DRX
 OpenBabel10282417163D

 43 46  0  0  0  0  0  0  0  0999 V2000
    0.1042   -0.6667    0.0105 C   0  0  0  0  0  0  0  0  0  0  0  0
   -1.0964   -1.3628    0.3501 C   0  0  0  0  0  0  0  0  0  0  0  0
   -2.3183   -0.6982    0.2368 C   0  0  0  0  0  0  0  0  0  0  0  0
   -3.7734   -1.6057    0.0818 Cl  0  0  0  0  0  0  0  0  0  0  0  0
   -2.3602    0.6827    0.1306 C   0  0  0  0  0  0  0  0  0  0  0  0
   -1.1860    1.4198    0.0082 C   0  0  0  0  0  0  0  0  0  0  0  0
   -0.0281    0.6894   -0.2805 C   0  0  0  0  0  0  0  0  0  0  0  0
    1.2876    1.2197   -1.2492 S   0  0  0  0  0  0  0  0  0  0  0  0
    2.2606   -0.0822   -0.7480 C   0  0  0  0  0  0  0  0  0  0  0  0
    1.5020   -1.1057   -0.2252 C   0  0  0  0  0  0  0  0  0  0  0  0
    2.1093   -2.4893   -0.0030 C   0  0  2  0  0  0  0  0  0  0  0  0
    1.5099   -3.3581   -1.4979 P   0  0  0  0  0  0  0  0  0  0  0  0
   -0.0146   -2.8180   -1.4822 O   0  0  0  0  0  0  0  0  0  0  0  0
    1.6085   -4.7425   -0.8708 O   0  0  0  0  0  0  0  0  0  0  0  0
    0.9433   -4.1793   -2.9112 O   0  0  0  0  0  0  0  0  0  0  0  0
    1.6117   -3.0592    1.3685 C   0  0  0  0  0  0  0  0  0  0  0  0
    0.8202   -4.0009    1.4802 O   0  0  0  0  0  0  0  0  0  0  0  0
    2.0897   -2.5563    2.5750 N   0  0  0  0  0  0  0  0  0  0  0  0
    2.8675   -1.4036    2.7964 C   0  0  0  0  0  0  0  0  0  0  0  0
    2.5428   -0.1770    2.2362 C   0  0  0  0  0  0  0  0  0  0  0  0
    3.4411    0.9198    2.0758 C   0  0  0  0  0  0  0  0  0  0  0  0
    3.1739    2.1737    1.4334 C   0  0  0  0  0  0  0  0  0  0  0  0
    4.0810    3.2334    1.3153 C   0  0  0  0  0  0  0  0  0  0  0  0
    5.2860    2.7525    0.9430 C   0  0  0  0  0  0  0  0  0  0  0  0
    5.6575    1.7508    1.8886 C   0  0  0  0  0  0  0  0  0  0  0  0
    4.7273    0.7785    2.5424 C   0  0  0  0  0  0  0  0  0  0  0  0
    4.8236   -0.2523    3.5765 C   0  0  0  0  0  0  0  0  0  0  0  0
    3.9337   -1.3653    3.6673 C   0  0  0  0  0  0  0  0  0  0  0  0
    3.2040   -2.4802   -0.0072 H   0  0  0  0  0  0  0  0  0  0  0  0
   -1.1061   -2.4525    0.4391 H   0  0  0  0  0  0  0  0  0  0  0  0
   -3.3113    1.1999    0.0460 H   0  0  0  0  0  0  0  0  0  0  0  0
   -1.2078    2.4990   -0.0985 H   0  0  0  0  0  0  0  0  0  0  0  0
    3.3405   -0.0679   -0.8460 H   0  0  0  0  0  0  0  0  0  0  0  0
   -0.0971   -1.9476   -1.9267 H   0  0  0  0  0  0  0  0  0  0  0  0
    0.5892   -5.0159   -2.5379 H   0  0  0  0  0  0  0  0  0  0  0  0
    1.8813   -3.1888    3.3447 H   0  0  0  0  0  0  0  0  0  0  0  0
    1.5077   -0.0418    1.9410 H   0  0  0  0  0  0  0  0  0  0  0  0
    2.6238    2.0488    0.5155 H   0  0  0  0  0  0  0  0  0  0  0  0
    4.2392    3.8631    2.2051 H   0  0  0  0  0  0  0  0  0  0  0  0
    5.2259    2.6078   -0.1620 H   0  0  0  0  0  0  0  0  0  0  0  0
    6.5233    2.0208    2.4972 H   0  0  0  0  0  0  0  0  0  0  0  0
    5.6221   -0.2059    4.3176 H   0  0  0  0  0  0  0  0  0  0  0  0
    4.1270   -2.1987    4.3414 H   0  0  0  0  0  0  0  0  0  0  0  0
  1 10  1  0  0  0  0
  1  7  2  0  0  0  0
  1  2  1  0  0  0  0
  2  3  2  0  0  0  0
  2 30  1  0  0  0  0
  3  5  1  0  0  0  0
  3  4  1  0  0  0  0
  5  6  2  0  0  0  0
  5 31  1  0  0  0  0
  6  7  1  0  0  0  0
  6 32  1  0  0  0  0
  7  8  1  0  0  0  0
  8  9  1  0  0  0  0
  9 10  2  0  0  0  0
  9 33  1  0  0  0  0
 10 11  1  0  0  0  0
 11 16  1  0  0  0  0
 11 12  1  0  0  0  0
 11 29  1  6  0  0  0
 12 14  2  0  0  0  0
 12 13  1  0  0  0  0
 12 15  1  0  0  0  0
 13 34  1  0  0  0  0
 15 35  1  0  0  0  0
 16 17  2  0  0  0  0
 16 18  1  0  0  0  0
 18 19  1  0  0  0  0
 18 36  1  0  0  0  0
 19 28  2  0  0  0  0
 19 20  1  0  0  0  0
 20 21  2  0  0  0  0
 20 37  1  0  0  0  0
 21 26  1  0  0  0  0
 21 22  1  0  0  0  0
 22 23  2  0  0  0  0
 22 38  1  0  0  0  0
 23 24  1  0  0  0  0
 23 39  1  0  0  0  0
 24 25  2  0  0  0  0
 24 40  1  0  0  0  0
 25 26  1  0  0  0  0
 25 41  1  0  0  0  0
 26 27  2  0  0  0  0
 27 28  1  0  0  0  0
 27 42  1  0  0  0  0
 28 43  1  0  0  0  0
M  END
>  <DRUGBANK_ID>
DB07680

>  <COMMON_NAME>
[(1S)-1-(5-CHLORO-1-BENZOTHIEN-3-YL)-2-(2-NAPHTHYLAMINO)-2-OXOETHYL]PHOSPHONIC ACID

$$$$
