
 OpenBabel10282417133D

 16 17  0  0  0  0  0  0  0  0999 V2000
   -2.9720    0.0541    0.7863 O   0  0  0  0  0  0  0  0  0  0  0  0
   -1.8909    0.0380    0.2256 C   0  0  0  0  0  0  0  0  0  0  0  0
   -1.0702    1.1305    0.0195 N   0  0  0  0  0  0  0  0  0  0  0  0
    1.2932    1.0941   -0.2752 N   0  0  0  0  0  0  0  0  0  0  0  0
    1.8880   -0.0426    0.2320 C   0  0  0  0  0  0  0  0  0  0  0  0
    2.9711   -0.0851    0.7870 O   0  0  0  0  0  0  0  0  0  0  0  0
    1.0617   -1.1225   -0.0107 N   0  0  0  0  0  0  0  0  0  0  0  0
   -1.2948   -1.0762   -0.3270 N   0  0  0  0  0  0  0  0  0  0  0  0
    0.0229    0.7923   -0.8381 C   0  0  1  0  0  0  0  0  0  0  0  0
   -0.1054    1.2707   -1.8126 H   0  0  0  0  0  0  0  0  0  0  0  0
   -0.0211   -0.7517   -0.8668 C   0  0  1  0  0  0  0  0  0  0  0  0
    0.1189   -1.1931   -1.8570 H   0  0  0  0  0  0  0  0  0  0  0  0
   -1.3167    2.0473    0.3597 H   0  0  0  0  0  0  0  0  0  0  0  0
    1.7294    2.0012   -0.2019 H   0  0  0  0  0  0  0  0  0  0  0  0
    1.2895   -2.0484    0.3177 H   0  0  0  0  0  0  0  0  0  0  0  0
   -1.7265   -1.9874   -0.2870 H   0  0  0  0  0  0  0  0  0  0  0  0
  1  2  2  0  0  0  0
  2  3  1  0  0  0  0
  2  8  1  0  0  0  0
  3  9  1  0  0  0  0
  3 13  1  0  0  0  0
  4  5  1  0  0  0  0
  4 14  1  0  0  0  0
  5  6  2  0  0  0  0
  5  7  1  0  0  0  0
  7 11  1  0  0  0  0
  7 15  1  0  0  0  0
  8 16  1  0  0  0  0
  9  4  1  0  0  0  0
  9 11  1  0  0  0  0
  9 10  1  6  0  0  0
 11  8  1  0  0  0  0
 11 12  1  6  0  0  0
M  END
>  <DRUGBANK_ID>
DB03533

>  <SECONDARY_ACCESSION_NUMBERS>
EXPT01607

>  <COMMON_NAME>
Acetyleneurea

>  <CAS_NUMBER>
496-46-8

>  <UNII>
U9H2W4OS13

>  <SYNONYMS>
cis-glycoluril; Glycoluril; Glyoxaldiureine; Glyoxaldiurene

$$$$
