205
 OpenBabel10282417163D

 27 29  0  0  0  0  0  0  0  0999 V2000
    1.0252    1.4069    0.0014 C   0  0  0  0  0  0  0  0  0  0  0  0
   -0.2021    0.7404    0.0041 C   0  0  0  0  0  0  0  0  0  0  0  0
    2.1965    0.6316    0.0026 C   0  0  0  0  0  0  0  0  0  0  0  0
    2.1575   -0.7813   -0.0003 C   0  0  0  0  0  0  0  0  0  0  0  0
    0.9187   -1.4530   -0.0003 C   0  0  0  0  0  0  0  0  0  0  0  0
   -0.2200   -0.6435    0.0017 C   0  0  0  0  0  0  0  0  0  0  0  0
   -4.4208    0.7096   -1.0303 C   0  0  0  0  0  0  0  0  0  0  0  0
   -3.6911    0.0764   -0.0049 C   0  0  0  0  0  0  0  0  0  0  0  0
   -2.2341    0.1461    0.0133 C   0  0  0  0  0  0  0  0  0  0  0  0
   -5.8231    0.7339   -1.0172 C   0  0  0  0  0  0  0  0  0  0  0  0
   -5.8243   -0.4925    1.0488 C   0  0  0  0  0  0  0  0  0  0  0  0
   -6.5256    0.1362    0.0235 C   0  0  0  0  0  0  0  0  0  0  0  0
   -4.4202   -0.5260    1.0358 C   0  0  0  0  0  0  0  0  0  0  0  0
    3.4786   -1.4889   -0.0056 C   0  0  0  0  0  0  0  0  0  0  0  0
    3.4528   -2.8358   -0.0135 O   0  0  0  0  0  0  0  0  0  0  0  0
    4.5372   -0.8763   -0.0053 O   0  0  0  0  0  0  0  0  0  0  0  0
   -1.5338   -1.0397    0.0015 O   0  0  0  0  0  0  0  0  0  0  0  0
   -1.4781    1.2275    0.0116 N   0  0  0  0  0  0  0  0  0  0  0  0
   -3.6496   -1.2949    2.3833 Cl  0  0  0  0  0  0  0  0  0  0  0  0
   -3.6507    1.4853   -2.3762 Cl  0  0  0  0  0  0  0  0  0  0  0  0
    1.0595    2.4911    0.0004 H   0  0  0  0  0  0  0  0  0  0  0  0
    3.1554    1.1538    0.0068 H   0  0  0  0  0  0  0  0  0  0  0  0
    0.8073   -2.5256    0.0007 H   0  0  0  0  0  0  0  0  0  0  0  0
   -6.3717    1.2279   -1.8172 H   0  0  0  0  0  0  0  0  0  0  0  0
   -6.3792   -0.9451    1.8689 H   0  0  0  0  0  0  0  0  0  0  0  0
   -7.6132    0.1656    0.0372 H   0  0  0  0  0  0  0  0  0  0  0  0
    2.5965   -3.2911   -0.0140 H   0  0  0  0  0  0  0  0  0  0  0  0
  1  2  1  0  0  0  0
  1  3  2  0  0  0  0
  1 21  1  0  0  0  0
  2  6  2  0  0  0  0
  2 18  1  0  0  0  0
  3  4  1  0  0  0  0
  3 22  1  0  0  0  0
  4  5  2  0  0  0  0
  4 14  1  0  0  0  0
  5  6  1  0  0  0  0
  5 23  1  0  0  0  0
  6 17  1  0  0  0  0
  7  8  1  0  0  0  0
  7 10  2  0  0  0  0
  7 20  1  0  0  0  0
  8  9  1  0  0  0  0
  8 13  2  0  0  0  0
  9 17  1  0  0  0  0
  9 18  2  0  0  0  0
 10 12  1  0  0  0  0
 10 24  1  0  0  0  0
 11 12  2  0  0  0  0
 11 13  1  0  0  0  0
 11 25  1  0  0  0  0
 12 26  1  0  0  0  0
 13 19  1  0  0  0  0
 14 15  1  0  0  0  0
 14 16  2  0  0  0  0
 15 27  1  0  0  0  0
M  END
>  <DRUGBANK_ID>
DB06907

>  <COMMON_NAME>
2-(2,6-DICHLOROPHENYL)-1,3-BENZOXAZOLE-6-CARBOXYLIC ACID

$$$$
