
 OpenBabel10282417243D

 30 30  0  0  1  0  0  0  0  0999 V2000
    0.8235   -0.3433    0.1981 C   0  0  0  0  0  0  0  0  0  0  0  0
    0.4257   -1.0798   -1.0525 N   0  3  0  0  0  0  0  0  0  0  0  0
    0.9847   -2.4863   -0.8804 C   0  0  0  0  0  0  0  0  0  0  0  0
   -1.0735   -1.0664   -1.1392 C   0  0  0  0  0  0  0  0  0  0  0  0
    1.1183   -0.4612   -2.4075 C   0  0  1  0  0  0  0  0  0  0  0  0
    0.7181    1.0118   -2.7099 C   0  0  0  0  0  0  0  0  0  0  0  0
    1.1311    2.1182   -1.7769 C   0  0  0  0  0  0  0  0  0  0  0  0
    0.6928    3.3930   -1.7147 C   0  0  0  0  0  0  0  0  0  0  0  0
    1.1297    3.9559   -0.5353 N   0  0  0  0  0  0  0  0  0  0  0  0
    1.8769    3.0120    0.1695 C   0  0  0  0  0  0  0  0  0  0  0  0
    2.4232    3.0810    1.7200 S   0  0  0  0  0  0  0  0  0  0  0  0
    1.9721    1.9398   -0.7034 N   0  0  0  0  0  0  0  0  0  0  0  0
    2.6795   -0.5855   -2.5310 C   0  0  0  0  0  0  0  0  0  0  0  0
    3.0687   -1.3798   -3.4346 O   0  5  0  0  0  0  0  0  0  0  0  0
    3.3340   -0.0077   -1.6226 O   0  0  0  0  0  0  0  0  0  0  0  0
    0.4070   -0.8430    1.0745 H   0  0  0  0  0  0  0  0  0  0  0  0
    0.3501    0.6333    0.1614 H   0  0  0  0  0  0  0  0  0  0  0  0
    1.9078   -0.3685    0.2907 H   0  0  0  0  0  0  0  0  0  0  0  0
    0.6319   -2.8646    0.0847 H   0  0  0  0  0  0  0  0  0  0  0  0
    0.6290   -3.1161   -1.6963 H   0  0  0  0  0  0  0  0  0  0  0  0
    2.0774   -2.4361   -0.8613 H   0  0  0  0  0  0  0  0  0  0  0  0
   -1.4106   -0.0375   -1.2934 H   0  0  0  0  0  0  0  0  0  0  0  0
   -1.3977   -1.7090   -1.9587 H   0  0  0  0  0  0  0  0  0  0  0  0
   -1.4715   -1.4182   -0.1824 H   0  0  0  0  0  0  0  0  0  0  0  0
    0.6857   -1.0940   -3.2001 H   0  0  0  0  0  0  0  0  0  0  0  0
    1.0568    1.2646   -3.7228 H   0  0  0  0  0  0  0  0  0  0  0  0
   -0.3790    1.0357   -2.7844 H   0  0  0  0  0  0  0  0  0  0  0  0
    0.0721    3.9198   -2.4158 H   0  0  0  0  0  0  0  0  0  0  0  0
    0.9480    4.8925   -0.2023 H   0  0  0  0  0  0  0  0  0  0  0  0
    2.6311    1.1547   -0.6109 H   0  0  0  0  0  0  0  0  0  0  0  0
  1  2  1  0  0  0  0
  1 16  1  0  0  0  0
  1 17  1  0  0  0  0
  1 18  1  0  0  0  0
  2  3  1  0  0  0  0
  2  4  1  0  0  0  0
  3 19  1  0  0  0  0
  3 20  1  0  0  0  0
  3 21  1  0  0  0  0
  4 22  1  0  0  0  0
  4 23  1  0  0  0  0
  4 24  1  0  0  0  0
  5  2  1  0  0  0  0
  5  6  1  0  0  0  0
  5 13  1  0  0  0  0
  5 25  1  6  0  0  0
  6  7  1  0  0  0  0
  6 26  1  0  0  0  0
  6 27  1  0  0  0  0
  7  8  2  0  0  0  0
  7 12  1  0  0  0  0
  8  9  1  0  0  0  0
  8 28  1  0  0  0  0
  9 10  1  0  0  0  0
  9 29  1  0  0  0  0
 10 11  2  0  0  0  0
 10 12  1  0  0  0  0
 12 30  1  0  0  0  0
 13 14  1  0  0  0  0
 13 15  2  0  0  0  0
M  CHG  2   2   1  14  -1
M  END
>  <DRUGBANK_ID>
DB17614

>  <COMMON_NAME>
Ergothioneine

>  <CAS_NUMBER>
497-30-3

>  <UNII>
BDZ3DQM98W

>  <SYNONYMS>
L-(+)-ergothioneine; L-ergothioneine; L(+)-ergothioneine; Sympectothion; Thiasine; Thioneine

$$$$
