
 OpenBabel10282417133D

 17 16  0  0  1  0  0  0  0  0999 V2000
    1.0873    0.0458   -0.0515 C   0  0  0  0  0  0  0  0  0  0  0  0
    0.5509    1.4703    0.0720 C   0  0  1  0  0  0  0  0  0  0  0  0
    1.1843    2.3637   -1.0065 C   0  0  0  0  0  0  0  0  0  0  0  0
    0.6611   -0.4930   -1.2302 F   0  0  0  0  0  0  0  0  0  0  0  0
    0.5786    3.1514   -1.7257 O   0  0  0  0  0  0  0  0  0  0  0  0
    2.5174    2.2804   -1.1297 O   0  0  0  0  0  0  0  0  0  0  0  0
   -2.9099    0.6861   -0.6326 O   0  0  0  0  0  0  0  0  0  0  0  0
   -1.7525    2.3693   -1.8449 O   0  0  0  0  0  0  0  0  0  0  0  0
   -1.9927    0.2351   -2.7639 O   0  0  0  0  0  0  0  0  0  0  0  0
   -0.8999    1.4476    0.0791 O   0  0  0  0  0  0  0  0  0  0  0  0
   -1.4766    0.8077   -1.4212 P   0  0  0  0  0  0  0  0  0  0  0  0
    0.8586    1.8914    1.0337 H   0  0  0  0  0  0  0  0  0  0  0  0
    0.6864   -0.5878    0.7434 H   0  0  0  0  0  0  0  0  0  0  0  0
    2.1781   -0.0073   -0.0489 H   0  0  0  0  0  0  0  0  0  0  0  0
    2.7260    2.9127   -1.8582 H   0  0  0  0  0  0  0  0  0  0  0  0
   -3.1640   -0.2254   -0.4396 H   0  0  0  0  0  0  0  0  0  0  0  0
   -0.9497    2.9293   -1.8618 H   0  0  0  0  0  0  0  0  0  0  0  0
  1 13  1  0  0  0  0
  1 14  1  0  0  0  0
  2  1  1  0  0  0  0
  2 10  1  0  0  0  0
  2 12  1  1  0  0  0
  3  2  1  0  0  0  0
  4  1  1  0  0  0  0
  5  3  2  0  0  0  0
  6  3  1  0  0  0  0
  6 15  1  0  0  0  0
  7 16  1  0  0  0  0
  8 17  1  0  0  0  0
 11  7  1  0  0  0  0
 11  8  1  0  0  0  0
 11  9  2  0  0  0  0
 11 10  1  0  0  0  0
M  END
>  <DRUGBANK_ID>
DB03113

>  <SECONDARY_ACCESSION_NUMBERS>
EXPT01475

>  <COMMON_NAME>
3-Fluoro-2-(Phosphonooxy)Propanoic Acid

$$$$
