
 OpenBabel10282417223D

 17 18  0  0  0  0  0  0  0  0999 V2000
   -0.4034   -0.5868   -0.0250 C   0  0  0  0  0  0  0  0  0  0  0  0
   -0.1372    0.8021   -0.0857 C   0  0  0  0  0  0  0  0  0  0  0  0
   -1.7584   -0.8235    0.0531 O   0  0  0  0  0  0  0  0  0  0  0  0
    0.5922   -1.4808   -0.0692 C   0  0  0  0  0  0  0  0  0  0  0  0
   -1.2768    1.4721   -0.0422 C   0  0  0  0  0  0  0  0  0  0  0  0
    1.2681    1.2714   -0.1545 C   0  0  3  0  0  0  0  0  0  0  0  0
   -2.3100    0.4418    0.0350 C   0  0  0  0  0  0  0  0  0  0  0  0
    2.0090   -0.9799   -0.1804 C   0  0  0  0  0  0  0  0  0  0  0  0
    2.1364    0.3102    0.4367 O   0  0  0  0  0  0  0  0  0  0  0  0
    1.3960    2.4998    0.5376 O   0  0  0  0  0  0  0  0  0  0  0  0
   -3.5038    0.7030    0.0752 O   0  0  0  0  0  0  0  0  0  0  0  0
    0.4177   -2.5514   -0.0437 H   0  0  0  0  0  0  0  0  0  0  0  0
   -1.4335    2.5335   -0.0722 H   0  0  0  0  0  0  0  0  0  0  0  0
    1.5649    1.4345   -1.1956 H   0  0  0  0  0  0  0  0  0  0  0  0
    2.3164   -0.9203   -1.2318 H   0  0  0  0  0  0  0  0  0  0  0  0
    2.7008   -1.6559    0.3308 H   0  0  0  0  0  0  0  0  0  0  0  0
    1.0504    2.3328    1.4304 H   0  0  0  0  0  0  0  0  0  0  0  0
  1  2  1  0  0  0  0
  1  3  1  0  0  0  0
  1  4  2  0  0  0  0
  2  5  2  0  0  0  0
  2  6  1  0  0  0  0
  3  7  1  0  0  0  0
  4  8  1  0  0  0  0
  4 12  1  0  0  0  0
  5  7  1  0  0  0  0
  5 13  1  0  0  0  0
  6  9  1  0  0  0  0
  6 10  1  0  0  0  0
  6 14  1  0  0  0  0
  7 11  2  0  0  0  0
  8  9  1  0  0  0  0
  8 15  1  0  0  0  0
  8 16  1  0  0  0  0
 10 17  1  0  0  0  0
M  END
>  <DRUGBANK_ID>
DB15586

>  <COMMON_NAME>
Patulin

>  <CAS_NUMBER>
149-29-1

>  <UNII>
95X2BV4W8R

>  <SYNONYMS>
Clavacin; Clavatin; Claviformin; Expansine; Mycoin C3; Patulin; Patuline

$$$$
