
 OpenBabel10282417153D

 66 68  0  0  0  0  0  0  0  0999 V2000
   -1.0678   -0.9720   -1.3426 C   0  0  0  0  0  0  0  0  0  0  0  0
   -2.3667   -1.0902   -0.9086 C   0  0  0  0  0  0  0  0  0  0  0  0
   -0.3343   -2.1845   -1.6568 C   0  0  0  0  0  0  0  0  0  0  0  0
   -2.8368    0.1763   -0.5596 O   0  0  0  0  0  0  0  0  0  0  0  0
    1.1026   -2.1964   -1.7789 C   0  0  0  0  0  0  0  0  0  0  0  0
   -0.8161    0.4321   -1.4436 C   0  0  0  0  0  0  0  0  0  0  0  0
   -3.2638   -2.3219   -0.9716 C   0  0  0  0  0  0  0  0  0  0  0  0
   -1.9457    1.1179   -1.0325 C   0  0  0  0  0  0  0  0  0  0  0  0
    3.8882   -2.4754   -1.7833 C   0  0  0  0  0  0  0  0  0  0  0  0
    3.0828   -2.8502   -2.9311 C   0  0  0  0  0  0  0  0  0  0  0  0
    3.2080   -2.0862   -0.5861 C   0  0  0  0  0  0  0  0  0  0  0  0
   -3.4338   -2.9502   -2.4194 C   0  0  0  0  0  0  0  0  0  0  0  0
    1.6871   -2.7345   -2.9155 C   0  0  0  0  0  0  0  0  0  0  0  0
    1.8225   -1.8814   -0.6343 C   0  0  0  0  0  0  0  0  0  0  0  0
   -0.8171   -3.2922   -1.6609 O   0  0  0  0  0  0  0  0  0  0  0  0
   -3.2330   -4.1636   -2.5640 O   0  0  0  0  0  0  0  0  0  0  0  0
   -3.8512   -2.2907   -3.5434 O   0  0  0  0  0  0  0  0  0  0  0  0
    3.9599   -1.3825    1.3253 I   0  0  0  0  0  0  0  0  0  0  0  0
    3.8914   -3.2318   -4.8677 I   0  0  0  0  0  0  0  0  0  0  0  0
    5.1838   -2.0808   -2.1493 O   0  0  0  0  0  0  0  0  0  0  0  0
    4.1800    0.8540   -1.2041 N   0  0  0  0  0  0  0  0  0  0  0  0
    0.2121    1.2264   -1.9373 C   0  0  0  0  0  0  0  0  0  0  0  0
    5.9264   -1.0807   -1.4081 C   0  0  0  0  0  0  0  0  0  0  0  0
   -2.1059    2.5165   -1.2043 C   0  0  0  0  0  0  0  0  0  0  0  0
   -4.4590   -0.9895   -3.9122 C   0  0  2  0  0  0  0  0  0  0  0  0
    5.5732    0.4846   -1.4223 C   0  0  0  0  0  0  0  0  0  0  0  0
    3.7844    2.1920   -0.8130 C   0  0  0  0  0  0  0  0  0  0  0  0
    3.3402    0.3612   -2.2530 C   0  0  0  0  0  0  0  0  0  0  0  0
   -4.2707   -0.0049   -2.8069 C   0  0  0  0  0  0  0  0  0  0  0  0
   -5.9578   -1.0706   -4.1689 C   0  0  0  0  0  0  0  0  0  0  0  0
    0.2074    2.6135   -1.8730 C   0  0  0  0  0  0  0  0  0  0  0  0
    3.8747    3.1187   -2.0053 C   0  0  0  0  0  0  0  0  0  0  0  0
    3.3484    0.6289   -3.7334 C   0  0  0  0  0  0  0  0  0  0  0  0
   -0.9711    3.2613   -1.5768 C   0  0  0  0  0  0  0  0  0  0  0  0
   -5.1950   -0.4502   -1.6520 C   0  0  0  0  0  0  0  0  0  0  0  0
   -2.7841   -3.0924   -0.3490 H   0  0  0  0  0  0  0  0  0  0  0  0
   -4.2100   -2.2491   -0.4351 H   0  0  0  0  0  0  0  0  0  0  0  0
    1.0573   -2.9793   -3.7740 H   0  0  0  0  0  0  0  0  0  0  0  0
    1.3070   -1.3518    0.1683 H   0  0  0  0  0  0  0  0  0  0  0  0
    0.9959    0.7280   -2.4421 H   0  0  0  0  0  0  0  0  0  0  0  0
    6.0450   -1.4638   -0.4026 H   0  0  0  0  0  0  0  0  0  0  0  0
    6.9415   -1.1245   -1.8212 H   0  0  0  0  0  0  0  0  0  0  0  0
   -3.0541    3.0284   -1.0732 H   0  0  0  0  0  0  0  0  0  0  0  0
   -3.9384   -0.6383   -4.8153 H   0  0  0  0  0  0  0  0  0  0  0  0
    6.1795    0.9446   -0.6309 H   0  0  0  0  0  0  0  0  0  0  0  0
    5.9134    0.9230   -2.3662 H   0  0  0  0  0  0  0  0  0  0  0  0
    2.7402    2.1475   -0.4573 H   0  0  0  0  0  0  0  0  0  0  0  0
    4.3507    2.5548    0.0487 H   0  0  0  0  0  0  0  0  0  0  0  0
    3.7070   -0.5955   -2.3836 H   0  0  0  0  0  0  0  0  0  0  0  0
    2.4032    0.1746   -1.7755 H   0  0  0  0  0  0  0  0  0  0  0  0
   -3.1935   -0.0800   -2.7226 H   0  0  0  0  0  0  0  0  0  0  0  0
   -4.4394    1.0454   -3.0468 H   0  0  0  0  0  0  0  0  0  0  0  0
   -6.3734   -0.0516   -4.1441 H   0  0  0  0  0  0  0  0  0  0  0  0
   -6.2043   -1.5353   -5.1167 H   0  0  0  0  0  0  0  0  0  0  0  0
   -6.4646   -1.6576   -3.3965 H   0  0  0  0  0  0  0  0  0  0  0  0
    1.1056    3.1700   -2.1123 H   0  0  0  0  0  0  0  0  0  0  0  0
    3.1211    2.8609   -2.7448 H   0  0  0  0  0  0  0  0  0  0  0  0
    3.6612    4.1532   -1.7555 H   0  0  0  0  0  0  0  0  0  0  0  0
    4.8512    3.0234   -2.4851 H   0  0  0  0  0  0  0  0  0  0  0  0
    4.3817    0.6057   -4.0866 H   0  0  0  0  0  0  0  0  0  0  0  0
    2.8222   -0.1957   -4.2310 H   0  0  0  0  0  0  0  0  0  0  0  0
    2.8368    1.5278   -4.0460 H   0  0  0  0  0  0  0  0  0  0  0  0
   -0.9913    4.3481   -1.6595 H   0  0  0  0  0  0  0  0  0  0  0  0
   -5.3283   -1.5345   -1.6995 H   0  0  0  0  0  0  0  0  0  0  0  0
   -4.8925   -0.1965   -0.6390 H   0  0  0  0  0  0  0  0  0  0  0  0
   -6.2162   -0.0998   -1.7494 H   0  0  0  0  0  0  0  0  0  0  0  0
  2  1  2  0  0  0  0
  3  1  1  0  0  0  0
  4  2  1  0  0  0  0
  5  3  1  0  0  0  0
  6  1  1  0  0  0  0
  7  2  1  0  0  0  0
  7 36  1  0  0  0  0
  7 37  1  0  0  0  0
  8  4  1  0  0  0  0
  8  6  2  0  0  0  0
  9 10  1  0  0  0  0
  9 11  2  0  0  0  0
 10 13  2  0  0  0  0
 11 14  1  0  0  0  0
 12  7  1  0  0  0  0
 13  5  1  0  0  0  0
 13 38  1  0  0  0  0
 14  5  2  0  0  0  0
 14 39  1  0  0  0  0
 15  3  2  0  0  0  0
 16 12  2  0  0  0  0
 17 12  1  0  0  0  0
 18 11  1  0  0  0  0
 19 10  1  0  0  0  0
 20  9  1  0  0  0  0
 21 26  1  0  0  0  0
 22  6  1  0  0  0  0
 22 40  1  0  0  0  0
 23 20  1  0  0  0  0
 23 41  1  0  0  0  0
 23 42  1  0  0  0  0
 24  8  1  0  0  0  0
 24 43  1  0  0  0  0
 25 30  1  0  0  0  0
 25 44  1  6  0  0  0
 25 29  1  0  0  0  0
 25 17  1  0  0  0  0
 26 23  1  0  0  0  0
 26 45  1  0  0  0  0
 26 46  1  0  0  0  0
 27 21  1  0  0  0  0
 27 47  1  0  0  0  0
 27 48  1  0  0  0  0
 28 21  1  0  0  0  0
 28 49  1  0  0  0  0
 28 50  1  0  0  0  0
 29 51  1  0  0  0  0
 29 52  1  0  0  0  0
 30 53  1  0  0  0  0
 30 54  1  0  0  0  0
 30 55  1  0  0  0  0
 31 22  2  0  0  0  0
 31 56  1  0  0  0  0
 32 27  1  0  0  0  0
 32 57  1  0  0  0  0
 32 58  1  0  0  0  0
 32 59  1  0  0  0  0
 33 28  1  0  0  0  0
 33 60  1  0  0  0  0
 33 61  1  0  0  0  0
 33 62  1  0  0  0  0
 34 31  1  0  0  0  0
 34 24  2  0  0  0  0
 34 63  1  0  0  0  0
 35 29  1  0  0  0  0
 35 64  1  0  0  0  0
 35 65  1  0  0  0  0
 35 66  1  0  0  0  0
M  END
>  <DRUGBANK_ID>
DB05519

>  <COMMON_NAME>
Budiodarone

>  <CAS_NUMBER>
335148-45-3

>  <UNII>
F5Y53150C8

>  <SYNONYMS>
Budiodarone

$$$$
