
 OpenBabel10282417173D

 41 42  0  0  0  0  0  0  0  0999 V2000
    1.1169   -0.0047    0.0156 C   0  0  0  0  0  0  0  0  0  0  0  0
   -2.1212   -3.1719   -4.2857 C   0  0  0  0  0  0  0  0  0  0  0  0
   -1.6839   -2.2557   -0.6240 C   0  0  0  0  0  0  0  0  0  0  0  0
    2.5198   -2.0115   -3.5110 C   0  0  0  0  0  0  0  0  0  0  0  0
    2.2514   -1.4699   -2.2386 C   0  0  0  0  0  0  0  0  0  0  0  0
   -0.1424   -5.7704   -3.7245 C   0  0  0  0  0  0  0  0  0  0  0  0
    1.5970   -4.8959   -2.2367 C   0  0  0  0  0  0  0  0  0  0  0  0
    0.9854   -6.1563   -4.6740 C   0  0  0  0  0  0  0  0  0  0  0  0
    2.6643   -5.2591   -3.2866 C   0  0  0  0  0  0  0  0  0  0  0  0
    1.9411   -3.8135   -5.2049 C   0  0  0  0  0  0  0  0  0  0  0  0
    1.5075   -2.6375   -4.2615 C   0  0  0  0  0  0  0  0  0  0  0  0
    0.9367   -1.5441   -1.7202 C   0  0  0  0  0  0  0  0  0  0  0  0
    0.1421   -2.4691   -3.8406 C   0  0  0  0  0  0  0  0  0  0  0  0
   -0.1080   -2.0408   -2.4911 C   0  0  0  0  0  0  0  0  0  0  0  0
    0.2544   -5.4776   -2.3419 N   0  0  0  0  0  0  0  0  0  0  0  0
    2.1325   -5.2195   -4.6592 N   0  0  0  0  0  0  0  0  0  0  0  0
    0.7782   -1.3265   -0.3675 O   0  0  0  0  0  0  0  0  0  0  0  0
   -0.8062   -2.8461   -4.7587 O   0  0  0  0  0  0  0  0  0  0  0  0
   -1.3681   -2.3336   -2.0018 O   0  0  0  0  0  0  0  0  0  0  0  0
    0.6779    0.1791    1.0006 H   0  0  0  0  0  0  0  0  0  0  0  0
    0.7046    0.7282   -0.6855 H   0  0  0  0  0  0  0  0  0  0  0  0
    2.2016    0.1006    0.1045 H   0  0  0  0  0  0  0  0  0  0  0  0
   -2.1102   -3.9005   -3.4643 H   0  0  0  0  0  0  0  0  0  0  0  0
   -2.6764   -2.2781   -3.9971 H   0  0  0  0  0  0  0  0  0  0  0  0
   -2.6559   -3.6680   -5.1002 H   0  0  0  0  0  0  0  0  0  0  0  0
   -1.0201   -2.8383    0.0269 H   0  0  0  0  0  0  0  0  0  0  0  0
   -1.7392   -1.2063   -0.3297 H   0  0  0  0  0  0  0  0  0  0  0  0
   -2.6859   -2.6829   -0.4929 H   0  0  0  0  0  0  0  0  0  0  0  0
    3.5738   -2.1187   -3.7896 H   0  0  0  0  0  0  0  0  0  0  0  0
    3.0712   -1.1954   -1.5985 H   0  0  0  0  0  0  0  0  0  0  0  0
   -0.9580   -6.5007   -3.7064 H   0  0  0  0  0  0  0  0  0  0  0  0
   -0.5845   -4.9256   -4.2141 H   0  0  0  0  0  0  0  0  0  0  0  0
    1.4230   -3.8629   -2.3631 H   0  0  0  0  0  0  0  0  0  0  0  0
    1.9882   -4.8935   -1.2171 H   0  0  0  0  0  0  0  0  0  0  0  0
    1.3258   -7.1476   -4.3360 H   0  0  0  0  0  0  0  0  0  0  0  0
    0.6022   -6.3177   -5.6873 H   0  0  0  0  0  0  0  0  0  0  0  0
    3.0315   -6.2684   -3.0615 H   0  0  0  0  0  0  0  0  0  0  0  0
    3.5432   -4.6089   -3.2213 H   0  0  0  0  0  0  0  0  0  0  0  0
    1.3700   -3.8191   -6.1395 H   0  0  0  0  0  0  0  0  0  0  0  0
    2.9607   -3.5460   -5.5321 H   0  0  0  0  0  0  0  0  0  0  0  0
    0.1925   -6.3037   -1.7641 H   0  0  0  0  0  0  0  0  0  0  0  0
  1 20  1  0  0  0  0
  1 21  1  0  0  0  0
  1 22  1  0  0  0  0
  2 23  1  0  0  0  0
  2 24  1  0  0  0  0
  2 25  1  0  0  0  0
  3 26  1  0  0  0  0
  3 27  1  0  0  0  0
  3 28  1  0  0  0  0
  4 29  1  0  0  0  0
  5  4  2  0  0  0  0
  5 30  1  0  0  0  0
  6 31  1  0  0  0  0
  6 32  1  0  0  0  0
  7 33  1  0  0  0  0
  7 34  1  0  0  0  0
  8  6  1  0  0  0  0
  8 35  1  0  0  0  0
  8 36  1  0  0  0  0
  9  7  1  0  0  0  0
  9 37  1  0  0  0  0
  9 38  1  0  0  0  0
 10 39  1  0  0  0  0
 10 40  1  0  0  0  0
 11  4  1  0  0  0  0
 11 10  1  0  0  0  0
 12  5  1  0  0  0  0
 13 11  2  0  0  0  0
 14 12  2  0  0  0  0
 14 13  1  0  0  0  0
 15  6  1  0  0  0  0
 15  7  1  0  0  0  0
 15 41  1  0  0  0  0
 16  8  1  0  0  0  0
 16  9  1  0  0  0  0
 16 10  1  0  0  0  0
 17  1  1  0  0  0  0
 17 12  1  0  0  0  0
 18  2  1  0  0  0  0
 18 13  1  0  0  0  0
 19  3  1  0  0  0  0
 19 14  1  0  0  0  0
M  END
>  <DRUGBANK_ID>
DB09069

>  <COMMON_NAME>
Trimetazidine

>  <CAS_NUMBER>
5011-34-7

>  <UNII>
N9A0A0R9S8

>  <SYNONYMS>
1-[2,3,4-trimethoxybenzyl] piperazine dihydrochloride; Trimetazidina; Trimetazidine

$$$$
