911
 OpenBabel10282417113D

 29 29  0  0  0  0  0  0  0  0999 V2000
    0.8023   -0.1370   -0.3738 S   0  0  0  0  0  0  0  0  0  0  0  0
    0.2797   -0.2854   -1.7166 O   0  0  0  0  0  0  0  0  0  0  0  0
    0.3207   -1.0332    0.6600 O   0  0  0  0  0  0  0  0  0  0  0  0
    1.6561   -0.3832    2.8607 O   0  5  0  0  0  0  0  0  0  0  0  0
    3.7213   -1.0203    2.4558 O   0  0  0  0  0  0  0  0  0  0  0  0
    2.3015    2.1395    1.7736 N   0  0  0  0  0  0  0  0  0  0  0  0
    4.3546    2.9339    1.4620 N   0  0  0  0  0  0  0  0  0  0  0  0
    2.8362   -0.1731    2.5587 N   0  3  0  0  0  0  0  0  0  0  0  0
    0.4184    1.5387    0.1441 C   0  0  0  0  0  0  0  0  0  0  0  0
    0.8712    2.0399    1.5248 C   0  0  0  0  0  0  0  0  0  0  0  0
    2.5867   -0.2448   -0.5545 C   0  0  0  0  0  0  0  0  0  0  0  0
    3.0822    3.2673    1.5649 C   0  0  0  0  0  0  0  0  0  0  0  0
    3.1798    1.1624    2.1908 C   0  0  0  0  0  0  0  0  0  0  0  0
    3.1565   -1.6454   -0.5220 C   0  0  0  0  0  0  0  0  0  0  0  0
    4.4245    1.6159    1.8118 C   0  0  0  0  0  0  0  0  0  0  0  0
    2.5626    4.6568    1.5015 C   0  0  0  0  0  0  0  0  0  0  0  0
    0.7678    2.1963   -0.6565 H   0  0  0  0  0  0  0  0  0  0  0  0
   -0.6825    1.5818    0.1324 H   0  0  0  0  0  0  0  0  0  0  0  0
    0.4769    3.0619    1.6301 H   0  0  0  0  0  0  0  0  0  0  0  0
    0.4094    1.4958    2.3496 H   0  0  0  0  0  0  0  0  0  0  0  0
    2.8732    0.3237   -1.4391 H   0  0  0  0  0  0  0  0  0  0  0  0
    3.0853    0.2809    0.2195 H   0  0  0  0  0  0  0  0  0  0  0  0
    2.9323   -2.1696   -1.4485 H   0  0  0  0  0  0  0  0  0  0  0  0
    4.2481   -1.5977   -0.4003 H   0  0  0  0  0  0  0  0  0  0  0  0
    2.7742   -2.2368    0.3175 H   0  0  0  0  0  0  0  0  0  0  0  0
    5.3405    1.0449    1.7146 H   0  0  0  0  0  0  0  0  0  0  0  0
    1.9632    4.8197    0.6032 H   0  0  0  0  0  0  0  0  0  0  0  0
    1.9525    4.8646    2.3864 H   0  0  0  0  0  0  0  0  0  0  0  0
    3.3920    5.3727    1.5003 H   0  0  0  0  0  0  0  0  0  0  0  0
  1  2  2  0  0  0  0
  1  3  2  0  0  0  0
  1  9  1  0  0  0  0
  1 11  1  0  0  0  0
  4  8  1  0  0  0  0
  5  8  2  0  0  0  0
  6 10  1  0  0  0  0
  6 12  1  0  0  0  0
  6 13  1  0  0  0  0
  7 12  2  0  0  0  0
  7 15  1  0  0  0  0
  8 13  1  0  0  0  0
  9 10  1  0  0  0  0
  9 17  1  0  0  0  0
  9 18  1  0  0  0  0
 10 19  1  0  0  0  0
 10 20  1  0  0  0  0
 11 14  1  0  0  0  0
 11 21  1  0  0  0  0
 11 22  1  0  0  0  0
 12 16  1  0  0  0  0
 13 15  2  0  0  0  0
 14 23  1  0  0  0  0
 14 24  1  0  0  0  0
 14 25  1  0  0  0  0
 15 26  1  0  0  0  0
 16 27  1  0  0  0  0
 16 28  1  0  0  0  0
 16 29  1  0  0  0  0
M  CHG  2   4  -1   8   1
M  END
>  <DRUGBANK_ID>
DB00911

>  <SECONDARY_ACCESSION_NUMBERS>
APRD01260

>  <COMMON_NAME>
Tinidazole

>  <CAS_NUMBER>
19387-91-8

>  <UNII>
033KF7V46H

>  <SYNONYMS>
1-(2-(Ethylsulfonyl)ethyl)-2-methyl-5-nitroimidazole; Timidazole; Tinidazol; Tinidazole; Tinidazolum

$$$$
