
 OpenBabel10282417103D

 55 57  0  0  0  0  0  0  0  0999 V2000
   -2.0658   -0.0152   -1.2189 C   0  0  1  0  0  0  0  0  0  0  0  0
   -1.9013    1.0423   -0.1164 C   0  0  0  0  0  0  0  0  0  0  0  0
   -0.6263    1.4186    0.2494 N   0  0  0  0  0  0  0  0  0  0  0  0
   -0.3392   -1.7687    0.1985 S   0  0  0  0  0  0  0  0  0  0  0  0
   -1.8294   -1.5001   -0.7937 C   0  0  1  0  0  0  0  0  0  0  0  0
    0.5518    0.8990   -0.4334 C   0  0  0  0  0  0  0  0  0  0  0  0
    0.7850   -0.5288   -0.4898 C   0  0  0  0  0  0  0  0  0  0  0  0
   -3.2703    0.2107   -1.9873 O   0  0  0  0  0  0  0  0  0  0  0  0
   -0.5460    2.4462    1.3532 C   0  0  0  0  0  0  0  0  0  0  0  0
   -3.0457   -2.2229   -0.2252 C   0  0  0  0  0  0  0  0  0  0  0  0
   -4.4471    0.2890   -1.3124 C   0  0  0  0  0  0  0  0  0  0  0  0
   -2.8496    1.6865    0.3412 O   0  0  0  0  0  0  0  0  0  0  0  0
   -4.6237    0.2019   -0.0864 O   0  0  0  0  0  0  0  0  0  0  0  0
   -4.1131   -2.4458   -1.1075 C   0  0  0  0  0  0  0  0  0  0  0  0
   -3.2385   -2.5506    1.1235 C   0  0  0  0  0  0  0  0  0  0  0  0
   -0.1072    1.9776    2.8053 C   0  0  0  0  0  0  0  0  0  0  0  0
    1.3066    1.5587    2.9666 N   0  0  0  0  0  0  0  0  0  0  0  0
   -5.5863   -2.9996    0.7165 C   0  0  0  0  0  0  0  0  0  0  0  0
   -4.4796   -3.0255    1.5640 C   0  0  0  0  0  0  0  0  0  0  0  0
   -5.3952   -2.6941   -0.6229 C   0  0  0  0  0  0  0  0  0  0  0  0
    1.6780    1.7468   -0.5224 C   0  0  0  0  0  0  0  0  0  0  0  0
   -6.7962   -3.2651    1.2951 O   0  0  0  0  0  0  0  0  0  0  0  0
    2.1072   -1.0291   -0.5403 C   0  0  0  0  0  0  0  0  0  0  0  0
   -5.5942    0.2841   -2.2414 C   0  0  0  0  0  0  0  0  0  0  0  0
    1.7562    1.2429    4.3010 C   0  0  0  0  0  0  0  0  0  0  0  0
    1.4882    0.2866    2.3220 C   0  0  0  0  0  0  0  0  0  0  0  0
   -7.9405   -3.0455    0.4748 C   0  0  0  0  0  0  0  0  0  0  0  0
    2.9792    1.2183   -0.5635 C   0  0  0  0  0  0  0  0  0  0  0  0
    3.1944   -0.1594   -0.5714 C   0  0  0  0  0  0  0  0  0  0  0  0
   -1.2830    0.2012   -1.9606 H   0  0  0  0  0  0  0  0  0  0  0  0
   -1.5893   -2.0600   -1.7086 H   0  0  0  0  0  0  0  0  0  0  0  0
    0.0042    3.3249    1.0114 H   0  0  0  0  0  0  0  0  0  0  0  0
   -1.5568    2.8490    1.5297 H   0  0  0  0  0  0  0  0  0  0  0  0
   -4.0003   -2.1913   -2.1600 H   0  0  0  0  0  0  0  0  0  0  0  0
   -2.4600   -2.4051    1.8686 H   0  0  0  0  0  0  0  0  0  0  0  0
   -0.2774    2.8401    3.4650 H   0  0  0  0  0  0  0  0  0  0  0  0
   -0.7936    1.1895    3.1460 H   0  0  0  0  0  0  0  0  0  0  0  0
   -4.5934   -3.3494    2.5941 H   0  0  0  0  0  0  0  0  0  0  0  0
   -6.2256   -2.5455   -1.3037 H   0  0  0  0  0  0  0  0  0  0  0  0
    1.5837    2.8067   -0.2962 H   0  0  0  0  0  0  0  0  0  0  0  0
    2.3061   -2.0854   -0.3389 H   0  0  0  0  0  0  0  0  0  0  0  0
   -5.7215    1.2710   -2.6761 H   0  0  0  0  0  0  0  0  0  0  0  0
   -5.4540   -0.4886   -3.0027 H   0  0  0  0  0  0  0  0  0  0  0  0
   -6.4753    0.0085   -1.6527 H   0  0  0  0  0  0  0  0  0  0  0  0
    1.1953    0.3940    4.7080 H   0  0  0  0  0  0  0  0  0  0  0  0
    2.8095    0.9295    4.2120 H   0  0  0  0  0  0  0  0  0  0  0  0
    1.7221    2.1009    4.9605 H   0  0  0  0  0  0  0  0  0  0  0  0
    0.7844   -0.5057    2.5837 H   0  0  0  0  0  0  0  0  0  0  0  0
    1.2491    0.5911    1.3753 H   0  0  0  0  0  0  0  0  0  0  0  0
    2.5157   -0.0589    2.2085 H   0  0  0  0  0  0  0  0  0  0  0  0
   -8.0491   -1.9845    0.2180 H   0  0  0  0  0  0  0  0  0  0  0  0
   -7.9069   -3.6637   -0.4290 H   0  0  0  0  0  0  0  0  0  0  0  0
   -8.8247   -3.3465    1.0421 H   0  0  0  0  0  0  0  0  0  0  0  0
    3.8263    1.8861   -0.4172 H   0  0  0  0  0  0  0  0  0  0  0  0
    4.2018   -0.5561   -0.4603 H   0  0  0  0  0  0  0  0  0  0  0  0
  1  8  1  0  0  0  0
  1 30  1  6  0  0  0
  2  1  1  0  0  0  0
  3  2  1  0  0  0  0
  4  5  1  0  0  0  0
  5  1  1  0  0  0  0
  5 10  1  0  0  0  0
  5 31  1  6  0  0  0
  6  3  1  0  0  0  0
  7  4  1  0  0  0  0
  7  6  2  0  0  0  0
  9  3  1  0  0  0  0
  9 32  1  0  0  0  0
  9 33  1  0  0  0  0
 11  8  1  0  0  0  0
 12  2  2  0  0  0  0
 13 11  2  0  0  0  0
 14 10  1  0  0  0  0
 14 34  1  0  0  0  0
 15 10  2  0  0  0  0
 15 35  1  0  0  0  0
 16  9  1  0  0  0  0
 16 36  1  0  0  0  0
 16 37  1  0  0  0  0
 17 16  1  0  0  0  0
 18 19  2  0  0  0  0
 19 15  1  0  0  0  0
 19 38  1  0  0  0  0
 20 14  2  0  0  0  0
 20 18  1  0  0  0  0
 20 39  1  0  0  0  0
 21  6  1  0  0  0  0
 21 40  1  0  0  0  0
 22 18  1  0  0  0  0
 23  7  1  0  0  0  0
 23 41  1  0  0  0  0
 24 11  1  0  0  0  0
 24 42  1  0  0  0  0
 24 43  1  0  0  0  0
 24 44  1  0  0  0  0
 25 17  1  0  0  0  0
 25 45  1  0  0  0  0
 25 46  1  0  0  0  0
 25 47  1  0  0  0  0
 26 17  1  0  0  0  0
 26 48  1  0  0  0  0
 26 49  1  0  0  0  0
 26 50  1  0  0  0  0
 27 22  1  0  0  0  0
 27 51  1  0  0  0  0
 27 52  1  0  0  0  0
 27 53  1  0  0  0  0
 28 21  2  0  0  0  0
 28 54  1  0  0  0  0
 29 23  2  0  0  0  0
 29 28  1  0  0  0  0
 29 55  1  0  0  0  0
M  END
>  <DRUGBANK_ID>
DB00343

>  <SECONDARY_ACCESSION_NUMBERS>
APRD00473

>  <COMMON_NAME>
Diltiazem

>  <CAS_NUMBER>
42399-41-7

>  <UNII>
EE92BBP03H

>  <SYNONYMS>
(+)-cis-5-[2-(dimethylamino)ethyl]-2,3-dihydro-3-hydroxy-2-(p-methoxyphenyl)-1,5-benzothiazepin-4(5H)-one acetate ester; (2S-cis)-3-(acetyloxy)-5-[2-(dimethylamino)ethyl]-2,3-dihydro-2-(4-methoxyphenyl)-1,5-benzothiazepin-4(5H)-one; (2S,3S)-5-(2-(dimethylamino)ethyl)-2-(4-methoxyphenyl)-4-oxo-2,3,4,5-tetrahydrobenzo[b][1,4]thiazepin-3-yl acetate; Acetic acid (2S,3S)-5-(2-dimethylamino-ethyl)-2-(4-methoxy-phenyl)-4-oxo-2,3,4,5-tetrahydro-benzo[b][1,4]thiazepin-3-yl ester; d-cis-diltiazem; Diltiazem; Diltiazemum

$$$$
