DT4
 OpenBabel10282417163D

 50 53  0  0  0  0  0  0  0  0999 V2000
    1.0136    0.0856   -0.0539 O   0  0  0  0  0  0  0  0  0  0  0  0
    2.4573   -0.0557   -0.0845 S   0  0  0  0  0  0  0  0  0  0  0  0
    3.1083   -1.1561   -0.7418 O   0  0  0  0  0  0  0  0  0  0  0  0
    3.0656    1.3253   -0.8319 N   0  0  0  0  0  0  0  0  0  0  0  0
    3.0405    0.0348    1.5851 C   0  0  0  0  0  0  0  0  0  0  0  0
    3.2159    1.2522    2.2462 C   0  0  0  0  0  0  0  0  0  0  0  0
    3.5914    1.2637    3.6057 C   0  0  0  0  0  0  0  0  0  0  0  0
    3.7687    0.0669    4.3190 C   0  0  0  0  0  0  0  0  0  0  0  0
    3.5432   -1.1329    3.6256 C   0  0  0  0  0  0  0  0  0  0  0  0
    3.2522   -1.1614    2.2627 C   0  0  0  0  0  0  0  0  0  0  0  0
    4.2121    0.0641    5.6604 N   0  0  0  0  0  0  0  0  0  0  0  0
    4.5515   -1.0658    6.4098 C   0  0  0  0  0  0  0  0  0  0  0  0
    3.9722   -1.2856    7.6759 N   0  0  0  0  0  0  0  0  0  0  0  0
    3.0852   -0.5148    8.3669 N   0  0  0  0  0  0  0  0  0  0  0  0
    2.8791   -1.2457    9.4621 C   0  0  0  0  0  0  0  0  0  0  0  0
    4.2463   -2.4579    8.4075 C   0  0  0  0  0  0  0  0  0  0  0  0
    3.5738   -2.4140    9.5411 N   0  0  0  0  0  0  0  0  0  0  0  0
    5.0808   -3.4416    7.9319 N   0  0  0  0  0  0  0  0  0  0  0  0
    5.6634   -3.2239    6.7826 C   0  0  0  0  0  0  0  0  0  0  0  0
    5.4108   -1.9985    5.9690 C   0  0  0  0  0  0  0  0  0  0  0  0
    6.5382   -4.1505    6.2381 N   0  0  0  0  0  0  0  0  0  0  0  0
    7.9345   -3.7785    5.9605 C   0  0  1  0  0  0  0  0  0  0  0  0
    8.6108   -3.1534    7.1922 C   0  0  0  0  0  0  0  0  0  0  0  0
   10.0548   -2.7479    6.8972 C   0  0  0  0  0  0  0  0  0  0  0  0
   10.8744   -3.9307    6.3782 C   0  0  2  0  0  0  0  0  0  0  0  0
   12.2221   -3.4726    6.0511 N   0  0  0  0  0  0  0  0  0  0  0  0
   10.2007   -4.5556    5.1506 C   0  0  0  0  0  0  0  0  0  0  0  0
    8.7527   -4.9714    5.4479 C   0  0  0  0  0  0  0  0  0  0  0  0
    7.9213   -3.0318    5.1579 H   0  0  0  0  0  0  0  0  0  0  0  0
   10.9531   -4.6856    7.1704 H   0  0  0  0  0  0  0  0  0  0  0  0
    4.0811    1.2851   -0.9093 H   0  0  0  0  0  0  0  0  0  0  0  0
    2.6334    1.3959   -1.7579 H   0  0  0  0  0  0  0  0  0  0  0  0
    3.0432    2.1902    1.7233 H   0  0  0  0  0  0  0  0  0  0  0  0
    3.7057    2.2248    4.1033 H   0  0  0  0  0  0  0  0  0  0  0  0
    3.5578   -2.0834    4.1510 H   0  0  0  0  0  0  0  0  0  0  0  0
    3.1570   -2.1223    1.7627 H   0  0  0  0  0  0  0  0  0  0  0  0
    4.1787    0.9387    6.1769 H   0  0  0  0  0  0  0  0  0  0  0  0
    2.1956   -0.9132   10.2356 H   0  0  0  0  0  0  0  0  0  0  0  0
    5.8902   -1.9388    5.0035 H   0  0  0  0  0  0  0  0  0  0  0  0
    6.3935   -5.1054    6.5550 H   0  0  0  0  0  0  0  0  0  0  0  0
    8.0661   -2.2588    7.5147 H   0  0  0  0  0  0  0  0  0  0  0  0
    8.5912   -3.8555    8.0354 H   0  0  0  0  0  0  0  0  0  0  0  0
   10.0506   -1.9385    6.1542 H   0  0  0  0  0  0  0  0  0  0  0  0
   10.5107   -2.3386    7.8071 H   0  0  0  0  0  0  0  0  0  0  0  0
   12.7779   -4.2471    5.6896 H   0  0  0  0  0  0  0  0  0  0  0  0
   12.1894   -2.7762    5.3072 H   0  0  0  0  0  0  0  0  0  0  0  0
   10.1995   -3.8335    4.3225 H   0  0  0  0  0  0  0  0  0  0  0  0
   10.7728   -5.4265    4.8091 H   0  0  0  0  0  0  0  0  0  0  0  0
    8.7525   -5.7863    6.1832 H   0  0  0  0  0  0  0  0  0  0  0  0
    8.3003   -5.3715    4.5329 H   0  0  0  0  0  0  0  0  0  0  0  0
  1  2  2  0  0  0  0
  2  3  2  0  0  0  0
  2  4  1  0  0  0  0
  2  5  1  0  0  0  0
  4 31  1  0  0  0  0
  4 32  1  0  0  0  0
  5  6  2  0  0  0  0
  5 10  1  0  0  0  0
  6  7  1  0  0  0  0
  6 33  1  0  0  0  0
  7  8  2  0  0  0  0
  7 34  1  0  0  0  0
  8  9  1  0  0  0  0
  8 11  1  0  0  0  0
  9 10  2  0  0  0  0
  9 35  1  0  0  0  0
 10 36  1  0  0  0  0
 11 12  1  0  0  0  0
 11 37  1  0  0  0  0
 12 13  1  0  0  0  0
 12 20  2  0  0  0  0
 13 14  1  0  0  0  0
 13 16  1  0  0  0  0
 14 15  2  0  0  0  0
 15 17  1  0  0  0  0
 15 38  1  0  0  0  0
 16 17  2  0  0  0  0
 16 18  1  0  0  0  0
 18 19  2  0  0  0  0
 19 20  1  0  0  0  0
 19 21  1  0  0  0  0
 20 39  1  0  0  0  0
 21 40  1  0  0  0  0
 22 21  1  0  0  0  0
 22 23  1  0  0  0  0
 22 28  1  0  0  0  0
 22 29  1  6  0  0  0
 23 24  1  0  0  0  0
 23 41  1  0  0  0  0
 23 42  1  0  0  0  0
 24 25  1  0  0  0  0
 24 43  1  0  0  0  0
 24 44  1  0  0  0  0
 25 26  1  0  0  0  0
 25 27  1  0  0  0  0
 25 30  1  1  0  0  0
 26 45  1  0  0  0  0
 26 46  1  0  0  0  0
 27 28  1  0  0  0  0
 27 47  1  0  0  0  0
 27 48  1  0  0  0  0
 28 49  1  0  0  0  0
 28 50  1  0  0  0  0
M  END
>  <DRUGBANK_ID>
DB07687

>  <COMMON_NAME>
4-({5-[(4-AMINOCYCLOHEXYL)AMINO][1,2,4]TRIAZOLO[1,5-A]PYRIMIDIN-7-YL}AMINO)BENZENESULFONAMIDE

$$$$
