
 OpenBabel10282417183D

 40 39  0  0  0  0  0  0  0  0999 V2000
    4.8003   -3.6462    7.7899 O   0  0  0  0  0  0  0  0  0  0  0  0
    5.3248   -4.3573    6.6696 C   0  0  0  0  0  0  0  0  0  0  0  0
    4.1828   -5.0527    5.9445 C   0  0  1  0  0  0  0  0  0  0  0  0
    3.3170   -3.9819    5.5457 O   0  0  0  0  0  0  0  0  0  0  0  0
    4.6943   -5.8742    4.7393 C   0  0  1  0  0  0  0  0  0  0  0  0
    5.6285   -6.8788    5.1644 O   0  0  0  0  0  0  0  0  0  0  0  0
    3.5279   -6.5734    3.9762 C   0  0  1  0  0  0  0  0  0  0  0  0
    2.4474   -5.6070    3.4328 C   0  0  1  0  0  0  0  0  0  0  0  0
    2.9604   -4.5620    2.3812 C   0  0  2  0  0  0  0  0  0  0  0  0
    2.5276   -4.8621    0.9455 C   0  0  0  0  0  0  0  0  0  0  0  0
    3.0477   -6.2132    0.4769 C   0  0  0  0  0  0  0  0  0  0  0  0
    2.0115   -7.2897    0.1230 C   0  0  0  0  0  0  0  0  0  0  0  0
    2.4976   -8.5276   -0.0068 O   0  0  0  0  0  0  0  0  0  0  0  0
    0.8177   -7.0274    0.1120 O   0  0  0  0  0  0  0  0  0  0  0  0
    4.2402   -6.5173    0.4819 O   0  0  0  0  0  0  0  0  0  0  0  0
    4.3706   -4.3189    2.3725 O   0  0  0  0  0  0  0  0  0  0  0  0
    1.2558   -6.3343    2.9649 N   0  0  0  0  0  0  0  0  0  0  0  0
   -0.0145   -6.1143    3.4377 C   0  0  0  0  0  0  0  0  0  0  0  0
   -1.0942   -6.8496    2.6843 C   0  0  0  0  0  0  0  0  0  0  0  0
   -0.2682   -5.3773    4.3839 O   0  0  0  0  0  0  0  0  0  0  0  0
    3.9842   -7.4298    2.9087 O   0  0  0  0  0  0  0  0  0  0  0  0
    4.2082   -2.9645    7.4239 H   0  0  0  0  0  0  0  0  0  0  0  0
    5.7998   -3.6277    6.0026 H   0  0  0  0  0  0  0  0  0  0  0  0
    6.0756   -5.0614    7.0277 H   0  0  0  0  0  0  0  0  0  0  0  0
    3.6299   -5.7112    6.6262 H   0  0  0  0  0  0  0  0  0  0  0  0
    2.7262   -3.7882    6.2971 H   0  0  0  0  0  0  0  0  0  0  0  0
    5.2740   -5.2249    4.0865 H   0  0  0  0  0  0  0  0  0  0  0  0
    6.4430   -6.4304    5.4530 H   0  0  0  0  0  0  0  0  0  0  0  0
    3.0537   -7.2716    4.6756 H   0  0  0  0  0  0  0  0  0  0  0  0
    2.0548   -5.0424    4.2727 H   0  0  0  0  0  0  0  0  0  0  0  0
    2.5343   -3.5920    2.6713 H   0  0  0  0  0  0  0  0  0  0  0  0
    1.4379   -4.8036    0.8825 H   0  0  0  0  0  0  0  0  0  0  0  0
    2.9344   -4.1066    0.2666 H   0  0  0  0  0  0  0  0  0  0  0  0
    3.4698   -8.5812    0.1185 H   0  0  0  0  0  0  0  0  0  0  0  0
    4.8399   -5.0762    1.9790 H   0  0  0  0  0  0  0  0  0  0  0  0
    1.3483   -7.0530    2.2661 H   0  0  0  0  0  0  0  0  0  0  0  0
   -1.5801   -7.5598    3.3544 H   0  0  0  0  0  0  0  0  0  0  0  0
   -1.8179   -6.1213    2.3081 H   0  0  0  0  0  0  0  0  0  0  0  0
   -0.7134   -7.4126    1.8315 H   0  0  0  0  0  0  0  0  0  0  0  0
    4.6118   -6.9501    2.3398 H   0  0  0  0  0  0  0  0  0  0  0  0
  1  2  1  0  0  0  0
  1 22  1  0  0  0  0
  2  3  1  0  0  0  0
  2 23  1  0  0  0  0
  2 24  1  0  0  0  0
  3  4  1  0  0  0  0
  3  5  1  0  0  0  0
  3 25  1  1  0  0  0
  4 26  1  0  0  0  0
  5  6  1  0  0  0  0
  5  7  1  0  0  0  0
  5 27  1  6  0  0  0
  6 28  1  0  0  0  0
  7  8  1  0  0  0  0
  7 21  1  0  0  0  0
  7 29  1  1  0  0  0
  8 17  1  0  0  0  0
  8 30  1  1  0  0  0
  9 16  1  0  0  0  0
  9 31  1  1  0  0  0
  9 10  1  0  0  0  0
  9  8  1  0  0  0  0
 10 11  1  0  0  0  0
 10 32  1  0  0  0  0
 10 33  1  0  0  0  0
 11 12  1  0  0  0  0
 11 15  2  0  0  0  0
 12 13  1  0  0  0  0
 12 14  2  0  0  0  0
 13 34  1  0  0  0  0
 16 35  1  0  0  0  0
 17 18  1  0  0  0  0
 17 36  1  0  0  0  0
 18 19  1  0  0  0  0
 18 20  2  0  0  0  0
 19 37  1  0  0  0  0
 19 38  1  0  0  0  0
 19 39  1  0  0  0  0
 21 40  1  0  0  0  0
M  END
>  <DRUGBANK_ID>
DB11797

>  <COMMON_NAME>
Aceneuramic acid

>  <CAS_NUMBER>
131-48-6

>  <UNII>
GZP2782OP0

>  <SYNONYMS>
Aceneuramic acid; Acidium aceneuramicum; Acido aceneuramico

$$$$
