[NO NAME]
 OpenBabel10282417143D
Created with ChemWriter - http://chemwriter.com
 57 60  0  0  1  0  0  0  0  0999 V2000
    0.8901    0.1623    0.0384 O   0  0  0  0  0  0  0  0  0  0  0  0
    1.9051    1.8840    6.0268 O   0  0  0  0  0  0  0  0  0  0  0  0
    2.8893   -2.7991    6.8015 O   0  0  0  0  0  0  0  0  0  0  0  0
    2.2280   -2.4564    0.1112 N   0  0  0  0  0  0  0  0  0  0  0  0
    2.1344   -0.8404    5.8905 N   0  0  0  0  0  0  0  0  0  0  0  0
    3.2691   -2.5757    1.1231 C   0  0  0  0  0  0  0  0  0  0  0  0
    3.7832   -1.1896    1.5999 C   0  0  0  0  0  0  0  0  0  0  0  0
    4.5731   -3.3833    0.9581 C   0  0  0  0  0  0  0  0  0  0  0  0
    4.7774   -1.6479    2.5910 C   0  0  0  0  0  0  0  0  0  0  0  0
    5.1658   -2.9548    2.2853 C   0  0  0  0  0  0  0  0  0  0  0  0
    5.1521   -0.9827    3.7349 C   0  0  0  0  0  0  0  0  0  0  0  0
    5.7854   -3.6954    3.2566 C   0  0  0  0  0  0  0  0  0  0  0  0
    0.8495   -2.1631    0.6353 C   0  0  0  0  0  0  0  0  0  0  0  0
    5.9426   -1.6631    4.6576 C   0  0  0  0  0  0  0  0  0  0  0  0
    6.2579   -3.0350    4.4122 C   0  0  0  0  0  0  0  0  0  0  0  0
    0.4558   -0.7112    1.1029 C   0  0  1  0  0  0  0  0  0  0  0  0
    6.4176   -0.8647    5.8509 C   0  0  0  0  0  0  0  0  0  0  0  0
    7.1660   -3.8485    5.2983 C   0  0  0  0  0  0  0  0  0  0  0  0
    0.8246   -0.1013    2.4709 C   0  0  0  0  0  0  0  0  0  0  0  0
    1.2282   -0.8221    3.6300 C   0  0  0  0  0  0  0  0  0  0  0  0
    6.0265   -1.4544    7.1928 C   0  0  0  0  0  0  0  0  0  0  0  0
    8.5663   -3.2578    5.3250 C   0  0  0  0  0  0  0  0  0  0  0  0
    0.7969    1.3190    2.5715 C   0  0  0  0  0  0  0  0  0  0  0  0
    1.6203   -0.1251    4.7931 C   0  0  0  0  0  0  0  0  0  0  0  0
    1.1447    1.9946    3.7504 C   0  0  0  0  0  0  0  0  0  0  0  0
    1.4405   -2.2712    3.6898 C   0  0  0  0  0  0  0  0  0  0  0  0
    1.5452    1.2653    4.8610 C   0  0  0  0  0  0  0  0  0  0  0  0
    2.2671   -2.8404    4.5669 C   0  0  0  0  0  0  0  0  0  0  0  0
    2.4935   -2.1631    5.8470 C   0  0  0  0  0  0  0  0  0  0  0  0
    1.8598    0.1875    0.0755 H   0  0  0  0  0  0  0  0  0  0  0  0
    1.7774    2.8420    5.9288 H   0  0  0  0  0  0  0  0  0  0  0  0
    2.4788   -1.6923   -0.5079 H   0  0  0  0  0  0  0  0  0  0  0  0
    2.2705   -0.3545    6.7651 H   0  0  0  0  0  0  0  0  0  0  0  0
    2.8070   -3.1665    1.9203 H   0  0  0  0  0  0  0  0  0  0  0  0
    2.9394   -0.6765    1.9915 H   0  0  0  0  0  0  0  0  0  0  0  0
    4.2633   -0.4359    0.9683 H   0  0  0  0  0  0  0  0  0  0  0  0
    4.4638   -4.4716    0.8971 H   0  0  0  0  0  0  0  0  0  0  0  0
    5.1572   -3.0179    0.1065 H   0  0  0  0  0  0  0  0  0  0  0  0
    4.7980    0.0289    3.9127 H   0  0  0  0  0  0  0  0  0  0  0  0
    5.8753   -4.7736    3.1536 H   0  0  0  0  0  0  0  0  0  0  0  0
    0.4510   -2.9241    1.3084 H   0  0  0  0  0  0  0  0  0  0  0  0
    0.2296   -2.3532   -0.2475 H   0  0  0  0  0  0  0  0  0  0  0  0
   -0.6412   -0.6649    1.0831 H   0  0  0  0  0  0  0  0  0  0  0  0
    7.4948   -0.7079    5.7710 H   0  0  0  0  0  0  0  0  0  0  0  0
    6.0167    0.1569    5.8100 H   0  0  0  0  0  0  0  0  0  0  0  0
    6.7290   -3.9847    6.2871 H   0  0  0  0  0  0  0  0  0  0  0  0
    7.2440   -4.8699    4.9088 H   0  0  0  0  0  0  0  0  0  0  0  0
    6.3708   -2.4725    7.3454 H   0  0  0  0  0  0  0  0  0  0  0  0
    6.4589   -0.8721    8.0080 H   0  0  0  0  0  0  0  0  0  0  0  0
    4.9415   -1.4646    7.3003 H   0  0  0  0  0  0  0  0  0  0  0  0
    8.6119   -2.2463    5.7220 H   0  0  0  0  0  0  0  0  0  0  0  0
    9.2201   -3.8563    5.9583 H   0  0  0  0  0  0  0  0  0  0  0  0
    8.9772   -3.2106    4.3107 H   0  0  0  0  0  0  0  0  0  0  0  0
    0.5119    1.9218    1.7057 H   0  0  0  0  0  0  0  0  0  0  0  0
    1.1031    3.0806    3.7727 H   0  0  0  0  0  0  0  0  0  0  0  0
    1.0552   -2.9330    2.9514 H   0  0  0  0  0  0  0  0  0  0  0  0
    2.6374   -3.8516    4.4530 H   0  0  0  0  0  0  0  0  0  0  0  0
  1 30  1  0  0  0  0
  2 27  1  0  0  0  0
  2 31  1  0  0  0  0
  3 29  2  0  0  0  0
  4  6  1  0  0  0  0
  4 13  1  0  0  0  0
  4 32  1  0  0  0  0
  5 24  1  0  0  0  0
  5 29  1  0  0  0  0
  5 33  1  0  0  0  0
  6  7  1  0  0  0  0
  6  8  1  0  0  0  0
  6 34  1  0  0  0  0
  7  9  1  0  0  0  0
  7 35  1  0  0  0  0
  7 36  1  0  0  0  0
  8 10  1  0  0  0  0
  8 37  1  0  0  0  0
  8 38  1  0  0  0  0
  9 10  1  0  0  0  0
  9 11  2  0  0  0  0
 10 12  2  0  0  0  0
 11 14  1  0  0  0  0
 11 39  1  0  0  0  0
 12 15  1  0  0  0  0
 12 40  1  0  0  0  0
 13 16  1  0  0  0  0
 13 41  1  0  0  0  0
 13 42  1  0  0  0  0
 14 15  2  0  0  0  0
 14 17  1  0  0  0  0
 15 18  1  0  0  0  0
 16  1  1  0  0  0  0
 16 19  1  0  0  0  0
 16 43  1  6  0  0  0
 17 21  1  0  0  0  0
 17 44  1  0  0  0  0
 17 45  1  0  0  0  0
 18 22  1  0  0  0  0
 18 46  1  0  0  0  0
 18 47  1  0  0  0  0
 19 20  2  0  0  0  0
 19 23  1  0  0  0  0
 20 24  1  0  0  0  0
 20 26  1  0  0  0  0
 21 48  1  0  0  0  0
 21 49  1  0  0  0  0
 21 50  1  0  0  0  0
 22 51  1  0  0  0  0
 22 52  1  0  0  0  0
 22 53  1  0  0  0  0
 23 25  2  0  0  0  0
 23 54  1  0  0  0  0
 24 27  2  0  0  0  0
 25 27  1  0  0  0  0
 25 55  1  0  0  0  0
 26 28  2  0  0  0  0
 26 56  1  0  0  0  0
 28 29  1  0  0  0  0
 28 57  1  0  0  0  0
M  END
>  <DRUGBANK_ID>
DB05039

>  <COMMON_NAME>
Indacaterol

>  <CAS_NUMBER>
312753-06-3

>  <UNII>
8OR09251MQ

>  <SYNONYMS>
Indacaterol

$$$$
