
 OpenBabel10282417163D

 37 39  0  0  0  0  0  0  0  0999 V2000
    1.2136   -0.2111   -0.0111 N   0  0  0  0  0  0  0  0  0  0  0  0
    0.5935    0.6090    1.0414 C   0  0  0  0  0  0  0  0  0  0  0  0
    0.9496    2.1398    1.0476 C   0  0  1  0  0  0  0  0  0  0  0  0
    0.5515    2.8677   -0.2567 C   0  0  0  0  0  0  0  0  0  0  0  0
    1.0050    4.1756   -0.5127 C   0  0  0  0  0  0  0  0  0  0  0  0
    0.5568    4.9094   -1.6092 C   0  0  0  0  0  0  0  0  0  0  0  0
   -0.1446    4.2621   -2.6117 C   0  0  0  0  0  0  0  0  0  0  0  0
   -0.5798    5.1110   -4.0378 Cl  0  0  0  0  0  0  0  0  0  0  0  0
   -0.4786    2.9234   -2.4700 C   0  0  0  0  0  0  0  0  0  0  0  0
   -0.2172    2.2674   -1.2655 C   0  0  0  0  0  0  0  0  0  0  0  0
    0.5158    2.8407    2.3664 C   0  0  0  0  0  0  0  0  0  0  0  0
    0.2457    2.1212    3.5463 C   0  0  0  0  0  0  0  0  0  0  0  0
    0.0367    2.7673    4.7739 C   0  0  0  0  0  0  0  0  0  0  0  0
    0.1260    4.1520    4.8499 C   0  0  0  0  0  0  0  0  0  0  0  0
    0.4166    4.8837    3.7161 C   0  0  0  0  0  0  0  0  0  0  0  0
    0.5267    4.2400    2.4947 C   0  0  0  0  0  0  0  0  0  0  0  0
   -0.1952    4.8898    6.0388 C   0  0  0  0  0  0  0  0  0  0  0  0
    0.3903    4.7434    7.2634 C   0  0  0  0  0  0  0  0  0  0  0  0
   -0.1444    5.7272    8.0453 N   0  0  0  0  0  0  0  0  0  0  0  0
   -1.0514    6.4916    7.4084 N   0  0  0  0  0  0  0  0  0  0  0  0
   -1.0796    5.9819    6.1776 C   0  0  0  0  0  0  0  0  0  0  0  0
    0.9616    0.1292   -0.9356 H   0  0  0  0  0  0  0  0  0  0  0  0
    2.2248   -0.0972    0.0332 H   0  0  0  0  0  0  0  0  0  0  0  0
   -0.4978    0.4861    1.0222 H   0  0  0  0  0  0  0  0  0  0  0  0
    0.9396    0.1369    1.9643 H   0  0  0  0  0  0  0  0  0  0  0  0
    2.0510    2.1742    1.0741 H   0  0  0  0  0  0  0  0  0  0  0  0
    1.6964    4.6735    0.1627 H   0  0  0  0  0  0  0  0  0  0  0  0
    0.7845    5.9692   -1.6760 H   0  0  0  0  0  0  0  0  0  0  0  0
   -0.9631    2.3817   -3.2766 H   0  0  0  0  0  0  0  0  0  0  0  0
   -0.6187    1.2638   -1.1665 H   0  0  0  0  0  0  0  0  0  0  0  0
    0.1678    1.0389    3.5601 H   0  0  0  0  0  0  0  0  0  0  0  0
   -0.2119    2.1761    5.6504 H   0  0  0  0  0  0  0  0  0  0  0  0
    0.5312    5.9656    3.7527 H   0  0  0  0  0  0  0  0  0  0  0  0
    0.5883    4.9249    1.6680 H   0  0  0  0  0  0  0  0  0  0  0  0
    1.1518    4.0680    7.6359 H   0  0  0  0  0  0  0  0  0  0  0  0
    0.0701    5.9482    9.0071 H   0  0  0  0  0  0  0  0  0  0  0  0
   -1.7220    6.4214    5.4243 H   0  0  0  0  0  0  0  0  0  0  0  0
  1 22  1  0  0  0  0
  1 23  1  0  0  0  0
  2  1  1  0  0  0  0
  2  3  1  0  0  0  0
  2 24  1  0  0  0  0
  2 25  1  0  0  0  0
  3  4  1  0  0  0  0
  3 11  1  0  0  0  0
  3 26  1  1  0  0  0
  4  5  1  0  0  0  0
  5  6  2  0  0  0  0
  5 27  1  0  0  0  0
  6  7  1  0  0  0  0
  6 28  1  0  0  0  0
  7  8  1  0  0  0  0
  7  9  2  0  0  0  0
  9 29  1  0  0  0  0
 10  4  2  0  0  0  0
 10  9  1  0  0  0  0
 10 30  1  0  0  0  0
 11 12  1  0  0  0  0
 11 16  2  0  0  0  0
 12 13  2  0  0  0  0
 12 31  1  0  0  0  0
 13 14  1  0  0  0  0
 13 32  1  0  0  0  0
 14 15  2  0  0  0  0
 14 17  1  0  0  0  0
 15 16  1  0  0  0  0
 15 33  1  0  0  0  0
 16 34  1  0  0  0  0
 17 18  2  0  0  0  0
 17 21  1  0  0  0  0
 18 19  1  0  0  0  0
 18 35  1  0  0  0  0
 19 20  1  0  0  0  0
 19 36  1  0  0  0  0
 21 20  2  0  0  0  0
 21 37  1  0  0  0  0
M  END
>  <DRUGBANK_ID>
DB07857

>  <COMMON_NAME>
(2R)-2-(4-chlorophenyl)-2-[4-(1H-pyrazol-4-yl)phenyl]ethanamine

$$$$
