1145
 OpenBabel10282417113D

 41 42  0  0  1  0  0  0  0  0999 V2000
    1.0707   -0.0405    0.0540 S   0  0  0  0  0  0  0  0  0  0  0  0
   -1.0899    7.4920    1.9191 S   0  0  3  0  0  0  0  0  0  0  0  0
    8.9142   -1.2765   -1.1828 S   0  0  3  0  0  0  0  0  0  0  0  0
    0.6614   -0.6006   -1.2262 O   0  0  0  0  0  0  0  0  0  0  0  0
    0.6691   -0.6710    1.2947 O   0  0  0  0  0  0  0  0  0  0  0  0
   -2.2236    7.6726    3.0533 O   0  0  0  0  0  0  0  0  0  0  0  0
    9.4691   -2.7684   -0.9175 O   0  0  0  0  0  0  0  0  0  0  0  0
    0.1169    6.9532    2.6260 O   0  0  0  0  0  0  0  0  0  0  0  0
    8.0262   -1.3764   -2.3859 O   0  0  0  0  0  0  0  0  0  0  0  0
   -1.1650    5.5260    0.0076 N   0  0  0  0  0  0  0  0  0  0  0  0
    7.0539   -0.0538    0.4209 N   0  0  0  0  0  0  0  0  0  0  0  0
    0.4497    1.6266    0.0802 C   0  0  0  0  0  0  0  0  0  0  0  0
    2.8463   -0.0168    0.0704 C   0  0  0  0  0  0  0  0  0  0  0  0
    0.7481    2.4968   -0.9697 C   0  0  0  0  0  0  0  0  0  0  0  0
    3.5665    1.1737    0.1418 C   0  0  0  0  0  0  0  0  0  0  0  0
   -0.3813    2.0426    1.1109 C   0  0  0  0  0  0  0  0  0  0  0  0
    3.5194   -1.2318    0.1050 C   0  0  0  0  0  0  0  0  0  0  0  0
   -0.6176    4.2487    0.0626 C   0  0  0  0  0  0  0  0  0  0  0  0
    5.6713   -0.0664    0.2712 C   0  0  0  0  0  0  0  0  0  0  0  0
    0.2335    3.8027   -0.9631 C   0  0  0  0  0  0  0  0  0  0  0  0
    4.9653    1.1446    0.2310 C   0  0  0  0  0  0  0  0  0  0  0  0
   -0.9569    3.3145    1.0510 C   0  0  0  0  0  0  0  0  0  0  0  0
    4.9071   -1.2411    0.2737 C   0  0  0  0  0  0  0  0  0  0  0  0
   -1.9618    6.0972    1.0895 C   0  0  0  0  0  0  0  0  0  0  0  0
    7.8651   -1.2628    0.3302 C   0  0  0  0  0  0  0  0  0  0  0  0
   -2.9239    8.2985    2.7617 H   0  0  0  0  0  0  0  0  0  0  0  0
   10.2809   -2.7533   -0.3628 H   0  0  0  0  0  0  0  0  0  0  0  0
   -0.6957    6.1888   -0.6003 H   0  0  0  0  0  0  0  0  0  0  0  0
    7.5168    0.8133    0.1682 H   0  0  0  0  0  0  0  0  0  0  0  0
    1.3960    2.1726   -1.7820 H   0  0  0  0  0  0  0  0  0  0  0  0
    3.0780    2.1408    0.1418 H   0  0  0  0  0  0  0  0  0  0  0  0
   -0.6142    1.3984    1.9553 H   0  0  0  0  0  0  0  0  0  0  0  0
    2.9874   -2.1776    0.0273 H   0  0  0  0  0  0  0  0  0  0  0  0
    0.5010    4.4597   -1.7884 H   0  0  0  0  0  0  0  0  0  0  0  0
    5.4874    2.0977    0.2886 H   0  0  0  0  0  0  0  0  0  0  0  0
   -1.6933    3.5372    1.8131 H   0  0  0  0  0  0  0  0  0  0  0  0
    5.3621   -2.2129    0.4184 H   0  0  0  0  0  0  0  0  0  0  0  0
   -2.8811    6.5093    0.6645 H   0  0  0  0  0  0  0  0  0  0  0  0
   -2.2444    5.3996    1.8768 H   0  0  0  0  0  0  0  0  0  0  0  0
    8.5461   -1.2851    1.1850 H   0  0  0  0  0  0  0  0  0  0  0  0
    7.3061   -2.1975    0.3269 H   0  0  0  0  0  0  0  0  0  0  0  0
  1  4  2  0  0  0  0
  1  5  2  0  0  0  0
  1 12  1  0  0  0  0
  1 13  1  0  0  0  0
  2  6  1  0  0  0  0
  2  8  2  0  0  0  0
  2 24  1  0  0  0  0
  3  7  1  0  0  0  0
  3  9  2  0  0  0  0
  3 25  1  0  0  0  0
  6 26  1  0  0  0  0
  7 27  1  0  0  0  0
 10 18  1  0  0  0  0
 10 24  1  0  0  0  0
 10 28  1  0  0  0  0
 11 19  1  0  0  0  0
 11 25  1  0  0  0  0
 11 29  1  0  0  0  0
 12 14  2  0  0  0  0
 12 16  1  0  0  0  0
 13 15  2  0  0  0  0
 13 17  1  0  0  0  0
 14 20  1  0  0  0  0
 14 30  1  0  0  0  0
 15 21  1  0  0  0  0
 15 31  1  0  0  0  0
 16 22  2  0  0  0  0
 16 32  1  0  0  0  0
 17 23  2  0  0  0  0
 17 33  1  0  0  0  0
 18 20  2  0  0  0  0
 18 22  1  0  0  0  0
 19 21  2  0  0  0  0
 19 23  1  0  0  0  0
 20 34  1  0  0  0  0
 21 35  1  0  0  0  0
 22 36  1  0  0  0  0
 23 37  1  0  0  0  0
 24 38  1  0  0  0  0
 24 39  1  0  0  0  0
 25 40  1  0  0  0  0
 25 41  1  0  0  0  0
M  END
>  <DRUGBANK_ID>
DB01145

>  <SECONDARY_ACCESSION_NUMBERS>
APRD00704

>  <COMMON_NAME>
Sulfoxone

>  <CAS_NUMBER>
144-76-3

>  <UNII>
0G3C18OH4D

>  <SYNONYMS>
Aldesulfone; Aldesulphone

$$$$
