657
 OpenBabel10282417103D

 33 34  0  0  1  0  0  0  0  0999 V2000
    0.9837   -0.1092   -0.0701 N   0  0  0  0  0  0  0  0  0  0  0  0
    1.4462    2.0713   -1.2869 C   0  0  0  0  0  0  0  0  0  0  0  0
    0.6113    0.6953   -1.2655 C   0  0  3  0  0  0  0  0  0  0  0  0
    0.3103    3.1476   -1.1634 C   0  0  3  0  0  0  0  0  0  0  0  0
   -0.8585    1.2481   -1.1301 C   0  0  3  0  0  0  0  0  0  0  0  0
   -0.6964    2.4732   -0.2237 C   0  0  0  0  0  0  0  0  0  0  0  0
   -0.5250    3.2397   -2.4538 C   0  0  0  0  0  0  0  0  0  0  0  0
   -1.3333    1.9379   -2.4308 C   0  0  0  0  0  0  0  0  0  0  0  0
    2.4252    2.2578   -0.0927 C   0  0  0  0  0  0  0  0  0  0  0  0
    2.3114    2.2575   -2.5467 C   0  0  0  0  0  0  0  0  0  0  0  0
    0.7826   -0.1656   -2.5344 C   0  0  0  0  0  0  0  0  0  0  0  0
    0.5179   -1.4930   -0.0567 C   0  0  0  0  0  0  0  0  0  0  0  0
    1.9968   -0.1468   -0.0053 H   0  0  0  0  0  0  0  0  0  0  0  0
    0.6616    4.1251   -0.8205 H   0  0  0  0  0  0  0  0  0  0  0  0
   -1.5823    0.5143   -0.7653 H   0  0  0  0  0  0  0  0  0  0  0  0
   -1.6237    3.0500   -0.1135 H   0  0  0  0  0  0  0  0  0  0  0  0
   -0.3084    2.2466    0.7721 H   0  0  0  0  0  0  0  0  0  0  0  0
    0.0693    3.3518   -3.3628 H   0  0  0  0  0  0  0  0  0  0  0  0
   -1.2035    4.1001   -2.4164 H   0  0  0  0  0  0  0  0  0  0  0  0
   -1.1925    1.3425   -3.3344 H   0  0  0  0  0  0  0  0  0  0  0  0
   -2.4033    2.1703   -2.3769 H   0  0  0  0  0  0  0  0  0  0  0  0
    3.2376    1.5222   -0.1310 H   0  0  0  0  0  0  0  0  0  0  0  0
    2.8974    3.2470   -0.1258 H   0  0  0  0  0  0  0  0  0  0  0  0
    1.9369    2.1716    0.8831 H   0  0  0  0  0  0  0  0  0  0  0  0
    1.7547    2.1383   -3.4780 H   0  0  0  0  0  0  0  0  0  0  0  0
    2.7570    3.2574   -2.5703 H   0  0  0  0  0  0  0  0  0  0  0  0
    3.1249    1.5239   -2.5666 H   0  0  0  0  0  0  0  0  0  0  0  0
    1.7946   -0.5809   -2.5906 H   0  0  0  0  0  0  0  0  0  0  0  0
    0.0652   -0.9942   -2.5529 H   0  0  0  0  0  0  0  0  0  0  0  0
    0.6155    0.3813   -3.4635 H   0  0  0  0  0  0  0  0  0  0  0  0
    0.9661   -2.0813   -0.8647 H   0  0  0  0  0  0  0  0  0  0  0  0
    0.8421   -1.9711    0.8737 H   0  0  0  0  0  0  0  0  0  0  0  0
   -0.5695   -1.5616   -0.1103 H   0  0  0  0  0  0  0  0  0  0  0  0
  1  3  1  0  0  0  0
  1 12  1  0  0  0  0
  1 13  1  0  0  0  0
  2  3  1  0  0  0  0
  2  4  1  0  0  0  0
  2  9  1  0  0  0  0
  2 10  1  0  0  0  0
  3  5  1  0  0  0  0
  3 11  1  0  0  0  0
  4  6  1  0  0  0  0
  4  7  1  0  0  0  0
  4 14  1  0  0  0  0
  5  6  1  0  0  0  0
  5  8  1  0  0  0  0
  5 15  1  0  0  0  0
  6 16  1  0  0  0  0
  6 17  1  0  0  0  0
  7  8  1  0  0  0  0
  7 18  1  0  0  0  0
  7 19  1  0  0  0  0
  8 20  1  0  0  0  0
  8 21  1  0  0  0  0
  9 22  1  0  0  0  0
  9 23  1  0  0  0  0
  9 24  1  0  0  0  0
 10 25  1  0  0  0  0
 10 26  1  0  0  0  0
 10 27  1  0  0  0  0
 11 28  1  0  0  0  0
 11 29  1  0  0  0  0
 11 30  1  0  0  0  0
 12 31  1  0  0  0  0
 12 32  1  0  0  0  0
 12 33  1  0  0  0  0
M  END
>  <DRUGBANK_ID>
DB00657

>  <SECONDARY_ACCESSION_NUMBERS>
APRD00458

>  <COMMON_NAME>
Mecamylamine

>  <CAS_NUMBER>
60-40-2

>  <SYNONYMS>
Mecamylamine

$$$$
