
 OpenBabel10282417133D

 56 55  0  0  0  0  0  0  0  0999 V2000
    1.1152   -0.0044    0.0273 C   0  0  0  0  0  0  0  0  0  0  0  0
   -1.5013   -3.4317    1.8621 C   0  0  0  0  0  0  0  0  0  0  0  0
    0.6380   -1.4242   -0.2467 C   0  0  0  0  0  0  0  0  0  0  0  0
   -0.9409   -2.0567    2.1821 C   0  0  0  0  0  0  0  0  0  0  0  0
    1.1433   -2.4136    0.8020 C   0  0  0  0  0  0  0  0  0  0  0  0
    0.5869   -2.1883    2.2074 C   0  0  0  0  0  0  0  0  0  0  0  0
    1.1471    1.9702    1.6403 C   0  0  0  0  0  0  0  0  0  0  0  0
   -1.4854   -3.9570    4.3145 C   0  0  0  0  0  0  0  0  0  0  0  0
    0.6700    0.5774    1.3673 C   0  0  0  0  0  0  0  0  0  0  0  0
   -1.0162   -4.4170    2.9277 C   0  0  0  0  0  0  0  0  0  0  0  0
   -0.9850    2.8179    0.6575 C   0  0  0  0  0  0  0  0  0  0  0  0
   -3.5733   -5.3324    4.0378 C   0  0  0  0  0  0  0  0  0  0  0  0
    0.5519    2.8912    0.6122 C   0  0  0  0  0  0  0  0  0  0  0  0
   -3.0149   -3.9477    4.3670 C   0  0  0  0  0  0  0  0  0  0  0  0
   -1.0306    4.6929    2.3607 C   0  0  0  0  0  0  0  0  0  0  0  0
   -1.5293    3.2916    2.0113 C   0  0  0  0  0  0  0  0  0  0  0  0
   -3.0592   -6.3553    5.0379 C   0  0  0  0  0  0  0  0  0  0  0  0
   -1.5067    5.7265    1.3646 C   0  0  0  0  0  0  0  0  0  0  0  0
   -2.2741    6.6303    1.5983 O   0  0  0  0  0  0  0  0  0  0  0  0
   -1.0025    5.5534    0.1233 O   0  0  0  0  0  0  0  0  0  0  0  0
    0.7482    0.6082   -0.8011 H   0  0  0  0  0  0  0  0  0  0  0  0
    2.2083    0.0153   -0.0094 H   0  0  0  0  0  0  0  0  0  0  0  0
   -2.5917   -3.3854    1.7948 H   0  0  0  0  0  0  0  0  0  0  0  0
   -1.1830   -3.7583    0.8675 H   0  0  0  0  0  0  0  0  0  0  0  0
   -0.4548   -1.4438   -0.3465 H   0  0  0  0  0  0  0  0  0  0  0  0
    1.0023   -1.7356   -1.2330 H   0  0  0  0  0  0  0  0  0  0  0  0
   -1.3080   -1.6455    3.1290 H   0  0  0  0  0  0  0  0  0  0  0  0
   -1.3369   -1.3469    1.4518 H   0  0  0  0  0  0  0  0  0  0  0  0
    0.8748   -3.4249    0.4744 H   0  0  0  0  0  0  0  0  0  0  0  0
    2.2356   -2.3922    0.8346 H   0  0  0  0  0  0  0  0  0  0  0  0
    0.9531   -2.9753    2.8609 H   0  0  0  0  0  0  0  0  0  0  0  0
    1.0513   -1.3987    2.7740 H   0  0  0  0  0  0  0  0  0  0  0  0
    0.8527    2.2363    2.6657 H   0  0  0  0  0  0  0  0  0  0  0  0
    2.2410    1.9815    1.6399 H   0  0  0  0  0  0  0  0  0  0  0  0
   -1.0521   -4.6020    5.0818 H   0  0  0  0  0  0  0  0  0  0  0  0
   -1.1032   -2.9655    4.5836 H   0  0  0  0  0  0  0  0  0  0  0  0
   -0.4089    0.4725    1.5117 H   0  0  0  0  0  0  0  0  0  0  0  0
    1.1532    0.1085    2.1949 H   0  0  0  0  0  0  0  0  0  0  0  0
   -1.3415   -5.4242    2.6715 H   0  0  0  0  0  0  0  0  0  0  0  0
    0.0689   -4.5384    2.9333 H   0  0  0  0  0  0  0  0  0  0  0  0
   -1.4006    3.3951   -0.1675 H   0  0  0  0  0  0  0  0  0  0  0  0
   -1.3674    1.8135    0.4452 H   0  0  0  0  0  0  0  0  0  0  0  0
   -4.6648   -5.3013    4.0432 H   0  0  0  0  0  0  0  0  0  0  0  0
   -3.3003   -5.6419    3.0216 H   0  0  0  0  0  0  0  0  0  0  0  0
    0.9436    3.8925    0.7934 H   0  0  0  0  0  0  0  0  0  0  0  0
    0.9100    2.6258   -0.3847 H   0  0  0  0  0  0  0  0  0  0  0  0
   -3.3491   -3.6204    5.3554 H   0  0  0  0  0  0  0  0  0  0  0  0
   -3.4267   -3.2103    3.6663 H   0  0  0  0  0  0  0  0  0  0  0  0
   -1.4018    4.9698    3.3515 H   0  0  0  0  0  0  0  0  0  0  0  0
    0.0604    4.7421    2.4422 H   0  0  0  0  0  0  0  0  0  0  0  0
   -2.6238    3.2605    1.9977 H   0  0  0  0  0  0  0  0  0  0  0  0
   -1.2340    2.5943    2.8088 H   0  0  0  0  0  0  0  0  0  0  0  0
   -3.3634   -6.0662    6.0478 H   0  0  0  0  0  0  0  0  0  0  0  0
   -3.4454   -7.3482    4.8092 H   0  0  0  0  0  0  0  0  0  0  0  0
   -1.9668   -6.4347    5.0275 H   0  0  0  0  0  0  0  0  0  0  0  0
   -1.5010    6.1520   -0.4681 H   0  0  0  0  0  0  0  0  0  0  0  0
  1  9  1  0  0  0  0
  1 21  1  0  0  0  0
  1 22  1  0  0  0  0
  2 10  1  0  0  0  0
  2 23  1  0  0  0  0
  2 24  1  0  0  0  0
  3  1  1  0  0  0  0
  3 25  1  0  0  0  0
  3 26  1  0  0  0  0
  4  2  1  0  0  0  0
  4 27  1  0  0  0  0
  4 28  1  0  0  0  0
  5  3  1  0  0  0  0
  5 29  1  0  0  0  0
  5 30  1  0  0  0  0
  6  4  1  0  0  0  0
  6  5  1  0  0  0  0
  6 31  1  0  0  0  0
  6 32  1  0  0  0  0
  7 13  1  0  0  0  0
  7 33  1  0  0  0  0
  7 34  1  0  0  0  0
  8 14  1  0  0  0  0
  8 35  1  0  0  0  0
  8 36  1  0  0  0  0
  9  7  1  0  0  0  0
  9 37  1  0  0  0  0
  9 38  1  0  0  0  0
 10  8  1  0  0  0  0
 10 39  1  0  0  0  0
 10 40  1  0  0  0  0
 11 16  1  0  0  0  0
 11 41  1  0  0  0  0
 11 42  1  0  0  0  0
 12 17  1  0  0  0  0
 12 43  1  0  0  0  0
 12 44  1  0  0  0  0
 13 11  1  0  0  0  0
 13 45  1  0  0  0  0
 13 46  1  0  0  0  0
 14 12  1  0  0  0  0
 14 47  1  0  0  0  0
 14 48  1  0  0  0  0
 15 18  1  0  0  0  0
 15 49  1  0  0  0  0
 15 50  1  0  0  0  0
 16 15  1  0  0  0  0
 16 51  1  0  0  0  0
 16 52  1  0  0  0  0
 17 53  1  0  0  0  0
 17 54  1  0  0  0  0
 17 55  1  0  0  0  0
 18 19  2  0  0  0  0
 18 20  1  0  0  0  0
 20 56  1  0  0  0  0
M  END
>  <DRUGBANK_ID>
DB03193

>  <SECONDARY_ACCESSION_NUMBERS>
EXPT02965

>  <COMMON_NAME>
Stearic acid

>  <CAS_NUMBER>
57-11-4

>  <UNII>
4ELV7Z65AP

>  <SYNONYMS>
Acide octadécanoïque; Acide stéarique; C18:0; n-octadecanoic acid; Octadecanoic acid; Octadecansäure; Octadecoic acid; Oktadekansäure; Stearic acid; Stearinsäure

$$$$
