
 OpenBabel10282417143D

 33 32  0  0  1  0  0  0  0  0999 V2000
    2.9385    8.3466    0.6642 C   0  0  0  0  0  0  0  0  0  0  0  0
    1.6740    8.9589    0.0672 C   0  0  0  0  0  0  0  0  0  0  0  0
    0.5361    8.6626    0.4795 O   0  0  0  0  0  0  0  0  0  0  0  0
    1.9299    9.5657   -1.1663 O   0  0  0  0  0  0  0  0  0  0  0  0
    0.8743    9.4837   -2.2241 C   0  0  0  0  0  0  0  0  0  0  0  0
    0.7319    8.0421   -2.6939 C   0  0  2  0  0  0  0  0  0  0  0  0
    1.5285    7.3881   -1.7216 O   0  0  0  0  0  0  0  0  0  0  0  0
    1.3925    7.4475   -3.9692 C   0  0  0  0  0  0  0  0  0  0  0  0
    1.3950    6.0045   -4.1398 O   0  0  0  0  0  0  0  0  0  0  0  0
    0.1428    4.9786   -4.2248 P   0  0  2  0  0  0  0  0  0  0  0  0
    0.9735    3.7480   -4.8371 O   0  0  0  0  0  0  0  0  0  0  0  0
   -1.0386    5.4510   -4.9809 O   0  0  0  0  0  0  0  0  0  0  0  0
   -0.0348    4.3713   -2.7165 O   0  0  0  0  0  0  0  0  0  0  0  0
    0.4227    5.2552   -1.7186 C   0  0  0  0  0  0  0  0  0  0  0  0
    1.9549    5.0687   -1.4098 C   0  0  0  0  0  0  0  0  0  0  0  0
    2.7163    4.6012   -2.6026 N   0  3  0  0  0  0  0  0  0  0  0  0
    2.7072    7.8488    1.6146 H   0  0  0  0  0  0  0  0  0  0  0  0
    3.7009    9.1045    0.8238 H   0  0  0  0  0  0  0  0  0  0  0  0
    3.3655    7.5566    0.0318 H   0  0  0  0  0  0  0  0  0  0  0  0
   -0.0722    9.8403   -1.8013 H   0  0  0  0  0  0  0  0  0  0  0  0
    1.1359   10.0672   -3.1058 H   0  0  0  0  0  0  0  0  0  0  0  0
   -0.3365    7.7873   -2.6110 H   0  0  0  0  0  0  0  0  0  0  0  0
    2.3880    7.8552   -1.7464 H   0  0  0  0  0  0  0  0  0  0  0  0
    1.0893    7.9088   -4.8968 H   0  0  0  0  0  0  0  0  0  0  0  0
    2.4728    7.6085   -3.8321 H   0  0  0  0  0  0  0  0  0  0  0  0
    1.3165    3.9518   -5.7270 H   0  0  0  0  0  0  0  0  0  0  0  0
    0.1466    6.1111   -2.2707 H   0  0  0  0  0  0  0  0  0  0  0  0
   -0.2152    5.5194   -0.8621 H   0  0  0  0  0  0  0  0  0  0  0  0
    2.5758    5.8999   -1.0656 H   0  0  0  0  0  0  0  0  0  0  0  0
    2.0695    4.3530   -0.6062 H   0  0  0  0  0  0  0  0  0  0  0  0
    2.8001    5.3680   -3.2942 H   0  0  0  0  0  0  0  0  0  0  0  0
    3.6630    4.2684   -2.4031 H   0  0  0  0  0  0  0  0  0  0  0  0
    2.1771    3.8695   -3.0873 H   0  0  0  0  0  0  0  0  0  0  0  0
  1  2  1  0  0  0  0
  1 17  1  0  0  0  0
  1 18  1  0  0  0  0
  1 19  1  0  0  0  0
  2  3  2  0  0  0  0
  2  4  1  0  0  0  0
  4  5  1  0  0  0  0
  5 20  1  0  0  0  0
  5 21  1  0  0  0  0
  6  8  1  0  0  0  0
  6 22  1  1  0  0  0
  6  7  1  0  0  0  0
  6  5  1  0  0  0  0
  7 23  1  0  0  0  0
  8  9  1  0  0  0  0
  8 24  1  0  0  0  0
  8 25  1  0  0  0  0
 10 12  2  6  0  0  0
 10 13  1  0  0  0  0
 10 11  1  0  0  0  0
 10  9  1  0  0  0  0
 11 26  1  0  0  0  0
 13 14  1  0  0  0  0
 14 15  1  0  0  0  0
 14 27  1  0  0  0  0
 14 28  1  0  0  0  0
 15 16  1  0  0  0  0
 15 29  1  0  0  0  0
 15 30  1  0  0  0  0
 16 31  1  0  0  0  0
 16 32  1  0  0  0  0
 16 33  1  0  0  0  0
M  CHG  1  16   1
M  END
>  <DRUGBANK_ID>
DB04731

>  <COMMON_NAME>
1-ACETYL-2-LYSO-SN-GLYCERO-3-PHOSPHOETHANOLAMINE

$$$$
