
 OpenBabel10282417133D

 71 75  0  0  1  0  0  0  0  0999 V2000
   -0.7871    1.1426    0.0624 C   0  0  0  0  0  0  0  0  0  0  0  0
   -1.4026   -0.1019   -0.0288 C   0  0  0  0  0  0  0  0  0  0  0  0
    0.5904    1.2161   -0.0268 C   0  0  0  0  0  0  0  0  0  0  0  0
    0.7436   -1.1336    0.0137 C   0  0  0  0  0  0  0  0  0  0  0  0
    9.1630   -3.9762    1.2966 C   0  0  0  0  0  0  0  0  0  0  0  0
    6.2905   -2.7644    4.1464 C   0  0  0  0  0  0  0  0  0  0  0  0
    5.0540   -7.5516    4.5309 C   0  0  0  0  0  0  0  0  0  0  0  0
    4.0058   -2.6908   -1.2326 C   0  0  0  0  0  0  0  0  0  0  0  0
   -0.6336   -1.2690   -0.0483 C   0  0  0  0  0  0  0  0  0  0  0  0
    7.5435   -4.6919    2.9889 C   0  0  0  0  0  0  0  0  0  0  0  0
    7.5351   -5.5512    1.4710 C   0  0  0  0  0  0  0  0  0  0  0  0
    8.2679   -3.7233    3.4502 C   0  0  0  0  0  0  0  0  0  0  0  0
    5.4856   -6.4357    5.8758 C   0  0  2  0  0  0  0  0  0  0  0  0
    4.4349   -1.2117   -1.1378 C   0  0  2  0  0  0  0  0  0  0  0  0
    4.3733   -5.4858    6.3890 C   0  0  2  0  0  0  0  0  0  0  0  0
    4.8638   -0.7290    0.2553 C   0  0  2  0  0  0  0  0  0  0  0  0
    4.7163   -4.0859    5.8410 C   0  0  2  0  0  0  0  0  0  0  0  0
    3.5550   -0.3093    0.9193 C   0  0  2  0  0  0  0  0  0  0  0  0
    6.4567   -4.1616    5.9238 C   0  0  2  0  0  0  0  0  0  0  0  0
    2.7992    0.2451   -0.2579 C   0  0  2  0  0  0  0  0  0  0  0  0
   -1.3163   -2.5818   -0.1837 C   0  0  0  0  0  0  0  0  0  0  0  0
    6.6566   -6.4650    0.7134 N   0  0  0  0  0  0  0  0  0  0  0  0
    8.5207   -5.0536    0.7336 N   0  0  0  0  0  0  0  0  0  0  0  0
    9.0732   -3.1571    2.4850 N   0  0  0  0  0  0  0  0  0  0  0  0
    6.1942   -4.1147    3.9658 N   0  0  0  0  0  0  0  0  0  0  0  0
    7.4025   -3.2360    4.7596 N   0  0  0  0  0  0  0  0  0  0  0  0
    1.3356    0.0919   -0.0728 N   0  3  0  0  0  0  0  0  0  0  0  0
    4.5567   -5.3297    7.8097 O   0  0  0  0  0  0  0  0  0  0  0  0
    5.7984    0.3320    0.2943 O   0  0  0  0  0  0  0  0  0  0  0  0
    4.2307   -2.9551    6.5794 O   0  0  0  0  0  0  0  0  0  0  0  0
    3.7383    0.5665    2.0146 O   0  0  0  0  0  0  0  0  0  0  0  0
    6.7676   -6.2296    3.9895 O   0  0  0  0  0  0  0  0  0  0  0  0
    3.9423   -2.6715    2.3157 O   0  0  0  0  0  0  0  0  0  0  0  0
   -0.5565   -3.6891   -0.2131 O   0  0  0  0  0  0  0  0  0  0  0  0
   -2.5283   -2.6315   -0.3229 O   0  0  0  0  0  0  0  0  0  0  0  0
    4.0058   -5.4762    3.6364 O   0  0  0  0  0  0  0  0  0  0  0  0
    4.3103   -4.8721    0.9843 O   0  0  0  0  0  0  0  0  0  0  0  0
    6.7599   -5.5764    6.0292 O   0  0  0  0  0  0  0  0  0  0  0  0
    3.2396   -0.4351   -1.4384 O   0  0  0  0  0  0  0  0  0  0  0  0
    5.5112   -7.2985    3.0391 O   0  0  0  0  0  0  0  0  0  0  0  0
    3.5125   -3.0977    0.0339 O   0  0  0  0  0  0  0  0  0  0  0  0
    6.0519   -3.7832    2.2819 O   0  0  0  0  0  0  0  0  0  0  0  0
    5.3068   -5.6785    2.9311 P   0  0  3  0  0  0  0  0  0  0  0  0
    4.7822   -3.4405    1.1579 P   0  0  3  0  0  0  0  0  0  0  0  0
   -1.3754    2.0507    0.1680 H   0  0  0  0  0  0  0  0  0  0  0  0
   -2.4909   -0.1558   -0.0840 H   0  0  0  0  0  0  0  0  0  0  0  0
    1.1076    2.1707   -0.0729 H   0  0  0  0  0  0  0  0  0  0  0  0
    1.3913   -1.9893    0.1368 H   0  0  0  0  0  0  0  0  0  0  0  0
    9.9986   -3.6836    0.6662 H   0  0  0  0  0  0  0  0  0  0  0  0
    5.4258   -2.1223    4.4357 H   0  0  0  0  0  0  0  0  0  0  0  0
    3.9655   -7.5403    4.4305 H   0  0  0  0  0  0  0  0  0  0  0  0
    5.2383   -8.5939    4.8321 H   0  0  0  0  0  0  0  0  0  0  0  0
    3.1835   -2.7987   -1.9520 H   0  0  0  0  0  0  0  0  0  0  0  0
    4.7973   -3.3840   -1.5404 H   0  0  0  0  0  0  0  0  0  0  0  0
    5.7253   -7.1888    6.6300 H   0  0  0  0  0  0  0  0  0  0  0  0
    5.1865   -0.9979   -1.9013 H   0  0  0  0  0  0  0  0  0  0  0  0
    3.3570   -5.8576    6.1956 H   0  0  0  0  0  0  0  0  0  0  0  0
    5.4525   -1.4576    0.7820 H   0  0  0  0  0  0  0  0  0  0  0  0
    4.1399   -3.9442    4.9136 H   0  0  0  0  0  0  0  0  0  0  0  0
    2.9366   -1.1143    1.3057 H   0  0  0  0  0  0  0  0  0  0  0  0
    6.7893   -3.5184    6.7219 H   0  0  0  0  0  0  0  0  0  0  0  0
    3.0387    1.3044   -0.3749 H   0  0  0  0  0  0  0  0  0  0  0  0
    5.7974   -6.9676    0.9818 H   0  0  0  0  0  0  0  0  0  0  0  0
    7.0243   -6.9712   -0.1135 H   0  0  0  0  0  0  0  0  0  0  0  0
    5.4902   -5.0663    7.9101 H   0  0  0  0  0  0  0  0  0  0  0  0
    5.5299    1.0885   -0.2387 H   0  0  0  0  0  0  0  0  0  0  0  0
    4.6261   -3.0352    7.4573 H   0  0  0  0  0  0  0  0  0  0  0  0
    4.4401    1.2119    1.8000 H   0  0  0  0  0  0  0  0  0  0  0  0
    7.7053   -6.4679    3.7280 H   0  0  0  0  0  0  0  0  0  0  0  0
    4.3312   -1.8118    2.5757 H   0  0  0  0  0  0  0  0  0  0  0  0
    0.4046   -3.7285   -0.0679 H   0  0  0  0  0  0  0  0  0  0  0  0
  1  2  2  0  0  0  0
  1  3  1  0  0  0  0
  1 45  1  0  0  0  0
  2  9  1  0  0  0  0
  2 46  1  0  0  0  0
  3 27  2  0  0  0  0
  3 47  1  0  0  0  0
  4  9  2  0  0  0  0
  4 27  1  0  0  0  0
  4 48  1  0  0  0  0
  5 23  2  0  0  0  0
  5 24  1  0  0  0  0
  5 49  1  0  0  0  0
  6 25  2  0  0  0  0
  6 26  1  0  0  0  0
  6 50  1  0  0  0  0
  7 40  1  0  0  0  0
  7 51  1  0  0  0  0
  7 52  1  0  0  0  0
  8 41  1  0  0  0  0
  8 53  1  0  0  0  0
  8 54  1  0  0  0  0
  9 21  1  0  0  0  0
 10 11  2  0  0  0  0
 10 12  1  0  0  0  0
 10 25  1  0  0  0  0
 11 22  1  0  0  0  0
 11 23  1  0  0  0  0
 12 24  2  0  0  0  0
 12 26  1  0  0  0  0
 13  7  1  0  0  0  0
 13 15  1  0  0  0  0
 13 38  1  0  0  0  0
 13 55  1  1  0  0  0
 14 16  1  0  0  0  0
 14 39  1  0  0  0  0
 14 56  1  6  0  0  0
 14  8  1  0  0  0  0
 15 17  1  0  0  0  0
 15 28  1  0  0  0  0
 15 57  1  6  0  0  0
 16 18  1  0  0  0  0
 16 29  1  0  0  0  0
 16 58  1  1  0  0  0
 17 19  1  0  0  0  0
 17 30  1  0  0  0  0
 17 59  1  6  0  0  0
 18 20  1  0  0  0  0
 18 31  1  0  0  0  0
 18 60  1  1  0  0  0
 19 38  1  0  0  0  0
 19 61  1  1  0  0  0
 19 26  1  0  0  0  0
 20 27  1  0  0  0  0
 20 39  1  0  0  0  0
 20 62  1  6  0  0  0
 21 34  1  0  0  0  0
 21 35  2  0  0  0  0
 22 63  1  0  0  0  0
 22 64  1  0  0  0  0
 28 65  1  0  0  0  0
 29 66  1  0  0  0  0
 30 67  1  0  0  0  0
 31 68  1  0  0  0  0
 32 43  1  0  0  0  0
 32 69  1  0  0  0  0
 33 44  1  0  0  0  0
 33 70  1  0  0  0  0
 34 71  1  0  0  0  0
 36 43  2  0  0  0  0
 37 44  2  0  0  0  0
 40 43  1  0  0  0  0
 41 44  1  0  0  0  0
 42 43  1  0  0  0  0
 42 44  1  0  0  0  0
M  CHG  1  27   1
M  END
>  <DRUGBANK_ID>
DB04099

>  <SECONDARY_ACCESSION_NUMBERS>
EXPT01234

>  <COMMON_NAME>
Deamido-Nad+

$$$$
