
 OpenBabel10282417223D

 58 61  0  0  0  0  0  0  0  0999 V2000
    1.0197    0.0747   -0.0989 C   0  0  0  0  0  0  0  0  0  0  0  0
    0.5345   -0.6934    1.1035 C   0  0  0  0  0  0  0  0  0  0  0  0
    0.9529    0.0856    2.6473 S   0  0  0  0  0  0  0  0  0  0  0  0
    0.5751    1.4866    2.5520 O   0  0  0  0  0  0  0  0  0  0  0  0
    0.3940   -0.7481    3.6788 O   0  0  0  0  0  0  0  0  0  0  0  0
    2.6710    0.0200    2.7025 N   0  0  0  0  0  0  0  0  0  0  0  0
    3.2645   -1.2349    3.3124 C   0  0  0  0  0  0  0  0  0  0  0  0
    2.9913   -1.3197    4.8339 C   0  0  0  0  0  0  0  0  0  0  0  0
    3.4149   -0.0829    5.4937 N   0  0  0  0  0  0  0  0  0  0  0  0
    2.9233    1.1820    4.9225 C   0  0  0  0  0  0  0  0  0  0  0  0
    3.2861    1.2137    3.4187 C   0  0  0  0  0  0  0  0  0  0  0  0
    4.2072   -0.1061    6.6136 C   0  0  0  0  0  0  0  0  0  0  0  0
    5.4684   -0.7153    6.5973 C   0  0  0  0  0  0  0  0  0  0  0  0
    6.3339   -0.6581    7.7056 C   0  0  0  0  0  0  0  0  0  0  0  0
    5.9421   -0.0068    8.8767 C   0  0  0  0  0  0  0  0  0  0  0  0
    6.8067    0.1390    9.9782 N   0  0  0  0  0  0  0  0  0  0  0  0
    6.4186    0.5801   11.2516 C   0  0  0  0  0  0  0  0  0  0  0  0
    7.0739    1.6157   11.7803 N   0  0  0  0  0  0  0  0  0  0  0  0
    6.4715    2.2417   12.8237 C   0  0  0  0  0  0  0  0  0  0  0  0
    5.2711    1.8534   13.4021 C   0  0  0  0  0  0  0  0  0  0  0  0
    4.7425    2.6571   14.5453 C   0  0  0  0  0  0  0  0  0  0  0  0
    3.5744    2.3399   15.2083 N   0  0  0  0  0  0  0  0  0  0  0  0
    5.3724    3.6341   14.9451 O   0  0  0  0  0  0  0  0  0  0  0  0
    4.7173    0.7067   12.8511 C   0  0  0  0  0  0  0  0  0  0  0  0
    3.4684    0.2396   13.3225 N   0  0  0  0  0  0  0  0  0  0  0  0
    2.7263   -0.9276   12.8597 C   0  0  0  0  0  0  0  0  0  0  0  0
    3.2779   -2.3222   12.8088 C   0  0  0  0  0  0  0  0  0  0  0  0
    2.8357   -1.6255   11.5454 C   0  0  0  0  0  0  0  0  0  0  0  0
    5.2913    0.0900   11.7946 N   0  0  0  0  0  0  0  0  0  0  0  0
    4.6873    0.6191    8.8707 C   0  0  0  0  0  0  0  0  0  0  0  0
    3.8147    0.5260    7.7871 C   0  0  0  0  0  0  0  0  0  0  0  0
    0.6571    1.1073   -0.0759 H   0  0  0  0  0  0  0  0  0  0  0  0
    0.6519   -0.3923   -1.0168 H   0  0  0  0  0  0  0  0  0  0  0  0
    2.1117    0.0979   -0.1303 H   0  0  0  0  0  0  0  0  0  0  0  0
   -0.5618   -0.7368    1.0963 H   0  0  0  0  0  0  0  0  0  0  0  0
    0.9051   -1.7221    1.1184 H   0  0  0  0  0  0  0  0  0  0  0  0
    2.9055   -2.1185    2.7789 H   0  0  0  0  0  0  0  0  0  0  0  0
    4.3546   -1.1993    3.1575 H   0  0  0  0  0  0  0  0  0  0  0  0
    1.9310   -1.4505    5.0441 H   0  0  0  0  0  0  0  0  0  0  0  0
    3.4684   -2.2103    5.2552 H   0  0  0  0  0  0  0  0  0  0  0  0
    1.8374    1.2422    5.0510 H   0  0  0  0  0  0  0  0  0  0  0  0
    3.3561    2.0595    5.4167 H   0  0  0  0  0  0  0  0  0  0  0  0
    4.3792    1.1662    3.3012 H   0  0  0  0  0  0  0  0  0  0  0  0
    2.9741    2.1452    2.9360 H   0  0  0  0  0  0  0  0  0  0  0  0
    5.8077   -1.2034    5.6875 H   0  0  0  0  0  0  0  0  0  0  0  0
    7.3193   -1.1063    7.6166 H   0  0  0  0  0  0  0  0  0  0  0  0
    7.6323   -0.4390   10.0099 H   0  0  0  0  0  0  0  0  0  0  0  0
    7.0096    3.1216   13.1725 H   0  0  0  0  0  0  0  0  0  0  0  0
    3.3188    2.9866   15.9487 H   0  0  0  0  0  0  0  0  0  0  0  0
    2.7909    1.8090   14.8553 H   0  0  0  0  0  0  0  0  0  0  0  0
    3.4579    0.3309   14.3295 H   0  0  0  0  0  0  0  0  0  0  0  0
    1.7141   -0.8494   13.2495 H   0  0  0  0  0  0  0  0  0  0  0  0
    4.3393   -2.5010   12.9318 H   0  0  0  0  0  0  0  0  0  0  0  0
    2.6522   -3.1117   13.2121 H   0  0  0  0  0  0  0  0  0  0  0  0
    1.9092   -1.9318   11.0743 H   0  0  0  0  0  0  0  0  0  0  0  0
    3.5877   -1.3167   10.8336 H   0  0  0  0  0  0  0  0  0  0  0  0
    4.3637    1.2066    9.7250 H   0  0  0  0  0  0  0  0  0  0  0  0
    2.8171    0.9447    7.8859 H   0  0  0  0  0  0  0  0  0  0  0  0
  1  2  1  0  0  0  0
  1 32  1  0  0  0  0
  1 33  1  0  0  0  0
  1 34  1  0  0  0  0
  2  3  1  0  0  0  0
  2 35  1  0  0  0  0
  2 36  1  0  0  0  0
  3  4  2  0  0  0  0
  3  5  2  0  0  0  0
  3  6  1  0  0  0  0
  6  7  1  0  0  0  0
  6 11  1  0  0  0  0
  7  8  1  0  0  0  0
  7 37  1  0  0  0  0
  7 38  1  0  0  0  0
  8  9  1  0  0  0  0
  8 39  1  0  0  0  0
  8 40  1  0  0  0  0
  9 10  1  0  0  0  0
  9 12  1  0  0  0  0
 10 11  1  0  0  0  0
 10 41  1  0  0  0  0
 10 42  1  0  0  0  0
 11 43  1  0  0  0  0
 11 44  1  0  0  0  0
 12 13  2  0  0  0  0
 12 31  1  0  0  0  0
 13 14  1  0  0  0  0
 13 45  1  0  0  0  0
 14 15  2  0  0  0  0
 14 46  1  0  0  0  0
 15 16  1  0  0  0  0
 15 30  1  0  0  0  0
 16 17  1  0  0  0  0
 16 47  1  0  0  0  0
 17 18  2  0  0  0  0
 17 29  1  0  0  0  0
 18 19  1  0  0  0  0
 19 20  2  0  0  0  0
 19 48  1  0  0  0  0
 20 21  1  0  0  0  0
 20 24  1  0  0  0  0
 21 22  1  0  0  0  0
 21 23  2  0  0  0  0
 22 49  1  0  0  0  0
 22 50  1  0  0  0  0
 24 25  1  0  0  0  0
 24 29  2  0  0  0  0
 25 26  1  0  0  0  0
 25 51  1  0  0  0  0
 26 27  1  0  0  0  0
 26 28  1  0  0  0  0
 26 52  1  0  0  0  0
 27 28  1  0  0  0  0
 27 53  1  0  0  0  0
 27 54  1  0  0  0  0
 28 55  1  0  0  0  0
 28 56  1  0  0  0  0
 30 31  2  0  0  0  0
 30 57  1  0  0  0  0
 31 58  1  0  0  0  0
M  END
>  <DRUGBANK_ID>
DB15499

>  <COMMON_NAME>
Cerdulatinib

>  <CAS_NUMBER>
1198300-79-6

>  <UNII>
D1LXQ45S1O

>  <SYNONYMS>
4-(cyclopropylamino)-2-((4-(4-(ethanesulfonyl)piperazin-1-yl)phenyl)amino)pyrimidine-5-carboxamide; 5-pyrimidinecarboxamide, 4-(cyclopropylamino)-2-((4-(4-(ethylsulfonyl)-1-piperazinyl)phenyl)amino)-; Cerdulatinib

$$$$
