
 OpenBabel10282417123D

 63 65  0  0  1  0  0  0  0  0999 V2000
   -1.8333   -1.4425    0.0932 C   0  0  1  0  0  0  0  0  0  0  0  0
   -0.8103    0.1420    1.0931 N   0  0  0  0  0  0  0  0  0  0  0  0
   -0.4852   -1.2897    0.8488 C   0  0  2  0  0  0  0  0  0  0  0  0
   -2.0467    0.0155    0.4780 C   0  0  0  0  0  0  0  0  0  0  0  0
    1.6087    0.3929    0.3666 C   0  0  0  0  0  0  0  0  0  0  0  0
    1.1360   -1.4028    0.0456 S   0  0  0  0  0  0  0  0  0  0  0  0
    2.5943    0.8582   -0.7785 C   0  0  0  0  0  0  0  0  0  0  0  0
    2.4932    0.3146    1.5825 C   0  0  0  0  0  0  0  0  0  0  0  0
   -2.9097    0.8477    0.1882 O   0  0  0  0  0  0  0  0  0  0  0  0
   -0.4640   -1.8163    1.8044 H   0  0  0  0  0  0  0  0  0  0  0  0
   -1.9043   -1.9258   -1.3167 N   0  0  0  0  0  0  0  0  0  0  0  0
   -1.8695   -1.2313   -2.4121 C   0  0  0  0  0  0  0  0  0  0  0  0
   -1.4559    0.0427   -2.7341 N   0  0  0  0  0  0  0  0  0  0  0  0
   -0.4438    0.5633   -1.9217 C   0  0  0  0  0  0  0  0  0  0  0  0
   -2.2083    1.0893   -3.3912 C   0  0  0  0  0  0  0  0  0  0  0  0
   -1.3699    1.4979   -4.6200 C   0  0  0  0  0  0  0  0  0  0  0  0
    0.2460    1.8412   -2.2092 C   0  0  0  0  0  0  0  0  0  0  0  0
   -0.1068    2.3700   -4.4501 C   0  0  0  0  0  0  0  0  0  0  0  0
    0.9353    1.8323   -3.5041 C   0  0  0  0  0  0  0  0  0  0  0  0
   -2.0130   -1.7993   -3.3483 H   0  0  0  0  0  0  0  0  0  0  0  0
   -0.0091    4.8316   -1.4895 C   0  0  0  0  0  0  0  0  0  0  0  0
    0.5436    5.9177   -0.6355 C   0  0  0  0  0  0  0  0  0  0  0  0
   -1.0839    4.1255   -1.1080 O   0  0  0  0  0  0  0  0  0  0  0  0
   -1.5938    3.6763    0.1773 C   0  0  0  0  0  0  0  0  0  0  0  0
    0.4795    4.6791   -2.6118 O   0  0  0  0  0  0  0  0  0  0  0  0
    2.0507    5.6795   -0.5017 C   0  0  0  0  0  0  0  0  0  0  0  0
    0.2159    7.1948   -1.4076 C   0  0  0  0  0  0  0  0  0  0  0  0
    0.2445    1.1568    0.7621 C   0  0  2  0  0  0  0  0  0  0  0  0
    0.2948    2.4769    1.5225 C   0  0  0  0  0  0  0  0  0  0  0  0
   -0.6906    3.3884    1.2910 O   0  0  0  0  0  0  0  0  0  0  0  0
    1.2136    2.7786    2.2778 O   0  0  0  0  0  0  0  0  0  0  0  0
   -0.0681    6.0380    0.7341 C   0  0  0  0  0  0  0  0  0  0  0  0
   -2.5537   -2.0446    0.6714 H   0  0  0  0  0  0  0  0  0  0  0  0
    2.8808    1.9165   -0.6862 H   0  0  0  0  0  0  0  0  0  0  0  0
    3.5347    0.2895   -0.8043 H   0  0  0  0  0  0  0  0  0  0  0  0
    2.2489    0.6889   -1.7964 H   0  0  0  0  0  0  0  0  0  0  0  0
    3.3272   -0.3738    1.4181 H   0  0  0  0  0  0  0  0  0  0  0  0
    2.9302    1.2968    1.7729 H   0  0  0  0  0  0  0  0  0  0  0  0
    1.9002   -0.0049    2.4380 H   0  0  0  0  0  0  0  0  0  0  0  0
    0.2567   -0.2188   -1.7499 H   0  0  0  0  0  0  0  0  0  0  0  0
   -1.0831    0.8464   -1.1336 H   0  0  0  0  0  0  0  0  0  0  0  0
   -2.3778    1.9448   -2.7106 H   0  0  0  0  0  0  0  0  0  0  0  0
   -3.2108    0.7466   -3.6492 H   0  0  0  0  0  0  0  0  0  0  0  0
   -2.0277    2.0575   -5.2795 H   0  0  0  0  0  0  0  0  0  0  0  0
   -1.0385    0.5749   -5.1010 H   0  0  0  0  0  0  0  0  0  0  0  0
    0.9217    2.2228   -1.4426 H   0  0  0  0  0  0  0  0  0  0  0  0
   -0.5364    2.5641   -2.1914 H   0  0  0  0  0  0  0  0  0  0  0  0
    0.4025    2.5295   -5.3950 H   0  0  0  0  0  0  0  0  0  0  0  0
   -0.4529    3.3502   -4.1086 H   0  0  0  0  0  0  0  0  0  0  0  0
    1.2847    0.8254   -3.7489 H   0  0  0  0  0  0  0  0  0  0  0  0
    1.8151    2.4831   -3.4099 H   0  0  0  0  0  0  0  0  0  0  0  0
   -2.2379    2.8321   -0.0108 H   0  0  0  0  0  0  0  0  0  0  0  0
   -2.2843    4.4573    0.5019 H   0  0  0  0  0  0  0  0  0  0  0  0
    2.5688    5.7153   -1.4677 H   0  0  0  0  0  0  0  0  0  0  0  0
    2.4889    6.4385    0.1494 H   0  0  0  0  0  0  0  0  0  0  0  0
    2.2578    4.6910   -0.0689 H   0  0  0  0  0  0  0  0  0  0  0  0
   -0.8641    7.2479   -1.6051 H   0  0  0  0  0  0  0  0  0  0  0  0
    0.5084    8.0683   -0.8253 H   0  0  0  0  0  0  0  0  0  0  0  0
    0.7203    7.2317   -2.3800 H   0  0  0  0  0  0  0  0  0  0  0  0
   -0.1331    1.6742   -0.0742 H   0  0  0  0  0  0  0  0  0  0  0  0
   -1.1567    6.0865    0.6657 H   0  0  0  0  0  0  0  0  0  0  0  0
    0.2687    5.2105    1.3462 H   0  0  0  0  0  0  0  0  0  0  0  0
    0.2575    6.9213    1.2738 H   0  0  0  0  0  0  0  0  0  0  0  0
  1  4  1  0  0  0  0
  1 33  1  1  0  0  0
  1 11  1  0  0  0  0
  3  1  1  0  0  0  0
  3  2  1  0  0  0  0
  3  6  1  0  0  0  0
  3 10  1  1  0  0  0
  4  2  1  0  0  0  0
  5 28  1  0  0  0  0
  6  5  1  0  0  0  0
  7  5  1  0  0  0  0
  7 34  1  0  0  0  0
  7 35  1  0  0  0  0
  7 36  1  0  0  0  0
  8  5  1  0  0  0  0
  8 37  1  0  0  0  0
  8 38  1  0  0  0  0
  8 39  1  0  0  0  0
  9  4  2  0  0  0  0
 12 11  2  3  0  0  0
 12 20  1  0  0  0  0
 13 12  1  0  0  0  0
 14 13  1  0  0  0  0
 14 40  1  0  0  0  0
 14 41  1  0  0  0  0
 15 13  1  0  0  0  0
 15 42  1  0  0  0  0
 15 43  1  0  0  0  0
 16 15  1  0  0  0  0
 16 44  1  0  0  0  0
 16 45  1  0  0  0  0
 17 14  1  0  0  0  0
 17 46  1  0  0  0  0
 17 47  1  0  0  0  0
 18 16  1  0  0  0  0
 18 48  1  0  0  0  0
 18 49  1  0  0  0  0
 19 17  1  0  0  0  0
 19 18  1  0  0  0  0
 19 50  1  0  0  0  0
 19 51  1  0  0  0  0
 22 21  1  0  0  0  0
 22 32  1  0  0  0  0
 23 21  1  0  0  0  0
 24 30  1  0  0  0  0
 24 23  1  0  0  0  0
 24 52  1  0  0  0  0
 24 53  1  0  0  0  0
 25 21  2  0  0  0  0
 26 22  1  0  0  0  0
 26 54  1  0  0  0  0
 26 55  1  0  0  0  0
 26 56  1  0  0  0  0
 27 22  1  0  0  0  0
 27 57  1  0  0  0  0
 27 58  1  0  0  0  0
 27 59  1  0  0  0  0
 28  2  1  0  0  0  0
 28 60  1  6  0  0  0
 28 29  1  0  0  0  0
 30 29  1  0  0  0  0
 31 29  2  0  0  0  0
 32 61  1  0  0  0  0
 32 62  1  0  0  0  0
 32 63  1  0  0  0  0
M  END
>  <DRUGBANK_ID>
DB01605

>  <COMMON_NAME>
Pivmecillinam

>  <CAS_NUMBER>
32886-97-8

>  <UNII>
1WAM1OQ30B

>  <SYNONYMS>
Amdinocillin pivoxil; amdinocillin, pivaloyloxymethyl ester; Pivmecilinamo; Pivmecillinam; Pivmecillinamum

$$$$
