
 OpenBabel10282417153D

 89 93  0  0  0  0  0  0  0  0999 V2000
    0.9095   -0.1461    0.0061 C   0  0  0  0  0  0  0  0  0  0  0  0
    0.5949   -0.3976    1.4759 C   0  0  0  0  0  0  0  0  0  0  0  0
    1.0420    0.6323    2.3758 O   0  0  0  0  0  0  0  0  0  0  0  0
    2.3994    0.7215    2.5557 C   0  0  0  0  0  0  0  0  0  0  0  0
    3.2572    0.9277    1.4923 C   0  0  0  0  0  0  0  0  0  0  0  0
    4.6222    0.9400    1.7032 C   0  0  0  0  0  0  0  0  0  0  0  0
    5.1265    0.8911    3.0012 C   0  0  0  0  0  0  0  0  0  0  0  0
    4.1770    0.8653    4.0216 C   0  0  0  0  0  0  0  0  0  0  0  0
    2.8323    0.7399    3.8319 N   0  0  0  0  0  0  0  0  0  0  0  0
    6.5664    1.0168    3.2389 C   0  0  0  0  0  0  0  0  0  0  0  0
    7.2653    1.9808    2.5521 C   0  0  0  0  0  0  0  0  0  0  0  0
    8.6534    2.1419    2.7181 C   0  0  0  0  0  0  0  0  0  0  0  0
    9.3585    1.6578    3.8481 C   0  0  0  0  0  0  0  0  0  0  0  0
    8.6793    0.5799    4.4583 C   0  0  0  0  0  0  0  0  0  0  0  0
    7.3338    0.2135    4.0795 C   0  0  0  0  0  0  0  0  0  0  0  0
   10.8034    2.5059    4.4089 C   0  0  0  0  0  0  0  0  0  0  0  0
   10.8710    3.8632    5.6878 N   0  0  0  0  0  0  0  0  0  0  0  0
    9.8711    5.1925    6.3076 C   0  0  0  0  0  0  0  0  0  0  0  0
    9.5252    6.2785    7.3575 C   0  0  0  0  0  0  0  0  0  0  0  0
    8.0253    6.7871    7.5639 C   0  0  0  0  0  0  0  0  0  0  0  0
    6.9592    6.2146    6.9222 C   0  0  0  0  0  0  0  0  0  0  0  0
    7.3387    5.0575    6.3668 C   0  0  0  0  0  0  0  0  0  0  0  0
    8.6085    4.6315    6.1406 C   0  0  0  0  0  0  0  0  0  0  0  0
    9.0149    3.6327    5.4325 C   0  0  0  0  0  0  0  0  0  0  0  0
   10.0004    3.1282    6.4250 C   0  0  0  0  0  0  0  0  0  0  0  0
   10.4202    3.0566    7.8638 C   0  0  0  0  0  0  0  0  0  0  0  0
   10.0301    1.7678    8.5268 C   0  0  0  0  0  0  0  0  0  0  0  0
   10.8569    0.6200    7.9275 C   0  0  0  0  0  0  0  0  0  0  0  0
   10.3787    1.9628   10.0050 C   0  0  0  0  0  0  0  0  0  0  0  0
    8.5444    1.5779    8.3423 C   0  0  0  0  0  0  0  0  0  0  0  0
    7.7209    2.3390    7.7856 O   0  0  0  0  0  0  0  0  0  0  0  0
    8.0424    0.4581    8.8497 O   0  0  0  0  0  0  0  0  0  0  0  0
    9.4356    4.6017    3.6291 S   0  0  0  0  0  0  0  0  0  0  0  0
    8.0159    5.4798    3.0776 C   0  0  0  0  0  0  0  0  0  0  0  0
    6.5969    5.2694    3.5808 C   0  0  0  0  0  0  0  0  0  0  0  0
    8.6398    6.8397    3.3693 C   0  0  0  0  0  0  0  0  0  0  0  0
    7.9369    5.2378    1.5688 C   0  0  0  0  0  0  0  0  0  0  0  0
    5.6421    6.3936    6.6946 O   0  0  0  0  0  0  0  0  0  0  0  0
    4.7712    7.1962    7.4576 C   0  0  0  0  0  0  0  0  0  0  0  0
    4.7797    6.7976    8.9015 C   0  0  0  0  0  0  0  0  0  0  0  0
    4.9854    7.7781    9.8580 C   0  0  0  0  0  0  0  0  0  0  0  0
    5.0913    7.3929   11.1841 C   0  0  0  0  0  0  0  0  0  0  0  0
    4.9808    6.0445   11.5220 C   0  0  0  0  0  0  0  0  0  0  0  0
    4.7543    5.1335   10.4990 C   0  0  0  0  0  0  0  0  0  0  0  0
    4.6310    5.4828    9.2059 N   0  0  0  0  0  0  0  0  0  0  0  0
    5.0867    5.5817   12.9355 C   0  0  0  0  0  0  0  0  0  0  0  0
    0.7019    0.8967   -0.2595 H   0  0  0  0  0  0  0  0  0  0  0  0
    0.3615   -0.8136   -0.6595 H   0  0  0  0  0  0  0  0  0  0  0  0
    1.9577   -0.3651   -0.2098 H   0  0  0  0  0  0  0  0  0  0  0  0
   -0.4985   -0.4133    1.5659 H   0  0  0  0  0  0  0  0  0  0  0  0
    0.9490   -1.3856    1.7941 H   0  0  0  0  0  0  0  0  0  0  0  0
    2.9161    1.1200    0.4898 H   0  0  0  0  0  0  0  0  0  0  0  0
    5.2747    1.0395    0.8386 H   0  0  0  0  0  0  0  0  0  0  0  0
    4.4854    0.9898    5.0574 H   0  0  0  0  0  0  0  0  0  0  0  0
    6.6926    2.6542    1.9147 H   0  0  0  0  0  0  0  0  0  0  0  0
    9.1166    2.8433    2.0354 H   0  0  0  0  0  0  0  0  0  0  0  0
    9.1383   -0.0226    5.2298 H   0  0  0  0  0  0  0  0  0  0  0  0
    6.8706   -0.6972    4.4578 H   0  0  0  0  0  0  0  0  0  0  0  0
   11.4637    1.7360    4.8345 H   0  0  0  0  0  0  0  0  0  0  0  0
   11.3124    2.9856    3.5689 H   0  0  0  0  0  0  0  0  0  0  0  0
   10.1913    6.7197    8.1056 H   0  0  0  0  0  0  0  0  0  0  0  0
    7.7508    7.5748    8.2754 H   0  0  0  0  0  0  0  0  0  0  0  0
    6.6459    4.3652    5.9292 H   0  0  0  0  0  0  0  0  0  0  0  0
   11.5266    3.1528    7.9068 H   0  0  0  0  0  0  0  0  0  0  0  0
   10.0681    3.9126    8.4510 H   0  0  0  0  0  0  0  0  0  0  0  0
   11.9351    0.7820    8.0686 H   0  0  0  0  0  0  0  0  0  0  0  0
   10.5957   -0.3326    8.3912 H   0  0  0  0  0  0  0  0  0  0  0  0
   10.6971    0.5162    6.8499 H   0  0  0  0  0  0  0  0  0  0  0  0
    9.8695    2.8479   10.4078 H   0  0  0  0  0  0  0  0  0  0  0  0
   10.0794    1.0993   10.5975 H   0  0  0  0  0  0  0  0  0  0  0  0
   11.4571    2.1281   10.1386 H   0  0  0  0  0  0  0  0  0  0  0  0
    7.1006    0.5807    8.5924 H   0  0  0  0  0  0  0  0  0  0  0  0
    6.3766    5.7493    4.5135 H   0  0  0  0  0  0  0  0  0  0  0  0
    5.8947    5.8010    2.9391 H   0  0  0  0  0  0  0  0  0  0  0  0
    6.2812    4.2207    3.6361 H   0  0  0  0  0  0  0  0  0  0  0  0
    9.6047    6.9538    2.8386 H   0  0  0  0  0  0  0  0  0  0  0  0
    7.9920    7.6376    3.0402 H   0  0  0  0  0  0  0  0  0  0  0  0
    8.8592    6.9911    4.4366 H   0  0  0  0  0  0  0  0  0  0  0  0
    8.9070    5.2466    1.0661 H   0  0  0  0  0  0  0  0  0  0  0  0
    7.4719    4.2872    1.3116 H   0  0  0  0  0  0  0  0  0  0  0  0
    7.2870    5.9929    1.1307 H   0  0  0  0  0  0  0  0  0  0  0  0
    5.0117    8.2468    7.2854 H   0  0  0  0  0  0  0  0  0  0  0  0
    3.7416    7.0509    7.0856 H   0  0  0  0  0  0  0  0  0  0  0  0
    5.0856    8.8181    9.5689 H   0  0  0  0  0  0  0  0  0  0  0  0
    5.2695    8.1486   11.9420 H   0  0  0  0  0  0  0  0  0  0  0  0
    4.6651    4.0683   10.6947 H   0  0  0  0  0  0  0  0  0  0  0  0
    4.1577    5.0862   13.2331 H   0  0  0  0  0  0  0  0  0  0  0  0
    5.9229    4.8844   13.0433 H   0  0  0  0  0  0  0  0  0  0  0  0
    5.2547    6.4231   13.6148 H   0  0  0  0  0  0  0  0  0  0  0  0
  1  2  1  0  0  0  0
  1 47  1  0  0  0  0
  1 48  1  0  0  0  0
  1 49  1  0  0  0  0
  2  3  1  0  0  0  0
  2 50  1  0  0  0  0
  2 51  1  0  0  0  0
  3  4  1  0  0  0  0
  4  5  2  0  0  0  0
  4  9  1  0  0  0  0
  5  6  1  0  0  0  0
  5 52  1  0  0  0  0
  6  7  2  0  0  0  0
  6 53  1  0  0  0  0
  7  8  1  0  0  0  0
  7 10  1  0  0  0  0
  8  9  2  0  0  0  0
  8 54  1  0  0  0  0
 10 11  2  0  0  0  0
 10 15  1  0  0  0  0
 11 12  1  0  0  0  0
 11 55  1  0  0  0  0
 12 13  2  0  0  0  0
 12 56  1  0  0  0  0
 13 14  1  0  0  0  0
 13 16  1  0  0  0  0
 14 15  2  0  0  0  0
 14 57  1  0  0  0  0
 15 58  1  0  0  0  0
 16 17  1  0  0  0  0
 16 59  1  0  0  0  0
 16 60  1  0  0  0  0
 17 18  1  0  0  0  0
 17 25  1  0  0  0  0
 18 19  2  0  0  0  0
 18 23  1  0  0  0  0
 19 20  1  0  0  0  0
 19 61  1  0  0  0  0
 20 21  2  0  0  0  0
 20 62  1  0  0  0  0
 21 22  1  0  0  0  0
 21 38  1  0  0  0  0
 22 23  2  0  0  0  0
 22 63  1  0  0  0  0
 23 24  1  0  0  0  0
 24 25  2  0  0  0  0
 24 33  1  0  0  0  0
 25 26  1  0  0  0  0
 26 27  1  0  0  0  0
 26 64  1  0  0  0  0
 26 65  1  0  0  0  0
 27 28  1  0  0  0  0
 27 29  1  0  0  0  0
 27 30  1  0  0  0  0
 28 66  1  0  0  0  0
 28 67  1  0  0  0  0
 28 68  1  0  0  0  0
 29 69  1  0  0  0  0
 29 70  1  0  0  0  0
 29 71  1  0  0  0  0
 30 31  2  0  0  0  0
 30 32  1  0  0  0  0
 32 72  1  0  0  0  0
 33 34  1  0  0  0  0
 34 35  1  0  0  0  0
 34 36  1  0  0  0  0
 34 37  1  0  0  0  0
 35 73  1  0  0  0  0
 35 74  1  0  0  0  0
 35 75  1  0  0  0  0
 36 76  1  0  0  0  0
 36 77  1  0  0  0  0
 36 78  1  0  0  0  0
 37 79  1  0  0  0  0
 37 80  1  0  0  0  0
 37 81  1  0  0  0  0
 38 39  1  0  0  0  0
 39 40  1  0  0  0  0
 39 82  1  0  0  0  0
 39 83  1  0  0  0  0
 40 41  2  0  0  0  0
 40 45  1  0  0  0  0
 41 42  1  0  0  0  0
 41 84  1  0  0  0  0
 42 43  2  0  0  0  0
 42 85  1  0  0  0  0
 43 44  1  0  0  0  0
 43 46  1  0  0  0  0
 44 45  2  0  0  0  0
 44 86  1  0  0  0  0
 46 87  1  0  0  0  0
 46 88  1  0  0  0  0
 46 89  1  0  0  0  0
M  END
>  <DRUGBANK_ID>
DB06346

>  <COMMON_NAME>
Fiboflapon

>  <CAS_NUMBER>
936350-00-4

>  <UNII>
Y1NA96IX3T

>  <SYNONYMS>
Fiboflapon

$$$$
