
 OpenBabel10282417213D

 17 17  0  0  0  0  0  0  0  0999 V2000
    0.9091    0.0289    0.0385 C   0  0  0  0  0  0  0  0  0  0  0  0
    0.1734   -0.3439    1.2635 C   0  0  0  0  0  0  0  0  0  0  0  0
    0.4795    0.1706    2.5236 C   0  0  0  0  0  0  0  0  0  0  0  0
   -0.2644   -0.2142    3.6331 C   0  0  0  0  0  0  0  0  0  0  0  0
   -1.3513   -1.0448    3.4327 C   0  0  0  0  0  0  0  0  0  0  0  0
   -1.7100   -1.5272    2.2222 N   0  0  0  0  0  0  0  0  0  0  0  0
   -0.9422   -1.1645    1.1610 C   0  0  0  0  0  0  0  0  0  0  0  0
    0.2752    0.2870   -0.9824 O   0  0  0  0  0  0  0  0  0  0  0  0
    2.2651    0.0792    0.0549 O   0  0  0  0  0  0  0  0  0  0  0  0
    3.0799   -0.3979    1.1381 C   0  0  0  0  0  0  0  0  0  0  0  0
    1.2715    0.8956    2.6630 H   0  0  0  0  0  0  0  0  0  0  0  0
   -0.0108    0.1502    4.6223 H   0  0  0  0  0  0  0  0  0  0  0  0
   -1.9895   -1.3339    4.2629 H   0  0  0  0  0  0  0  0  0  0  0  0
   -1.2740   -1.5602    0.2032 H   0  0  0  0  0  0  0  0  0  0  0  0
    3.0290    0.2932    1.9789 H   0  0  0  0  0  0  0  0  0  0  0  0
    2.8003   -1.4146    1.4266 H   0  0  0  0  0  0  0  0  0  0  0  0
    4.1232   -0.3895    0.8138 H   0  0  0  0  0  0  0  0  0  0  0  0
  1  2  1  0  0  0  0
  1  8  2  0  0  0  0
  1  9  1  0  0  0  0
  2  3  1  0  0  0  0
  2  7  2  0  0  0  0
  3  4  2  0  0  0  0
  3 11  1  0  0  0  0
  4  5  1  0  0  0  0
  4 12  1  0  0  0  0
  5  6  2  0  0  0  0
  5 13  1  0  0  0  0
  6  7  1  0  0  0  0
  7 14  1  0  0  0  0
  9 10  1  0  0  0  0
 10 15  1  0  0  0  0
 10 16  1  0  0  0  0
 10 17  1  0  0  0  0
M  END
>  <DRUGBANK_ID>
DB13882

>  <COMMON_NAME>
Methyl nicotinate

>  <CAS_NUMBER>
93-60-7

>  <UNII>
7B1AVU9DJN

>  <SYNONYMS>
3-(Carbomethoxy)pyridine; 3-(Methoxycarbonyl)pyridine; 3-pyridinecarboxylic acid methyl ester; Heat spray; Methyl 3-pyridinecarboxylate; Methyl nicotinate; Methyl-nicotinate; Methylnicotinate; Nicotinic acid, methyl ester

$$$$
