
 OpenBabel10282417113D

103105  0  0  0  0  0  0  0  0999 V2000
    0.0394  -19.2585   -5.4547 C   0  0  0  0  0  0  0  0  0  0  0  0
    5.7280  -16.4758   -1.3380 C   0  0  0  0  0  0  0  0  0  0  0  0
    1.1840  -19.2462   -4.6180 O   0  0  0  0  0  0  0  0  0  0  0  0
    1.6980  -18.0752   -4.1684 C   0  0  0  0  0  0  0  0  0  0  0  0
    2.8503  -18.0644   -3.7516 O   0  0  0  0  0  0  0  0  0  0  0  0
    2.5182  -15.2140   -3.5800 C   0  0  0  0  0  0  0  0  0  0  0  0
    3.0032  -15.4844   -4.6866 O   0  0  0  0  0  0  0  0  0  0  0  0
    0.8170  -17.0028   -4.0852 N   0  0  0  0  0  0  0  0  0  0  0  0
    3.2012  -14.2443   -2.8228 N   0  0  0  0  0  0  0  0  0  0  0  0
    4.7327  -17.5544    0.7094 N   0  0  0  0  0  0  0  0  0  0  0  0
    3.5226  -16.8387    3.9149 N   0  0  0  0  0  0  0  0  0  0  0  0
    3.8778  -14.6809    5.6728 C   0  0  0  0  0  0  0  0  0  0  0  0
    2.7190  -15.4810    5.6707 O   0  0  0  0  0  0  0  0  0  0  0  0
    2.5337  -16.5404    4.8562 C   0  0  0  0  0  0  0  0  0  0  0  0
    1.4995  -17.1507    5.0721 O   0  0  0  0  0  0  0  0  0  0  0  0
    3.6097  -17.4368    1.5516 C   0  0  0  0  0  0  0  0  0  0  0  0
    2.5994  -16.8780    1.2806 O   0  0  0  0  0  0  0  0  0  0  0  0
    5.5678  -15.5221   -2.7834 C   0  0  1  0  0  0  0  0  0  0  0  0
    1.0733  -15.9231   -3.1218 C   0  0  1  0  0  0  0  0  0  0  0  0
    3.5166  -17.9851    2.9288 C   0  0  2  0  0  0  0  0  0  0  0  0
    4.7365  -14.1383   -2.8845 C   0  0  2  0  0  0  0  0  0  0  0  0
    6.8704  -15.2282   -3.4046 O   0  0  0  0  0  0  0  0  0  0  0  0
    5.3408  -12.9433   -2.0109 C   0  0  0  0  0  0  0  0  0  0  0  0
    6.7359  -13.0145   -1.2578 C   0  0  0  0  0  0  0  0  0  0  0  0
    7.2332  -11.9239   -0.5637 C   0  0  0  0  0  0  0  0  0  0  0  0
    7.4753  -14.1908   -0.9658 C   0  0  0  0  0  0  0  0  0  0  0  0
    8.4140  -14.4192    0.0293 C   0  0  0  0  0  0  0  0  0  0  0  0
    8.9349  -13.3141    0.6064 C   0  0  0  0  0  0  0  0  0  0  0  0
    8.3461  -12.0755    0.3125 C   0  0  0  0  0  0  0  0  0  0  0  0
    4.5657  -17.0110   -0.6212 N   0  0  0  0  0  0  0  0  0  0  0  0
    3.6180  -15.9195   -0.5758 C   0  0  0  0  0  0  0  0  0  0  0  0
    3.5850  -14.7746    0.4319 C   0  0  0  0  0  0  0  0  0  0  0  0
    4.6758  -12.8185    1.2302 C   0  0  0  0  0  0  0  0  0  0  0  0
    4.6854  -14.0275    0.5991 C   0  0  0  0  0  0  0  0  0  0  0  0
    2.4821  -14.3487    1.2015 C   0  0  0  0  0  0  0  0  0  0  0  0
    2.3726  -13.1061    1.7484 C   0  0  0  0  0  0  0  0  0  0  0  0
    3.5113  -12.3566    1.7866 C   0  0  0  0  0  0  0  0  0  0  0  0
    3.5402  -11.1602    2.5338 C   0  0  0  0  0  0  0  0  0  0  0  0
    3.8607   -8.8601    2.7390 C   0  0  0  0  0  0  0  0  0  0  0  0
    3.8600   -9.9648    1.9267 C   0  0  0  0  0  0  0  0  0  0  0  0
    3.2789  -10.2712    4.6035 C   0  0  0  0  0  0  0  0  0  0  0  0
    3.5580   -9.0145    4.0944 C   0  0  0  0  0  0  0  0  0  0  0  0
    3.2715  -11.3568    3.8425 N   0  0  0  0  0  0  0  0  0  0  0  0
    2.1361  -18.7654    2.8754 C   0  0  0  0  0  0  0  0  0  0  0  0
    0.7105  -16.4917   -1.7040 C   0  0  0  0  0  0  0  0  0  0  0  0
    0.7526  -15.3107   -0.7548 C   0  0  0  0  0  0  0  0  0  0  0  0
   -0.7267  -16.9252   -1.3585 C   0  0  0  0  0  0  0  0  0  0  0  0
    1.4776  -17.8170   -1.3569 C   0  0  0  0  0  0  0  0  0  0  0  0
    2.0900  -19.8167    1.7391 C   0  0  0  0  0  0  0  0  0  0  0  0
    2.1547  -19.5832    4.1642 C   0  0  0  0  0  0  0  0  0  0  0  0
    0.8209  -17.8745    2.6491 C   0  0  0  0  0  0  0  0  0  0  0  0
    0.0291  -20.2200   -5.9710 H   0  0  0  0  0  0  0  0  0  0  0  0
    0.1053  -18.4587   -6.1953 H   0  0  0  0  0  0  0  0  0  0  0  0
   -0.8603  -19.1726   -4.8408 H   0  0  0  0  0  0  0  0  0  0  0  0
    6.5111  -17.2227   -1.5177 H   0  0  0  0  0  0  0  0  0  0  0  0
    6.1468  -15.9334   -0.5088 H   0  0  0  0  0  0  0  0  0  0  0  0
   -0.1393  -17.1141   -4.3698 H   0  0  0  0  0  0  0  0  0  0  0  0
    2.8026  -13.9340   -1.9495 H   0  0  0  0  0  0  0  0  0  0  0  0
    5.3391  -18.3617    0.7790 H   0  0  0  0  0  0  0  0  0  0  0  0
    4.2182  -16.1275    3.7406 H   0  0  0  0  0  0  0  0  0  0  0  0
    4.7629  -15.3027    5.8148 H   0  0  0  0  0  0  0  0  0  0  0  0
    3.9045  -14.1070    4.7487 H   0  0  0  0  0  0  0  0  0  0  0  0
    3.7681  -14.0088    6.5256 H   0  0  0  0  0  0  0  0  0  0  0  0
    5.1532  -16.2205   -3.5078 H   0  0  0  0  0  0  0  0  0  0  0  0
    0.3343  -15.1341   -3.3163 H   0  0  0  0  0  0  0  0  0  0  0  0
    4.3999  -18.6075    3.0796 H   0  0  0  0  0  0  0  0  0  0  0  0
    4.8729  -13.7850   -3.9164 H   0  0  0  0  0  0  0  0  0  0  0  0
    7.1448  -14.3083   -3.2001 H   0  0  0  0  0  0  0  0  0  0  0  0
    5.3064  -12.0154   -2.5983 H   0  0  0  0  0  0  0  0  0  0  0  0
    4.5436  -12.7014   -1.2938 H   0  0  0  0  0  0  0  0  0  0  0  0
    6.7363  -10.9605   -0.6334 H   0  0  0  0  0  0  0  0  0  0  0  0
    7.3719  -15.1189   -1.4681 H   0  0  0  0  0  0  0  0  0  0  0  0
    8.7328  -15.4420    0.2436 H   0  0  0  0  0  0  0  0  0  0  0  0
    9.8123  -13.4350    1.2290 H   0  0  0  0  0  0  0  0  0  0  0  0
    8.7527  -11.2051    0.8093 H   0  0  0  0  0  0  0  0  0  0  0  0
    3.5499  -15.6993   -1.5977 H   0  0  0  0  0  0  0  0  0  0  0  0
    2.6733  -16.3516   -0.5150 H   0  0  0  0  0  0  0  0  0  0  0  0
    5.5572  -12.1998    1.2175 H   0  0  0  0  0  0  0  0  0  0  0  0
    5.5393  -14.3488    0.0872 H   0  0  0  0  0  0  0  0  0  0  0  0
    1.6302  -14.9600    1.4535 H   0  0  0  0  0  0  0  0  0  0  0  0
    1.4391  -12.7749    2.1902 H   0  0  0  0  0  0  0  0  0  0  0  0
    4.0809   -7.8914    2.3110 H   0  0  0  0  0  0  0  0  0  0  0  0
    4.0812   -9.9236    0.8642 H   0  0  0  0  0  0  0  0  0  0  0  0
    3.0365  -10.4541    5.6428 H   0  0  0  0  0  0  0  0  0  0  0  0
    3.5295   -8.1600    4.7513 H   0  0  0  0  0  0  0  0  0  0  0  0
   -0.0155  -14.5395   -0.8318 H   0  0  0  0  0  0  0  0  0  0  0  0
    0.6650  -15.7293    0.2426 H   0  0  0  0  0  0  0  0  0  0  0  0
    1.6293  -14.7229   -0.9152 H   0  0  0  0  0  0  0  0  0  0  0  0
   -1.0683  -17.7599   -1.9582 H   0  0  0  0  0  0  0  0  0  0  0  0
   -0.7443  -17.2639   -0.3006 H   0  0  0  0  0  0  0  0  0  0  0  0
   -1.4221  -16.0850   -1.4037 H   0  0  0  0  0  0  0  0  0  0  0  0
    1.0493  -18.7233   -1.7918 H   0  0  0  0  0  0  0  0  0  0  0  0
    2.5275  -17.8479   -1.6426 H   0  0  0  0  0  0  0  0  0  0  0  0
    1.4497  -17.9854   -0.2923 H   0  0  0  0  0  0  0  0  0  0  0  0
    2.9420  -20.4954    1.7866 H   0  0  0  0  0  0  0  0  0  0  0  0
    1.1567  -20.3853    1.8049 H   0  0  0  0  0  0  0  0  0  0  0  0
    2.1134  -19.3929    0.7398 H   0  0  0  0  0  0  0  0  0  0  0  0
    2.4043  -19.0221    5.0620 H   0  0  0  0  0  0  0  0  0  0  0  0
    1.2006  -20.0778    4.3182 H   0  0  0  0  0  0  0  0  0  0  0  0
    2.9715  -20.3087    4.1071 H   0  0  0  0  0  0  0  0  0  0  0  0
    0.8173  -16.8814    3.1108 H   0  0  0  0  0  0  0  0  0  0  0  0
    0.6439  -17.6074    1.6008 H   0  0  0  0  0  0  0  0  0  0  0  0
   -0.0867  -18.4003    2.9387 H   0  0  0  0  0  0  0  0  0  0  0  0
  1  3  1  0  0  0  0
  1 52  1  0  0  0  0
  1 53  1  0  0  0  0
  1 54  1  0  0  0  0
  2 30  1  0  0  0  0
  2 55  1  0  0  0  0
  2 56  1  0  0  0  0
  3  4  1  0  0  0  0
  4  8  1  0  0  0  0
  4  5  2  0  0  0  0
  6  9  1  0  0  0  0
  6  7  2  0  0  0  0
  8 57  1  0  0  0  0
  9 58  1  0  0  0  0
 10 16  1  0  0  0  0
 10 59  1  0  0  0  0
 11 14  1  0  0  0  0
 11 60  1  0  0  0  0
 12 61  1  0  0  0  0
 12 62  1  0  0  0  0
 12 63  1  0  0  0  0
 13 12  1  0  0  0  0
 14 13  1  0  0  0  0
 14 15  2  0  0  0  0
 16 20  1  0  0  0  0
 16 17  2  0  0  0  0
 18 22  1  0  0  0  0
 18 64  1  6  0  0  0
 18  2  1  0  0  0  0
 18 21  1  0  0  0  0
 19 45  1  0  0  0  0
 19 65  1  6  0  0  0
 19  6  1  0  0  0  0
 19  8  1  0  0  0  0
 20 11  1  0  0  0  0
 20 44  1  0  0  0  0
 20 66  1  1  0  0  0
 21 67  1  6  0  0  0
 21 23  1  0  0  0  0
 21  9  1  0  0  0  0
 22 68  1  0  0  0  0
 23 24  1  0  0  0  0
 23 69  1  0  0  0  0
 23 70  1  0  0  0  0
 24 26  1  0  0  0  0
 25 24  2  0  0  0  0
 25 29  1  0  0  0  0
 25 71  1  0  0  0  0
 26 27  2  0  0  0  0
 26 72  1  0  0  0  0
 27 28  1  0  0  0  0
 27 73  1  0  0  0  0
 28 29  2  0  0  0  0
 28 74  1  0  0  0  0
 29 75  1  0  0  0  0
 30 10  1  0  0  0  0
 30 31  1  0  0  0  0
 31 32  1  0  0  0  0
 31 76  1  0  0  0  0
 31 77  1  0  0  0  0
 32 35  1  0  0  0  0
 33 34  1  0  0  0  0
 33 37  2  0  0  0  0
 33 78  1  0  0  0  0
 34 32  2  0  0  0  0
 34 79  1  0  0  0  0
 35 36  2  0  0  0  0
 35 80  1  0  0  0  0
 36 37  1  0  0  0  0
 36 81  1  0  0  0  0
 37 38  1  0  0  0  0
 38 43  1  0  0  0  0
 39 40  1  0  0  0  0
 39 42  2  0  0  0  0
 39 82  1  0  0  0  0
 40 38  2  0  0  0  0
 40 83  1  0  0  0  0
 41 42  1  0  0  0  0
 41 84  1  0  0  0  0
 42 85  1  0  0  0  0
 43 41  2  0  0  0  0
 44 49  1  0  0  0  0
 44 50  1  0  0  0  0
 44 51  1  0  0  0  0
 45 46  1  0  0  0  0
 45 47  1  0  0  0  0
 45 48  1  0  0  0  0
 46 86  1  0  0  0  0
 46 87  1  0  0  0  0
 46 88  1  0  0  0  0
 47 89  1  0  0  0  0
 47 90  1  0  0  0  0
 47 91  1  0  0  0  0
 48 92  1  0  0  0  0
 48 93  1  0  0  0  0
 48 94  1  0  0  0  0
 49 95  1  0  0  0  0
 49 96  1  0  0  0  0
 49 97  1  0  0  0  0
 50 98  1  0  0  0  0
 50 99  1  0  0  0  0
 50100  1  0  0  0  0
 51101  1  0  0  0  0
 51102  1  0  0  0  0
 51103  1  0  0  0  0
M  END
>  <DRUGBANK_ID>
DB01072

>  <SECONDARY_ACCESSION_NUMBERS>
APRD00804

>  <COMMON_NAME>
Atazanavir

>  <CAS_NUMBER>
198904-31-3

>  <UNII>
QZU4H47A3S

>  <SYNONYMS>
Atazanavir; Atazanavirum; ATZ

$$$$
