
 OpenBabel10282417233D

 52 51  0  0  0  0  0  0  0  0999 V2000
    0.8880    0.0208    0.1148 C   0  0  0  0  0  0  0  0  0  0  0  0
    0.3154   -1.1868   -0.5434 C   0  0  0  0  0  0  0  0  0  0  0  0
   -0.6194   -2.0651    0.2282 C   0  0  0  0  0  0  0  0  0  0  0  0
    0.6005   -1.4784   -1.8208 C   0  0  0  0  0  0  0  0  0  0  0  0
    1.5725   -0.7546   -2.7206 C   0  0  0  0  0  0  0  0  0  0  0  0
    2.8311   -1.5510   -3.1279 C   0  0  0  0  0  0  0  0  0  0  0  0
    2.5425   -2.7625   -3.9911 C   0  0  0  0  0  0  0  0  0  0  0  0
    3.0900   -2.8447   -5.3727 C   0  0  0  0  0  0  0  0  0  0  0  0
    1.7747   -3.7542   -3.5261 C   0  0  0  0  0  0  0  0  0  0  0  0
    1.3492   -5.0287   -4.1660 C   0  0  0  0  0  0  0  0  0  0  0  0
    1.8558   -6.2249   -3.3474 C   0  0  0  0  0  0  0  0  0  0  0  0
    1.2674   -6.3489   -1.9432 C   0  0  0  0  0  0  0  0  0  0  0  0
    0.3822   -7.5401   -1.7014 C   0  0  0  0  0  0  0  0  0  0  0  0
    1.5501   -5.4812   -0.9444 C   0  0  0  0  0  0  0  0  0  0  0  0
    0.9240   -5.5065    0.3574 C   0  0  0  0  0  0  0  0  0  0  0  0
    1.1117   -4.5987    1.3296 C   0  0  0  0  0  0  0  0  0  0  0  0
    0.3984   -4.5804    2.6123 C   0  0  0  0  0  0  0  0  0  0  0  0
    0.6424   -3.3658    3.4812 C   0  0  0  0  0  0  0  0  0  0  0  0
   -0.4235   -5.5796    3.0060 C   0  0  0  0  0  0  0  0  0  0  0  0
   -1.0723   -5.6339    4.3335 C   0  0  0  0  0  0  0  0  0  0  0  0
   -1.7954   -6.7539    4.5197 O   0  0  0  0  0  0  0  0  0  0  0  0
   -0.9650   -4.7832    5.2075 O   0  0  0  0  0  0  0  0  0  0  0  0
    0.5429    0.1320    1.1434 H   0  0  0  0  0  0  0  0  0  0  0  0
    0.5602    0.9024   -0.4468 H   0  0  0  0  0  0  0  0  0  0  0  0
    1.9824   -0.0161    0.1186 H   0  0  0  0  0  0  0  0  0  0  0  0
   -1.6062   -2.1379   -0.2317 H   0  0  0  0  0  0  0  0  0  0  0  0
   -0.2308   -3.0747    0.2162 H   0  0  0  0  0  0  0  0  0  0  0  0
   -0.7202   -1.7585    1.2723 H   0  0  0  0  0  0  0  0  0  0  0  0
    0.0508   -2.3087   -2.2586 H   0  0  0  0  0  0  0  0  0  0  0  0
    1.0274   -0.4510   -3.6195 H   0  0  0  0  0  0  0  0  0  0  0  0
    1.9164    0.1667   -2.2405 H   0  0  0  0  0  0  0  0  0  0  0  0
    3.4971   -0.8671   -3.6694 H   0  0  0  0  0  0  0  0  0  0  0  0
    3.3952   -1.8563   -2.2336 H   0  0  0  0  0  0  0  0  0  0  0  0
    3.7111   -3.7417   -5.4706 H   0  0  0  0  0  0  0  0  0  0  0  0
    2.2565   -2.9106   -6.0805 H   0  0  0  0  0  0  0  0  0  0  0  0
    3.6935   -1.9759   -5.6354 H   0  0  0  0  0  0  0  0  0  0  0  0
    1.3920   -3.6461   -2.5284 H   0  0  0  0  0  0  0  0  0  0  0  0
    0.2542   -5.0372   -4.2311 H   0  0  0  0  0  0  0  0  0  0  0  0
    1.7286   -5.0976   -5.1899 H   0  0  0  0  0  0  0  0  0  0  0  0
    1.6273   -7.1252   -3.9306 H   0  0  0  0  0  0  0  0  0  0  0  0
    2.9501   -6.1876   -3.2757 H   0  0  0  0  0  0  0  0  0  0  0  0
    0.7774   -8.1116   -0.8533 H   0  0  0  0  0  0  0  0  0  0  0  0
   -0.6422   -7.2251   -1.4783 H   0  0  0  0  0  0  0  0  0  0  0  0
    0.3482   -8.2212   -2.5539 H   0  0  0  0  0  0  0  0  0  0  0  0
    2.2533   -4.6654   -1.0985 H   0  0  0  0  0  0  0  0  0  0  0  0
    0.2097   -6.3031    0.5011 H   0  0  0  0  0  0  0  0  0  0  0  0
    1.7634   -3.7446    1.1257 H   0  0  0  0  0  0  0  0  0  0  0  0
   -0.3083   -2.8838    3.7428 H   0  0  0  0  0  0  0  0  0  0  0  0
    1.1596   -3.6642    4.3987 H   0  0  0  0  0  0  0  0  0  0  0  0
    1.2519   -2.5940    3.0012 H   0  0  0  0  0  0  0  0  0  0  0  0
   -0.6206   -6.4225    2.3589 H   0  0  0  0  0  0  0  0  0  0  0  0
   -1.8249   -7.3923    3.7858 H   0  0  0  0  0  0  0  0  0  0  0  0
  1  2  1  0  0  0  0
  1 23  1  0  0  0  0
  1 24  1  0  0  0  0
  1 25  1  0  0  0  0
  2  3  1  0  0  0  0
  2  4  2  0  0  0  0
  3 26  1  0  0  0  0
  3 27  1  0  0  0  0
  3 28  1  0  0  0  0
  4  5  1  0  0  0  0
  4 29  1  0  0  0  0
  5  6  1  0  0  0  0
  5 30  1  0  0  0  0
  5 31  1  0  0  0  0
  6  7  1  0  0  0  0
  6 32  1  0  0  0  0
  6 33  1  0  0  0  0
  7  8  1  0  0  0  0
  7  9  2  0  0  0  0
  8 34  1  0  0  0  0
  8 35  1  0  0  0  0
  8 36  1  0  0  0  0
  9 10  1  0  0  0  0
  9 37  1  0  0  0  0
 10 11  1  0  0  0  0
 10 38  1  0  0  0  0
 10 39  1  0  0  0  0
 11 12  1  0  0  0  0
 11 40  1  0  0  0  0
 11 41  1  0  0  0  0
 12 13  1  0  0  0  0
 12 14  2  0  0  0  0
 13 42  1  0  0  0  0
 13 43  1  0  0  0  0
 13 44  1  0  0  0  0
 14 15  1  0  0  0  0
 14 45  1  0  0  0  0
 15 16  2  0  0  0  0
 15 46  1  0  0  0  0
 16 17  1  0  0  0  0
 16 47  1  0  0  0  0
 17 18  1  0  0  0  0
 17 19  2  0  0  0  0
 18 48  1  0  0  0  0
 18 49  1  0  0  0  0
 18 50  1  0  0  0  0
 19 20  1  0  0  0  0
 19 51  1  0  0  0  0
 20 21  1  0  0  0  0
 20 22  2  0  0  0  0
 21 52  1  0  0  0  0
M  END
>  <DRUGBANK_ID>
DB16291

>  <COMMON_NAME>
Peretinoin

>  <CAS_NUMBER>
81485-25-8

>  <UNII>
11ALM7A4RV

>  <SYNONYMS>
Peretinoin

$$$$
