L35
 OpenBabel10282417173D

 41 42  0  0  0  0  0  0  0  0999 V2000
    0.0670   -2.1944    0.0027 C   0  0  0  0  0  0  0  0  0  0  0  0
    1.2203   -1.3939    0.0077 C   0  0  0  0  0  0  0  0  0  0  0  0
    1.1734   -0.0030    0.0028 C   0  0  0  0  0  0  0  0  0  0  0  0
   -0.0410    0.6508   -0.0026 C   0  0  0  0  0  0  0  0  0  0  0  0
   -1.2054   -0.1151   -0.0028 C   0  0  0  0  0  0  0  0  0  0  0  0
   -1.1655   -1.5268   -0.0009 C   0  0  0  0  0  0  0  0  0  0  0  0
    1.3301   -4.3407   -0.0119 C   0  0  0  0  0  0  0  0  0  0  0  0
    4.8273   -8.0371    0.1912 C   0  0  0  0  0  0  0  0  0  0  0  0
    4.6127   -6.8905    0.9473 C   0  0  0  0  0  0  0  0  0  0  0  0
    3.4502   -6.1418    0.8580 C   0  0  0  0  0  0  0  0  0  0  0  0
    2.4213   -6.5131    0.0049 C   0  0  0  0  0  0  0  0  0  0  0  0
    2.6004   -7.6650   -0.7670 C   0  0  0  0  0  0  0  0  0  0  0  0
    3.7890   -8.4360   -0.6578 C   0  0  0  0  0  0  0  0  0  0  0  0
    7.1057   -8.3279    1.0157 C   0  0  0  0  0  0  0  0  0  0  0  0
    7.6370   -6.9433    0.5735 C   0  0  0  0  0  0  0  0  0  0  0  0
    6.7731   -8.4352    2.5199 C   0  0  0  0  0  0  0  0  0  0  0  0
    8.3329   -9.2641    0.8379 C   0  0  0  0  0  0  0  0  0  0  0  0
    0.1359   -3.6324   -0.0019 N   0  0  0  0  0  0  0  0  0  0  0  0
    1.2330   -5.7242   -0.0360 N   0  0  0  0  0  0  0  0  0  0  0  0
    2.4377   -3.7997   -0.0223 O   0  0  0  0  0  0  0  0  0  0  0  0
    5.9898   -8.7798    0.2020 O   0  0  0  0  0  0  0  0  0  0  0  0
    8.1714  -10.2846   -0.0312 O   0  0  0  0  0  0  0  0  0  0  0  0
    9.3963   -9.1062    1.4389 O   0  0  0  0  0  0  0  0  0  0  0  0
   -2.7209    0.7075   -0.0034 Cl  0  0  0  0  0  0  0  0  0  0  0  0
    2.6500    0.8824    0.0041 Cl  0  0  0  0  0  0  0  0  0  0  0  0
    2.2172   -1.8098    0.0154 H   0  0  0  0  0  0  0  0  0  0  0  0
   -0.0707    1.7363   -0.0051 H   0  0  0  0  0  0  0  0  0  0  0  0
   -2.1068   -2.0700   -0.0031 H   0  0  0  0  0  0  0  0  0  0  0  0
    5.3245   -6.4823    1.6477 H   0  0  0  0  0  0  0  0  0  0  0  0
    3.3920   -5.2552    1.4850 H   0  0  0  0  0  0  0  0  0  0  0  0
    1.8689   -7.9363   -1.5228 H   0  0  0  0  0  0  0  0  0  0  0  0
    3.8924   -9.3387   -1.2572 H   0  0  0  0  0  0  0  0  0  0  0  0
    6.9138   -6.1302    0.6126 H   0  0  0  0  0  0  0  0  0  0  0  0
    8.4763   -6.6215    1.1979 H   0  0  0  0  0  0  0  0  0  0  0  0
    7.9640   -6.9687   -0.4721 H   0  0  0  0  0  0  0  0  0  0  0  0
    6.5177   -9.4680    2.7818 H   0  0  0  0  0  0  0  0  0  0  0  0
    7.6125   -8.1074    3.1400 H   0  0  0  0  0  0  0  0  0  0  0  0
    5.9124   -7.8532    2.8461 H   0  0  0  0  0  0  0  0  0  0  0  0
   -0.7353   -4.1454    0.0045 H   0  0  0  0  0  0  0  0  0  0  0  0
    0.3758   -6.1759   -0.3112 H   0  0  0  0  0  0  0  0  0  0  0  0
    7.2804  -10.2842   -0.4343 H   0  0  0  0  0  0  0  0  0  0  0  0
  1  2  1  0  0  0  0
  1  6  2  0  0  0  0
  1 18  1  0  0  0  0
  2  3  2  0  0  0  0
  2 26  1  0  0  0  0
  3  4  1  0  0  0  0
  3 25  1  0  0  0  0
  4  5  2  0  0  0  0
  4 27  1  0  0  0  0
  5  6  1  0  0  0  0
  5 24  1  0  0  0  0
  6 28  1  0  0  0  0
  7 18  1  0  0  0  0
  7 19  1  0  0  0  0
  7 20  2  0  0  0  0
  8  9  1  0  0  0  0
  8 13  2  0  0  0  0
  8 21  1  0  0  0  0
  9 10  2  0  0  0  0
  9 29  1  0  0  0  0
 10 11  1  0  0  0  0
 10 30  1  0  0  0  0
 11 12  2  0  0  0  0
 11 19  1  0  0  0  0
 12 13  1  0  0  0  0
 12 31  1  0  0  0  0
 13 32  1  0  0  0  0
 14 15  1  0  0  0  0
 14 16  1  0  0  0  0
 14 17  1  0  0  0  0
 14 21  1  0  0  0  0
 15 33  1  0  0  0  0
 15 34  1  0  0  0  0
 15 35  1  0  0  0  0
 16 36  1  0  0  0  0
 16 37  1  0  0  0  0
 16 38  1  0  0  0  0
 17 22  1  0  0  0  0
 17 23  2  0  0  0  0
 18 39  1  0  0  0  0
 19 40  1  0  0  0  0
 22 41  1  0  0  0  0
M  END
>  <DRUGBANK_ID>
DB08077

>  <COMMON_NAME>
2-[4-({[(3,5-DICHLOROPHENYL)AMINO]CARBONYL}AMINO)PHENOXY]-2-METHYLPROPANOIC ACID

>  <UNII>
PS3UC84IQA

$$$$
