
 OpenBabel10282417153D

 56 58  0  0  1  0  0  0  0  0999 V2000
    4.9886    2.4978    4.7077 Cl  0  0  0  0  0  0  0  0  0  0  0  0
    0.6789   -0.4575    0.0099 S   0  0  0  0  0  0  0  0  0  0  0  0
    1.2901    5.3904    0.2293 P   0  0  1  0  0  0  0  0  0  0  0  0
    2.2814    4.1113    0.5164 O   0  0  0  0  0  0  0  0  0  0  0  0
    0.6631    4.9412   -1.1816 O   0  0  0  0  0  0  0  0  0  0  0  0
    2.5208    7.5511   -1.4658 O   0  0  0  0  0  0  0  0  0  0  0  0
    0.2251    5.5022    1.2816 O   0  0  0  0  0  0  0  0  0  0  0  0
    0.4121    0.6600    1.1524 O   0  0  0  0  0  0  0  0  0  0  0  0
    0.1303    0.1041   -1.2376 O   0  0  0  0  0  0  0  0  0  0  0  0
    0.2875   -1.7115    0.5310 O   0  0  0  0  0  0  0  0  0  0  0  0
    4.3302    5.3385    0.2792 N   0  0  0  0  0  0  0  0  0  0  0  0
    4.9293    3.9525    1.8914 N   0  0  0  0  0  0  0  0  0  0  0  0
    3.0366    6.8041    1.9803 N   0  0  0  0  0  0  0  0  0  0  0  0
    2.0457    5.6486    3.7714 N   0  0  0  0  0  0  0  0  0  0  0  0
    2.3992    3.5792    4.3882 N   0  0  0  0  0  0  0  0  0  0  0  0
    2.3041    2.7281    0.1084 C   0  0  1  0  0  0  0  0  0  0  0  0
    1.7527    2.7604   -1.3560 C   0  0  0  0  0  0  0  0  0  0  0  0
    0.4004    3.5478   -1.2969 C   0  0  0  0  0  0  0  0  0  0  0  0
    3.5641    1.8661    0.8901 C   0  0  0  0  0  0  0  0  0  0  0  0
    2.3795    7.2520   -0.1109 C   0  0  0  0  0  0  0  0  0  0  0  0
    3.5465    1.8329    2.3215 C   0  0  0  0  0  0  0  0  0  0  0  0
    4.7767    1.3383    0.3570 C   0  0  0  0  0  0  0  0  0  0  0  0
    3.0665    6.3882   -2.0173 C   0  0  0  0  0  0  0  0  0  0  0  0
    4.1840    5.6066   -1.2137 C   0  0  0  0  0  0  0  0  0  0  0  0
    4.7650    1.7549    3.1205 C   0  0  0  0  0  0  0  0  0  0  0  0
    5.9522    1.1358    1.1660 C   0  0  0  0  0  0  0  0  0  0  0  0
    3.7845    5.7505    1.6033 C   0  0  0  0  0  0  0  0  0  0  0  0
    5.9719    1.4513    2.5191 C   0  0  0  0  0  0  0  0  0  0  0  0
    3.8845    4.6845    2.4607 C   0  0  0  0  0  0  0  0  0  0  0  0
    5.0374    4.2222    0.6026 C   0  0  0  0  0  0  0  0  0  0  0  0
    2.8636    4.6107    3.5565 C   0  0  0  0  0  0  0  0  0  0  0  0
    2.1586    6.6746    2.9717 C   0  0  0  0  0  0  0  0  0  0  0  0
    2.4544   -0.4375   -0.1470 C   0  0  0  0  0  0  0  0  0  0  0  0
    0.7350    0.4343    2.0491 H   0  0  0  0  0  0  0  0  0  0  0  0
    3.0269    2.8230    4.5979 H   0  0  0  0  0  0  0  0  0  0  0  0
    1.8949    3.9558    5.1866 H   0  0  0  0  0  0  0  0  0  0  0  0
    1.4959    2.2546    0.6244 H   0  0  0  0  0  0  0  0  0  0  0  0
    2.4281    3.2621   -2.0549 H   0  0  0  0  0  0  0  0  0  0  0  0
    1.5503    1.7859   -1.7940 H   0  0  0  0  0  0  0  0  0  0  0  0
   -0.2095    3.4223   -2.1933 H   0  0  0  0  0  0  0  0  0  0  0  0
   -0.2146    3.2274   -0.4422 H   0  0  0  0  0  0  0  0  0  0  0  0
    2.0393    8.0829    0.5235 H   0  0  0  0  0  0  0  0  0  0  0  0
    3.4631    7.2774    0.1289 H   0  0  0  0  0  0  0  0  0  0  0  0
    2.6151    2.1865    2.7399 H   0  0  0  0  0  0  0  0  0  0  0  0
    4.9150    1.1845   -0.7068 H   0  0  0  0  0  0  0  0  0  0  0  0
    2.2022    5.7764   -2.2022 H   0  0  0  0  0  0  0  0  0  0  0  0
    3.4005    6.6507   -3.0237 H   0  0  0  0  0  0  0  0  0  0  0  0
    4.1696    4.6229   -1.7389 H   0  0  0  0  0  0  0  0  0  0  0  0
    5.1535    6.0306   -1.4831 H   0  0  0  0  0  0  0  0  0  0  0  0
    6.9116    0.9022    0.7075 H   0  0  0  0  0  0  0  0  0  0  0  0
    6.9101    1.6263    3.0546 H   0  0  0  0  0  0  0  0  0  0  0  0
    5.4118    3.5724   -0.1938 H   0  0  0  0  0  0  0  0  0  0  0  0
    1.3737    7.4266    3.0199 H   0  0  0  0  0  0  0  0  0  0  0  0
    2.7393    0.4664   -0.6694 H   0  0  0  0  0  0  0  0  0  0  0  0
    2.9070   -0.5603    0.8412 H   0  0  0  0  0  0  0  0  0  0  0  0
    2.8349   -1.2043   -0.8147 H   0  0  0  0  0  0  0  0  0  0  0  0
  1 25  1  0  0  0  0
  2  8  1  0  0  0  0
  2  9  2  0  0  0  0
  2 10  2  0  0  0  0
  2 33  1  0  0  0  0
  3  4  1  0  0  0  0
  3  5  1  0  0  0  0
  3 20  1  0  0  0  0
  3  7  2  1  0  0  0
  4 16  1  0  0  0  0
  5 18  1  0  0  0  0
  6 20  1  0  0  0  0
  6 23  1  0  0  0  0
  8 34  1  0  0  0  0
 11 24  1  0  0  0  0
 11 27  1  0  0  0  0
 11 30  1  0  0  0  0
 12 29  1  0  0  0  0
 12 30  2  0  0  0  0
 13 27  2  0  0  0  0
 13 32  1  0  0  0  0
 14 31  1  0  0  0  0
 14 32  2  0  0  0  0
 15 31  1  0  0  0  0
 15 35  1  0  0  0  0
 15 36  1  0  0  0  0
 16 17  1  0  0  0  0
 16 37  1  1  0  0  0
 16 19  1  0  0  0  0
 17 18  1  0  0  0  0
 17 38  1  0  0  0  0
 17 39  1  0  0  0  0
 18 40  1  0  0  0  0
 18 41  1  0  0  0  0
 19 21  2  0  0  0  0
 19 22  1  0  0  0  0
 20 42  1  0  0  0  0
 20 43  1  0  0  0  0
 21 25  1  0  0  0  0
 21 44  1  0  0  0  0
 22 26  2  0  0  0  0
 22 45  1  0  0  0  0
 23 24  1  0  0  0  0
 23 46  1  0  0  0  0
 23 47  1  0  0  0  0
 24 48  1  0  0  0  0
 24 49  1  0  0  0  0
 25 28  2  0  0  0  0
 26 28  1  0  0  0  0
 26 50  1  0  0  0  0
 27 29  1  0  0  0  0
 28 51  1  0  0  0  0
 29 31  2  0  0  0  0
 30 52  1  0  0  0  0
 32 53  1  0  0  0  0
 33 54  1  0  0  0  0
 33 55  1  0  0  0  0
 33 56  1  0  0  0  0
M  END
>  <DRUGBANK_ID>
DB05478

>  <COMMON_NAME>
Pradefovir mesylate

>  <CAS_NUMBER>
625095-61-6

>  <UNII>
0D5204ZSIX

>  <SYNONYMS>
Pradefovir mesilate; Pradefovir mesylate

$$$$
