
 OpenBabel10282417243D

 93 98  0  0  1  0  0  0  0  0999 V2000
   -1.4070   -1.7880   -0.2981 C   0  0  0  0  0  0  0  0  0  0  0  0
   -1.9037   -1.1883   -1.4936 O   0  0  0  0  0  0  0  0  0  0  0  0
   -1.2027   -1.5890   -2.6685 C   0  0  0  0  0  0  0  0  0  0  0  0
    0.2530   -1.2075   -2.5589 C   0  0  1  0  0  0  0  0  0  0  0  0
    1.0146   -1.5144   -3.7881 C   0  0  0  0  0  0  0  0  0  0  0  0
    0.7474   -0.4458   -4.6252 N   0  0  0  0  0  0  0  0  0  0  0  0
    0.7709    0.7683   -3.8230 C   0  0  0  0  0  0  0  0  0  0  0  0
    0.6137    0.2477   -2.3574 C   0  0  2  0  0  0  0  0  0  0  0  0
    1.8616    0.4162   -1.4674 C   0  0  0  0  0  0  0  0  0  0  0  0
    2.2214    1.7800   -1.2965 C   0  0  0  0  0  0  0  0  0  0  0  0
    3.2280    2.1622   -0.4241 C   0  0  0  0  0  0  0  0  0  0  0  0
    3.8643    1.1936    0.3459 C   0  0  0  0  0  0  0  0  0  0  0  0
    3.4680   -0.1495    0.2438 C   0  0  0  0  0  0  0  0  0  0  0  0
    2.5534   -0.5967   -0.7184 C   0  0  0  0  0  0  0  0  0  0  0  0
    2.5723   -1.9802   -0.9167 N   0  0  0  0  0  0  0  0  0  0  0  0
    1.9251   -2.9471   -0.0338 C   0  0  0  0  0  0  0  0  0  0  0  0
    2.8806   -4.1293    0.1234 C   0  0  0  0  0  0  0  0  0  0  0  0
    3.2969   -4.7655   -1.2216 C   0  0  3  0  0  0  0  0  0  0  0  0
    3.8581   -3.7202   -2.1731 C   0  0  0  0  0  0  0  0  0  0  0  0
    2.9751   -2.5324   -2.1911 C   0  0  0  0  0  0  0  0  0  0  0  0
    4.4307   -5.7244   -1.0265 C   0  0  0  0  0  0  0  0  0  0  0  0
    4.1966   -6.9860   -1.4119 O   0  0  0  0  0  0  0  0  0  0  0  0
    5.5364   -5.3693   -0.5931 O   0  0  0  0  0  0  0  0  0  0  0  0
    5.0470    1.5327    1.2059 C   0  0  0  0  0  0  0  0  0  0  0  0
    4.8523    1.2175    2.5137 F   0  0  0  0  0  0  0  0  0  0  0  0
    6.1652    0.8594    0.8151 F   0  0  0  0  0  0  0  0  0  0  0  0
    5.3805    2.8524    1.1765 F   0  0  0  0  0  0  0  0  0  0  0  0
    0.9580   -0.5065   -5.9513 C   0  0  0  0  0  0  0  0  0  0  0  0
    0.8752    0.5279   -6.6192 O   0  0  0  0  0  0  0  0  0  0  0  0
    1.2785   -1.8707   -6.6038 C   0  0  2  0  0  0  0  0  0  0  0  0
    1.2278   -1.5377   -7.9204 F   0  0  0  0  0  0  0  0  0  0  0  0
    0.2342   -2.9703   -6.3546 C   0  0  0  0  0  0  0  0  0  0  0  0
    0.8429   -4.2861   -6.6574 N   0  0  3  0  0  0  0  0  0  0  0  0
    2.2770   -4.1482   -6.3649 C   0  0  0  0  0  0  0  0  0  0  0  0
    2.6076   -2.6363   -6.2737 C   0  0  1  0  0  0  0  0  0  0  0  0
    3.8405   -2.1866   -7.0200 C   0  0  0  0  0  0  0  0  0  0  0  0
    4.1570   -0.8273   -6.9672 C   0  0  0  0  0  0  0  0  0  0  0  0
    5.2948   -0.3338   -7.5900 C   0  0  0  0  0  0  0  0  0  0  0  0
    6.1627   -1.1943   -8.2550 C   0  0  0  0  0  0  0  0  0  0  0  0
    7.2780   -0.8102   -8.9437 O   0  0  0  0  0  0  0  0  0  0  0  0
    7.4592    0.5957   -9.0644 C   0  0  0  0  0  0  0  0  0  0  0  0
    5.9004   -2.5595   -8.2572 C   0  0  0  0  0  0  0  0  0  0  0  0
    4.7296   -3.0486   -7.6810 C   0  0  0  0  0  0  0  0  0  0  0  0
    0.6296   -4.7022   -8.0526 C   0  0  0  0  0  0  0  0  0  0  0  0
    1.2900   -3.8779   -9.1651 C   0  0  0  0  0  0  0  0  0  0  0  0
    0.2289   -3.5907  -10.2030 C   0  0  0  0  0  0  0  0  0  0  0  0
   -0.8970   -4.5642   -9.9055 C   0  0  0  0  0  0  0  0  0  0  0  0
   -0.8599   -4.7735   -8.4059 C   0  0  0  0  0  0  0  0  0  0  0  0
   -1.9950   -1.4309    0.5456 H   0  0  0  0  0  0  0  0  0  0  0  0
   -0.3801   -1.4831   -0.0823 H   0  0  0  0  0  0  0  0  0  0  0  0
   -1.4670   -2.8789   -0.3642 H   0  0  0  0  0  0  0  0  0  0  0  0
   -1.2777   -2.6811   -2.7818 H   0  0  0  0  0  0  0  0  0  0  0  0
   -1.6709   -1.1417   -3.5495 H   0  0  0  0  0  0  0  0  0  0  0  0
    0.5824   -1.8198   -1.7554 H   0  0  0  0  0  0  0  0  0  0  0  0
    2.0778   -1.3527   -3.7388 H   0  0  0  0  0  0  0  0  0  0  0  0
    0.8934   -2.5348   -4.1033 H   0  0  0  0  0  0  0  0  0  0  0  0
   -0.0592    1.3919   -4.1545 H   0  0  0  0  0  0  0  0  0  0  0  0
    1.7207    1.2939   -3.9937 H   0  0  0  0  0  0  0  0  0  0  0  0
   -0.2034    0.7900   -1.8692 H   0  0  0  0  0  0  0  0  0  0  0  0
    1.7136    2.5634   -1.8617 H   0  0  0  0  0  0  0  0  0  0  0  0
    3.5071    3.2120   -0.3474 H   0  0  0  0  0  0  0  0  0  0  0  0
    3.9594   -0.8905    0.8735 H   0  0  0  0  0  0  0  0  0  0  0  0
    1.0028   -3.3324   -0.4938 H   0  0  0  0  0  0  0  0  0  0  0  0
    1.6407   -2.5087    0.9274 H   0  0  0  0  0  0  0  0  0  0  0  0
    2.4218   -4.8874    0.7632 H   0  0  0  0  0  0  0  0  0  0  0  0
    3.7767   -3.7516    0.6248 H   0  0  0  0  0  0  0  0  0  0  0  0
    2.4276   -5.2595   -1.6852 H   0  0  0  0  0  0  0  0  0  0  0  0
    4.8618   -3.3788   -1.9190 H   0  0  0  0  0  0  0  0  0  0  0  0
    3.9001   -4.1232   -3.1988 H   0  0  0  0  0  0  0  0  0  0  0  0
    3.4884   -1.7892   -2.8005 H   0  0  0  0  0  0  0  0  0  0  0  0
    2.0868   -2.9918   -2.6235 H   0  0  0  0  0  0  0  0  0  0  0  0
    3.3071   -7.1718   -1.7673 H   0  0  0  0  0  0  0  0  0  0  0  0
   -0.1424   -3.0971   -5.3418 H   0  0  0  0  0  0  0  0  0  0  0  0
   -0.6818   -2.7241   -6.8784 H   0  0  0  0  0  0  0  0  0  0  0  0
    2.8658   -4.7265   -7.0805 H   0  0  0  0  0  0  0  0  0  0  0  0
    2.5151   -4.6288   -5.4020 H   0  0  0  0  0  0  0  0  0  0  0  0
    2.8867   -2.4898   -5.2257 H   0  0  0  0  0  0  0  0  0  0  0  0
    3.5151   -0.1195   -6.4511 H   0  0  0  0  0  0  0  0  0  0  0  0
    5.4652    0.7341   -7.5301 H   0  0  0  0  0  0  0  0  0  0  0  0
    6.5924    1.0766   -9.5344 H   0  0  0  0  0  0  0  0  0  0  0  0
    7.6689    1.0360   -8.0841 H   0  0  0  0  0  0  0  0  0  0  0  0
    8.3247    0.7703   -9.7067 H   0  0  0  0  0  0  0  0  0  0  0  0
    6.6004   -3.2525   -8.7175 H   0  0  0  0  0  0  0  0  0  0  0  0
    4.5573   -4.1143   -7.7886 H   0  0  0  0  0  0  0  0  0  0  0  0
    1.0324   -5.7211   -8.1561 H   0  0  0  0  0  0  0  0  0  0  0  0
    1.6908   -2.9415   -8.8546 H   0  0  0  0  0  0  0  0  0  0  0  0
    2.2016   -4.3368   -9.5534 H   0  0  0  0  0  0  0  0  0  0  0  0
   -0.1236   -2.5533  -10.1117 H   0  0  0  0  0  0  0  0  0  0  0  0
    0.6361   -3.7144  -11.2079 H   0  0  0  0  0  0  0  0  0  0  0  0
   -1.8650   -4.1661  -10.2222 H   0  0  0  0  0  0  0  0  0  0  0  0
   -0.7116   -5.5107  -10.4156 H   0  0  0  0  0  0  0  0  0  0  0  0
   -1.3052   -5.7194   -8.0834 H   0  0  0  0  0  0  0  0  0  0  0  0
   -1.4725   -3.9947   -7.9495 H   0  0  0  0  0  0  0  0  0  0  0  0
  1  2  1  0  0  0  0
  1 49  1  0  0  0  0
  1 50  1  0  0  0  0
  1 51  1  0  0  0  0
  2  3  1  0  0  0  0
  3 52  1  0  0  0  0
  3 53  1  0  0  0  0
  4  5  1  0  0  0  0
  4  8  1  0  0  0  0
  4 54  1  1  0  0  0
  4  3  1  0  0  0  0
  5  6  1  0  0  0  0
  5 55  1  0  0  0  0
  5 56  1  0  0  0  0
  6  7  1  0  0  0  0
  6 28  1  0  0  0  0
  7 57  1  0  0  0  0
  7 58  1  0  0  0  0
  8  7  1  0  0  0  0
  8 59  1  1  0  0  0
  8  9  1  0  0  0  0
  9 10  2  0  0  0  0
  9 14  1  0  0  0  0
 10 11  1  0  0  0  0
 10 60  1  0  0  0  0
 11 12  2  0  0  0  0
 11 61  1  0  0  0  0
 12 13  1  0  0  0  0
 12 24  1  0  0  0  0
 13 14  2  0  0  0  0
 13 62  1  0  0  0  0
 14 15  1  0  0  0  0
 15 16  1  0  0  0  0
 15 20  1  0  0  0  0
 16 17  1  0  0  0  0
 16 63  1  0  0  0  0
 16 64  1  0  0  0  0
 17 18  1  0  0  0  0
 17 65  1  0  0  0  0
 17 66  1  0  0  0  0
 18 19  1  0  0  0  0
 18 21  1  0  0  0  0
 18 67  1  0  0  0  0
 19 20  1  0  0  0  0
 19 68  1  0  0  0  0
 19 69  1  0  0  0  0
 20 70  1  0  0  0  0
 20 71  1  0  0  0  0
 21 22  1  0  0  0  0
 21 23  2  0  0  0  0
 22 72  1  0  0  0  0
 24 25  1  0  0  0  0
 24 26  1  0  0  0  0
 24 27  1  0  0  0  0
 28 29  2  0  0  0  0
 30 28  1  0  0  0  0
 30 31  1  6  0  0  0
 30 32  1  0  0  0  0
 30 35  1  0  0  0  0
 32 33  1  0  0  0  0
 32 73  1  0  0  0  0
 32 74  1  0  0  0  0
 33 34  1  0  0  0  0
 33 44  1  0  0  0  0
 34 75  1  0  0  0  0
 34 76  1  0  0  0  0
 35 34  1  0  0  0  0
 35 36  1  0  0  0  0
 35 77  1  1  0  0  0
 36 37  2  0  0  0  0
 36 43  1  0  0  0  0
 37 38  1  0  0  0  0
 37 78  1  0  0  0  0
 38 39  2  0  0  0  0
 38 79  1  0  0  0  0
 39 40  1  0  0  0  0
 39 42  1  0  0  0  0
 40 41  1  0  0  0  0
 41 80  1  0  0  0  0
 41 81  1  0  0  0  0
 41 82  1  0  0  0  0
 42 43  2  0  0  0  0
 42 83  1  0  0  0  0
 43 84  1  0  0  0  0
 44 45  1  0  0  0  0
 44 48  1  0  0  0  0
 44 85  1  0  0  0  0
 45 46  1  0  0  0  0
 45 86  1  0  0  0  0
 45 87  1  0  0  0  0
 46 47  1  0  0  0  0
 46 88  1  0  0  0  0
 46 89  1  0  0  0  0
 47 48  1  0  0  0  0
 47 90  1  0  0  0  0
 47 91  1  0  0  0  0
 48 92  1  0  0  0  0
 48 93  1  0  0  0  0
M  END
>  <DRUGBANK_ID>
DB18007

>  <COMMON_NAME>
Dersimelagon

>  <CAS_NUMBER>
1835256-48-8

>  <UNII>
1CWH5SV4G2

>  <SYNONYMS>
1-(2-((3s,4r)-1-((3r,4r)-1-cyclopentyl-3-fluoro-4-(4-methoxyphenyl)pyrrolidine-3-carbonyl)-4-(methoxymethyl)pyrrolidin-3-yl)-5-(trifluoromethyl)phenyl)piperidine-4-carboxylic acid; 4-piperidinecarboxylic acid, 1-(2-((3s,4r)-1-(((3r,4r)-1-cyclopentyl-3-fluoro-4-(4-methoxyphenyl)-3-pyrrolidinyl)carbonyl)-4-(methoxymethyl)-3-pyrrolidinyl)-5- (trifluoromethyl)phenyl)-

$$$$
