B28
 OpenBabel10282417163D

 49 51  0  0  0  0  0  0  0  0999 V2000
    1.3726   -0.2426    0.0153 C   0  0  0  0  0  0  0  0  0  0  0  0
    0.4930   -1.3265    0.0333 C   0  0  0  0  0  0  0  0  0  0  0  0
   -0.8825   -1.1056    0.0181 C   0  0  0  0  0  0  0  0  0  0  0  0
   -1.3819    0.1940    0.0363 C   0  0  0  0  0  0  0  0  0  0  0  0
   -0.5025    1.2766    0.0376 C   0  0  0  0  0  0  0  0  0  0  0  0
    0.8833    1.0706   -0.0246 C   0  0  0  0  0  0  0  0  0  0  0  0
    1.7795    2.2056   -0.2672 C   0  0  0  0  0  0  0  0  0  0  0  0
    1.8170    3.3070    0.5914 C   0  0  0  0  0  0  0  0  0  0  0  0
    2.5956    4.4208    0.2711 C   0  0  0  0  0  0  0  0  0  0  0  0
    2.5469    2.2357   -1.4427 C   0  0  0  0  0  0  0  0  0  0  0  0
    3.3452    3.3392   -1.7504 C   0  0  0  0  0  0  0  0  0  0  0  0
    3.3900    4.4324   -0.8821 C   0  0  0  0  0  0  0  0  0  0  0  0
    4.2646    5.5760   -1.1458 C   0  0  0  0  0  0  0  0  0  0  0  0
    4.1423    6.3088   -2.3235 C   0  0  0  0  0  0  0  0  0  0  0  0
    5.2093    5.9748   -0.1885 C   0  0  0  0  0  0  0  0  0  0  0  0
    6.0191    7.0893   -0.3991 C   0  0  0  0  0  0  0  0  0  0  0  0
    5.9153    7.7852   -1.5882 C   0  0  0  0  0  0  0  0  0  0  0  0
    4.9512    7.4311   -2.5351 C   0  0  0  0  0  0  0  0  0  0  0  0
    4.7389    8.2835   -3.7449 C   0  0  0  0  0  0  0  0  0  0  0  0
    4.1846    9.6869   -3.3992 C   0  0  0  0  0  0  0  0  0  0  0  0
    2.6396    9.5845   -2.4238 P   0  0  0  0  0  0  0  0  0  0  0  0
    1.8923   10.7874   -3.2594 O   0  0  0  0  0  0  0  0  0  0  0  0
    3.2951   10.2696   -1.2146 O   0  0  0  0  0  0  0  0  0  0  0  0
    1.1790    9.4878   -1.5017 O   0  0  0  0  0  0  0  0  0  0  0  0
    3.8876   10.6751   -4.9105 P   0  0  0  0  0  0  0  0  0  0  0  0
    5.2090   10.2333   -5.5376 O   0  0  0  0  0  0  0  0  0  0  0  0
    3.6067   11.6093   -6.3392 O   0  0  0  0  0  0  0  0  0  0  0  0
    2.6805    9.6365   -5.3666 O   0  0  0  0  0  0  0  0  0  0  0  0
    5.2070   10.4337   -2.6664 O   0  0  0  0  0  0  0  0  0  0  0  0
    2.4449   -0.4278    0.0011 H   0  0  0  0  0  0  0  0  0  0  0  0
    0.8838   -2.3398    0.0301 H   0  0  0  0  0  0  0  0  0  0  0  0
   -1.5677   -1.9486   -0.0127 H   0  0  0  0  0  0  0  0  0  0  0  0
   -2.4533    0.3708    0.0186 H   0  0  0  0  0  0  0  0  0  0  0  0
   -0.9057    2.2871    0.0316 H   0  0  0  0  0  0  0  0  0  0  0  0
    1.2391    3.3164    1.5111 H   0  0  0  0  0  0  0  0  0  0  0  0
    2.5729    5.2889    0.9262 H   0  0  0  0  0  0  0  0  0  0  0  0
    2.5113    1.4024   -2.1404 H   0  0  0  0  0  0  0  0  0  0  0  0
    3.9295    3.3279   -2.6670 H   0  0  0  0  0  0  0  0  0  0  0  0
    3.4015    6.0146   -3.0647 H   0  0  0  0  0  0  0  0  0  0  0  0
    5.3256    5.4113    0.7323 H   0  0  0  0  0  0  0  0  0  0  0  0
    6.7158    7.4159    0.3652 H   0  0  0  0  0  0  0  0  0  0  0  0
    6.5785    8.6335   -1.7634 H   0  0  0  0  0  0  0  0  0  0  0  0
    5.6932    8.3369   -4.2821 H   0  0  0  0  0  0  0  0  0  0  0  0
    4.0467    7.7593   -4.4122 H   0  0  0  0  0  0  0  0  0  0  0  0
    1.4444   10.4596   -4.0801 H   0  0  0  0  0  0  0  0  0  0  0  0
    1.1553   10.3264   -0.9957 H   0  0  0  0  0  0  0  0  0  0  0  0
    3.9145   12.5245   -6.2017 H   0  0  0  0  0  0  0  0  0  0  0  0
    3.0027    8.8064   -5.7759 H   0  0  0  0  0  0  0  0  0  0  0  0
    4.9360   10.3507   -1.7219 H   0  0  0  0  0  0  0  0  0  0  0  0
  1  2  1  0  0  0  0
  1  6  2  0  0  0  0
  1 30  1  0  0  0  0
  2  3  2  0  0  0  0
  2 31  1  0  0  0  0
  3  4  1  0  0  0  0
  3 32  1  0  0  0  0
  4  5  2  0  0  0  0
  4 33  1  0  0  0  0
  5  6  1  0  0  0  0
  5 34  1  0  0  0  0
  6  7  1  0  0  0  0
  7 10  2  0  0  0  0
  7  8  1  0  0  0  0
  8  9  2  0  0  0  0
  8 35  1  0  0  0  0
  9 12  1  0  0  0  0
  9 36  1  0  0  0  0
 10 11  1  0  0  0  0
 10 37  1  0  0  0  0
 11 12  2  0  0  0  0
 11 38  1  0  0  0  0
 12 13  1  0  0  0  0
 13 14  2  0  0  0  0
 13 15  1  0  0  0  0
 14 18  1  0  0  0  0
 14 39  1  0  0  0  0
 15 16  2  0  0  0  0
 15 40  1  0  0  0  0
 16 17  1  0  0  0  0
 16 41  1  0  0  0  0
 17 18  2  0  0  0  0
 17 42  1  0  0  0  0
 18 19  1  0  0  0  0
 19 20  1  0  0  0  0
 19 43  1  0  0  0  0
 19 44  1  0  0  0  0
 20 29  1  0  0  0  0
 20 25  1  0  0  0  0
 20 21  1  0  0  0  0
 21 23  2  0  0  0  0
 21 22  1  0  0  0  0
 21 24  1  0  0  0  0
 22 45  1  0  0  0  0
 24 46  1  0  0  0  0
 25 26  2  0  0  0  0
 25 28  1  0  0  0  0
 25 27  1  0  0  0  0
 27 47  1  0  0  0  0
 28 48  1  0  0  0  0
 29 49  1  0  0  0  0
M  END
>  <DRUGBANK_ID>
DB07409

>  <COMMON_NAME>
(1-HYDROXY-1-PHOSPHONO-2-[1,1';4',1'']TERPHENYL-3-YL-ETHYL)-PHOSPHONIC ACID

$$$$
