
 OpenBabel10282417133D

 22 21  0  0  1  0  0  0  0  0999 V2000
    0.9443   -0.0709   -0.0433 C   0  0  0  0  0  0  0  0  0  0  0  0
   -1.6557    1.7337    0.3079 C   0  0  0  0  0  0  0  0  0  0  0  0
    0.4377    4.0959    2.6309 C   0  0  0  0  0  0  0  0  0  0  0  0
    0.9443    5.0363    1.5495 C   0  0  1  0  0  0  0  0  0  0  0  0
    0.4376    4.5701    0.1944 C   0  0  0  0  0  0  0  0  0  0  0  0
    0.2943    1.7338    0.3079 As  0  0  0  0  0  0  0  0  0  0  0  0
    0.4543    6.3967    1.8143 N   0  0  0  0  0  0  0  0  0  0  0  0
   -0.2930    5.3362   -0.5087 O   0  0  0  0  0  0  0  0  0  0  0  0
    0.7807    3.2786   -0.2859 O   0  0  0  0  0  0  0  0  0  0  0  0
    1.0410    2.4209    2.3049 S   0  0  0  0  0  0  0  0  0  0  0  0
    2.0143    5.0363    1.5495 H   0  0  0  0  0  0  0  0  0  0  0  0
    0.5877   -0.3991   -0.9973 H   0  0  0  0  0  0  0  0  0  0  0  0
    0.5877   -0.7329    0.7179 H   0  0  0  0  0  0  0  0  0  0  0  0
    2.0143   -0.0709   -0.0433 H   0  0  0  0  0  0  0  0  0  0  0  0
   -2.0123    1.0717    1.0691 H   0  0  0  0  0  0  0  0  0  0  0  0
   -2.0123    2.7240    0.5006 H   0  0  0  0  0  0  0  0  0  0  0  0
   -2.0123    1.4055   -0.6460 H   0  0  0  0  0  0  0  0  0  0  0  0
   -0.6323    4.0959    2.6309 H   0  0  0  0  0  0  0  0  0  0  0  0
    0.7943    4.4241    3.5848 H   0  0  0  0  0  0  0  0  0  0  0  0
    0.7943    7.0278    1.0886 H   0  0  0  0  0  0  0  0  0  0  0  0
   -0.5657    6.3967    1.8143 H   0  0  0  0  0  0  0  0  0  0  0  0
    0.4474    2.9718   -1.1774 H   0  0  0  0  0  0  0  0  0  0  0  0
  1 12  1  0  0  0  0
  1 13  1  0  0  0  0
  1 14  1  0  0  0  0
  2 15  1  0  0  0  0
  2 16  1  0  0  0  0
  2 17  1  0  0  0  0
  3 18  1  0  0  0  0
  3 19  1  0  0  0  0
  4  3  1  0  0  0  0
  4  7  1  0  0  0  0
  4 11  1  6  0  0  0
  5  4  1  0  0  0  0
  6  1  1  0  0  0  0
  6  2  1  0  0  0  0
  7 20  1  0  0  0  0
  7 21  1  0  0  0  0
  8  5  2  0  0  0  0
  9  5  1  0  0  0  0
  9 22  1  0  0  0  0
 10  3  1  0  0  0  0
 10  6  1  0  0  0  0
M  END
>  <DRUGBANK_ID>
DB03963

>  <SECONDARY_ACCESSION_NUMBERS>
EXPT00832

>  <COMMON_NAME>
S-(Dimethylarsenic)Cysteine

$$$$
