
 OpenBabel10282417203D

 50 50  0  0  0  0  0  0  0  0999 V2000
    1.0258    0.2601   -0.2172 C   0  0  0  0  0  0  0  0  0  0  0  0
    0.5649   -1.0906   -0.6716 C   0  0  0  0  0  0  0  0  0  0  0  0
    1.0532   -2.3074    0.1583 C   0  0  0  0  0  0  0  0  0  0  0  0
    0.5271   -2.5928    1.4583 N   0  0  0  0  0  0  0  0  0  0  0  0
   -0.3062   -3.6980    1.7840 C   0  0  0  0  0  0  0  0  0  0  0  0
   -0.6641   -4.8801    0.7412 C   0  0  3  0  0  0  0  0  0  0  0  0
   -1.4734   -4.5170   -0.5490 C   0  0  0  0  0  0  0  0  0  0  0  0
   -0.7887   -3.6448   -1.5897 C   0  0  0  0  0  0  0  0  0  0  0  0
    0.5866   -4.0691   -2.2331 C   0  0  0  0  0  0  0  0  0  0  0  0
    1.5367   -4.5918   -1.4211 O   0  0  0  0  0  0  0  0  0  0  0  0
    0.9766   -1.6797    2.4869 C   0  0  0  0  0  0  0  0  0  0  0  0
    2.5196   -1.5611    2.5768 C   0  0  0  0  0  0  0  0  0  0  0  0
    3.3863   -1.0852    1.4005 C   0  0  0  0  0  0  0  0  0  0  0  0
   -0.7435   -3.8106    2.9382 O   0  0  0  0  0  0  0  0  0  0  0  0
    0.5387   -5.6701    0.4677 N   0  0  0  0  0  0  0  0  0  0  0  0
    0.6642   -7.0344    0.4759 C   0  0  0  0  0  0  0  0  0  0  0  0
    1.9500   -7.5877   -0.0802 C   0  0  0  0  0  0  0  0  0  0  0  0
   -0.2025   -7.7966    0.8858 O   0  0  0  0  0  0  0  0  0  0  0  0
    0.9107   -3.8364   -3.4036 O   0  0  0  0  0  0  0  0  0  0  0  0
    3.1956   -6.9702    0.1213 C   0  0  0  0  0  0  0  0  0  0  0  0
    4.3766   -7.6095   -0.2863 C   0  0  0  0  0  0  0  0  0  0  0  0
    4.3238   -8.8698   -0.8815 C   0  0  0  0  0  0  0  0  0  0  0  0
    3.0908   -9.4836   -1.0908 C   0  0  0  0  0  0  0  0  0  0  0  0
    1.9082   -8.8252   -0.7362 C   0  0  0  0  0  0  0  0  0  0  0  0
    0.8105    0.4073    0.8350 H   0  0  0  0  0  0  0  0  0  0  0  0
    0.5033    1.0575   -0.7478 H   0  0  0  0  0  0  0  0  0  0  0  0
    2.0851    0.3642   -0.4298 H   0  0  0  0  0  0  0  0  0  0  0  0
   -0.5269   -1.0038   -0.7082 H   0  0  0  0  0  0  0  0  0  0  0  0
    0.9009   -1.2294   -1.7120 H   0  0  0  0  0  0  0  0  0  0  0  0
    0.7208   -3.1921   -0.2606 H   0  0  0  0  0  0  0  0  0  0  0  0
    2.0838   -2.5801   -0.0142 H   0  0  0  0  0  0  0  0  0  0  0  0
   -1.3404   -5.5468    1.2980 H   0  0  0  0  0  0  0  0  0  0  0  0
   -1.8427   -5.3961   -1.0780 H   0  0  0  0  0  0  0  0  0  0  0  0
   -2.3604   -3.9586   -0.1974 H   0  0  0  0  0  0  0  0  0  0  0  0
   -1.4113   -3.2159   -2.3797 H   0  0  0  0  0  0  0  0  0  0  0  0
   -0.7856   -2.7479   -1.0020 H   0  0  0  0  0  0  0  0  0  0  0  0
    2.3823   -4.7921   -1.8821 H   0  0  0  0  0  0  0  0  0  0  0  0
    0.4795   -0.7257    2.3119 H   0  0  0  0  0  0  0  0  0  0  0  0
    0.5899   -1.9971    3.4602 H   0  0  0  0  0  0  0  0  0  0  0  0
    2.7165   -0.8408    3.3748 H   0  0  0  0  0  0  0  0  0  0  0  0
    2.9008   -2.5370    2.8905 H   0  0  0  0  0  0  0  0  0  0  0  0
    3.1458   -0.0590    1.1415 H   0  0  0  0  0  0  0  0  0  0  0  0
    4.4469   -1.1113    1.6484 H   0  0  0  0  0  0  0  0  0  0  0  0
    3.3847   -1.6787    0.4934 H   0  0  0  0  0  0  0  0  0  0  0  0
    1.2817   -5.1562    0.0169 H   0  0  0  0  0  0  0  0  0  0  0  0
    3.2723   -6.0190    0.6398 H   0  0  0  0  0  0  0  0  0  0  0  0
    5.3457   -7.1520   -0.0954 H   0  0  0  0  0  0  0  0  0  0  0  0
    5.2405   -9.3825   -1.1681 H   0  0  0  0  0  0  0  0  0  0  0  0
    3.0496  -10.4915   -1.4984 H   0  0  0  0  0  0  0  0  0  0  0  0
    0.9504   -9.2950   -0.9494 H   0  0  0  0  0  0  0  0  0  0  0  0
  1  2  1  0  0  0  0
  1 25  1  0  0  0  0
  1 26  1  0  0  0  0
  1 27  1  0  0  0  0
  2  3  1  0  0  0  0
  2 28  1  0  0  0  0
  2 29  1  0  0  0  0
  3  4  1  0  0  0  0
  3 30  1  0  0  0  0
  3 31  1  0  0  0  0
  4  5  1  0  0  0  0
  4 11  1  0  0  0  0
  5 14  2  0  0  0  0
  5  6  1  0  0  0  0
  6  7  1  0  0  0  0
  6 15  1  0  0  0  0
  6 32  1  0  0  0  0
  7  8  1  0  0  0  0
  7 33  1  0  0  0  0
  7 34  1  0  0  0  0
  8  9  1  0  0  0  0
  8 35  1  0  0  0  0
  8 36  1  0  0  0  0
  9 19  2  0  0  0  0
  9 10  1  0  0  0  0
 10 37  1  0  0  0  0
 11 12  1  0  0  0  0
 11 38  1  0  0  0  0
 11 39  1  0  0  0  0
 12 13  1  0  0  0  0
 12 40  1  0  0  0  0
 12 41  1  0  0  0  0
 13 42  1  0  0  0  0
 13 43  1  0  0  0  0
 13 44  1  0  0  0  0
 15 16  1  0  0  0  0
 15 45  1  0  0  0  0
 16 17  1  0  0  0  0
 16 18  2  0  0  0  0
 17 20  2  0  0  0  0
 20 21  1  0  0  0  0
 20 46  1  0  0  0  0
 21 22  2  0  0  0  0
 21 47  1  0  0  0  0
 22 23  1  0  0  0  0
 22 48  1  0  0  0  0
 23 24  2  0  0  0  0
 23 49  1  0  0  0  0
 24 17  1  0  0  0  0
 24 50  1  0  0  0  0
M  END
>  <DRUGBANK_ID>
DB13431

>  <COMMON_NAME>
Proglumide

>  <CAS_NUMBER>
6620-60-6

>  <UNII>
EPL8W5565D

>  <SYNONYMS>
proglumida; Proglumide

$$$$
