4MR
 OpenBabel10282417163D

 56 60  0  0  0  0  0  0  0  0999 V2000
    1.3651   -0.2756    0.0601 C   0  0  0  0  0  0  0  0  0  0  0  0
    0.4729   -1.3408    0.0329 C   0  0  0  0  0  0  0  0  0  0  0  0
   -0.8958   -1.0949   -0.0120 C   0  0  0  0  0  0  0  0  0  0  0  0
   -1.3720    0.2165   -0.0049 C   0  0  0  0  0  0  0  0  0  0  0  0
   -0.4755    1.2845    0.0185 C   0  0  0  0  0  0  0  0  0  0  0  0
    0.8971    1.0387   -0.0173 C   0  0  0  0  0  0  0  0  0  0  0  0
    1.7004    2.1493   -0.1287 O   0  0  0  0  0  0  0  0  0  0  0  0
    3.0305    1.9685   -0.4110 C   0  0  0  0  0  0  0  0  0  0  0  0
    3.5023    1.2169   -1.4903 C   0  0  0  0  0  0  0  0  0  0  0  0
    4.8715    1.0559   -1.6743 C   0  0  0  0  0  0  0  0  0  0  0  0
    3.9176    2.5963    0.4471 C   0  0  0  0  0  0  0  0  0  0  0  0
    5.2819    2.4386    0.2572 C   0  0  0  0  0  0  0  0  0  0  0  0
    5.7911    1.6842   -0.8108 C   0  0  0  0  0  0  0  0  0  0  0  0
    7.3015    1.4959   -1.0668 C   0  0  0  0  0  0  0  0  0  0  0  0
    7.5332    1.7313   -2.5971 C   0  0  0  0  0  0  0  0  0  0  0  0
    7.0810    2.6818   -3.2418 O   0  0  0  0  0  0  0  0  0  0  0  0
    8.2228    0.7907   -3.3054 N   0  0  0  0  0  0  0  0  0  0  0  0
    8.4921   -0.4793   -2.9206 C   0  0  0  0  0  0  0  0  0  0  0  0
    9.0137   -1.2786   -3.6800 O   0  0  0  0  0  0  0  0  0  0  0  0
    8.1430   -0.8141   -1.6519 N   0  0  0  0  0  0  0  0  0  0  0  0
    7.6247    0.0037   -0.6806 C   0  0  0  0  0  0  0  0  0  0  0  0
    7.4961   -0.4606    0.4566 O   0  0  0  0  0  0  0  0  0  0  0  0
    8.1869    2.3533   -0.1727 N   0  0  0  0  0  0  0  0  0  0  0  0
    9.6374    2.0631   -0.3023 C   0  0  0  0  0  0  0  0  0  0  0  0
   10.2717    2.6426   -1.5834 C   0  0  0  0  0  0  0  0  0  0  0  0
    8.0225    3.8314   -0.2123 C   0  0  0  0  0  0  0  0  0  0  0  0
    8.6019    4.5309   -1.4341 C   0  0  0  0  0  0  0  0  0  0  0  0
    9.9291    4.0381   -1.7175 N   0  0  0  0  0  0  0  0  0  0  0  0
   10.9198    4.9392   -1.9271 C   0  0  0  0  0  0  0  0  0  0  0  0
   11.6377    4.8110   -3.0496 N   0  0  0  0  0  0  0  0  0  0  0  0
   12.5609    5.7542   -3.2813 C   0  0  0  0  0  0  0  0  0  0  0  0
   12.8396    6.7696   -2.4019 C   0  0  0  0  0  0  0  0  0  0  0  0
   12.0813    6.7857   -1.2592 C   0  0  0  0  0  0  0  0  0  0  0  0
   11.1015    5.9043   -1.0147 N   0  0  0  0  0  0  0  0  0  0  0  0
    2.4260   -0.4959    0.1266 H   0  0  0  0  0  0  0  0  0  0  0  0
    0.8562   -2.3566    0.0401 H   0  0  0  0  0  0  0  0  0  0  0  0
   -1.5909   -1.9286   -0.0328 H   0  0  0  0  0  0  0  0  0  0  0  0
   -2.4412    0.4067   -0.0278 H   0  0  0  0  0  0  0  0  0  0  0  0
   -0.8473    2.3053    0.0621 H   0  0  0  0  0  0  0  0  0  0  0  0
    2.8173    0.7106   -2.1645 H   0  0  0  0  0  0  0  0  0  0  0  0
    5.2077    0.4380   -2.5061 H   0  0  0  0  0  0  0  0  0  0  0  0
    3.5573    3.1809    1.2873 H   0  0  0  0  0  0  0  0  0  0  0  0
    5.9294    2.9274    0.9770 H   0  0  0  0  0  0  0  0  0  0  0  0
    8.4121    1.0260   -4.2709 H   0  0  0  0  0  0  0  0  0  0  0  0
    8.3766   -1.7538   -1.3622 H   0  0  0  0  0  0  0  0  0  0  0  0
   10.1475    2.4989    0.5696 H   0  0  0  0  0  0  0  0  0  0  0  0
    9.8438    0.9909   -0.2228 H   0  0  0  0  0  0  0  0  0  0  0  0
    9.9090    2.1270   -2.4648 H   0  0  0  0  0  0  0  0  0  0  0  0
   11.3482    2.4437   -1.5816 H   0  0  0  0  0  0  0  0  0  0  0  0
    6.9926    4.1747   -0.1203 H   0  0  0  0  0  0  0  0  0  0  0  0
    8.5166    4.2346    0.6866 H   0  0  0  0  0  0  0  0  0  0  0  0
    7.9599    4.3485   -2.2885 H   0  0  0  0  0  0  0  0  0  0  0  0
    8.5440    5.6185   -1.3070 H   0  0  0  0  0  0  0  0  0  0  0  0
   13.0829    5.6606   -4.2271 H   0  0  0  0  0  0  0  0  0  0  0  0
   13.6051    7.5042   -2.5958 H   0  0  0  0  0  0  0  0  0  0  0  0
   12.2366    7.5274   -0.4831 H   0  0  0  0  0  0  0  0  0  0  0  0
  1  2  2  0  0  0  0
  1  6  1  0  0  0  0
  1 35  1  0  0  0  0
  2  3  1  0  0  0  0
  2 36  1  0  0  0  0
  3  4  2  0  0  0  0
  3 37  1  0  0  0  0
  4  5  1  0  0  0  0
  4 38  1  0  0  0  0
  5  6  2  0  0  0  0
  5 39  1  0  0  0  0
  6  7  1  0  0  0  0
  7  8  1  0  0  0  0
  8  9  2  0  0  0  0
  8 11  1  0  0  0  0
  9 10  1  0  0  0  0
  9 40  1  0  0  0  0
 10 13  2  0  0  0  0
 10 41  1  0  0  0  0
 11 12  2  0  0  0  0
 11 42  1  0  0  0  0
 12 13  1  0  0  0  0
 12 43  1  0  0  0  0
 13 14  1  0  0  0  0
 14 15  1  0  0  0  0
 14 21  1  0  0  0  0
 14 23  1  0  0  0  0
 15 17  1  0  0  0  0
 15 16  2  0  0  0  0
 17 18  1  0  0  0  0
 17 44  1  0  0  0  0
 18 19  2  0  0  0  0
 18 20  1  0  0  0  0
 20 21  1  0  0  0  0
 20 45  1  0  0  0  0
 21 22  2  0  0  0  0
 23 26  1  0  0  0  0
 23 24  1  0  0  0  0
 24 25  1  0  0  0  0
 24 46  1  0  0  0  0
 24 47  1  0  0  0  0
 25 28  1  0  0  0  0
 25 48  1  0  0  0  0
 25 49  1  0  0  0  0
 26 27  1  0  0  0  0
 26 50  1  0  0  0  0
 26 51  1  0  0  0  0
 27 28  1  0  0  0  0
 27 52  1  0  0  0  0
 27 53  1  0  0  0  0
 28 29  1  0  0  0  0
 29 34  1  0  0  0  0
 29 30  2  0  0  0  0
 30 31  1  0  0  0  0
 31 32  2  0  0  0  0
 31 54  1  0  0  0  0
 32 33  1  0  0  0  0
 32 55  1  0  0  0  0
 33 34  2  0  0  0  0
 33 56  1  0  0  0  0
M  END
>  <DRUGBANK_ID>
DB07117

>  <COMMON_NAME>
5-(4-PHENOXYPHENYL)-5-(4-PYRIMIDIN-2-YLPIPERAZIN-1-YL)PYRIMIDINE-2,4,6(2H,3H)-TRIONE

$$$$
