
 OpenBabel10282417153D

 40 41  0  0  0  0  0  0  0  0999 V2000
   -1.9126   -0.9446    0.2632 Cl  0  0  0  0  0  0  0  0  0  0  0  0
   -6.9253    1.9010    2.0608 S   0  0  0  0  0  0  0  0  0  0  0  0
    4.2619    0.0008    0.0469 S   0  0  0  0  0  0  0  0  0  0  0  0
   -2.4828    3.7273   -0.1053 N   0  0  0  0  0  0  0  0  0  0  0  0
   -0.5248    2.3103    0.1020 N   0  0  0  0  0  0  0  0  0  0  0  0
   -2.5981    1.5030   -0.5466 N   0  0  0  0  0  0  0  0  0  0  0  0
   -3.9037    3.8214   -0.0215 C   0  0  0  0  0  0  0  0  0  0  0  0
   -4.6116    3.0162    0.9035 C   0  0  0  0  0  0  0  0  0  0  0  0
   -1.7849    2.5121   -0.1378 C   0  0  0  0  0  0  0  0  0  0  0  0
   -4.6532    4.6336   -0.8777 C   0  0  0  0  0  0  0  0  0  0  0  0
   -1.7770    5.0038   -0.1132 C   0  0  0  0  0  0  0  0  0  0  0  0
   -6.0055    2.9707    0.9584 C   0  0  0  0  0  0  0  0  0  0  0  0
    0.1912    1.0415    0.0299 C   0  0  0  0  0  0  0  0  0  0  0  0
   -6.0468    4.6756   -0.7721 C   0  0  0  0  0  0  0  0  0  0  0  0
   -6.7178    3.8277    0.1165 C   0  0  0  0  0  0  0  0  0  0  0  0
    1.6140    1.1634    0.0024 C   0  0  0  0  0  0  0  0  0  0  0  0
   -0.2949   -0.3090    0.0535 C   0  0  0  0  0  0  0  0  0  0  0  0
    2.4745    0.0406    0.0042 C   0  0  0  0  0  0  0  0  0  0  0  0
    0.5586   -1.4068   -0.0165 C   0  0  0  0  0  0  0  0  0  0  0  0
    1.9199   -1.2377   -0.0167 C   0  0  0  0  0  0  0  0  0  0  0  0
   -5.6366    0.9557    2.9347 C   0  0  0  0  0  0  0  0  0  0  0  0
    4.7639    1.7274    0.0704 C   0  0  0  0  0  0  0  0  0  0  0  0
   -2.2318    0.6517   -0.1781 H   0  0  0  0  0  0  0  0  0  0  0  0
   -3.5621    1.5097   -0.2768 H   0  0  0  0  0  0  0  0  0  0  0  0
   -4.0276    2.3793    1.5594 H   0  0  0  0  0  0  0  0  0  0  0  0
   -4.1661    5.2147   -1.6570 H   0  0  0  0  0  0  0  0  0  0  0  0
   -1.1518    5.0967    0.7798 H   0  0  0  0  0  0  0  0  0  0  0  0
   -1.1397    5.0839   -1.0000 H   0  0  0  0  0  0  0  0  0  0  0  0
   -2.4470    5.8749   -0.1164 H   0  0  0  0  0  0  0  0  0  0  0  0
   -6.6148    5.3690   -1.3876 H   0  0  0  0  0  0  0  0  0  0  0  0
   -7.8056    3.8496    0.1462 H   0  0  0  0  0  0  0  0  0  0  0  0
    2.0452    2.1638    0.0028 H   0  0  0  0  0  0  0  0  0  0  0  0
    0.1471   -2.4136   -0.0284 H   0  0  0  0  0  0  0  0  0  0  0  0
    2.5298   -2.1366   -0.0128 H   0  0  0  0  0  0  0  0  0  0  0  0
   -5.0869    0.3121    2.2411 H   0  0  0  0  0  0  0  0  0  0  0  0
   -4.9407    1.6179    3.4582 H   0  0  0  0  0  0  0  0  0  0  0  0
   -6.1128    0.3169    3.6842 H   0  0  0  0  0  0  0  0  0  0  0  0
    4.4344    2.2390   -0.8354 H   0  0  0  0  0  0  0  0  0  0  0  0
    4.3877    2.2345    0.9607 H   0  0  0  0  0  0  0  0  0  0  0  0
    5.8579    1.7503    0.0993 H   0  0  0  0  0  0  0  0  0  0  0  0
  1 17  1  0  0  0  0
  2 12  1  0  0  0  0
  2 21  1  0  0  0  0
  3 18  1  0  0  0  0
  3 22  1  0  0  0  0
  4  7  1  0  0  0  0
  4  9  1  0  0  0  0
  4 11  1  0  0  0  0
  5  9  2  0  0  0  0
  5 13  1  0  0  0  0
  6  9  1  0  0  0  0
  6 23  1  0  0  0  0
  6 24  1  0  0  0  0
  7  8  2  0  0  0  0
  7 10  1  0  0  0  0
  8 12  1  0  0  0  0
  8 25  1  0  0  0  0
 10 14  2  0  0  0  0
 10 26  1  0  0  0  0
 11 27  1  0  0  0  0
 11 28  1  0  0  0  0
 11 29  1  0  0  0  0
 12 15  2  0  0  0  0
 13 16  1  0  0  0  0
 13 17  2  0  0  0  0
 14 15  1  0  0  0  0
 14 30  1  0  0  0  0
 15 31  1  0  0  0  0
 16 18  2  0  0  0  0
 16 32  1  0  0  0  0
 17 19  1  0  0  0  0
 18 20  1  0  0  0  0
 19 20  2  0  0  0  0
 19 33  1  0  0  0  0
 20 34  1  0  0  0  0
 21 35  1  0  0  0  0
 21 36  1  0  0  0  0
 21 37  1  0  0  0  0
 22 38  1  0  0  0  0
 22 39  1  0  0  0  0
 22 40  1  0  0  0  0
M  END
>  <DRUGBANK_ID>
DB05824

>  <COMMON_NAME>
CNS-5161

>  <UNII>
58S83M36V6

$$$$
