
 OpenBabel10282417203D

 51 53  0  0  0  0  0  0  0  0999 V2000
    1.1045   -0.1645    0.0039 C   0  0  0  0  0  0  0  0  0  0  0  0
    0.6147   -0.6694   -1.3561 N   0  3  0  0  0  0  0  0  0  0  0  0
   -0.0406   -2.0955   -1.2097 C   0  0  0  0  0  0  0  0  0  0  0  0
    1.1035   -3.0431   -1.3811 C   0  0  0  0  0  0  0  0  0  0  0  0
    1.9210   -2.4157   -2.4610 C   0  0  0  0  0  0  0  0  0  0  0  0
    1.7463   -0.9032   -2.4365 C   0  0  3  0  0  0  0  0  0  0  0  0
    3.1244   -0.1953   -2.2749 C   0  0  0  0  0  0  0  0  0  0  0  0
    4.0226   -0.5604   -3.3793 O   0  0  0  0  0  0  0  0  0  0  0  0
    4.7904   -1.7014   -3.2823 C   0  0  0  0  0  0  0  0  0  0  0  0
    4.7902   -2.4308   -2.2800 O   0  0  0  0  0  0  0  0  0  0  0  0
    5.7793   -1.9409   -4.4515 C   0  0  0  0  0  0  0  0  0  0  0  0
    5.2161   -1.6126   -5.8401 C   0  0  0  0  0  0  0  0  0  0  0  0
    4.5989   -2.6043   -6.6213 C   0  0  0  0  0  0  0  0  0  0  0  0
    4.0776   -2.2978   -7.8813 C   0  0  0  0  0  0  0  0  0  0  0  0
    4.1008   -0.9887   -8.3579 C   0  0  0  0  0  0  0  0  0  0  0  0
    4.6613    0.0122   -7.5907 C   0  0  0  0  0  0  0  0  0  0  0  0
    5.2698   -0.3193   -6.3915 C   0  0  0  0  0  0  0  0  0  0  0  0
    7.0382   -1.1737   -4.0502 C   0  0  0  0  0  0  0  0  0  0  0  0
    6.9755    0.2289   -3.9145 C   0  0  0  0  0  0  0  0  0  0  0  0
    8.0872    0.9845   -3.6038 C   0  0  0  0  0  0  0  0  0  0  0  0
    9.2473    0.3312   -3.2308 C   0  0  0  0  0  0  0  0  0  0  0  0
    9.2925   -1.0634   -3.2013 C   0  0  0  0  0  0  0  0  0  0  0  0
    8.2188   -1.8162   -3.6683 C   0  0  0  0  0  0  0  0  0  0  0  0
    6.0598   -3.3624   -4.4345 O   0  0  0  0  0  0  0  0  0  0  0  0
   -0.4450    0.3301   -1.8296 C   0  0  0  0  0  0  0  0  0  0  0  0
    0.6642   -0.7733    0.7957 H   0  0  0  0  0  0  0  0  0  0  0  0
    0.7767    0.8735    0.1365 H   0  0  0  0  0  0  0  0  0  0  0  0
    2.1867   -0.2014    0.0622 H   0  0  0  0  0  0  0  0  0  0  0  0
   -0.7720   -2.2315   -2.0137 H   0  0  0  0  0  0  0  0  0  0  0  0
   -0.5149   -2.2030   -0.2309 H   0  0  0  0  0  0  0  0  0  0  0  0
    1.7009   -3.0913   -0.4593 H   0  0  0  0  0  0  0  0  0  0  0  0
    0.8461   -4.0724   -1.6464 H   0  0  0  0  0  0  0  0  0  0  0  0
    2.8913   -2.6983   -2.1248 H   0  0  0  0  0  0  0  0  0  0  0  0
    1.7875   -2.8307   -3.4637 H   0  0  0  0  0  0  0  0  0  0  0  0
    1.3208   -0.5823   -3.3985 H   0  0  0  0  0  0  0  0  0  0  0  0
    2.9903    0.8939   -2.3194 H   0  0  0  0  0  0  0  0  0  0  0  0
    3.6258   -0.4153   -1.3264 H   0  0  0  0  0  0  0  0  0  0  0  0
    4.5462   -3.6375   -6.2773 H   0  0  0  0  0  0  0  0  0  0  0  0
    3.6516   -3.0855   -8.4960 H   0  0  0  0  0  0  0  0  0  0  0  0
    3.7123   -0.7453   -9.3405 H   0  0  0  0  0  0  0  0  0  0  0  0
    4.6710    1.0487   -7.9172 H   0  0  0  0  0  0  0  0  0  0  0  0
    5.8168    0.4959   -5.9461 H   0  0  0  0  0  0  0  0  0  0  0  0
    6.0442    0.7701   -4.0631 H   0  0  0  0  0  0  0  0  0  0  0  0
    8.0199    2.0675   -3.6284 H   0  0  0  0  0  0  0  0  0  0  0  0
   10.1131    0.9127   -2.9363 H   0  0  0  0  0  0  0  0  0  0  0  0
   10.1677   -1.5692   -2.8052 H   0  0  0  0  0  0  0  0  0  0  0  0
    8.3063   -2.9011   -3.6775 H   0  0  0  0  0  0  0  0  0  0  0  0
    6.7328   -3.5323   -5.1140 H   0  0  0  0  0  0  0  0  0  0  0  0
   -1.2277    0.3771   -1.0624 H   0  0  0  0  0  0  0  0  0  0  0  0
    0.0347    1.3093   -1.9309 H   0  0  0  0  0  0  0  0  0  0  0  0
   -0.8658    0.0082   -2.7846 H   0  0  0  0  0  0  0  0  0  0  0  0
  1  2  1  0  0  0  0
  1 26  1  0  0  0  0
  1 27  1  0  0  0  0
  1 28  1  0  0  0  0
  2  3  1  0  0  0  0
  2  6  1  0  0  0  0
  2 25  1  0  0  0  0
  3  4  1  0  0  0  0
  3 29  1  0  0  0  0
  3 30  1  0  0  0  0
  4  5  1  0  0  0  0
  4 31  1  0  0  0  0
  4 32  1  0  0  0  0
  5  6  1  0  0  0  0
  5 33  1  0  0  0  0
  5 34  1  0  0  0  0
  6  7  1  0  0  0  0
  6 35  1  0  0  0  0
  7  8  1  0  0  0  0
  7 36  1  0  0  0  0
  7 37  1  0  0  0  0
  8  9  1  0  0  0  0
  9 10  2  0  0  0  0
  9 11  1  0  0  0  0
 11 12  1  0  0  0  0
 11 18  1  0  0  0  0
 11 24  1  0  0  0  0
 12 13  2  0  0  0  0
 12 17  1  0  0  0  0
 13 14  1  0  0  0  0
 13 38  1  0  0  0  0
 14 15  2  0  0  0  0
 14 39  1  0  0  0  0
 15 16  1  0  0  0  0
 15 40  1  0  0  0  0
 16 17  2  0  0  0  0
 16 41  1  0  0  0  0
 17 42  1  0  0  0  0
 18 19  2  0  0  0  0
 18 23  1  0  0  0  0
 19 20  1  0  0  0  0
 19 43  1  0  0  0  0
 20 21  2  0  0  0  0
 20 44  1  0  0  0  0
 21 22  1  0  0  0  0
 21 45  1  0  0  0  0
 22 23  2  0  0  0  0
 22 46  1  0  0  0  0
 23 47  1  0  0  0  0
 24 48  1  0  0  0  0
 25 49  1  0  0  0  0
 25 50  1  0  0  0  0
 25 51  1  0  0  0  0
M  CHG  1   2   1
M  END
>  <DRUGBANK_ID>
DB13507

>  <COMMON_NAME>
Poldine

>  <CAS_NUMBER>
596-50-9

>  <UNII>
8R92106W2F

$$$$
