
 OpenBabel10282417173D

 55 59  0  0  0  0  0  0  0  0999 V2000
    0.8583    0.7834    0.2426 C   0  0  0  0  0  0  0  0  0  0  0  0
    0.8695   -0.5936    0.2460 C   0  0  0  0  0  0  0  0  0  0  0  0
    3.1715    0.8416   -0.6223 C   0  0  0  0  0  0  0  0  0  0  0  0
    2.2494    2.9447   -0.0496 O   0  0  0  0  0  0  0  0  0  0  0  0
    1.5977    3.9347    0.6110 C   0  0  0  0  0  0  0  0  0  0  0  0
    1.3102    4.9930    0.0627 O   0  0  0  0  0  0  0  0  0  0  0  0
    1.1491    3.6119    1.9936 C   0  0  0  0  0  0  0  0  0  0  0  0
    4.0627   -1.3238   -1.3731 C   0  0  0  0  0  0  0  0  0  0  0  0
    3.4037   -2.6455   -1.6178 C   0  0  0  0  0  0  0  0  0  0  0  0
    2.0075   -2.1510   -1.3054 C   0  0  0  0  0  0  0  0  0  0  0  0
    4.8357   -0.8253   -2.1822 O   0  0  0  0  0  0  0  0  0  0  0  0
   -0.4128   -1.4527    0.1354 C   0  0  0  0  0  0  0  0  0  0  0  0
   -1.4860   -0.7249   -0.4911 C   0  0  0  0  0  0  0  0  0  0  0  0
   -1.4364    0.6218   -0.7028 C   0  0  0  0  0  0  0  0  0  0  0  0
   -2.6996    1.1070   -1.1383 C   0  0  0  0  0  0  0  0  0  0  0  0
   -2.9473    2.5440   -0.8792 C   0  0  0  0  0  0  0  0  0  0  0  0
   -2.4157    2.9776    0.3166 O   0  0  0  0  0  0  0  0  0  0  0  0
   -1.8950    2.6827    2.4455 C   0  0  0  0  0  0  0  0  0  0  0  0
   -3.1026    1.9118    2.7379 O   0  0  0  0  0  0  0  0  0  0  0  0
   -3.4236    0.8746    1.8254 C   0  0  0  0  0  0  0  0  0  0  0  0
   -3.3165    3.4002   -1.6947 O   0  0  0  0  0  0  0  0  0  0  0  0
   -3.5100   -0.0255   -1.0738 C   0  0  0  0  0  0  0  0  0  0  0  0
   -2.7681   -1.1471   -0.7016 O   0  0  0  0  0  0  0  0  0  0  0  0
   -0.4249   -2.6130    0.5354 O   0  0  0  0  0  0  0  0  0  0  0  0
   -1.2360    2.3767    1.0637 C   0  0  2  0  0  0  0  0  0  0  0  0
   -0.4300    1.5755   -0.0890 C   0  0  2  0  0  0  0  0  0  0  0  0
   -0.2069    2.5881   -1.2303 C   0  0  0  0  0  0  0  0  0  0  0  0
    2.2029    1.5481    0.3205 C   0  0  1  0  0  0  0  0  0  0  0  0
    3.4357   -0.5918   -0.1526 C   0  0  1  0  0  0  0  0  0  0  0  0
    4.1681   -0.5538    1.1992 C   0  0  0  0  0  0  0  0  0  0  0  0
    2.1270   -1.4162    0.0415 C   0  0  2  0  0  0  0  0  0  0  0  0
    2.2512   -2.1572    0.8461 H   0  0  0  0  0  0  0  0  0  0  0  0
    4.1161    1.3947   -0.7042 H   0  0  0  0  0  0  0  0  0  0  0  0
    2.7668    0.8423   -1.6482 H   0  0  0  0  0  0  0  0  0  0  0  0
    0.6792    2.6412    2.0200 H   0  0  0  0  0  0  0  0  0  0  0  0
    1.9747    3.5353    2.6866 H   0  0  0  0  0  0  0  0  0  0  0  0
    0.4017    4.3485    2.3054 H   0  0  0  0  0  0  0  0  0  0  0  0
    3.4281   -3.0162   -2.6448 H   0  0  0  0  0  0  0  0  0  0  0  0
    3.8983   -3.3575   -0.9497 H   0  0  0  0  0  0  0  0  0  0  0  0
    1.2343   -2.9188   -1.3487 H   0  0  0  0  0  0  0  0  0  0  0  0
    1.7338   -1.4042   -2.0720 H   0  0  0  0  0  0  0  0  0  0  0  0
   -1.2652    2.6544    3.3439 H   0  0  0  0  0  0  0  0  0  0  0  0
   -2.1812    3.7476    2.3970 H   0  0  0  0  0  0  0  0  0  0  0  0
   -2.9430    1.1250    0.9425 H   0  0  0  0  0  0  0  0  0  0  0  0
   -2.8844   -0.0729    1.9414 H   0  0  0  0  0  0  0  0  0  0  0  0
   -4.4174    0.9309    1.3715 H   0  0  0  0  0  0  0  0  0  0  0  0
   -4.5777   -0.1705   -0.9403 H   0  0  0  0  0  0  0  0  0  0  0  0
   -1.2056    1.3761    1.5659 H   0  0  0  0  0  0  0  0  0  0  0  0
   -0.4419    2.1600   -2.2027 H   0  0  0  0  0  0  0  0  0  0  0  0
   -0.8004    3.4841   -1.0453 H   0  0  0  0  0  0  0  0  0  0  0  0
    0.7647    2.9983   -1.3709 H   0  0  0  0  0  0  0  0  0  0  0  0
    2.5738    1.5315    1.3428 H   0  0  0  0  0  0  0  0  0  0  0  0
    3.5396   -0.0714    1.9628 H   0  0  0  0  0  0  0  0  0  0  0  0
    4.3783   -1.5440    1.6105 H   0  0  0  0  0  0  0  0  0  0  0  0
    5.0964    0.0220    1.1570 H   0  0  0  0  0  0  0  0  0  0  0  0
  1  2  2  0  0  0  0
  1 28  1  0  0  0  0
  2 12  1  0  0  0  0
  2 31  1  0  0  0  0
  3 33  1  0  0  0  0
  3 34  1  0  0  0  0
  4  5  1  0  0  0  0
  5  6  2  0  0  0  0
  5  7  1  0  0  0  0
  7 35  1  0  0  0  0
  7 36  1  0  0  0  0
  7 37  1  0  0  0  0
  8  9  1  0  0  0  0
  8 11  2  0  0  0  0
  9 38  1  0  0  0  0
  9 39  1  0  0  0  0
 10  9  1  0  0  0  0
 10 40  1  0  0  0  0
 10 41  1  0  0  0  0
 12 24  2  0  0  0  0
 13 12  1  0  0  0  0
 13 23  1  0  0  0  0
 14 13  2  0  0  0  0
 14 15  1  0  0  0  0
 15 16  1  0  0  0  0
 15 22  2  0  0  0  0
 16 21  2  0  0  0  0
 17 16  1  0  0  0  0
 17 25  1  0  0  0  0
 18 19  1  0  0  0  0
 18 42  1  0  0  0  0
 18 43  1  0  0  0  0
 19 20  1  0  0  0  0
 20 44  1  0  0  0  0
 20 45  1  0  0  0  0
 20 46  1  0  0  0  0
 22 47  1  0  0  0  0
 23 22  1  0  0  0  0
 25 18  1  0  0  0  0
 25 26  1  0  0  0  0
 25 48  1  1  0  0  0
 26 14  1  0  0  0  0
 26  1  1  0  0  0  0
 26 27  1  1  0  0  0
 27 49  1  0  0  0  0
 27 50  1  0  0  0  0
 27 51  1  0  0  0  0
 28  3  1  0  0  0  0
 28 52  1  1  0  0  0
 28  4  1  0  0  0  0
 29  3  1  0  0  0  0
 29  8  1  0  0  0  0
 29 30  1  1  0  0  0
 30 53  1  0  0  0  0
 30 54  1  0  0  0  0
 30 55  1  0  0  0  0
 31 29  1  0  0  0  0
 31 10  1  0  0  0  0
 31 32  1  6  0  0  0
M  END
>  <DRUGBANK_ID>
DB08059

>  <COMMON_NAME>
Wortmannin

>  <CAS_NUMBER>
19545-26-7

>  <UNII>
XVA4O219QW

>  <SYNONYMS>
Wartmannin

$$$$
