
 OpenBabel10282417133D

 13 12  0  0  0  0  0  0  0  0999 V2000
    0.9519    0.3094   -1.1239 O   0  0  0  0  0  0  0  0  0  0  0  0
    0.4956   -1.2006   -1.2590 P   0  0  0  0  0  0  0  0  0  0  0  0
    2.0110   -1.6821   -1.4398 O   0  0  0  0  0  0  0  0  0  0  0  0
   -0.1045   -1.7514   -0.0021 O   0  0  0  0  0  0  0  0  0  0  0  0
   -0.0642   -1.7636   -2.6964 O   0  0  0  0  0  0  0  0  0  0  0  0
   -0.8307   -3.2127   -2.1438 P   0  0  0  0  0  0  0  0  0  0  0  0
   -1.0166   -3.5364   -3.7445 O   0  0  0  0  0  0  0  0  0  0  0  0
    0.6846   -3.8691   -2.0968 O   0  0  0  0  0  0  0  0  0  0  0  0
   -1.5168   -4.5097   -1.6493 O   0  0  0  0  0  0  0  0  0  0  0  0
    1.5501    0.3103   -0.3330 H   0  0  0  0  0  0  0  0  0  0  0  0
    2.3821   -1.1254   -2.1626 H   0  0  0  0  0  0  0  0  0  0  0  0
   -1.9360   -3.4868   -4.0413 H   0  0  0  0  0  0  0  0  0  0  0  0
    1.3234   -3.4397   -1.4901 H   0  0  0  0  0  0  0  0  0  0  0  0
  1  2  1  0  0  0  0
  1 10  1  0  0  0  0
  2  3  1  0  0  0  0
  2  4  2  0  0  0  0
  2  5  1  0  0  0  0
  3 11  1  0  0  0  0
  5  6  1  0  0  0  0
  6  7  1  0  0  0  0
  6  8  1  0  0  0  0
  6  9  2  0  0  0  0
  7 12  1  0  0  0  0
  8 13  1  0  0  0  0
M  END
>  <DRUGBANK_ID>
DB04160

>  <SECONDARY_ACCESSION_NUMBERS>
EXPT01258; DB11055

>  <COMMON_NAME>
Pyrophosphoric acid

>  <CAS_NUMBER>
2466-09-3

>  <UNII>
4E862E7GRQ

>  <SYNONYMS>
acide diphosphorique; Diphosphoric acid; Diphosphorsäure; Pyrophosphorsäure

$$$$
