
 OpenBabel10282417133D

 20 20  0  0  1  0  0  0  0  0999 V2000
    1.0788   -0.0030    0.0546 C   0  0  0  0  0  0  0  0  0  0  0  0
    0.5753    0.1417   -1.3767 C   0  0  0  0  0  0  0  0  0  0  0  0
    1.0396   -0.9996   -2.3133 C   0  0  1  0  0  0  0  0  0  0  0  0
    0.5762   -2.3583   -1.7709 C   0  0  0  0  0  0  0  0  0  0  0  0
    0.5692   -0.7325   -3.7389 C   0  0  0  0  0  0  0  0  0  0  0  0
    0.5114    0.4717   -4.2749 N   0  0  0  0  0  0  0  0  0  0  0  0
    0.0595    0.3985   -5.5778 C   0  0  0  0  0  0  0  0  0  0  0  0
   -0.2146   -0.8691   -6.0402 C   0  0  0  0  0  0  0  0  0  0  0  0
    0.1222   -2.0098   -4.8166 S   0  0  0  0  0  0  0  0  0  0  0  0
    0.6962   -0.9091    0.5321 H   0  0  0  0  0  0  0  0  0  0  0  0
    0.7431    0.8416    0.6635 H   0  0  0  0  0  0  0  0  0  0  0  0
    2.1725   -0.0330    0.0799 H   0  0  0  0  0  0  0  0  0  0  0  0
   -0.5210    0.1942   -1.3684 H   0  0  0  0  0  0  0  0  0  0  0  0
    0.9279    1.1078   -1.7609 H   0  0  0  0  0  0  0  0  0  0  0  0
    2.1381   -0.9964   -2.3359 H   0  0  0  0  0  0  0  0  0  0  0  0
   -0.5177   -2.4075   -1.7252 H   0  0  0  0  0  0  0  0  0  0  0  0
    0.9336   -3.1864   -2.3907 H   0  0  0  0  0  0  0  0  0  0  0  0
    0.9667   -2.5525   -0.7686 H   0  0  0  0  0  0  0  0  0  0  0  0
   -0.0532    1.3075   -6.1530 H   0  0  0  0  0  0  0  0  0  0  0  0
   -0.5765   -1.1709   -7.0108 H   0  0  0  0  0  0  0  0  0  0  0  0
  1  2  1  0  0  0  0
  1 10  1  0  0  0  0
  1 11  1  0  0  0  0
  1 12  1  0  0  0  0
  2  3  1  0  0  0  0
  2 13  1  0  0  0  0
  2 14  1  0  0  0  0
  3  4  1  0  0  0  0
  3  5  1  0  0  0  0
  3 15  1  6  0  0  0
  4 16  1  0  0  0  0
  4 17  1  0  0  0  0
  4 18  1  0  0  0  0
  5  6  2  0  0  0  0
  5  9  1  0  0  0  0
  6  7  1  0  0  0  0
  7  8  2  0  0  0  0
  7 19  1  0  0  0  0
  8  9  1  0  0  0  0
  8 20  1  0  0  0  0
M  END
>  <DRUGBANK_ID>
DB03087

>  <SECONDARY_ACCESSION_NUMBERS>
EXPT03152

>  <COMMON_NAME>
2-(Sec-Butyl)Thiazole

$$$$
