
 OpenBabel10282417123D

 54 53  0  0  0  0  0  0  0  0999 V2000
    1.0153    0.1838   -0.0382 C   0  0  0  0  0  0  0  0  0  0  0  0
    0.5671   -0.9959   -0.8852 C   0  0  0  0  0  0  0  0  0  0  0  0
    1.0656   -2.3069   -0.2758 C   0  0  0  0  0  0  0  0  0  0  0  0
    0.5139   -2.5046    1.1405 C   0  0  0  0  0  0  0  0  0  0  0  0
   -1.0187   -2.5189    1.1260 C   0  0  0  0  0  0  0  0  0  0  0  0
   -1.5237   -3.6763    0.2597 C   0  0  0  0  0  0  0  0  0  0  0  0
   -1.0161   -5.0046    0.8281 C   0  0  0  0  0  0  0  0  0  0  0  0
   -1.5276   -5.1770    2.2616 C   0  0  0  0  0  0  0  0  0  0  0  0
   -3.0590   -5.1741    2.2595 C   0  0  0  0  0  0  0  0  0  0  0  0
   -3.5659   -6.3252    1.3864 C   0  0  0  0  0  0  0  0  0  0  0  0
   -3.0465   -7.6532    1.9466 C   0  0  0  0  0  0  0  0  0  0  0  0
   -3.5575   -7.8402    3.3784 C   0  0  0  0  0  0  0  0  0  0  0  0
   -5.0879   -7.8413    3.3779 C   0  0  0  0  0  0  0  0  0  0  0  0
   -5.5987   -8.9803    2.4894 C   0  0  0  0  0  0  0  0  0  0  0  0
   -5.1889  -10.3378    3.0615 C   0  0  0  0  0  0  0  0  0  0  0  0
   -5.6929  -10.5348    4.4903 C   0  0  0  0  0  0  0  0  0  0  0  0
   -7.4868  -10.4868    4.6274 S   0  0  0  0  0  0  0  0  0  0  0  0
   -7.7951  -11.7331    3.6426 O   0  0  0  0  0  0  0  0  0  0  0  0
   -7.8561  -10.8668    5.9762 O   0  0  0  0  0  0  0  0  0  0  0  0
   -8.0396   -9.3105    4.0105 O   0  0  0  0  0  0  0  0  0  0  0  0
    0.6214    0.1326    0.9822 H   0  0  0  0  0  0  0  0  0  0  0  0
    0.6617    1.1231   -0.4636 H   0  0  0  0  0  0  0  0  0  0  0  0
    2.1073    0.2000    0.0243 H   0  0  0  0  0  0  0  0  0  0  0  0
   -0.5257   -0.9903   -0.9766 H   0  0  0  0  0  0  0  0  0  0  0  0
    0.9446   -0.8978   -1.9065 H   0  0  0  0  0  0  0  0  0  0  0  0
    0.7818   -3.1426   -0.9274 H   0  0  0  0  0  0  0  0  0  0  0  0
    2.1590   -2.3255   -0.2498 H   0  0  0  0  0  0  0  0  0  0  0  0
    0.9237   -3.4259    1.5677 H   0  0  0  0  0  0  0  0  0  0  0  0
    0.8691   -1.7298    1.8238 H   0  0  0  0  0  0  0  0  0  0  0  0
   -1.3950   -2.5809    2.1522 H   0  0  0  0  0  0  0  0  0  0  0  0
   -1.4378   -1.5767    0.7640 H   0  0  0  0  0  0  0  0  0  0  0  0
   -2.6161   -3.6435    0.2005 H   0  0  0  0  0  0  0  0  0  0  0  0
   -1.2140   -3.5777   -0.7838 H   0  0  0  0  0  0  0  0  0  0  0  0
   -1.3220   -5.8269    0.1751 H   0  0  0  0  0  0  0  0  0  0  0  0
    0.0744   -5.0736    0.8138 H   0  0  0  0  0  0  0  0  0  0  0  0
   -1.1124   -6.0911    2.6946 H   0  0  0  0  0  0  0  0  0  0  0  0
   -1.1573   -4.3995    2.9346 H   0  0  0  0  0  0  0  0  0  0  0  0
   -3.4307   -5.2335    3.2860 H   0  0  0  0  0  0  0  0  0  0  0  0
   -3.4750   -4.2280    1.9030 H   0  0  0  0  0  0  0  0  0  0  0  0
   -4.6570   -6.2914    1.3273 H   0  0  0  0  0  0  0  0  0  0  0  0
   -3.2633   -6.2216    0.3409 H   0  0  0  0  0  0  0  0  0  0  0  0
   -3.3415   -8.4729    1.2875 H   0  0  0  0  0  0  0  0  0  0  0  0
   -1.9552   -7.7155    1.9320 H   0  0  0  0  0  0  0  0  0  0  0  0
   -3.1457   -8.7595    3.8024 H   0  0  0  0  0  0  0  0  0  0  0  0
   -3.1883   -7.0616    4.0533 H   0  0  0  0  0  0  0  0  0  0  0  0
   -5.4574   -7.9060    4.4043 H   0  0  0  0  0  0  0  0  0  0  0  0
   -5.4994   -6.8891    3.0283 H   0  0  0  0  0  0  0  0  0  0  0  0
   -6.6744   -8.9015    2.3537 H   0  0  0  0  0  0  0  0  0  0  0  0
   -5.2422   -8.8909    1.4592 H   0  0  0  0  0  0  0  0  0  0  0  0
   -5.5372  -11.1360    2.4009 H   0  0  0  0  0  0  0  0  0  0  0  0
   -4.0945  -10.4325    3.0544 H   0  0  0  0  0  0  0  0  0  0  0  0
   -5.3578  -11.5002    4.8785 H   0  0  0  0  0  0  0  0  0  0  0  0
   -5.2963   -9.7792    5.1749 H   0  0  0  0  0  0  0  0  0  0  0  0
   -7.7438  -11.4499    2.7051 H   0  0  0  0  0  0  0  0  0  0  0  0
  1  2  1  0  0  0  0
  1 21  1  0  0  0  0
  1 22  1  0  0  0  0
  1 23  1  0  0  0  0
  2  3  1  0  0  0  0
  2 24  1  0  0  0  0
  2 25  1  0  0  0  0
  3  4  1  0  0  0  0
  3 26  1  0  0  0  0
  3 27  1  0  0  0  0
  4  5  1  0  0  0  0
  4 28  1  0  0  0  0
  4 29  1  0  0  0  0
  5  6  1  0  0  0  0
  5 30  1  0  0  0  0
  5 31  1  0  0  0  0
  6  7  1  0  0  0  0
  6 32  1  0  0  0  0
  6 33  1  0  0  0  0
  7  8  1  0  0  0  0
  7 34  1  0  0  0  0
  7 35  1  0  0  0  0
  8  9  1  0  0  0  0
  8 36  1  0  0  0  0
  8 37  1  0  0  0  0
  9 10  1  0  0  0  0
  9 38  1  0  0  0  0
  9 39  1  0  0  0  0
 10 11  1  0  0  0  0
 10 40  1  0  0  0  0
 10 41  1  0  0  0  0
 11 12  1  0  0  0  0
 11 42  1  0  0  0  0
 11 43  1  0  0  0  0
 12 13  1  0  0  0  0
 12 44  1  0  0  0  0
 12 45  1  0  0  0  0
 13 14  1  0  0  0  0
 13 46  1  0  0  0  0
 13 47  1  0  0  0  0
 14 15  1  0  0  0  0
 14 48  1  0  0  0  0
 14 49  1  0  0  0  0
 15 16  1  0  0  0  0
 15 50  1  0  0  0  0
 15 51  1  0  0  0  0
 16 17  1  0  0  0  0
 16 52  1  0  0  0  0
 16 53  1  0  0  0  0
 17 18  1  0  0  0  0
 17 19  2  0  0  0  0
 17 20  2  0  0  0  0
 18 54  1  0  0  0  0
M  END
>  <DRUGBANK_ID>
DB02776

>  <SECONDARY_ACCESSION_NUMBERS>
EXPT01716

>  <COMMON_NAME>
1-Hexadecanosulfonic Acid

>  <CAS_NUMBER>
15015-81-3

>  <UNII>
84694Z0M9P

$$$$
