TQ4
 OpenBabel10282417143D

 34 36  0  0  0  0  0  0  0  0999 V2000
    0.0617    0.6318    0.0843 C   0  0  0  0  0  0  0  0  0  0  0  0
    0.0320   -0.7762    0.0674 C   0  0  0  0  0  0  0  0  0  0  0  0
    1.3151   -1.3586   -0.0076 C   0  0  0  0  0  0  0  0  0  0  0  0
    2.4512   -0.6543   -0.0396 N   0  0  0  0  0  0  0  0  0  0  0  0
    2.3442    0.6747    0.0004 C   0  0  0  0  0  0  0  0  0  0  0  0
    1.1907    1.3407    0.0821 N   0  0  0  0  0  0  0  0  0  0  0  0
    1.4754   -2.7194   -0.2708 N   0  0  0  0  0  0  0  0  0  0  0  0
   -1.1391    1.3259    0.0401 C   0  0  0  0  0  0  0  0  0  0  0  0
   -2.3538    0.6757   -0.1351 C   0  0  0  0  0  0  0  0  0  0  0  0
   -2.4061   -0.7074   -0.0324 C   0  0  0  0  0  0  0  0  0  0  0  0
   -1.2332   -1.4547    0.1150 C   0  0  0  0  0  0  0  0  0  0  0  0
    3.4962    1.3918   -0.0798 N   0  0  0  0  0  0  0  0  0  0  0  0
   -1.2730   -3.2384    0.4156 S   0  0  0  0  0  0  0  0  0  0  0  0
   -2.9510   -3.7544    0.4203 C   0  0  0  0  0  0  0  0  0  0  0  0
   -3.7701   -3.5736   -0.6927 C   0  0  0  0  0  0  0  0  0  0  0  0
   -5.1315   -3.8312   -0.5918 C   0  0  0  0  0  0  0  0  0  0  0  0
   -5.6511   -4.4096    0.5713 C   0  0  0  0  0  0  0  0  0  0  0  0
   -4.7897   -4.7577    1.6155 C   0  0  0  0  0  0  0  0  0  0  0  0
   -3.4516   -4.3855    1.5596 C   0  0  0  0  0  0  0  0  0  0  0  0
   -7.1283   -4.6038    0.7047 C   0  0  0  0  0  0  0  0  0  0  0  0
    0.7271   -3.3113    0.0739 H   0  0  0  0  0  0  0  0  0  0  0  0
    2.4133   -3.0654   -0.1304 H   0  0  0  0  0  0  0  0  0  0  0  0
   -1.1308    2.4138    0.1037 H   0  0  0  0  0  0  0  0  0  0  0  0
   -3.2615    1.2405   -0.3318 H   0  0  0  0  0  0  0  0  0  0  0  0
   -3.3864   -1.1650   -0.0607 H   0  0  0  0  0  0  0  0  0  0  0  0
    3.4414    2.3958   -0.0946 H   0  0  0  0  0  0  0  0  0  0  0  0
    4.3540    0.8786   -0.1905 H   0  0  0  0  0  0  0  0  0  0  0  0
   -3.3647   -3.1659   -1.6161 H   0  0  0  0  0  0  0  0  0  0  0  0
   -5.7860   -3.5596   -1.4161 H   0  0  0  0  0  0  0  0  0  0  0  0
   -5.1564   -5.2883    2.4904 H   0  0  0  0  0  0  0  0  0  0  0  0
   -2.8077   -4.5790    2.4151 H   0  0  0  0  0  0  0  0  0  0  0  0
   -7.6247   -3.6276    0.6839 H   0  0  0  0  0  0  0  0  0  0  0  0
   -7.5043   -5.2229   -0.1135 H   0  0  0  0  0  0  0  0  0  0  0  0
   -7.3811   -5.0876    1.6529 H   0  0  0  0  0  0  0  0  0  0  0  0
  1  2  2  0  0  0  0
  1  6  1  0  0  0  0
  1  8  1  0  0  0  0
  2  3  1  0  0  0  0
  2 11  1  0  0  0  0
  3  4  2  0  0  0  0
  3  7  1  0  0  0  0
  4  5  1  0  0  0  0
  5  6  2  0  0  0  0
  5 12  1  0  0  0  0
  7 21  1  0  0  0  0
  7 22  1  0  0  0  0
  8  9  2  0  0  0  0
  8 23  1  0  0  0  0
  9 10  1  0  0  0  0
  9 24  1  0  0  0  0
 10 11  2  0  0  0  0
 10 25  1  0  0  0  0
 11 13  1  0  0  0  0
 12 26  1  0  0  0  0
 12 27  1  0  0  0  0
 13 14  1  0  0  0  0
 14 15  2  0  0  0  0
 14 19  1  0  0  0  0
 15 16  1  0  0  0  0
 15 28  1  0  0  0  0
 16 17  2  0  0  0  0
 16 29  1  0  0  0  0
 17 18  1  0  0  0  0
 17 20  1  0  0  0  0
 18 19  2  0  0  0  0
 18 30  1  0  0  0  0
 19 31  1  0  0  0  0
 20 32  1  0  0  0  0
 20 33  1  0  0  0  0
 20 34  1  0  0  0  0
M  END
>  <DRUGBANK_ID>
DB04306

>  <SECONDARY_ACCESSION_NUMBERS>
EXPT03100

>  <COMMON_NAME>
5-[(4-Methylphenyl)Sulfanyl]-2,4-Quinazolinediamine

$$$$
