
 OpenBabel10282417233D

 44 47  0  0  0  0  0  0  0  0999 V2000
    2.3939   -0.6844   -0.0663 C   0  0  0  0  0  0  0  0  0  0  0  0
    2.3730    0.6997    0.0371 C   0  0  0  0  0  0  0  0  0  0  0  0
    1.1506    1.3923    0.0951 C   0  0  0  0  0  0  0  0  0  0  0  0
    1.2056   -1.4041   -0.1326 C   0  0  0  0  0  0  0  0  0  0  0  0
   -0.0226   -0.7345   -0.0933 C   0  0  0  0  0  0  0  0  0  0  0  0
   -0.0505    0.6738    0.0144 C   0  0  0  0  0  0  0  0  0  0  0  0
   -1.2324    1.3803    0.0681 O   0  0  0  0  0  0  0  0  0  0  0  0
   -2.3656    0.6272   -0.3280 C   0  0  0  0  0  0  0  0  0  0  0  0
   -2.3922   -0.7491    0.2980 C   0  0  0  0  0  0  0  0  0  0  0  0
   -1.2465   -1.4523   -0.0483 N   0  0  0  0  0  0  0  0  0  0  0  0
    3.8973   -1.5206   -0.0798 Cl  0  0  0  0  0  0  0  0  0  0  0  0
   -3.3368   -1.1963    0.9381 O   0  0  0  0  0  0  0  0  0  0  0  0
   -1.3378   -2.8496   -0.4115 C   0  0  0  0  0  0  0  0  0  0  0  0
    1.2331    2.8718    0.2341 C   0  0  0  0  0  0  0  0  0  0  0  0
    0.0674    3.6035    0.1898 N   0  0  0  0  0  0  0  0  0  0  0  0
   -0.0053    5.0664    0.2473 C   0  0  3  0  0  0  0  0  0  0  0  0
    2.3519    3.3715    0.3438 O   0  0  0  0  0  0  0  0  0  0  0  0
   -1.3664    5.5883   -0.3185 C   0  0  0  0  0  0  0  0  0  0  0  0
   -1.1910    6.5020   -1.4790 N   0  0  3  0  0  0  0  0  0  0  0  0
   -0.4351    5.7833   -2.5319 C   0  0  0  0  0  0  0  0  0  0  0  0
    0.9431    5.3205   -2.0396 C   0  0  0  0  0  0  0  0  0  0  0  0
   -0.3963    7.6717   -1.0430 C   0  0  0  0  0  0  0  0  0  0  0  0
    0.9658    7.2588   -0.4819 C   0  0  0  0  0  0  0  0  0  0  0  0
    1.1197    5.7403   -0.5709 C   0  0  3  0  0  0  0  0  0  0  0  0
    3.3146    1.2463    0.0812 H   0  0  0  0  0  0  0  0  0  0  0  0
    1.2595   -2.4876   -0.1562 H   0  0  0  0  0  0  0  0  0  0  0  0
   -2.3617    0.5060   -1.4213 H   0  0  0  0  0  0  0  0  0  0  0  0
   -3.2738    1.1786   -0.0688 H   0  0  0  0  0  0  0  0  0  0  0  0
   -0.9961   -2.9468   -1.4504 H   0  0  0  0  0  0  0  0  0  0  0  0
   -0.7249   -3.4717    0.2418 H   0  0  0  0  0  0  0  0  0  0  0  0
   -2.3760   -3.1928   -0.3781 H   0  0  0  0  0  0  0  0  0  0  0  0
   -0.8068    3.0868    0.2124 H   0  0  0  0  0  0  0  0  0  0  0  0
    0.0732    5.3466    1.3052 H   0  0  0  0  0  0  0  0  0  0  0  0
   -2.0212    4.7596   -0.6194 H   0  0  0  0  0  0  0  0  0  0  0  0
   -1.9188    6.1171    0.4699 H   0  0  0  0  0  0  0  0  0  0  0  0
   -1.0190    4.9209   -2.8785 H   0  0  0  0  0  0  0  0  0  0  0  0
   -0.3112    6.4277   -3.4103 H   0  0  0  0  0  0  0  0  0  0  0  0
    1.0241    4.2329   -2.1538 H   0  0  0  0  0  0  0  0  0  0  0  0
    1.7393    5.7566   -2.6511 H   0  0  0  0  0  0  0  0  0  0  0  0
   -0.2545    8.3621   -1.8835 H   0  0  0  0  0  0  0  0  0  0  0  0
   -0.9504    8.2384   -0.2850 H   0  0  0  0  0  0  0  0  0  0  0  0
    1.0675    7.5841    0.5601 H   0  0  0  0  0  0  0  0  0  0  0  0
    1.7712    7.7361   -1.0528 H   0  0  0  0  0  0  0  0  0  0  0  0
    2.1150    5.4893   -0.2039 H   0  0  0  0  0  0  0  0  0  0  0  0
  1  2  2  0  0  0  0
  1 11  1  0  0  0  0
  2  3  1  0  0  0  0
  2 25  1  0  0  0  0
  3 14  1  0  0  0  0
  3  6  2  0  0  0  0
  4  1  1  0  0  0  0
  4 26  1  0  0  0  0
  5  6  1  0  0  0  0
  5  4  2  0  0  0  0
  5 10  1  0  0  0  0
  6  7  1  0  0  0  0
  7  8  1  0  0  0  0
  8  9  1  0  0  0  0
  8 27  1  0  0  0  0
  8 28  1  0  0  0  0
  9 12  2  0  0  0  0
  9 10  1  0  0  0  0
 10 13  1  0  0  0  0
 13 29  1  0  0  0  0
 13 30  1  0  0  0  0
 13 31  1  0  0  0  0
 14 15  1  0  0  0  0
 14 17  2  0  0  0  0
 15 16  1  0  0  0  0
 15 32  1  0  0  0  0
 16 18  1  0  0  0  0
 16 24  1  0  0  0  0
 16 33  1  0  0  0  0
 18 19  1  0  0  0  0
 18 34  1  0  0  0  0
 18 35  1  0  0  0  0
 19 20  1  0  0  0  0
 19 22  1  0  0  0  0
 20 21  1  0  0  0  0
 20 36  1  0  0  0  0
 20 37  1  0  0  0  0
 21 24  1  0  0  0  0
 21 38  1  0  0  0  0
 21 39  1  0  0  0  0
 22 23  1  0  0  0  0
 22 40  1  0  0  0  0
 22 41  1  0  0  0  0
 23 24  1  0  0  0  0
 23 42  1  0  0  0  0
 23 43  1  0  0  0  0
 24 44  1  0  0  0  0
M  END
>  <DRUGBANK_ID>
DB16837

>  <COMMON_NAME>
Azasetron

>  <CAS_NUMBER>
123040-69-7

>  <UNII>
77HC7URR9Z

>  <SYNONYMS>
Azasetron

$$$$
