
 OpenBabel10282417233D

 62 66  0  0  1  0  0  0  0  0999 V2000
    0.9331    0.0091   -0.0961 C   0  0  0  0  0  0  0  0  0  0  0  0
    0.4490    1.3674    0.4270 C   0  0  0  0  0  0  0  0  0  0  0  0
    0.9465    2.4625   -0.5248 C   0  0  0  0  0  0  0  0  0  0  0  0
   -0.9832    1.3947    0.4207 O   0  0  0  0  0  0  0  0  0  0  0  0
    0.9237    1.5975    1.8548 C   0  0  0  0  0  0  0  0  0  0  0  0
    1.3152    0.5255    2.5973 N   0  0  0  0  0  0  0  0  0  0  0  0
    1.7726    0.7900    3.8417 C   0  0  0  0  0  0  0  0  0  0  0  0
    1.8071    2.0706    4.3647 C   0  0  0  0  0  0  0  0  0  0  0  0
    1.3431    3.1353    3.6723 N   0  0  0  0  0  0  0  0  0  0  0  0
    0.9460    2.8761    2.4053 C   0  0  0  0  0  0  0  0  0  0  0  0
    2.1902    2.2750    5.6786 N   0  0  0  0  0  0  0  0  0  0  0  0
    1.3347    2.9383    6.5697 C   0  0  0  0  0  0  0  0  0  0  0  0
    2.1049    2.9456    7.8779 C   0  0  2  0  0  0  0  0  0  0  0  0
    1.6241    1.8956    8.8928 C   0  0  0  0  0  0  0  0  0  0  0  0
    0.2369    2.2164    9.4332 C   0  0  0  0  0  0  0  0  0  0  0  0
    0.2299    3.5904   10.1029 C   0  0  0  0  0  0  0  0  0  0  0  0
    0.6653    4.7119    9.1264 C   0  0  2  0  0  0  0  0  0  0  0  0
    0.8722    6.0374    9.8822 C   0  0  0  0  0  0  0  0  0  0  0  0
   -0.4271    4.9231    8.0350 C   0  0  0  0  0  0  0  0  0  0  0  0
   -1.7430    5.2566    8.5409 N   0  0  0  0  0  0  0  0  0  0  0  0
   -2.0705    6.3737    9.2519 C   0  0  0  0  0  0  0  0  0  0  0  0
   -3.3122    6.3478    9.6620 N   0  0  0  0  0  0  0  0  0  0  0  0
   -3.8263    5.1920    9.1494 C   0  0  0  0  0  0  0  0  0  0  0  0
   -2.8687    4.4737    8.4387 C   0  0  0  0  0  0  0  0  0  0  0  0
   -3.1474    3.2440    7.8224 C   0  0  0  0  0  0  0  0  0  0  0  0
   -4.4601    2.7607    7.9281 C   0  0  0  0  0  0  0  0  0  0  0  0
   -5.4349    3.4821    8.6269 C   0  0  0  0  0  0  0  0  0  0  0  0
   -5.1275    4.6960    9.2506 C   0  0  0  0  0  0  0  0  0  0  0  0
   -4.8054    1.5174    7.3092 C   0  0  0  0  0  0  0  0  0  0  0  0
   -5.0800    0.5022    6.8062 N   0  0  0  0  0  0  0  0  0  0  0  0
    2.0495    4.3369    8.5189 C   0  0  0  0  0  0  0  0  0  0  0  0
    3.4440    2.5736    7.4884 O   0  0  0  0  0  0  0  0  0  0  0  0
    3.3834    1.9654    6.2540 C   0  0  0  0  0  0  0  0  0  0  0  0
    4.2862    1.3000    5.7773 O   0  0  0  0  0  0  0  0  0  0  0  0
    0.5699   -0.1763   -1.1121 H   0  0  0  0  0  0  0  0  0  0  0  0
    0.5605   -0.8162    0.5218 H   0  0  0  0  0  0  0  0  0  0  0  0
    2.0287   -0.0369   -0.1052 H   0  0  0  0  0  0  0  0  0  0  0  0
    0.5888    2.2899   -1.5450 H   0  0  0  0  0  0  0  0  0  0  0  0
    0.5614    3.4498   -0.2488 H   0  0  0  0  0  0  0  0  0  0  0  0
    2.0405    2.5084   -0.5329 H   0  0  0  0  0  0  0  0  0  0  0  0
   -1.2831    1.1830   -0.4795 H   0  0  0  0  0  0  0  0  0  0  0  0
    2.0409   -0.0702    4.4432 H   0  0  0  0  0  0  0  0  0  0  0  0
    0.6548    3.7507    1.8348 H   0  0  0  0  0  0  0  0  0  0  0  0
    0.4143    2.3506    6.6406 H   0  0  0  0  0  0  0  0  0  0  0  0
    1.1236    3.9375    6.1803 H   0  0  0  0  0  0  0  0  0  0  0  0
    2.3338    1.8509    9.7321 H   0  0  0  0  0  0  0  0  0  0  0  0
    1.6393    0.8971    8.4424 H   0  0  0  0  0  0  0  0  0  0  0  0
   -0.0840    1.4489   10.1432 H   0  0  0  0  0  0  0  0  0  0  0  0
   -0.4902    2.1853    8.6183 H   0  0  0  0  0  0  0  0  0  0  0  0
   -0.7689    3.7862   10.5107 H   0  0  0  0  0  0  0  0  0  0  0  0
    0.9076    3.5715   10.9653 H   0  0  0  0  0  0  0  0  0  0  0  0
    0.6534    6.8886    9.2271 H   0  0  0  0  0  0  0  0  0  0  0  0
    0.2355    6.0916   10.7712 H   0  0  0  0  0  0  0  0  0  0  0  0
    1.9037    6.1828   10.2077 H   0  0  0  0  0  0  0  0  0  0  0  0
   -0.1336    5.6941    7.3136 H   0  0  0  0  0  0  0  0  0  0  0  0
   -0.5818    4.0165    7.4552 H   0  0  0  0  0  0  0  0  0  0  0  0
   -1.3766    7.1686    9.4789 H   0  0  0  0  0  0  0  0  0  0  0  0
   -2.3933    2.6866    7.2750 H   0  0  0  0  0  0  0  0  0  0  0  0
   -6.4537    3.1089    8.6930 H   0  0  0  0  0  0  0  0  0  0  0  0
   -5.8723    5.2629    9.7961 H   0  0  0  0  0  0  0  0  0  0  0  0
    2.8007    4.3665    9.3211 H   0  0  0  0  0  0  0  0  0  0  0  0
    2.3581    5.1057    7.7992 H   0  0  0  0  0  0  0  0  0  0  0  0
  1  2  1  0  0  0  0
  1 35  1  0  0  0  0
  1 36  1  0  0  0  0
  1 37  1  0  0  0  0
  2  3  1  0  0  0  0
  2  4  1  0  0  0  0
  2  5  1  0  0  0  0
  3 38  1  0  0  0  0
  3 39  1  0  0  0  0
  3 40  1  0  0  0  0
  4 41  1  0  0  0  0
  5  6  2  0  0  0  0
  5 10  1  0  0  0  0
  6  7  1  0  0  0  0
  7  8  2  0  0  0  0
  7 42  1  0  0  0  0
  8  9  1  0  0  0  0
  8 11  1  0  0  0  0
  9 10  2  0  0  0  0
 10 43  1  0  0  0  0
 11 12  1  0  0  0  0
 11 33  1  0  0  0  0
 12 44  1  0  0  0  0
 12 45  1  0  0  0  0
 13 12  1  0  0  0  0
 13 14  1  0  0  0  0
 13 31  1  0  0  0  0
 13 32  1  6  0  0  0
 14 15  1  0  0  0  0
 14 46  1  0  0  0  0
 14 47  1  0  0  0  0
 15 16  1  0  0  0  0
 15 48  1  0  0  0  0
 15 49  1  0  0  0  0
 16 50  1  0  0  0  0
 16 51  1  0  0  0  0
 17 16  1  0  0  0  0
 17 31  1  0  0  0  0
 17 19  1  6  0  0  0
 17 18  1  0  0  0  0
 18 52  1  0  0  0  0
 18 53  1  0  0  0  0
 18 54  1  0  0  0  0
 19 20  1  0  0  0  0
 19 55  1  0  0  0  0
 19 56  1  0  0  0  0
 20 21  1  0  0  0  0
 20 24  1  0  0  0  0
 21 22  2  0  0  0  0
 21 57  1  0  0  0  0
 22 23  1  0  0  0  0
 23 24  2  0  0  0  0
 23 28  1  0  0  0  0
 24 25  1  0  0  0  0
 25 26  2  0  0  0  0
 25 58  1  0  0  0  0
 26 27  1  0  0  0  0
 26 29  1  0  0  0  0
 27 28  2  0  0  0  0
 27 59  1  0  0  0  0
 28 60  1  0  0  0  0
 29 30  3  0  0  0  0
 31 61  1  0  0  0  0
 31 62  1  0  0  0  0
 32 33  1  0  0  0  0
 33 34  2  0  0  0  0
M  END
>  <DRUGBANK_ID>
DB16033

>  <COMMON_NAME>
GSK2798745

>  <CAS_NUMBER>
1419609-94-1

>  <UNII>
63FJ7LF55O

$$$$
