53N
 OpenBabel10282417163D

 30 31  0  0  0  0  0  0  0  0999 V2000
    1.4038   -0.1785    0.0047 C   0  0  0  0  0  0  0  0  0  0  0  0
    0.5478   -1.2829    0.0082 C   0  0  0  0  0  0  0  0  0  0  0  0
    1.1373   -2.6171    0.0245 C   0  0  0  0  0  0  0  0  0  0  0  0
    1.8734   -6.2869   -1.2191 C   0  0  0  0  0  0  0  0  0  0  0  0
    2.2611   -4.5505    0.6751 C   0  0  0  0  0  0  0  0  0  0  0  0
   -0.8419   -1.0807   -0.0122 C   0  0  0  0  0  0  0  0  0  0  0  0
    0.8702    1.1120   -0.0375 C   0  0  0  0  0  0  0  0  0  0  0  0
    1.7692    2.2514   -0.2449 N   0  3  0  0  0  0  0  0  0  0  0  0
    1.2612    3.3784   -0.3282 O   0  5  0  0  0  0  0  0  0  0  0  0
    2.9814    2.0176   -0.3577 O   0  0  0  0  0  0  0  0  0  0  0  0
    1.1004   -3.5853   -1.3777 S   0  0  0  0  0  0  0  0  0  0  0  0
    1.7715   -4.9368   -0.5584 C   0  0  0  0  0  0  0  0  0  0  0  0
    0.5500   -7.0444   -1.3765 C   0  0  0  0  0  0  0  0  0  0  0  0
   -0.4726   -6.3930   -2.2858 C   0  0  0  0  0  0  0  0  0  0  0  0
   -0.6980   -7.0282   -3.4537 O   0  0  0  0  0  0  0  0  0  0  0  0
   -1.1185   -5.3945   -1.9926 O   0  0  0  0  0  0  0  0  0  0  0  0
    1.8985   -3.2122    1.0083 C   0  0  0  0  0  0  0  0  0  0  0  0
   -1.3692    0.2159    0.0050 C   0  0  0  0  0  0  0  0  0  0  0  0
   -0.5132    1.3177    0.0239 C   0  0  0  0  0  0  0  0  0  0  0  0
    2.4794   -0.3433    0.0048 H   0  0  0  0  0  0  0  0  0  0  0  0
    2.3906   -6.1997   -2.1812 H   0  0  0  0  0  0  0  0  0  0  0  0
    2.5253   -6.9087   -0.5854 H   0  0  0  0  0  0  0  0  0  0  0  0
    2.8373   -5.1999    1.3221 H   0  0  0  0  0  0  0  0  0  0  0  0
   -1.5247   -1.9303   -0.0335 H   0  0  0  0  0  0  0  0  0  0  0  0
    0.7659   -8.0540   -1.7505 H   0  0  0  0  0  0  0  0  0  0  0  0
    0.0700   -7.1894   -0.4011 H   0  0  0  0  0  0  0  0  0  0  0  0
   -0.2806   -7.9001   -3.5622 H   0  0  0  0  0  0  0  0  0  0  0  0
    2.1628   -2.7149    1.9330 H   0  0  0  0  0  0  0  0  0  0  0  0
   -2.4468    0.3678   -0.0185 H   0  0  0  0  0  0  0  0  0  0  0  0
   -0.9330    2.3204    0.0651 H   0  0  0  0  0  0  0  0  0  0  0  0
  1  2  2  0  0  0  0
  1  7  1  0  0  0  0
  1 20  1  0  0  0  0
  2  3  1  0  0  0  0
  2  6  1  0  0  0  0
  3 11  1  0  0  0  0
  3 17  2  0  0  0  0
  4 12  1  0  0  0  0
  4 13  1  0  0  0  0
  4 21  1  0  0  0  0
  4 22  1  0  0  0  0
  5 12  2  0  0  0  0
  5 17  1  0  0  0  0
  5 23  1  0  0  0  0
  6 18  2  0  0  0  0
  6 24  1  0  0  0  0
  7  8  1  0  0  0  0
  7 19  2  0  0  0  0
  8  9  1  0  0  0  0
  8 10  2  0  0  0  0
 11 12  1  0  0  0  0
 13 14  1  0  0  0  0
 13 25  1  0  0  0  0
 13 26  1  0  0  0  0
 14 15  1  0  0  0  0
 14 16  2  0  0  0  0
 15 27  1  0  0  0  0
 17 28  1  0  0  0  0
 18 19  1  0  0  0  0
 18 29  1  0  0  0  0
 19 30  1  0  0  0  0
M  CHG  2   8   1   9  -1
M  END
>  <DRUGBANK_ID>
DB07139

>  <COMMON_NAME>
3-[5-(3-nitrophenyl)thiophen-2-yl]propanoic acid

$$$$
