
 OpenBabel10282417213D

 60 60  0  0  0  0  0  0  0  0999 V2000
    1.1263   -0.0683    0.1319 C   0  0  0  0  0  0  0  0  0  0  0  0
    0.7126    1.3513    0.4828 C   0  0  0  0  0  0  0  0  0  0  0  0
    1.2108    2.3338   -0.5773 C   0  0  0  0  0  0  0  0  0  0  0  0
    0.6356    2.0095   -1.9608 C   0  0  0  0  0  0  0  0  0  0  0  0
   -0.8955    2.0642   -1.9415 C   0  0  0  0  0  0  0  0  0  0  0  0
   -1.3597    3.4675   -1.5413 C   0  0  0  0  0  0  0  0  0  0  0  0
   -0.7893    4.5003   -2.5241 C   0  0  0  0  0  0  0  0  0  0  0  0
   -1.2866    4.2026   -3.9342 C   0  0  0  0  0  0  0  0  0  0  0  0
   -2.7994    4.2297   -3.9259 C   0  0  0  0  0  0  0  0  0  0  0  0
   -3.2825    5.6248   -3.4780 C   0  0  0  0  0  0  0  0  0  0  0  0
   -3.0003    6.6773   -4.5511 C   0  0  0  0  0  0  0  0  0  0  0  0
   -3.4684    6.2902   -5.9561 C   0  0  0  0  0  0  0  0  0  0  0  0
   -4.8780    6.1844   -6.1147 O   0  0  0  0  0  0  0  0  0  0  0  0
   -5.5474    5.2854   -5.2345 C   0  0  3  0  0  0  0  0  0  0  0  0
   -6.2468    5.9844   -4.2104 O   0  0  0  0  0  0  0  0  0  0  0  0
   -7.2087    6.8788   -4.7643 C   0  0  2  0  0  0  0  0  0  0  0  0
   -7.8661    7.6537   -3.6144 C   0  0  0  0  0  0  0  0  0  0  0  0
   -6.8874    8.3991   -2.8838 O   0  0  0  0  0  0  0  0  0  0  0  0
   -8.2284    6.0677   -5.5774 C   0  0  1  0  0  0  0  0  0  0  0  0
   -9.1697    6.9411   -6.1857 O   0  0  0  0  0  0  0  0  0  0  0  0
   -7.5457    5.1706   -6.6396 C   0  0  2  0  0  0  0  0  0  0  0  0
   -8.4994    4.3006   -7.2545 O   0  0  0  0  0  0  0  0  0  0  0  0
   -6.4407    4.3432   -6.0097 C   0  0  1  0  0  0  0  0  0  0  0  0
   -5.6639    3.6276   -6.9809 O   0  0  0  0  0  0  0  0  0  0  0  0
    0.7026   -0.3955   -0.8232 H   0  0  0  0  0  0  0  0  0  0  0  0
    0.7782   -0.7708    0.8900 H   0  0  0  0  0  0  0  0  0  0  0  0
    2.2158   -0.1296    0.0557 H   0  0  0  0  0  0  0  0  0  0  0  0
   -0.3777    1.4022    0.5893 H   0  0  0  0  0  0  0  0  0  0  0  0
    1.1162    1.6328    1.4594 H   0  0  0  0  0  0  0  0  0  0  0  0
    0.9493    3.3553   -0.2735 H   0  0  0  0  0  0  0  0  0  0  0  0
    2.3035    2.3232   -0.6258 H   0  0  0  0  0  0  0  0  0  0  0  0
    1.0519    2.7042   -2.6981 H   0  0  0  0  0  0  0  0  0  0  0  0
    0.9673    1.0328   -2.3193 H   0  0  0  0  0  0  0  0  0  0  0  0
   -1.2863    1.7716   -2.9225 H   0  0  0  0  0  0  0  0  0  0  0  0
   -1.3260    1.3227   -1.2629 H   0  0  0  0  0  0  0  0  0  0  0  0
   -2.4539    3.4895   -1.4898 H   0  0  0  0  0  0  0  0  0  0  0  0
   -1.0626    3.7280   -0.5229 H   0  0  0  0  0  0  0  0  0  0  0  0
   -1.0540    5.5069   -2.1952 H   0  0  0  0  0  0  0  0  0  0  0  0
    0.3003    4.5337   -2.5245 H   0  0  0  0  0  0  0  0  0  0  0  0
   -0.8879    4.9256   -4.6509 H   0  0  0  0  0  0  0  0  0  0  0  0
   -0.9439    3.2318   -4.3073 H   0  0  0  0  0  0  0  0  0  0  0  0
   -3.1210    3.9202   -4.9243 H   0  0  0  0  0  0  0  0  0  0  0  0
   -3.2506    3.4608   -3.2883 H   0  0  0  0  0  0  0  0  0  0  0  0
   -4.3265    5.5954   -3.1762 H   0  0  0  0  0  0  0  0  0  0  0  0
   -2.8472    5.9500   -2.5326 H   0  0  0  0  0  0  0  0  0  0  0  0
   -3.4590    7.6230   -4.2492 H   0  0  0  0  0  0  0  0  0  0  0  0
   -1.9176    6.8537   -4.5875 H   0  0  0  0  0  0  0  0  0  0  0  0
   -3.1311    7.0654   -6.6528 H   0  0  0  0  0  0  0  0  0  0  0  0
   -3.0029    5.3690   -6.3220 H   0  0  0  0  0  0  0  0  0  0  0  0
   -4.8853    4.5844   -4.7661 H   0  0  0  0  0  0  0  0  0  0  0  0
   -6.6890    7.6169   -5.3896 H   0  0  0  0  0  0  0  0  0  0  0  0
   -8.6026    8.3655   -3.9963 H   0  0  0  0  0  0  0  0  0  0  0  0
   -8.3544    6.9783   -2.9052 H   0  0  0  0  0  0  0  0  0  0  0  0
   -6.2325    7.7500   -2.5655 H   0  0  0  0  0  0  0  0  0  0  0  0
   -8.7833    5.4099   -4.8936 H   0  0  0  0  0  0  0  0  0  0  0  0
   -8.6951    7.4417   -6.8840 H   0  0  0  0  0  0  0  0  0  0  0  0
   -7.1334    5.7844   -7.4501 H   0  0  0  0  0  0  0  0  0  0  0  0
   -8.7385    3.6123   -6.6029 H   0  0  0  0  0  0  0  0  0  0  0  0
   -6.8619    3.5930   -5.3274 H   0  0  0  0  0  0  0  0  0  0  0  0
   -5.1559    4.2970   -7.4793 H   0  0  0  0  0  0  0  0  0  0  0  0
  1  2  1  0  0  0  0
  1 25  1  0  0  0  0
  1 26  1  0  0  0  0
  1 27  1  0  0  0  0
  2  3  1  0  0  0  0
  2 28  1  0  0  0  0
  2 29  1  0  0  0  0
  3  4  1  0  0  0  0
  3 30  1  0  0  0  0
  3 31  1  0  0  0  0
  4  5  1  0  0  0  0
  4 32  1  0  0  0  0
  4 33  1  0  0  0  0
  5  6  1  0  0  0  0
  5 34  1  0  0  0  0
  5 35  1  0  0  0  0
  6  7  1  0  0  0  0
  6 36  1  0  0  0  0
  6 37  1  0  0  0  0
  7  8  1  0  0  0  0
  7 38  1  0  0  0  0
  7 39  1  0  0  0  0
  8  9  1  0  0  0  0
  8 40  1  0  0  0  0
  8 41  1  0  0  0  0
  9 10  1  0  0  0  0
  9 42  1  0  0  0  0
  9 43  1  0  0  0  0
 10 11  1  0  0  0  0
 10 44  1  0  0  0  0
 10 45  1  0  0  0  0
 11 12  1  0  0  0  0
 11 46  1  0  0  0  0
 11 47  1  0  0  0  0
 12 13  1  0  0  0  0
 12 48  1  0  0  0  0
 12 49  1  0  0  0  0
 13 14  1  0  0  0  0
 14 15  1  0  0  0  0
 14 50  1  0  0  0  0
 16 15  1  0  0  0  0
 16 17  1  0  0  0  0
 16 51  1  6  0  0  0
 17 18  1  0  0  0  0
 17 52  1  0  0  0  0
 17 53  1  0  0  0  0
 18 54  1  0  0  0  0
 19 16  1  0  0  0  0
 19 20  1  0  0  0  0
 19 21  1  0  0  0  0
 19 55  1  1  0  0  0
 20 56  1  0  0  0  0
 21 22  1  0  0  0  0
 21 23  1  0  0  0  0
 21 57  1  6  0  0  0
 22 58  1  0  0  0  0
 23 14  1  0  0  0  0
 23 24  1  0  0  0  0
 23 59  1  1  0  0  0
 24 60  1  0  0  0  0
M  END
>  <DRUGBANK_ID>
DB14746

>  <COMMON_NAME>
Lauryl glucoside

>  <CAS_NUMBER>
27836-64-2

>  <UNII>
76LN7P7UCU

>  <SYNONYMS>
Dodecyl D-glucopyranoside; Dodecyl D-glucoside

$$$$
