VGG
 OpenBabel10282417173D

 43 45  0  0  0  0  0  0  0  0999 V2000
    1.0300    0.0736   -0.0787 C   0  0  0  0  0  0  0  0  0  0  0  0
    0.5340   -1.3686   -0.3439 C   0  0  0  0  0  0  0  0  0  0  0  0
    1.0375   -2.2377    0.8272 C   0  0  0  0  0  0  0  0  0  0  0  0
   -1.0085   -1.3424   -0.3237 C   0  0  0  0  0  0  0  0  0  0  0  0
    1.0009   -1.8961   -1.6433 N   0  0  0  0  0  0  0  0  0  0  0  0
    1.5141   -1.0647   -2.5948 N   0  0  0  0  0  0  0  0  0  0  0  0
    0.8890   -3.1935   -2.0969 C   0  0  0  0  0  0  0  0  0  0  0  0
    0.5268   -4.2868   -1.3945 N   0  0  0  0  0  0  0  0  0  0  0  0
    0.5416   -5.3916   -2.1543 C   0  0  0  0  0  0  0  0  0  0  0  0
    0.7627   -5.4907   -3.4756 N   0  0  0  0  0  0  0  0  0  0  0  0
    0.9820   -4.3571   -4.1670 C   0  0  0  0  0  0  0  0  0  0  0  0
    1.0914   -4.4831   -5.5506 N   0  0  0  0  0  0  0  0  0  0  0  0
    1.1766   -3.1648   -3.4430 C   0  0  0  0  0  0  0  0  0  0  0  0
    1.6820   -1.8534   -3.6740 C   0  0  0  0  0  0  0  0  0  0  0  0
    2.2875   -1.3119   -4.9350 C   0  0  0  0  0  0  0  0  0  0  0  0
    3.6515   -1.9558   -5.1853 C   0  0  0  0  0  0  0  0  0  0  0  0
    3.8654   -3.3411   -5.2305 C   0  0  0  0  0  0  0  0  0  0  0  0
    4.7690   -1.1775   -5.4858 C   0  0  0  0  0  0  0  0  0  0  0  0
    5.9930   -1.7881   -5.8138 C   0  0  0  0  0  0  0  0  0  0  0  0
    6.1137   -3.1779   -5.9438 C   0  0  0  0  0  0  0  0  0  0  0  0
    5.0164   -3.9781   -5.6838 C   0  0  0  0  0  0  0  0  0  0  0  0
    5.0187   -5.4754   -5.8156 C   0  0  0  0  0  0  0  0  0  0  0  0
    0.6726    0.4393    0.8927 H   0  0  0  0  0  0  0  0  0  0  0  0
    0.6684    0.7768   -0.8376 H   0  0  0  0  0  0  0  0  0  0  0  0
    2.1245    0.1236   -0.0657 H   0  0  0  0  0  0  0  0  0  0  0  0
    0.6961   -1.8406    1.7902 H   0  0  0  0  0  0  0  0  0  0  0  0
    0.6670   -3.2647    0.7765 H   0  0  0  0  0  0  0  0  0  0  0  0
    2.1320   -2.2779    0.8450 H   0  0  0  0  0  0  0  0  0  0  0  0
   -1.4062   -0.6871   -1.1074 H   0  0  0  0  0  0  0  0  0  0  0  0
   -1.4343   -2.3394   -0.4798 H   0  0  0  0  0  0  0  0  0  0  0  0
   -1.3850   -0.9735    0.6384 H   0  0  0  0  0  0  0  0  0  0  0  0
    0.3246   -6.3260   -1.6442 H   0  0  0  0  0  0  0  0  0  0  0  0
    1.4876   -3.6896   -6.0397 H   0  0  0  0  0  0  0  0  0  0  0  0
    1.5270   -5.3698   -5.7900 H   0  0  0  0  0  0  0  0  0  0  0  0
    1.6154   -1.5148   -5.7793 H   0  0  0  0  0  0  0  0  0  0  0  0
    2.3799   -0.2200   -4.8772 H   0  0  0  0  0  0  0  0  0  0  0  0
    3.1449   -4.0294   -4.8445 H   0  0  0  0  0  0  0  0  0  0  0  0
    4.7101   -0.0935   -5.4360 H   0  0  0  0  0  0  0  0  0  0  0  0
    6.8710   -1.1664   -5.9711 H   0  0  0  0  0  0  0  0  0  0  0  0
    7.0632   -3.6298   -6.2087 H   0  0  0  0  0  0  0  0  0  0  0  0
    5.3268   -5.7801   -6.8208 H   0  0  0  0  0  0  0  0  0  0  0  0
    5.6710   -5.9285   -5.0666 H   0  0  0  0  0  0  0  0  0  0  0  0
    4.0118   -5.8938   -5.6677 H   0  0  0  0  0  0  0  0  0  0  0  0
  1  2  1  0  0  0  0
  1 23  1  0  0  0  0
  1 24  1  0  0  0  0
  1 25  1  0  0  0  0
  2  3  1  0  0  0  0
  2  4  1  0  0  0  0
  2  5  1  0  0  0  0
  3 26  1  0  0  0  0
  3 27  1  0  0  0  0
  3 28  1  0  0  0  0
  4 29  1  0  0  0  0
  4 30  1  0  0  0  0
  4 31  1  0  0  0  0
  5  6  1  0  0  0  0
  5  7  1  0  0  0  0
  6 14  2  0  0  0  0
  7  8  1  0  0  0  0
  7 13  2  0  0  0  0
  8  9  2  0  0  0  0
  9 10  1  0  0  0  0
  9 32  1  0  0  0  0
 10 11  2  0  0  0  0
 11 12  1  0  0  0  0
 11 13  1  0  0  0  0
 12 33  1  0  0  0  0
 12 34  1  0  0  0  0
 13 14  1  0  0  0  0
 14 15  1  0  0  0  0
 15 16  1  0  0  0  0
 15 35  1  0  0  0  0
 15 36  1  0  0  0  0
 16 17  1  0  0  0  0
 16 18  2  0  0  0  0
 17 21  2  0  0  0  0
 17 37  1  0  0  0  0
 18 19  1  0  0  0  0
 18 38  1  0  0  0  0
 19 20  2  0  0  0  0
 19 39  1  0  0  0  0
 20 21  1  0  0  0  0
 20 40  1  0  0  0  0
 21 22  1  0  0  0  0
 22 41  1  0  0  0  0
 22 42  1  0  0  0  0
 22 43  1  0  0  0  0
M  END
>  <DRUGBANK_ID>
DB08699

>  <COMMON_NAME>
1-tert-butyl-3-(3-methylbenzyl)-1H-pyrazolo[3,4-d]pyrimidin-4-amine

>  <UNII>
LP62329LQ7

$$$$
