
 OpenBabel10282417183D

 55 59  0  0  1  0  0  0  0  0999 V2000
   -7.4889    1.4226   -4.3163 C   0  0  0  0  0  0  0  0  0  0  0  0
   -5.0362    1.6874   -4.8247 C   0  0  0  0  0  0  0  0  0  0  0  0
   -7.8277    1.7988   -5.7674 C   0  0  0  0  0  0  0  0  0  0  0  0
   -5.3844    2.0813   -6.2604 C   0  0  0  0  0  0  0  0  0  0  0  0
   -9.1701   -2.2805    0.2325 C   0  0  0  0  0  0  0  0  0  0  0  0
  -10.1702   -2.4996    1.3774 C   0  0  0  0  0  0  0  0  0  0  0  0
   -9.9608   -5.9011    2.3445 C   0  0  0  0  0  0  0  0  0  0  0  0
   -8.4395   -5.7005    4.2053 C   0  0  0  0  0  0  0  0  0  0  0  0
   -4.3214   -2.7481   -2.3492 C   0  0  0  0  0  0  0  0  0  0  0  0
   -8.1560   -3.2596    2.0288 C   0  0  0  0  0  0  0  0  0  0  0  0
   -9.7293   -5.6413    3.6916 C   0  0  0  0  0  0  0  0  0  0  0  0
   -6.0929    0.7640   -4.1908 C   0  0  1  0  0  0  0  0  0  0  0  0
   -7.7852   -2.4533    0.8685 C   0  0  1  0  0  0  0  0  0  0  0  0
   -6.7652    2.7249   -6.3551 C   0  0  1  0  0  0  0  0  0  0  0  0
   -8.8736   -6.1269    1.4741 C   0  0  0  0  0  0  0  0  0  0  0  0
   -7.3509   -5.9202    3.3344 C   0  0  0  0  0  0  0  0  0  0  0  0
   -5.1179   -3.2712   -1.3320 C   0  0  0  0  0  0  0  0  0  0  0  0
   -7.5291   -6.0038    1.9236 C   0  0  0  0  0  0  0  0  0  0  0  0
   -6.0998   -2.4416   -0.8835 C   0  0  0  0  0  0  0  0  0  0  0  0
   -5.5872   -0.7702   -2.3189 C   0  0  0  0  0  0  0  0  0  0  0  0
   -6.1821   -4.4630    0.1950 C   0  0  0  0  0  0  0  0  0  0  0  0
  -10.7210   -5.1402    4.4464 F   0  0  0  0  0  0  0  0  0  0  0  0
   -9.1250   -6.0299    0.1582 F   0  0  0  0  0  0  0  0  0  0  0  0
   -6.1211   -5.7540    3.8447 F   0  0  0  0  0  0  0  0  0  0  0  0
   -4.6079   -1.5082   -2.8634 N   0  0  0  0  0  0  0  0  0  0  0  0
   -5.7278    0.5428   -2.7878 N   0  0  0  0  0  0  0  0  0  0  0  0
   -5.1421   -4.4806   -0.6416 N   0  0  0  0  0  0  0  0  0  0  0  0
   -6.4574   -5.5791    1.0197 N   0  0  0  0  0  0  0  0  0  0  0  0
   -6.3564   -1.1587   -1.2905 N   0  0  0  0  0  0  0  0  0  0  0  0
   -6.7768   -3.1616    0.0911 N   0  0  0  0  0  0  0  0  0  0  0  0
   -7.0724    3.0261   -7.7117 O   0  0  0  0  0  0  0  0  0  0  0  0
   -9.4291   -2.9325    2.5170 O   0  0  0  0  0  0  0  0  0  0  0  0
   -6.1148   -0.1793   -4.7525 H   0  0  0  0  0  0  0  0  0  0  0  0
   -7.3751   -1.5066    1.2325 H   0  0  0  0  0  0  0  0  0  0  0  0
   -6.7714    3.6767   -5.8109 H   0  0  0  0  0  0  0  0  0  0  0  0
   -7.5300    2.3358   -3.7074 H   0  0  0  0  0  0  0  0  0  0  0  0
   -8.2645    0.7533   -3.9274 H   0  0  0  0  0  0  0  0  0  0  0  0
   -4.9285    2.5992   -4.2216 H   0  0  0  0  0  0  0  0  0  0  0  0
   -4.0601    1.1894   -4.8137 H   0  0  0  0  0  0  0  0  0  0  0  0
   -8.8097    2.2867   -5.8210 H   0  0  0  0  0  0  0  0  0  0  0  0
   -7.9163    0.8954   -6.3855 H   0  0  0  0  0  0  0  0  0  0  0  0
   -5.3489    1.1937   -6.9051 H   0  0  0  0  0  0  0  0  0  0  0  0
   -4.6295    2.7692   -6.6594 H   0  0  0  0  0  0  0  0  0  0  0  0
   -9.3472   -3.0172   -0.5635 H   0  0  0  0  0  0  0  0  0  0  0  0
   -9.3159   -1.2897   -0.2000 H   0  0  0  0  0  0  0  0  0  0  0  0
  -10.6627   -1.5902    1.7090 H   0  0  0  0  0  0  0  0  0  0  0  0
  -10.9388   -3.2394    1.1099 H   0  0  0  0  0  0  0  0  0  0  0  0
  -10.9386   -5.6580    1.9318 H   0  0  0  0  0  0  0  0  0  0  0  0
   -8.2741   -5.3894    5.2356 H   0  0  0  0  0  0  0  0  0  0  0  0
   -3.4795   -3.2618   -2.7894 H   0  0  0  0  0  0  0  0  0  0  0  0
   -8.3523   -4.1373    1.4757 H   0  0  0  0  0  0  0  0  0  0  0  0
   -7.3830   -3.4075    2.7812 H   0  0  0  0  0  0  0  0  0  0  0  0
   -6.1058    1.1722   -2.1011 H   0  0  0  0  0  0  0  0  0  0  0  0
   -5.6751   -6.2323    1.0944 H   0  0  0  0  0  0  0  0  0  0  0  0
   -6.9310    2.2275   -8.2479 H   0  0  0  0  0  0  0  0  0  0  0  0
  1 36  1  0  0  0  0
  1 37  1  0  0  0  0
  2 38  1  0  0  0  0
  2 39  1  0  0  0  0
  3  1  1  0  0  0  0
  3 40  1  0  0  0  0
  3 41  1  0  0  0  0
  4  2  1  0  0  0  0
  4 42  1  0  0  0  0
  4 43  1  0  0  0  0
  5 44  1  0  0  0  0
  5 45  1  0  0  0  0
  6  5  1  0  0  0  0
  6 46  1  0  0  0  0
  6 47  1  0  0  0  0
  7 48  1  0  0  0  0
  8 49  1  0  0  0  0
  9 50  1  0  0  0  0
 10 51  1  0  0  0  0
 10 52  1  0  0  0  0
 11  7  2  0  0  0  0
 11  8  1  0  0  0  0
 12  1  1  0  0  0  0
 12  2  1  0  0  0  0
 12 26  1  0  0  0  0
 12 33  1  6  0  0  0
 13  5  1  0  0  0  0
 13 10  1  0  0  0  0
 13 34  1  1  0  0  0
 13 30  1  0  0  0  0
 14  3  1  0  0  0  0
 14  4  1  0  0  0  0
 14 31  1  0  0  0  0
 14 35  1  1  0  0  0
 15  7  1  0  0  0  0
 16  8  2  0  0  0  0
 17  9  2  0  0  0  0
 18 15  2  0  0  0  0
 18 16  1  0  0  0  0
 19 17  1  0  0  0  0
 22 11  1  0  0  0  0
 23 15  1  0  0  0  0
 24 16  1  0  0  0  0
 25  9  1  0  0  0  0
 25 20  2  0  0  0  0
 26 20  1  0  0  0  0
 26 53  1  0  0  0  0
 27 17  1  0  0  0  0
 27 21  2  0  0  0  0
 28 18  1  0  0  0  0
 28 21  1  0  0  0  0
 28 54  1  0  0  0  0
 29 19  2  0  0  0  0
 29 20  1  0  0  0  0
 30 19  1  0  0  0  0
 30 21  1  0  0  0  0
 31 55  1  0  0  0  0
 32  6  1  0  0  0  0
 32 10  1  0  0  0  0
M  END
>  <DRUGBANK_ID>
DB11798

>  <COMMON_NAME>
Tanzisertib

>  <CAS_NUMBER>
899805-25-5

>  <UNII>
M5O06306UO

>  <SYNONYMS>
4-[[9-(3S)-tetrahydro-3-furanyl]-8-[(2,4,6-trifluorophenyl)amino]-9H-purin-2-yl]amino]-trans-cyclohexanol; CYCLOHEXANOL, 4-((9-((3S)-TETRAHYDRO-3-FURANYL)-8-((2,4,6-TRIFLUOROPHENYL)AMINO)-9H-PURIN-2-YL)AMINO)-, TRANS-; Tanzisertib; TRANS-4-((9-((3S)-TETRAHYDROFURAN-3-YL)-8-((2,4,6-TRIFLUOROPHENYL)AMINO)-9H-PURIN-2- YL)AMINO)CYCLOHEXANOL

$$$$
