
 OpenBabel10282417193D

 71 73  0  0  1  0  0  0  0  0999 V2000
    2.1722   -0.6891   -5.6072 C   0  0  0  0  0  0  0  0  0  0  0  0
    2.8435    0.6117   -5.9843 C   0  0  0  0  0  0  0  0  0  0  0  0
    3.4525    1.1628   -4.7779 O   0  0  0  0  0  0  0  0  0  0  0  0
    2.5338    1.8269   -4.0227 C   0  0  0  0  0  0  0  0  0  0  0  0
    1.3421    1.8184   -4.3412 O   0  0  0  0  0  0  0  0  0  0  0  0
    3.1572    2.7382   -2.8105 C   0  0  2  0  0  0  0  0  0  0  0  0
    3.1996    2.1823   -1.3525 C   0  0  0  0  0  0  0  0  0  0  0  0
    2.3971    4.1127   -2.8638 N   0  0  0  0  0  0  0  0  0  0  0  0
    2.9904    4.8334   -4.3794 P   0  0  3  0  0  0  0  0  0  0  0  0
    2.1934    3.8787   -5.2637 O   0  0  0  0  0  0  0  0  0  0  0  0
    1.6121    6.2419   -4.4140 C   0  0  0  0  0  0  0  0  0  0  0  0
    2.2215    7.4923   -4.1805 O   0  0  0  0  0  0  0  0  0  0  0  0
    2.9459    7.5076   -2.9650 C   0  0  0  0  0  0  0  0  0  0  0  0
    2.0510    7.4423   -1.6980 C   0  0  0  0  0  0  0  0  0  0  0  0
    1.2956    6.2433   -1.3392 N   0  0  0  0  0  0  0  0  0  0  0  0
    1.8590    5.1817   -0.6826 C   0  0  0  0  0  0  0  0  0  0  0  0
    1.0194    4.1663   -0.5809 N   0  0  0  0  0  0  0  0  0  0  0  0
   -0.0945    4.4901   -1.3251 C   0  0  0  0  0  0  0  0  0  0  0  0
   -0.0215    5.8655   -1.5895 C   0  0  0  0  0  0  0  0  0  0  0  0
   -1.0141    6.6082   -2.0977 N   0  0  0  0  0  0  0  0  0  0  0  0
   -2.1171    5.8718   -2.3302 C   0  0  0  0  0  0  0  0  0  0  0  0
   -2.2312    4.5294   -2.3174 N   0  0  0  0  0  0  0  0  0  0  0  0
   -1.2063    3.7481   -1.8688 C   0  0  0  0  0  0  0  0  0  0  0  0
   -1.4699    2.3465   -2.0029 N   0  0  0  0  0  0  0  0  0  0  0  0
   -0.6477    1.1514   -1.7783 C   0  0  0  0  0  0  0  0  0  0  0  0
    0.2906    1.0914   -0.5871 C   0  0  0  0  0  0  0  0  0  0  0  0
    0.7807    1.2442   -1.9689 C   0  0  0  0  0  0  0  0  0  0  0  0
   -3.2805    6.5598   -2.5716 N   0  0  0  0  0  0  0  0  0  0  0  0
    3.5837    5.5541   -5.8950 N   0  0  0  0  0  0  0  0  0  0  0  0
    4.7034    4.7770   -6.4956 C   0  0  1  0  0  0  0  0  0  0  0  0
    4.3326    3.3552   -6.8671 C   0  0  0  0  0  0  0  0  0  0  0  0
    5.2824    5.4115   -7.7503 C   0  0  0  0  0  0  0  0  0  0  0  0
    6.4597    5.6416   -7.8764 O   0  0  0  0  0  0  0  0  0  0  0  0
    4.3234    5.5746   -8.7188 O   0  0  0  0  0  0  0  0  0  0  0  0
    4.8056    6.0996   -9.9657 C   0  0  0  0  0  0  0  0  0  0  0  0
    5.2746    7.5336   -9.7986 C   0  0  0  0  0  0  0  0  0  0  0  0
    2.8939   -1.3078   -5.0698 H   0  0  0  0  0  0  0  0  0  0  0  0
    1.7878   -1.2194   -6.4795 H   0  0  0  0  0  0  0  0  0  0  0  0
    1.3370   -0.5158   -4.9208 H   0  0  0  0  0  0  0  0  0  0  0  0
    3.6307    0.4474   -6.7290 H   0  0  0  0  0  0  0  0  0  0  0  0
    2.1300    1.3064   -6.4634 H   0  0  0  0  0  0  0  0  0  0  0  0
    4.2075    2.9162   -3.0656 H   0  0  0  0  0  0  0  0  0  0  0  0
    3.9765    2.6035   -0.7077 H   0  0  0  0  0  0  0  0  0  0  0  0
    2.3237    2.4742   -0.7860 H   0  0  0  0  0  0  0  0  0  0  0  0
    3.2310    1.0892   -1.2828 H   0  0  0  0  0  0  0  0  0  0  0  0
    1.4425    3.8539   -3.1290 H   0  0  0  0  0  0  0  0  0  0  0  0
    1.1444    6.2164   -5.4056 H   0  0  0  0  0  0  0  0  0  0  0  0
    0.8317    5.9866   -3.7274 H   0  0  0  0  0  0  0  0  0  0  0  0
    3.7625    6.7738   -2.9846 H   0  0  0  0  0  0  0  0  0  0  0  0
    3.4674    8.4750   -2.9756 H   0  0  0  0  0  0  0  0  0  0  0  0
    2.7494    7.5958   -0.8665 H   0  0  0  0  0  0  0  0  0  0  0  0
    1.3420    8.2677   -1.7314 H   0  0  0  0  0  0  0  0  0  0  0  0
    2.9365    5.1046   -0.5505 H   0  0  0  0  0  0  0  0  0  0  0  0
   -2.3994    2.1960   -2.3770 H   0  0  0  0  0  0  0  0  0  0  0  0
   -0.9588    0.2827   -2.3627 H   0  0  0  0  0  0  0  0  0  0  0  0
    0.3417    1.9709    0.0446 H   0  0  0  0  0  0  0  0  0  0  0  0
    0.7441    0.2257   -0.1294 H   0  0  0  0  0  0  0  0  0  0  0  0
    1.3564    0.4246   -2.3795 H   0  0  0  0  0  0  0  0  0  0  0  0
    0.9592    2.2266   -2.3368 H   0  0  0  0  0  0  0  0  0  0  0  0
   -3.2488    7.5334   -2.3166 H   0  0  0  0  0  0  0  0  0  0  0  0
   -4.1164    6.0117   -2.4301 H   0  0  0  0  0  0  0  0  0  0  0  0
    2.8099    5.5213   -6.5596 H   0  0  0  0  0  0  0  0  0  0  0  0
    5.5124    4.7466   -5.7580 H   0  0  0  0  0  0  0  0  0  0  0  0
    3.4338    3.3020   -7.4944 H   0  0  0  0  0  0  0  0  0  0  0  0
    5.1341    2.8065   -7.3669 H   0  0  0  0  0  0  0  0  0  0  0  0
    4.1604    2.8348   -5.9403 H   0  0  0  0  0  0  0  0  0  0  0  0
    5.5889    5.4514  -10.3775 H   0  0  0  0  0  0  0  0  0  0  0  0
    3.9671    6.0746  -10.6724 H   0  0  0  0  0  0  0  0  0  0  0  0
    6.1121    7.6068   -9.0997 H   0  0  0  0  0  0  0  0  0  0  0  0
    5.6019    7.9544  -10.7511 H   0  0  0  0  0  0  0  0  0  0  0  0
    4.4694    8.1453   -9.3812 H   0  0  0  0  0  0  0  0  0  0  0  0
  1  2  1  0  0  0  0
  1 37  1  0  0  0  0
  1 38  1  0  0  0  0
  1 39  1  0  0  0  0
  2  3  1  0  0  0  0
  2 40  1  0  0  0  0
  2 41  1  0  0  0  0
  3  4  1  0  0  0  0
  4  5  2  0  0  0  0
  6  8  1  0  0  0  0
  6 42  1  6  0  0  0
  6  7  1  0  0  0  0
  6  4  1  0  0  0  0
  7 43  1  0  0  0  0
  7 44  1  0  0  0  0
  7 45  1  0  0  0  0
  8  9  1  0  0  0  0
  8 46  1  0  0  0  0
  9 10  2  0  0  0  0
  9 11  1  0  0  0  0
  9 29  1  0  0  0  0
 11 12  1  0  0  0  0
 11 47  1  0  0  0  0
 11 48  1  0  0  0  0
 12 13  1  0  0  0  0
 13 14  1  0  0  0  0
 13 49  1  0  0  0  0
 13 50  1  0  0  0  0
 14 15  1  0  0  0  0
 14 51  1  0  0  0  0
 14 52  1  0  0  0  0
 15 16  1  0  0  0  0
 15 19  1  0  0  0  0
 16 17  2  0  0  0  0
 16 53  1  0  0  0  0
 17 18  1  0  0  0  0
 18 19  1  0  0  0  0
 18 23  2  0  0  0  0
 19 20  2  0  0  0  0
 20 21  1  0  0  0  0
 21 22  2  0  0  0  0
 21 28  1  0  0  0  0
 22 23  1  0  0  0  0
 23 24  1  0  0  0  0
 24 25  1  0  0  0  0
 24 54  1  0  0  0  0
 25 26  1  0  0  0  0
 25 27  1  0  0  0  0
 25 55  1  0  0  0  0
 26 27  1  0  0  0  0
 26 56  1  0  0  0  0
 26 57  1  0  0  0  0
 27 58  1  0  0  0  0
 27 59  1  0  0  0  0
 28 60  1  0  0  0  0
 28 61  1  0  0  0  0
 29 30  1  0  0  0  0
 29 62  1  0  0  0  0
 30 31  1  0  0  0  0
 30 32  1  0  0  0  0
 30 63  1  1  0  0  0
 31 64  1  0  0  0  0
 31 65  1  0  0  0  0
 31 66  1  0  0  0  0
 32 33  2  0  0  0  0
 32 34  1  0  0  0  0
 34 35  1  0  0  0  0
 35 36  1  0  0  0  0
 35 67  1  0  0  0  0
 35 68  1  0  0  0  0
 36 69  1  0  0  0  0
 36 70  1  0  0  0  0
 36 71  1  0  0  0  0
M  END
>  <DRUGBANK_ID>
DB12762

>  <COMMON_NAME>
Rabacfosadine

>  <CAS_NUMBER>
859209-74-8

>  <UNII>
M39BO43J9W

>  <SYNONYMS>
Rabacfosadine

$$$$
