
 OpenBabel10282417213D

 65 68  0  0  0  0  0  0  0  0999 V2000
    2.5091   -0.6802   -0.2193 C   0  0  1  0  0  0  0  0  0  0  0  0
    4.5150   -3.0378    0.2658 P   0  0  0  0  0  0  0  0  0  0  0  0
    1.9717    0.6260    0.3658 C   0  0  2  0  0  0  0  0  0  0  0  0
    0.5292    0.8148   -0.0422 C   0  0  1  0  0  0  0  0  0  0  0  0
   -6.7832   -1.0962   -0.1270 C   0  0  0  0  0  0  0  0  0  0  0  0
   -0.2942   -0.3472    0.5215 C   0  0  1  0  0  0  0  0  0  0  0  0
   -1.7415   -0.0504    0.3507 C   0  0  0  0  0  0  0  0  0  0  0  0
    3.9933   -0.4880    0.2187 C   0  0  1  0  0  0  0  0  0  0  0  0
   -2.3075    1.2168    0.0122 C   0  0  0  0  0  0  0  0  0  0  0  0
    4.8781   -1.4600   -0.3440 O   0  0  0  0  0  0  0  0  0  0  0  0
    1.6448   -1.8316    0.3924 C   0  0  0  0  0  0  0  0  0  0  0  0
    0.1812   -1.7352    0.0652 C   0  0  0  0  0  0  0  0  0  0  0  0
   -5.9310    0.1668    0.0105 O   0  0  0  0  0  0  0  0  0  0  0  0
    2.9808    1.6812   -0.0827 C   0  0  0  0  0  0  0  0  0  0  0  0
   -0.0562    2.1139    0.4944 C   0  0  0  0  0  0  0  0  0  0  0  0
   -2.5774   -1.0275    0.7232 C   0  0  0  0  0  0  0  0  0  0  0  0
   -6.2911   -2.4640   -0.0799 N   0  0  0  0  0  0  0  0  0  0  0  0
    3.7103   -2.4306    1.5224 O   0  0  0  0  0  0  0  0  0  0  0  0
    3.6166   -3.2162   -1.0554 O   0  0  0  0  0  0  0  0  0  0  0  0
    4.1901   -4.4498    0.8116 O   0  0  0  0  0  0  0  0  0  0  0  0
   -8.0135   -0.8972   -0.3106 O   0  0  0  0  0  0  0  0  0  0  0  0
   -3.7172    1.4649   -0.0771 C   0  0  0  0  0  0  0  0  0  0  0  0
   -4.5360    0.5024    0.4125 C   0  0  0  0  0  0  0  0  0  0  0  0
   -1.3907    2.3735   -0.1887 C   0  0  0  0  0  0  0  0  0  0  0  0
    4.3374    0.9633   -0.0955 C   0  0  0  0  0  0  0  0  0  0  0  0
   -3.8826   -0.6259    0.7663 C   0  0  0  0  0  0  0  0  0  0  0  0
    2.4318   -0.7427   -1.7674 C   0  0  0  0  0  0  0  0  0  0  0  0
   -5.5152   -5.7018   -1.1209 Cl  0  0  0  0  0  0  0  0  0  0  0  0
   -4.5584   -1.0961   -2.4436 Cl  0  0  0  0  0  0  0  0  0  0  0  0
   -7.1998   -3.6034    0.0018 C   0  0  0  0  0  0  0  0  0  0  0  0
   -4.9125   -2.9417   -0.1399 C   0  0  0  0  0  0  0  0  0  0  0  0
   -6.9866   -4.6518   -1.1250 C   0  0  0  0  0  0  0  0  0  0  0  0
   -4.1976   -2.6245   -1.5323 C   0  0  0  0  0  0  0  0  0  0  0  0
   -0.1634   -0.3625    1.6171 H   0  0  0  0  0  0  0  0  0  0  0  0
    2.0110    0.5737    1.4692 H   0  0  0  0  0  0  0  0  0  0  0  0
    0.4459    0.8210   -1.1348 H   0  0  0  0  0  0  0  0  0  0  0  0
    4.1150   -0.4871    1.3133 H   0  0  0  0  0  0  0  0  0  0  0  0
    1.9217   -2.8381    0.0871 H   0  0  0  0  0  0  0  0  0  0  0  0
    1.6907   -1.8133    1.4922 H   0  0  0  0  0  0  0  0  0  0  0  0
   -0.2961   -2.5545    0.6267 H   0  0  0  0  0  0  0  0  0  0  0  0
   -0.0009   -1.9569   -0.9910 H   0  0  0  0  0  0  0  0  0  0  0  0
    2.9794    2.5376    0.5973 H   0  0  0  0  0  0  0  0  0  0  0  0
    2.7453    2.0404   -1.0877 H   0  0  0  0  0  0  0  0  0  0  0  0
   -0.2004    2.0202    1.5817 H   0  0  0  0  0  0  0  0  0  0  0  0
    0.6048    2.9581    0.3144 H   0  0  0  0  0  0  0  0  0  0  0  0
   -2.3068   -2.0829    0.7275 H   0  0  0  0  0  0  0  0  0  0  0  0
    4.1912   -2.4856    2.3638 H   0  0  0  0  0  0  0  0  0  0  0  0
    4.1793   -3.0601   -1.8364 H   0  0  0  0  0  0  0  0  0  0  0  0
   -4.1036    2.3565   -0.5477 H   0  0  0  0  0  0  0  0  0  0  0  0
   -1.2686    2.5527   -1.2603 H   0  0  0  0  0  0  0  0  0  0  0  0
   -1.8615    3.2349    0.2875 H   0  0  0  0  0  0  0  0  0  0  0  0
    4.9888    1.3678    0.6917 H   0  0  0  0  0  0  0  0  0  0  0  0
    4.8686    1.0678   -1.0422 H   0  0  0  0  0  0  0  0  0  0  0  0
   -4.4428   -1.2154    0.1361 H   0  0  0  0  0  0  0  0  0  0  0  0
    2.8237   -1.6611   -2.1873 H   0  0  0  0  0  0  0  0  0  0  0  0
    1.4105   -0.7027   -2.1423 H   0  0  0  0  0  0  0  0  0  0  0  0
    3.0104    0.0512   -2.2407 H   0  0  0  0  0  0  0  0  0  0  0  0
   -7.0568   -4.0558    0.9937 H   0  0  0  0  0  0  0  0  0  0  0  0
   -8.2323   -3.2486   -0.0402 H   0  0  0  0  0  0  0  0  0  0  0  0
   -4.5254   -2.6722    0.8595 H   0  0  0  0  0  0  0  0  0  0  0  0
   -4.7308   -3.9715    0.1443 H   0  0  0  0  0  0  0  0  0  0  0  0
   -7.7740   -5.3925   -1.0672 H   0  0  0  0  0  0  0  0  0  0  0  0
   -6.9864   -4.1402   -2.0891 H   0  0  0  0  0  0  0  0  0  0  0  0
   -3.1091   -2.6656   -1.4533 H   0  0  0  0  0  0  0  0  0  0  0  0
   -4.5284   -3.3476   -2.2664 H   0  0  0  0  0  0  0  0  0  0  0  0
  1 27  1  6  0  0  0
  2 10  1  0  0  0  0
  3  1  1  0  0  0  0
  3 35  1  1  0  0  0
  4  3  1  0  0  0  0
  4 36  1  6  0  0  0
  5 13  1  0  0  0  0
  6  4  1  0  0  0  0
  6 34  1  1  0  0  0
  7  6  1  0  0  0  0
  8  1  1  0  0  0  0
  8 37  1  1  0  0  0
  8 10  1  0  0  0  0
  9  7  2  0  0  0  0
 11  1  1  0  0  0  0
 11 38  1  0  0  0  0
 11 39  1  0  0  0  0
 12 11  1  0  0  0  0
 12  6  1  0  0  0  0
 12 40  1  0  0  0  0
 12 41  1  0  0  0  0
 13 23  1  0  0  0  0
 14  3  1  0  0  0  0
 14 25  1  0  0  0  0
 14 42  1  0  0  0  0
 14 43  1  0  0  0  0
 15  4  1  0  0  0  0
 15 44  1  0  0  0  0
 15 45  1  0  0  0  0
 16  7  1  0  0  0  0
 16 46  1  0  0  0  0
 17  5  1  0  0  0  0
 18  2  1  0  0  0  0
 18 47  1  0  0  0  0
 19  2  1  0  0  0  0
 19 48  1  0  0  0  0
 20  2  2  0  0  0  0
 21  5  2  0  0  0  0
 22  9  1  0  0  0  0
 22 23  2  0  0  0  0
 22 49  1  0  0  0  0
 23 26  1  0  0  0  0
 24 15  1  0  0  0  0
 24  9  1  0  0  0  0
 24 50  1  0  0  0  0
 24 51  1  0  0  0  0
 25  8  1  0  0  0  0
 25 52  1  0  0  0  0
 25 53  1  0  0  0  0
 26 16  2  0  0  0  0
 26 54  1  0  0  0  0
 27 55  1  0  0  0  0
 27 56  1  0  0  0  0
 27 57  1  0  0  0  0
 28 32  1  0  0  0  0
 29 33  1  0  0  0  0
 30 17  1  0  0  0  0
 30 58  1  0  0  0  0
 30 59  1  0  0  0  0
 31 17  1  0  0  0  0
 31 60  1  0  0  0  0
 31 61  1  0  0  0  0
 32 30  1  0  0  0  0
 32 62  1  0  0  0  0
 32 63  1  0  0  0  0
 33 31  1  0  0  0  0
 33 64  1  0  0  0  0
 33 65  1  0  0  0  0
M  END
>  <DRUGBANK_ID>
DB14674

>  <SECONDARY_ACCESSION_NUMBERS>
DBSALT002563

>  <COMMON_NAME>
Estramustine phosphate

>  <CAS_NUMBER>
4891-15-0

>  <UNII>
MUZ9585Y7B

>  <SYNONYMS>
Estramustine 17-(dihydrogen phosphate)

$$$$
