494
 OpenBabel10282417103D

 37 37  0  0  0  0  0  0  0  0999 V2000
    1.0665    0.0593   -0.1307 O   0  0  0  0  0  0  0  0  0  0  0  0
    5.8297    3.8960   -4.6068 O   0  0  0  0  0  0  0  0  0  0  0  0
    4.8316    6.3593   -4.4512 O   0  0  0  0  0  0  0  0  0  0  0  0
    3.0628    7.9234   -3.3500 O   0  5  0  0  0  0  0  0  0  0  0  0
    1.6119    7.0952   -1.9461 O   0  0  0  0  0  0  0  0  0  0  0  0
    2.9854   -0.9470    0.6503 N   0  0  0  0  0  0  0  0  0  0  0  0
    2.5741    6.9756   -2.7128 N   0  3  0  0  0  0  0  0  0  0  0  0
    5.7976    1.1781   -0.7838 N   0  0  0  0  0  0  0  0  0  0  0  0
    4.4285   -1.1895    0.7914 C   0  0  0  0  0  0  0  0  0  0  0  0
    2.1818   -1.9675    1.3333 C   0  0  0  0  0  0  0  0  0  0  0  0
    2.3013    0.0591   -0.0630 C   0  0  0  0  0  0  0  0  0  0  0  0
    4.9573   -0.9427    2.1899 C   0  0  0  0  0  0  0  0  0  0  0  0
    1.3544   -1.4010    2.4734 C   0  0  0  0  0  0  0  0  0  0  0  0
    3.0647    3.2569   -2.2286 C   0  0  0  0  0  0  0  0  0  0  0  0
    3.0166    1.1781   -0.7838 C   0  0  0  0  0  0  0  0  0  0  0  0
    2.3916    2.1636   -1.4668 C   0  0  0  0  0  0  0  0  0  0  0  0
    2.5661    4.5655   -2.1269 C   0  0  0  0  0  0  0  0  0  0  0  0
    4.1622    3.0355   -3.0855 C   0  0  0  0  0  0  0  0  0  0  0  0
    3.1508    5.6297   -2.8597 C   0  0  0  0  0  0  0  0  0  0  0  0
    4.7467    4.0917   -3.7890 C   0  0  0  0  0  0  0  0  0  0  0  0
    4.2393    5.3863   -3.6963 C   0  0  0  0  0  0  0  0  0  0  0  0
    4.5366    1.1781   -0.7838 C   0  0  0  0  0  0  0  0  0  0  0  0
    6.1292    2.9715   -4.5348 H   0  0  0  0  0  0  0  0  0  0  0  0
    5.5535    5.9379   -4.9568 H   0  0  0  0  0  0  0  0  0  0  0  0
    4.6635   -2.1873    0.4074 H   0  0  0  0  0  0  0  0  0  0  0  0
    5.0215   -0.5833    0.1594 H   0  0  0  0  0  0  0  0  0  0  0  0
    1.5578   -2.4827    0.5969 H   0  0  0  0  0  0  0  0  0  0  0  0
    2.8580   -2.7266    1.7511 H   0  0  0  0  0  0  0  0  0  0  0  0
    4.6504   -1.7386    2.8706 H   0  0  0  0  0  0  0  0  0  0  0  0
    6.0522   -0.9139    2.1673 H   0  0  0  0  0  0  0  0  0  0  0  0
    4.6045    0.0163    2.5836 H   0  0  0  0  0  0  0  0  0  0  0  0
    0.5940   -0.7065    2.1101 H   0  0  0  0  0  0  0  0  0  0  0  0
    0.8427   -2.2072    3.0060 H   0  0  0  0  0  0  0  0  0  0  0  0
    1.9869   -0.8599    3.1845 H   0  0  0  0  0  0  0  0  0  0  0  0
    1.3024    2.1993   -1.4672 H   0  0  0  0  0  0  0  0  0  0  0  0
    1.7189    4.7596   -1.4695 H   0  0  0  0  0  0  0  0  0  0  0  0
    4.5754    2.0387   -3.2147 H   0  0  0  0  0  0  0  0  0  0  0  0
  1 11  2  0  0  0  0
  2 20  1  0  0  0  0
  2 23  1  0  0  0  0
  3 21  1  0  0  0  0
  3 24  1  0  0  0  0
  4  7  1  0  0  0  0
  5  7  2  0  0  0  0
  6  9  1  0  0  0  0
  6 10  1  0  0  0  0
  6 11  1  0  0  0  0
  7 19  1  0  0  0  0
  8 22  3  0  0  0  0
  9 12  1  0  0  0  0
  9 25  1  0  0  0  0
  9 26  1  0  0  0  0
 10 13  1  0  0  0  0
 10 27  1  0  0  0  0
 10 28  1  0  0  0  0
 11 15  1  0  0  0  0
 12 29  1  0  0  0  0
 12 30  1  0  0  0  0
 12 31  1  0  0  0  0
 13 32  1  0  0  0  0
 13 33  1  0  0  0  0
 13 34  1  0  0  0  0
 14 16  1  0  0  0  0
 14 17  2  0  0  0  0
 14 18  1  0  0  0  0
 15 16  2  0  0  0  0
 15 22  1  0  0  0  0
 16 35  1  0  0  0  0
 17 19  1  0  0  0  0
 17 36  1  0  0  0  0
 18 20  2  0  0  0  0
 18 37  1  0  0  0  0
 19 21  2  0  0  0  0
 20 21  1  0  0  0  0
M  CHG  2   4  -1   7   1
M  END
>  <DRUGBANK_ID>
DB00494

>  <SECONDARY_ACCESSION_NUMBERS>
APRD00416

>  <COMMON_NAME>
Entacapone

>  <CAS_NUMBER>
130929-57-6

>  <UNII>
4975G9NM6T

>  <SYNONYMS>
(E)-alpha-Cyano-N,N-diethyl-3,4-dihydroxy-5-nitrocinnamamide; Entacapona; Entacapone; Entacaponum; N,N-diethyl-2-cyano-3-(3,4-dihydroxy-5-nitrophenyl) acrylamide

$$$$
