
 OpenBabel10282417173D

 53 54  0  0  0  0  0  0  0  0999 V2000
    1.1368    0.0965   -0.1427 C   0  0  0  0  0  0  0  0  0  0  0  0
   -3.7865   -0.3729   -5.3669 C   0  0  0  0  0  0  0  0  0  0  0  0
   -3.4546    1.1772   -3.8282 C   0  0  0  0  0  0  0  0  0  0  0  0
    0.6350   -1.2471   -0.6498 C   0  0  0  0  0  0  0  0  0  0  0  0
    0.9298   -2.3896    0.3204 C   0  0  0  0  0  0  0  0  0  0  0  0
   -0.6286    2.0490   -5.9081 C   0  0  0  0  0  0  0  0  0  0  0  0
   -0.7825    0.9077   -5.1450 C   0  0  0  0  0  0  0  0  0  0  0  0
   -0.4384    3.2311   -5.2135 C   0  0  0  0  0  0  0  0  0  0  0  0
   -0.8756    1.0116   -3.7190 C   0  0  0  0  0  0  0  0  0  0  0  0
   -0.7346    3.3647   -3.8192 C   0  0  0  0  0  0  0  0  0  0  0  0
   -1.7960    1.5126    0.5596 C   0  0  0  0  0  0  0  0  0  0  0  0
   -3.0486    0.1105   -0.8976 C   0  0  0  0  0  0  0  0  0  0  0  0
   -1.6009    0.4155    1.4318 C   0  0  0  0  0  0  0  0  0  0  0  0
   -2.8105   -0.9951   -0.0655 C   0  0  0  0  0  0  0  0  0  0  0  0
   -5.5814    1.0224   -4.1377 C   0  0  0  0  0  0  0  0  0  0  0  0
    0.3480   -2.2392    1.7365 C   0  0  0  0  0  0  0  0  0  0  0  0
   -5.7141    1.6915   -2.6322 C   0  0  0  0  0  0  0  0  0  0  0  0
   -1.2025    2.2709   -3.0704 C   0  0  0  0  0  0  0  0  0  0  0  0
   -2.4122    1.3651   -0.6612 C   0  0  0  0  0  0  0  0  0  0  0  0
   -2.0375   -0.8744    1.0466 C   0  0  0  0  0  0  0  0  0  0  0  0
   -2.3081    2.4943   -1.7274 C   0  0  3  0  0  0  0  0  0  0  0  0
   -4.3860    0.2119   -4.1961 N   0  0  0  0  0  0  0  0  0  0  0  0
   -1.4853   -2.3524    1.8812 S   0  0  0  0  0  0  0  0  0  0  0  0
   -4.3587    3.2810   -1.9846 S   0  0  0  0  0  0  0  0  0  0  0  0
    0.8510    0.2962    0.8905 H   0  0  0  0  0  0  0  0  0  0  0  0
    0.7397    0.9108   -0.7544 H   0  0  0  0  0  0  0  0  0  0  0  0
    2.2262    0.1359   -0.1647 H   0  0  0  0  0  0  0  0  0  0  0  0
   -3.5276    0.3720   -6.1289 H   0  0  0  0  0  0  0  0  0  0  0  0
   -2.8394   -0.8521   -5.0486 H   0  0  0  0  0  0  0  0  0  0  0  0
   -4.3729   -1.1840   -5.7699 H   0  0  0  0  0  0  0  0  0  0  0  0
   -3.2711    2.0841   -4.4272 H   0  0  0  0  0  0  0  0  0  0  0  0
   -3.7766    1.5163   -2.9122 H   0  0  0  0  0  0  0  0  0  0  0  0
   -2.7396    0.6072   -3.3181 H   0  0  0  0  0  0  0  0  0  0  0  0
   -0.4296   -1.2144   -0.8645 H   0  0  0  0  0  0  0  0  0  0  0  0
    1.0891   -1.4500   -1.6250 H   0  0  0  0  0  0  0  0  0  0  0  0
    0.5890   -3.3357   -0.1182 H   0  0  0  0  0  0  0  0  0  0  0  0
    2.0218   -2.4721    0.4039 H   0  0  0  0  0  0  0  0  0  0  0  0
   -0.6275    1.9848   -6.9965 H   0  0  0  0  0  0  0  0  0  0  0  0
   -0.9797   -0.0244   -5.6790 H   0  0  0  0  0  0  0  0  0  0  0  0
   -0.0957    4.0909   -5.7911 H   0  0  0  0  0  0  0  0  0  0  0  0
   -1.0709    0.0378   -3.2406 H   0  0  0  0  0  0  0  0  0  0  0  0
   -0.5768    4.3253   -3.3525 H   0  0  0  0  0  0  0  0  0  0  0  0
   -1.3513    2.4751    0.8468 H   0  0  0  0  0  0  0  0  0  0  0  0
   -3.6665   -0.1094   -1.7334 H   0  0  0  0  0  0  0  0  0  0  0  0
   -1.0026    0.5413    2.3105 H   0  0  0  0  0  0  0  0  0  0  0  0
   -3.1660   -1.9716   -0.4312 H   0  0  0  0  0  0  0  0  0  0  0  0
   -6.3948    0.3331   -4.3577 H   0  0  0  0  0  0  0  0  0  0  0  0
   -5.5523    1.8267   -4.8816 H   0  0  0  0  0  0  0  0  0  0  0  0
    0.7438   -3.0630    2.3418 H   0  0  0  0  0  0  0  0  0  0  0  0
    0.7009   -1.3275    2.2267 H   0  0  0  0  0  0  0  0  0  0  0  0
   -5.6122    0.9046   -1.8699 H   0  0  0  0  0  0  0  0  0  0  0  0
   -6.7282    2.0927   -2.5432 H   0  0  0  0  0  0  0  0  0  0  0  0
   -1.8965    3.3948   -1.2430 H   0  0  0  0  0  0  0  0  0  0  0  0
  1 25  1  0  0  0  0
  1 26  1  0  0  0  0
  1 27  1  0  0  0  0
  2 28  1  0  0  0  0
  2 29  1  0  0  0  0
  2 30  1  0  0  0  0
  3 31  1  0  0  0  0
  3 32  1  0  0  0  0
  3 33  1  0  0  0  0
  4  1  1  0  0  0  0
  4 34  1  0  0  0  0
  4 35  1  0  0  0  0
  5  4  1  0  0  0  0
  5 36  1  0  0  0  0
  5 37  1  0  0  0  0
  6 38  1  0  0  0  0
  7  6  2  0  0  0  0
  7 39  1  0  0  0  0
  8  6  1  0  0  0  0
  8 40  1  0  0  0  0
  9  7  1  0  0  0  0
  9 41  1  0  0  0  0
 10  8  2  0  0  0  0
 10 42  1  0  0  0  0
 11 43  1  0  0  0  0
 12 44  1  0  0  0  0
 13 11  1  0  0  0  0
 13 45  1  0  0  0  0
 14 12  2  0  0  0  0
 14 46  1  0  0  0  0
 15 47  1  0  0  0  0
 15 48  1  0  0  0  0
 16  5  1  0  0  0  0
 16 49  1  0  0  0  0
 16 50  1  0  0  0  0
 17 15  1  0  0  0  0
 17 51  1  0  0  0  0
 17 52  1  0  0  0  0
 18  9  2  0  0  0  0
 18 10  1  0  0  0  0
 19 11  2  0  0  0  0
 19 12  1  0  0  0  0
 20 13  2  0  0  0  0
 20 14  1  0  0  0  0
 21 18  1  0  0  0  0
 21 19  1  0  0  0  0
 21 53  1  0  0  0  0
 22  2  1  0  0  0  0
 22  3  1  0  0  0  0
 22 15  1  0  0  0  0
 23 16  1  0  0  0  0
 23 20  1  0  0  0  0
 24 17  1  0  0  0  0
 24 21  1  0  0  0  0
M  END
>  <DRUGBANK_ID>
DB09014

>  <COMMON_NAME>
Captodiame

>  <CAS_NUMBER>
486-17-9

>  <UNII>
H93K9455DD

>  <SYNONYMS>
2-[(4-butylsulfanylphenyl)-phenyl-methyl]sulfanyl-N,N-dimethylethanamine; Captodiame

$$$$
