685
 OpenBabel10282417163D

 51 53  0  0  0  0  0  0  0  0999 V2000
    0.9560   -0.0862    0.0139 C   0  0  0  0  0  0  0  0  0  0  0  0
    0.4515    1.3104   -0.3628 C   0  0  1  0  0  0  0  0  0  0  0  0
    0.9615    1.6974   -1.7633 C   0  0  0  0  0  0  0  0  0  0  0  0
    0.4822    0.7901   -2.7585 O   0  0  0  0  0  0  0  0  0  0  0  0
   -1.0157    1.3677   -0.3013 N   0  0  0  0  0  0  0  0  0  0  0  0
   -1.7131    2.2426    0.5219 C   0  0  0  0  0  0  0  0  0  0  0  0
   -1.1105    3.0412    1.2466 O   0  0  0  0  0  0  0  0  0  0  0  0
   -3.1672    2.1437    0.4911 C   0  0  0  0  0  0  0  0  0  0  0  0
   -4.1640    3.5506    0.5872 S   0  0  0  0  0  0  0  0  0  0  0  0
   -5.5920    2.5728    0.5597 C   0  0  0  0  0  0  0  0  0  0  0  0
   -5.3484    1.2768    0.4992 N   0  0  0  0  0  0  0  0  0  0  0  0
   -3.9803    1.0221    0.4722 C   0  0  0  0  0  0  0  0  0  0  0  0
   -3.5500   -0.3986    0.4706 C   0  0  0  0  0  0  0  0  0  0  0  0
   -6.9384    3.1893    0.5584 C   0  0  0  0  0  0  0  0  0  0  0  0
   -7.3662    4.0162   -0.4529 C   0  0  0  0  0  0  0  0  0  0  0  0
   -8.6635    4.4658   -0.3523 C   0  0  0  0  0  0  0  0  0  0  0  0
   -9.5023    4.1354    0.6491 N   0  0  0  0  0  0  0  0  0  0  0  0
   -9.0125    3.3227    1.5944 C   0  0  0  0  0  0  0  0  0  0  0  0
   -9.8642    2.9547    2.6376 N   0  0  0  0  0  0  0  0  0  0  0  0
   -9.4890    2.1361    3.7059 C   0  0  0  0  0  0  0  0  0  0  0  0
   -8.4198    2.5357    4.5135 C   0  0  0  0  0  0  0  0  0  0  0  0
   -7.8579    1.6804    5.4586 C   0  0  0  0  0  0  0  0  0  0  0  0
   -6.6746    2.1392    6.2533 C   0  0  0  0  0  0  0  0  0  0  0  0
   -8.3888    0.3944    5.6038 C   0  0  0  0  0  0  0  0  0  0  0  0
   -9.4839   -0.0201    4.8268 C   0  0  0  0  0  0  0  0  0  0  0  0
  -10.0230   -1.4148    4.9627 C   0  0  0  0  0  0  0  0  0  0  0  0
  -10.0421    0.8679    3.8925 C   0  0  0  0  0  0  0  0  0  0  0  0
   -7.7524    2.8403    1.5730 N   0  0  0  0  0  0  0  0  0  0  0  0
    0.8647    2.0241    0.3581 H   0  0  0  0  0  0  0  0  0  0  0  0
    0.5960   -0.8560   -0.6772 H   0  0  0  0  0  0  0  0  0  0  0  0
    0.6230   -0.3721    1.0156 H   0  0  0  0  0  0  0  0  0  0  0  0
    2.0524   -0.1118   -0.0012 H   0  0  0  0  0  0  0  0  0  0  0  0
    0.6173    2.6988   -2.0374 H   0  0  0  0  0  0  0  0  0  0  0  0
    2.0579    1.6967   -1.7931 H   0  0  0  0  0  0  0  0  0  0  0  0
    0.9007   -0.0741   -2.6014 H   0  0  0  0  0  0  0  0  0  0  0  0
   -1.5210    0.8337   -0.9993 H   0  0  0  0  0  0  0  0  0  0  0  0
   -3.9508   -0.9185    1.3444 H   0  0  0  0  0  0  0  0  0  0  0  0
   -3.9064   -0.8897   -0.4388 H   0  0  0  0  0  0  0  0  0  0  0  0
   -2.4642   -0.5051    0.5078 H   0  0  0  0  0  0  0  0  0  0  0  0
   -6.7374    4.2780   -1.2908 H   0  0  0  0  0  0  0  0  0  0  0  0
   -9.0846    5.1238   -1.1078 H   0  0  0  0  0  0  0  0  0  0  0  0
  -10.8286    3.2123    2.5149 H   0  0  0  0  0  0  0  0  0  0  0  0
   -7.9965    3.5264    4.3593 H   0  0  0  0  0  0  0  0  0  0  0  0
   -6.9017    2.1049    7.3219 H   0  0  0  0  0  0  0  0  0  0  0  0
   -5.8047    1.5125    6.0364 H   0  0  0  0  0  0  0  0  0  0  0  0
   -6.4067    3.1731    6.0038 H   0  0  0  0  0  0  0  0  0  0  0  0
   -7.9327   -0.2943    6.3119 H   0  0  0  0  0  0  0  0  0  0  0  0
   -9.2430   -2.1530    4.7472 H   0  0  0  0  0  0  0  0  0  0  0  0
  -10.4045   -1.5754    5.9753 H   0  0  0  0  0  0  0  0  0  0  0  0
  -10.8458   -1.5920    4.2617 H   0  0  0  0  0  0  0  0  0  0  0  0
  -10.8567    0.5355    3.2541 H   0  0  0  0  0  0  0  0  0  0  0  0
  1 30  1  0  0  0  0
  1 31  1  0  0  0  0
  1 32  1  0  0  0  0
  2  1  1  0  0  0  0
  2  3  1  0  0  0  0
  2  5  1  0  0  0  0
  2 29  1  1  0  0  0
  3 33  1  0  0  0  0
  3 34  1  0  0  0  0
  4  3  1  0  0  0  0
  4 35  1  0  0  0  0
  5  6  1  0  0  0  0
  5 36  1  0  0  0  0
  6  8  1  0  0  0  0
  7  6  2  0  0  0  0
  8 12  2  0  0  0  0
  8  9  1  0  0  0  0
  9 10  1  0  0  0  0
 10 14  1  0  0  0  0
 11 10  2  0  0  0  0
 12 11  1  0  0  0  0
 13 12  1  0  0  0  0
 13 37  1  0  0  0  0
 13 38  1  0  0  0  0
 13 39  1  0  0  0  0
 14 28  2  0  0  0  0
 14 15  1  0  0  0  0
 15 16  2  0  0  0  0
 15 40  1  0  0  0  0
 16 17  1  0  0  0  0
 16 41  1  0  0  0  0
 18 17  2  0  0  0  0
 18 19  1  0  0  0  0
 19 42  1  0  0  0  0
 20 19  1  0  0  0  0
 20 27  1  0  0  0  0
 21 20  2  0  0  0  0
 21 43  1  0  0  0  0
 22 21  1  0  0  0  0
 22 24  2  0  0  0  0
 23 22  1  0  0  0  0
 23 44  1  0  0  0  0
 23 45  1  0  0  0  0
 23 46  1  0  0  0  0
 24 25  1  0  0  0  0
 24 47  1  0  0  0  0
 25 26  1  0  0  0  0
 25 27  2  0  0  0  0
 26 48  1  0  0  0  0
 26 49  1  0  0  0  0
 26 50  1  0  0  0  0
 27 51  1  0  0  0  0
 28 18  1  0  0  0  0
M  END
>  <DRUGBANK_ID>
DB07194

>  <COMMON_NAME>
2-{2-[(3,5-dimethylphenyl)amino]pyrimidin-4-yl}-N-[(1S)-2-hydroxy-1-methylethyl]-4-methyl-1,3-thiazole-5-carboxamide

$$$$
