NP6
 OpenBabel10282417163D

 50 51  0  0  0  0  0  0  0  0999 V2000
    0.0573    0.4119    0.0345 C   0  0  0  0  0  0  0  0  0  0  0  0
   -0.1321   -0.0273   -1.4460 C   0  0  0  0  0  0  0  0  0  0  0  0
    0.0295   -1.4593   -1.9414 C   0  0  0  0  0  0  0  0  0  0  0  0
   -0.1387   -2.5548   -0.8302 C   0  0  0  0  0  0  0  0  0  0  0  0
   -0.8074   -3.5742   -1.0392 O   0  0  0  0  0  0  0  0  0  0  0  0
    0.6011   -2.5299    0.3627 N   0  0  0  0  0  0  0  0  0  0  0  0
    1.8548   -1.7944    0.8247 C   0  0  2  0  0  0  0  0  0  0  0  0
    2.5476   -0.8849   -0.1926 C   0  0  1  0  0  0  0  0  0  0  0  0
    3.5876   -0.1366    0.4719 O   0  0  0  0  0  0  0  0  0  0  0  0
    2.8798   -1.7381   -1.4265 C   0  0  2  0  0  0  0  0  0  0  0  0
    1.9888   -2.8066   -1.7770 O   0  0  0  0  0  0  0  0  0  0  0  0
    3.9434   -2.6716   -1.1128 C   0  0  1  0  0  0  0  0  0  0  0  0
    5.1957   -1.8841   -0.9985 C   0  0  0  0  0  0  0  0  0  0  0  0
    5.9421   -2.1503   -2.1738 O   0  0  0  0  0  0  0  0  0  0  0  0
    3.5369   -3.4356    0.0518 O   0  0  0  0  0  0  0  0  0  0  0  0
    3.0051   -2.7854    1.1269 C   0  0  0  0  0  0  0  0  0  0  0  0
    3.4991   -3.0089    2.3000 N   0  0  0  0  0  0  0  0  0  0  0  0
    4.5263   -3.9697    2.1298 O   0  0  0  0  0  0  0  0  0  0  0  0
    5.3032   -4.1746    3.2173 C   0  0  0  0  0  0  0  0  0  0  0  0
    5.1967   -3.5549    4.3045 O   0  0  0  0  0  0  0  0  0  0  0  0
    6.2011   -5.2042    3.0788 N   0  0  0  0  0  0  0  0  0  0  0  0
    6.4943   -5.9054    1.8895 C   0  0  0  0  0  0  0  0  0  0  0  0
    6.5770   -5.2332    0.6692 C   0  0  0  0  0  0  0  0  0  0  0  0
    6.9103   -5.9101   -0.5022 C   0  0  0  0  0  0  0  0  0  0  0  0
    7.1827   -7.2727   -0.4590 C   0  0  0  0  0  0  0  0  0  0  0  0
    7.1477   -7.9485    0.7610 C   0  0  0  0  0  0  0  0  0  0  0  0
    6.7835   -7.2724    1.9334 C   0  0  0  0  0  0  0  0  0  0  0  0
    1.6106   -1.2847    1.7726 H   0  0  0  0  0  0  0  0  0  0  0  0
    2.0668   -0.0734   -0.7020 H   0  0  0  0  0  0  0  0  0  0  0  0
    3.0105   -1.0843   -2.2985 H   0  0  0  0  0  0  0  0  0  0  0  0
    3.9585   -3.3880   -1.9509 H   0  0  0  0  0  0  0  0  0  0  0  0
   -0.3045   -0.3361    0.7372 H   0  0  0  0  0  0  0  0  0  0  0  0
   -0.4498    1.3536    0.1977 H   0  0  0  0  0  0  0  0  0  0  0  0
    1.0444    0.7114    0.4130 H   0  0  0  0  0  0  0  0  0  0  0  0
   -1.1769    0.1506   -1.6557 H   0  0  0  0  0  0  0  0  0  0  0  0
    0.4822    0.6107   -2.1027 H   0  0  0  0  0  0  0  0  0  0  0  0
   -0.6090   -1.7306   -2.8035 H   0  0  0  0  0  0  0  0  0  0  0  0
    0.9252   -1.4514   -2.5796 H   0  0  0  0  0  0  0  0  0  0  0  0
    0.3478   -3.3134    0.9652 H   0  0  0  0  0  0  0  0  0  0  0  0
    3.1943    0.6448    0.9175 H   0  0  0  0  0  0  0  0  0  0  0  0
    1.7880   -3.2961   -0.9457 H   0  0  0  0  0  0  0  0  0  0  0  0
    5.0302   -0.8025   -1.0038 H   0  0  0  0  0  0  0  0  0  0  0  0
    5.6961   -2.1743   -0.0835 H   0  0  0  0  0  0  0  0  0  0  0  0
    5.6962   -3.0425   -2.4789 H   0  0  0  0  0  0  0  0  0  0  0  0
    6.6463   -5.4994    3.9354 H   0  0  0  0  0  0  0  0  0  0  0  0
    6.4335   -4.1604    0.6218 H   0  0  0  0  0  0  0  0  0  0  0  0
    6.9800   -5.3630   -1.4375 H   0  0  0  0  0  0  0  0  0  0  0  0
    7.4264   -7.8046   -1.3751 H   0  0  0  0  0  0  0  0  0  0  0  0
    7.4051   -9.0049    0.7933 H   0  0  0  0  0  0  0  0  0  0  0  0
    6.6736   -7.8422    2.8529 H   0  0  0  0  0  0  0  0  0  0  0  0
  1  2  1  0  0  0  0
  1 32  1  0  0  0  0
  1 33  1  0  0  0  0
  1 34  1  0  0  0  0
  2  3  1  0  0  0  0
  2 35  1  0  0  0  0
  2 36  1  0  0  0  0
  3  4  1  0  0  0  0
  3 37  1  0  0  0  0
  3 38  1  0  0  0  0
  4  5  2  0  0  0  0
  4  6  1  0  0  0  0
  6 39  1  0  0  0  0
  7  6  1  0  0  0  0
  7  8  1  0  0  0  0
  7 16  1  0  0  0  0
  7 28  1  1  0  0  0
  8 10  1  0  0  0  0
  8 29  1  6  0  0  0
  8  9  1  0  0  0  0
  9 40  1  0  0  0  0
 10 11  1  0  0  0  0
 10 12  1  0  0  0  0
 10 30  1  6  0  0  0
 11 41  1  0  0  0  0
 12 15  1  0  0  0  0
 12 31  1  6  0  0  0
 12 13  1  0  0  0  0
 13 14  1  0  0  0  0
 13 42  1  0  0  0  0
 13 43  1  0  0  0  0
 14 44  1  0  0  0  0
 15 16  1  0  0  0  0
 16 17  2  0  0  0  0
 17 18  1  0  0  0  0
 18 19  1  0  0  0  0
 19 20  2  0  0  0  0
 19 21  1  0  0  0  0
 21 22  1  0  0  0  0
 21 45  1  0  0  0  0
 22 23  1  0  0  0  0
 22 27  2  0  0  0  0
 23 24  2  0  0  0  0
 23 46  1  0  0  0  0
 24 25  1  0  0  0  0
 24 47  1  0  0  0  0
 25 26  2  0  0  0  0
 25 48  1  0  0  0  0
 26 27  1  0  0  0  0
 26 49  1  0  0  0  0
 27 50  1  0  0  0  0
M  END
>  <DRUGBANK_ID>
DB07432

>  <COMMON_NAME>
[[(3R,4R,5S,6R)-3-(butanoylamino)-4,5-dihydroxy-6-(hydroxymethyl)oxan-2-ylidene]amino] N-phenylcarbamate

$$$$
