
 OpenBabel10282417243D

 90 92  0  0  0  0  0  0  0  0999 V2000
    2.5665    1.0790    0.1677 C   0  0  0  0  0  0  0  0  0  0  0  0
    1.2159    0.4148    0.1642 C   0  0  0  0  0  0  0  0  0  0  0  0
    1.1961   -0.9542    0.0653 C   0  0  0  0  0  0  0  0  0  0  0  0
   -0.0049   -1.6442   -0.0700 C   0  0  0  0  0  0  0  0  0  0  0  0
   -0.0576   -2.9660   -0.3715 O   0  0  0  0  0  0  0  0  0  0  0  0
    1.1438   -3.5794    0.0085 C   0  0  0  0  0  0  0  0  0  0  0  0
    2.3551   -3.8811   -1.2660 P   0  0  0  0  0  0  0  0  0  0  0  0
    3.5487   -4.2137   -0.4332 O   0  0  0  0  0  0  0  0  0  0  0  0
    1.7792   -5.1062   -2.1337 O   0  0  0  0  0  0  0  0  0  0  0  0
    1.0019   -6.0348   -1.4182 C   0  0  0  0  0  0  0  0  0  0  0  0
    1.5955   -6.4260   -0.1682 O   0  0  0  0  0  0  0  0  0  0  0  0
    2.8886   -6.8598   -0.2664 C   0  0  0  0  0  0  0  0  0  0  0  0
    3.4180   -7.1246   -1.3247 O   0  0  0  0  0  0  0  0  0  0  0  0
    3.5819   -6.9629    1.1136 C   0  0  0  0  0  0  0  0  0  0  0  0
    3.9585   -5.6258    1.7711 C   0  0  0  0  0  0  0  0  0  0  0  0
    2.6901   -7.7301    2.0891 C   0  0  0  0  0  0  0  0  0  0  0  0
    4.8803   -7.7426    0.8687 C   0  0  0  0  0  0  0  0  0  0  0  0
    2.9369   -2.9411   -2.4472 O   0  0  0  0  0  0  0  0  0  0  0  0
    4.2755   -3.4329   -2.8109 C   0  0  0  0  0  0  0  0  0  0  0  0
    5.2866   -3.0567   -1.8495 O   0  0  0  0  0  0  0  0  0  0  0  0
    5.3673   -1.7235   -1.6416 C   0  0  0  0  0  0  0  0  0  0  0  0
    4.8944   -0.8991   -2.4122 O   0  0  0  0  0  0  0  0  0  0  0  0
    6.0855   -1.3536   -0.3288 C   0  0  0  0  0  0  0  0  0  0  0  0
    5.2822   -1.7281    0.9271 C   0  0  0  0  0  0  0  0  0  0  0  0
    7.4566   -2.0279   -0.2445 C   0  0  0  0  0  0  0  0  0  0  0  0
    6.2917    0.1713   -0.3439 C   0  0  0  0  0  0  0  0  0  0  0  0
   -1.2213   -0.9980   -0.0032 C   0  0  0  0  0  0  0  0  0  0  0  0
   -1.2435    0.3883    0.0616 C   0  0  0  0  0  0  0  0  0  0  0  0
   -2.5786    1.0691    0.0081 C   0  0  0  0  0  0  0  0  0  0  0  0
   -0.0164    1.0976    0.1008 C   0  0  0  0  0  0  0  0  0  0  0  0
    0.0252    2.5892   -0.0929 C   0  0  0  0  0  0  0  0  0  0  0  0
    0.6769    3.0075   -1.4017 C   0  0  0  0  0  0  0  0  0  0  0  0
    1.0785    2.1147   -2.4099 C   0  0  0  0  0  0  0  0  0  0  0  0
    1.8171    2.5409   -3.5073 C   0  0  0  0  0  0  0  0  0  0  0  0
    2.0236    3.8962   -3.6980 C   0  0  0  0  0  0  0  0  0  0  0  0
    2.6933    4.3284   -4.8058 O   0  0  0  0  0  0  0  0  0  0  0  0
    1.5593    4.8272   -2.7676 C   0  0  0  0  0  0  0  0  0  0  0  0
    1.6938    6.3075   -3.0256 C   0  0  0  0  0  0  0  0  0  0  0  0
    0.3733    7.0469   -3.0957 C   0  0  0  0  0  0  0  0  0  0  0  0
   -0.4494    7.1511   -1.9643 C   0  0  0  0  0  0  0  0  0  0  0  0
   -1.6529    7.8387   -1.9960 C   0  0  0  0  0  0  0  0  0  0  0  0
   -2.0135    8.5191   -3.1476 C   0  0  0  0  0  0  0  0  0  0  0  0
   -1.1869    8.4748   -4.2712 C   0  0  0  0  0  0  0  0  0  0  0  0
   -0.0287    7.6936   -4.2688 C   0  0  0  0  0  0  0  0  0  0  0  0
    0.9632    4.3531   -1.5851 C   0  0  0  0  0  0  0  0  0  0  0  0
    2.7745    1.6643   -0.7266 H   0  0  0  0  0  0  0  0  0  0  0  0
    2.6875    1.7021    1.0512 H   0  0  0  0  0  0  0  0  0  0  0  0
    3.3530    0.3290    0.1603 H   0  0  0  0  0  0  0  0  0  0  0  0
    2.1591   -1.4494    0.0302 H   0  0  0  0  0  0  0  0  0  0  0  0
    1.6193   -3.1804    0.9172 H   0  0  0  0  0  0  0  0  0  0  0  0
    0.8129   -4.5190    0.4412 H   0  0  0  0  0  0  0  0  0  0  0  0
    0.0429   -5.5375   -1.2160 H   0  0  0  0  0  0  0  0  0  0  0  0
    0.7614   -6.9027   -2.0288 H   0  0  0  0  0  0  0  0  0  0  0  0
    3.0805   -5.0022    1.9781 H   0  0  0  0  0  0  0  0  0  0  0  0
    4.4845   -5.7747    2.7198 H   0  0  0  0  0  0  0  0  0  0  0  0
    4.6634   -5.0610    1.1572 H   0  0  0  0  0  0  0  0  0  0  0  0
    2.3855   -8.6910    1.6660 H   0  0  0  0  0  0  0  0  0  0  0  0
    3.2162   -7.9163    3.0316 H   0  0  0  0  0  0  0  0  0  0  0  0
    1.7806   -7.1650    2.3269 H   0  0  0  0  0  0  0  0  0  0  0  0
    4.6651   -8.7111    0.4054 H   0  0  0  0  0  0  0  0  0  0  0  0
    5.5415   -7.1922    0.1861 H   0  0  0  0  0  0  0  0  0  0  0  0
    5.4279   -7.9164    1.7987 H   0  0  0  0  0  0  0  0  0  0  0  0
    4.2565   -4.5367   -2.8239 H   0  0  0  0  0  0  0  0  0  0  0  0
    4.6071   -3.1536   -3.8203 H   0  0  0  0  0  0  0  0  0  0  0  0
    5.1623   -2.8082    1.0305 H   0  0  0  0  0  0  0  0  0  0  0  0
    5.7853   -1.3739    1.8364 H   0  0  0  0  0  0  0  0  0  0  0  0
    4.2823   -1.2966    0.9298 H   0  0  0  0  0  0  0  0  0  0  0  0
    8.0648   -1.7890   -1.1217 H   0  0  0  0  0  0  0  0  0  0  0  0
    7.9995   -1.6928    0.6480 H   0  0  0  0  0  0  0  0  0  0  0  0
    7.3657   -3.1180   -0.1840 H   0  0  0  0  0  0  0  0  0  0  0  0
    6.8735    0.4770   -1.2201 H   0  0  0  0  0  0  0  0  0  0  0  0
    5.3392    0.7043   -0.4032 H   0  0  0  0  0  0  0  0  0  0  0  0
    6.8083    0.5205    0.5547 H   0  0  0  0  0  0  0  0  0  0  0  0
   -2.1397   -1.5779   -0.0555 H   0  0  0  0  0  0  0  0  0  0  0  0
   -2.6958    1.7152    0.8817 H   0  0  0  0  0  0  0  0  0  0  0  0
   -2.6723    1.6497   -0.9143 H   0  0  0  0  0  0  0  0  0  0  0  0
   -3.3995    0.3431    0.0249 H   0  0  0  0  0  0  0  0  0  0  0  0
    0.5731    3.0047    0.7644 H   0  0  0  0  0  0  0  0  0  0  0  0
   -0.9768    3.0244   -0.0465 H   0  0  0  0  0  0  0  0  0  0  0  0
    0.9313    1.0429   -2.3085 H   0  0  0  0  0  0  0  0  0  0  0  0
    2.2215    1.7950   -4.1829 H   0  0  0  0  0  0  0  0  0  0  0  0
    2.9526    3.5520   -5.3279 H   0  0  0  0  0  0  0  0  0  0  0  0
    2.3207    6.7581   -2.2476 H   0  0  0  0  0  0  0  0  0  0  0  0
    2.2380    6.4780   -3.9627 H   0  0  0  0  0  0  0  0  0  0  0  0
   -0.1680    6.7066   -1.0209 H   0  0  0  0  0  0  0  0  0  0  0  0
   -2.2746    7.8599   -1.1065 H   0  0  0  0  0  0  0  0  0  0  0  0
   -2.9341    9.0922   -3.1624 H   0  0  0  0  0  0  0  0  0  0  0  0
   -1.4409    9.0621   -5.1484 H   0  0  0  0  0  0  0  0  0  0  0  0
    0.5659    7.6148   -5.1770 H   0  0  0  0  0  0  0  0  0  0  0  0
    0.7015    5.0218   -0.7747 H   0  0  0  0  0  0  0  0  0  0  0  0
  1  2  1  0  0  0  0
  1 46  1  0  0  0  0
  1 47  1  0  0  0  0
  1 48  1  0  0  0  0
  2  3  2  0  0  0  0
  2 30  1  0  0  0  0
  3  4  1  0  0  0  0
  3 49  1  0  0  0  0
  4  5  1  0  0  0  0
  4 27  2  0  0  0  0
  5  6  1  0  0  0  0
  6  7  1  0  0  0  0
  6 50  1  0  0  0  0
  6 51  1  0  0  0  0
  7  8  2  0  0  0  0
  7  9  1  0  0  0  0
  7 18  1  0  0  0  0
  9 10  1  0  0  0  0
 10 11  1  0  0  0  0
 10 52  1  0  0  0  0
 10 53  1  0  0  0  0
 11 12  1  0  0  0  0
 12 13  2  0  0  0  0
 12 14  1  0  0  0  0
 14 15  1  0  0  0  0
 14 16  1  0  0  0  0
 14 17  1  0  0  0  0
 15 54  1  0  0  0  0
 15 55  1  0  0  0  0
 15 56  1  0  0  0  0
 16 57  1  0  0  0  0
 16 58  1  0  0  0  0
 16 59  1  0  0  0  0
 17 60  1  0  0  0  0
 17 61  1  0  0  0  0
 17 62  1  0  0  0  0
 18 19  1  0  0  0  0
 19 20  1  0  0  0  0
 19 63  1  0  0  0  0
 19 64  1  0  0  0  0
 20 21  1  0  0  0  0
 21 22  2  0  0  0  0
 21 23  1  0  0  0  0
 23 24  1  0  0  0  0
 23 25  1  0  0  0  0
 23 26  1  0  0  0  0
 24 65  1  0  0  0  0
 24 66  1  0  0  0  0
 24 67  1  0  0  0  0
 25 68  1  0  0  0  0
 25 69  1  0  0  0  0
 25 70  1  0  0  0  0
 26 71  1  0  0  0  0
 26 72  1  0  0  0  0
 26 73  1  0  0  0  0
 27 28  1  0  0  0  0
 27 74  1  0  0  0  0
 28 29  1  0  0  0  0
 28 30  2  0  0  0  0
 29 75  1  0  0  0  0
 29 76  1  0  0  0  0
 29 77  1  0  0  0  0
 30 31  1  0  0  0  0
 31 32  1  0  0  0  0
 31 78  1  0  0  0  0
 31 79  1  0  0  0  0
 32 33  2  0  0  0  0
 32 45  1  0  0  0  0
 33 34  1  0  0  0  0
 33 80  1  0  0  0  0
 34 35  2  0  0  0  0
 34 81  1  0  0  0  0
 35 36  1  0  0  0  0
 35 37  1  0  0  0  0
 36 82  1  0  0  0  0
 37 38  1  0  0  0  0
 37 45  2  0  0  0  0
 38 39  1  0  0  0  0
 38 83  1  0  0  0  0
 38 84  1  0  0  0  0
 39 40  2  0  0  0  0
 39 44  1  0  0  0  0
 40 41  1  0  0  0  0
 40 85  1  0  0  0  0
 41 42  2  0  0  0  0
 41 86  1  0  0  0  0
 42 43  1  0  0  0  0
 42 87  1  0  0  0  0
 43 44  2  0  0  0  0
 43 88  1  0  0  0  0
 44 89  1  0  0  0  0
 45 90  1  0  0  0  0
M  END
>  <DRUGBANK_ID>
DB17876

>  <COMMON_NAME>
Bis(2,2-dimethylpropanoyloxymethyl) VK-0214

>  <CAS_NUMBER>
1282618-49-8

>  <UNII>
BYT6883X9X

>  <SYNONYMS>
2,2-dimethylpropanoic acid 1,1'-((((4-((4-hydroxy-3-(phenylmethyl)phenyl)methyl)-3,5-dimethylphenoxy)methyl)phosphinylidene)bis(oxymethylene)) ester; Bis(2,2-dimethylpropanoyloxymethyl)vk-0214; Propanoic acid, 2,2-dimethyl-, 1,1'-((((4-((4-hydroxy-3-(phenylmethyl)phenyl)methyl)-3,5-dimethylphenoxy)methyl)phosphinylidene)bis(oxymethylene)) ester

$$$$
