
 OpenBabel10282417203D

101106  0  0  1  0  0  0  0  0999 V2000
    1.2070    1.4100    0.0040 C   0  0  0  0  0  0  0  0  0  0  0  0
   -0.0070    0.7090   -0.0010 C   0  0  0  0  0  0  0  0  0  0  0  0
    0.0070   -0.7100    0.0000 C   0  0  0  0  0  0  0  0  0  0  0  0
    1.2380   -1.3940    0.0000 C   0  0  0  0  0  0  0  0  0  0  0  0
    2.4020   -0.6960    0.0000 C   0  0  0  0  0  0  0  0  0  0  0  0
    2.4000    0.7090   -0.0020 C   0  0  0  0  0  0  0  0  0  0  0  0
    3.5539    1.3704   -0.0097 F   0  0  0  0  0  0  0  0  0  0  0  0
    3.6816   -1.4195    0.0021 N   0  0  0  0  0  0  0  0  0  0  0  0
    4.8305   -1.3803    1.0402 C   0  0  0  0  0  0  0  0  0  0  0  0
    5.3188   -2.8514    1.0693 C   0  0  2  0  0  0  0  0  0  0  0  0
    5.2149   -3.3087   -0.3968 C   0  0  0  0  0  0  0  0  0  0  0  0
    4.1795   -2.4040   -1.0786 C   0  0  0  0  0  0  0  0  0  0  0  0
    6.4460   -3.8027   -1.1493 C   0  0  0  0  0  0  0  0  0  0  0  0
    5.3359   -4.7844   -0.7652 C   0  0  0  0  0  0  0  0  0  0  0  0
    4.4572   -3.6705    1.9341 N   0  0  0  0  0  0  0  0  0  0  0  0
    1.2674   -3.1738    0.0000 Cl  0  0  0  0  0  0  0  0  0  0  0  0
   -1.2070   -1.4120    0.0010 N   0  0  0  0  0  0  0  0  0  0  0  0
   -2.4010   -0.7090    0.0010 C   0  0  0  0  0  0  0  0  0  0  0  0
   -2.4020    0.6980    0.0000 C   0  0  0  0  0  0  0  0  0  0  0  0
   -1.2380    1.3940   -0.0010 C   0  0  0  0  0  0  0  0  0  0  0  0
   -1.2578    2.6647   -0.0019 O   0  0  0  0  0  0  0  0  0  0  0  0
   -3.7244    1.4474    0.0000 C   0  0  0  0  0  0  0  0  0  0  0  0
   -4.8199    0.8032    0.0010 O   0  0  0  0  0  0  0  0  0  0  0  0
   -3.7358    2.8674   -0.0010 O   0  0  0  0  0  0  0  0  0  0  0  0
   -1.2128   -2.8820    0.0020 C   0  0  2  0  0  0  0  0  0  0  0  0
   -1.4321   -4.3513   -0.3664 C   0  0  0  0  0  0  0  0  0  0  0  0
   -0.8926   -3.9809    1.0174 C   0  0  2  0  0  0  0  0  0  0  0  0
   -1.6589   -4.1360    2.0933 F   0  0  0  0  0  0  0  0  0  0  0  0
    1.2070    1.4100    0.0040 C   0  0  0  0  0  0  0  0  0  0  0  0
   -0.0070    0.7090   -0.0010 C   0  0  0  0  0  0  0  0  0  0  0  0
    0.0070   -0.7100    0.0000 C   0  0  0  0  0  0  0  0  0  0  0  0
    1.2380   -1.3940    0.0000 C   0  0  0  0  0  0  0  0  0  0  0  0
    2.4020   -0.6960    0.0000 C   0  0  0  0  0  0  0  0  0  0  0  0
    2.4000    0.7090   -0.0020 C   0  0  0  0  0  0  0  0  0  0  0  0
    3.5539    1.3704   -0.0097 F   0  0  0  0  0  0  0  0  0  0  0  0
    3.6816   -1.4195    0.0021 N   0  0  0  0  0  0  0  0  0  0  0  0
    4.8305   -1.3803    1.0402 C   0  0  0  0  0  0  0  0  0  0  0  0
    5.3188   -2.8514    1.0693 C   0  0  2  0  0  0  0  0  0  0  0  0
    5.2149   -3.3087   -0.3968 C   0  0  0  0  0  0  0  0  0  0  0  0
    4.1795   -2.4040   -1.0786 C   0  0  0  0  0  0  0  0  0  0  0  0
    6.4460   -3.8027   -1.1493 C   0  0  0  0  0  0  0  0  0  0  0  0
    5.3359   -4.7844   -0.7652 C   0  0  0  0  0  0  0  0  0  0  0  0
    4.4572   -3.6705    1.9341 N   0  0  0  0  0  0  0  0  0  0  0  0
    1.2674   -3.1738    0.0000 Cl  0  0  0  0  0  0  0  0  0  0  0  0
   -1.2070   -1.4120    0.0010 N   0  0  0  0  0  0  0  0  0  0  0  0
   -2.4010   -0.7090    0.0010 C   0  0  0  0  0  0  0  0  0  0  0  0
   -2.4020    0.6980    0.0000 C   0  0  0  0  0  0  0  0  0  0  0  0
   -1.2380    1.3940   -0.0010 C   0  0  0  0  0  0  0  0  0  0  0  0
   -1.2578    2.6647   -0.0019 O   0  0  0  0  0  0  0  0  0  0  0  0
   -3.7244    1.4474    0.0000 C   0  0  0  0  0  0  0  0  0  0  0  0
   -4.8199    0.8032    0.0010 O   0  0  0  0  0  0  0  0  0  0  0  0
   -3.7358    2.8674   -0.0010 O   0  0  0  0  0  0  0  0  0  0  0  0
   -1.2128   -2.8820    0.0020 C   0  0  2  0  0  0  0  0  0  0  0  0
   -1.4321   -4.3513   -0.3664 C   0  0  0  0  0  0  0  0  0  0  0  0
   -0.8926   -3.9809    1.0174 C   0  0  2  0  0  0  0  0  0  0  0  0
   -1.6589   -4.1360    2.0933 F   0  0  0  0  0  0  0  0  0  0  0  0
    1.1094    0.0683    1.3924 O   0  0  0  0  0  0  0  0  0  0  0  0
    0.5377    0.4992   -2.7516 O   0  0  0  0  0  0  0  0  0  0  0  0
    1.4040   -0.0931   -1.3240 O   0  0  0  0  0  0  0  0  0  0  0  0
    1.2111    2.4800    0.0124 H   0  0  0  0  0  0  0  0  0  0  0  0
    5.6028   -0.6829    0.7907 H   0  0  0  0  0  0  0  0  0  0  0  0
    4.4717   -1.0743    2.0007 H   0  0  0  0  0  0  0  0  0  0  0  0
    6.3097   -2.9483    1.4612 H   0  0  0  0  0  0  0  0  0  0  0  0
    3.3713   -2.9764   -1.4837 H   0  0  0  0  0  0  0  0  0  0  0  0
    4.6314   -1.8684   -1.8871 H   0  0  0  0  0  0  0  0  0  0  0  0
    6.9349   -3.5319   -2.0617 H   0  0  0  0  0  0  0  0  0  0  0  0
    7.3938   -3.8463   -0.6548 H   0  0  0  0  0  0  0  0  0  0  0  0
    5.2940   -5.7062   -0.2234 H   0  0  0  0  0  0  0  0  0  0  0  0
    4.7041   -5.2009   -1.5217 H   0  0  0  0  0  0  0  0  0  0  0  0
    4.6764   -4.6666    1.9209 H   0  0  0  0  0  0  0  0  0  0  0  0
    3.5365   -3.5194    1.5220 H   0  0  0  0  0  0  0  0  0  0  0  0
   -3.3297   -1.2404    0.0018 H   0  0  0  0  0  0  0  0  0  0  0  0
   -4.6058    3.3604   -0.0009 H   0  0  0  0  0  0  0  0  0  0  0  0
   -1.3061   -1.9771   -0.5613 H   0  0  0  0  0  0  0  0  0  0  0  0
   -2.2596   -4.9257   -0.7271 H   0  0  0  0  0  0  0  0  0  0  0  0
   -0.7919   -4.8251   -1.0810 H   0  0  0  0  0  0  0  0  0  0  0  0
   -0.0315   -4.2529    1.5915 H   0  0  0  0  0  0  0  0  0  0  0  0
    1.2111    2.4800    0.0124 H   0  0  0  0  0  0  0  0  0  0  0  0
    5.6028   -0.6829    0.7907 H   0  0  0  0  0  0  0  0  0  0  0  0
    4.4717   -1.0743    2.0007 H   0  0  0  0  0  0  0  0  0  0  0  0
    6.3097   -2.9483    1.4612 H   0  0  0  0  0  0  0  0  0  0  0  0
    3.3713   -2.9764   -1.4837 H   0  0  0  0  0  0  0  0  0  0  0  0
    4.6314   -1.8684   -1.8871 H   0  0  0  0  0  0  0  0  0  0  0  0
    6.9349   -3.5319   -2.0617 H   0  0  0  0  0  0  0  0  0  0  0  0
    7.3938   -3.8463   -0.6548 H   0  0  0  0  0  0  0  0  0  0  0  0
    5.2940   -5.7062   -0.2234 H   0  0  0  0  0  0  0  0  0  0  0  0
    4.7041   -5.2009   -1.5217 H   0  0  0  0  0  0  0  0  0  0  0  0
    4.6764   -4.6666    1.9209 H   0  0  0  0  0  0  0  0  0  0  0  0
    3.5365   -3.5194    1.5220 H   0  0  0  0  0  0  0  0  0  0  0  0
   -3.3297   -1.2404    0.0018 H   0  0  0  0  0  0  0  0  0  0  0  0
   -4.6058    3.3604   -0.0009 H   0  0  0  0  0  0  0  0  0  0  0  0
   -1.3061   -1.9771   -0.5613 H   0  0  0  0  0  0  0  0  0  0  0  0
   -2.2596   -4.9257   -0.7271 H   0  0  0  0  0  0  0  0  0  0  0  0
   -0.7919   -4.8251   -1.0810 H   0  0  0  0  0  0  0  0  0  0  0  0
   -0.0315   -4.2529    1.5915 H   0  0  0  0  0  0  0  0  0  0  0  0
    1.1423    0.0531   -0.3975 H   0  0  0  0  0  0  0  0  0  0  0  0
    1.9886    0.0186    1.8403 H   0  0  0  0  0  0  0  0  0  0  0  0
    0.5404   -0.4529   -2.1329 H   0  0  0  0  0  0  0  0  0  0  0  0
    1.3901    0.7923   -2.1417 H   0  0  0  0  0  0  0  0  0  0  0  0
    1.2803   -0.0411    0.4684 H   0  0  0  0  0  0  0  0  0  0  0  0
    2.6202   -0.0069   -1.6799 H   0  0  0  0  0  0  0  0  0  0  0  0
  1  2  2  0  0  0  0
  1  6  1  0  0  0  0
  1 60  1  0  0  0  0
  2  3  1  0  0  0  0
  2 20  1  0  0  0  0
  3  4  2  0  0  0  0
  3 17  1  0  0  0  0
  4  5  1  0  0  0  0
  4 16  1  0  0  0  0
  5  6  2  0  0  0  0
  5  8  1  0  0  0  0
  6  7  1  0  0  0  0
  8  9  1  0  0  0  0
  8 12  1  0  0  0  0
  9 10  1  0  0  0  0
  9 61  1  0  0  0  0
  9 62  1  0  0  0  0
 10 11  1  0  0  0  0
 10 63  1  1  0  0  0
 10 15  1  0  0  0  0
 11 12  1  0  0  0  0
 11 13  1  0  0  0  0
 11 14  1  0  0  0  0
 12 64  1  0  0  0  0
 12 65  1  0  0  0  0
 13 14  1  0  0  0  0
 13 66  1  0  0  0  0
 13 67  1  0  0  0  0
 14 68  1  0  0  0  0
 14 69  1  0  0  0  0
 15 70  1  0  0  0  0
 15 71  1  0  0  0  0
 17 18  1  0  0  0  0
 18 19  2  0  0  0  0
 18 72  1  0  0  0  0
 19 20  1  0  0  0  0
 19 22  1  0  0  0  0
 20 21  2  0  0  0  0
 22 23  2  0  0  0  0
 22 24  1  0  0  0  0
 24 73  1  0  0  0  0
 25 17  1  0  0  0  0
 25 26  1  0  0  0  0
 25 27  1  0  0  0  0
 25 74  1  6  0  0  0
 26 27  1  0  0  0  0
 26 75  1  0  0  0  0
 26 76  1  0  0  0  0
 27 77  1  1  0  0  0
 27 28  1  0  0  0  0
 29 30  2  0  0  0  0
 29 34  1  0  0  0  0
 29 78  1  0  0  0  0
 30 31  1  0  0  0  0
 30 48  1  0  0  0  0
 31 32  2  0  0  0  0
 31 45  1  0  0  0  0
 32 33  1  0  0  0  0
 32 44  1  0  0  0  0
 33 34  2  0  0  0  0
 33 36  1  0  0  0  0
 34 35  1  0  0  0  0
 36 37  1  0  0  0  0
 36 40  1  0  0  0  0
 37 38  1  0  0  0  0
 37 79  1  0  0  0  0
 37 80  1  0  0  0  0
 38 39  1  0  0  0  0
 38 81  1  1  0  0  0
 38 43  1  0  0  0  0
 39 40  1  0  0  0  0
 39 41  1  0  0  0  0
 39 42  1  0  0  0  0
 40 82  1  0  0  0  0
 40 83  1  0  0  0  0
 41 42  1  0  0  0  0
 41 84  1  0  0  0  0
 41 85  1  0  0  0  0
 42 86  1  0  0  0  0
 42 87  1  0  0  0  0
 43 88  1  0  0  0  0
 43 89  1  0  0  0  0
 45 46  1  0  0  0  0
 46 47  2  0  0  0  0
 46 90  1  0  0  0  0
 47 48  1  0  0  0  0
 47 50  1  0  0  0  0
 48 49  2  0  0  0  0
 50 51  2  0  0  0  0
 50 52  1  0  0  0  0
 52 91  1  0  0  0  0
 53 45  1  0  0  0  0
 53 54  1  0  0  0  0
 53 55  1  0  0  0  0
 53 92  1  6  0  0  0
 54 55  1  0  0  0  0
 54 93  1  0  0  0  0
 54 94  1  0  0  0  0
 55 95  1  1  0  0  0
 55 56  1  0  0  0  0
 57 96  1  0  0  0  0
 57 97  1  0  0  0  0
 58 98  1  0  0  0  0
 58 99  1  0  0  0  0
 59100  1  0  0  0  0
 59101  1  0  0  0  0
M  END
>  <DRUGBANK_ID>
DB13261

>  <COMMON_NAME>
Sitafloxacin

>  <CAS_NUMBER>
163253-35-8

>  <UNII>
9TD681796G

>  <SYNONYMS>
Sitafloxacin

$$$$
