
 OpenBabel10282417223D

 47 48  0  0  0  0  0  0  0  0999 V2000
    2.9645   -1.5996   -7.5620 O   0  0  0  0  0  0  0  0  0  0  0  0
    3.8861   -2.4445   -6.8749 C   0  0  0  0  0  0  0  0  0  0  0  0
    3.2135   -3.7473   -6.4379 C   0  0  0  0  0  0  0  0  0  0  0  0
    2.6571   -4.5684   -7.6110 C   0  0  0  0  0  0  0  0  0  0  0  0
    3.6957   -4.9489   -8.5062 O   0  0  0  0  0  0  0  0  0  0  0  0
    4.0993   -4.5895   -5.6174 N   0  0  0  0  0  0  0  0  0  0  0  0
    3.9123   -4.9973   -4.3250 C   0  0  0  0  0  0  0  0  0  0  0  0
    4.7649   -5.7041   -3.7733 O   0  0  0  0  0  0  0  0  0  0  0  0
    2.6848   -4.5069   -3.5757 C   0  0  1  0  0  0  0  0  0  0  0  0
    2.8270   -3.0935   -3.6151 O   0  0  0  0  0  0  0  0  0  0  0  0
    1.3642   -5.0247   -4.1835 C   0  0  1  0  0  0  0  0  0  0  0  0
    1.3756   -6.4609   -4.1155 O   0  0  0  0  0  0  0  0  0  0  0  0
    0.1382   -4.4319   -3.4511 C   0  0  1  0  0  0  0  0  0  0  0  0
   -0.2283   -2.9947   -3.8574 C   0  0  2  0  0  0  0  0  0  0  0  0
    0.3394   -1.8820   -2.9684 C   0  0  0  0  0  0  0  0  0  0  0  0
   -1.6759   -3.0101   -3.8190 O   0  0  0  0  0  0  0  0  0  0  0  0
   -2.0149   -4.3274   -3.8932 C   0  0  0  0  0  0  0  0  0  0  0  0
   -1.0773   -5.2114   -3.7923 N   0  0  0  0  0  0  0  0  0  0  0  0
   -3.4427   -4.6627   -4.1260 C   0  0  0  0  0  0  0  0  0  0  0  0
   -4.0894   -4.2126   -5.2854 C   0  0  0  0  0  0  0  0  0  0  0  0
   -5.3986   -4.6328   -5.5652 C   0  0  0  0  0  0  0  0  0  0  0  0
   -6.1938   -4.0882   -6.9937 Cl  0  0  0  0  0  0  0  0  0  0  0  0
   -6.0753   -5.5036   -4.7110 C   0  0  0  0  0  0  0  0  0  0  0  0
   -5.4368   -5.9667   -3.5628 C   0  0  0  0  0  0  0  0  0  0  0  0
   -4.1290   -5.5484   -3.2746 C   0  0  0  0  0  0  0  0  0  0  0  0
   -3.5372   -6.0056   -2.1298 O   0  0  0  0  0  0  0  0  0  0  0  0
    2.6257   -2.0570   -8.3496 H   0  0  0  0  0  0  0  0  0  0  0  0
    4.7533   -2.6254   -7.5136 H   0  0  0  0  0  0  0  0  0  0  0  0
    4.2330   -1.8930   -5.9946 H   0  0  0  0  0  0  0  0  0  0  0  0
    2.3546   -3.4101   -5.8635 H   0  0  0  0  0  0  0  0  0  0  0  0
    2.1789   -5.4864   -7.2516 H   0  0  0  0  0  0  0  0  0  0  0  0
    1.8961   -4.0083   -8.1633 H   0  0  0  0  0  0  0  0  0  0  0  0
    4.1173   -4.1460   -8.8546 H   0  0  0  0  0  0  0  0  0  0  0  0
    4.9314   -4.9726   -6.0533 H   0  0  0  0  0  0  0  0  0  0  0  0
    2.7445   -4.8269   -2.5286 H   0  0  0  0  0  0  0  0  0  0  0  0
    3.5455   -2.8571   -3.0002 H   0  0  0  0  0  0  0  0  0  0  0  0
    1.2235   -4.7958   -5.2389 H   0  0  0  0  0  0  0  0  0  0  0  0
    2.0880   -6.7864   -4.6961 H   0  0  0  0  0  0  0  0  0  0  0  0
    0.2861   -4.5211   -2.3687 H   0  0  0  0  0  0  0  0  0  0  0  0
    0.0545   -2.7832   -4.8969 H   0  0  0  0  0  0  0  0  0  0  0  0
    1.4147   -1.7520   -3.0487 H   0  0  0  0  0  0  0  0  0  0  0  0
   -0.0548   -0.9032   -3.2535 H   0  0  0  0  0  0  0  0  0  0  0  0
    0.1317   -2.0501   -1.9091 H   0  0  0  0  0  0  0  0  0  0  0  0
   -3.5712   -3.5684   -5.9886 H   0  0  0  0  0  0  0  0  0  0  0  0
   -7.0911   -5.8266   -4.9342 H   0  0  0  0  0  0  0  0  0  0  0  0
   -5.9702   -6.6526   -2.9090 H   0  0  0  0  0  0  0  0  0  0  0  0
   -4.1191   -6.6505   -1.6952 H   0  0  0  0  0  0  0  0  0  0  0  0
  1  2  1  0  0  0  0
  1 27  1  0  0  0  0
  2  3  1  0  0  0  0
  2 28  1  0  0  0  0
  2 29  1  0  0  0  0
  3  4  1  0  0  0  0
  3  6  1  0  0  0  0
  3 30  1  0  0  0  0
  4  5  1  0  0  0  0
  4 31  1  0  0  0  0
  4 32  1  0  0  0  0
  5 33  1  0  0  0  0
  6  7  1  0  0  0  0
  6 34  1  0  0  0  0
  7  8  2  0  0  0  0
  9  7  1  0  0  0  0
  9 10  1  0  0  0  0
  9 35  1  1  0  0  0
 10 36  1  0  0  0  0
 11  9  1  0  0  0  0
 11 12  1  0  0  0  0
 11 37  1  6  0  0  0
 12 38  1  0  0  0  0
 13 14  1  0  0  0  0
 13 18  1  0  0  0  0
 13 39  1  1  0  0  0
 13 11  1  0  0  0  0
 14 15  1  0  0  0  0
 14 16  1  0  0  0  0
 14 40  1  6  0  0  0
 15 41  1  0  0  0  0
 15 42  1  0  0  0  0
 15 43  1  0  0  0  0
 16 17  1  0  0  0  0
 17 18  2  0  0  0  0
 17 19  1  0  0  0  0
 19 20  2  0  0  0  0
 19 25  1  0  0  0  0
 20 21  1  0  0  0  0
 20 44  1  0  0  0  0
 21 22  1  0  0  0  0
 21 23  2  0  0  0  0
 23 24  1  0  0  0  0
 23 45  1  0  0  0  0
 24 25  2  0  0  0  0
 24 46  1  0  0  0  0
 25 26  1  0  0  0  0
 26 47  1  0  0  0  0
M  END
>  <DRUGBANK_ID>
DB15552

>  <COMMON_NAME>
Leptazoline B

$$$$
