
 OpenBabel10282417133D

 16 15  0  0  0  0  0  0  0  0999 V2000
    0.9806   -0.0175    0.0952 O   0  0  0  0  0  0  0  0  0  0  0  0
    0.5905    0.8251   -0.9533 N   0  0  0  0  0  0  0  0  0  0  0  0
    1.4433    1.4804   -1.7798 C   0  0  0  0  0  0  0  0  0  0  0  0
    1.0221    2.2396   -2.6537 O   0  0  0  0  0  0  0  0  0  0  0  0
    2.9383    1.3135   -1.5486 C   0  0  0  0  0  0  0  0  0  0  0  0
    3.3090    1.7684   -0.2511 O   0  0  0  0  0  0  0  0  0  0  0  0
    2.8910    3.4369   -0.0665 P   0  0  0  0  0  0  0  0  0  0  0  0
    2.6819    3.0406    1.5038 O   0  0  0  0  0  0  0  0  0  0  0  0
    4.5076    3.6744   -0.0118 O   0  0  0  0  0  0  0  0  0  0  0  0
    2.5170    4.9303    0.0987 O   0  0  0  0  0  0  0  0  0  0  0  0
    1.9511    0.0449    0.1754 H   0  0  0  0  0  0  0  0  0  0  0  0
   -0.4118    0.9333   -1.0925 H   0  0  0  0  0  0  0  0  0  0  0  0
    3.2162    0.2624   -1.6630 H   0  0  0  0  0  0  0  0  0  0  0  0
    3.4868    1.8936   -2.2990 H   0  0  0  0  0  0  0  0  0  0  0  0
    1.7369    2.9886    1.7234 H   0  0  0  0  0  0  0  0  0  0  0  0
    4.9863    3.0559   -0.5861 H   0  0  0  0  0  0  0  0  0  0  0  0
  1  2  1  0  0  0  0
  1 11  1  0  0  0  0
  2  3  1  0  0  0  0
  2 12  1  0  0  0  0
  3  4  2  0  0  0  0
  3  5  1  0  0  0  0
  5  6  1  0  0  0  0
  5 13  1  0  0  0  0
  5 14  1  0  0  0  0
  6  7  1  0  0  0  0
  7  8  1  0  0  0  0
  7  9  1  0  0  0  0
  7 10  2  0  0  0  0
  8 15  1  0  0  0  0
  9 16  1  0  0  0  0
M  END
>  <DRUGBANK_ID>
DB03026

>  <SECONDARY_ACCESSION_NUMBERS>
EXPT02570

>  <COMMON_NAME>
Phosphoglycolohydroxamic Acid

>  <CAS_NUMBER>
51528-59-7

$$$$
