
 OpenBabel10282417143D

 45 48  0  0  0  0  0  0  0  0999 V2000
    2.1373    0.7468   -0.0210 C   0  0  0  0  0  0  0  0  0  0  0  0
   -5.5590    2.1107    5.2925 C   0  0  0  0  0  0  0  0  0  0  0  0
    0.9139    1.4260   -0.0151 C   0  0  0  0  0  0  0  0  0  0  0  0
   -5.5886    0.9560    4.4955 C   0  0  0  0  0  0  0  0  0  0  0  0
    0.9976   -1.4187   -0.0025 C   0  0  0  0  0  0  0  0  0  0  0  0
   -4.4061    3.3684    3.5603 C   0  0  0  0  0  0  0  0  0  0  0  0
    2.1929   -0.6621   -0.0090 C   0  0  0  0  0  0  0  0  0  0  0  0
   -4.9730    3.3087    4.8457 C   0  0  0  0  0  0  0  0  0  0  0  0
   -0.2684    0.6838   -0.0282 C   0  0  0  0  0  0  0  0  0  0  0  0
   -5.0352    1.0158    3.2155 C   0  0  0  0  0  0  0  0  0  0  0  0
   -0.2051   -0.7031   -0.0205 C   0  0  0  0  0  0  0  0  0  0  0  0
   -4.4712    2.2071    2.7831 C   0  0  0  0  0  0  0  0  0  0  0  0
    3.5386   -1.3349    0.0211 C   0  0  0  0  0  0  0  0  0  0  0  0
   -4.9496    4.5074    5.7525 C   0  0  0  0  0  0  0  0  0  0  0  0
   -2.3023    0.0326   -0.0603 C   0  0  0  0  0  0  0  0  0  0  0  0
   -4.3071    0.6082    1.2410 C   0  0  0  0  0  0  0  0  0  0  0  0
   -3.7985   -0.0328   -0.0082 C   0  0  0  0  0  0  0  0  0  0  0  0
    3.6526   -2.6223   -0.0005 N   0  3  0  0  0  0  0  0  0  0  0  0
    4.7189   -0.5278    0.1178 N   0  3  0  0  0  0  0  0  0  0  0  0
   -4.4321    5.6504    5.4237 N   0  0  0  0  0  0  0  0  0  0  0  0
   -5.4659    4.4553    7.0066 N   0  0  0  0  0  0  0  0  0  0  0  0
   -1.5556    1.1248   -0.0587 N   0  0  0  0  0  0  0  0  0  0  0  0
   -4.9299    0.0385    2.2566 N   0  0  0  0  0  0  0  0  0  0  0  0
   -1.5208   -1.0978   -0.0363 N   0  0  0  0  0  0  0  0  0  0  0  0
   -4.0434    1.9335    1.5150 N   0  0  0  0  0  0  0  0  0  0  0  0
   -4.3158    0.6355   -1.1363 O   0  0  0  0  0  0  0  0  0  0  0  0
   -4.1750   -1.3952   -0.0646 O   0  0  0  0  0  0  0  0  0  0  0  0
    3.0122    1.3908   -0.0375 H   0  0  0  0  0  0  0  0  0  0  0  0
   -6.0139    2.0359    6.2738 H   0  0  0  0  0  0  0  0  0  0  0  0
    0.8654    2.5125   -0.0128 H   0  0  0  0  0  0  0  0  0  0  0  0
   -6.0348    0.0374    4.8596 H   0  0  0  0  0  0  0  0  0  0  0  0
    0.9393   -2.5007    0.0137 H   0  0  0  0  0  0  0  0  0  0  0  0
   -3.9413    4.2596    3.1598 H   0  0  0  0  0  0  0  0  0  0  0  0
    4.5298   -3.1424    0.0235 H   0  0  0  0  0  0  0  0  0  0  0  0
    2.8426   -3.2474   -0.0256 H   0  0  0  0  0  0  0  0  0  0  0  0
    4.6595    0.0248    0.9925 H   0  0  0  0  0  0  0  0  0  0  0  0
    4.7176    0.2237   -0.5948 H   0  0  0  0  0  0  0  0  0  0  0  0
    5.6361   -0.9882    0.0973 H   0  0  0  0  0  0  0  0  0  0  0  0
   -4.0477    5.6674    4.4833 H   0  0  0  0  0  0  0  0  0  0  0  0
   -5.9974    3.6881    7.3838 H   0  0  0  0  0  0  0  0  0  0  0  0
   -5.4895    5.3273    7.5219 H   0  0  0  0  0  0  0  0  0  0  0  0
   -1.9052   -2.0369   -0.0292 H   0  0  0  0  0  0  0  0  0  0  0  0
   -3.5388    2.5689    0.9116 H   0  0  0  0  0  0  0  0  0  0  0  0
   -3.8709    1.4963   -1.1847 H   0  0  0  0  0  0  0  0  0  0  0  0
   -5.1328   -1.3643    0.1246 H   0  0  0  0  0  0  0  0  0  0  0  0
  1 28  1  0  0  0  0
  2 29  1  0  0  0  0
  3  1  2  0  0  0  0
  3 30  1  0  0  0  0
  4  2  2  0  0  0  0
  4 31  1  0  0  0  0
  5 32  1  0  0  0  0
  6 33  1  0  0  0  0
  7  1  1  0  0  0  0
  7  5  2  0  0  0  0
  8  2  1  0  0  0  0
  8  6  2  0  0  0  0
  9  3  1  0  0  0  0
 10  4  1  0  0  0  0
 11  5  1  0  0  0  0
 11  9  2  0  0  0  0
 12  6  1  0  0  0  0
 12 10  2  0  0  0  0
 13  7  1  0  0  0  0
 14  8  1  0  0  0  0
 17 15  1  0  0  0  0
 17 16  1  0  0  0  0
 18 13  2  0  0  0  0
 18 34  1  0  0  0  0
 18 35  1  0  0  0  0
 19 13  1  0  0  0  0
 19 36  1  0  0  0  0
 19 37  1  0  0  0  0
 19 38  1  0  0  0  0
 20 14  2  0  0  0  0
 20 39  1  0  0  0  0
 21 14  1  0  0  0  0
 21 40  1  0  0  0  0
 21 41  1  0  0  0  0
 22  9  1  0  0  0  0
 22 15  2  0  0  0  0
 23 10  1  0  0  0  0
 23 16  2  0  0  0  0
 24 11  1  0  0  0  0
 24 15  1  0  0  0  0
 24 42  1  0  0  0  0
 25 12  1  0  0  0  0
 25 16  1  0  0  0  0
 25 43  1  0  0  0  0
 26 17  1  0  0  0  0
 26 44  1  0  0  0  0
 27 17  1  0  0  0  0
 27 45  1  0  0  0  0
M  CHG  2  18   1  19   1
M  END
>  <DRUGBANK_ID>
DB04301

>  <SECONDARY_ACCESSION_NUMBERS>
EXPT00621

>  <COMMON_NAME>
Bis(5-Amidino-2-Benzimidazolyl)Methane Ketone Hydrate

$$$$
