Q74
 OpenBabel10282417173D

 36 39  0  0  0  0  0  0  0  0999 V2000
    0.8935    0.0240    0.0534 F   0  0  0  0  0  0  0  0  0  0  0  0
    2.2319    0.0955    0.0600 C   0  0  0  0  0  0  0  0  0  0  0  0
    2.9954   -1.0767    0.0485 C   0  0  0  0  0  0  0  0  0  0  0  0
    2.3746   -2.2678    0.0389 F   0  0  0  0  0  0  0  0  0  0  0  0
    2.8264    1.3480    0.0626 C   0  0  0  0  0  0  0  0  0  0  0  0
    4.2061    1.4477    0.0712 C   0  0  0  0  0  0  0  0  0  0  0  0
    4.7961    2.6491    0.0749 F   0  0  0  0  0  0  0  0  0  0  0  0
    4.9774    0.2910    0.0573 C   0  0  0  0  0  0  0  0  0  0  0  0
    4.4075   -0.9815    0.0287 C   0  0  0  0  0  0  0  0  0  0  0  0
    5.3469   -2.0020   -0.0415 N   0  0  0  0  0  0  0  0  0  0  0  0
    6.6804    0.1942    0.0638 S   0  0  0  0  0  0  0  0  0  0  0  0
    6.5713   -1.5063    0.0083 C   0  0  0  0  0  0  0  0  0  0  0  0
    7.8541   -2.2833    0.0433 C   0  0  0  0  0  0  0  0  0  0  0  0
    7.9510   -3.0994    1.2824 C   0  0  0  0  0  0  0  0  0  0  0  0
    7.0755   -4.1657    1.6242 C   0  0  0  0  0  0  0  0  0  0  0  0
    5.9741   -4.7611    0.9910 C   0  0  0  0  0  0  0  0  0  0  0  0
    8.8421   -2.9509    2.3274 C   0  0  0  0  0  0  0  0  0  0  0  0
    8.5145   -3.8712    3.2939 N   0  0  0  0  0  0  0  0  0  0  0  0
    9.2129   -4.0178    4.5546 C   0  0  0  0  0  0  0  0  0  0  0  0
    8.3311   -3.7107    5.7350 C   0  0  0  0  0  0  0  0  0  0  0  0
    8.2479   -4.6979    6.6565 O   0  0  0  0  0  0  0  0  0  0  0  0
    7.7848   -2.6231    5.9110 O   0  0  0  0  0  0  0  0  0  0  0  0
    7.4445   -4.6297    2.8809 C   0  0  0  0  0  0  0  0  0  0  0  0
    6.8514   -5.6279    3.5708 N   0  0  0  0  0  0  0  0  0  0  0  0
    5.7740   -6.1458    2.9126 C   0  0  0  0  0  0  0  0  0  0  0  0
    5.3018   -5.7643    1.6646 C   0  0  0  0  0  0  0  0  0  0  0  0
    2.2305    2.2517    0.0567 H   0  0  0  0  0  0  0  0  0  0  0  0
    7.9240   -2.9224   -0.8430 H   0  0  0  0  0  0  0  0  0  0  0  0
    8.7111   -1.5990    0.0050 H   0  0  0  0  0  0  0  0  0  0  0  0
    5.6300   -4.4208    0.0193 H   0  0  0  0  0  0  0  0  0  0  0  0
    9.6505   -2.2435    2.4701 H   0  0  0  0  0  0  0  0  0  0  0  0
    9.6352   -5.0261    4.5913 H   0  0  0  0  0  0  0  0  0  0  0  0
   10.0524   -3.3111    4.5748 H   0  0  0  0  0  0  0  0  0  0  0  0
    8.6389   -5.5511    6.3862 H   0  0  0  0  0  0  0  0  0  0  0  0
    5.2519   -6.9370    3.4450 H   0  0  0  0  0  0  0  0  0  0  0  0
    4.4273   -6.2213    1.2150 H   0  0  0  0  0  0  0  0  0  0  0  0
  1  2  1  0  0  0  0
  2  3  2  0  0  0  0
  2  5  1  0  0  0  0
  3  4  1  0  0  0  0
  3  9  1  0  0  0  0
  5  6  2  0  0  0  0
  5 27  1  0  0  0  0
  6  7  1  0  0  0  0
  6  8  1  0  0  0  0
  8  9  2  0  0  0  0
  8 11  1  0  0  0  0
  9 10  1  0  0  0  0
 10 12  2  0  0  0  0
 11 12  1  0  0  0  0
 12 13  1  0  0  0  0
 13 14  1  0  0  0  0
 13 28  1  0  0  0  0
 13 29  1  0  0  0  0
 14 15  1  0  0  0  0
 14 17  2  0  0  0  0
 15 16  2  0  0  0  0
 15 23  1  0  0  0  0
 16 26  1  0  0  0  0
 16 30  1  0  0  0  0
 17 18  1  0  0  0  0
 17 31  1  0  0  0  0
 18 19  1  0  0  0  0
 18 23  1  0  0  0  0
 19 20  1  0  0  0  0
 19 32  1  0  0  0  0
 19 33  1  0  0  0  0
 20 21  1  0  0  0  0
 20 22  2  0  0  0  0
 21 34  1  0  0  0  0
 23 24  2  0  0  0  0
 24 25  1  0  0  0  0
 25 26  2  0  0  0  0
 25 35  1  0  0  0  0
 26 36  1  0  0  0  0
M  END
>  <DRUGBANK_ID>
DB08449

>  <COMMON_NAME>
2-(3-((4,5,7-trifluorobenzo[d]thiazol-2-yl)methyl)-1H-pyrrolo[2,3-b]pyridin-1-yl)acetic acid

$$$$
