
 OpenBabel10282417123D

 17 16  0  0  1  0  0  0  0  0999 V2000
    3.3372    2.8886    1.4545 C   0  0  0  0  0  0  0  0  0  0  0  0
    2.9533    1.5441    2.6368 S   0  0  0  0  0  0  0  0  0  0  0  0
    1.1269    1.3634    2.4564 C   0  0  0  0  0  0  0  0  0  0  0  0
    0.3245    2.6520    2.1874 C   0  0  2  0  0  0  0  0  0  0  0  0
    0.3525    2.9615    0.7327 N   0  0  0  0  0  0  0  0  0  0  0  0
    0.7255    3.8165    3.1595 C   0  0  0  0  0  0  0  0  0  0  0  0
   -0.3046    4.4063    3.7986 O   0  0  0  0  0  0  0  0  0  0  0  0
    1.8597    4.2365    3.3955 O   0  0  0  0  0  0  0  0  0  0  0  0
    4.3068    3.3309    1.6846 H   0  0  0  0  0  0  0  0  0  0  0  0
    2.6576    3.7438    1.4386 H   0  0  0  0  0  0  0  0  0  0  0  0
    3.3463    2.4646    0.4512 H   0  0  0  0  0  0  0  0  0  0  0  0
    0.9612    0.6262    1.6576 H   0  0  0  0  0  0  0  0  0  0  0  0
    0.7348    0.8775    3.3625 H   0  0  0  0  0  0  0  0  0  0  0  0
   -0.7326    2.4353    2.3751 H   0  0  0  0  0  0  0  0  0  0  0  0
    1.2927    2.9263    0.3470 H   0  0  0  0  0  0  0  0  0  0  0  0
   -0.0369    3.8673    0.4988 H   0  0  0  0  0  0  0  0  0  0  0  0
   -1.1882    4.0656    3.5853 H   0  0  0  0  0  0  0  0  0  0  0  0
  1  2  1  0  0  0  0
  1  9  1  0  0  0  0
  1 10  1  0  0  0  0
  1 11  1  0  0  0  0
  2  3  1  0  0  0  0
  3 12  1  0  0  0  0
  3 13  1  0  0  0  0
  4  6  1  0  0  0  0
  4 14  1  1  0  0  0
  4  5  1  0  0  0  0
  4  3  1  0  0  0  0
  5 15  1  0  0  0  0
  5 16  1  0  0  0  0
  6  7  1  0  0  0  0
  6  8  2  0  0  0  0
  7 17  1  0  0  0  0
M  END
>  <DRUGBANK_ID>
DB02216

>  <SECONDARY_ACCESSION_NUMBERS>
EXPT01076; EXPT02919

>  <COMMON_NAME>
S-Methylcysteine

>  <CAS_NUMBER>
1187-84-4

>  <UNII>
A34I1H07YM

$$$$
