I0G
 OpenBabel10282417173D

 39 42  0  0  0  0  0  0  0  0999 V2000
    0.9934    0.5975    0.8647 C   0  0  1  0  0  0  0  0  0  0  0  0
   -0.4383    0.3759    0.4619 C   0  0  0  0  0  0  0  0  0  0  0  0
   -1.3501    1.4415    0.5236 C   0  0  0  0  0  0  0  0  0  0  0  0
   -2.6506    1.2818    0.0693 C   0  0  0  0  0  0  0  0  0  0  0  0
   -3.0754    0.0608   -0.4360 C   0  0  0  0  0  0  0  0  0  0  0  0
    3.2636   -3.2817    1.0564 C   0  0  0  0  0  0  0  0  0  0  0  0
    2.6112   -5.0058   -1.0385 C   0  0  0  0  0  0  0  0  0  0  0  0
    1.7183   -4.0040   -0.6474 C   0  0  0  0  0  0  0  0  0  0  0  0
    2.3651    1.1724   -1.0910 C   0  0  0  0  0  0  0  0  0  0  0  0
    2.2777   -0.3397   -0.9544 C   0  0  0  0  0  0  0  0  0  0  0  0
    1.8795   -0.5958    0.5058 C   0  0  2  0  0  0  0  0  0  0  0  0
   -3.4692    2.3693    0.1287 O   0  0  0  0  0  0  0  0  0  0  0  0
   -2.1830   -1.0156   -0.4674 C   0  0  0  0  0  0  0  0  0  0  0  0
   -0.8771   -0.8678    0.0066 C   0  0  0  0  0  0  0  0  0  0  0  0
   -0.0775   -1.9765   -0.0587 O   0  0  0  0  0  0  0  0  0  0  0  0
    1.1320   -1.9216    0.7252 C   0  0  1  0  0  0  0  0  0  0  0  0
    2.0383   -3.1074    0.3828 C   0  0  0  0  0  0  0  0  0  0  0  0
    4.1901   -4.2285    0.6109 C   0  0  0  0  0  0  0  0  0  0  0  0
    3.8643   -5.0713   -0.4388 C   0  0  0  0  0  0  0  0  0  0  0  0
    4.8103   -5.9535   -0.8711 O   0  0  0  0  0  0  0  0  0  0  0  0
    1.6386    1.7688    0.1109 C   0  0  0  0  0  0  0  0  0  0  0  0
    1.0105    0.7711    1.9484 H   0  0  0  0  0  0  0  0  0  0  0  0
    2.7880   -0.5492    1.1224 H   0  0  0  0  0  0  0  0  0  0  0  0
    0.8389   -2.0290    1.7789 H   0  0  0  0  0  0  0  0  0  0  0  0
   -1.0420    2.4136    0.9007 H   0  0  0  0  0  0  0  0  0  0  0  0
   -4.0869   -0.0747   -0.8034 H   0  0  0  0  0  0  0  0  0  0  0  0
    3.5264   -2.6554    1.9045 H   0  0  0  0  0  0  0  0  0  0  0  0
    2.3195   -5.6991   -1.8181 H   0  0  0  0  0  0  0  0  0  0  0  0
    0.7736   -3.9148   -1.1814 H   0  0  0  0  0  0  0  0  0  0  0  0
    3.4068    1.5080   -1.1028 H   0  0  0  0  0  0  0  0  0  0  0  0
    1.9040    1.4963   -2.0305 H   0  0  0  0  0  0  0  0  0  0  0  0
    1.5305   -0.7281   -1.6560 H   0  0  0  0  0  0  0  0  0  0  0  0
    3.2296   -0.8183   -1.2075 H   0  0  0  0  0  0  0  0  0  0  0  0
   -4.3437    2.1222   -0.2116 H   0  0  0  0  0  0  0  0  0  0  0  0
   -2.5049   -1.9743   -0.8646 H   0  0  0  0  0  0  0  0  0  0  0  0
    5.1727   -4.2934    1.0732 H   0  0  0  0  0  0  0  0  0  0  0  0
    4.4743   -6.4001   -1.6643 H   0  0  0  0  0  0  0  0  0  0  0  0
    2.3604    2.2750    0.7616 H   0  0  0  0  0  0  0  0  0  0  0  0
    0.9294    2.5329   -0.2228 H   0  0  0  0  0  0  0  0  0  0  0  0
  1 21  1  0  0  0  0
  1  2  1  0  0  0  0
  1 11  1  0  0  0  0
  1 22  1  1  0  0  0
  2  3  1  0  0  0  0
  2 14  2  0  0  0  0
  3  4  2  0  0  0  0
  3 25  1  0  0  0  0
  4 12  1  0  0  0  0
  4  5  1  0  0  0  0
  5 13  2  0  0  0  0
  5 26  1  0  0  0  0
  6 17  1  0  0  0  0
  6 18  2  0  0  0  0
  6 27  1  0  0  0  0
  7  8  1  0  0  0  0
  7 19  2  0  0  0  0
  7 28  1  0  0  0  0
  8 17  2  0  0  0  0
  8 29  1  0  0  0  0
  9 21  1  0  0  0  0
  9 10  1  0  0  0  0
  9 30  1  0  0  0  0
  9 31  1  0  0  0  0
 10 11  1  0  0  0  0
 10 32  1  0  0  0  0
 10 33  1  0  0  0  0
 11 16  1  0  0  0  0
 11 23  1  1  0  0  0
 12 34  1  0  0  0  0
 13 14  1  0  0  0  0
 13 35  1  0  0  0  0
 14 15  1  0  0  0  0
 15 16  1  0  0  0  0
 16 17  1  0  0  0  0
 16 24  1  1  0  0  0
 18 19  1  0  0  0  0
 18 36  1  0  0  0  0
 19 20  1  0  0  0  0
 20 37  1  0  0  0  0
 21 38  1  0  0  0  0
 21 39  1  0  0  0  0
M  END
>  <DRUGBANK_ID>
DB07933

>  <SECONDARY_ACCESSION_NUMBERS>
DB12801

>  <COMMON_NAME>
Erteberel

>  <CAS_NUMBER>
533884-09-2

>  <UNII>
2ZUL6758TZ

>  <SYNONYMS>
(3aS,4R,9bR)-4-(4-Hydroxyphenyl)-1,2,3,3a,4,9b-hexahydrocyclopenta(c)(1) benzopyran-8-ol; Erteberel

$$$$
