
 OpenBabel10282417123D

 37 39  0  0  1  0  0  0  0  0999 V2000
   -1.4536   -0.2741    2.0933 C   0  0  0  0  0  0  0  0  0  0  0  0
   -0.4451    0.0748   -0.0263 C   0  0  0  0  0  0  0  0  0  0  0  0
   -0.8830   -5.4003    2.6205 C   0  0  0  0  0  0  0  0  0  0  0  0
   -0.9884   -2.9124    3.2527 C   0  0  0  0  0  0  0  0  0  0  0  0
    0.5687   -5.2570    2.9600 C   0  0  2  0  0  0  0  0  0  0  0  0
    1.4000   -3.3040    3.0367 C   0  0  2  0  0  0  0  0  0  0  0  0
    0.8153   -2.6874    1.7919 C   0  0  1  0  0  0  0  0  0  0  0  0
   -0.5024   -0.9609    1.0984 C   0  0  0  0  0  0  0  0  0  0  0  0
   -0.6381   -3.1567    1.7774 C   0  0  2  0  0  0  0  0  0  0  0  0
   -0.1700   -5.0607    4.9746 N   0  0  0  0  0  0  0  0  0  0  0  0
    2.5363   -5.1827    2.8958 O   0  0  0  0  0  0  0  0  0  0  0  0
    3.1183   -4.1521    4.9887 O   0  0  0  0  0  0  0  0  0  0  0  0
    0.9066   -5.8816    7.1429 O   0  0  0  0  0  0  0  0  0  0  0  0
    1.0645   -3.8306    7.1794 O   0  0  0  0  0  0  0  0  0  0  0  0
   -0.9963   -4.5565    1.4659 O   0  0  0  0  0  0  0  0  0  0  0  0
    0.1050   -3.5022    4.1618 O   0  0  0  0  0  0  0  0  0  0  0  0
    0.8203   -1.2691    1.6022 O   0  0  0  0  0  0  0  0  0  0  0  0
    1.1018   -6.2274    4.6131 O   0  0  0  0  0  0  0  0  0  0  0  0
    1.4599   -3.0691    5.0310 O   0  0  0  0  0  0  0  0  0  0  0  0
   -1.1424   -2.2279    0.7925 O   0  0  0  0  0  0  0  0  0  0  0  0
    1.9966   -4.6404    4.1481 S   0  0  0  0  0  0  0  0  0  0  0  0
    1.5591   -4.8772    6.3079 S   0  0  0  0  0  0  0  0  0  0  0  0
    1.0222   -6.0253    2.1839 H   0  0  0  0  0  0  0  0  0  0  0  0
    2.5379   -3.0929    2.9210 H   0  0  0  0  0  0  0  0  0  0  0  0
    1.6170   -3.1228    1.1508 H   0  0  0  0  0  0  0  0  0  0  0  0
   -1.6953    0.7668    1.8848 H   0  0  0  0  0  0  0  0  0  0  0  0
   -1.0466   -0.1935    3.0976 H   0  0  0  0  0  0  0  0  0  0  0  0
   -2.4222   -0.7977    2.0380 H   0  0  0  0  0  0  0  0  0  0  0  0
    0.4775    0.6615    0.0290 H   0  0  0  0  0  0  0  0  0  0  0  0
   -0.6016   -0.3525   -1.0108 H   0  0  0  0  0  0  0  0  0  0  0  0
   -1.2473    0.8254    0.0745 H   0  0  0  0  0  0  0  0  0  0  0  0
   -1.1302   -6.4769    2.7637 H   0  0  0  0  0  0  0  0  0  0  0  0
   -1.6072   -5.0336    3.3130 H   0  0  0  0  0  0  0  0  0  0  0  0
   -1.3413   -1.9013    3.4881 H   0  0  0  0  0  0  0  0  0  0  0  0
   -1.8169   -3.3764    3.7897 H   0  0  0  0  0  0  0  0  0  0  0  0
   -0.1455   -6.1217    5.1310 H   0  0  0  0  0  0  0  0  0  0  0  0
   -0.5078   -4.6226    5.8619 H   0  0  0  0  0  0  0  0  0  0  0  0
  1 26  1  0  0  0  0
  1 27  1  0  0  0  0
  1 28  1  0  0  0  0
  2 29  1  0  0  0  0
  2 30  1  0  0  0  0
  2 31  1  0  0  0  0
  3 32  1  0  0  0  0
  3 33  1  0  0  0  0
  4 34  1  0  0  0  0
  4 35  1  0  0  0  0
  5  3  1  0  0  0  0
  5 23  1  1  0  0  0
  6  5  1  0  0  0  0
  6 24  1  1  0  0  0
  7  6  1  0  0  0  0
  7 25  1  6  0  0  0
  8  1  1  0  0  0  0
  8  2  1  0  0  0  0
  9  7  1  0  0  0  0
  9  4  1  6  0  0  0
 10 36  1  0  0  0  0
 10 37  1  0  0  0  0
 15  3  1  0  0  0  0
 15  9  1  0  0  0  0
 16  4  1  0  0  0  0
 17  7  1  0  0  0  0
 17  8  1  0  0  0  0
 18  5  1  0  0  0  0
 19  6  1  0  0  0  0
 20  8  1  0  0  0  0
 20  9  1  0  0  0  0
 21 10  1  0  0  0  0
 21 11  2  0  0  0  0
 21 12  2  0  0  0  0
 21 16  1  0  0  0  0
 22 18  1  0  0  0  0
 22 19  1  0  0  0  0
 22 13  2  0  0  0  0
 22 14  2  0  0  0  0
M  END
>  <DRUGBANK_ID>
DB02894

>  <SECONDARY_ACCESSION_NUMBERS>
EXPT02924

>  <COMMON_NAME>
Sulfamic Acid 2,3-O-(1-Methylethylidene)-4,5-O-Sulfonyl-Beta-Fructopyranose Ester

$$$$
