BVL
 OpenBabel10282417163D

 47 48  0  0  0  0  0  0  0  0999 V2000
   -1.0914    1.2669   -0.0195 C   0  0  0  0  0  0  0  0  0  0  0  0
    0.9321   -0.0283    0.0180 C   0  0  0  0  0  0  0  0  0  0  0  0
    0.1977   -1.2091    0.0128 C   0  0  0  0  0  0  0  0  0  0  0  0
   -1.2001   -1.1434   -0.0251 C   0  0  0  0  0  0  0  0  0  0  0  0
   -6.1509    2.3674   -0.1703 O   0  0  0  0  0  0  0  0  0  0  0  0
   -5.5729    1.2977   -0.1192 C   0  0  0  0  0  0  0  0  0  0  0  0
   -4.0791    1.2530   -0.1164 C   0  0  0  0  0  0  0  0  0  0  0  0
   -3.3196    0.1457   -0.1857 C   0  0  0  0  0  0  0  0  0  0  0  0
   -1.8566    0.1000   -0.0703 C   0  0  0  0  0  0  0  0  0  0  0  0
    0.2963    1.2033    0.0187 C   0  0  0  0  0  0  0  0  0  0  0  0
    2.2938   -0.0159    0.0181 O   0  0  0  0  0  0  0  0  0  0  0  0
   -6.3361    0.0362   -0.0486 C   0  0  0  0  0  0  0  0  0  0  0  0
   -6.0106   -0.9630    0.8637 C   0  0  0  0  0  0  0  0  0  0  0  0
   -5.0718   -0.9232    1.8524 O   0  0  0  0  0  0  0  0  0  0  0  0
   -6.6688   -2.1570    0.8031 C   0  0  0  0  0  0  0  0  0  0  0  0
   -7.7273   -2.3569   -0.0775 C   0  0  0  0  0  0  0  0  0  0  0  0
   -8.1982   -3.6011    0.2595 O   0  0  0  0  0  0  0  0  0  0  0  0
   -9.2278   -4.0035   -0.5545 C   0  0  0  0  0  0  0  0  0  0  0  0
   -8.1362   -1.3587   -1.0157 C   0  0  0  0  0  0  0  0  0  0  0  0
   -7.4037   -0.1452   -0.9602 C   0  0  0  0  0  0  0  0  0  0  0  0
   -9.3248   -1.3881   -2.0210 C   0  0  0  0  0  0  0  0  0  0  0  0
   -9.3064   -2.4997   -3.0594 C   0  0  0  0  0  0  0  0  0  0  0  0
  -10.1937   -3.5241   -3.1969 C   0  0  0  0  0  0  0  0  0  0  0  0
  -11.4990   -3.6943   -2.4267 C   0  0  0  0  0  0  0  0  0  0  0  0
   -9.7724   -4.7587   -3.9743 C   0  0  0  0  0  0  0  0  0  0  0  0
   -1.5501    2.2491   -0.0232 H   0  0  0  0  0  0  0  0  0  0  0  0
    0.6857   -2.1789    0.0289 H   0  0  0  0  0  0  0  0  0  0  0  0
   -1.7670   -2.0745   -0.0258 H   0  0  0  0  0  0  0  0  0  0  0  0
   -3.6549    2.2472   -0.0320 H   0  0  0  0  0  0  0  0  0  0  0  0
   -3.7691   -0.8390   -0.2961 H   0  0  0  0  0  0  0  0  0  0  0  0
    0.8740    2.1212    0.0344 H   0  0  0  0  0  0  0  0  0  0  0  0
    2.6195   -0.9286   -0.0203 H   0  0  0  0  0  0  0  0  0  0  0  0
   -4.6465   -0.0549    1.9015 H   0  0  0  0  0  0  0  0  0  0  0  0
   -6.3847   -2.9643    1.4764 H   0  0  0  0  0  0  0  0  0  0  0  0
   -9.9932   -3.2391   -0.4306 H   0  0  0  0  0  0  0  0  0  0  0  0
   -8.7663   -4.1300   -1.5254 H   0  0  0  0  0  0  0  0  0  0  0  0
   -9.6630   -4.9702   -0.3110 H   0  0  0  0  0  0  0  0  0  0  0  0
   -7.6633    0.6839   -1.6228 H   0  0  0  0  0  0  0  0  0  0  0  0
  -10.2615   -1.3856   -1.4545 H   0  0  0  0  0  0  0  0  0  0  0  0
   -9.3487   -0.4446   -2.5890 H   0  0  0  0  0  0  0  0  0  0  0  0
   -8.3834   -2.5323   -3.6432 H   0  0  0  0  0  0  0  0  0  0  0  0
  -11.4144   -3.8324   -1.3501 H   0  0  0  0  0  0  0  0  0  0  0  0
  -12.1509   -2.8317   -2.5543 H   0  0  0  0  0  0  0  0  0  0  0  0
  -12.0083   -4.6165   -2.7211 H   0  0  0  0  0  0  0  0  0  0  0  0
   -9.6298   -5.6027   -3.2832 H   0  0  0  0  0  0  0  0  0  0  0  0
  -10.5326   -5.0422   -4.7040 H   0  0  0  0  0  0  0  0  0  0  0  0
   -8.8186   -4.6258   -4.4967 H   0  0  0  0  0  0  0  0  0  0  0  0
  1  9  1  0  0  0  0
  1 26  1  0  0  0  0
  2  3  2  0  0  0  0
  3  4  1  0  0  0  0
  3 27  1  0  0  0  0
  4 28  1  0  0  0  0
  6  7  1  0  0  0  0
  6  5  2  0  0  0  0
  7 29  1  0  0  0  0
  8  7  2  0  0  0  0
  8 30  1  0  0  0  0
  9  8  1  0  0  0  0
  9  4  2  0  0  0  0
 10  1  2  0  0  0  0
 10  2  1  0  0  0  0
 10 31  1  0  0  0  0
 11  2  1  0  0  0  0
 11 32  1  0  0  0  0
 12 20  1  0  0  0  0
 12  6  1  0  0  0  0
 13 12  2  0  0  0  0
 14 13  1  0  0  0  0
 14 33  1  0  0  0  0
 15 16  2  0  0  0  0
 15 13  1  0  0  0  0
 15 34  1  0  0  0  0
 16 19  1  0  0  0  0
 17 16  1  0  0  0  0
 18 17  1  0  0  0  0
 18 35  1  0  0  0  0
 18 36  1  0  0  0  0
 18 37  1  0  0  0  0
 19 21  1  0  0  0  0
 19 20  2  0  0  0  0
 20 38  1  0  0  0  0
 21 22  1  0  0  0  0
 21 39  1  0  0  0  0
 21 40  1  0  0  0  0
 22 23  2  0  0  0  0
 22 41  1  0  0  0  0
 23 25  1  0  0  0  0
 24 23  1  0  0  0  0
 24 42  1  0  0  0  0
 24 43  1  0  0  0  0
 24 44  1  0  0  0  0
 25 45  1  0  0  0  0
 25 46  1  0  0  0  0
 25 47  1  0  0  0  0
M  END
>  <DRUGBANK_ID>
DB07500

>  <COMMON_NAME>
(2E)-1-[2-hydroxy-4-methoxy-5-(3-methylbut-2-en-1-yl)phenyl]-3-(4-hydroxyphenyl)prop-2-en-1-one

$$$$
