
 OpenBabel10282417193D

 43 44  0  0  0  0  0  0  0  0999 V2000
   -4.0940    2.4167   -2.4844 N   0  0  0  0  0  0  0  0  0  0  0  0
   -3.5151    1.2416   -2.9985 O   0  0  0  0  0  0  0  0  0  0  0  0
   -4.4593    2.3890   -1.1874 C   0  0  0  0  0  0  0  0  0  0  0  0
   -5.2511    3.2224   -0.7046 O   0  0  0  0  0  0  0  0  0  0  0  0
   -4.0021    1.2267   -0.4094 C   0  0  0  0  0  0  0  0  0  0  0  0
   -2.7345    0.6405   -0.2294 C   0  0  0  0  0  0  0  0  0  0  0  0
   -2.5107   -0.4939    0.6456 C   0  0  0  0  0  0  0  0  0  0  0  0
   -3.5625   -1.0346    1.3449 C   0  0  0  0  0  0  0  0  0  0  0  0
   -3.5398   -2.0155    2.3909 N   0  0  0  0  0  0  0  0  0  0  0  0
   -4.5461   -2.3303    3.3338 C   0  0  0  0  0  0  0  0  0  0  0  0
   -4.4198   -3.3393    4.0406 O   0  0  0  0  0  0  0  0  0  0  0  0
   -5.7049   -1.2971    3.6488 C   0  0  2  0  0  0  0  0  0  0  0  0
   -6.8913   -1.3519    2.5245 C   0  0  0  0  0  0  0  0  0  0  0  0
   -7.1617   -2.5359    1.8173 C   0  0  0  0  0  0  0  0  0  0  0  0
   -7.8223   -2.5049    0.5595 C   0  0  0  0  0  0  0  0  0  0  0  0
   -8.1638   -1.3080   -0.0679 C   0  0  0  0  0  0  0  0  0  0  0  0
   -8.0212   -0.1434    0.6441 C   0  0  0  0  0  0  0  0  0  0  0  0
   -7.4690   -0.1827    1.9417 C   0  0  0  0  0  0  0  0  0  0  0  0
   -4.8123    0.0356    4.0325 C   0  0  0  0  0  0  0  0  0  0  0  0
   -5.5310    1.3674    4.1169 C   0  0  0  0  0  0  0  0  0  0  0  0
   -3.9263   -0.1530    5.2693 C   0  0  0  0  0  0  0  0  0  0  0  0
   -4.7128   -0.3463    1.0890 C   0  0  0  0  0  0  0  0  0  0  0  0
   -5.0256    0.6724    0.2364 C   0  0  0  0  0  0  0  0  0  0  0  0
   -4.5276    3.0931   -3.1026 H   0  0  0  0  0  0  0  0  0  0  0  0
   -3.2775    1.4864   -3.9040 H   0  0  0  0  0  0  0  0  0  0  0  0
   -1.9039    1.0951   -0.7475 H   0  0  0  0  0  0  0  0  0  0  0  0
   -1.4987   -0.8204    0.8460 H   0  0  0  0  0  0  0  0  0  0  0  0
   -2.6972   -2.5667    2.5220 H   0  0  0  0  0  0  0  0  0  0  0  0
   -6.2140   -1.5945    4.5738 H   0  0  0  0  0  0  0  0  0  0  0  0
   -6.7789   -3.4940    2.1613 H   0  0  0  0  0  0  0  0  0  0  0  0
   -8.0257   -3.4295    0.0280 H   0  0  0  0  0  0  0  0  0  0  0  0
   -8.4982   -1.2648   -1.1022 H   0  0  0  0  0  0  0  0  0  0  0  0
   -8.1580    0.8206    0.1447 H   0  0  0  0  0  0  0  0  0  0  0  0
   -7.2183    0.8080    2.2765 H   0  0  0  0  0  0  0  0  0  0  0  0
   -4.0202    0.2219    3.3023 H   0  0  0  0  0  0  0  0  0  0  0  0
   -6.2462    1.3625    4.9347 H   0  0  0  0  0  0  0  0  0  0  0  0
   -4.8021    2.1773    4.2274 H   0  0  0  0  0  0  0  0  0  0  0  0
   -6.0295    1.6642    3.2053 H   0  0  0  0  0  0  0  0  0  0  0  0
   -3.2717   -1.0269    5.1816 H   0  0  0  0  0  0  0  0  0  0  0  0
   -3.2516    0.7101    5.3640 H   0  0  0  0  0  0  0  0  0  0  0  0
   -4.5331   -0.2336    6.1678 H   0  0  0  0  0  0  0  0  0  0  0  0
   -5.3320   -0.2101    1.9104 H   0  0  0  0  0  0  0  0  0  0  0  0
   -5.9845    1.1708    0.2785 H   0  0  0  0  0  0  0  0  0  0  0  0
  1 24  1  0  0  0  0
  2  1  1  0  0  0  0
  2 25  1  0  0  0  0
  3  1  1  0  0  0  0
  3  4  2  0  0  0  0
  5  3  1  0  0  0  0
  5  6  1  0  0  0  0
  5 23  2  0  0  0  0
  6 26  1  0  0  0  0
  7  6  2  0  0  0  0
  7 27  1  0  0  0  0
  8  7  1  0  0  0  0
  9  8  1  0  0  0  0
  9 28  1  0  0  0  0
 10  9  1  0  0  0  0
 10 11  2  0  0  0  0
 12 19  1  0  0  0  0
 12 29  1  1  0  0  0
 12 13  1  0  0  0  0
 12 10  1  0  0  0  0
 13 14  1  0  0  0  0
 13 18  2  0  0  0  0
 14 30  1  0  0  0  0
 15 14  2  0  0  0  0
 15 31  1  0  0  0  0
 16 15  1  0  0  0  0
 16 32  1  0  0  0  0
 17 16  2  0  0  0  0
 17 33  1  0  0  0  0
 18 17  1  0  0  0  0
 18 34  1  0  0  0  0
 19 21  1  0  0  0  0
 19 35  1  0  0  0  0
 20 19  1  0  0  0  0
 20 36  1  0  0  0  0
 20 37  1  0  0  0  0
 20 38  1  0  0  0  0
 21 39  1  0  0  0  0
 21 40  1  0  0  0  0
 21 41  1  0  0  0  0
 22  8  2  0  0  0  0
 22 42  1  0  0  0  0
 23 22  1  0  0  0  0
 23 43  1  0  0  0  0
M  END
>  <DRUGBANK_ID>
DB12707

>  <COMMON_NAME>
AR-42

>  <CAS_NUMBER>
935881-37-1

>  <UNII>
E0GG29V0AQ

>  <SYNONYMS>
(S)-(+)-N-HYDROXY-4-(3-METHYL-2-PHENYL-BUTYRYLAMINO)-BENZAMIDE; (αS)-N-[4-[(Hydroxyamino)carbonyl]phenyl]-α-(1-methylethyl)benzeneacetamide; BENZENEACETAMIDE, N-(4-((HYDROXYAMINO)CARBONYL)PHENYL)-.ALPHA.-(1-METHYLETHYL)-, (.ALPHA.S)-; N-Hydroxy-4-(3-methyl-2-(S)phenyl-butyrylamino)benzamide; N-hydroxy-4-[[(2S)-3-methyl-2-phenylbutanoyl]amino]benzamide

$$$$
