
 OpenBabel10282417243D

 83 85  0  0  0  0  0  0  0  0999 V2000
    0.9047   -0.0156   -0.0045 C   0  0  0  0  0  0  0  0  0  0  0  0
    0.3953    1.4058   -0.0756 C   0  0  0  0  0  0  0  0  0  0  0  0
    0.8900    2.0320   -1.2672 O   0  0  0  0  0  0  0  0  0  0  0  0
    0.6961    3.3913   -1.3503 C   0  0  0  0  0  0  0  0  0  0  0  0
    0.1724    4.1666   -0.3174 C   0  0  0  0  0  0  0  0  0  0  0  0
    0.1000    5.5599   -0.4028 C   0  0  0  0  0  0  0  0  0  0  0  0
    0.5002    6.1524   -1.6039 C   0  0  0  0  0  0  0  0  0  0  0  0
    0.9067    5.4025   -2.7060 C   0  0  0  0  0  0  0  0  0  0  0  0
    1.1327    5.9495   -3.9414 O   0  0  0  0  0  0  0  0  0  0  0  0
    0.9118    7.3558   -4.1054 C   0  0  0  0  0  0  0  0  0  0  0  0
   -0.5620    7.7606   -4.0431 C   0  0  0  0  0  0  0  0  0  0  0  0
    1.0508    4.0201   -2.5506 C   0  0  0  0  0  0  0  0  0  0  0  0
    1.5364    3.2634   -3.5869 O   0  0  0  0  0  0  0  0  0  0  0  0
   -0.4706    6.4551    0.7264 C   0  0  0  0  0  0  0  0  0  0  0  0
    0.6140    7.5151    1.0896 C   0  0  0  0  0  0  0  0  0  0  0  0
   -1.7589    7.1442    0.1720 C   0  0  0  0  0  0  0  0  0  0  0  0
   -2.8764    6.3857   -0.2036 C   0  0  0  0  0  0  0  0  0  0  0  0
   -4.0939    6.9545   -0.5719 C   0  0  0  0  0  0  0  0  0  0  0  0
   -5.2068    6.2306   -0.9162 O   0  0  0  0  0  0  0  0  0  0  0  0
   -5.1243    4.7969   -0.8538 C   0  0  0  0  0  0  0  0  0  0  0  0
   -4.1854    4.1774   -1.8862 C   0  0  0  0  0  0  0  0  0  0  0  0
   -4.1992    8.3495   -0.5716 C   0  0  0  0  0  0  0  0  0  0  0  0
   -5.3943    8.9399   -0.8960 O   0  0  0  0  0  0  0  0  0  0  0  0
   -3.0964    9.1454   -0.2423 C   0  0  0  0  0  0  0  0  0  0  0  0
   -3.2586   10.5058   -0.1758 O   0  0  0  0  0  0  0  0  0  0  0  0
   -2.1220   11.2930    0.2058 C   0  0  0  0  0  0  0  0  0  0  0  0
   -1.7411   11.1425    1.6810 C   0  0  0  0  0  0  0  0  0  0  0  0
   -1.8826    8.5215    0.0557 C   0  0  0  0  0  0  0  0  0  0  0  0
   -0.7432    5.6393    2.0298 C   0  0  0  0  0  0  0  0  0  0  0  0
    0.2769    5.0218    2.7450 C   0  0  0  0  0  0  0  0  0  0  0  0
   -0.0008    4.0391    3.7067 C   0  0  0  0  0  0  0  0  0  0  0  0
    0.9506    3.2247    4.2659 O   0  0  0  0  0  0  0  0  0  0  0  0
    2.3175    3.4337    3.8790 C   0  0  0  0  0  0  0  0  0  0  0  0
    2.6317    2.9489    2.4674 C   0  0  0  0  0  0  0  0  0  0  0  0
   -1.3379    3.8014    4.0838 C   0  0  0  0  0  0  0  0  0  0  0  0
   -1.6211    2.8492    5.0305 O   0  0  0  0  0  0  0  0  0  0  0  0
   -2.3723    4.5047    3.4967 C   0  0  0  0  0  0  0  0  0  0  0  0
   -3.6662    4.3512    3.9233 O   0  0  0  0  0  0  0  0  0  0  0  0
   -4.6964    5.1096    3.2621 C   0  0  0  0  0  0  0  0  0  0  0  0
   -4.6276    6.6244    3.4902 C   0  0  0  0  0  0  0  0  0  0  0  0
   -2.0424    5.3650    2.4583 C   0  0  0  0  0  0  0  0  0  0  0  0
    0.5720   -0.5865   -0.8741 H   0  0  0  0  0  0  0  0  0  0  0  0
    0.5478   -0.5034    0.9081 H   0  0  0  0  0  0  0  0  0  0  0  0
    1.9996   -0.0246    0.0009 H   0  0  0  0  0  0  0  0  0  0  0  0
   -0.7008    1.4195   -0.0778 H   0  0  0  0  0  0  0  0  0  0  0  0
    0.7577    1.9081    0.8223 H   0  0  0  0  0  0  0  0  0  0  0  0
   -0.1754    3.6850    0.5847 H   0  0  0  0  0  0  0  0  0  0  0  0
    0.4273    7.2301   -1.6710 H   0  0  0  0  0  0  0  0  0  0  0  0
    1.5331    7.9269   -3.4033 H   0  0  0  0  0  0  0  0  0  0  0  0
    1.2839    7.6102   -5.1036 H   0  0  0  0  0  0  0  0  0  0  0  0
   -1.0401    7.5433   -3.0844 H   0  0  0  0  0  0  0  0  0  0  0  0
   -0.6684    8.8360   -4.2101 H   0  0  0  0  0  0  0  0  0  0  0  0
   -1.1424    7.2119   -4.7883 H   0  0  0  0  0  0  0  0  0  0  0  0
    1.5867    2.3518   -3.2457 H   0  0  0  0  0  0  0  0  0  0  0  0
    0.8560    8.1780    0.2502 H   0  0  0  0  0  0  0  0  0  0  0  0
    0.2804    8.1486    1.9208 H   0  0  0  0  0  0  0  0  0  0  0  0
    1.5677    7.0637    1.3780 H   0  0  0  0  0  0  0  0  0  0  0  0
   -2.7831    5.3121   -0.0920 H   0  0  0  0  0  0  0  0  0  0  0  0
   -4.8891    4.4621    0.1612 H   0  0  0  0  0  0  0  0  0  0  0  0
   -6.1349    4.4238   -1.0562 H   0  0  0  0  0  0  0  0  0  0  0  0
   -3.1361    4.4543   -1.7677 H   0  0  0  0  0  0  0  0  0  0  0  0
   -4.2158    3.0874   -1.8190 H   0  0  0  0  0  0  0  0  0  0  0  0
   -4.4544    4.5082   -2.8899 H   0  0  0  0  0  0  0  0  0  0  0  0
   -5.9980    8.2113   -1.1300 H   0  0  0  0  0  0  0  0  0  0  0  0
   -1.2756   11.1004   -0.4675 H   0  0  0  0  0  0  0  0  0  0  0  0
   -2.3977   12.3385    0.0362 H   0  0  0  0  0  0  0  0  0  0  0  0
   -1.4543   10.1264    1.9667 H   0  0  0  0  0  0  0  0  0  0  0  0
   -0.8904   11.7856    1.9221 H   0  0  0  0  0  0  0  0  0  0  0  0
   -2.5892   11.3919    2.3222 H   0  0  0  0  0  0  0  0  0  0  0  0
   -1.0107    9.1246    0.2441 H   0  0  0  0  0  0  0  0  0  0  0  0
    1.2965    5.2380    2.4511 H   0  0  0  0  0  0  0  0  0  0  0  0
    2.6116    4.4784    4.0364 H   0  0  0  0  0  0  0  0  0  0  0  0
    2.9227    2.8397    4.5706 H   0  0  0  0  0  0  0  0  0  0  0  0
    2.0860    3.4948    1.6967 H   0  0  0  0  0  0  0  0  0  0  0  0
    3.6924    3.0706    2.2359 H   0  0  0  0  0  0  0  0  0  0  0  0
    2.3538    1.8983    2.3565 H   0  0  0  0  0  0  0  0  0  0  0  0
   -0.7634    2.4901    5.3127 H   0  0  0  0  0  0  0  0  0  0  0  0
   -4.7254    4.8581    2.1972 H   0  0  0  0  0  0  0  0  0  0  0  0
   -5.6516    4.7563    3.6632 H   0  0  0  0  0  0  0  0  0  0  0  0
   -3.7216    7.1073    3.1131 H   0  0  0  0  0  0  0  0  0  0  0  0
   -5.4604    7.1235    2.9869 H   0  0  0  0  0  0  0  0  0  0  0  0
   -4.6404    6.8467    4.5577 H   0  0  0  0  0  0  0  0  0  0  0  0
   -2.8503    5.8386    1.9561 H   0  0  0  0  0  0  0  0  0  0  0  0
  1  2  1  0  0  0  0
  1 42  1  0  0  0  0
  1 43  1  0  0  0  0
  1 44  1  0  0  0  0
  2  3  1  0  0  0  0
  2 45  1  0  0  0  0
  2 46  1  0  0  0  0
  3  4  1  0  0  0  0
  4  5  2  0  0  0  0
  4 12  1  0  0  0  0
  5  6  1  0  0  0  0
  5 47  1  0  0  0  0
  6  7  2  0  0  0  0
  6 14  1  0  0  0  0
  7  8  1  0  0  0  0
  7 48  1  0  0  0  0
  8  9  1  0  0  0  0
  8 12  2  0  0  0  0
  9 10  1  0  0  0  0
 10 11  1  0  0  0  0
 10 49  1  0  0  0  0
 10 50  1  0  0  0  0
 11 51  1  0  0  0  0
 11 52  1  0  0  0  0
 11 53  1  0  0  0  0
 12 13  1  0  0  0  0
 13 54  1  0  0  0  0
 14 15  1  0  0  0  0
 14 16  1  0  0  0  0
 14 29  1  0  0  0  0
 15 55  1  0  0  0  0
 15 56  1  0  0  0  0
 15 57  1  0  0  0  0
 16 17  2  0  0  0  0
 16 28  1  0  0  0  0
 17 18  1  0  0  0  0
 17 58  1  0  0  0  0
 18 19  1  0  0  0  0
 18 22  2  0  0  0  0
 19 20  1  0  0  0  0
 20 21  1  0  0  0  0
 20 59  1  0  0  0  0
 20 60  1  0  0  0  0
 21 61  1  0  0  0  0
 21 62  1  0  0  0  0
 21 63  1  0  0  0  0
 22 23  1  0  0  0  0
 22 24  1  0  0  0  0
 23 64  1  0  0  0  0
 24 25  1  0  0  0  0
 24 28  2  0  0  0  0
 25 26  1  0  0  0  0
 26 27  1  0  0  0  0
 26 65  1  0  0  0  0
 26 66  1  0  0  0  0
 27 67  1  0  0  0  0
 27 68  1  0  0  0  0
 27 69  1  0  0  0  0
 28 70  1  0  0  0  0
 29 30  2  0  0  0  0
 29 41  1  0  0  0  0
 30 31  1  0  0  0  0
 30 71  1  0  0  0  0
 31 32  1  0  0  0  0
 31 35  2  0  0  0  0
 32 33  1  0  0  0  0
 33 34  1  0  0  0  0
 33 72  1  0  0  0  0
 33 73  1  0  0  0  0
 34 74  1  0  0  0  0
 34 75  1  0  0  0  0
 34 76  1  0  0  0  0
 35 36  1  0  0  0  0
 35 37  1  0  0  0  0
 36 77  1  0  0  0  0
 37 38  1  0  0  0  0
 37 41  2  0  0  0  0
 38 39  1  0  0  0  0
 39 40  1  0  0  0  0
 39 78  1  0  0  0  0
 39 79  1  0  0  0  0
 40 80  1  0  0  0  0
 40 81  1  0  0  0  0
 40 82  1  0  0  0  0
 41 83  1  0  0  0  0
M  END
>  <DRUGBANK_ID>
DB18058

>  <COMMON_NAME>
AGS-499

>  <CAS_NUMBER>
1092372-02-5

>  <UNII>
UDG33RMP94

>  <SYNONYMS>
4,4',4''-(Ethane-1,1,1- triyl)tris(2,6-diethoxyphenol); Phenol, 4,4′,4′′-ethylidynetris[2,6-diethoxy-

$$$$
