
 OpenBabel10282417123D

 27 26  0  0  1  0  0  0  0  0999 V2000
    1.4800    0.1796   -0.5557 C   0  0  0  0  0  0  0  0  0  0  0  0
   -0.4176   -1.0338    1.3525 C   0  0  0  0  0  0  0  0  0  0  0  0
    3.3591    3.0391    2.1404 C   0  0  0  0  0  0  0  0  0  0  0  0
   -0.5531    0.2541    2.1793 C   0  0  2  0  0  0  0  0  0  0  0  0
    2.7589    2.1845    1.0492 C   0  0  0  0  0  0  0  0  0  0  0  0
    0.6514    1.2571    2.2799 C   0  0  2  0  0  0  0  0  0  0  0  0
    1.2111    1.9964    1.0014 C   0  0  2  0  0  0  0  0  0  0  0  0
    0.6780   -1.8658    1.7474 O   0  0  0  0  0  0  0  0  0  0  0  0
    4.1628    2.2368    2.9939 O   0  0  0  0  0  0  0  0  0  0  0  0
   -0.8363   -0.2015    3.5198 O   0  0  0  0  0  0  0  0  0  0  0  0
    3.5229    1.5952    0.3058 O   0  0  0  0  0  0  0  0  0  0  0  0
    1.7221    0.6398    3.0330 O   0  0  0  0  0  0  0  0  0  0  0  0
    0.8256    1.4082   -0.2532 O   0  0  0  0  0  0  0  0  0  0  0  0
   -1.4439    0.7916    1.8335 H   0  0  0  0  0  0  0  0  0  0  0  0
    0.2999    2.0503    2.9608 H   0  0  0  0  0  0  0  0  0  0  0  0
    0.7639    3.0016    0.9843 H   0  0  0  0  0  0  0  0  0  0  0  0
    0.8711   -0.4036   -1.2483 H   0  0  0  0  0  0  0  0  0  0  0  0
    1.6112   -0.3443    0.3706 H   0  0  0  0  0  0  0  0  0  0  0  0
    2.4861    0.2328   -0.9618 H   0  0  0  0  0  0  0  0  0  0  0  0
   -1.2900   -1.6813    1.4550 H   0  0  0  0  0  0  0  0  0  0  0  0
   -0.4118   -0.8013    0.2910 H   0  0  0  0  0  0  0  0  0  0  0  0
    4.0094    3.7582    1.6319 H   0  0  0  0  0  0  0  0  0  0  0  0
    2.6068    3.5705    2.7189 H   0  0  0  0  0  0  0  0  0  0  0  0
    1.5087   -1.3757    1.8248 H   0  0  0  0  0  0  0  0  0  0  0  0
    3.5786    1.6034    3.4509 H   0  0  0  0  0  0  0  0  0  0  0  0
   -0.0899   -0.7933    3.7485 H   0  0  0  0  0  0  0  0  0  0  0  0
    2.3440    0.2173    2.4177 H   0  0  0  0  0  0  0  0  0  0  0  0
  1 17  1  0  0  0  0
  1 18  1  0  0  0  0
  1 19  1  0  0  0  0
  2 20  1  0  0  0  0
  2 21  1  0  0  0  0
  3 22  1  0  0  0  0
  3 23  1  0  0  0  0
  4  2  1  0  0  0  0
  4 10  1  0  0  0  0
  4 14  1  6  0  0  0
  5  3  1  0  0  0  0
  6  4  1  0  0  0  0
  6 12  1  0  0  0  0
  6 15  1  1  0  0  0
  7 13  1  0  0  0  0
  7 16  1  1  0  0  0
  7  6  1  0  0  0  0
  7  5  1  0  0  0  0
  8  2  1  0  0  0  0
  8 24  1  0  0  0  0
  9  3  1  0  0  0  0
  9 25  1  0  0  0  0
 10 26  1  0  0  0  0
 11  5  2  0  0  0  0
 12 27  1  0  0  0  0
 13  1  1  0  0  0  0
M  END
>  <DRUGBANK_ID>
DB02438

>  <SECONDARY_ACCESSION_NUMBERS>
EXPT00180

>  <COMMON_NAME>
3-O-Methylfructose in Linear Form

$$$$
