1208
 OpenBabel10282417113D

 50 53  0  0  1  0  0  0  0  0999 V2000
    0.9735    0.0810   -0.0157 F   0  0  0  0  0  0  0  0  0  0  0  0
    4.9995   -2.3574    0.0840 F   0  0  0  0  0  0  0  0  0  0  0  0
    6.4231    2.4839    0.0167 O   0  0  0  0  0  0  0  0  0  0  0  0
    4.5102    6.2421    0.0247 O   0  0  0  0  0  0  0  0  0  0  0  0
    6.4457    5.1613    0.0244 O   0  0  0  0  0  0  0  0  0  0  0  0
    2.3553    2.5795   -0.0167 N   0  0  0  0  0  0  0  0  0  0  0  0
    2.1430   -2.3246    0.0301 N   0  0  0  0  0  0  0  0  0  0  0  0
    1.1257   -4.8711   -0.8875 N   0  0  0  0  0  0  0  0  0  0  0  0
    6.4899   -0.0610    0.0503 N   0  0  0  0  0  0  0  0  0  0  0  0
    0.8683    2.6885    0.0518 C   0  0  0  0  0  0  0  0  0  0  0  0
    0.0509    3.2387   -1.0911 C   0  0  0  0  0  0  0  0  0  0  0  0
    0.0917    3.9653    0.2241 C   0  0  0  0  0  0  0  0  0  0  0  0
    3.0101    1.3065    0.0109 C   0  0  0  0  0  0  0  0  0  0  0  0
    2.2114   -4.8180    0.1375 C   0  0  2  0  0  0  0  0  0  0  0  0
    1.1282   -3.6674   -1.7597 C   0  0  1  0  0  0  0  0  0  0  0  0
    2.2295   -3.4784    0.9344 C   0  0  0  0  0  0  0  0  0  0  0  0
    1.0323   -2.3647   -0.9386 C   0  0  0  0  0  0  0  0  0  0  0  0
    2.9320   -1.1849    0.0867 C   0  0  0  0  0  0  0  0  0  0  0  0
    3.1317    3.7267   -0.0102 C   0  0  0  0  0  0  0  0  0  0  0  0
    4.4157    1.2435    0.0299 C   0  0  0  0  0  0  0  0  0  0  0  0
    2.3171    0.0814    0.0270 C   0  0  0  0  0  0  0  0  0  0  0  0
    5.0961    0.0014    0.0646 C   0  0  0  0  0  0  0  0  0  0  0  0
    4.4684    3.8167    0.0080 C   0  0  0  0  0  0  0  0  0  0  0  0
    4.3349   -1.1875    0.1073 C   0  0  0  0  0  0  0  0  0  0  0  0
    5.1967    2.5188    0.0161 C   0  0  0  0  0  0  0  0  0  0  0  0
    3.6009   -5.1681   -0.4154 C   0  0  0  0  0  0  0  0  0  0  0  0
    2.3745   -3.5876   -2.6434 C   0  0  0  0  0  0  0  0  0  0  0  0
    5.2348    5.0975    0.0190 C   0  0  0  0  0  0  0  0  0  0  0  0
    3.5443    6.2078    0.0229 H   0  0  0  0  0  0  0  0  0  0  0  0
    0.2384   -4.8510   -0.3746 H   0  0  0  0  0  0  0  0  0  0  0  0
    7.0108    0.8240    0.0316 H   0  0  0  0  0  0  0  0  0  0  0  0
    6.9995   -0.9319    0.0404 H   0  0  0  0  0  0  0  0  0  0  0  0
    0.4207    1.8878    0.6340 H   0  0  0  0  0  0  0  0  0  0  0  0
    0.5612    3.6688   -1.9445 H   0  0  0  0  0  0  0  0  0  0  0  0
   -0.8667    2.7217   -1.3557 H   0  0  0  0  0  0  0  0  0  0  0  0
   -0.7818    3.9228    0.8671 H   0  0  0  0  0  0  0  0  0  0  0  0
    0.6080    4.9077    0.3093 H   0  0  0  0  0  0  0  0  0  0  0  0
    1.9792   -5.6250    0.8459 H   0  0  0  0  0  0  0  0  0  0  0  0
    0.2536   -3.7312   -2.4201 H   0  0  0  0  0  0  0  0  0  0  0  0
    3.0863   -3.4376    1.6140 H   0  0  0  0  0  0  0  0  0  0  0  0
    1.3284   -3.4612    1.5667 H   0  0  0  0  0  0  0  0  0  0  0  0
    0.0760   -2.3048   -0.4048 H   0  0  0  0  0  0  0  0  0  0  0  0
    1.0729   -1.5304   -1.6501 H   0  0  0  0  0  0  0  0  0  0  0  0
    2.5306    4.6170   -0.0246 H   0  0  0  0  0  0  0  0  0  0  0  0
    4.3003   -5.3549    0.4022 H   0  0  0  0  0  0  0  0  0  0  0  0
    3.5587   -6.0486   -1.0644 H   0  0  0  0  0  0  0  0  0  0  0  0
    4.0847   -4.3752   -0.9788 H   0  0  0  0  0  0  0  0  0  0  0  0
    2.6279   -4.5610   -3.0718 H   0  0  0  0  0  0  0  0  0  0  0  0
    2.2757   -2.8474   -3.4383 H   0  0  0  0  0  0  0  0  0  0  0  0
    3.2240   -3.2116   -2.0763 H   0  0  0  0  0  0  0  0  0  0  0  0
  1 21  1  0  0  0  0
  2 24  1  0  0  0  0
  3 25  2  0  0  0  0
  4 28  1  0  0  0  0
  4 29  1  0  0  0  0
  5 28  2  0  0  0  0
  6 10  1  0  0  0  0
  6 13  1  0  0  0  0
  6 19  1  0  0  0  0
  7 16  1  0  0  0  0
  7 17  1  0  0  0  0
  7 18  1  0  0  0  0
  8 14  1  0  0  0  0
  8 15  1  0  0  0  0
  8 30  1  0  0  0  0
  9 22  1  0  0  0  0
  9 31  1  0  0  0  0
  9 32  1  0  0  0  0
 10 11  1  0  0  0  0
 10 12  1  0  0  0  0
 10 33  1  0  0  0  0
 11 12  1  0  0  0  0
 11 34  1  0  0  0  0
 11 35  1  0  0  0  0
 12 36  1  0  0  0  0
 12 37  1  0  0  0  0
 13 20  1  0  0  0  0
 13 21  2  0  0  0  0
 14 16  1  0  0  0  0
 14 26  1  0  0  0  0
 14 38  1  1  0  0  0
 15 17  1  0  0  0  0
 15 27  1  0  0  0  0
 15 39  1  6  0  0  0
 16 40  1  0  0  0  0
 16 41  1  0  0  0  0
 17 42  1  0  0  0  0
 17 43  1  0  0  0  0
 18 21  1  0  0  0  0
 18 24  2  0  0  0  0
 19 23  2  0  0  0  0
 19 44  1  0  0  0  0
 20 22  2  0  0  0  0
 20 25  1  0  0  0  0
 22 24  1  0  0  0  0
 23 25  1  0  0  0  0
 23 28  1  0  0  0  0
 26 45  1  0  0  0  0
 26 46  1  0  0  0  0
 26 47  1  0  0  0  0
 27 48  1  0  0  0  0
 27 49  1  0  0  0  0
 27 50  1  0  0  0  0
M  END
>  <DRUGBANK_ID>
DB01208

>  <SECONDARY_ACCESSION_NUMBERS>
APRD01231

>  <COMMON_NAME>
Sparfloxacin

>  <CAS_NUMBER>
110871-86-8

>  <UNII>
Q90AGA787L

>  <SYNONYMS>
cis-5-Amino-1-cyclopropyl-7-(3,5-dimethyl-1-piperazinyl)-6,8-difluoro-1,4-dihydro-4-oxo-3-quinolinecarboxylic acid; Sparfloxacin

$$$$
