
 OpenBabel10282417243D

 35 36  0  0  0  0  0  0  0  0999 V2000
    1.0389    0.0421   -0.0609 C   0  0  0  0  0  0  0  0  0  0  0  0
    0.4959   -0.4143   -1.4147 C   0  0  0  0  0  0  0  0  0  0  0  0
    0.9814   -1.8274   -1.7222 C   0  0  0  0  0  0  0  0  0  0  0  0
   -1.0387   -0.3547   -1.4450 C   0  0  0  0  0  0  0  0  0  0  0  0
   -1.5938    1.0368   -1.1458 C   0  0  0  0  0  0  0  0  0  0  0  0
   -1.1511    2.0259   -2.1235 N   0  0  0  0  0  0  0  0  0  0  0  0
   -2.0361    2.6621   -2.9784 C   0  0  0  0  0  0  0  0  0  0  0  0
   -3.1236    3.2790   -2.5116 C   0  0  0  0  0  0  0  0  0  0  0  0
   -4.0955    3.9626   -3.3654 C   0  0  0  0  0  0  0  0  0  0  0  0
   -5.1301    4.3992   -2.8899 O   0  0  0  0  0  0  0  0  0  0  0  0
   -3.7638    4.0981   -4.7915 C   0  0  0  0  0  0  0  0  0  0  0  0
   -4.5738    4.9037   -5.5994 C   0  0  0  0  0  0  0  0  0  0  0  0
   -4.2751    5.0493   -6.9526 C   0  0  0  0  0  0  0  0  0  0  0  0
   -3.1957    4.3596   -7.5054 C   0  0  0  0  0  0  0  0  0  0  0  0
   -2.3900    3.5503   -6.6989 C   0  0  0  0  0  0  0  0  0  0  0  0
   -2.6578    3.4402   -5.3286 C   0  0  0  0  0  0  0  0  0  0  0  0
   -1.7541    2.6516   -4.4583 C   0  0  0  0  0  0  0  0  0  0  0  0
   -0.8128    2.0201   -4.9259 O   0  0  0  0  0  0  0  0  0  0  0  0
    0.6640   -0.6007    0.7428 H   0  0  0  0  0  0  0  0  0  0  0  0
    0.7488    1.0716    0.1682 H   0  0  0  0  0  0  0  0  0  0  0  0
    2.1313    0.0144   -0.0503 H   0  0  0  0  0  0  0  0  0  0  0  0
    0.8994    0.2412   -2.1945 H   0  0  0  0  0  0  0  0  0  0  0  0
    0.6295   -2.5390   -0.9686 H   0  0  0  0  0  0  0  0  0  0  0  0
    0.6229   -2.1592   -2.7021 H   0  0  0  0  0  0  0  0  0  0  0  0
    2.0758   -1.8570   -1.7367 H   0  0  0  0  0  0  0  0  0  0  0  0
   -1.4065   -0.6981   -2.4212 H   0  0  0  0  0  0  0  0  0  0  0  0
   -1.4441   -1.0535   -0.7003 H   0  0  0  0  0  0  0  0  0  0  0  0
   -2.6880    0.9647   -1.1263 H   0  0  0  0  0  0  0  0  0  0  0  0
   -1.3038    1.3770   -0.1486 H   0  0  0  0  0  0  0  0  0  0  0  0
   -0.2242    1.8919   -2.5294 H   0  0  0  0  0  0  0  0  0  0  0  0
   -3.3282    3.3067   -1.4483 H   0  0  0  0  0  0  0  0  0  0  0  0
   -5.4284    5.4260   -5.1725 H   0  0  0  0  0  0  0  0  0  0  0  0
   -4.8868    5.6987   -7.5749 H   0  0  0  0  0  0  0  0  0  0  0  0
   -2.9765    4.4588   -8.5663 H   0  0  0  0  0  0  0  0  0  0  0  0
   -1.5492    3.0185   -7.1408 H   0  0  0  0  0  0  0  0  0  0  0  0
  1  2  1  0  0  0  0
  1 19  1  0  0  0  0
  1 20  1  0  0  0  0
  1 21  1  0  0  0  0
  2  3  1  0  0  0  0
  2  4  1  0  0  0  0
  2 22  1  0  0  0  0
  3 23  1  0  0  0  0
  3 24  1  0  0  0  0
  3 25  1  0  0  0  0
  4  5  1  0  0  0  0
  4 26  1  0  0  0  0
  4 27  1  0  0  0  0
  5  6  1  0  0  0  0
  5 28  1  0  0  0  0
  5 29  1  0  0  0  0
  6  7  1  0  0  0  0
  6 30  1  0  0  0  0
  7  8  2  0  0  0  0
  7 17  1  0  0  0  0
  8  9  1  0  0  0  0
  8 31  1  0  0  0  0
  9 10  2  0  0  0  0
  9 11  1  0  0  0  0
 11 12  2  0  0  0  0
 11 16  1  0  0  0  0
 12 13  1  0  0  0  0
 12 32  1  0  0  0  0
 13 14  2  0  0  0  0
 13 33  1  0  0  0  0
 14 15  1  0  0  0  0
 14 34  1  0  0  0  0
 15 16  2  0  0  0  0
 15 35  1  0  0  0  0
 16 17  1  0  0  0  0
 17 18  2  0  0  0  0
M  END
>  <DRUGBANK_ID>
DB18112

>  <COMMON_NAME>
NT-102

>  <CAS_NUMBER>
1607447-79-9

>  <UNII>
CL92X4LP4N

>  <SYNONYMS>
2-[(3-Methylbutyl)amino]-1,4-naphthalenedione

$$$$
