W43
 OpenBabel10282417173D

 54 56  0  0  0  0  0  0  0  0999 V2000
   -1.2304    0.4662   -0.1808 O   0  0  0  0  0  0  0  0  0  0  0  0
    0.0521    0.9773   -0.0989 N   0  0  0  0  0  0  0  0  0  0  0  0
    0.8488   -0.0951   -0.0330 C   0  0  0  0  0  0  0  0  0  0  0  0
    2.3107    0.0471    0.0042 C   0  0  0  0  0  0  0  0  0  0  0  0
    0.1182   -1.2945   -0.0238 C   0  0  0  0  0  0  0  0  0  0  0  0
   -1.1816   -0.8897   -0.0740 C   0  0  0  0  0  0  0  0  0  0  0  0
   -2.4463   -1.6354    0.0356 C   0  0  0  0  0  0  0  0  0  0  0  0
   -3.1454   -1.2913    1.3596 C   0  0  0  0  0  0  0  0  0  0  0  0
   -3.5452    0.1929    1.4581 C   0  0  0  0  0  0  0  0  0  0  0  0
   -4.3602    0.5634    0.2574 C   0  0  0  0  0  0  0  0  0  0  0  0
   -5.5636   -0.3386    0.2862 C   0  0  0  0  0  0  0  0  0  0  0  0
   -6.6518   -0.0257    1.2947 C   0  0  0  0  0  0  0  0  0  0  0  0
   -7.2211    1.3688    1.0271 C   0  0  0  0  0  0  0  0  0  0  0  0
   -8.1111    1.4734   -0.1345 O   0  0  0  0  0  0  0  0  0  0  0  0
   -7.6180    1.2924   -1.4089 C   0  0  0  0  0  0  0  0  0  0  0  0
   -7.4630    2.3958   -2.2511 C   0  0  0  0  0  0  0  0  0  0  0  0
   -6.8678    2.2468   -3.5238 C   0  0  0  0  0  0  0  0  0  0  0  0
   -6.2688    1.0320   -3.8701 C   0  0  0  0  0  0  0  0  0  0  0  0
   -6.4648   -0.0632   -3.0497 C   0  0  0  0  0  0  0  0  0  0  0  0
   -7.3701    0.0366   -1.9922 C   0  0  0  0  0  0  0  0  0  0  0  0
   -7.9736   -1.4639   -1.3630 Cl  0  0  0  0  0  0  0  0  0  0  0  0
   -5.7235    0.7504   -5.1932 C   0  0  0  0  0  0  0  0  0  0  0  0
   -6.0461   -0.3213   -5.8770 N   0  0  0  0  0  0  0  0  0  0  0  0
   -5.3642   -0.1473   -7.1556 C   0  0  1  0  0  0  0  0  0  0  0  0
   -6.4147   -0.0234   -8.2516 C   0  0  0  0  0  0  0  0  0  0  0  0
   -4.5226    1.1111   -6.9978 C   0  0  0  0  0  0  0  0  0  0  0  0
   -4.8551    1.6311   -5.7107 O   0  0  0  0  0  0  0  0  0  0  0  0
   -4.7332   -1.0205   -7.3576 H   0  0  0  0  0  0  0  0  0  0  0  0
    2.6560    0.5917   -0.8782 H   0  0  0  0  0  0  0  0  0  0  0  0
    2.6294    0.5748    0.9068 H   0  0  0  0  0  0  0  0  0  0  0  0
    2.7783   -0.9426    0.0002 H   0  0  0  0  0  0  0  0  0  0  0  0
    0.4631   -2.3124    0.0378 H   0  0  0  0  0  0  0  0  0  0  0  0
   -3.0676   -1.4644   -0.8527 H   0  0  0  0  0  0  0  0  0  0  0  0
   -2.2398   -2.7108    0.0218 H   0  0  0  0  0  0  0  0  0  0  0  0
   -4.0214   -1.9457    1.4562 H   0  0  0  0  0  0  0  0  0  0  0  0
   -2.5259   -1.5437    2.2207 H   0  0  0  0  0  0  0  0  0  0  0  0
   -4.1352    0.3692    2.3612 H   0  0  0  0  0  0  0  0  0  0  0  0
   -2.6895    0.8625    1.5357 H   0  0  0  0  0  0  0  0  0  0  0  0
   -4.6235    1.6240    0.2159 H   0  0  0  0  0  0  0  0  0  0  0  0
   -3.8377    0.4109   -0.6989 H   0  0  0  0  0  0  0  0  0  0  0  0
   -5.8797   -0.1067   -0.6793 H   0  0  0  0  0  0  0  0  0  0  0  0
   -5.3824   -1.4131    0.1998 H   0  0  0  0  0  0  0  0  0  0  0  0
   -7.4653   -0.7548    1.2260 H   0  0  0  0  0  0  0  0  0  0  0  0
   -6.2584   -0.1358    2.3151 H   0  0  0  0  0  0  0  0  0  0  0  0
   -7.8317    1.6201    1.9057 H   0  0  0  0  0  0  0  0  0  0  0  0
   -6.4329    2.1342    1.0269 H   0  0  0  0  0  0  0  0  0  0  0  0
   -7.8783    3.3574   -1.9613 H   0  0  0  0  0  0  0  0  0  0  0  0
   -6.9104    3.0535   -4.2495 H   0  0  0  0  0  0  0  0  0  0  0  0
   -5.9465   -0.9988   -3.2618 H   0  0  0  0  0  0  0  0  0  0  0  0
   -5.9428    0.1128   -9.2293 H   0  0  0  0  0  0  0  0  0  0  0  0
   -7.0381   -0.9235   -8.2939 H   0  0  0  0  0  0  0  0  0  0  0  0
   -7.0827    0.8264   -8.0701 H   0  0  0  0  0  0  0  0  0  0  0  0
   -3.4535    0.8759   -7.0406 H   0  0  0  0  0  0  0  0  0  0  0  0
   -4.7411    1.8698   -7.7543 H   0  0  0  0  0  0  0  0  0  0  0  0
  1  2  1  0  0  0  0
  1  6  1  0  0  0  0
  2  3  2  0  0  0  0
  3  4  1  0  0  0  0
  3  5  1  0  0  0  0
  4 29  1  0  0  0  0
  4 30  1  0  0  0  0
  4 31  1  0  0  0  0
  5  6  2  0  0  0  0
  5 32  1  0  0  0  0
  6  7  1  0  0  0  0
  7  8  1  0  0  0  0
  7 33  1  0  0  0  0
  7 34  1  0  0  0  0
  8  9  1  0  0  0  0
  8 35  1  0  0  0  0
  8 36  1  0  0  0  0
  9 10  1  0  0  0  0
  9 37  1  0  0  0  0
  9 38  1  0  0  0  0
 10 11  1  0  0  0  0
 10 39  1  0  0  0  0
 10 40  1  0  0  0  0
 11 12  1  0  0  0  0
 11 41  1  0  0  0  0
 11 42  1  0  0  0  0
 12 13  1  0  0  0  0
 12 43  1  0  0  0  0
 12 44  1  0  0  0  0
 13 14  1  0  0  0  0
 13 45  1  0  0  0  0
 13 46  1  0  0  0  0
 14 15  1  0  0  0  0
 15 16  2  0  0  0  0
 15 20  1  0  0  0  0
 16 17  1  0  0  0  0
 16 47  1  0  0  0  0
 17 18  2  0  0  0  0
 17 48  1  0  0  0  0
 18 19  1  0  0  0  0
 18 22  1  0  0  0  0
 19 20  2  0  0  0  0
 19 49  1  0  0  0  0
 20 21  1  0  0  0  0
 22 23  2  0  0  0  0
 22 27  1  0  0  0  0
 23 24  1  0  0  0  0
 24 25  1  0  0  0  0
 24 26  1  0  0  0  0
 24 28  1  6  0  0  0
 25 50  1  0  0  0  0
 25 51  1  0  0  0  0
 25 52  1  0  0  0  0
 26 27  1  0  0  0  0
 26 53  1  0  0  0  0
 26 54  1  0  0  0  0
M  END
>  <DRUGBANK_ID>
DB08722

>  <COMMON_NAME>
5-(7-(6-chloro-4-(5-hydro-4-methyl-2-oxazolyl)phenoxy)heptyl)-3-methyl isoxazole

$$$$
