
 OpenBabel10282417123D

101103  0  0  1  0  0  0  0  0999 V2000
    4.7609   -4.6370   -0.6542 C   0  0  2  0  0  0  0  0  0  0  0  0
    3.2388   -4.6647   -0.7083 C   0  0  1  0  0  0  0  0  0  0  0  0
    5.3320   -5.8314   -1.2505 O   0  0  0  0  0  0  0  0  0  0  0  0
    5.2120   -4.3839    0.6912 O   0  0  0  0  0  0  0  0  0  0  0  0
    2.6623   -6.0389   -0.2378 C   0  0  2  0  0  0  0  0  0  0  0  0
    2.6403   -3.4479   -0.1056 N   0  0  0  0  0  0  0  0  0  0  0  0
    4.9864   -7.1226   -0.7419 C   0  0  1  0  0  0  0  0  0  0  0  0
    4.5864   -5.6806    1.6504 P   0  0  3  0  0  0  0  0  0  0  0  0
    3.5513   -7.3021   -0.3917 C   0  0  1  0  0  0  0  0  0  0  0  0
    1.3914   -6.3422   -0.7601 O   0  0  0  0  0  0  0  0  0  0  0  0
    1.5704   -2.7938   -0.7048 C   0  0  0  0  0  0  0  0  0  0  0  0
    5.6926   -8.3879   -1.3404 C   0  0  0  0  0  0  0  0  0  0  0  0
    6.1696   -5.9776    2.2814 O   0  0  0  0  0  0  0  0  0  0  0  0
    4.1468   -4.4764    2.6673 O   0  0  0  0  0  0  0  0  0  0  0  0
    4.0265   -6.8411    2.5089 O   0  0  0  0  0  0  0  0  0  0  0  0
    3.2929   -8.3381    0.5572 O   0  0  0  0  0  0  0  0  0  0  0  0
    1.2939   -6.6644   -2.1433 C   0  0  1  0  0  0  0  0  0  0  0  0
    1.5108   -1.3149   -0.4233 C   0  0  0  0  0  0  0  0  0  0  0  0
    0.7325   -3.3053   -1.4381 O   0  0  0  0  0  0  0  0  0  0  0  0
    6.9835   -8.1514   -1.8977 O   0  0  0  0  0  0  0  0  0  0  0  0
    6.9880   -7.1193    1.2717 P   0  0  3  0  0  0  0  0  0  0  0  0
    1.6610   -5.5751   -3.1728 C   0  0  0  0  0  0  0  0  0  0  0  0
    1.9073   -7.9903   -2.5849 C   0  0  0  0  0  0  0  0  0  0  0  0
    6.4251   -8.3356    2.1279 O   0  0  0  0  0  0  0  0  0  0  0  0
    7.2643   -6.0291    0.1848 O   0  0  0  0  0  0  0  0  0  0  0  0
    7.7205   -8.1412    0.3680 O   0  0  0  0  0  0  0  0  0  0  0  0
    2.9889   -5.4426   -3.5682 N   0  0  0  0  0  0  0  0  0  0  0  0
    0.8040   -4.7498   -3.5356 O   0  0  0  0  0  0  0  0  0  0  0  0
    7.3610   -8.6224    3.2308 C   0  0  0  0  0  0  0  0  0  0  0  0
    3.4161   -4.2398   -4.3026 C   0  0  2  0  0  0  0  0  0  0  0  0
    8.7894   -9.0490    2.7498 C   0  0  1  0  0  0  0  0  0  0  0  0
    3.0527   -2.8317   -3.6450 C   0  0  0  0  0  0  0  0  0  0  0  0
    3.0014   -4.3815   -5.7492 C   0  0  0  0  0  0  0  0  0  0  0  0
    9.8005   -8.2251    3.3737 O   0  0  0  0  0  0  0  0  0  0  0  0
    9.1475  -10.5161    2.9751 C   0  0  2  0  0  0  0  0  0  0  0  0
    2.0261   -2.1613   -4.2462 N   0  0  0  0  0  0  0  0  0  0  0  0
    3.6031   -2.4135   -2.6250 O   0  0  0  0  0  0  0  0  0  0  0  0
   10.7198   -9.0850    4.0534 C   0  0  2  0  0  0  0  0  0  0  0  0
   10.0596  -10.4698    4.1845 C   0  0  2  0  0  0  0  0  0  0  0  0
    9.8886  -11.0594    1.8625 O   0  0  0  0  0  0  0  0  0  0  0  0
    1.2783   -0.9890   -3.8143 C   0  0  2  0  0  0  0  0  0  0  0  0
   11.0856   -8.4706    5.3211 N   0  0  0  0  0  0  0  0  0  0  0  0
   11.0258  -11.5217    4.2044 O   0  0  0  0  0  0  0  0  0  0  0  0
   -0.2198   -1.1013   -4.1724 C   0  0  0  0  0  0  0  0  0  0  0  0
    1.8843    0.3511   -4.2776 C   0  0  0  0  0  0  0  0  0  0  0  0
   10.0809   -8.2389    6.2521 C   0  0  0  0  0  0  0  0  0  0  0  0
   12.4146   -8.2316    5.6164 C   0  0  0  0  0  0  0  0  0  0  0  0
   -0.5460   -1.0278   -5.6650 C   0  0  0  0  0  0  0  0  0  0  0  0
    2.3426    1.1638   -3.2956 O   0  0  0  0  0  0  0  0  0  0  0  0
    1.9576    0.7012   -5.4473 O   0  0  0  0  0  0  0  0  0  0  0  0
   10.4903   -7.7093    7.4440 N   0  0  0  0  0  0  0  0  0  0  0  0
    8.8920   -8.4997    6.0745 O   0  0  0  0  0  0  0  0  0  0  0  0
   12.8059   -7.8954    6.8479 C   0  0  0  0  0  0  0  0  0  0  0  0
    0.1467   -2.0691   -6.5101 C   0  0  0  0  0  0  0  0  0  0  0  0
   11.7805   -7.6783    7.8804 C   0  0  0  0  0  0  0  0  0  0  0  0
   -0.6320   -3.0219   -7.0419 O   0  0  0  0  0  0  0  0  0  0  0  0
    1.3570   -2.0848   -6.6887 O   0  0  0  0  0  0  0  0  0  0  0  0
   12.0888   -7.4738    9.0476 O   0  0  0  0  0  0  0  0  0  0  0  0
    5.1733   -3.8039   -1.2366 H   0  0  0  0  0  0  0  0  0  0  0  0
    3.0563   -4.5564   -1.7391 H   0  0  0  0  0  0  0  0  0  0  0  0
    2.4394   -5.8932    0.8250 H   0  0  0  0  0  0  0  0  0  0  0  0
    3.2958   -2.7908    0.2962 H   0  0  0  0  0  0  0  0  0  0  0  0
    5.2952   -7.2056    0.2497 H   0  0  0  0  0  0  0  0  0  0  0  0
    3.3641   -7.8397   -1.2512 H   0  0  0  0  0  0  0  0  0  0  0  0
    5.7556   -9.1628   -0.5495 H   0  0  0  0  0  0  0  0  0  0  0  0
    5.1054   -8.8194   -2.1387 H   0  0  0  0  0  0  0  0  0  0  0  0
    3.6495   -3.7681    2.2223 H   0  0  0  0  0  0  0  0  0  0  0  0
    3.4226   -8.0613    1.4923 H   0  0  0  0  0  0  0  0  0  0  0  0
    0.2177   -6.8115   -2.2212 H   0  0  0  0  0  0  0  0  0  0  0  0
    2.0518   -0.7463   -1.1778 H   0  0  0  0  0  0  0  0  0  0  0  0
    0.4574   -1.0160   -0.4343 H   0  0  0  0  0  0  0  0  0  0  0  0
    1.9910   -1.0481    0.5102 H   0  0  0  0  0  0  0  0  0  0  0  0
    7.6215   -8.0660   -1.1433 H   0  0  0  0  0  0  0  0  0  0  0  0
    1.8245   -8.7640   -1.8045 H   0  0  0  0  0  0  0  0  0  0  0  0
    1.4942   -8.3354   -3.5185 H   0  0  0  0  0  0  0  0  0  0  0  0
    2.9638   -7.8729   -2.8688 H   0  0  0  0  0  0  0  0  0  0  0  0
    6.5780   -5.4437   -0.1449 H   0  0  0  0  0  0  0  0  0  0  0  0
    3.5717   -6.2645   -3.6977 H   0  0  0  0  0  0  0  0  0  0  0  0
    7.4408   -7.7128    3.8464 H   0  0  0  0  0  0  0  0  0  0  0  0
    6.9134   -9.3892    3.8688 H   0  0  0  0  0  0  0  0  0  0  0  0
    4.5134   -4.2580   -4.2639 H   0  0  0  0  0  0  0  0  0  0  0  0
    8.9697   -8.8687    1.7051 H   0  0  0  0  0  0  0  0  0  0  0  0
    3.3275   -3.5080   -6.3152 H   0  0  0  0  0  0  0  0  0  0  0  0
    3.4438   -5.2707   -6.2027 H   0  0  0  0  0  0  0  0  0  0  0  0
    1.9134   -4.4860   -5.8271 H   0  0  0  0  0  0  0  0  0  0  0  0
    8.2631  -11.1461    3.1009 H   0  0  0  0  0  0  0  0  0  0  0  0
    1.9132   -2.3843   -5.2257 H   0  0  0  0  0  0  0  0  0  0  0  0
   11.6166   -9.1641    3.4214 H   0  0  0  0  0  0  0  0  0  0  0  0
    9.4526  -10.5616    5.0859 H   0  0  0  0  0  0  0  0  0  0  0  0
   10.5650  -10.4230    1.5735 H   0  0  0  0  0  0  0  0  0  0  0  0
    1.2624   -0.9980   -2.7475 H   0  0  0  0  0  0  0  0  0  0  0  0
   11.3535  -11.6321    3.2916 H   0  0  0  0  0  0  0  0  0  0  0  0
   -0.6295   -2.0284   -3.7455 H   0  0  0  0  0  0  0  0  0  0  0  0
   -0.7528   -0.2826   -3.6643 H   0  0  0  0  0  0  0  0  0  0  0  0
   13.1436   -8.3551    4.8197 H   0  0  0  0  0  0  0  0  0  0  0  0
   -1.6283   -1.0842   -5.8081 H   0  0  0  0  0  0  0  0  0  0  0  0
   -0.2469   -0.0525   -6.0565 H   0  0  0  0  0  0  0  0  0  0  0  0
    2.3483    0.8079   -2.3910 H   0  0  0  0  0  0  0  0  0  0  0  0
    9.7696   -7.5577    8.1309 H   0  0  0  0  0  0  0  0  0  0  0  0
   13.8406   -7.7714    7.1370 H   0  0  0  0  0  0  0  0  0  0  0  0
   -1.5871   -2.8814   -6.9294 H   0  0  0  0  0  0  0  0  0  0  0  0
  1  2  1  0  0  0  0
  1  3  1  0  0  0  0
  1 59  1  6  0  0  0
  1  4  1  0  0  0  0
  2  5  1  0  0  0  0
  2 60  1  6  0  0  0
  2  6  1  0  0  0  0
  3  7  1  0  0  0  0
  4  8  1  0  0  0  0
  5  9  1  0  0  0  0
  5 10  1  0  0  0  0
  5 61  1  1  0  0  0
  6 11  1  0  0  0  0
  6 62  1  0  0  0  0
  7  9  1  0  0  0  0
  7 63  1  1  0  0  0
  7 12  1  0  0  0  0
  8 13  1  0  0  0  0
  8 14  1  0  0  0  0
  8 15  2  0  0  0  0
  9 16  1  0  0  0  0
  9 64  1  6  0  0  0
 10 17  1  0  0  0  0
 11 18  1  0  0  0  0
 11 19  2  0  0  0  0
 12 20  1  0  0  0  0
 12 65  1  0  0  0  0
 12 66  1  0  0  0  0
 13 21  1  0  0  0  0
 14 67  1  0  0  0  0
 16 68  1  0  0  0  0
 17 22  1  0  0  0  0
 17 23  1  0  0  0  0
 17 69  1  6  0  0  0
 18 70  1  0  0  0  0
 18 71  1  0  0  0  0
 18 72  1  0  0  0  0
 20 73  1  0  0  0  0
 21 24  1  0  0  0  0
 21 25  1  0  0  0  0
 21 26  2  0  0  0  0
 22 27  1  0  0  0  0
 22 28  2  0  0  0  0
 23 74  1  0  0  0  0
 23 75  1  0  0  0  0
 23 76  1  0  0  0  0
 24 29  1  0  0  0  0
 25 77  1  0  0  0  0
 27 78  1  0  0  0  0
 29 79  1  0  0  0  0
 29 80  1  0  0  0  0
 30 33  1  0  0  0  0
 30 81  1  6  0  0  0
 30 32  1  0  0  0  0
 30 27  1  0  0  0  0
 31 29  1  0  0  0  0
 31 34  1  0  0  0  0
 31 35  1  0  0  0  0
 31 82  1  6  0  0  0
 32 36  1  0  0  0  0
 32 37  2  0  0  0  0
 33 83  1  0  0  0  0
 33 84  1  0  0  0  0
 33 85  1  0  0  0  0
 34 38  1  0  0  0  0
 35 39  1  0  0  0  0
 35 40  1  0  0  0  0
 35 86  1  1  0  0  0
 36 87  1  0  0  0  0
 38 39  1  0  0  0  0
 38 88  1  6  0  0  0
 38 42  1  0  0  0  0
 39 43  1  0  0  0  0
 39 89  1  1  0  0  0
 40 90  1  0  0  0  0
 41 45  1  0  0  0  0
 41 91  1  1  0  0  0
 41 44  1  0  0  0  0
 41 36  1  0  0  0  0
 42 46  1  0  0  0  0
 42 47  1  0  0  0  0
 43 92  1  0  0  0  0
 44 48  1  0  0  0  0
 44 93  1  0  0  0  0
 44 94  1  0  0  0  0
 45 49  1  0  0  0  0
 45 50  2  0  0  0  0
 46 51  1  0  0  0  0
 46 52  2  0  0  0  0
 47 53  2  0  0  0  0
 47 95  1  0  0  0  0
 48 54  1  0  0  0  0
 48 96  1  0  0  0  0
 48 97  1  0  0  0  0
 49 98  1  0  0  0  0
 51 55  1  0  0  0  0
 51 99  1  0  0  0  0
 53 55  1  0  0  0  0
 53100  1  0  0  0  0
 54 56  1  0  0  0  0
 54 57  2  0  0  0  0
 55 58  2  0  0  0  0
 56101  1  0  0  0  0
M  END
>  <DRUGBANK_ID>
DB02314

>  <SECONDARY_ACCESSION_NUMBERS>
EXPT03165

>  <COMMON_NAME>
Uridine-5'-Diphosphate-N-Acetylmuramoyl-L-Alanine-D-Glutamate

$$$$
