LJ3
 OpenBabel10282417173D

 23 24  0  0  0  0  0  0  0  0999 V2000
   -1.2125   -1.9366    0.0293 C   0  0  0  0  0  0  0  0  0  0  0  0
   -1.2160   -0.5372    0.0158 C   0  0  0  0  0  0  0  0  0  0  0  0
   -2.8813    0.3707   -0.0142 Br  0  0  0  0  0  0  0  0  0  0  0  0
   -0.0159    0.1776    0.0271 C   0  0  0  0  0  0  0  0  0  0  0  0
   -0.0076    1.5476    0.0438 O   0  0  0  0  0  0  0  0  0  0  0  0
    1.1932   -0.5168    0.0267 C   0  0  0  0  0  0  0  0  0  0  0  0
    2.8595    0.3895   -0.0036 Br  0  0  0  0  0  0  0  0  0  0  0  0
    1.1984   -1.9153    0.0479 C   0  0  0  0  0  0  0  0  0  0  0  0
   -0.0022   -2.6469    0.0664 C   0  0  0  0  0  0  0  0  0  0  0  0
    0.0272   -4.1181    0.1054 C   0  0  0  0  0  0  0  0  0  0  0  0
   -0.5633   -4.8812   -0.9124 C   0  0  0  0  0  0  0  0  0  0  0  0
   -0.4630   -6.2760   -0.9174 C   0  0  0  0  0  0  0  0  0  0  0  0
    0.2390   -6.9289    0.0941 C   0  0  0  0  0  0  0  0  0  0  0  0
    0.8229   -6.1910    1.1185 C   0  0  0  0  0  0  0  0  0  0  0  0
    0.6964   -4.7988    1.1387 C   0  0  0  0  0  0  0  0  0  0  0  0
   -2.1550   -2.4802    0.0239 H   0  0  0  0  0  0  0  0  0  0  0  0
   -0.9310    1.8545    0.0861 H   0  0  0  0  0  0  0  0  0  0  0  0
    2.1487   -2.4477    0.0377 H   0  0  0  0  0  0  0  0  0  0  0  0
   -1.0878   -4.3911   -1.7305 H   0  0  0  0  0  0  0  0  0  0  0  0
   -0.9156   -6.8496   -1.7211 H   0  0  0  0  0  0  0  0  0  0  0  0
    0.3310   -8.0122    0.0811 H   0  0  0  0  0  0  0  0  0  0  0  0
    1.3878   -6.6960    1.8989 H   0  0  0  0  0  0  0  0  0  0  0  0
    1.1317   -4.2453    1.9679 H   0  0  0  0  0  0  0  0  0  0  0  0
  1  2  2  0  0  0  0
  1  9  1  0  0  0  0
  1 16  1  0  0  0  0
  2  3  1  0  0  0  0
  2  4  1  0  0  0  0
  4  5  1  0  0  0  0
  4  6  2  0  0  0  0
  5 17  1  0  0  0  0
  6  7  1  0  0  0  0
  6  8  1  0  0  0  0
  8  9  2  0  0  0  0
  8 18  1  0  0  0  0
  9 10  1  0  0  0  0
 10 11  2  0  0  0  0
 10 15  1  0  0  0  0
 11 12  1  0  0  0  0
 11 19  1  0  0  0  0
 12 13  2  0  0  0  0
 12 20  1  0  0  0  0
 13 14  1  0  0  0  0
 13 21  1  0  0  0  0
 14 15  2  0  0  0  0
 14 22  1  0  0  0  0
 15 23  1  0  0  0  0
M  END
>  <DRUGBANK_ID>
DB08102

>  <COMMON_NAME>
3,5-dibromobiphenyl-4-ol

>  <UNII>
X915771SGZ

$$$$
