
 OpenBabel10282417203D

 35 35  0  0  0  0  0  0  0  0999 V2000
    0.8523    0.0901   -0.0997 C   0  0  0  0  0  0  0  0  0  0  0  0
    0.4170   -1.2110   -0.7449 C   0  0  0  0  0  0  0  0  0  0  0  0
    0.9274   -2.4420    0.0181 C   0  0  0  0  0  0  0  0  0  0  0  0
    0.4054   -2.5367    1.3810 O   0  0  0  0  0  0  0  0  0  0  0  0
    0.9320   -1.7321    2.3648 C   0  0  0  0  0  0  0  0  0  0  0  0
    1.9034   -0.9919    2.2029 O   0  0  0  0  0  0  0  0  0  0  0  0
    0.2936   -1.9547    3.6484 C   0  0  0  0  0  0  0  0  0  0  0  0
    0.2844   -3.1106    4.3920 C   0  0  0  0  0  0  0  0  0  0  0  0
   -0.2535   -2.9426    5.6934 C   0  0  0  0  0  0  0  0  0  0  0  0
   -0.7561   -1.6855    5.9398 C   0  0  0  0  0  0  0  0  0  0  0  0
   -0.4095   -0.6669    4.5654 S   0  0  0  0  0  0  0  0  0  0  0  0
   -1.4988   -1.1754    7.0922 C   0  0  0  0  0  0  0  0  0  0  0  0
   -2.1821   -0.1503    7.0790 O   0  0  0  0  0  0  0  0  0  0  0  0
   -1.3533   -1.9718    8.2047 O   0  0  0  0  0  0  0  0  0  0  0  0
   -1.9966   -1.6148    9.4598 C   0  0  0  0  0  0  0  0  0  0  0  0
   -1.1980   -0.5702   10.2479 C   0  0  0  0  0  0  0  0  0  0  0  0
   -1.0650    0.7346    9.4874 C   0  0  0  0  0  0  0  0  0  0  0  0
   -0.3105   -3.9408    6.5920 O   0  0  0  0  0  0  0  0  0  0  0  0
    0.7944   -4.2840    3.9660 O   0  0  0  0  0  0  0  0  0  0  0  0
    0.3598    0.2059    0.8685 H   0  0  0  0  0  0  0  0  0  0  0  0
    0.5705    0.9650   -0.6857 H   0  0  0  0  0  0  0  0  0  0  0  0
    1.9406    0.1006    0.0282 H   0  0  0  0  0  0  0  0  0  0  0  0
   -0.6774   -1.2338   -0.7853 H   0  0  0  0  0  0  0  0  0  0  0  0
    0.7826   -1.2298   -1.7804 H   0  0  0  0  0  0  0  0  0  0  0  0
    0.5753   -3.3329   -0.5241 H   0  0  0  0  0  0  0  0  0  0  0  0
    2.0236   -2.5006    0.0097 H   0  0  0  0  0  0  0  0  0  0  0  0
   -3.0366   -1.3032    9.3016 H   0  0  0  0  0  0  0  0  0  0  0  0
   -2.0431   -2.5279   10.0724 H   0  0  0  0  0  0  0  0  0  0  0  0
   -1.6807   -0.3740   11.2141 H   0  0  0  0  0  0  0  0  0  0  0  0
   -0.1946   -0.9580   10.4565 H   0  0  0  0  0  0  0  0  0  0  0  0
   -2.0552    1.1003    9.1940 H   0  0  0  0  0  0  0  0  0  0  0  0
   -0.5748    1.5115   10.0745 H   0  0  0  0  0  0  0  0  0  0  0  0
   -0.4461    0.5857    8.5990 H   0  0  0  0  0  0  0  0  0  0  0  0
    0.0876   -4.7337    6.1880 H   0  0  0  0  0  0  0  0  0  0  0  0
    1.0913   -4.2194    3.0393 H   0  0  0  0  0  0  0  0  0  0  0  0
  1  2  1  0  0  0  0
  1 20  1  0  0  0  0
  1 21  1  0  0  0  0
  1 22  1  0  0  0  0
  2  3  1  0  0  0  0
  2 23  1  0  0  0  0
  2 24  1  0  0  0  0
  3  4  1  0  0  0  0
  3 25  1  0  0  0  0
  3 26  1  0  0  0  0
  4  5  1  0  0  0  0
  5  6  2  0  0  0  0
  5  7  1  0  0  0  0
  7  8  2  0  0  0  0
  7 11  1  0  0  0  0
  8  9  1  0  0  0  0
  8 19  1  0  0  0  0
  9 10  2  0  0  0  0
  9 18  1  0  0  0  0
 10 11  1  0  0  0  0
 10 12  1  0  0  0  0
 12 13  2  0  0  0  0
 12 14  1  0  0  0  0
 14 15  1  0  0  0  0
 15 16  1  0  0  0  0
 15 27  1  0  0  0  0
 15 28  1  0  0  0  0
 16 17  1  0  0  0  0
 16 29  1  0  0  0  0
 16 30  1  0  0  0  0
 17 31  1  0  0  0  0
 17 32  1  0  0  0  0
 17 33  1  0  0  0  0
 18 34  1  0  0  0  0
 19 35  1  0  0  0  0
M  END
>  <DRUGBANK_ID>
DB13632

>  <COMMON_NAME>
Protiofate

>  <CAS_NUMBER>
58416-00-5

>  <UNII>
FIP88CI9Y3

>  <SYNONYMS>
Protiofate

$$$$
