
 OpenBabel10282417103D

 28 29  0  0  0  0  0  0  0  0999 V2000
    1.1524   -0.8360   -0.3598 C   0  0  2  0  0  0  0  0  0  0  0  0
    2.3767   -1.6284   -0.2258 N   0  0  0  0  0  0  0  0  0  0  0  0
    1.3920    0.5597   -0.1862 O   0  0  0  0  0  0  0  0  0  0  0  0
   -0.0113   -1.2386    0.5315 C   0  0  0  0  0  0  0  0  0  0  0  0
    3.0954   -1.6872    0.9671 C   0  0  0  0  0  0  0  0  0  0  0  0
    2.6844   -2.4654   -1.2839 C   0  0  0  0  0  0  0  0  0  0  0  0
    0.2215    1.1376    0.4422 C   0  0  1  0  0  0  0  0  0  0  0  0
   -0.8345    0.0294    0.5399 C   0  0  1  0  0  0  0  0  0  0  0  0
    4.1538   -2.5757    0.9615 N   0  0  0  0  0  0  0  0  0  0  0  0
    2.8268   -1.0547    1.9839 O   0  0  0  0  0  0  0  0  0  0  0  0
    3.5599   -3.4715   -1.1974 C   0  0  0  0  0  0  0  0  0  0  0  0
   -1.7115    0.0280   -0.5925 O   0  0  0  0  0  0  0  0  0  0  0  0
    4.3343   -3.5933    0.0611 C   0  0  0  0  0  0  0  0  0  0  0  0
    0.6268    1.6661    1.8215 C   0  0  0  0  0  0  0  0  0  0  0  0
    0.0196    2.9365    2.0515 O   0  0  0  0  0  0  0  0  0  0  0  0
    5.0879   -4.5362    0.2973 O   0  0  0  0  0  0  0  0  0  0  0  0
    3.7522   -4.8455   -2.6930 I   0  0  0  0  0  0  0  0  0  0  0  0
    0.8089   -0.9277   -1.3979 H   0  0  0  0  0  0  0  0  0  0  0  0
    0.3176   -1.4873    1.5443 H   0  0  0  0  0  0  0  0  0  0  0  0
   -0.5462   -2.1001    0.1183 H   0  0  0  0  0  0  0  0  0  0  0  0
    2.1235   -2.3049   -2.1994 H   0  0  0  0  0  0  0  0  0  0  0  0
   -0.1294    1.9540   -0.2010 H   0  0  0  0  0  0  0  0  0  0  0  0
   -1.4729    0.1157    1.4239 H   0  0  0  0  0  0  0  0  0  0  0  0
    4.6814   -2.6541    1.8190 H   0  0  0  0  0  0  0  0  0  0  0  0
   -1.1953    0.0976   -1.4125 H   0  0  0  0  0  0  0  0  0  0  0  0
    0.2950    0.9970    2.6216 H   0  0  0  0  0  0  0  0  0  0  0  0
    1.7112    1.7805    1.9134 H   0  0  0  0  0  0  0  0  0  0  0  0
    0.3805    3.5492    1.3859 H   0  0  0  0  0  0  0  0  0  0  0  0
  1  3  1  0  0  0  0
  1  4  1  0  0  0  0
  1 18  1  6  0  0  0
  1  2  1  0  0  0  0
  2  5  1  0  0  0  0
  2  6  1  0  0  0  0
  3  7  1  0  0  0  0
  4  8  1  0  0  0  0
  4 19  1  0  0  0  0
  4 20  1  0  0  0  0
  5  9  1  0  0  0  0
  5 10  2  0  0  0  0
  6 11  2  0  0  0  0
  6 21  1  0  0  0  0
  7  8  1  0  0  0  0
  7 22  1  6  0  0  0
  7 14  1  0  0  0  0
  8 12  1  0  0  0  0
  8 23  1  1  0  0  0
  9 13  1  0  0  0  0
  9 24  1  0  0  0  0
 11 13  1  0  0  0  0
 11 17  1  0  0  0  0
 12 25  1  0  0  0  0
 13 16  2  0  0  0  0
 14 15  1  0  0  0  0
 14 26  1  0  0  0  0
 14 27  1  0  0  0  0
 15 28  1  0  0  0  0
M  END
>  <DRUGBANK_ID>
DB00249

>  <SECONDARY_ACCESSION_NUMBERS>
APRD00504; EXPT01835; DB03778

>  <COMMON_NAME>
Idoxuridine

>  <CAS_NUMBER>
54-42-2

>  <UNII>
LGP81V5245

>  <SYNONYMS>
(+)-5-Iodo-2'-deoxyuridine; 1-(2-Deoxy-beta-D-ribofuranosyl)-5-iodouracil; 1-beta-D-2'-Deoxyribofuranosyl-5-iodouracil; 1beta-D-2'-Deoxyribofuranosyl-5-iodouracil; 2'-Deoxy-5-iodouridine; 5-iodo-2'-deoxyuridine; 5-Iododeoxyuridine; 5-Iodouracil deoxyriboside; Idoxuridin; Idoxuridina; Idoxuridine; Idoxuridinum; IdU; Iododeoxyridine; Iodoxuridine; Joddeoxiuridin

$$$$
