
 OpenBabel10282417223D

 58 63  0  0  1  0  0  0  0  0999 V2000
   -0.9393   -0.3590    1.2366 C   0  0  0  0  0  0  0  0  0  0  0  0
    0.6176   -0.4080    1.2717 C   0  0  1  0  0  0  0  0  0  0  0  0
    0.9655    0.6363    2.3773 C   0  0  0  0  0  0  0  0  0  0  0  0
    1.2612   -0.1820    3.6279 C   0  0  0  0  0  0  0  0  0  0  0  0
    0.9791   -1.6619    3.2626 C   0  0  0  0  0  0  0  0  0  0  0  0
    1.0717   -1.7364    1.7903 N   0  0  0  0  0  0  0  0  0  0  0  0
    1.5294   -2.8684    1.0217 C   0  0  0  0  0  0  0  0  0  0  0  0
    1.0532   -4.0589    1.3004 N   0  0  0  0  0  0  0  0  0  0  0  0
    1.5340   -5.0876    0.5504 N   0  0  0  0  0  0  0  0  0  0  0  0
    1.1268   -6.4066    0.5970 C   0  0  0  0  0  0  0  0  0  0  0  0
    1.8901   -7.1542   -0.2716 C   0  0  0  0  0  0  0  0  0  0  0  0
    2.8155   -6.2651   -0.8332 C   0  0  0  0  0  0  0  0  0  0  0  0
    2.5223   -4.9905   -0.3825 C   0  0  0  0  0  0  0  0  0  0  0  0
    3.0457   -3.6884   -0.6765 C   0  0  0  0  0  0  0  0  0  0  0  0
    4.0498   -3.4411   -1.6448 N   0  0  0  0  0  0  0  0  0  0  0  0
    4.6837   -4.4269   -2.3584 C   0  0  0  0  0  0  0  0  0  0  0  0
    5.9550   -4.8331   -2.2092 N   0  0  0  0  0  0  0  0  0  0  0  0
    6.0662   -5.9227   -3.0101 N   0  0  0  0  0  0  0  0  0  0  0  0
    4.9511   -6.1669   -3.7614 C   0  0  0  0  0  0  0  0  0  0  0  0
    4.0733   -5.1538   -3.4324 C   0  0  0  0  0  0  0  0  0  0  0  0
    4.7360   -7.3827   -4.6625 C   0  0  0  0  0  0  0  0  0  0  0  0
    4.3506   -7.1784   -6.1090 C   0  0  0  0  0  0  0  0  0  0  0  0
    3.3383   -7.7135   -5.1514 C   0  0  0  0  0  0  0  0  0  0  0  0
    2.5215   -2.6947    0.0257 N   0  0  0  0  0  0  0  0  0  0  0  0
    1.2024   -0.0861   -0.1211 C   0  0  0  0  0  0  0  0  0  0  0  0
    0.4926   -0.1942   -1.1447 O   0  0  0  0  0  0  0  0  0  0  0  0
    2.4862    0.3804   -0.2972 N   0  0  0  0  0  0  0  0  0  0  0  0
    3.4816    0.6142    0.6732 C   0  0  0  0  0  0  0  0  0  0  0  0
    4.1174    1.8475    0.7455 C   0  0  0  0  0  0  0  0  0  0  0  0
    4.8946    2.2406    1.7901 N   0  0  0  0  0  0  0  0  0  0  0  0
    5.0685    1.3528    2.7939 C   0  0  0  0  0  0  0  0  0  0  0  0
    5.7599    1.7391    3.8740 F   0  0  0  0  0  0  0  0  0  0  0  0
    4.5454    0.0835    2.7845 C   0  0  0  0  0  0  0  0  0  0  0  0
    3.7715   -0.2856    1.6923 C   0  0  0  0  0  0  0  0  0  0  0  0
   -1.3817   -1.2366    0.7640 H   0  0  0  0  0  0  0  0  0  0  0  0
   -1.2890    0.5391    0.7079 H   0  0  0  0  0  0  0  0  0  0  0  0
   -1.3685   -0.2897    2.2493 H   0  0  0  0  0  0  0  0  0  0  0  0
    1.7867    1.3119    2.1479 H   0  0  0  0  0  0  0  0  0  0  0  0
    0.1575    1.3576    2.5629 H   0  0  0  0  0  0  0  0  0  0  0  0
    2.2995   -0.0500    3.9408 H   0  0  0  0  0  0  0  0  0  0  0  0
    0.6792    0.1834    4.4816 H   0  0  0  0  0  0  0  0  0  0  0  0
    1.6930   -2.3145    3.7726 H   0  0  0  0  0  0  0  0  0  0  0  0
   -0.0325   -1.8958    3.6137 H   0  0  0  0  0  0  0  0  0  0  0  0
    0.3257   -6.7111    1.2487 H   0  0  0  0  0  0  0  0  0  0  0  0
    1.8327   -8.2157   -0.4815 H   0  0  0  0  0  0  0  0  0  0  0  0
    3.5851   -6.5747   -1.5184 H   0  0  0  0  0  0  0  0  0  0  0  0
    4.5749   -2.5954   -1.4673 H   0  0  0  0  0  0  0  0  0  0  0  0
    6.9272   -6.4635   -2.9955 H   0  0  0  0  0  0  0  0  0  0  0  0
    3.0563   -5.0463   -3.7753 H   0  0  0  0  0  0  0  0  0  0  0  0
    5.4280   -8.2071   -4.4992 H   0  0  0  0  0  0  0  0  0  0  0  0
    4.2398   -6.1696   -6.4854 H   0  0  0  0  0  0  0  0  0  0  0  0
    4.7696   -7.8670   -6.8385 H   0  0  0  0  0  0  0  0  0  0  0  0
    3.0454   -8.7525   -5.2649 H   0  0  0  0  0  0  0  0  0  0  0  0
    2.5082   -7.0724   -4.8790 H   0  0  0  0  0  0  0  0  0  0  0  0
    2.6147    0.7616   -1.2265 H   0  0  0  0  0  0  0  0  0  0  0  0
    3.9331    2.6245    0.0096 H   0  0  0  0  0  0  0  0  0  0  0  0
    4.6534   -0.5814    3.6341 H   0  0  0  0  0  0  0  0  0  0  0  0
    3.3362   -1.2682    1.7240 H   0  0  0  0  0  0  0  0  0  0  0  0
  1 35  1  0  0  0  0
  1 36  1  0  0  0  0
  1 37  1  0  0  0  0
  2  3  1  0  0  0  0
  2  6  1  0  0  0  0
  2 25  1  6  0  0  0
  2  1  1  0  0  0  0
  3  4  1  0  0  0  0
  3 38  1  0  0  0  0
  3 39  1  0  0  0  0
  4  5  1  0  0  0  0
  4 40  1  0  0  0  0
  4 41  1  0  0  0  0
  5  6  1  0  0  0  0
  5 42  1  0  0  0  0
  5 43  1  0  0  0  0
  6  7  1  0  0  0  0
  7  8  2  0  0  0  0
  7 24  1  0  0  0  0
  8  9  1  0  0  0  0
  9 10  1  0  0  0  0
  9 13  1  0  0  0  0
 10 11  2  0  0  0  0
 10 44  1  0  0  0  0
 11 12  1  0  0  0  0
 11 45  1  0  0  0  0
 12 13  2  0  0  0  0
 12 46  1  0  0  0  0
 13 14  1  0  0  0  0
 14 15  1  0  0  0  0
 14 24  2  0  0  0  0
 15 16  1  0  0  0  0
 15 47  1  0  0  0  0
 16 17  2  0  0  0  0
 16 20  1  0  0  0  0
 17 18  1  0  0  0  0
 18 19  1  0  0  0  0
 18 48  1  0  0  0  0
 19 20  2  0  0  0  0
 19 21  1  0  0  0  0
 20 49  1  0  0  0  0
 21 22  1  0  0  0  0
 21 23  1  0  0  0  0
 21 50  1  0  0  0  0
 22 23  1  0  0  0  0
 22 51  1  0  0  0  0
 22 52  1  0  0  0  0
 23 53  1  0  0  0  0
 23 54  1  0  0  0  0
 25 26  2  0  0  0  0
 25 27  1  0  0  0  0
 27 28  1  0  0  0  0
 27 55  1  0  0  0  0
 28 29  2  0  0  0  0
 28 34  1  0  0  0  0
 29 30  1  0  0  0  0
 29 56  1  0  0  0  0
 30 31  2  0  0  0  0
 31 32  1  0  0  0  0
 31 33  1  0  0  0  0
 33 34  2  0  0  0  0
 33 57  1  0  0  0  0
 34 58  1  0  0  0  0
M  END
>  <DRUGBANK_ID>
DB15399

>  <COMMON_NAME>
BMS-754807

>  <CAS_NUMBER>
1001350-96-4

>  <UNII>
W9E3353E8J

$$$$
