1602
 OpenBabel10282417123D

 59 61  0  0  1  0  0  0  0  0999 V2000
   -2.2055   -6.2142    4.3677 S   0  0  0  0  0  0  0  0  0  0  0  0
   -1.9829   -1.9144    4.2856 O   0  0  0  0  0  0  0  0  0  0  0  0
   -4.0624   -2.7578    7.9432 O   0  0  0  0  0  0  0  0  0  0  0  0
   -5.1297   -4.5994    7.4640 O   0  0  0  0  0  0  0  0  0  0  0  0
   -0.0188   -4.2203    0.4061 O   0  0  0  0  0  0  0  0  0  0  0  0
   -1.7613   -2.1717    7.9507 O   0  0  0  0  0  0  0  0  0  0  0  0
   -2.3346   -2.6691   10.0924 O   0  0  0  0  0  0  0  0  0  0  0  0
   -0.2306   -3.1277    9.2990 O   0  0  0  0  0  0  0  0  0  0  0  0
   -3.3482   -3.8684    4.8025 N   0  0  0  0  0  0  0  0  0  0  0  0
   -1.2645   -4.0174    2.2175 N   0  0  0  0  0  0  0  0  0  0  0  0
   -2.1170   -3.5068   -1.3670 N   0  0  0  0  0  0  0  0  0  0  0  0
   -3.2067   -4.8955    3.7333 C   0  0  1  0  0  0  0  0  0  0  0  0
   -2.8904   -5.8710    6.0428 C   0  0  0  0  0  0  0  0  0  0  0  0
   -3.0565   -4.3155    6.1710 C   0  0  2  0  0  0  0  0  0  0  0  0
   -2.4957   -3.8667    2.9546 C   0  0  1  0  0  0  0  0  0  0  0  0
   -2.5310   -3.0009    4.1171 C   0  0  0  0  0  0  0  0  0  0  0  0
   -1.8339   -6.4170    6.9776 C   0  0  0  0  0  0  0  0  0  0  0  0
   -4.1981   -6.6722    6.0877 C   0  0  0  0  0  0  0  0  0  0  0  0
   -4.1363   -3.9101    7.2388 C   0  0  0  0  0  0  0  0  0  0  0  0
   -1.1649   -4.1209    0.8587 C   0  0  0  0  0  0  0  0  0  0  0  0
   -2.4486   -4.1509   -0.0861 C   0  0  1  0  0  0  0  0  0  0  0  0
   -3.0994   -1.7031    7.8094 C   0  0  3  0  0  0  0  0  0  0  0  0
   -3.7416   -3.4716    0.3768 C   0  0  0  0  0  0  0  0  0  0  0  0
   -3.3145   -1.0539    6.4696 C   0  0  0  0  0  0  0  0  0  0  0  0
   -3.7061   -2.1635    0.9365 C   0  0  0  0  0  0  0  0  0  0  0  0
   -4.9552   -4.1807    0.3877 C   0  0  0  0  0  0  0  0  0  0  0  0
   -4.7799   -1.7168    1.7152 C   0  0  0  0  0  0  0  0  0  0  0  0
   -6.0868   -3.6086    0.9745 C   0  0  0  0  0  0  0  0  0  0  0  0
   -1.3561   -2.6833    9.1468 C   0  0  0  0  0  0  0  0  0  0  0  0
   -5.9772   -2.4263    1.7097 C   0  0  0  0  0  0  0  0  0  0  0  0
   -1.9703   -3.1590   11.3964 C   0  0  0  0  0  0  0  0  0  0  0  0
   -1.6600   -4.6478   11.3997 C   0  0  0  0  0  0  0  0  0  0  0  0
   -4.1778   -5.1701    3.2996 H   0  0  0  0  0  0  0  0  0  0  0  0
   -0.3752   -3.8205    2.6762 H   0  0  0  0  0  0  0  0  0  0  0  0
   -1.4284   -2.7788   -1.1748 H   0  0  0  0  0  0  0  0  0  0  0  0
   -2.9505   -3.0061   -1.6808 H   0  0  0  0  0  0  0  0  0  0  0  0
   -2.0867   -3.8916    6.4363 H   0  0  0  0  0  0  0  0  0  0  0  0
   -3.2826   -3.5261    2.3683 H   0  0  0  0  0  0  0  0  0  0  0  0
   -2.1502   -6.3021    8.0138 H   0  0  0  0  0  0  0  0  0  0  0  0
   -1.6547   -7.4810    6.7833 H   0  0  0  0  0  0  0  0  0  0  0  0
   -0.8799   -5.8887    6.8483 H   0  0  0  0  0  0  0  0  0  0  0  0
   -4.0680   -7.7120    5.7743 H   0  0  0  0  0  0  0  0  0  0  0  0
   -4.5835   -6.7230    7.1076 H   0  0  0  0  0  0  0  0  0  0  0  0
   -4.9748   -6.2259    5.4490 H   0  0  0  0  0  0  0  0  0  0  0  0
   -2.6338   -5.2207   -0.2568 H   0  0  0  0  0  0  0  0  0  0  0  0
   -3.2958   -0.9294    8.5576 H   0  0  0  0  0  0  0  0  0  0  0  0
   -4.3025   -0.6308    6.2821 H   0  0  0  0  0  0  0  0  0  0  0  0
   -2.5060   -0.3954    6.1457 H   0  0  0  0  0  0  0  0  0  0  0  0
   -3.3519   -1.8799    5.8086 H   0  0  0  0  0  0  0  0  0  0  0  0
   -2.7427   -1.6620    1.0582 H   0  0  0  0  0  0  0  0  0  0  0  0
   -5.0190   -5.1940   -0.0090 H   0  0  0  0  0  0  0  0  0  0  0  0
   -4.6384   -0.8837    2.4036 H   0  0  0  0  0  0  0  0  0  0  0  0
   -7.0506   -4.1052    0.8959 H   0  0  0  0  0  0  0  0  0  0  0  0
   -6.8194   -2.0717    2.2989 H   0  0  0  0  0  0  0  0  0  0  0  0
   -1.1352   -2.5696   11.7906 H   0  0  0  0  0  0  0  0  0  0  0  0
   -2.8278   -2.9786   12.0565 H   0  0  0  0  0  0  0  0  0  0  0  0
   -0.8104   -4.8886   10.7562 H   0  0  0  0  0  0  0  0  0  0  0  0
   -1.4134   -4.9907   12.4087 H   0  0  0  0  0  0  0  0  0  0  0  0
   -2.5126   -5.2205   11.0232 H   0  0  0  0  0  0  0  0  0  0  0  0
  1 12  1  0  0  0  0
  1 13  1  0  0  0  0
  2 16  2  0  0  0  0
  3 19  1  0  0  0  0
  3 22  1  0  0  0  0
  4 19  2  0  0  0  0
  5 20  2  0  0  0  0
  6 22  1  0  0  0  0
  6 29  1  0  0  0  0
  7 29  1  0  0  0  0
  7 31  1  0  0  0  0
  8 29  2  0  0  0  0
  9 12  1  0  0  0  0
  9 14  1  0  0  0  0
  9 16  1  0  0  0  0
 10 20  1  0  0  0  0
 10 34  1  0  0  0  0
 11 35  1  0  0  0  0
 11 36  1  0  0  0  0
 12 15  1  0  0  0  0
 12 33  1  6  0  0  0
 13 14  1  0  0  0  0
 13 17  1  0  0  0  0
 13 18  1  0  0  0  0
 14 37  1  1  0  0  0
 14 19  1  0  0  0  0
 15 16  1  0  0  0  0
 15 38  1  6  0  0  0
 15 10  1  0  0  0  0
 17 39  1  0  0  0  0
 17 40  1  0  0  0  0
 17 41  1  0  0  0  0
 18 42  1  0  0  0  0
 18 43  1  0  0  0  0
 18 44  1  0  0  0  0
 21 23  1  0  0  0  0
 21 45  1  6  0  0  0
 21 20  1  0  0  0  0
 21 11  1  0  0  0  0
 22 24  1  0  0  0  0
 22 46  1  0  0  0  0
 23 25  2  0  0  0  0
 23 26  1  0  0  0  0
 24 47  1  0  0  0  0
 24 48  1  0  0  0  0
 24 49  1  0  0  0  0
 25 27  1  0  0  0  0
 25 50  1  0  0  0  0
 26 28  2  0  0  0  0
 26 51  1  0  0  0  0
 27 30  2  0  0  0  0
 27 52  1  0  0  0  0
 28 30  1  0  0  0  0
 28 53  1  0  0  0  0
 30 54  1  0  0  0  0
 31 32  1  0  0  0  0
 31 55  1  0  0  0  0
 31 56  1  0  0  0  0
 32 57  1  0  0  0  0
 32 58  1  0  0  0  0
 32 59  1  0  0  0  0
M  END
>  <DRUGBANK_ID>
DB01602

>  <COMMON_NAME>
Bacampicillin

>  <CAS_NUMBER>
50972-17-3

>  <UNII>
8GM2J22278

>  <SYNONYMS>
1-[(ethoxycarbonyl)oxy]ethyl (2S,5R,6R)-6-{[(2R)-2-amino-2-phenylacetyl]amino}-3,3-dimethyl-7-oxo-4-thia-1-azabicyclo[3.2.0]heptane-2-carboxylate; 1'-ethoxycarbonyloxyethyl-(6-D-Î±-aminophenylacetamido)penicillanate; Bacampicilina; Bacampicillin; Bacampicilline; Bacampicillinum

$$$$
