
 OpenBabel10282417173D

 60 62  0  0  1  0  0  0  0  0999 V2000
    3.7239   -0.6794    0.0646 C   0  0  0  0  0  0  0  0  0  0  0  0
    3.7085    0.7085   -0.0403 C   0  0  0  0  0  0  0  0  0  0  0  0
    2.4940    1.3786   -0.1157 C   0  0  0  0  0  0  0  0  0  0  0  0
    1.2883    0.6590   -0.1021 C   0  0  0  0  0  0  0  0  0  0  0  0
    1.2960   -0.7485   -0.0230 C   0  0  0  0  0  0  0  0  0  0  0  0
    2.5305   -1.3966    0.0865 C   0  0  0  0  0  0  0  0  0  0  0  0
   -0.0002    1.4366   -0.1791 C   0  0  0  0  0  0  0  0  0  0  0  0
   -1.2164    0.5956    0.2573 C   0  0  2  0  0  0  0  0  0  0  0  0
   -1.2366   -0.7595   -0.4562 C   0  0  1  0  0  0  0  0  0  0  0  0
    0.0026   -1.5265    0.0352 C   0  0  0  0  0  0  0  0  0  0  0  0
   -2.4860    1.3036    0.3167 N   0  0  0  0  0  0  0  0  0  0  0  0
   -3.7108    0.5495    0.5125 C   0  0  0  0  0  0  0  0  0  0  0  0
   -3.7565   -0.6955   -0.3892 C   0  0  2  0  0  0  0  0  0  0  0  0
   -2.5095   -1.5264   -0.0660 C   0  0  0  0  0  0  0  0  0  0  0  0
    2.6480   -2.7517    0.2218 O   0  0  0  0  0  0  0  0  0  0  0  0
   -2.5363    2.6750    0.7854 C   0  0  0  0  0  0  0  0  0  0  0  0
   -2.5749    2.6654    2.3028 C   0  0  0  0  0  0  0  0  0  0  0  0
   -1.3646    1.9948    2.9338 C   0  0  0  0  0  0  0  0  0  0  0  0
   -1.0081    0.2650    1.2587 H   0  0  0  0  0  0  0  0  0  0  0  0
   -1.1914   -0.6453   -1.5453 H   0  0  0  0  0  0  0  0  0  0  0  0
   -3.8404   -0.4048   -1.8959 N   0  0  0  0  0  0  0  0  0  0  0  0
   -3.9351    1.2298   -2.3166 S   0  0  0  0  0  0  0  0  0  0  0  0
   -3.7634    1.3584   -3.9691 N   0  0  0  0  0  0  0  0  0  0  0  0
   -3.8880    2.8290   -4.3682 C   0  0  0  0  0  0  0  0  0  0  0  0
   -2.5755    0.6640   -4.5605 C   0  0  0  0  0  0  0  0  0  0  0  0
   -1.1913    1.1129   -4.1018 C   0  0  0  0  0  0  0  0  0  0  0  0
   -2.8155    3.8018   -3.8438 C   0  0  0  0  0  0  0  0  0  0  0  0
   -5.2658    1.6850   -1.9517 O   0  0  0  0  0  0  0  0  0  0  0  0
   -2.7596    1.9113   -1.9004 O   0  0  0  0  0  0  0  0  0  0  0  0
    4.6689   -1.2090    0.1289 H   0  0  0  0  0  0  0  0  0  0  0  0
    4.6397    1.2661   -0.0617 H   0  0  0  0  0  0  0  0  0  0  0  0
    2.4839    2.4658   -0.1817 H   0  0  0  0  0  0  0  0  0  0  0  0
    0.1163    2.2948    0.4905 H   0  0  0  0  0  0  0  0  0  0  0  0
   -0.1132    1.8405   -1.1891 H   0  0  0  0  0  0  0  0  0  0  0  0
   -0.1395   -1.8091    1.0898 H   0  0  0  0  0  0  0  0  0  0  0  0
    0.0824   -2.4440   -0.5518 H   0  0  0  0  0  0  0  0  0  0  0  0
   -4.5929    1.1701    0.3154 H   0  0  0  0  0  0  0  0  0  0  0  0
   -3.7912    0.2512    1.5608 H   0  0  0  0  0  0  0  0  0  0  0  0
   -4.6485   -1.2683   -0.1053 H   0  0  0  0  0  0  0  0  0  0  0  0
   -2.4912   -1.7085    1.0228 H   0  0  0  0  0  0  0  0  0  0  0  0
   -2.5381   -2.5115   -0.5378 H   0  0  0  0  0  0  0  0  0  0  0  0
    1.7678   -3.1541    0.2623 H   0  0  0  0  0  0  0  0  0  0  0  0
   -1.7232    3.2947    0.3833 H   0  0  0  0  0  0  0  0  0  0  0  0
   -3.4360    3.1735    0.3866 H   0  0  0  0  0  0  0  0  0  0  0  0
   -2.6646    3.6893    2.6630 H   0  0  0  0  0  0  0  0  0  0  0  0
   -3.4776    2.1338    2.6220 H   0  0  0  0  0  0  0  0  0  0  0  0
   -0.4333    2.4013    2.5284 H   0  0  0  0  0  0  0  0  0  0  0  0
   -1.3646    2.0840    4.0134 H   0  0  0  0  0  0  0  0  0  0  0  0
   -1.3858    0.9152    2.8011 H   0  0  0  0  0  0  0  0  0  0  0  0
   -4.6545   -0.8875   -2.2775 H   0  0  0  0  0  0  0  0  0  0  0  0
   -3.9239    2.8837   -5.4577 H   0  0  0  0  0  0  0  0  0  0  0  0
   -4.8611    3.1923   -4.0091 H   0  0  0  0  0  0  0  0  0  0  0  0
   -2.6755   -0.4078   -4.3526 H   0  0  0  0  0  0  0  0  0  0  0  0
   -2.6412    0.7725   -5.6473 H   0  0  0  0  0  0  0  0  0  0  0  0
   -1.0613    1.1080   -3.0230 H   0  0  0  0  0  0  0  0  0  0  0  0
   -0.4082    0.4669   -4.4990 H   0  0  0  0  0  0  0  0  0  0  0  0
   -0.9295    2.0999   -4.4653 H   0  0  0  0  0  0  0  0  0  0  0  0
   -1.8504    3.6433   -4.3104 H   0  0  0  0  0  0  0  0  0  0  0  0
   -3.0623    4.8375   -4.0761 H   0  0  0  0  0  0  0  0  0  0  0  0
   -2.6619    3.7982   -2.7634 H   0  0  0  0  0  0  0  0  0  0  0  0
  1  2  2  0  0  0  0
  1  6  1  0  0  0  0
  1 30  1  0  0  0  0
  2  3  1  0  0  0  0
  2 31  1  0  0  0  0
  3  4  2  0  0  0  0
  3 32  1  0  0  0  0
  4  5  1  0  0  0  0
  4  7  1  0  0  0  0
  5  6  2  0  0  0  0
  5 10  1  0  0  0  0
  6 15  1  0  0  0  0
  7  8  1  0  0  0  0
  7 33  1  0  0  0  0
  7 34  1  0  0  0  0
  8  9  1  0  0  0  0
  8 11  1  0  0  0  0
  8 19  1  1  0  0  0
  9 10  1  0  0  0  0
  9 14  1  0  0  0  0
  9 20  1  6  0  0  0
 10 35  1  0  0  0  0
 10 36  1  0  0  0  0
 11 12  1  0  0  0  0
 11 16  1  0  0  0  0
 12 13  1  0  0  0  0
 12 37  1  0  0  0  0
 12 38  1  0  0  0  0
 13 14  1  0  0  0  0
 13 39  1  1  0  0  0
 13 21  1  0  0  0  0
 14 40  1  0  0  0  0
 14 41  1  0  0  0  0
 15 42  1  0  0  0  0
 16 17  1  0  0  0  0
 16 43  1  0  0  0  0
 16 44  1  0  0  0  0
 17 18  1  0  0  0  0
 17 45  1  0  0  0  0
 17 46  1  0  0  0  0
 18 47  1  0  0  0  0
 18 48  1  0  0  0  0
 18 49  1  0  0  0  0
 21 22  1  0  0  0  0
 21 50  1  0  0  0  0
 22 23  1  0  0  0  0
 22 28  2  0  0  0  0
 22 29  2  0  0  0  0
 23 24  1  0  0  0  0
 23 25  1  0  0  0  0
 24 27  1  0  0  0  0
 24 51  1  0  0  0  0
 24 52  1  0  0  0  0
 25 26  1  0  0  0  0
 25 53  1  0  0  0  0
 25 54  1  0  0  0  0
 26 55  1  0  0  0  0
 26 56  1  0  0  0  0
 26 57  1  0  0  0  0
 27 58  1  0  0  0  0
 27 59  1  0  0  0  0
 27 60  1  0  0  0  0
M  END
>  <DRUGBANK_ID>
DB09097

>  <COMMON_NAME>
Quinagolide

>  <CAS_NUMBER>
87056-78-8

>  <UNII>
80Q9QWN15M

>  <SYNONYMS>
(+-)-N,N-Diethyl-N'-((3R*,4aR*,10aS*)-1,2,3,4,4a,5,10,10a-octahydro-6-hydroxy-1-propylbenzo(g)quinolin-3-yl)sulfamide; Quinagolida; Quinagolide; Quinagolidum

$$$$
