SBB
 OpenBabel10282417133D

 47 49  0  0  0  0  0  0  0  0999 V2000
    1.2144   -0.3100    0.2241 C   0  0  0  0  0  0  0  0  0  0  0  0
    0.3484   -1.3747    0.0718 C   0  0  0  0  0  0  0  0  0  0  0  0
   -1.0008   -1.1190   -0.0198 C   0  0  0  0  0  0  0  0  0  0  0  0
   -1.4609    0.2011   -0.0170 C   0  0  0  0  0  0  0  0  0  0  0  0
   -0.5362    1.2684   -0.0037 C   0  0  0  0  0  0  0  0  0  0  0  0
    0.8433    1.0200    0.0199 C   0  0  0  0  0  0  0  0  0  0  0  0
    1.8056    2.1637   -0.2173 C   0  0  0  0  0  0  0  0  0  0  0  0
    1.3691    3.3132   -0.3014 O   0  0  0  0  0  0  0  0  0  0  0  0
    3.1607    1.9831   -0.4287 N   0  0  0  0  0  0  0  0  0  0  0  0
    3.9595    0.7730   -0.4077 C   0  0  0  0  0  0  0  0  0  0  0  0
    4.7221    0.4034   -1.6711 C   0  0  1  0  0  0  0  0  0  0  0  0
    5.8013    1.4293   -1.9789 C   0  0  0  0  0  0  0  0  0  0  0  0
    6.8274    1.5705   -0.8674 C   0  0  0  0  0  0  0  0  0  0  0  0
   -2.0594   -2.5272    0.0004 S   0  0  0  0  0  0  0  0  0  0  0  0
   -2.9197   -2.3248    1.4315 N   0  0  0  0  0  0  0  0  0  0  0  0
   -2.9956   -2.4108   -1.1086 O   0  0  0  0  0  0  0  0  0  0  0  0
   -1.2673   -3.7035    0.2103 O   0  0  0  0  0  0  0  0  0  0  0  0
    6.4994   -3.9327    0.4751 C   0  0  0  0  0  0  0  0  0  0  0  0
    6.0501   -5.1475   -0.1248 C   0  0  0  0  0  0  0  0  0  0  0  0
    6.4014   -2.8974   -0.5490 C   0  0  0  0  0  0  0  0  0  0  0  0
    6.8007   -4.8621   -1.3184 N   0  0  0  0  0  0  0  0  0  0  0  0
    6.1124   -3.6758   -1.6610 C   0  0  0  0  0  0  0  0  0  0  0  0
    6.1682   -1.5085   -0.6152 C   0  0  0  0  0  0  0  0  0  0  0  0
    4.9376   -3.3798   -2.3396 C   0  0  0  0  0  0  0  0  0  0  0  0
    5.2106   -1.0607   -1.5704 C   0  0  0  0  0  0  0  0  0  0  0  0
    4.5252   -2.0407   -2.3204 C   0  0  0  0  0  0  0  0  0  0  0  0
    3.9910    0.4483   -2.4977 H   0  0  0  0  0  0  0  0  0  0  0  0
    2.1686   -0.6341    0.5977 H   0  0  0  0  0  0  0  0  0  0  0  0
    0.7583   -2.3820    0.0896 H   0  0  0  0  0  0  0  0  0  0  0  0
   -2.5268    0.4106   -0.0432 H   0  0  0  0  0  0  0  0  0  0  0  0
   -0.9001    2.2962    0.0154 H   0  0  0  0  0  0  0  0  0  0  0  0
    3.6515    2.8639   -0.5584 H   0  0  0  0  0  0  0  0  0  0  0  0
    4.5329    0.7500    0.5224 H   0  0  0  0  0  0  0  0  0  0  0  0
    3.3140   -0.0601   -0.3903 H   0  0  0  0  0  0  0  0  0  0  0  0
    6.2938    1.1567   -2.9168 H   0  0  0  0  0  0  0  0  0  0  0  0
    5.3197    2.4024   -2.1406 H   0  0  0  0  0  0  0  0  0  0  0  0
    7.4953    0.7086   -0.8647 H   0  0  0  0  0  0  0  0  0  0  0  0
    7.4534    2.4473   -1.0170 H   0  0  0  0  0  0  0  0  0  0  0  0
    6.3653    1.6569    0.1216 H   0  0  0  0  0  0  0  0  0  0  0  0
   -3.6230   -3.0649    1.4788 H   0  0  0  0  0  0  0  0  0  0  0  0
   -2.2973   -2.3779    2.2406 H   0  0  0  0  0  0  0  0  0  0  0  0
    7.2045   -3.9098    1.2904 H   0  0  0  0  0  0  0  0  0  0  0  0
    5.0737   -5.4864   -0.4992 H   0  0  0  0  0  0  0  0  0  0  0  0
    7.7980   -4.8322   -1.1252 H   0  0  0  0  0  0  0  0  0  0  0  0
    6.5807   -0.8533    0.1405 H   0  0  0  0  0  0  0  0  0  0  0  0
    4.3030   -4.1727   -2.7128 H   0  0  0  0  0  0  0  0  0  0  0  0
    3.6246   -1.7896   -2.8788 H   0  0  0  0  0  0  0  0  0  0  0  0
  1  2  2  0  0  0  0
  1  6  1  0  0  0  0
  1 28  1  0  0  0  0
  2  3  1  0  0  0  0
  2 29  1  0  0  0  0
  3  4  2  0  0  0  0
  3 14  1  0  0  0  0
  4  5  1  0  0  0  0
  4 30  1  0  0  0  0
  5  6  2  0  0  0  0
  5 31  1  0  0  0  0
  6  7  1  0  0  0  0
  7  8  2  0  0  0  0
  7  9  1  0  0  0  0
  9 10  1  0  0  0  0
  9 32  1  0  0  0  0
 10 11  1  0  0  0  0
 10 33  1  0  0  0  0
 10 34  1  0  0  0  0
 11 12  1  0  0  0  0
 11 25  1  0  0  0  0
 11 27  1  6  0  0  0
 12 13  1  0  0  0  0
 12 35  1  0  0  0  0
 12 36  1  0  0  0  0
 13 37  1  0  0  0  0
 13 38  1  0  0  0  0
 13 39  1  0  0  0  0
 14 15  1  0  0  0  0
 14 16  2  0  0  0  0
 14 17  2  0  0  0  0
 15 40  1  0  0  0  0
 15 41  1  0  0  0  0
 18 19  2  0  0  0  0
 18 20  1  0  0  0  0
 18 42  1  0  0  0  0
 19 21  1  0  0  0  0
 19 43  1  0  0  0  0
 20 22  2  0  0  0  0
 20 23  1  0  0  0  0
 21 22  1  0  0  0  0
 21 44  1  0  0  0  0
 22 24  1  0  0  0  0
 23 25  2  0  0  0  0
 23 45  1  0  0  0  0
 24 26  2  0  0  0  0
 24 46  1  0  0  0  0
 25 26  1  0  0  0  0
 26 47  1  0  0  0  0
M  END
>  <DRUGBANK_ID>
DB03596

>  <SECONDARY_ACCESSION_NUMBERS>
EXPT02851

>  <COMMON_NAME>
N-[2-(1h-Indol-5-Yl)-Butyl]-4-Sulfamoyl-Benzamide

$$$$
