
 OpenBabel10282417183D

 27 28  0  0  0  0  0  0  0  0999 V2000
    0.1298    1.3088   -0.0029 C   0  0  0  0  0  0  0  0  0  0  0  0
   -0.9614   -4.4860   -3.7612 C   0  0  0  0  0  0  0  0  0  0  0  0
   -1.2675    1.2621   -0.0100 C   0  0  0  0  0  0  0  0  0  0  0  0
    0.0290   -4.3718   -2.7926 C   0  0  0  0  0  0  0  0  0  0  0  0
   -1.8847   -2.5464    0.0043 C   0  0  0  0  0  0  0  0  0  0  0  0
    0.1781   -1.0851    0.1369 C   0  0  0  0  0  0  0  0  0  0  0  0
   -2.5654   -3.4963   -2.2367 C   0  0  0  0  0  0  0  0  0  0  0  0
   -1.2223   -1.1742    0.0508 C   0  0  0  0  0  0  0  0  0  0  0  0
   -1.5686   -3.3368   -1.2594 C   0  0  0  0  0  0  0  0  0  0  0  0
    0.8488    0.1307    0.0630 C   0  0  0  0  0  0  0  0  0  0  0  0
   -2.2620   -4.0863   -3.4664 C   0  0  0  0  0  0  0  0  0  0  0  0
   -1.9330    0.0262    0.0025 C   0  0  0  0  0  0  0  0  0  0  0  0
   -0.2966   -3.8632   -1.5363 C   0  0  0  0  0  0  0  0  0  0  0  0
    2.5692    0.1397    0.0422 Cl  0  0  0  0  0  0  0  0  0  0  0  0
   -3.5017   -4.3111   -4.6379 Cl  0  0  0  0  0  0  0  0  0  0  0  0
   -3.2988   -0.0028   -0.0178 O   0  0  0  0  0  0  0  0  0  0  0  0
    0.6524   -3.9285   -0.5577 O   0  0  0  0  0  0  0  0  0  0  0  0
    0.6500    2.2620   -0.0358 H   0  0  0  0  0  0  0  0  0  0  0  0
   -0.7159   -4.9098   -4.7304 H   0  0  0  0  0  0  0  0  0  0  0  0
   -1.8172    2.1963   -0.0343 H   0  0  0  0  0  0  0  0  0  0  0  0
    1.0393   -4.6990   -3.0166 H   0  0  0  0  0  0  0  0  0  0  0  0
   -1.6046   -3.1254    0.8923 H   0  0  0  0  0  0  0  0  0  0  0  0
   -2.9748   -2.4302    0.0807 H   0  0  0  0  0  0  0  0  0  0  0  0
    0.7760   -1.9722    0.2624 H   0  0  0  0  0  0  0  0  0  0  0  0
   -3.5801   -3.1575   -2.0410 H   0  0  0  0  0  0  0  0  0  0  0  0
   -3.6343    0.9084   -0.0025 H   0  0  0  0  0  0  0  0  0  0  0  0
    1.5299   -3.9632   -0.9755 H   0  0  0  0  0  0  0  0  0  0  0  0
  1 18  1  0  0  0  0
  2 19  1  0  0  0  0
  3  1  1  0  0  0  0
  3 20  1  0  0  0  0
  4  2  1  0  0  0  0
  4 21  1  0  0  0  0
  5 22  1  0  0  0  0
  5 23  1  0  0  0  0
  6 24  1  0  0  0  0
  7 25  1  0  0  0  0
  8  5  1  0  0  0  0
  8  6  2  0  0  0  0
  9  5  1  0  0  0  0
  9  7  2  0  0  0  0
 10  1  2  0  0  0  0
 10  6  1  0  0  0  0
 11  2  2  0  0  0  0
 11  7  1  0  0  0  0
 12  3  2  0  0  0  0
 12  8  1  0  0  0  0
 13  4  2  0  0  0  0
 13  9  1  0  0  0  0
 14 10  1  0  0  0  0
 15 11  1  0  0  0  0
 16 12  1  0  0  0  0
 16 26  1  0  0  0  0
 17 13  1  0  0  0  0
 17 27  1  0  0  0  0
M  END
>  <DRUGBANK_ID>
DB11396

>  <COMMON_NAME>
Dichlorophen

>  <CAS_NUMBER>
97-23-4

>  <UNII>
T1J0JOU64O

>  <SYNONYMS>
2,2'-Methylenebis(4-chlorophenol); Dichlorophen; Dichlorophene; Dichlorophenum; Diclorofeno

$$$$
