
 OpenBabel10282417163D

 36 37  0  0  0  0  0  0  0  0999 V2000
    3.1451   -5.3356    3.0669 N   0  0  0  0  0  0  0  0  0  0  0  0
    3.0576   -6.6772    3.4739 C   0  0  0  0  0  0  0  0  0  0  0  0
    3.8959   -7.2495    4.4378 C   0  0  0  0  0  0  0  0  0  0  0  0
    5.0481   -6.1466    5.4694 Br  0  0  0  0  0  0  0  0  0  0  0  0
    3.9042   -8.6291    4.6960 C   0  0  0  0  0  0  0  0  0  0  0  0
    3.0674   -9.4689    3.9634 C   0  0  0  0  0  0  0  0  0  0  0  0
    3.0824  -11.3350    4.2723 Br  0  0  0  0  0  0  0  0  0  0  0  0
    2.2455   -8.9315    2.9905 C   0  0  0  0  0  0  0  0  0  0  0  0
    2.2509   -7.5381    2.7188 C   0  0  0  0  0  0  0  0  0  0  0  0
    1.4123   -6.9968    1.5872 C   0  0  0  0  0  0  0  0  0  0  0  0
    0.4723   -5.9298    1.9449 N   0  0  0  0  0  0  0  0  0  0  0  0
   -0.8765   -6.0067    1.3267 C   0  0  2  0  0  0  0  0  0  0  0  0
   -1.5117   -7.3720    1.6424 C   0  0  0  0  0  0  0  0  0  0  0  0
   -1.1790   -8.4939    0.6282 C   0  0  0  0  0  0  0  0  0  0  0  0
   -1.5427   -8.0969   -0.7823 C   0  0  1  0  0  0  0  0  0  0  0  0
   -2.9578   -8.0861   -0.8571 O   0  0  0  0  0  0  0  0  0  0  0  0
   -0.9164   -6.7490   -1.1671 C   0  0  0  0  0  0  0  0  0  0  0  0
   -1.1729   -5.6413   -0.1466 C   0  0  0  0  0  0  0  0  0  0  0  0
    3.4675   -4.6993    3.7896 H   0  0  0  0  0  0  0  0  0  0  0  0
    2.2877   -5.0085    2.6107 H   0  0  0  0  0  0  0  0  0  0  0  0
    4.5627   -9.0473    5.4458 H   0  0  0  0  0  0  0  0  0  0  0  0
    1.6016   -9.6043    2.4149 H   0  0  0  0  0  0  0  0  0  0  0  0
    2.0050   -6.7405    0.7079 H   0  0  0  0  0  0  0  0  0  0  0  0
    0.8777   -7.8755    1.3611 H   0  0  0  0  0  0  0  0  0  0  0  0
    0.2950   -6.0498    2.9503 H   0  0  0  0  0  0  0  0  0  0  0  0
   -1.4138   -5.2231    1.8837 H   0  0  0  0  0  0  0  0  0  0  0  0
   -2.5986   -7.2258    1.6659 H   0  0  0  0  0  0  0  0  0  0  0  0
   -1.2372   -7.6834    2.6576 H   0  0  0  0  0  0  0  0  0  0  0  0
   -1.6705   -9.4059    0.9722 H   0  0  0  0  0  0  0  0  0  0  0  0
   -0.1473   -8.8141    0.5177 H   0  0  0  0  0  0  0  0  0  0  0  0
   -1.1812   -8.8593   -1.4817 H   0  0  0  0  0  0  0  0  0  0  0  0
   -3.2433   -8.9727   -0.5638 H   0  0  0  0  0  0  0  0  0  0  0  0
    0.1673   -6.8575   -1.2902 H   0  0  0  0  0  0  0  0  0  0  0  0
   -1.3248   -6.4361   -2.1366 H   0  0  0  0  0  0  0  0  0  0  0  0
   -2.2516   -5.4205   -0.2007 H   0  0  0  0  0  0  0  0  0  0  0  0
   -0.6814   -4.7094   -0.4529 H   0  0  0  0  0  0  0  0  0  0  0  0
  1  2  1  0  0  0  0
  1 19  1  0  0  0  0
  1 20  1  0  0  0  0
  2  3  2  0  0  0  0
  2  9  1  0  0  0  0
  3  4  1  0  0  0  0
  3  5  1  0  0  0  0
  5  6  2  0  0  0  0
  5 21  1  0  0  0  0
  6  7  1  0  0  0  0
  6  8  1  0  0  0  0
  8  9  2  0  0  0  0
  8 22  1  0  0  0  0
  9 10  1  0  0  0  0
 10 11  1  0  0  0  0
 10 23  1  0  0  0  0
 10 24  1  0  0  0  0
 11 25  1  0  0  0  0
 12 13  1  0  0  0  0
 12 18  1  0  0  0  0
 12 26  1  1  0  0  0
 12 11  1  0  0  0  0
 13 14  1  0  0  0  0
 13 27  1  0  0  0  0
 13 28  1  0  0  0  0
 14 15  1  0  0  0  0
 14 29  1  0  0  0  0
 14 30  1  0  0  0  0
 15 17  1  0  0  0  0
 15 31  1  6  0  0  0
 15 16  1  0  0  0  0
 16 32  1  0  0  0  0
 17 18  1  0  0  0  0
 17 33  1  0  0  0  0
 17 34  1  0  0  0  0
 18 35  1  0  0  0  0
 18 36  1  0  0  0  0
M  END
>  <DRUGBANK_ID>
DB06742

>  <COMMON_NAME>
Ambroxol

>  <CAS_NUMBER>
18683-91-5

>  <UNII>
200168S0CL

>  <SYNONYMS>
Ambroxol; Ambroxolum; Bisolvon metabolite vIII; Bromhexine metabolite vIII; Bromhexine-metabolite vIII; Cyclohexanol, 4-((2-amino-3,5-dibromobenzyl)amino)- (E)-; N-(2-Amino-3,4-dibromociclohexil)-trans-4-aminociclohexanol; N-(2-Amino-3,4-dibromocyclohexyl)-trans-4-aminocyclohexanol; trans-4-((2-Amino-3,5-dibromobencil)amino)ciclohexanol; trans-4-((2-Amino-3,5-dibromobenzyl)amine)cyclohexanol; trans-4-((2-Amino-3,5-dibromobenzyl)amino)cyclohexanol

$$$$
