
 OpenBabel10282417203D

 22 22  0  0  0  0  0  0  0  0999 V2000
    0.8017    0.0565    0.0762 C   0  0  0  0  0  0  0  0  0  0  0  0
    0.5203    1.0161   -0.9474 O   0  0  0  0  0  0  0  0  0  0  0  0
    0.9274    2.3145   -0.7117 C   0  0  0  0  0  0  0  0  0  0  0  0
   -0.0391    3.3322   -0.8878 C   0  0  0  0  0  0  0  0  0  0  0  0
    0.3326    4.6737   -0.7346 C   0  0  0  0  0  0  0  0  0  0  0  0
    1.6335    4.9800   -0.4196 N   0  0  0  0  0  0  0  0  0  0  0  0
    2.5817    4.0062   -0.3100 C   0  0  0  0  0  0  0  0  0  0  0  0
    2.2720    2.6584   -0.4820 C   0  0  0  0  0  0  0  0  0  0  0  0
    3.4684    1.4067   -0.6080 Cl  0  0  0  0  0  0  0  0  0  0  0  0
    3.7993    4.5754   -0.0519 O   0  0  0  0  0  0  0  0  0  0  0  0
    4.9381    3.7540    0.1413 C   0  0  0  0  0  0  0  0  0  0  0  0
   -0.6592    5.8430   -0.8983 C   0  0  0  0  0  0  0  0  0  0  0  0
   -1.3372    5.9211   -2.5635 Cl  0  0  0  0  0  0  0  0  0  0  0  0
   -1.9926    5.7384    0.3074 Cl  0  0  0  0  0  0  0  0  0  0  0  0
    0.1115    7.4627   -0.6208 Cl  0  0  0  0  0  0  0  0  0  0  0  0
   -1.6510    2.8548   -1.3276 Cl  0  0  0  0  0  0  0  0  0  0  0  0
    0.2637   -0.8605   -0.1791 H   0  0  0  0  0  0  0  0  0  0  0  0
    0.4817    0.3979    1.0646 H   0  0  0  0  0  0  0  0  0  0  0  0
    1.8478   -0.2471    0.1100 H   0  0  0  0  0  0  0  0  0  0  0  0
    4.7957    3.0772    0.9915 H   0  0  0  0  0  0  0  0  0  0  0  0
    5.1965    3.2317   -0.7852 H   0  0  0  0  0  0  0  0  0  0  0  0
    5.8032    4.3789    0.3751 H   0  0  0  0  0  0  0  0  0  0  0  0
  1  2  1  0  0  0  0
  1 17  1  0  0  0  0
  1 18  1  0  0  0  0
  1 19  1  0  0  0  0
  2  3  1  0  0  0  0
  3  4  2  0  0  0  0
  3  8  1  0  0  0  0
  4  5  1  0  0  0  0
  4 16  1  0  0  0  0
  5  6  2  0  0  0  0
  5 12  1  0  0  0  0
  6  7  1  0  0  0  0
  7  8  2  0  0  0  0
  7 10  1  0  0  0  0
  8  9  1  0  0  0  0
 10 11  1  0  0  0  0
 11 20  1  0  0  0  0
 11 21  1  0  0  0  0
 11 22  1  0  0  0  0
 12 13  1  0  0  0  0
 12 14  1  0  0  0  0
 12 15  1  0  0  0  0
M  END
>  <DRUGBANK_ID>
DB12987

>  <COMMON_NAME>
Penclomedine

>  <CAS_NUMBER>
108030-77-9

>  <UNII>
66Q80IL7CW

$$$$
