1111
 OpenBabel10282417113D

212212  0  0  1  0  0  0  0  0999 V2000
    0.9926    0.0284   -0.0329 S   0  0  0  0  0  0  0  0  0  0  0  0
   16.5228    6.3408   -1.6942 S   0  0  0  0  0  0  0  0  0  0  0  0
   16.4210   11.2562   -3.0990 S   0  0  0  0  0  0  0  0  0  0  0  0
   25.5146   13.5268   -3.4632 S   0  0  0  0  0  0  0  0  0  0  0  0
   23.7525    6.4654   -5.0080 S   0  0  0  0  0  0  0  0  0  0  0  0
    8.5819    3.9893    2.6221 O   0  0  0  0  0  0  0  0  0  0  0  0
   11.2379    4.2440   -2.4204 O   0  0  0  0  0  0  0  0  0  0  0  0
    6.7602    4.6206   -0.3872 O   0  0  0  0  0  0  0  0  0  0  0  0
   18.6873    8.1174    0.3703 O   0  0  0  0  0  0  0  0  0  0  0  0
   11.3834    9.3523   -0.9152 O   0  0  0  0  0  0  0  0  0  0  0  0
   22.8619   13.7322   -0.7173 O   0  0  0  0  0  0  0  0  0  0  0  0
   16.8336   12.0159   -0.9028 O   0  0  0  0  0  0  0  0  0  0  0  0
   15.3227    7.7035    1.3459 O   0  0  0  0  0  0  0  0  0  0  0  0
   25.3324    8.9242    2.0375 O   0  0  0  0  0  0  0  0  0  0  0  0
   17.1649    8.7064   -3.8086 O   0  0  0  0  0  0  0  0  0  0  0  0
   21.9688    9.1679    2.5885 O   0  0  0  0  0  0  0  0  0  0  0  0
   22.9511    9.6564   -3.1263 O   0  0  0  0  0  0  0  0  0  0  0  0
   26.2291   11.0551    1.5126 O   0  0  0  0  0  0  0  0  0  0  0  0
    0.5238   -1.0583    1.0006 O   0  5  0  0  0  0  0  0  0  0  0  0
    0.5669    1.4125    0.3427 O   0  0  0  0  0  0  0  0  0  0  0  0
    0.5672   -0.2867   -1.4367 O   0  0  0  0  0  0  0  0  0  0  0  0
   15.7417    6.6329   -3.4504 O   0  5  0  0  0  0  0  0  0  0  0  0
   17.8125    6.5844   -1.8416 O   0  0  0  0  0  0  0  0  0  0  0  0
   15.8711    5.2229   -0.8423 O   0  0  0  0  0  0  0  0  0  0  0  0
   15.4774   12.4033   -1.6751 O   0  5  0  0  0  0  0  0  0  0  0  0
   17.0743   12.6865   -3.8203 O   0  0  0  0  0  0  0  0  0  0  0  0
   15.1183   10.5951   -4.1334 O   0  0  0  0  0  0  0  0  0  0  0  0
   25.0454   14.6720   -2.4975 O   0  5  0  0  0  0  0  0  0  0  0  0
   26.3248   14.0049   -4.6089 O   0  0  0  0  0  0  0  0  0  0  0  0
   24.3903   12.6675   -3.9429 O   0  0  0  0  0  0  0  0  0  0  0  0
   23.2843    7.8542   -5.3656 O   0  5  0  0  0  0  0  0  0  0  0  0
   23.6240    5.3820   -5.9787 O   0  0  0  0  0  0  0  0  0  0  0  0
   22.8472    5.9906   -3.9654 O   0  0  0  0  0  0  0  0  0  0  0  0
    9.2519    5.7589    0.9373 N   0  0  0  0  0  0  0  0  0  0  0  0
    7.3500    3.9041   -0.3913 N   0  0  0  0  0  0  0  0  0  0  0  0
   12.1963    5.6081   -1.1466 N   0  0  0  0  0  0  0  0  0  0  0  0
   14.3569    6.0482   -0.0541 N   0  0  0  0  0  0  0  0  0  0  0  0
   20.8061   11.1480   -0.9318 N   0  0  0  0  0  0  0  0  0  0  0  0
   13.3396    8.6378   -1.3492 N   0  0  0  0  0  0  0  0  0  0  0  0
   15.6896    9.6827    0.0584 N   0  0  0  0  0  0  0  0  0  0  0  0
   22.8424   11.1316    1.4699 N   0  0  0  0  0  0  0  0  0  0  0  0
   18.7071    9.5578   -2.2065 N   0  0  0  0  0  0  0  0  0  0  0  0
    4.0988    0.7145    1.1379 N   0  0  0  0  0  0  0  0  0  0  0  0
   15.3860    7.8445   -0.2768 N   0  0  0  0  0  0  0  0  0  0  0  0
   22.4158    8.9240   -0.8759 N   0  0  0  0  0  0  0  0  0  0  0  0
   25.6890   10.4628   -0.5870 N   0  0  0  0  0  0  0  0  0  0  0  0
   16.9958   10.0436   -2.7555 N   0  0  0  0  0  0  0  0  0  0  0  0
   25.9524   12.0173   -1.4181 N   0  0  0  0  0  0  0  0  0  0  0  0
   26.0217    7.5611   -3.7917 N   0  0  0  0  0  0  0  0  0  0  0  0
    9.3031    3.3904    0.9493 C   0  0  3  0  0  0  0  0  0  0  0  0
    9.3873    5.6930   -1.2094 C   0  0  3  0  0  0  0  0  0  0  0  0
    8.9599    2.1317   -0.9493 C   0  0  0  0  0  0  0  0  0  0  0  0
    8.9217    6.8213   -1.3987 C   0  0  0  0  0  0  0  0  0  0  0  0
    9.3829    3.2105   -1.7204 C   0  0  0  0  0  0  0  0  0  0  0  0
    9.8218    7.7588   -0.8184 C   0  0  0  0  0  0  0  0  0  0  0  0
    8.7621    4.2617    1.5884 C   0  0  0  0  0  0  0  0  0  0  0  0
   11.2498    4.8161    0.0707 C   0  0  3  0  0  0  0  0  0  0  0  0
   11.0928    5.4070   -2.1615 C   0  0  0  0  0  0  0  0  0  0  0  0
   11.8568    7.0340    0.1880 C   0  0  3  0  0  0  0  0  0  0  0  0
    8.6365    4.6976   -0.1131 C   0  0  0  0  0  0  0  0  0  0  0  0
   19.1833    9.1324   -0.5932 C   0  0  3  0  0  0  0  0  0  0  0  0
    8.5877    3.2434   -0.0093 C   0  0  0  0  0  0  0  0  0  0  0  0
   12.5528    6.7779    1.2342 C   0  0  0  0  0  0  0  0  0  0  0  0
   10.2407    3.7559   -0.8752 C   0  0  0  0  0  0  0  0  0  0  0  0
   10.2287    2.5089   -2.5495 C   0  0  0  0  0  0  0  0  0  0  0  0
   11.0063    7.5036   -1.5602 C   0  0  0  0  0  0  0  0  0  0  0  0
    9.4121    9.1049   -1.1519 C   0  0  0  0  0  0  0  0  0  0  0  0
   19.5518   10.6329   -0.1632 C   0  0  0  0  0  0  0  0  0  0  0  0
   14.1647    7.4017   -1.2313 C   0  0  3  0  0  0  0  0  0  0  0  0
   16.9187    7.2272    0.0007 C   0  0  0  0  0  0  0  0  0  0  0  0
   12.3161    8.8487   -0.3811 C   0  0  0  0  0  0  0  0  0  0  0  0
   23.4515   11.6838    0.3070 C   0  0  3  0  0  0  0  0  0  0  0  0
   26.1981    5.8689   -1.2786 C   0  0  3  0  0  0  0  0  0  0  0  0
    6.3128    1.6009    0.7592 C   0  0  0  0  0  0  0  0  0  0  0  0
   25.8103    7.1601   -1.6122 C   0  0  0  0  0  0  0  0  0  0  0  0
   18.6674   11.0999   -1.0736 C   0  0  0  0  0  0  0  0  0  0  0  0
   13.9020    6.9213    1.0544 C   0  0  0  0  0  0  0  0  0  0  0  0
   14.7103    7.3180   -2.3251 C   0  0  0  0  0  0  0  0  0  0  0  0
   23.8623    7.6834   -0.7537 C   0  0  0  0  0  0  0  0  0  0  0  0
   15.6615    9.8102   -1.7181 C   0  0  3  0  0  0  0  0  0  0  0  0
   22.4839   12.4787   -0.5597 C   0  0  0  0  0  0  0  0  0  0  0  0
   23.7483   10.7756   -0.6163 C   0  0  0  0  0  0  0  0  0  0  0  0
   25.2039    7.4030    1.1504 C   0  0  0  0  0  0  0  0  0  0  0  0
   14.2313    8.5813    0.6423 C   0  0  0  0  0  0  0  0  0  0  0  0
   23.0804    8.7472    0.6431 C   0  0  3  0  0  0  0  0  0  0  0  0
   24.7499    5.0744   -1.4836 C   0  0  0  0  0  0  0  0  0  0  0  0
   25.0009    9.6026   -1.7666 C   0  0  3  0  0  0  0  0  0  0  0  0
   15.6762   10.9761   -1.3591 C   0  0  3  0  0  0  0  0  0  0  0  0
   17.1682    8.4663   -2.4751 C   0  0  0  0  0  0  0  0  0  0  0  0
   15.5700    8.5398   -3.2981 C   0  0  0  0  0  0  0  0  0  0  0  0
   26.7180    8.8322    0.9059 C   0  0  0  0  0  0  0  0  0  0  0  0
   27.0568    5.6612   -2.5678 C   0  0  0  0  0  0  0  0  0  0  0  0
   22.6539    9.5945    1.6776 C   0  0  0  0  0  0  0  0  0  0  0  0
   24.6485   11.3300   -1.9713 C   0  0  0  0  0  0  0  0  0  0  0  0
   24.6425    9.0831    0.8131 C   0  0  3  0  0  0  0  0  0  0  0  0
   25.7139    8.7517   -1.5095 C   0  0  0  0  0  0  0  0  0  0  0  0
   23.3997    9.3013   -2.1284 C   0  0  0  0  0  0  0  0  0  0  0  0
   26.3747   10.2740    0.5970 C   0  0  0  0  0  0  0  0  0  0  0  0
   24.1000    5.1256   -2.7927 C   0  0  0  0  0  0  0  0  0  0  0  0
    2.8950    0.0639   -0.0541 C   0  0  0  0  0  0  0  0  0  0  0  0
   25.1897    6.9360   -2.9468 C   0  0  0  0  0  0  0  0  0  0  0  0
   14.9387   12.2449   -3.0923 C   0  0  0  0  0  0  0  0  0  0  0  0
   16.5166    8.1904   -0.9420 C   0  0  0  0  0  0  0  0  0  0  0  0
   25.8426    7.9388   -0.2629 C   0  0  0  0  0  0  0  0  0  0  0  0
   17.9081   11.0507   -3.4708 C   0  0  0  0  0  0  0  0  0  0  0  0
   26.6537   12.4058   -2.4945 C   0  0  0  0  0  0  0  0  0  0  0  0
   25.6279    6.5940   -4.7119 C   0  0  0  0  0  0  0  0  0  0  0  0
   16.8636   11.6243   -0.0623 H   0  0  0  0  0  0  0  0  0  0  0  0
   24.8103    9.3287    2.5317 H   0  0  0  0  0  0  0  0  0  0  0  0
   10.1071    5.7996    1.1205 H   0  0  0  0  0  0  0  0  0  0  0  0
    7.1254    4.7275   -1.2298 H   0  0  0  0  0  0  0  0  0  0  0  0
   12.9914    5.7429   -1.5005 H   0  0  0  0  0  0  0  0  0  0  0  0
   16.0518    6.5384   -0.1130 H   0  0  0  0  0  0  0  0  0  0  0  0
   20.7432   12.5373   -1.6631 H   0  0  0  0  0  0  0  0  0  0  0  0
   13.6956    9.4817   -1.6893 H   0  0  0  0  0  0  0  0  0  0  0  0
   17.0447    9.5890    0.0268 H   0  0  0  0  0  0  0  0  0  0  0  0
   22.3652   11.7395    2.1141 H   0  0  0  0  0  0  0  0  0  0  0  0
   19.3251   10.3644   -2.9742 H   0  0  0  0  0  0  0  0  0  0  0  0
    3.0519    1.3080    1.5518 H   0  0  0  0  0  0  0  0  0  0  0  0
   14.1686    8.5030   -0.6577 H   0  0  0  0  0  0  0  0  0  0  0  0
   21.5262    8.8703   -0.9489 H   0  0  0  0  0  0  0  0  0  0  0  0
   25.0841   11.4938   -0.6095 H   0  0  0  0  0  0  0  0  0  0  0  0
   16.8698    9.4360   -1.3882 H   0  0  0  0  0  0  0  0  0  0  0  0
   25.6132   12.6618   -0.7415 H   0  0  0  0  0  0  0  0  0  0  0  0
   25.5584    8.4640   -3.9248 H   0  0  0  0  0  0  0  0  0  0  0  0
    7.6734    2.7318    1.1697 H   0  0  0  0  0  0  0  0  0  0  0  0
    8.7647    4.8063   -1.5026 H   0  0  0  0  0  0  0  0  0  0  0  0
    9.3453    1.7470   -0.0965 H   0  0  0  0  0  0  0  0  0  0  0  0
    7.9862    1.7557   -1.2636 H   0  0  0  0  0  0  0  0  0  0  0  0
    8.9678    6.7870   -2.4409 H   0  0  0  0  0  0  0  0  0  0  0  0
    7.9772    6.8559   -0.9796 H   0  0  0  0  0  0  0  0  0  0  0  0
    8.6582    3.8203   -2.2726 H   0  0  0  0  0  0  0  0  0  0  0  0
    9.8064    7.7176    0.3197 H   0  0  0  0  0  0  0  0  0  0  0  0
    9.3138    4.6998    0.1621 H   0  0  0  0  0  0  0  0  0  0  0  0
   10.8195    6.8881    0.2264 H   0  0  0  0  0  0  0  0  0  0  0  0
   20.6828    9.9198   -1.7090 H   0  0  0  0  0  0  0  0  0  0  0  0
    7.0698    1.9172    0.1961 H   0  0  0  0  0  0  0  0  0  0  0  0
    6.7984    2.2920   -0.3065 H   0  0  0  0  0  0  0  0  0  0  0  0
   12.3505    7.5909    1.8345 H   0  0  0  0  0  0  0  0  0  0  0  0
   12.2782    5.8469    1.5954 H   0  0  0  0  0  0  0  0  0  0  0  0
   10.9439    3.4500   -0.2080 H   0  0  0  0  0  0  0  0  0  0  0  0
   10.5131    4.6242   -1.0623 H   0  0  0  0  0  0  0  0  0  0  0  0
   10.0885    4.5450   -0.4456 H   0  0  0  0  0  0  0  0  0  0  0  0
    9.6204    1.9082   -3.1273 H   0  0  0  0  0  0  0  0  0  0  0  0
   10.7407    3.1304   -3.2617 H   0  0  0  0  0  0  0  0  0  0  0  0
   10.9487    1.9677   -1.9606 H   0  0  0  0  0  0  0  0  0  0  0  0
   11.3180    7.5769   -2.4554 H   0  0  0  0  0  0  0  0  0  0  0  0
   11.9090    7.7025   -1.3222 H   0  0  0  0  0  0  0  0  0  0  0  0
   11.3989    6.7639   -1.2232 H   0  0  0  0  0  0  0  0  0  0  0  0
    8.4665    9.2734   -0.7604 H   0  0  0  0  0  0  0  0  0  0  0  0
   10.0118    9.8918   -0.6971 H   0  0  0  0  0  0  0  0  0  0  0  0
    9.4627    9.2050   -2.2187 H   0  0  0  0  0  0  0  0  0  0  0  0
   19.7425   10.9708    0.7534 H   0  0  0  0  0  0  0  0  0  0  0  0
   19.2374    9.6767   -0.1318 H   0  0  0  0  0  0  0  0  0  0  0  0
   13.7041    6.7715   -0.9370 H   0  0  0  0  0  0  0  0  0  0  0  0
   24.3406   12.2203    0.6250 H   0  0  0  0  0  0  0  0  0  0  0  0
   26.5654    5.9683   -0.4317 H   0  0  0  0  0  0  0  0  0  0  0  0
    5.3408    0.7564    2.1248 H   0  0  0  0  0  0  0  0  0  0  0  0
    5.4292   -0.1532    0.9306 H   0  0  0  0  0  0  0  0  0  0  0  0
   24.8823    8.1554   -2.7923 H   0  0  0  0  0  0  0  0  0  0  0  0
   26.5798    7.8313   -2.1673 H   0  0  0  0  0  0  0  0  0  0  0  0
   18.8619   12.1725   -1.2445 H   0  0  0  0  0  0  0  0  0  0  0  0
   17.8134   10.9372   -0.5807 H   0  0  0  0  0  0  0  0  0  0  0  0
   14.5555    6.5254    1.7314 H   0  0  0  0  0  0  0  0  0  0  0  0
   13.4463    5.3991    0.4062 H   0  0  0  0  0  0  0  0  0  0  0  0
   15.3064    6.0216   -2.3785 H   0  0  0  0  0  0  0  0  0  0  0  0
   14.0571    6.7669   -3.0012 H   0  0  0  0  0  0  0  0  0  0  0  0
   23.5080    6.9950   -0.5993 H   0  0  0  0  0  0  0  0  0  0  0  0
   24.0741    8.7645   -0.7394 H   0  0  0  0  0  0  0  0  0  0  0  0
   15.0773    9.4657   -2.2036 H   0  0  0  0  0  0  0  0  0  0  0  0
   24.1611    9.9919   -0.3347 H   0  0  0  0  0  0  0  0  0  0  0  0
   23.1300   10.2051   -0.8748 H   0  0  0  0  0  0  0  0  0  0  0  0
   25.6325    6.6069    0.9529 H   0  0  0  0  0  0  0  0  0  0  0  0
   24.4029    7.7684    1.6071 H   0  0  0  0  0  0  0  0  0  0  0  0
   22.9548    7.6844    0.8352 H   0  0  0  0  0  0  0  0  0  0  0  0
   25.0906    4.1257   -1.4208 H   0  0  0  0  0  0  0  0  0  0  0  0
   24.0701    5.4101   -0.7629 H   0  0  0  0  0  0  0  0  0  0  0  0
   25.6421    9.6011   -2.6900 H   0  0  0  0  0  0  0  0  0  0  0  0
   14.7330   11.2076   -0.8784 H   0  0  0  0  0  0  0  0  0  0  0  0
   15.9497    8.0128   -4.1471 H   0  0  0  0  0  0  0  0  0  0  0  0
   14.7943    9.0635   -3.3903 H   0  0  0  0  0  0  0  0  0  0  0  0
   27.3708    8.5624    0.1436 H   0  0  0  0  0  0  0  0  0  0  0  0
   27.0215    8.6100    1.7684 H   0  0  0  0  0  0  0  0  0  0  0  0
   27.7947    6.3852   -2.6276 H   0  0  0  0  0  0  0  0  0  0  0  0
   27.2665    4.6846   -2.5200 H   0  0  0  0  0  0  0  0  0  0  0  0
   26.5739    5.7942   -3.4294 H   0  0  0  0  0  0  0  0  0  0  0  0
   24.9501   10.6989   -2.6281 H   0  0  0  0  0  0  0  0  0  0  0  0
   24.0288   11.7654   -2.4189 H   0  0  0  0  0  0  0  0  0  0  0  0
   24.9266    9.8853    0.6424 H   0  0  0  0  0  0  0  0  0  0  0  0
   26.9905    8.6214   -1.2551 H   0  0  0  0  0  0  0  0  0  0  0  0
   24.7304    7.9856   -0.0313 H   0  0  0  0  0  0  0  0  0  0  0  0
   24.7248    4.9802   -3.6737 H   0  0  0  0  0  0  0  0  0  0  0  0
   23.2048    4.5919   -2.8969 H   0  0  0  0  0  0  0  0  0  0  0  0
   23.7627    6.1569   -2.8869 H   0  0  0  0  0  0  0  0  0  0  0  0
    3.2265   -0.9208   -0.3449 H   0  0  0  0  0  0  0  0  0  0  0  0
    3.2203    0.7878   -0.7676 H   0  0  0  0  0  0  0  0  0  0  0  0
   25.4602    6.1008   -2.5145 H   0  0  0  0  0  0  0  0  0  0  0  0
   24.2052    7.1165   -2.3942 H   0  0  0  0  0  0  0  0  0  0  0  0
   14.3113   11.6302   -3.3241 H   0  0  0  0  0  0  0  0  0  0  0  0
   15.0092   13.1843   -2.7937 H   0  0  0  0  0  0  0  0  0  0  0  0
   15.6689   12.2962   -3.8487 H   0  0  0  0  0  0  0  0  0  0  0  0
   15.6823    8.4755   -0.9642 H   0  0  0  0  0  0  0  0  0  0  0  0
   16.4333    8.1712    0.6776 H   0  0  0  0  0  0  0  0  0  0  0  0
   24.6805    8.0698   -1.6501 H   0  0  0  0  0  0  0  0  0  0  0  0
   26.6012    7.7713   -0.3640 H   0  0  0  0  0  0  0  0  0  0  0  0
   25.1368    6.7242   -0.2990 H   0  0  0  0  0  0  0  0  0  0  0  0
   17.5407   10.5526   -2.2215 H   0  0  0  0  0  0  0  0  0  0  0  0
   17.9492    9.9701   -3.9468 H   0  0  0  0  0  0  0  0  0  0  0  0
   27.4962   12.9515   -2.1258 H   0  0  0  0  0  0  0  0  0  0  0  0
   26.9982   11.5709   -3.0936 H   0  0  0  0  0  0  0  0  0  0  0  0
   26.1289    6.8682   -5.5691 H   0  0  0  0  0  0  0  0  0  0  0  0
   25.9733    5.5635   -4.5407 H   0  0  0  0  0  0  0  0  0  0  0  0
  1 19  1  0  0  0  0
  1 20  2  0  0  0  0
  1 21  2  0  0  0  0
  1100  1  0  0  0  0
  2 22  1  0  0  0  0
  2 23  2  0  0  0  0
  2 24  2  0  0  0  0
  2103  1  0  0  0  0
  3 25  1  0  0  0  0
  3 26  2  0  0  0  0
  3 27  2  0  0  0  0
  3105  1  0  0  0  0
  4 28  1  0  0  0  0
  4 29  2  0  0  0  0
  4 30  2  0  0  0  0
  4106  1  0  0  0  0
  5 31  1  0  0  0  0
  5 32  2  0  0  0  0
  5 33  2  0  0  0  0
  5107  1  0  0  0  0
  6 56  2  0  0  0  0
  7 58  2  0  0  0  0
  8 60  2  0  0  0  0
  9 70  2  0  0  0  0
 10 71  2  0  0  0  0
 11 81  2  0  0  0  0
 12 88  1  0  0  0  0
 12108  1  0  0  0  0
 13 84  2  0  0  0  0
 14 95  1  0  0  0  0
 14109  1  0  0  0  0
 15 89  2  0  0  0  0
 16 93  2  0  0  0  0
 17 97  2  0  0  0  0
 18 98  2  0  0  0  0
 34 51  1  0  0  0  0
 34 56  1  0  0  0  0
 34110  1  0  0  0  0
 35 50  1  0  0  0  0
 35 60  1  0  0  0  0
 35111  1  0  0  0  0
 36 58  1  0  0  0  0
 36 59  1  0  0  0  0
 36112  1  0  0  0  0
 37 57  1  0  0  0  0
 37 70  1  0  0  0  0
 37113  1  0  0  0  0
 38 61  1  0  0  0  0
 38 81  1  0  0  0  0
 38114  1  0  0  0  0
 39 69  1  0  0  0  0
 39 71  1  0  0  0  0
 39115  1  0  0  0  0
 40 80  1  0  0  0  0
 40 84  1  0  0  0  0
 40116  1  0  0  0  0
 41 72  1  0  0  0  0
 41 93  1  0  0  0  0
 41117  1  0  0  0  0
 42 76  1  0  0  0  0
 42 89  1  0  0  0  0
 42118  1  0  0  0  0
 43 74  1  0  0  0  0
 43100  1  0  0  0  0
 43119  1  0  0  0  0
 44 77  1  0  0  0  0
 44103  1  0  0  0  0
 44120  1  0  0  0  0
 45 85  1  0  0  0  0
 45 97  1  0  0  0  0
 45121  1  0  0  0  0
 46 87  1  0  0  0  0
 46 98  1  0  0  0  0
 46122  1  0  0  0  0
 47 90  1  0  0  0  0
 47105  1  0  0  0  0
 47123  1  0  0  0  0
 48 94  1  0  0  0  0
 48106  1  0  0  0  0
 48124  1  0  0  0  0
 49101  1  0  0  0  0
 49107  1  0  0  0  0
 49125  1  0  0  0  0
 50 52  1  0  0  0  0
 50 56  1  0  0  0  0
 50126  1  0  0  0  0
 51 53  1  0  0  0  0
 51 58  1  0  0  0  0
 51127  1  0  0  0  0
 52 54  1  0  0  0  0
 52128  1  0  0  0  0
 52129  1  0  0  0  0
 53 55  1  0  0  0  0
 53130  1  0  0  0  0
 53131  1  0  0  0  0
 54 64  1  0  0  0  0
 54 65  1  0  0  0  0
 54132  1  0  0  0  0
 55 66  1  0  0  0  0
 55 67  1  0  0  0  0
 55133  1  0  0  0  0
 57 60  1  0  0  0  0
 57 62  1  0  0  0  0
 57134  1  0  0  0  0
 59 63  1  0  0  0  0
 59 71  1  0  0  0  0
 59135  1  0  0  0  0
 61 68  1  0  0  0  0
 61 70  1  0  0  0  0
 61136  1  0  0  0  0
 62 74  1  0  0  0  0
 62137  1  0  0  0  0
 62138  1  0  0  0  0
 63 77  1  0  0  0  0
 63139  1  0  0  0  0
 63140  1  0  0  0  0
 64141  1  0  0  0  0
 64142  1  0  0  0  0
 64143  1  0  0  0  0
 65144  1  0  0  0  0
 65145  1  0  0  0  0
 65146  1  0  0  0  0
 66147  1  0  0  0  0
 66148  1  0  0  0  0
 66149  1  0  0  0  0
 67150  1  0  0  0  0
 67151  1  0  0  0  0
 67152  1  0  0  0  0
 68 76  1  0  0  0  0
 68153  1  0  0  0  0
 68154  1  0  0  0  0
 69 78  1  0  0  0  0
 69 84  1  0  0  0  0
 69155  1  0  0  0  0
 72 81  1  0  0  0  0
 72 82  1  0  0  0  0
 72156  1  0  0  0  0
 73 75  1  0  0  0  0
 73 86  1  0  0  0  0
 73 92  1  0  0  0  0
 73157  1  0  0  0  0
 74158  1  0  0  0  0
 74159  1  0  0  0  0
 75 79  1  0  0  0  0
 75160  1  0  0  0  0
 75161  1  0  0  0  0
 76162  1  0  0  0  0
 76163  1  0  0  0  0
 77164  1  0  0  0  0
 77165  1  0  0  0  0
 78 90  1  0  0  0  0
 78166  1  0  0  0  0
 78167  1  0  0  0  0
 79 83  1  0  0  0  0
 79168  1  0  0  0  0
 79169  1  0  0  0  0
 80 88  1  0  0  0  0
 80 89  1  0  0  0  0
 80170  1  0  0  0  0
 82 94  1  0  0  0  0
 82171  1  0  0  0  0
 82172  1  0  0  0  0
 83 91  1  0  0  0  0
 83173  1  0  0  0  0
 83174  1  0  0  0  0
 85 93  1  0  0  0  0
 85 95  1  0  0  0  0
 85175  1  0  0  0  0
 86 99  1  0  0  0  0
 86176  1  0  0  0  0
 86177  1  0  0  0  0
 87 96  1  0  0  0  0
 87 97  1  0  0  0  0
 87178  1  0  0  0  0
 88102  1  0  0  0  0
 88179  1  0  0  0  0
 90180  1  0  0  0  0
 90181  1  0  0  0  0
 91 98  1  0  0  0  0
 91182  1  0  0  0  0
 91183  1  0  0  0  0
 92184  1  0  0  0  0
 92185  1  0  0  0  0
 92186  1  0  0  0  0
 94187  1  0  0  0  0
 94188  1  0  0  0  0
 95104  1  0  0  0  0
 95189  1  0  0  0  0
 96101  1  0  0  0  0
 96190  1  0  0  0  0
 96191  1  0  0  0  0
 99192  1  0  0  0  0
 99193  1  0  0  0  0
 99194  1  0  0  0  0
100195  1  0  0  0  0
100196  1  0  0  0  0
101197  1  0  0  0  0
101198  1  0  0  0  0
102199  1  0  0  0  0
102200  1  0  0  0  0
102201  1  0  0  0  0
103202  1  0  0  0  0
103203  1  0  0  0  0
104204  1  0  0  0  0
104205  1  0  0  0  0
104206  1  0  0  0  0
105207  1  0  0  0  0
105208  1  0  0  0  0
106209  1  0  0  0  0
106210  1  0  0  0  0
107211  1  0  0  0  0
107212  1  0  0  0  0
M  CHG  5  19  -1  22  -1  25  -1  28  -1  31  -1
M  END
>  <DRUGBANK_ID>
DB01111

>  <SECONDARY_ACCESSION_NUMBERS>
APRD00885

>  <COMMON_NAME>
Colistimethate

>  <CAS_NUMBER>
12705-41-8

>  <UNII>
DL2R53P963

>  <SYNONYMS>
Colistin methanesulfonic acid; Colistin sulfomethate; Colistinmethanesulfonic acid

$$$$
