
 OpenBabel10282417223D

275279  0  0  1  0  0  0  0  0999 V2000
   -2.8348   -1.1643   -2.8632 C   0  0  0  0  0  0  0  0  0  0  0  0
   -6.7747   -2.2657   -6.0827 C   0  0  0  0  0  0  0  0  0  0  0  0
   -2.6238   -0.5933   -4.0927 C   0  0  0  0  0  0  0  0  0  0  0  0
  -11.7865   -4.1971   -9.5797 C   0  0  2  0  0  0  0  0  0  0  0  0
  -16.5884   -6.5107  -13.1609 N   0  0  0  0  0  0  0  0  0  0  0  0
  -21.0967   -8.8042  -16.7414 C   0  0  0  0  0  0  0  0  0  0  0  0
  -23.5971   -9.6194  -18.3431 O   0  0  0  0  0  0  0  0  0  0  0  0
  -25.3354  -11.2293  -20.4251 C   0  0  2  0  0  0  0  0  0  0  0  0
  -28.2264  -13.4197  -22.9319 C   0  0  0  0  0  0  0  0  0  0  0  0
  -29.5635  -14.6134  -22.4759 C   0  0  0  0  0  0  0  0  0  0  0  0
  -30.7964  -14.8095  -22.0276 C   0  0  0  0  0  0  0  0  0  0  0  0
  -30.9948  -15.1957  -20.7244 C   0  0  0  0  0  0  0  0  0  0  0  0
  -29.9500  -15.2910  -19.8497 C   0  0  0  0  0  0  0  0  0  0  0  0
  -28.7344  -15.1518  -20.3650 C   0  0  0  0  0  0  0  0  0  0  0  0
  -28.4698  -14.6251  -21.6417 C   0  0  0  0  0  0  0  0  0  0  0  0
  -28.4910  -12.6215  -23.8389 N   0  0  0  0  0  0  0  0  0  0  0  0
  -28.9573  -13.7298  -26.5129 C   0  0  0  0  0  0  0  0  0  0  0  0
  -27.9940  -13.8140  -25.7733 O   0  0  0  0  0  0  0  0  0  0  0  0
  -28.6890  -13.4452  -28.0574 C   0  0  2  0  0  0  0  0  0  0  0  0
  -27.7719  -14.5111  -28.6383 C   0  0  0  0  0  0  0  0  0  0  0  0
  -27.9327  -14.5938  -30.1497 C   0  0  0  0  0  0  0  0  0  0  0  0
  -26.8328  -14.2974  -30.9937 O   0  0  0  0  0  0  0  0  0  0  0  0
  -29.0461  -14.9258  -30.6488 O   0  0  0  0  0  0  0  0  0  0  0  0
  -28.0444  -12.1294  -28.1715 N   0  0  0  0  0  0  0  0  0  0  0  0
  -26.7127  -12.0152  -28.7748 C   0  0  0  0  0  0  0  0  0  0  0  0
  -26.1105  -13.0416  -29.2020 O   0  0  0  0  0  0  0  0  0  0  0  0
  -26.0476  -10.6508  -28.8881 C   0  0  0  0  0  0  0  0  0  0  0  0
  -26.9644   -9.5874  -28.3113 C   0  0  0  0  0  0  0  0  0  0  0  0
  -26.3439   -8.3149  -28.4176 O   0  0  0  0  0  0  0  0  0  0  0  0
  -24.7760  -10.6596  -28.1476 N   0  0  0  0  0  0  0  0  0  0  0  0
  -23.5209  -10.3930  -28.8522 C   0  0  0  0  0  0  0  0  0  0  0  0
  -23.5172  -10.1561  -30.0917 O   0  0  0  0  0  0  0  0  0  0  0  0
  -22.3442  -10.3402  -28.1571 C   0  0  2  0  0  0  0  0  0  0  0  0
  -22.9024  -10.6347  -26.4072 C   0  0  0  0  0  0  0  0  0  0  0  0
  -21.0524  -10.3562  -25.6151 S   0  0  0  0  0  0  0  0  0  0  0  0
  -18.3921   -7.7935  -24.7146 S   0  0  0  0  0  0  0  0  0  0  0  0
  -17.2974   -4.1507  -23.3037 C   0  0  0  0  0  0  0  0  0  0  0  0
  -15.9134   -2.6288  -21.5278 C   0  0  2  0  0  0  0  0  0  0  0  0
  -14.3461   -2.5131  -21.3922 N   0  0  0  0  0  0  0  0  0  0  0  0
  -13.6163   -2.2948  -20.1366 C   0  0  0  0  0  0  0  0  0  0  0  0
  -14.2461   -2.1070  -19.0564 O   0  0  0  0  0  0  0  0  0  0  0  0
  -12.0926   -2.2931  -20.1394 C   0  0  0  0  0  0  0  0  0  0  0  0
  -11.5842   -2.5383  -21.5491 C   0  0  0  0  0  0  0  0  0  0  0  0
  -10.0659   -2.5399  -21.5498 C   0  0  0  0  0  0  0  0  0  0  0  0
   -9.5602   -3.6409  -20.6341 C   0  0  0  0  0  0  0  0  0  0  0  0
  -10.0465   -4.9442  -21.1124 N   0  0  0  0  0  0  0  0  0  0  0  0
   -9.0938   -5.9905  -21.4965 C   0  0  0  0  0  0  0  0  0  0  0  0
   -9.5831   -7.2852  -21.9728 N   0  0  0  0  0  0  0  0  0  0  0  0
   -7.8014   -5.7634  -21.4139 N   0  0  0  0  0  0  0  0  0  0  0  0
  -11.6003   -0.9923  -19.6574 N   0  0  0  0  0  0  0  0  0  0  0  0
  -10.7604   -0.9245  -18.4623 C   0  0  0  0  0  0  0  0  0  0  0  0
  -10.5093   -1.9914  -17.8966 O   0  0  0  0  0  0  0  0  0  0  0  0
  -10.2504    0.4225  -17.9642 C   0  0  2  0  0  0  0  0  0  0  0  0
   -8.7310    0.4216  -17.9660 C   0  0  0  0  0  0  0  0  0  0  0  0
   -8.2206   -0.4930  -16.8634 C   0  0  0  0  0  0  0  0  0  0  0  0
   -8.7221   -1.8986  -17.0829 C   0  0  0  0  0  0  0  0  0  0  0  0
   -8.2352   -2.3939  -18.3812 N   0  0  0  0  0  0  0  0  0  0  0  0
   -7.3943   -3.5921  -18.4392 C   0  0  0  0  0  0  0  0  0  0  0  0
   -6.9042   -4.0797  -19.7281 N   0  0  0  0  0  0  0  0  0  0  0  0
   -7.0778   -4.2255  -17.3314 N   0  0  0  0  0  0  0  0  0  0  0  0
  -10.7397    0.6597  -16.5965 N   0  0  0  0  0  0  0  0  0  0  0  0
   -9.7884    0.8541  -15.4983 C   0  0  0  0  0  0  0  0  0  0  0  0
   -8.5366    0.9074  -15.7004 O   0  0  0  0  0  0  0  0  0  0  0  0
  -10.2909    1.0929  -14.0857 C   0  0  2  0  0  0  0  0  0  0  0  0
   -9.7871    2.4386  -13.5937 C   0  0  0  0  0  0  0  0  0  0  0  0
   -9.8004    0.0286  -13.1958 N   0  0  0  0  0  0  0  0  0  0  0  0
   -8.9572    0.3685  -12.0454 C   0  0  0  0  0  0  0  0  0  0  0  0
   -8.6489    1.5725  -11.8107 O   0  0  0  0  0  0  0  0  0  0  0  0
   -8.4500   -0.7351  -11.1274 C   0  0  2  0  0  0  0  0  0  0  0  0
   -8.9580   -0.4923   -9.7157 C   0  0  0  0  0  0  0  0  0  0  0  0
   -8.0411   -1.2174   -8.7452 C   0  0  0  0  0  0  0  0  0  0  0  0
   -6.3542   -1.0700   -8.8424 C   0  0  0  0  0  0  0  0  0  0  0  0
   -5.9265   -0.0102   -7.8035 O   0  0  0  0  0  0  0  0  0  0  0  0
   -5.7911   -1.1022  -10.2416 O   0  0  0  0  0  0  0  0  0  0  0  0
   -7.0079   -0.7272  -11.1448 N   0  0  0  0  0  0  0  0  0  0  0  0
   -6.5358   -0.0686   -9.8573 C   0  0  0  0  0  0  0  0  0  0  0  0
   -7.1440    0.0196   -8.7077 O   0  0  0  0  0  0  0  0  0  0  0  0
   -4.6431   -0.4777   -9.8487 C   0  0  2  0  0  0  0  0  0  0  0  0
   -4.2145   -1.6232   -8.9552 C   0  0  0  0  0  0  0  0  0  0  0  0
   -5.1372   -2.8193   -8.7649 C   0  0  0  0  0  0  0  0  0  0  0  0
   -4.7269   -4.0990   -9.2048 O   0  0  0  0  0  0  0  0  0  0  0  0
   -6.2673   -2.6746   -8.2137 O   0  0  0  0  0  0  0  0  0  0  0  0
   -4.2296    0.7861   -9.3919 N   0  0  0  0  0  0  0  0  0  0  0  0
   -3.3899    0.8512   -8.1932 C   0  0  0  0  0  0  0  0  0  0  0  0
   -3.0743   -0.1979   -7.5652 O   0  0  0  0  0  0  0  0  0  0  0  0
   -2.8832    2.1984   -7.6978 C   0  0  2  0  0  0  0  0  0  0  0  0
   -1.3643    2.1983   -7.7009 C   0  0  0  0  0  0  0  0  0  0  0  0
   -3.3717    2.4365   -6.3309 N   0  0  0  0  0  0  0  0  0  0  0  0
   -2.4166    2.6241   -5.2348 C   0  0  0  0  0  0  0  0  0  0  0  0
   -1.1715    2.5878   -5.4560 O   0  0  0  0  0  0  0  0  0  0  0  0
   -3.1299    2.6098   -3.9024 C   0  0  2  0  0  0  0  0  0  0  0  0
   -2.4226    4.2131   -3.3238 C   0  0  0  0  0  0  0  0  0  0  0  0
   -3.1113    4.4783   -1.9986 C   0  0  0  0  0  0  0  0  0  0  0  0
   -2.6873    3.4272   -0.9813 C   0  0  0  0  0  0  0  0  0  0  0  0
   -2.0127    3.8378    0.2516 N   0  0  0  0  0  0  0  0  0  0  0  0
   -2.9124    2.2017   -1.2035 O   0  0  0  0  0  0  0  0  0  0  0  0
   -5.2752    0.1300   -4.8006 N   0  0  0  0  0  0  0  0  0  0  0  0
   -8.1965   -1.7300   -6.7842 C   0  0  0  0  0  0  0  0  0  0  0  0
   -6.1989   -0.2994   -5.1655 O   0  0  0  0  0  0  0  0  0  0  0  0
  -16.3224   -3.8682  -21.8810 C   0  0  0  0  0  0  0  0  0  0  0  0
  -17.0525   -4.5746  -21.1366 O   0  0  0  0  0  0  0  0  0  0  0  0
  -15.8756   -4.3412  -23.2232 N   0  0  0  0  0  0  0  0  0  0  0  0
  -15.1214   -3.4952  -24.1045 C   0  0  1  0  0  0  0  0  0  0  0  0
  -13.8573   -4.2554  -24.4579 C   0  0  0  0  0  0  0  0  0  0  0  0
  -14.1890   -5.5260  -25.1753 C   0  0  0  0  0  0  0  0  0  0  0  0
  -13.4956   -6.6015  -24.8393 C   0  0  0  0  0  0  0  0  0  0  0  0
  -13.7626   -7.8400  -25.3818 C   0  0  0  0  0  0  0  0  0  0  0  0
  -14.7295   -8.0367  -26.3437 C   0  0  0  0  0  0  0  0  0  0  0  0
  -14.8932   -9.2082  -27.0531 O   0  0  0  0  0  0  0  0  0  0  0  0
  -15.5683   -7.1764  -26.4463 C   0  0  0  0  0  0  0  0  0  0  0  0
  -14.9216   -5.4866  -26.1222 C   0  0  0  0  0  0  0  0  0  0  0  0
  -15.8861   -3.1507  -25.3775 C   0  0  0  0  0  0  0  0  0  0  0  0
  -16.1130   -1.9446  -25.6728 O   0  0  0  0  0  0  0  0  0  0  0  0
  -16.4345   -4.1720  -26.2172 N   0  0  0  0  0  0  0  0  0  0  0  0
  -16.3077   -5.6425  -25.8466 C   0  0  1  0  0  0  0  0  0  0  0  0
  -17.4116   -6.3744  -25.7638 C   0  0  0  0  0  0  0  0  0  0  0  0
  -18.1887   -6.3249  -27.0528 C   0  0  0  0  0  0  0  0  0  0  0  0
  -18.3585   -7.5230  -27.6908 N   0  0  0  0  0  0  0  0  0  0  0  0
  -18.5815   -5.1785  -27.5361 O   0  0  0  0  0  0  0  0  0  0  0  0
  -15.1962   -6.1413  -27.3466 C   0  0  0  0  0  0  0  0  0  0  0  0
  -14.0570   -6.7252  -26.8070 O   0  0  0  0  0  0  0  0  0  0  0  0
  -15.7905   -6.3393  -28.4058 N   0  0  0  0  0  0  0  0  0  0  0  0
  -17.1062   -5.7869  -28.7048 C   0  0  1  0  0  0  0  0  0  0  0  0
  -16.9777   -4.6919  -29.7363 C   0  0  0  0  0  0  0  0  0  0  0  0
  -16.3680   -5.2714  -31.0034 C   0  0  0  0  0  0  0  0  0  0  0  0
  -17.0887   -5.2124  -32.2221 O   0  0  0  0  0  0  0  0  0  0  0  0
  -15.2216   -5.8053  -30.9656 O   0  0  0  0  0  0  0  0  0  0  0  0
  -18.0076   -6.8725  -29.2548 C   0  0  0  0  0  0  0  0  0  0  0  0
  -19.1851   -6.9154  -28.6875 O   0  0  0  0  0  0  0  0  0  0  0  0
  -17.6490   -7.6085  -30.4548 N   0  0  0  0  0  0  0  0  0  0  0  0
  -16.2848   -8.1920  -30.8675 C   0  0  0  0  0  0  0  0  0  0  0  0
  -16.5789   -9.4104  -31.7589 C   0  0  0  0  0  0  0  0  0  0  0  0
  -18.1125   -9.5241  -31.8551 C   0  0  0  0  0  0  0  0  0  0  0  0
  -18.6221   -8.0910  -31.5543 C   0  0  1  0  0  0  0  0  0  0  0  0
  -20.0866   -8.0413  -31.1378 C   0  0  0  0  0  0  0  0  0  0  0  0
  -20.9109   -7.3520  -31.8058 O   0  0  0  0  0  0  0  0  0  0  0  0
  -20.5321   -8.7930  -29.9627 N   0  0  0  0  0  0  0  0  0  0  0  0
  -19.5769   -9.5947  -29.1851 C   0  0  0  0  0  0  0  0  0  0  0  0
  -19.5432   -9.1014  -27.7561 C   0  0  0  0  0  0  0  0  0  0  0  0
  -20.8907   -9.1865  -27.1255 C   0  0  0  0  0  0  0  0  0  0  0  0
  -21.2563  -10.6769  -27.1929 C   0  0  0  0  0  0  0  0  0  0  0  0
  -20.2858  -11.6083  -26.4279 C   0  0  0  0  0  0  0  0  0  0  0  0
  -20.1154  -11.1034  -24.7376 N   0  0  0  0  0  0  0  0  0  0  0  0
  -20.0038  -11.0573  -29.1982 C   0  0  0  0  0  0  0  0  0  0  0  0
  -19.2394  -11.9380  -29.6741 O   0  0  0  0  0  0  0  0  0  0  0  0
  -21.2967  -11.5855  -28.8482 N   0  0  0  0  0  0  0  0  0  0  0  0
   -0.1527   -0.9972   -0.8421 H   0  0  0  0  0  0  0  0  0  0  0  0
   -0.5447   -0.2878   -0.3219 H   0  0  0  0  0  0  0  0  0  0  0  0
    0.1262   -0.4248   -1.0287 H   0  0  0  0  0  0  0  0  0  0  0  0
   -4.3273   -0.8640   -4.1618 H   0  0  0  0  0  0  0  0  0  0  0  0
    0.1616   -0.2002   -2.8006 H   0  0  0  0  0  0  0  0  0  0  0  0
   -0.0415    1.1363   -3.1137 H   0  0  0  0  0  0  0  0  0  0  0  0
    0.4420    0.3605   -2.8188 H   0  0  0  0  0  0  0  0  0  0  0  0
   -9.6851   -3.1825   -7.5449 H   0  0  0  0  0  0  0  0  0  0  0  0
  -19.2890   -7.6390  -14.6388 H   0  0  0  0  0  0  0  0  0  0  0  0
  -28.2211  -13.0786  -22.4811 H   0  0  0  0  0  0  0  0  0  0  0  0
  -28.6411  -15.0358  -24.3511 H   0  0  0  0  0  0  0  0  0  0  0  0
  -28.5584  -13.5337  -23.7314 H   0  0  0  0  0  0  0  0  0  0  0  0
  -31.6348  -14.6712  -22.6758 H   0  0  0  0  0  0  0  0  0  0  0  0
  -31.9848  -15.4260  -20.3894 H   0  0  0  0  0  0  0  0  0  0  0  0
  -30.0999  -15.4679  -18.8055 H   0  0  0  0  0  0  0  0  0  0  0  0
  -27.9054  -15.4644  -19.7676 H   0  0  0  0  0  0  0  0  0  0  0  0
  -27.5004  -14.2655  -21.9372 H   0  0  0  0  0  0  0  0  0  0  0  0
  -30.6079  -13.7168  -26.2070 H   0  0  0  0  0  0  0  0  0  0  0  0
  -29.6139  -13.4402  -28.6000 H   0  0  0  0  0  0  0  0  0  0  0  0
  -26.7711  -14.2224  -28.3971 H   0  0  0  0  0  0  0  0  0  0  0  0
  -27.9733  -15.4691  -28.2047 H   0  0  0  0  0  0  0  0  0  0  0  0
  -25.9527  -14.0333  -30.5979 H   0  0  0  0  0  0  0  0  0  0  0  0
  -28.5270  -11.2985  -27.8281 H   0  0  0  0  0  0  0  0  0  0  0  0
  -25.8548  -10.4338  -29.9207 H   0  0  0  0  0  0  0  0  0  0  0  0
  -27.8899   -9.5805  -28.8524 H   0  0  0  0  0  0  0  0  0  0  0  0
  -27.1583   -9.8045  -27.2796 H   0  0  0  0  0  0  0  0  0  0  0  0
  -25.4836   -8.3219  -27.9135 H   0  0  0  0  0  0  0  0  0  0  0  0
  -24.7776  -10.8518  -27.1451 H   0  0  0  0  0  0  0  0  0  0  0  0
  -21.7572   -9.4786  -28.2007 H   0  0  0  0  0  0  0  0  0  0  0  0
  -23.1378   -9.9377  -26.1965 H   0  0  0  0  0  0  0  0  0  0  0  0
  -22.9523  -11.6771  -26.5296 H   0  0  0  0  0  0  0  0  0  0  0  0
  -17.3768   -1.8472  -22.4750 H   0  0  0  0  0  0  0  0  0  0  0  0
  -16.3951   -1.7195  -22.4333 H   0  0  0  0  0  0  0  0  0  0  0  0
  -16.1767   -2.3417  -20.4001 H   0  0  0  0  0  0  0  0  0  0  0  0
  -13.8368   -2.6619  -22.2614 H   0  0  0  0  0  0  0  0  0  0  0  0
  -11.7361   -3.0700  -19.4914 H   0  0  0  0  0  0  0  0  0  0  0  0
  -11.9425   -3.4863  -21.8988 H   0  0  0  0  0  0  0  0  0  0  0  0
  -11.9422   -1.7633  -22.1970 H   0  0  0  0  0  0  0  0  0  0  0  0
   -9.7083   -2.7108  -22.5452 H   0  0  0  0  0  0  0  0  0  0  0  0
   -9.7081   -1.5911  -21.2021 H   0  0  0  0  0  0  0  0  0  0  0  0
   -8.4941   -3.6389  -20.6340 H   0  0  0  0  0  0  0  0  0  0  0  0
   -9.9152   -3.4683  -19.6379 H   0  0  0  0  0  0  0  0  0  0  0  0
  -11.0506   -5.1157  -21.1747 H   0  0  0  0  0  0  0  0  0  0  0  0
   -8.9210   -8.0171  -22.2416 H   0  0  0  0  0  0  0  0  0  0  0  0
  -10.5856   -7.4648  -22.0385 H   0  0  0  0  0  0  0  0  0  0  0  0
   -7.1383   -6.4917  -21.6809 H   0  0  0  0  0  0  0  0  0  0  0  0
  -11.8484   -0.1405  -20.1608 H   0  0  0  0  0  0  0  0  0  0  0  0
  -10.6075    1.1979  -18.6111 H   0  0  0  0  0  0  0  0  0  0  0  0
   -8.3731    0.0647  -18.9090 H   0  0  0  0  0  0  0  0  0  0  0  0
   -8.3730    1.4191  -17.8036 H   0  0  0  0  0  0  0  0  0  0  0  0
   -7.1522   -0.4840  -16.8546 H   0  0  0  0  0  0  0  0  0  0  0  0
   -8.5795   -0.2198  -15.9292 H   0  0  0  0  0  0  0  0  0  0  0  0
   -8.3734   -2.5368  -16.3016 H   0  0  0  0  0  0  0  0  0  0  0  0
   -9.7497   -1.8930  -17.0233 H   0  0  0  0  0  0  0  0  0  0  0  0
   -8.4862   -1.8983  -19.2376 H   0  0  0  0  0  0  0  0  0  0  0  0
   -6.3195   -4.9163  -19.7749 H   0  0  0  0  0  0  0  0  0  0  0  0
   -7.1469   -3.5915  -20.5922 H   0  0  0  0  0  0  0  0  0  0  0  0
   -6.4910   -5.0599  -17.3727 H   0  0  0  0  0  0  0  0  0  0  0  0
  -11.7427    0.6902  -16.4154 H   0  0  0  0  0  0  0  0  0  0  0  0
  -11.3627    1.0931  -14.0859 H   0  0  0  0  0  0  0  0  0  0  0  0
  -10.2749    2.6249  -12.6575 H   0  0  0  0  0  0  0  0  0  0  0  0
   -8.7240    2.4873  -13.4561 H   0  0  0  0  0  0  0  0  0  0  0  0
  -10.0862    3.1781  -14.3054 H   0  0  0  0  0  0  0  0  0  0  0  0
  -10.0478   -0.9430  -13.3840 H   0  0  0  0  0  0  0  0  0  0  0  0
   -8.8065   -1.6830  -11.4748 H   0  0  0  0  0  0  0  0  0  0  0  0
   -8.9594    0.5619   -9.5160 H   0  0  0  0  0  0  0  0  0  0  0  0
   -9.9473   -0.8788   -9.5917 H   0  0  0  0  0  0  0  0  0  0  0  0
   -8.3500   -1.0086   -7.7504 H   0  0  0  0  0  0  0  0  0  0  0  0
   -8.0164   -2.2407   -8.9428 H   0  0  0  0  0  0  0  0  0  0  0  0
   -6.4141    0.0695   -6.9458 H   0  0  0  0  0  0  0  0  0  0  0  0
   -6.4693   -0.8854  -11.9956 H   0  0  0  0  0  0  0  0  0  0  0  0
   -4.3635   -0.6886  -10.8691 H   0  0  0  0  0  0  0  0  0  0  0  0
   -3.3126   -1.9365   -9.4303 H   0  0  0  0  0  0  0  0  0  0  0  0
   -3.9960   -1.2025   -8.0027 H   0  0  0  0  0  0  0  0  0  0  0  0
   -3.8347   -4.2197   -9.6372 H   0  0  0  0  0  0  0  0  0  0  0  0
   -4.4813    1.6357   -9.8946 H   0  0  0  0  0  0  0  0  0  0  0  0
   -3.2403    2.9743   -8.3449 H   0  0  0  0  0  0  0  0  0  0  0  0
   -1.0053    1.5586   -6.9186 H   0  0  0  0  0  0  0  0  0  0  0  0
   -1.0058    1.8405   -8.6426 H   0  0  0  0  0  0  0  0  0  0  0  0
   -1.0058    3.1954   -7.5372 H   0  0  0  0  0  0  0  0  0  0  0  0
   -4.3755    2.4661   -6.1489 H   0  0  0  0  0  0  0  0  0  0  0  0
   -3.9978    2.8739   -3.8202 H   0  0  0  0  0  0  0  0  0  0  0  0
   -1.3567    4.2624   -3.1886 H   0  0  0  0  0  0  0  0  0  0  0  0
   -2.7190    4.9543   -4.0393 H   0  0  0  0  0  0  0  0  0  0  0  0
   -2.8425    5.4510   -1.6417 H   0  0  0  0  0  0  0  0  0  0  0  0
   -4.1737    4.4305   -2.1362 H   0  0  0  0  0  0  0  0  0  0  0  0
   -1.7240    3.1337    0.9342 H   0  0  0  0  0  0  0  0  0  0  0  0
   -1.8301    4.8243    0.4358 H   0  0  0  0  0  0  0  0  0  0  0  0
   -2.9687    0.7783   -3.3003 H   0  0  0  0  0  0  0  0  0  0  0  0
  -16.3021   -5.2348  -23.5656 H   0  0  0  0  0  0  0  0  0  0  0  0
  -14.8651   -2.5902  -23.5917 H   0  0  0  0  0  0  0  0  0  0  0  0
  -13.2408   -3.6501  -25.0903 H   0  0  0  0  0  0  0  0  0  0  0  0
  -13.3212   -4.4945  -23.5609 H   0  0  0  0  0  0  0  0  0  0  0  0
  -12.7005   -6.4918  -24.1403 H   0  0  0  0  0  0  0  0  0  0  0  0
  -13.2179   -8.6874  -25.0518 H   0  0  0  0  0  0  0  0  0  0  0  0
  -14.3116   -9.9896  -26.8374 H   0  0  0  0  0  0  0  0  0  0  0  0
  -16.3757   -7.0912  -27.1713 H   0  0  0  0  0  0  0  0  0  0  0  0
  -15.5243   -4.7664  -26.6879 H   0  0  0  0  0  0  0  0  0  0  0  0
  -16.8635   -4.0013  -27.1133 H   0  0  0  0  0  0  0  0  0  0  0  0
  -15.5838   -5.6861  -24.9598 H   0  0  0  0  0  0  0  0  0  0  0  0
  -17.1986   -7.3949  -25.5187 H   0  0  0  0  0  0  0  0  0  0  0  0
  -17.9836   -5.9231  -24.9879 H   0  0  0  0  0  0  0  0  0  0  0  0
  -19.0087   -7.7257  -28.6836 H   0  0  0  0  0  0  0  0  0  0  0  0
  -18.2376   -8.4560  -27.3811 H   0  0  0  0  0  0  0  0  0  0  0  0
  -15.2386   -6.7788  -29.1275 H   0  0  0  0  0  0  0  0  0  0  0  0
  -17.4652   -5.3767  -27.8286 H   0  0  0  0  0  0  0  0  0  0  0  0
  -17.9430   -4.2836  -29.9560 H   0  0  0  0  0  0  0  0  0  0  0  0
  -16.3416   -3.9164  -29.3569 H   0  0  0  0  0  0  0  0  0  0  0  0
  -17.9934   -4.7902  -32.2521 H   0  0  0  0  0  0  0  0  0  0  0  0
  -15.6961   -7.4673  -31.3923 H   0  0  0  0  0  0  0  0  0  0  0  0
  -15.7309   -8.4922  -30.0015 H   0  0  0  0  0  0  0  0  0  0  0  0
  -16.1378   -9.2967  -32.7293 H   0  0  0  0  0  0  0  0  0  0  0  0
  -16.1672  -10.2977  -31.3204 H   0  0  0  0  0  0  0  0  0  0  0  0
  -18.4393   -9.8869  -32.8089 H   0  0  0  0  0  0  0  0  0  0  0  0
  -18.4874  -10.2199  -31.1312 H   0  0  0  0  0  0  0  0  0  0  0  0
  -18.5569   -7.4693  -32.4274 H   0  0  0  0  0  0  0  0  0  0  0  0
  -21.5139   -8.7604  -29.6804 H   0  0  0  0  0  0  0  0  0  0  0  0
  -18.6022   -9.5086  -29.6234 H   0  0  0  0  0  0  0  0  0  0  0  0
  -18.8303   -9.6703  -27.1913 H   0  0  0  0  0  0  0  0  0  0  0  0
  -19.3550   -8.1458  -27.7285 H   0  0  0  0  0  0  0  0  0  0  0  0
  -20.8765   -8.8361  -26.1231 H   0  0  0  0  0  0  0  0  0  0  0  0
  -21.6020   -8.5830  -27.6698 H   0  0  0  0  0  0  0  0  0  0  0  0
  -21.9245  -10.8609  -26.8960 H   0  0  0  0  0  0  0  0  0  0  0  0
  -21.3129  -10.9170  -27.9488 H   0  0  0  0  0  0  0  0  0  0  0  0
  -20.6549  -12.5232  -26.3397 H   0  0  0  0  0  0  0  0  0  0  0  0
  -19.3619  -11.3712  -26.8345 H   0  0  0  0  0  0  0  0  0  0  0  0
  -19.6258  -11.5630  -24.4047 H   0  0  0  0  0  0  0  0  0  0  0  0
  -20.0112  -10.0213  -24.9416 H   0  0  0  0  0  0  0  0  0  0  0  0
  -21.6056  -12.4166  -28.6426 H   0  0  0  0  0  0  0  0  0  0  0  0
  1  2  1  0  0  0  0
  1147  1  0  0  0  0
  1148  1  0  0  0  0
  1149  1  0  0  0  0
  2  3  1  0  0  0  0
  2150  1  0  0  0  0
  3151  1  0  0  0  0
  3152  1  0  0  0  0
  3153  1  0  0  0  0
  4  2  1  0  0  0  0
  4  5  1  0  0  0  0
  4 98  1  0  0  0  0
  4154  1  1  0  0  0
  5  6  1  0  0  0  0
  5155  1  0  0  0  0
  6  7  2  0  0  0  0
  8  6  1  0  0  0  0
  8 16  1  0  0  0  0
  8156  1  1  0  0  0
  8  9  1  0  0  0  0
  9 10  1  0  0  0  0
  9157  1  0  0  0  0
  9158  1  0  0  0  0
 10 11  2  0  0  0  0
 10 15  1  0  0  0  0
 11 12  1  0  0  0  0
 11159  1  0  0  0  0
 12 13  2  0  0  0  0
 12160  1  0  0  0  0
 13 14  1  0  0  0  0
 13161  1  0  0  0  0
 14 15  2  0  0  0  0
 14162  1  0  0  0  0
 15163  1  0  0  0  0
 16 17  1  0  0  0  0
 16164  1  0  0  0  0
 17 18  2  0  0  0  0
 19 17  1  0  0  0  0
 19 24  1  0  0  0  0
 19165  1  6  0  0  0
 19 20  1  0  0  0  0
 20 21  1  0  0  0  0
 20166  1  0  0  0  0
 20167  1  0  0  0  0
 21 22  1  0  0  0  0
 21 23  2  0  0  0  0
 22168  1  0  0  0  0
 24 25  1  0  0  0  0
 24169  1  0  0  0  0
 25 26  2  0  0  0  0
 27 25  1  0  0  0  0
 27 28  1  0  0  0  0
 27 30  1  0  0  0  0
 27170  1  0  0  0  0
 28 29  1  0  0  0  0
 28171  1  0  0  0  0
 28172  1  0  0  0  0
 29173  1  0  0  0  0
 30 31  1  0  0  0  0
 30174  1  0  0  0  0
 31 32  2  0  0  0  0
 33 31  1  0  0  0  0
 33 34  1  0  0  0  0
 33146  1  0  0  0  0
 33175  1  1  0  0  0
 34 35  1  0  0  0  0
 34176  1  0  0  0  0
 34177  1  0  0  0  0
 35 36  1  0  0  0  0
 36 37  1  0  0  0  0
 37178  1  0  0  0  0
 37179  1  0  0  0  0
 38 37  1  0  0  0  0
 38 39  1  0  0  0  0
 38100  1  0  0  0  0
 38180  1  1  0  0  0
 39 40  1  0  0  0  0
 39181  1  0  0  0  0
 40 41  2  0  0  0  0
 42 40  1  0  0  0  0
 42 43  1  0  0  0  0
 42 50  1  0  0  0  0
 42182  1  0  0  0  0
 43 44  1  0  0  0  0
 43183  1  0  0  0  0
 43184  1  0  0  0  0
 44 45  1  0  0  0  0
 44185  1  0  0  0  0
 44186  1  0  0  0  0
 45 46  1  0  0  0  0
 45187  1  0  0  0  0
 45188  1  0  0  0  0
 46 47  1  0  0  0  0
 46189  1  0  0  0  0
 47 48  1  0  0  0  0
 47 49  2  0  0  0  0
 48190  1  0  0  0  0
 48191  1  0  0  0  0
 49192  1  0  0  0  0
 50 51  1  0  0  0  0
 50193  1  0  0  0  0
 51 52  2  0  0  0  0
 53 51  1  0  0  0  0
 53 61  1  0  0  0  0
 53194  1  6  0  0  0
 53 54  1  0  0  0  0
 54 55  1  0  0  0  0
 54195  1  0  0  0  0
 54196  1  0  0  0  0
 55 56  1  0  0  0  0
 55197  1  0  0  0  0
 55198  1  0  0  0  0
 56 57  1  0  0  0  0
 56199  1  0  0  0  0
 56200  1  0  0  0  0
 57 58  1  0  0  0  0
 57201  1  0  0  0  0
 58 59  1  0  0  0  0
 58 60  2  0  0  0  0
 59202  1  0  0  0  0
 59203  1  0  0  0  0
 60204  1  0  0  0  0
 61 62  1  0  0  0  0
 61205  1  0  0  0  0
 62 63  2  0  0  0  0
 64 62  1  0  0  0  0
 64 66  1  0  0  0  0
 64206  1  1  0  0  0
 64 65  1  0  0  0  0
 65207  1  0  0  0  0
 65208  1  0  0  0  0
 65209  1  0  0  0  0
 66 67  1  0  0  0  0
 66210  1  0  0  0  0
 67 68  2  0  0  0  0
 69 67  1  0  0  0  0
 69 75  1  0  0  0  0
 69211  1  6  0  0  0
 69 70  1  0  0  0  0
 70 71  1  0  0  0  0
 70212  1  0  0  0  0
 70213  1  0  0  0  0
 71 72  1  0  0  0  0
 71214  1  0  0  0  0
 71215  1  0  0  0  0
 72 73  1  0  0  0  0
 72 74  2  0  0  0  0
 73216  1  0  0  0  0
 75 76  1  0  0  0  0
 75217  1  0  0  0  0
 76 77  2  0  0  0  0
 78 76  1  0  0  0  0
 78 83  1  0  0  0  0
 78218  1  6  0  0  0
 78 79  1  0  0  0  0
 79 80  1  0  0  0  0
 79219  1  0  0  0  0
 79220  1  0  0  0  0
 80 81  1  0  0  0  0
 80 82  2  0  0  0  0
 81221  1  0  0  0  0
 83 84  1  0  0  0  0
 83222  1  0  0  0  0
 84 85  2  0  0  0  0
 86 84  1  0  0  0  0
 86 88  1  0  0  0  0
 86223  1  6  0  0  0
 86 87  1  0  0  0  0
 87224  1  0  0  0  0
 87225  1  0  0  0  0
 87226  1  0  0  0  0
 88 89  1  0  0  0  0
 88227  1  0  0  0  0
 89 90  2  0  0  0  0
 91 89  1  0  0  0  0
 91 97  1  0  0  0  0
 91228  1  6  0  0  0
 91 92  1  0  0  0  0
 92 93  1  0  0  0  0
 92229  1  0  0  0  0
 92230  1  0  0  0  0
 93 94  1  0  0  0  0
 93231  1  0  0  0  0
 93232  1  0  0  0  0
 94 95  1  0  0  0  0
 94 96  2  0  0  0  0
 95233  1  0  0  0  0
 95234  1  0  0  0  0
 97 98  1  0  0  0  0
 97235  1  0  0  0  0
 98 99  2  0  0  0  0
100101  2  0  0  0  0
100102  1  0  0  0  0
102236  1  0  0  0  0
103102  1  0  0  0  0
103104  1  0  0  0  0
103112  1  0  0  0  0
103237  1  1  0  0  0
104105  1  0  0  0  0
104238  1  0  0  0  0
104239  1  0  0  0  0
105106  2  0  0  0  0
105111  1  0  0  0  0
106107  1  0  0  0  0
106240  1  0  0  0  0
107108  2  0  0  0  0
107241  1  0  0  0  0
108109  1  0  0  0  0
108110  1  0  0  0  0
109242  1  0  0  0  0
110111  2  0  0  0  0
110243  1  0  0  0  0
111244  1  0  0  0  0
112113  2  0  0  0  0
112114  1  0  0  0  0
114245  1  0  0  0  0
115114  1  0  0  0  0
115116  1  0  0  0  0
115120  1  0  0  0  0
115246  1  1  0  0  0
116117  1  0  0  0  0
116247  1  0  0  0  0
116248  1  0  0  0  0
117118  1  0  0  0  0
117119  2  0  0  0  0
118249  1  0  0  0  0
118250  1  0  0  0  0
120121  2  0  0  0  0
120122  1  0  0  0  0
122251  1  0  0  0  0
123122  1  0  0  0  0
123124  1  0  0  0  0
123128  1  0  0  0  0
123252  1  1  0  0  0
124125  1  0  0  0  0
124253  1  0  0  0  0
124254  1  0  0  0  0
125126  1  0  0  0  0
125127  2  0  0  0  0
126255  1  0  0  0  0
128129  2  0  0  0  0
128130  1  0  0  0  0
130131  1  0  0  0  0
131132  1  0  0  0  0
131256  1  0  0  0  0
131257  1  0  0  0  0
132133  1  0  0  0  0
132258  1  0  0  0  0
132259  1  0  0  0  0
133260  1  0  0  0  0
133261  1  0  0  0  0
134133  1  0  0  0  0
134130  1  0  0  0  0
134135  1  0  0  0  0
134262  1  6  0  0  0
135136  2  0  0  0  0
135137  1  0  0  0  0
137263  1  0  0  0  0
138137  1  0  0  0  0
138139  1  0  0  0  0
138144  1  0  0  0  0
138264  1  0  0  0  0
139140  1  0  0  0  0
139265  1  0  0  0  0
139266  1  0  0  0  0
140141  1  0  0  0  0
140267  1  0  0  0  0
140268  1  0  0  0  0
141142  1  0  0  0  0
141269  1  0  0  0  0
141270  1  0  0  0  0
142143  1  0  0  0  0
142271  1  0  0  0  0
142272  1  0  0  0  0
143273  1  0  0  0  0
143274  1  0  0  0  0
144145  2  0  0  0  0
144146  1  0  0  0  0
146275  1  0  0  0  0
M  END
>  <DRUGBANK_ID>
DB15195

>  <COMMON_NAME>
Mibenratide

>  <CAS_NUMBER>
1239011-83-6

>  <UNII>
P1T1143877

>  <SYNONYMS>
JNJ-54452840; Mibenratide

$$$$
