1472
 OpenBabel10282417113D

 27 27  0  0  1  0  0  0  0  0999 V2000
    1.0225    0.1478   -0.0968 O   0  0  0  0  0  0  0  0  0  0  0  0
   -4.4447   -1.8092   -2.7974 N   0  0  0  0  0  0  0  0  0  0  0  0
   -2.2757   -2.6679   -3.7645 C   0  0  0  0  0  0  0  0  0  0  0  0
   -3.6740   -2.9987   -3.1840 C   0  0  3  0  0  0  0  0  0  0  0  0
   -1.3415   -1.9333   -2.8272 C   0  0  0  0  0  0  0  0  0  0  0  0
   -4.4988   -3.7649   -4.2174 C   0  0  0  0  0  0  0  0  0  0  0  0
   -0.1594   -2.5282   -2.3729 C   0  0  0  0  0  0  0  0  0  0  0  0
   -1.6257   -0.6207   -2.4246 C   0  0  0  0  0  0  0  0  0  0  0  0
    0.6973   -1.8425   -1.5000 C   0  0  0  0  0  0  0  0  0  0  0  0
   -0.7948    0.0463   -1.5304 C   0  0  0  0  0  0  0  0  0  0  0  0
    0.3603   -0.5619   -1.0564 C   0  0  0  0  0  0  0  0  0  0  0  0
    2.4374    0.0505   -0.1100 C   0  0  0  0  0  0  0  0  0  0  0  0
   -5.3646   -2.0845   -2.4583 H   0  0  0  0  0  0  0  0  0  0  0  0
   -3.9866   -1.3815   -1.9917 H   0  0  0  0  0  0  0  0  0  0  0  0
   -2.3690   -2.0785   -4.6857 H   0  0  0  0  0  0  0  0  0  0  0  0
   -1.8012   -3.6128   -4.0663 H   0  0  0  0  0  0  0  0  0  0  0  0
   -3.5522   -3.6268   -2.2930 H   0  0  0  0  0  0  0  0  0  0  0  0
   -4.0088   -4.7058   -4.4874 H   0  0  0  0  0  0  0  0  0  0  0  0
   -5.4924   -4.0091   -3.8249 H   0  0  0  0  0  0  0  0  0  0  0  0
   -4.6331   -3.1776   -5.1333 H   0  0  0  0  0  0  0  0  0  0  0  0
    0.1043   -3.5373   -2.6868 H   0  0  0  0  0  0  0  0  0  0  0  0
   -2.5097   -0.1050   -2.7887 H   0  0  0  0  0  0  0  0  0  0  0  0
    1.5934   -2.3464   -1.1596 H   0  0  0  0  0  0  0  0  0  0  0  0
   -1.0522    1.0521   -1.2071 H   0  0  0  0  0  0  0  0  0  0  0  0
    2.8055    0.6131    0.7534 H   0  0  0  0  0  0  0  0  0  0  0  0
    2.7923   -0.9772   -0.0025 H   0  0  0  0  0  0  0  0  0  0  0  0
    2.8401    0.5156   -1.0149 H   0  0  0  0  0  0  0  0  0  0  0  0
  1 11  1  0  0  0  0
  1 12  1  0  0  0  0
  2  4  1  0  0  0  0
  2 13  1  0  0  0  0
  2 14  1  0  0  0  0
  3  4  1  0  0  0  0
  3  5  1  0  0  0  0
  3 15  1  0  0  0  0
  3 16  1  0  0  0  0
  4  6  1  0  0  0  0
  4 17  1  0  0  0  0
  5  7  2  0  0  0  0
  5  8  1  0  0  0  0
  6 18  1  0  0  0  0
  6 19  1  0  0  0  0
  6 20  1  0  0  0  0
  7  9  1  0  0  0  0
  7 21  1  0  0  0  0
  8 10  2  0  0  0  0
  8 22  1  0  0  0  0
  9 11  2  0  0  0  0
  9 23  1  0  0  0  0
 10 11  1  0  0  0  0
 10 24  1  0  0  0  0
 12 25  1  0  0  0  0
 12 26  1  0  0  0  0
 12 27  1  0  0  0  0
M  END
>  <DRUGBANK_ID>
DB01472

>  <SECONDARY_ACCESSION_NUMBERS>
EXPT03303

>  <COMMON_NAME>
4-Methoxyamphetamine

>  <CAS_NUMBER>
64-13-1

>  <UNII>
OVB8F8P39Q

>  <SYNONYMS>
(2RS)-1-(4-methoxyphenyl)propan-2-amine; 4-methoxyamfetamine; D,L-p-methoxyamphetamine; Formoterol fumarate related compound G; P-methoxyamfetamine; P-methoxyamphetamine; Paramethoxyamphetamine

$$$$
