[NO NAME]
 OpenBabel10282417123D
Created with ChemWriter - http://chemwriter.com
 73 75  0  0  1  0  0  0  0  0999 V2000
   -1.1969   -2.4789    0.2129 C   0  0  0  0  0  0  0  0  0  0  0  0
   -2.8376   -4.2431    0.7174 N   0  0  0  0  0  0  0  0  0  0  0  0
    0.3103   -1.4271   -0.2054 C   0  0  0  0  0  0  0  0  0  0  0  0
    0.3435   -0.4917   -0.0204 C   0  0  0  0  0  0  0  0  0  0  0  0
   -4.2783   -6.2150    1.1151 C   0  0  0  0  0  0  0  0  0  0  0  0
   -2.2798   -2.0939    0.0590 C   0  0  0  0  0  0  0  0  0  0  0  0
   -0.9273   -1.5878    0.0887 C   0  0  0  0  0  0  0  0  0  0  0  0
    2.2575    0.3276   -0.2573 O   0  0  0  0  0  0  0  0  0  0  0  0
    1.0577    1.1089   -0.0800 O   0  0  0  0  0  0  0  0  0  0  0  0
   -5.9241   -8.2247    1.2888 C   0  0  0  0  0  0  0  0  0  0  0  0
   -4.7103   -7.5741    2.0409 O   0  0  0  0  0  0  0  0  0  0  0  0
    3.5554   -0.5303   -0.3995 C   0  0  1  0  0  0  0  0  0  0  0  0
   -7.6586   -9.3074    1.8020 N   0  0  0  0  0  0  0  0  0  0  0  0
   -7.1655  -10.1087    1.2883 C   0  0  0  0  0  0  0  0  0  0  0  0
    3.2167   -1.0895    0.9556 C   0  0  1  0  0  0  0  0  0  0  0  0
    2.8724   -1.0923   -1.6180 C   0  0  0  0  0  0  0  0  0  0  0  0
   -8.8052   -9.4920    0.8636 C   0  0  0  0  0  0  0  0  0  0  0  0
   -8.9343  -10.6855    0.5003 O   0  0  0  0  0  0  0  0  0  0  0  0
    1.9216   -0.6769    1.5417 C   0  0  0  0  0  0  0  0  0  0  0  0
    3.3434   -2.5628    0.9931 C   0  0  0  0  0  0  0  0  0  0  0  0
    3.3182   -0.5131   -2.8828 C   0  0  0  0  0  0  0  0  0  0  0  0
    2.9577   -2.5618   -1.6859 C   0  0  0  0  0  0  0  0  0  0  0  0
   -9.2640   -8.3535    0.1923 C   0  0  0  0  0  0  0  0  0  0  0  0
    1.0419   -1.6172    1.8116 C   0  0  0  0  0  0  0  0  0  0  0  0
   -8.0969   -7.3898    0.1985 C   0  0  0  0  0  0  0  0  0  0  0  0
   -0.7666   -0.9918    2.1375 C   0  0  0  0  0  0  0  0  0  0  0  0
   -7.5892   -6.8410   -1.1027 C   0  0  0  0  0  0  0  0  0  0  0  0
   -7.5819   -7.0132    1.2553 O   0  0  0  0  0  0  0  0  0  0  0  0
   -1.8439   -2.3167    2.1367 N   0  0  0  0  0  0  0  0  0  0  0  0
   -1.0640    0.1269    1.6438 O   0  0  0  0  0  0  0  0  0  0  0  0
   -7.6705   -5.3234   -1.0327 C   0  0  1  0  0  0  0  0  0  0  0  0
   -3.2476   -1.8928    1.8735 C   0  0  0  0  0  0  0  0  0  0  0  0
   -6.8440   -4.7299    0.0138 C   0  0  0  0  0  0  0  0  0  0  0  0
   -7.3542   -4.9132   -2.3089 O   0  0  0  0  0  0  0  0  0  0  0  0
   -4.1313   -2.4226    0.6777 C   0  0  0  0  0  0  0  0  0  0  0  0
   -5.8414   -3.8819   -0.2268 C   0  0  0  0  0  0  0  0  0  0  0  0
   -5.0726   -3.3220    0.8713 C   0  0  0  0  0  0  0  0  0  0  0  0
   -5.5138   -3.4608   -1.6332 C   0  0  0  0  0  0  0  0  0  0  0  0
    1.6954   -1.4371   -0.2166 H   0  0  0  0  0  0  0  0  0  0  0  0
   -2.3459   -0.4614    0.3816 H   0  0  0  0  0  0  0  0  0  0  0  0
   -1.8819   -0.7290   -0.8009 H   0  0  0  0  0  0  0  0  0  0  0  0
   -0.2442   -2.2872    1.2613 H   0  0  0  0  0  0  0  0  0  0  0  0
   -0.3691   -2.0522   -0.9899 H   0  0  0  0  0  0  0  0  0  0  0  0
    4.6770   -0.7480   -0.5527 H   0  0  0  0  0  0  0  0  0  0  0  0
   -8.1446  -11.6641    1.2702 H   0  0  0  0  0  0  0  0  0  0  0  0
    3.7773   -0.6694    1.7314 H   0  0  0  0  0  0  0  0  0  0  0  0
    1.8245   -0.7864   -1.5790 H   0  0  0  0  0  0  0  0  0  0  0  0
    1.5045    0.3510    1.4059 H   0  0  0  0  0  0  0  0  0  0  0  0
    4.3152   -2.8862    0.7532 H   0  0  0  0  0  0  0  0  0  0  0  0
    2.9296   -3.0025    1.8651 H   0  0  0  0  0  0  0  0  0  0  0  0
    2.6726   -3.0510    0.3964 H   0  0  0  0  0  0  0  0  0  0  0  0
    4.3480   -0.7946   -3.0234 H   0  0  0  0  0  0  0  0  0  0  0  0
    2.7145   -0.9132   -3.6888 H   0  0  0  0  0  0  0  0  0  0  0  0
    3.2275    0.5635   -2.8668 H   0  0  0  0  0  0  0  0  0  0  0  0
    2.4730   -3.0457   -0.9334 H   0  0  0  0  0  0  0  0  0  0  0  0
    2.3272   -2.9945   -2.4118 H   0  0  0  0  0  0  0  0  0  0  0  0
    3.9698   -2.8867   -1.7162 H   0  0  0  0  0  0  0  0  0  0  0  0
  -10.0629   -7.9341    0.7920 H   0  0  0  0  0  0  0  0  0  0  0  0
   -9.6063   -8.5281   -0.8068 H   0  0  0  0  0  0  0  0  0  0  0  0
    1.0907   -2.7130    1.2570 H   0  0  0  0  0  0  0  0  0  0  0  0
   -8.1767   -7.2342   -1.9396 H   0  0  0  0  0  0  0  0  0  0  0  0
   -6.5517   -7.1224   -1.2744 H   0  0  0  0  0  0  0  0  0  0  0  0
   -1.5284   -3.2961    1.6448 H   0  0  0  0  0  0  0  0  0  0  0  0
   -8.7370   -5.0288   -0.9282 H   0  0  0  0  0  0  0  0  0  0  0  0
   -3.5520   -2.3075    2.7509 H   0  0  0  0  0  0  0  0  0  0  0  0
   -3.2613   -0.8225    1.8083 H   0  0  0  0  0  0  0  0  0  0  0  0
   -7.0735   -5.0277    1.0347 H   0  0  0  0  0  0  0  0  0  0  0  0
   -8.1735   -5.3175   -2.3668 H   0  0  0  0  0  0  0  0  0  0  0  0
   -3.8685   -2.1791   -0.3906 H   0  0  0  0  0  0  0  0  0  0  0  0
   -5.2316   -3.6214    1.9042 H   0  0  0  0  0  0  0  0  0  0  0  0
   -5.6531   -2.4049   -1.7768 H   0  0  0  0  0  0  0  0  0  0  0  0
   -4.5291   -3.7725   -1.9301 H   0  0  0  0  0  0  0  0  0  0  0  0
   -6.1163   -3.8722   -2.3742 H   0  0  0  0  0  0  0  0  0  0  0  0
  1  2  1  0  0  0  0
  1  3  2  0  0  0  0
  1  4  1  0  0  0  0
  2  5  1  0  0  0  0
  2  6  1  0  0  0  0
  3  7  1  0  0  0  0
  3 39  1  0  0  0  0
  4  8  1  0  0  0  0
  4  9  2  0  0  0  0
  5 10  1  0  0  0  0
  5 11  2  0  0  0  0
  6  7  1  0  0  0  0
  6 40  1  0  0  0  0
  6 41  1  0  0  0  0
  7 42  1  0  0  0  0
  7 43  1  0  0  0  0
  8 12  1  0  0  0  0
 10 13  1  0  0  0  0
 10 14  2  0  0  0  0
 12 15  1  0  0  0  0
 12 16  1  0  0  0  0
 12 44  1  6  0  0  0
 13 17  2  0  0  0  0
 14 18  1  0  0  0  0
 14 45  1  0  0  0  0
 15 19  1  0  0  0  0
 15 20  1  0  0  0  0
 15 46  1  1  0  0  0
 16 21  1  0  0  0  0
 16 22  1  0  0  0  0
 16 47  1  0  0  0  0
 17 23  1  0  0  0  0
 17 18  1  0  0  0  0
 19 24  2  0  0  0  0
 19 48  1  0  0  0  0
 20 49  1  0  0  0  0
 20 50  1  0  0  0  0
 20 51  1  0  0  0  0
 21 52  1  0  0  0  0
 21 53  1  0  0  0  0
 21 54  1  0  0  0  0
 22 55  1  0  0  0  0
 22 56  1  0  0  0  0
 22 57  1  0  0  0  0
 23 25  1  0  0  0  0
 23 58  1  0  0  0  0
 23 59  1  0  0  0  0
 24 26  1  0  0  0  0
 24 60  1  0  0  0  0
 25 27  1  0  0  0  0
 25 28  2  0  0  0  0
 26 29  1  0  0  0  0
 26 30  2  0  0  0  0
 27 31  1  0  0  0  0
 27 61  1  0  0  0  0
 27 62  1  0  0  0  0
 29 32  1  0  0  0  0
 29 63  1  0  0  0  0
 31 33  1  0  0  0  0
 31 64  1  1  0  0  0
 31 34  1  0  0  0  0
 32 35  1  0  0  0  0
 32 65  1  0  0  0  0
 32 66  1  0  0  0  0
 33 36  2  0  0  0  0
 33 67  1  0  0  0  0
 34 68  1  0  0  0  0
 35 37  2  0  0  0  0
 35 69  1  0  0  0  0
 36 38  1  0  0  0  0
 36 37  1  0  0  0  0
 37 70  1  0  0  0  0
 38 71  1  0  0  0  0
 38 72  1  0  0  0  0
 38 73  1  0  0  0  0
M  END
>  <DRUGBANK_ID>
DB01669

>  <SECONDARY_ACCESSION_NUMBERS>
EXPT03225

>  <COMMON_NAME>
Virginiamycin M1

>  <CAS_NUMBER>
21411-53-0

>  <UNII>
8W4UOL59AZ

>  <SYNONYMS>
Mikamycin A; Ostreogrycin A; Pristinamycin IIA; Streptogramin A; Virginiamycin factor M1; Virginiamycin M1

$$$$
