
 OpenBabel10282417233D

 47 49  0  0  0  0  0  0  0  0999 V2000
    0.7093    0.0346   -0.1068 C   0  0  0  0  0  0  0  0  0  0  0  0
    0.4907    0.5668    1.1957 O   0  0  0  0  0  0  0  0  0  0  0  0
    0.8594   -0.1820    2.2836 C   0  0  0  0  0  0  0  0  0  0  0  0
    2.1572   -0.6121    2.5172 C   0  0  0  0  0  0  0  0  0  0  0  0
    3.2843   -0.4607    1.5548 C   0  0  0  0  0  0  0  0  0  0  0  0
    2.3884   -1.1935    3.7690 C   0  0  0  0  0  0  0  0  0  0  0  0
    3.7614   -1.6876    4.1712 C   0  0  0  0  0  0  0  0  0  0  0  0
    4.3490   -0.8453    5.2046 N   0  0  0  0  0  0  0  0  0  0  0  0
    3.9272   -0.7709    6.5161 C   0  0  0  0  0  0  0  0  0  0  0  0
    4.6346    0.2287    7.1875 C   0  0  0  0  0  0  0  0  0  0  0  0
    4.3425    0.5736    8.6131 C   0  0  0  0  0  0  0  0  0  0  0  0
    3.4647   -0.0103    9.2334 O   0  0  0  0  0  0  0  0  0  0  0  0
    5.0253    1.5526    9.3368 N   0  0  0  0  0  0  0  0  0  0  0  0
    6.1351    2.3590    8.9128 C   0  0  0  0  0  0  0  0  0  0  0  0
    5.8197    3.8081    8.5966 C   0  0  0  0  0  0  0  0  0  0  0  0
    5.7005    4.5093    9.8245 O   0  0  0  0  0  0  0  0  0  0  0  0
    5.5527    0.7100    6.1869 C   0  0  0  0  0  0  0  0  0  0  0  0
    6.4742    1.6872    6.2518 N   0  0  0  0  0  0  0  0  0  0  0  0
    7.2773    1.9582    5.2558 C   0  0  0  0  0  0  0  0  0  0  0  0
    7.1880    1.3240    4.0532 C   0  0  0  0  0  0  0  0  0  0  0  0
    8.1082    1.7538    2.9692 C   0  0  0  0  0  0  0  0  0  0  0  0
    6.2226    0.3204    3.8961 C   0  0  0  0  0  0  0  0  0  0  0  0
    5.3960    0.0177    4.9970 C   0  0  0  0  0  0  0  0  0  0  0  0
    1.4170   -1.3260    4.6997 N   0  0  0  0  0  0  0  0  0  0  0  0
    0.2163   -0.8330    4.3850 C   0  0  0  0  0  0  0  0  0  0  0  0
   -0.1141   -0.2718    3.2146 N   0  0  0  0  0  0  0  0  0  0  0  0
    0.1591    0.6651   -0.8112 H   0  0  0  0  0  0  0  0  0  0  0  0
    0.3859   -1.0037   -0.2090 H   0  0  0  0  0  0  0  0  0  0  0  0
    1.7346    0.1322   -0.4586 H   0  0  0  0  0  0  0  0  0  0  0  0
    4.1113    0.0776    2.0144 H   0  0  0  0  0  0  0  0  0  0  0  0
    3.6032   -1.4462    1.1991 H   0  0  0  0  0  0  0  0  0  0  0  0
    3.0671    0.1566    0.6993 H   0  0  0  0  0  0  0  0  0  0  0  0
    3.7318   -2.7197    4.5293 H   0  0  0  0  0  0  0  0  0  0  0  0
    4.4543   -1.6833    3.3273 H   0  0  0  0  0  0  0  0  0  0  0  0
    3.1108   -1.3950    6.8671 H   0  0  0  0  0  0  0  0  0  0  0  0
    4.7428    1.6052   10.3061 H   0  0  0  0  0  0  0  0  0  0  0  0
    7.0387    2.1892    9.5004 H   0  0  0  0  0  0  0  0  0  0  0  0
    6.4071    1.9109    8.0276 H   0  0  0  0  0  0  0  0  0  0  0  0
    6.6238    4.2608    8.0019 H   0  0  0  0  0  0  0  0  0  0  0  0
    4.8893    3.9205    8.0277 H   0  0  0  0  0  0  0  0  0  0  0  0
    5.0695    3.9868   10.3489 H   0  0  0  0  0  0  0  0  0  0  0  0
    8.0039    2.7364    5.4726 H   0  0  0  0  0  0  0  0  0  0  0  0
    8.7257    0.9097    2.6610 H   0  0  0  0  0  0  0  0  0  0  0  0
    7.5252    2.1499    2.1360 H   0  0  0  0  0  0  0  0  0  0  0  0
    8.7769    2.5521    3.3184 H   0  0  0  0  0  0  0  0  0  0  0  0
    6.1295   -0.1926    2.9491 H   0  0  0  0  0  0  0  0  0  0  0  0
   -0.5471   -0.8917    5.1556 H   0  0  0  0  0  0  0  0  0  0  0  0
  1  2  1  0  0  0  0
  1 27  1  0  0  0  0
  1 28  1  0  0  0  0
  1 29  1  0  0  0  0
  2  3  1  0  0  0  0
  3  4  2  0  0  0  0
  3 26  1  0  0  0  0
  4  5  1  0  0  0  0
  4  6  1  0  0  0  0
  5 30  1  0  0  0  0
  5 31  1  0  0  0  0
  5 32  1  0  0  0  0
  6  7  1  0  0  0  0
  6 24  2  0  0  0  0
  7  8  1  0  0  0  0
  7 33  1  0  0  0  0
  7 34  1  0  0  0  0
  8  9  1  0  0  0  0
  8 23  1  0  0  0  0
  9 10  2  0  0  0  0
  9 35  1  0  0  0  0
 10 11  1  0  0  0  0
 10 17  1  0  0  0  0
 11 12  2  0  0  0  0
 11 13  1  0  0  0  0
 13 14  1  0  0  0  0
 13 36  1  0  0  0  0
 14 15  1  0  0  0  0
 14 37  1  0  0  0  0
 14 38  1  0  0  0  0
 15 16  1  0  0  0  0
 15 39  1  0  0  0  0
 15 40  1  0  0  0  0
 16 41  1  0  0  0  0
 17 18  2  0  0  0  0
 17 23  1  0  0  0  0
 18 19  1  0  0  0  0
 19 20  2  0  0  0  0
 19 42  1  0  0  0  0
 20 21  1  0  0  0  0
 20 22  1  0  0  0  0
 21 43  1  0  0  0  0
 21 44  1  0  0  0  0
 21 45  1  0  0  0  0
 22 23  2  0  0  0  0
 22 46  1  0  0  0  0
 24 25  1  0  0  0  0
 25 26  2  0  0  0  0
 25 47  1  0  0  0  0
M  END
>  <DRUGBANK_ID>
DB16243

>  <COMMON_NAME>
TBA-7371

>  <CAS_NUMBER>
1494675-86-3

>  <UNII>
R3T98GBE3C

$$$$
