
 OpenBabel10282417143D

 51 54  0  0  1  0  0  0  0  0999 V2000
    3.4758   -0.2796    0.0040 Cl  0  0  0  0  0  0  0  0  0  0  0  0
   -2.8252   -3.7875    1.6829 O   0  0  0  0  0  0  0  0  0  0  0  0
   -5.7432    0.2209   -3.0689 O   0  0  0  0  0  0  0  0  0  0  0  0
   -3.3397   -2.6826   -0.3716 N   0  0  0  0  0  0  0  0  0  0  0  0
   -1.0113   -1.8236   -0.2013 N   0  0  0  0  0  0  0  0  0  0  0  0
    1.0408   -0.9127   -0.0700 N   0  0  0  0  0  0  0  0  0  0  0  0
   -4.6108   -2.6430   -1.2249 C   0  0  3  0  0  0  0  0  0  0  0  0
   -5.7172   -1.5070   -1.3854 C   0  0  0  0  0  0  0  0  0  0  0  0
   -5.3549   -3.8833   -0.6763 C   0  0  0  0  0  0  0  0  0  0  0  0
   -4.7164   -4.3898    0.4508 C   0  0  0  0  0  0  0  0  0  0  0  0
   -3.4565   -3.6564    0.6729 C   0  0  0  0  0  0  0  0  0  0  0  0
   -5.4440   -0.1034   -1.9178 C   0  0  0  0  0  0  0  0  0  0  0  0
   -4.6473    0.8397   -1.0808 C   0  0  0  0  0  0  0  0  0  0  0  0
   -5.0594    1.0238    0.5570 C   0  0  0  0  0  0  0  0  0  0  0  0
   -5.4520   -0.2106    1.5774 C   0  0  0  0  0  0  0  0  0  0  0  0
   -2.3095   -1.6628   -0.2188 C   0  0  0  0  0  0  0  0  0  0  0  0
   -6.4918   -4.5452   -1.1367 C   0  0  0  0  0  0  0  0  0  0  0  0
   -5.2114   -5.4479    1.2101 C   0  0  0  0  0  0  0  0  0  0  0  0
   -6.9560   -5.6833   -0.4464 C   0  0  0  0  0  0  0  0  0  0  0  0
   -6.3341   -6.1210    0.7325 C   0  0  0  0  0  0  0  0  0  0  0  0
   -4.4621   -1.2520    2.1346 C   0  0  0  0  0  0  0  0  0  0  0  0
   -6.0453    0.2007    2.8920 C   0  0  0  0  0  0  0  0  0  0  0  0
   -2.6946   -0.4015    0.1333 C   0  0  0  0  0  0  0  0  0  0  0  0
   -2.0066    0.8045    0.1890 C   0  0  0  0  0  0  0  0  0  0  0  0
   -0.2357   -0.7168   -0.0715 C   0  0  0  0  0  0  0  0  0  0  0  0
   -0.7045    0.6369    0.0330 C   0  0  0  0  0  0  0  0  0  0  0  0
    0.1008    1.7693    0.0188 C   0  0  0  0  0  0  0  0  0  0  0  0
    1.4403    1.5054   -0.0028 C   0  0  0  0  0  0  0  0  0  0  0  0
    1.8337    0.1692   -0.0208 C   0  0  0  0  0  0  0  0  0  0  0  0
   -4.2681   -2.8793   -2.2324 H   0  0  0  0  0  0  0  0  0  0  0  0
   -6.4262   -1.8812   -2.1437 H   0  0  0  0  0  0  0  0  0  0  0  0
   -6.4068   -1.4200   -0.5514 H   0  0  0  0  0  0  0  0  0  0  0  0
   -3.7228    0.3399   -1.4132 H   0  0  0  0  0  0  0  0  0  0  0  0
   -4.3477    1.8020   -1.5258 H   0  0  0  0  0  0  0  0  0  0  0  0
   -4.2648    1.5681    1.0934 H   0  0  0  0  0  0  0  0  0  0  0  0
   -5.8811    1.7395    0.5392 H   0  0  0  0  0  0  0  0  0  0  0  0
   -6.2187   -0.7717    1.0695 H   0  0  0  0  0  0  0  0  0  0  0  0
   -7.0082   -4.2342   -2.0402 H   0  0  0  0  0  0  0  0  0  0  0  0
   -4.7153   -5.7694    2.1223 H   0  0  0  0  0  0  0  0  0  0  0  0
   -7.8012   -6.2512   -0.8360 H   0  0  0  0  0  0  0  0  0  0  0  0
   -6.7022   -7.0065    1.2504 H   0  0  0  0  0  0  0  0  0  0  0  0
   -3.5413   -0.8999    2.6184 H   0  0  0  0  0  0  0  0  0  0  0  0
   -4.9058   -2.0635    2.7240 H   0  0  0  0  0  0  0  0  0  0  0  0
   -4.2112   -1.8052    1.2907 H   0  0  0  0  0  0  0  0  0  0  0  0
   -6.8434    0.9111    2.7432 H   0  0  0  0  0  0  0  0  0  0  0  0
   -6.4583   -0.7109    3.3561 H   0  0  0  0  0  0  0  0  0  0  0  0
   -5.2585    0.5756    3.5554 H   0  0  0  0  0  0  0  0  0  0  0  0
   -3.7202   -0.4146    0.2746 H   0  0  0  0  0  0  0  0  0  0  0  0
   -2.4785    1.7867    0.2738 H   0  0  0  0  0  0  0  0  0  0  0  0
   -0.2897    2.7914    0.0398 H   0  0  0  0  0  0  0  0  0  0  0  0
    2.1624    2.3076    0.0132 H   0  0  0  0  0  0  0  0  0  0  0  0
  1 29  1  0  0  0  0
  2 11  2  0  0  0  0
  3 12  2  0  0  0  0
  4  7  1  0  0  0  0
  4 11  1  0  0  0  0
  4 16  1  0  0  0  0
  5 16  2  0  0  0  0
  5 25  1  0  0  0  0
  6 25  1  0  0  0  0
  6 29  2  0  0  0  0
  7  8  1  0  0  0  0
  7  9  1  0  0  0  0
  7 30  1  0  0  0  0
  8 12  1  0  0  0  0
  8 31  1  0  0  0  0
  8 32  1  0  0  0  0
  9 10  1  0  0  0  0
  9 17  2  0  0  0  0
 10 11  1  0  0  0  0
 10 18  2  0  0  0  0
 12 13  1  0  0  0  0
 13 14  1  0  0  0  0
 13 33  1  0  0  0  0
 13 34  1  0  0  0  0
 14 15  1  0  0  0  0
 14 35  1  0  0  0  0
 14 36  1  0  0  0  0
 15 21  1  0  0  0  0
 15 22  1  0  0  0  0
 15 37  1  0  0  0  0
 16 23  1  0  0  0  0
 17 19  1  0  0  0  0
 17 38  1  0  0  0  0
 18 20  1  0  0  0  0
 18 39  1  0  0  0  0
 19 20  2  0  0  0  0
 19 40  1  0  0  0  0
 20 41  1  0  0  0  0
 21 42  1  0  0  0  0
 21 43  1  0  0  0  0
 21 44  1  0  0  0  0
 22 45  1  0  0  0  0
 22 46  1  0  0  0  0
 22 47  1  0  0  0  0
 23 24  2  0  0  0  0
 23 48  1  0  0  0  0
 24 26  1  0  0  0  0
 24 49  1  0  0  0  0
 25 26  2  0  0  0  0
 26 27  1  0  0  0  0
 27 28  2  0  0  0  0
 27 50  1  0  0  0  0
 28 29  1  0  0  0  0
 28 51  1  0  0  0  0
M  END
>  <DRUGBANK_ID>
DB04903

>  <COMMON_NAME>
Pagoclone

>  <CAS_NUMBER>
133737-32-3

>  <UNII>
38VAG2SA33

>  <SYNONYMS>
Pagoclone

$$$$
