1243
 OpenBabel10282417113D

 18 19  0  0  0  0  0  0  0  0999 V2000
    0.9620    0.1545   -0.0495 Cl  0  0  0  0  0  0  0  0  0  0  0  0
    5.5666    2.8447   -0.2442 Cl  0  0  0  0  0  0  0  0  0  0  0  0
    6.8501    0.1623   -0.0653 O   0  0  0  0  0  0  0  0  0  0  0  0
    5.5342   -2.2571    0.0022 N   0  0  0  0  0  0  0  0  0  0  0  0
    3.4051   -1.1216    0.0115 C   0  0  0  0  0  0  0  0  0  0  0  0
    4.8246   -1.1085    0.0077 C   0  0  0  0  0  0  0  0  0  0  0  0
    5.4692    0.1337   -0.0418 C   0  0  0  0  0  0  0  0  0  0  0  0
    2.6962    0.0993   -0.0186 C   0  0  0  0  0  0  0  0  0  0  0  0
    2.7721   -2.3771   -0.0294 C   0  0  0  0  0  0  0  0  0  0  0  0
    4.7503    1.3303   -0.1126 C   0  0  0  0  0  0  0  0  0  0  0  0
    3.3624    1.3174   -0.1013 C   0  0  0  0  0  0  0  0  0  0  0  0
    3.5121   -3.5324   -0.2108 C   0  0  0  0  0  0  0  0  0  0  0  0
    4.8835   -3.4298   -0.1350 C   0  0  0  0  0  0  0  0  0  0  0  0
    7.1381    1.0897   -0.1328 H   0  0  0  0  0  0  0  0  0  0  0  0
    1.6885   -2.4634    0.0288 H   0  0  0  0  0  0  0  0  0  0  0  0
    2.8008    2.2433   -0.1809 H   0  0  0  0  0  0  0  0  0  0  0  0
    3.0290   -4.4799   -0.4150 H   0  0  0  0  0  0  0  0  0  0  0  0
    5.5148   -4.3102   -0.1907 H   0  0  0  0  0  0  0  0  0  0  0  0
  1  8  1  0  0  0  0
  2 10  1  0  0  0  0
  3  7  1  0  0  0  0
  3 14  1  0  0  0  0
  4  6  1  0  0  0  0
  4 13  2  0  0  0  0
  5  6  2  0  0  0  0
  5  8  1  0  0  0  0
  5  9  1  0  0  0  0
  6  7  1  0  0  0  0
  7 10  2  0  0  0  0
  8 11  2  0  0  0  0
  9 12  2  0  0  0  0
  9 15  1  0  0  0  0
 10 11  1  0  0  0  0
 11 16  1  0  0  0  0
 12 13  1  0  0  0  0
 12 17  1  0  0  0  0
 13 18  1  0  0  0  0
M  END
>  <DRUGBANK_ID>
DB01243

>  <SECONDARY_ACCESSION_NUMBERS>
APRD00866

>  <COMMON_NAME>
Chloroxine

>  <CAS_NUMBER>
773-76-2

>  <UNII>
2I8BD50I8B

>  <SYNONYMS>
5,7-dichlor-8-hydroxychinolin; 5,7-dichloro-8-hydroxyquinoline; 5,7-dichloro-8-oxyquinoline; 5,7-dichloro-8-quinolinol; 5,7-dichlorooxine; 5,7-dichloroxine; Chloroxine; Chlorquinol; CHQ

$$$$
