
 OpenBabel10282417183D

 82 83  0  0  0  0  0  0  0  0999 V2000
   -3.1169   -0.9049   -0.6182 C   0  0  0  0  0  0  0  0  0  0  0  0
   -3.1763    0.4271   -0.0773 N   0  0  0  0  0  0  0  0  0  0  0  0
   -1.1746   -2.3900   -0.5783 N   0  0  0  0  0  0  0  0  0  0  0  0
   -2.1367   -1.7614    0.1897 C   0  0  0  0  0  0  0  0  0  0  0  0
   -2.4611    1.4643   -0.6398 C   0  0  0  0  0  0  0  0  0  0  0  0
   -1.6170    2.3122    0.3366 C   0  0  1  0  0  0  0  0  0  0  0  0
   -0.6174    3.1985   -0.2598 N   0  0  0  0  0  0  0  0  0  0  0  0
    0.6904    3.2570    0.1974 C   0  0  0  0  0  0  0  0  0  0  0  0
    1.8134    2.3773   -0.6367 C   0  0  1  0  0  0  0  0  0  0  0  0
    2.5362    1.3643    0.1712 N   0  0  0  0  0  0  0  0  0  0  0  0
    3.3284    0.2685   -0.2042 C   0  0  0  0  0  0  0  0  0  0  0  0
    2.8989   -1.2359    0.2917 C   0  0  2  0  0  0  0  0  0  0  0  0
    1.6465   -1.8612   -0.2525 N   0  0  0  0  0  0  0  0  0  0  0  0
   -2.2334   -1.8876    1.4051 O   0  0  0  0  0  0  0  0  0  0  0  0
   -2.3654    1.5794   -1.8744 O   0  0  0  0  0  0  0  0  0  0  0  0
    0.9265    3.9793    1.1672 O   0  0  0  0  0  0  0  0  0  0  0  0
    4.3602    0.4326   -0.8637 O   0  0  0  0  0  0  0  0  0  0  0  0
   -2.4403    3.0686    1.3794 C   0  0  0  0  0  0  0  0  0  0  0  0
   -3.5107    2.3327    2.2165 C   0  0  0  0  0  0  0  0  0  0  0  0
   -3.0363    1.2535    3.1827 C   0  0  0  0  0  0  0  0  0  0  0  0
   -2.2028    1.9059    4.1594 N   0  0  0  0  0  0  0  0  0  0  0  0
   -2.1407    1.5726    5.4547 C   0  0  0  0  0  0  0  0  0  0  0  0
   -1.3081    2.3515    6.1798 N   0  0  0  0  0  0  0  0  0  0  0  0
   -2.8863    0.6544    5.9435 N   0  0  0  0  0  0  0  0  0  0  0  0
    1.1261    1.7017   -1.8278 C   0  0  0  0  0  0  0  0  0  0  0  0
    0.5098    2.7481   -2.7546 C   0  0  0  0  0  0  0  0  0  0  0  0
    2.0849    0.9103   -2.7077 C   0  0  0  0  0  0  0  0  0  0  0  0
    2.7857    1.7932    1.4810 C   0  0  0  0  0  0  0  0  0  0  0  0
    3.0395   -1.3954    1.8495 C   0  0  0  0  0  0  0  0  0  0  0  0
    1.9694   -0.7448    2.7091 C   0  0  0  0  0  0  0  0  0  0  0  0
    0.6693   -0.6628    2.2421 C   0  0  0  0  0  0  0  0  0  0  0  0
   -0.0987    0.3987    2.6064 C   0  0  0  0  0  0  0  0  0  0  0  0
    0.3827    1.3997    3.4243 C   0  0  0  0  0  0  0  0  0  0  0  0
    1.5450    1.2024    4.1303 C   0  0  0  0  0  0  0  0  0  0  0  0
    2.3567    0.1242    3.7580 C   0  0  0  0  0  0  0  0  0  0  0  0
   -0.3131   -3.4365   -0.0147 C   0  0  2  0  0  0  0  0  0  0  0  0
    1.0807   -2.9645    0.3866 C   0  0  0  0  0  0  0  0  0  0  0  0
    1.6320   -3.5891    1.2878 O   0  0  0  0  0  0  0  0  0  0  0  0
   -0.1589   -4.6151   -0.9612 C   0  0  0  0  0  0  0  0  0  0  0  0
    0.6140   -5.7744   -0.3395 C   0  0  0  0  0  0  0  0  0  0  0  0
   -0.1120   -6.9064   -0.1860 O   0  0  0  0  0  0  0  0  0  0  0  0
    1.7909   -5.7516   -0.0754 O   0  0  0  0  0  0  0  0  0  0  0  0
   -4.1011   -1.3631   -0.4935 H   0  0  0  0  0  0  0  0  0  0  0  0
   -2.8257   -0.8727   -1.6649 H   0  0  0  0  0  0  0  0  0  0  0  0
   -3.5338    0.4363    0.8642 H   0  0  0  0  0  0  0  0  0  0  0  0
   -0.9328   -1.9666   -1.4646 H   0  0  0  0  0  0  0  0  0  0  0  0
   -0.9495    1.5727    0.7235 H   0  0  0  0  0  0  0  0  0  0  0  0
   -0.9700    4.0759   -0.6198 H   0  0  0  0  0  0  0  0  0  0  0  0
    2.5730    3.1036   -0.9593 H   0  0  0  0  0  0  0  0  0  0  0  0
    3.6750   -1.8739   -0.1608 H   0  0  0  0  0  0  0  0  0  0  0  0
    1.2083   -1.4585   -1.0682 H   0  0  0  0  0  0  0  0  0  0  0  0
   -1.7588    3.6168    2.0422 H   0  0  0  0  0  0  0  0  0  0  0  0
   -2.9791    3.8483    0.8289 H   0  0  0  0  0  0  0  0  0  0  0  0
   -4.0154    3.0810    2.8330 H   0  0  0  0  0  0  0  0  0  0  0  0
   -4.2966    1.9535    1.5626 H   0  0  0  0  0  0  0  0  0  0  0  0
   -3.8692    0.7253    3.6485 H   0  0  0  0  0  0  0  0  0  0  0  0
   -2.5598    0.4281    2.6631 H   0  0  0  0  0  0  0  0  0  0  0  0
   -1.7965    2.7915    3.9077 H   0  0  0  0  0  0  0  0  0  0  0  0
   -1.1290    2.0552    7.1298 H   0  0  0  0  0  0  0  0  0  0  0  0
   -0.4747    2.7230    5.7377 H   0  0  0  0  0  0  0  0  0  0  0  0
   -2.7467    0.6010    6.9459 H   0  0  0  0  0  0  0  0  0  0  0  0
    0.3691    1.0090   -1.4337 H   0  0  0  0  0  0  0  0  0  0  0  0
    1.2770    3.4630   -3.0604 H   0  0  0  0  0  0  0  0  0  0  0  0
    0.0566    2.2579   -3.6138 H   0  0  0  0  0  0  0  0  0  0  0  0
   -0.2919    3.3465   -2.3403 H   0  0  0  0  0  0  0  0  0  0  0  0
    2.4552    0.0039   -2.2409 H   0  0  0  0  0  0  0  0  0  0  0  0
    1.5743    0.5483   -3.5986 H   0  0  0  0  0  0  0  0  0  0  0  0
    2.9356    1.5394   -2.9883 H   0  0  0  0  0  0  0  0  0  0  0  0
    1.9811    1.2078    1.8017 H   0  0  0  0  0  0  0  0  0  0  0  0
    3.7320    1.4896    1.9186 H   0  0  0  0  0  0  0  0  0  0  0  0
    2.4549    2.7489    1.8605 H   0  0  0  0  0  0  0  0  0  0  0  0
    3.0747   -2.4358    2.1614 H   0  0  0  0  0  0  0  0  0  0  0  0
    4.0214   -1.0070    2.1247 H   0  0  0  0  0  0  0  0  0  0  0  0
    0.2826   -1.1262    1.3540 H   0  0  0  0  0  0  0  0  0  0  0  0
   -0.9747    0.4811    2.0120 H   0  0  0  0  0  0  0  0  0  0  0  0
   -0.0352    2.3975    3.3665 H   0  0  0  0  0  0  0  0  0  0  0  0
    1.9267    2.0356    4.7083 H   0  0  0  0  0  0  0  0  0  0  0  0
    3.4133    0.2191    3.9898 H   0  0  0  0  0  0  0  0  0  0  0  0
   -0.7936   -3.7768    0.9153 H   0  0  0  0  0  0  0  0  0  0  0  0
   -1.1466   -4.9504   -1.2912 H   0  0  0  0  0  0  0  0  0  0  0  0
    0.3902   -4.3058   -1.8565 H   0  0  0  0  0  0  0  0  0  0  0  0
   -1.0240   -6.8930   -0.5170 H   0  0  0  0  0  0  0  0  0  0  0  0
  1  2  1  0  0  0  0
  1  4  1  0  0  0  0
  1 43  1  0  0  0  0
  1 44  1  0  0  0  0
  2  5  1  0  0  0  0
  2 45  1  0  0  0  0
  3  4  1  0  0  0  0
  3 36  1  0  0  0  0
  3 46  1  0  0  0  0
  4 14  2  0  0  0  0
  5  6  1  0  0  0  0
  5 15  2  0  0  0  0
  6  7  1  0  0  0  0
  6 18  1  0  0  0  0
  6 47  1  1  0  0  0
  7  8  1  0  0  0  0
  7 48  1  0  0  0  0
  8  9  1  0  0  0  0
  8 16  2  0  0  0  0
  9 10  1  0  0  0  0
  9 25  1  0  0  0  0
  9 49  1  6  0  0  0
 10 11  1  0  0  0  0
 10 28  1  0  0  0  0
 11 12  1  0  0  0  0
 11 17  2  0  0  0  0
 12 13  1  0  0  0  0
 12 50  1  6  0  0  0
 12 29  1  0  0  0  0
 13 37  1  0  0  0  0
 13 51  1  0  0  0  0
 18 19  1  0  0  0  0
 18 52  1  0  0  0  0
 18 53  1  0  0  0  0
 19 20  1  0  0  0  0
 19 54  1  0  0  0  0
 19 55  1  0  0  0  0
 20 21  1  0  0  0  0
 20 56  1  0  0  0  0
 20 57  1  0  0  0  0
 21 22  1  0  0  0  0
 21 58  1  0  0  0  0
 22 23  1  0  0  0  0
 22 24  2  0  0  0  0
 23 59  1  0  0  0  0
 23 60  1  0  0  0  0
 24 61  1  0  0  0  0
 25 26  1  0  0  0  0
 25 27  1  0  0  0  0
 25 62  1  0  0  0  0
 26 63  1  0  0  0  0
 26 64  1  0  0  0  0
 26 65  1  0  0  0  0
 27 66  1  0  0  0  0
 27 67  1  0  0  0  0
 27 68  1  0  0  0  0
 28 69  1  0  0  0  0
 28 70  1  0  0  0  0
 28 71  1  0  0  0  0
 29 30  1  0  0  0  0
 29 72  1  0  0  0  0
 29 73  1  0  0  0  0
 30 31  2  0  0  0  0
 30 35  1  0  0  0  0
 31 32  1  0  0  0  0
 31 74  1  0  0  0  0
 32 33  2  0  0  0  0
 32 75  1  0  0  0  0
 33 34  1  0  0  0  0
 33 76  1  0  0  0  0
 34 35  2  0  0  0  0
 34 77  1  0  0  0  0
 35 78  1  0  0  0  0
 36 37  1  0  0  0  0
 36 39  1  0  0  0  0
 36 79  1  1  0  0  0
 37 38  2  0  0  0  0
 39 40  1  0  0  0  0
 39 80  1  0  0  0  0
 39 81  1  0  0  0  0
 40 41  1  0  0  0  0
 40 42  2  0  0  0  0
 41 82  1  0  0  0  0
M  END
>  <DRUGBANK_ID>
DB11890

>  <COMMON_NAME>
Cilengitide

>  <CAS_NUMBER>
188968-51-6

>  <UNII>
4EDF46E4GI

>  <SYNONYMS>
Cilengitida; Cilengitide; Cilengitidum

$$$$
