
 OpenBabel10282417193D

 59 60  0  0  1  0  0  0  0  0999 V2000
    1.0392   -0.1086    0.0762 C   0  0  0  0  0  0  0  0  0  0  0  0
    0.4934    0.8395   -0.9822 C   0  0  1  0  0  0  0  0  0  0  0  0
    1.0460    0.5005   -2.3614 C   0  0  0  0  0  0  0  0  0  0  0  0
    0.6080   -0.8045   -2.8938 N   0  0  0  0  0  0  0  0  0  0  0  0
    1.1514   -1.2566   -4.4138 S   0  0  0  0  0  0  0  0  0  0  0  0
    2.5906   -1.1390   -4.3791 O   0  0  0  0  0  0  0  0  0  0  0  0
    0.5384   -2.5462   -4.6667 O   0  0  0  0  0  0  0  0  0  0  0  0
    0.4686   -0.0493   -5.5837 C   0  0  0  0  0  0  0  0  0  0  0  0
   -1.0529   -0.0603   -5.5774 C   0  0  0  0  0  0  0  0  0  0  0  0
    1.0065    1.3679   -5.4125 C   0  0  0  0  0  0  0  0  0  0  0  0
   -1.0210    0.8776   -0.9841 C   0  0  0  0  0  0  0  0  0  0  0  0
   -1.7394   -0.3255   -0.9643 C   0  0  0  0  0  0  0  0  0  0  0  0
   -3.1173   -0.3349   -0.8749 C   0  0  0  0  0  0  0  0  0  0  0  0
   -3.8118    0.8692   -0.8131 C   0  0  0  0  0  0  0  0  0  0  0  0
   -3.1027    2.0811   -0.8377 C   0  0  0  0  0  0  0  0  0  0  0  0
   -1.7187    2.0909   -0.9812 C   0  0  0  0  0  0  0  0  0  0  0  0
   -5.2627    0.8693   -0.7836 C   0  0  0  0  0  0  0  0  0  0  0  0
   -5.9717    0.2385    0.2451 C   0  0  0  0  0  0  0  0  0  0  0  0
   -7.3621    0.3115    0.2909 C   0  0  0  0  0  0  0  0  0  0  0  0
   -8.0610    0.9881   -0.7152 C   0  0  0  0  0  0  0  0  0  0  0  0
   -7.3438    1.5586   -1.7749 C   0  0  0  0  0  0  0  0  0  0  0  0
   -5.9627    1.5039   -1.8096 C   0  0  0  0  0  0  0  0  0  0  0  0
   -9.5677    1.0490   -0.7050 C   0  0  0  0  0  0  0  0  0  0  0  0
  -10.1500    2.4571   -0.5078 C   0  0  0  0  0  0  0  0  0  0  0  0
   -9.7733    3.3800   -1.6096 N   0  0  0  0  0  0  0  0  0  0  0  0
  -10.2755    4.9807   -1.4939 S   0  0  0  0  0  0  0  0  0  0  0  0
   -9.8558    5.4442   -0.1970 O   0  0  0  0  0  0  0  0  0  0  0  0
   -9.8139    5.6253   -2.7088 O   0  0  0  0  0  0  0  0  0  0  0  0
  -12.0477    4.8559   -1.5424 C   0  0  0  0  0  0  0  0  0  0  0  0
    0.7365   -1.1437   -0.1064 H   0  0  0  0  0  0  0  0  0  0  0  0
    0.6710    0.1742    1.0666 H   0  0  0  0  0  0  0  0  0  0  0  0
    2.1315   -0.0841    0.0792 H   0  0  0  0  0  0  0  0  0  0  0  0
    0.8537    1.8495   -0.7350 H   0  0  0  0  0  0  0  0  0  0  0  0
    0.6244    1.2787   -2.9701 H   0  0  0  0  0  0  0  0  0  0  0  0
    2.1366    0.5685   -2.3735 H   0  0  0  0  0  0  0  0  0  0  0  0
    0.7898   -1.5854   -2.2595 H   0  0  0  0  0  0  0  0  0  0  0  0
    0.8188   -0.4080   -6.5596 H   0  0  0  0  0  0  0  0  0  0  0  0
   -1.4529    0.2124   -4.5957 H   0  0  0  0  0  0  0  0  0  0  0  0
   -1.4414    0.6526   -6.3122 H   0  0  0  0  0  0  0  0  0  0  0  0
   -1.4409   -1.0505   -5.8355 H   0  0  0  0  0  0  0  0  0  0  0  0
    2.0916    1.3810   -5.2768 H   0  0  0  0  0  0  0  0  0  0  0  0
    0.7426    1.9949   -6.2668 H   0  0  0  0  0  0  0  0  0  0  0  0
    0.5447    1.9006   -4.5869 H   0  0  0  0  0  0  0  0  0  0  0  0
   -1.2313   -1.2815   -1.0291 H   0  0  0  0  0  0  0  0  0  0  0  0
   -3.6385   -1.2880   -0.8566 H   0  0  0  0  0  0  0  0  0  0  0  0
   -3.6397    3.0226   -0.7297 H   0  0  0  0  0  0  0  0  0  0  0  0
   -1.2080    3.0470   -1.0743 H   0  0  0  0  0  0  0  0  0  0  0  0
   -5.4343   -0.3067    1.0183 H   0  0  0  0  0  0  0  0  0  0  0  0
   -7.8835   -0.1711    1.1139 H   0  0  0  0  0  0  0  0  0  0  0  0
   -7.8417    2.0554   -2.6021 H   0  0  0  0  0  0  0  0  0  0  0  0
   -5.4366    1.9424   -2.6555 H   0  0  0  0  0  0  0  0  0  0  0  0
   -9.9323    0.5985   -1.6362 H   0  0  0  0  0  0  0  0  0  0  0  0
   -9.9465    0.4138    0.1070 H   0  0  0  0  0  0  0  0  0  0  0  0
  -11.2392    2.3615   -0.4856 H   0  0  0  0  0  0  0  0  0  0  0  0
   -9.7973    2.8656    0.4431 H   0  0  0  0  0  0  0  0  0  0  0  0
   -8.7561    3.4769   -1.6460 H   0  0  0  0  0  0  0  0  0  0  0  0
  -12.3518    4.4028   -2.4868 H   0  0  0  0  0  0  0  0  0  0  0  0
  -12.3878    4.2667   -0.6901 H   0  0  0  0  0  0  0  0  0  0  0  0
  -12.4449    5.8691   -1.4627 H   0  0  0  0  0  0  0  0  0  0  0  0
  1 30  1  0  0  0  0
  1 31  1  0  0  0  0
  1 32  1  0  0  0  0
  2  1  1  0  0  0  0
  2  3  1  0  0  0  0
  2 11  1  0  0  0  0
  2 33  1  1  0  0  0
  3  4  1  0  0  0  0
  3 34  1  0  0  0  0
  3 35  1  0  0  0  0
  4  5  1  0  0  0  0
  4 36  1  0  0  0  0
  5  6  2  0  0  0  0
  5  7  2  0  0  0  0
  5  8  1  0  0  0  0
  8  9  1  0  0  0  0
  8 10  1  0  0  0  0
  8 37  1  0  0  0  0
  9 38  1  0  0  0  0
  9 39  1  0  0  0  0
  9 40  1  0  0  0  0
 10 41  1  0  0  0  0
 10 42  1  0  0  0  0
 10 43  1  0  0  0  0
 11 12  2  0  0  0  0
 11 16  1  0  0  0  0
 12 13  1  0  0  0  0
 12 44  1  0  0  0  0
 13 14  2  0  0  0  0
 13 45  1  0  0  0  0
 14 15  1  0  0  0  0
 14 17  1  0  0  0  0
 15 16  2  0  0  0  0
 15 46  1  0  0  0  0
 16 47  1  0  0  0  0
 17 18  2  0  0  0  0
 17 22  1  0  0  0  0
 18 19  1  0  0  0  0
 18 48  1  0  0  0  0
 19 20  2  0  0  0  0
 19 49  1  0  0  0  0
 20 21  1  0  0  0  0
 20 23  1  0  0  0  0
 21 22  2  0  0  0  0
 21 50  1  0  0  0  0
 22 51  1  0  0  0  0
 23 24  1  0  0  0  0
 23 52  1  0  0  0  0
 23 53  1  0  0  0  0
 24 25  1  0  0  0  0
 24 54  1  0  0  0  0
 24 55  1  0  0  0  0
 25 26  1  0  0  0  0
 25 56  1  0  0  0  0
 26 27  2  0  0  0  0
 26 28  2  0  0  0  0
 26 29  1  0  0  0  0
 29 57  1  0  0  0  0
 29 58  1  0  0  0  0
 29 59  1  0  0  0  0
M  END
>  <DRUGBANK_ID>
DB12717

>  <COMMON_NAME>
Mibampator

>  <CAS_NUMBER>
375345-95-2

>  <UNII>
A9V5BW73UU

>  <SYNONYMS>
Mibampator

$$$$
