
 OpenBabel10282417153D

 15 15  0  0  0  0  0  0  0  0999 V2000
   -0.2849   -1.2294    0.0031 C   0  0  0  0  0  0  0  0  0  0  0  0
    0.9871   -0.6996    0.0003 C   0  0  0  0  0  0  0  0  0  0  0  0
   -0.8197   -2.5632    0.0100 C   0  0  0  0  0  0  0  0  0  0  0  0
   -1.0858   -0.0992   -0.0007 N   0  0  0  0  0  0  0  0  0  0  0  0
    0.9876    0.6615   -0.0011 N   0  0  0  0  0  0  0  0  0  0  0  0
    2.1596   -1.3284    0.0033 N   0  0  0  0  0  0  0  0  0  0  0  0
    0.0612   -3.6043    0.0132 N   0  0  0  0  0  0  0  0  0  0  0  0
   -2.0272   -2.8029    0.0134 O   0  0  0  0  0  0  0  0  0  0  0  0
   -0.2794    1.0024   -0.0001 C   0  0  0  0  0  0  0  0  0  0  0  0
   -2.0980   -0.0977   -0.0016 H   0  0  0  0  0  0  0  0  0  0  0  0
    3.0117   -0.7819   -0.0158 H   0  0  0  0  0  0  0  0  0  0  0  0
    2.3120   -2.3176   -0.0402 H   0  0  0  0  0  0  0  0  0  0  0  0
   -0.2995   -4.5463    0.0254 H   0  0  0  0  0  0  0  0  0  0  0  0
    1.0550   -3.4916    0.0356 H   0  0  0  0  0  0  0  0  0  0  0  0
   -0.6637    2.0154    0.0012 H   0  0  0  0  0  0  0  0  0  0  0  0
  1  2  2  0  0  0  0
  1  3  1  0  0  0  0
  1  4  1  0  0  0  0
  2  5  1  0  0  0  0
  2  6  1  0  0  0  0
  3  7  1  0  0  0  0
  3  8  2  0  0  0  0
  4  9  1  0  0  0  0
  4 10  1  0  0  0  0
  5  9  2  0  0  0  0
  6 11  1  0  0  0  0
  6 12  1  0  0  0  0
  7 13  1  0  0  0  0
  7 14  1  0  0  0  0
  9 15  1  0  0  0  0
M  END
>  <DRUGBANK_ID>
DB06143

>  <COMMON_NAME>
Aminoimidazole carboxamide

>  <CAS_NUMBER>
360-97-4

>  <UNII>
3V0Y2PDE6K

>  <SYNONYMS>
5-Aminoimidazol-4-carboxamide; 5-Aminoimidazole-4-carboxamide; AIC; AICA; Aminoimidazole carboxamide

$$$$
