ZZ4
 OpenBabel10282417173D

 34 36  0  0  0  0  0  0  0  0999 V2000
   -2.7157    0.7895    0.0337 Cl  0  0  0  0  0  0  0  0  0  0  0  0
   -1.2186   -0.0528   -0.0404 C   0  0  0  0  0  0  0  0  0  0  0  0
   -1.2064   -1.4454   -0.0367 C   0  0  0  0  0  0  0  0  0  0  0  0
    0.0129   -2.1273   -0.0573 C   0  0  0  0  0  0  0  0  0  0  0  0
   -0.0303    0.6665   -0.1028 C   0  0  0  0  0  0  0  0  0  0  0  0
    1.1862   -0.0135   -0.1663 C   0  0  0  0  0  0  0  0  0  0  0  0
    2.6218    0.9548   -0.2871 Cl  0  0  0  0  0  0  0  0  0  0  0  0
    1.2328   -1.4216   -0.0899 C   0  0  0  0  0  0  0  0  0  0  0  0
    2.4978   -2.1568    0.0780 C   0  0  0  0  0  0  0  0  0  0  0  0
    2.7745   -3.0097   -0.9483 N   0  0  0  0  0  0  0  0  0  0  0  0
    3.3345   -1.9703    1.1861 C   0  0  0  0  0  0  0  0  0  0  0  0
    4.5081   -2.6950    1.0885 C   0  0  0  0  0  0  0  0  0  0  0  0
    4.8370   -3.5272    0.0699 N   0  0  0  0  0  0  0  0  0  0  0  0
    3.9427   -3.6572   -0.9138 C   0  0  0  0  0  0  0  0  0  0  0  0
    4.2341   -4.5071   -1.9361 N   0  0  0  0  0  0  0  0  0  0  0  0
    3.1576   -1.0585    2.2662 N   0  0  0  0  0  0  0  0  0  0  0  0
    1.9574   -0.8766    2.5678 N   0  0  0  0  0  0  0  0  0  0  0  0
    1.6955    0.2735    3.3573 C   0  0  0  0  0  0  0  0  0  0  0  0
    2.6494    1.2252    3.7480 C   0  0  0  0  0  0  0  0  0  0  0  0
    2.2926    2.3208    4.5486 C   0  0  0  0  0  0  0  0  0  0  0  0
    0.9667    2.5098    4.9326 C   0  0  0  0  0  0  0  0  0  0  0  0
   -0.0074    1.6191    4.4948 C   0  0  0  0  0  0  0  0  0  0  0  0
    0.3608    0.5040    3.7320 C   0  0  0  0  0  0  0  0  0  0  0  0
   -2.1376   -2.0048    0.0069 H   0  0  0  0  0  0  0  0  0  0  0  0
    0.0131   -3.2164   -0.0103 H   0  0  0  0  0  0  0  0  0  0  0  0
   -0.0423    1.7523   -0.0777 H   0  0  0  0  0  0  0  0  0  0  0  0
    5.2704   -2.6114    1.8586 H   0  0  0  0  0  0  0  0  0  0  0  0
    5.1558   -4.9113   -1.9668 H   0  0  0  0  0  0  0  0  0  0  0  0
    3.6055   -4.5340   -2.7219 H   0  0  0  0  0  0  0  0  0  0  0  0
    3.6843    1.1279    3.4322 H   0  0  0  0  0  0  0  0  0  0  0  0
    3.0518    3.0306    4.8690 H   0  0  0  0  0  0  0  0  0  0  0  0
    0.6928    3.3513    5.5654 H   0  0  0  0  0  0  0  0  0  0  0  0
   -1.0517    1.7879    4.7483 H   0  0  0  0  0  0  0  0  0  0  0  0
   -0.4109   -0.1967    3.4214 H   0  0  0  0  0  0  0  0  0  0  0  0
  1  2  1  0  0  0  0
  2  3  1  0  0  0  0
  2  5  2  0  0  0  0
  3  4  2  0  0  0  0
  3 24  1  0  0  0  0
  4  8  1  0  0  0  0
  4 25  1  0  0  0  0
  5  6  1  0  0  0  0
  5 26  1  0  0  0  0
  6  7  1  0  0  0  0
  6  8  2  0  0  0  0
  8  9  1  0  0  0  0
  9 10  1  0  0  0  0
  9 11  2  0  0  0  0
 10 14  2  0  0  0  0
 11 12  1  0  0  0  0
 11 16  1  0  0  0  0
 12 13  2  0  0  0  0
 12 27  1  0  0  0  0
 13 14  1  0  0  0  0
 14 15  1  0  0  0  0
 15 28  1  0  0  0  0
 15 29  1  0  0  0  0
 16 17  2  0  0  0  0
 17 18  1  0  0  0  0
 18 19  1  0  0  0  0
 18 23  2  0  0  0  0
 19 20  2  0  0  0  0
 19 30  1  0  0  0  0
 20 21  1  0  0  0  0
 20 31  1  0  0  0  0
 21 22  2  0  0  0  0
 21 32  1  0  0  0  0
 22 23  1  0  0  0  0
 22 33  1  0  0  0  0
 23 34  1  0  0  0  0
M  END
>  <DRUGBANK_ID>
DB08787

>  <COMMON_NAME>
4-(2,4-dichlorophenyl)-5-phenyldiazenyl-pyrimidin-2-amine

$$$$
