
 OpenBabel10282417193D

 95100  0  0  1  0  0  0  0  0999 V2000
    6.5714    7.4219   -4.6215 C   0  0  0  0  0  0  0  0  0  0  0  0
    6.4532    6.1520   -3.4470 C   0  0  1  0  0  0  0  0  0  0  0  0
    7.5018    5.9548   -1.8861 C   0  0  0  0  0  0  0  0  0  0  0  0
    8.4179    7.1110   -1.8264 C   0  0  0  0  0  0  0  0  0  0  0  0
    9.1137    6.9920   -3.1919 C   0  0  0  0  0  0  0  0  0  0  0  0
    8.8675    5.5941   -4.0598 C   0  0  1  0  0  0  0  0  0  0  0  0
    7.3919    5.0310   -3.9424 C   0  0  1  0  0  0  0  0  0  0  0  0
    7.0869    3.8953   -4.8742 C   0  0  0  0  0  0  0  0  0  0  0  0
    5.6772    3.5622   -4.7277 C   0  0  0  0  0  0  0  0  0  0  0  0
    4.9527    4.7898   -5.1867 C   0  0  2  0  0  0  0  0  0  0  0  0
    4.8971    5.8072   -3.9829 C   0  0  1  0  0  0  0  0  0  0  0  0
    3.5602    5.3606   -3.3784 C   0  0  0  0  0  0  0  0  0  0  0  0
    2.2761    4.7968   -4.7376 C   0  0  0  0  0  0  0  0  0  0  0  0
    2.8101    5.6362   -5.6597 C   0  0  2  0  0  0  0  0  0  0  0  0
    3.6283    4.1726   -5.2861 C   0  0  0  0  0  0  0  0  0  0  0  0
    3.5306    5.6564   -6.9938 C   0  0  0  0  0  0  0  0  0  0  0  0
    3.0640    5.7211   -8.2257 C   0  0  0  0  0  0  0  0  0  0  0  0
    4.9741    5.2765   -6.6414 C   0  0  0  0  0  0  0  0  0  0  0  0
    1.8891    6.6721   -5.2233 O   0  0  0  0  0  0  0  0  0  0  0  0
    0.6802    6.3164   -4.2696 C   0  0  1  0  0  0  0  0  0  0  0  0
    1.0421    5.4618   -2.8644 C   0  0  1  0  0  0  0  0  0  0  0  0
    0.2189    5.4792   -1.6677 C   0  0  2  0  0  0  0  0  0  0  0  0
   -0.2797    6.8647   -1.4652 C   0  0  1  0  0  0  0  0  0  0  0  0
   -0.8355    7.3902   -2.8085 C   0  0  2  0  0  0  0  0  0  0  0  0
    0.1440    7.5485   -3.8384 O   0  0  0  0  0  0  0  0  0  0  0  0
   -1.4161    8.7753   -2.6509 C   0  0  0  0  0  0  0  0  0  0  0  0
   -0.4160    9.7168   -2.2651 O   0  0  0  0  0  0  0  0  0  0  0  0
   -1.3099    6.6982   -0.4939 O   0  0  0  0  0  0  0  0  0  0  0  0
    1.0324    4.9670   -0.5948 O   0  0  0  0  0  0  0  0  0  0  0  0
    1.6611    4.1082   -2.7427 O   0  0  0  0  0  0  0  0  0  0  0  0
    1.0668    2.8372   -3.0257 C   0  0  1  0  0  0  0  0  0  0  0  0
   -0.2234    2.7803   -3.8975 C   0  0  1  0  0  0  0  0  0  0  0  0
   -0.7678    1.3706   -3.7238 C   0  0  2  0  0  0  0  0  0  0  0  0
    0.2342    0.3539   -4.2617 C   0  0  1  0  0  0  0  0  0  0  0  0
    1.5929    0.5512   -3.5854 C   0  0  2  0  0  0  0  0  0  0  0  0
    2.0248    1.9266   -3.6428 O   0  0  0  0  0  0  0  0  0  0  0  0
    2.6693   -0.4136   -4.1452 C   0  0  0  0  0  0  0  0  0  0  0  0
    2.2094   -1.6232   -4.7459 O   0  0  0  0  0  0  0  0  0  0  0  0
   -0.2500   -0.9608   -3.9717 O   0  0  0  0  0  0  0  0  0  0  0  0
   -2.0471    1.1843   -4.3293 O   0  0  0  0  0  0  0  0  0  0  0  0
   -1.2339    3.6865   -3.4692 O   0  0  0  0  0  0  0  0  0  0  0  0
    9.1570    5.9550   -5.5241 C   0  0  0  0  0  0  0  0  0  0  0  0
    9.7540    4.3892   -3.6296 C   0  0  0  0  0  0  0  0  0  0  0  0
    9.3897    3.3491   -3.0941 O   0  0  0  0  0  0  0  0  0  0  0  0
   11.0577    4.5065   -3.8980 O   0  0  0  0  0  0  0  0  0  0  0  0
    6.6970    8.4625   -4.3118 H   0  0  0  0  0  0  0  0  0  0  0  0
    5.6148    7.5785   -5.1657 H   0  0  0  0  0  0  0  0  0  0  0  0
    7.0868    7.1500   -5.5467 H   0  0  0  0  0  0  0  0  0  0  0  0
    7.2103    5.6080   -0.8831 H   0  0  0  0  0  0  0  0  0  0  0  0
    8.3098    5.1524   -1.9475 H   0  0  0  0  0  0  0  0  0  0  0  0
    9.1455    7.2355   -1.0024 H   0  0  0  0  0  0  0  0  0  0  0  0
    7.6402    7.8450   -1.6191 H   0  0  0  0  0  0  0  0  0  0  0  0
   10.1897    7.1762   -3.1155 H   0  0  0  0  0  0  0  0  0  0  0  0
    8.7149    7.8577   -3.7287 H   0  0  0  0  0  0  0  0  0  0  0  0
    7.2427    4.3570   -3.0753 H   0  0  0  0  0  0  0  0  0  0  0  0
    7.3104    4.0916   -5.9097 H   0  0  0  0  0  0  0  0  0  0  0  0
    7.6050    2.9960   -4.5434 H   0  0  0  0  0  0  0  0  0  0  0  0
    5.4285    3.3184   -3.6712 H   0  0  0  0  0  0  0  0  0  0  0  0
    5.4121    2.6723   -5.2996 H   0  0  0  0  0  0  0  0  0  0  0  0
    4.4859    6.8171   -4.1823 H   0  0  0  0  0  0  0  0  0  0  0  0
    3.3270    6.0707   -2.5783 H   0  0  0  0  0  0  0  0  0  0  0  0
    3.8818    4.5118   -2.7834 H   0  0  0  0  0  0  0  0  0  0  0  0
    1.2995    4.3222   -4.5562 H   0  0  0  0  0  0  0  0  0  0  0  0
    1.7497    4.6253   -5.7631 H   0  0  0  0  0  0  0  0  0  0  0  0
    3.4065    3.3020   -5.9347 H   0  0  0  0  0  0  0  0  0  0  0  0
    3.5302    3.5529   -4.3157 H   0  0  0  0  0  0  0  0  0  0  0  0
    2.0061    5.8482   -8.4765 H   0  0  0  0  0  0  0  0  0  0  0  0
    3.7489    5.6350   -9.0780 H   0  0  0  0  0  0  0  0  0  0  0  0
    5.5846    6.1505   -6.8085 H   0  0  0  0  0  0  0  0  0  0  0  0
    5.2955    4.4318   -7.2621 H   0  0  0  0  0  0  0  0  0  0  0  0
   -0.0788    5.8031   -4.8811 H   0  0  0  0  0  0  0  0  0  0  0  0
    1.7411    6.2216   -2.5392 H   0  0  0  0  0  0  0  0  0  0  0  0
   -0.5885    4.7888   -1.7661 H   0  0  0  0  0  0  0  0  0  0  0  0
    0.5342    7.4871   -1.0686 H   0  0  0  0  0  0  0  0  0  0  0  0
   -1.6102    6.6995   -3.1731 H   0  0  0  0  0  0  0  0  0  0  0  0
   -1.7768    9.0727   -3.6381 H   0  0  0  0  0  0  0  0  0  0  0  0
   -2.2383    8.8016   -1.9359 H   0  0  0  0  0  0  0  0  0  0  0  0
   -0.2356    9.6108   -1.3168 H   0  0  0  0  0  0  0  0  0  0  0  0
   -1.9354    6.0500   -0.8718 H   0  0  0  0  0  0  0  0  0  0  0  0
    0.5078    4.9175    0.2102 H   0  0  0  0  0  0  0  0  0  0  0  0
    0.9047    2.4625   -2.0196 H   0  0  0  0  0  0  0  0  0  0  0  0
   -0.0527    2.9601   -4.9692 H   0  0  0  0  0  0  0  0  0  0  0  0
   -0.9305    1.2087   -2.6509 H   0  0  0  0  0  0  0  0  0  0  0  0
    0.3244    0.4776   -5.3498 H   0  0  0  0  0  0  0  0  0  0  0  0
    1.4898    0.3155   -2.5190 H   0  0  0  0  0  0  0  0  0  0  0  0
    3.2756    0.0923   -4.8985 H   0  0  0  0  0  0  0  0  0  0  0  0
    3.3312   -0.7060   -3.3248 H   0  0  0  0  0  0  0  0  0  0  0  0
    1.6238   -2.1022   -4.1312 H   0  0  0  0  0  0  0  0  0  0  0  0
   -0.4251   -1.0033   -3.0173 H   0  0  0  0  0  0  0  0  0  0  0  0
   -2.3810    2.0376   -4.6578 H   0  0  0  0  0  0  0  0  0  0  0  0
   -1.4056    3.4203   -2.5474 H   0  0  0  0  0  0  0  0  0  0  0  0
    8.3036    5.7702   -6.1811 H   0  0  0  0  0  0  0  0  0  0  0  0
    9.3698    7.0234   -5.6249 H   0  0  0  0  0  0  0  0  0  0  0  0
    9.9866    5.3901   -5.9373 H   0  0  0  0  0  0  0  0  0  0  0  0
   11.3856    3.6443   -3.5546 H   0  0  0  0  0  0  0  0  0  0  0  0
  1 46  1  0  0  0  0
  1 47  1  0  0  0  0
  1 48  1  0  0  0  0
  2  1  1  1  0  0  0
  2  3  1  0  0  0  0
  2  7  1  0  0  0  0
  2 11  1  0  0  0  0
  3  4  1  0  0  0  0
  3 49  1  0  0  0  0
  3 50  1  0  0  0  0
  4  5  1  0  0  0  0
  4 51  1  0  0  0  0
  4 52  1  0  0  0  0
  5  6  1  0  0  0  0
  5 53  1  0  0  0  0
  5 54  1  0  0  0  0
  6  7  1  0  0  0  0
  6 43  1  1  0  0  0
  6 42  1  0  0  0  0
  7  8  1  0  0  0  0
  7 55  1  6  0  0  0
  8  9  1  0  0  0  0
  8 56  1  0  0  0  0
  8 57  1  0  0  0  0
  9 58  1  0  0  0  0
  9 59  1  0  0  0  0
 10  9  1  1  0  0  0
 10 11  1  0  0  0  0
 10 15  1  0  0  0  0
 10 18  1  0  0  0  0
 11 12  1  0  0  0  0
 11 60  1  6  0  0  0
 12 13  1  0  0  0  0
 12 61  1  0  0  0  0
 12 62  1  0  0  0  0
 13 14  1  0  0  0  0
 13 63  1  0  0  0  0
 13 64  1  0  0  0  0
 14 15  1  0  0  0  0
 14 16  1  0  0  0  0
 14 19  1  6  0  0  0
 15 65  1  0  0  0  0
 15 66  1  0  0  0  0
 16 17  2  0  0  0  0
 16 18  1  0  0  0  0
 17 67  1  0  0  0  0
 17 68  1  0  0  0  0
 18 69  1  0  0  0  0
 18 70  1  0  0  0  0
 20 21  1  0  0  0  0
 20 25  1  0  0  0  0
 20 71  1  6  0  0  0
 20 19  1  0  0  0  0
 21 22  1  0  0  0  0
 21 30  1  0  0  0  0
 21 72  1  1  0  0  0
 22 23  1  0  0  0  0
 22 73  1  6  0  0  0
 22 29  1  0  0  0  0
 23 24  1  0  0  0  0
 23 28  1  0  0  0  0
 23 74  1  1  0  0  0
 24 25  1  0  0  0  0
 24 75  1  6  0  0  0
 24 26  1  0  0  0  0
 26 27  1  0  0  0  0
 26 76  1  0  0  0  0
 26 77  1  0  0  0  0
 27 78  1  0  0  0  0
 28 79  1  0  0  0  0
 29 80  1  0  0  0  0
 31 32  1  0  0  0  0
 31 36  1  0  0  0  0
 31 81  1  1  0  0  0
 31 30  1  0  0  0  0
 32 33  1  0  0  0  0
 32 41  1  0  0  0  0
 32 82  1  6  0  0  0
 33 34  1  0  0  0  0
 33 83  1  1  0  0  0
 33 40  1  0  0  0  0
 34 35  1  0  0  0  0
 34 39  1  0  0  0  0
 34 84  1  6  0  0  0
 35 36  1  0  0  0  0
 35 85  1  1  0  0  0
 35 37  1  0  0  0  0
 37 38  1  0  0  0  0
 37 86  1  0  0  0  0
 37 87  1  0  0  0  0
 38 88  1  0  0  0  0
 39 89  1  0  0  0  0
 40 90  1  0  0  0  0
 41 91  1  0  0  0  0
 42 92  1  0  0  0  0
 42 93  1  0  0  0  0
 42 94  1  0  0  0  0
 43 44  2  0  0  0  0
 43 45  1  0  0  0  0
 45 95  1  0  0  0  0
M  END
>  <DRUGBANK_ID>
DB12434

>  <COMMON_NAME>
Steviolbioside

>  <CAS_NUMBER>
41093-60-1

>  <UNII>
07GV37SOFN

>  <SYNONYMS>
STB

$$$$
