
 OpenBabel10282417203D

 52 54  0  0  0  0  0  0  0  0999 V2000
    0.8808   -0.0001    0.0695 C   0  0  0  0  0  0  0  0  0  0  0  0
    0.4233   -1.2103   -0.6978 C   0  0  0  0  0  0  0  0  0  0  0  0
   -0.4590   -2.2010    0.0007 C   0  0  0  0  0  0  0  0  0  0  0  0
    0.7886   -1.3868   -1.9830 C   0  0  0  0  0  0  0  0  0  0  0  0
    1.6106   -0.4378   -2.7407 C   0  0  3  0  0  0  0  0  0  0  0  0
    3.1154   -0.4410   -2.6186 C   0  0  3  0  0  0  0  0  0  0  0  0
    3.8474   -1.2018   -1.5759 C   0  0  0  0  0  0  0  0  0  0  0  0
    4.4926   -0.5370   -0.7669 O   0  0  0  0  0  0  0  0  0  0  0  0
    3.7962   -2.5625   -1.5966 O   0  0  0  0  0  0  0  0  0  0  0  0
    4.6553   -3.2584   -0.6509 C   0  0  0  0  0  0  0  0  0  0  0  0
    6.0832   -3.3637   -1.1582 C   0  0  0  0  0  0  0  0  0  0  0  0
    6.8275   -2.1850   -1.3279 C   0  0  0  0  0  0  0  0  0  0  0  0
    8.1085   -2.1728   -1.8394 C   0  0  0  0  0  0  0  0  0  0  0  0
    8.7218   -3.3690   -2.1122 C   0  0  0  0  0  0  0  0  0  0  0  0
    8.0889   -4.5743   -1.7958 C   0  0  0  0  0  0  0  0  0  0  0  0
    8.7614   -5.7791   -1.8320 O   0  0  0  0  0  0  0  0  0  0  0  0
   10.1428   -5.7519   -1.9132 C   0  0  0  0  0  0  0  0  0  0  0  0
   10.9710   -5.0043   -1.0587 C   0  0  0  0  0  0  0  0  0  0  0  0
   12.3555   -5.0043   -1.2486 C   0  0  0  0  0  0  0  0  0  0  0  0
   12.9174   -5.8148   -2.2330 C   0  0  0  0  0  0  0  0  0  0  0  0
   12.0969   -6.6059   -3.0386 C   0  0  0  0  0  0  0  0  0  0  0  0
   10.7100   -6.5392   -2.9100 C   0  0  0  0  0  0  0  0  0  0  0  0
    6.7362   -4.5822   -1.4041 C   0  0  0  0  0  0  0  0  0  0  0  0
    2.4691   -0.8454   -3.9233 C   0  0  0  0  0  0  0  0  0  0  0  0
    2.4460   -2.2651   -4.4085 C   0  0  0  0  0  0  0  0  0  0  0  0
    2.5665    0.1807   -5.0413 C   0  0  0  0  0  0  0  0  0  0  0  0
    0.5242   -0.0025    1.1017 H   0  0  0  0  0  0  0  0  0  0  0  0
    0.5148    0.9163   -0.4066 H   0  0  0  0  0  0  0  0  0  0  0  0
    1.9732    0.0407    0.1060 H   0  0  0  0  0  0  0  0  0  0  0  0
   -1.4326   -2.2694   -0.4965 H   0  0  0  0  0  0  0  0  0  0  0  0
    0.0070   -3.1916    0.0055 H   0  0  0  0  0  0  0  0  0  0  0  0
   -0.6404   -1.9170    1.0418 H   0  0  0  0  0  0  0  0  0  0  0  0
    0.4089   -2.2583   -2.5154 H   0  0  0  0  0  0  0  0  0  0  0  0
    1.1452    0.5454   -2.7908 H   0  0  0  0  0  0  0  0  0  0  0  0
    3.5594    0.5546   -2.6547 H   0  0  0  0  0  0  0  0  0  0  0  0
    4.6435   -2.7786    0.3393 H   0  0  0  0  0  0  0  0  0  0  0  0
    4.2327   -4.2604   -0.4948 H   0  0  0  0  0  0  0  0  0  0  0  0
    6.4407   -1.2150   -1.0610 H   0  0  0  0  0  0  0  0  0  0  0  0
    8.6265   -1.2321   -1.9835 H   0  0  0  0  0  0  0  0  0  0  0  0
    9.7279   -3.3329   -2.5123 H   0  0  0  0  0  0  0  0  0  0  0  0
   10.5481   -4.3684   -0.2840 H   0  0  0  0  0  0  0  0  0  0  0  0
   12.9944   -4.3818   -0.6259 H   0  0  0  0  0  0  0  0  0  0  0  0
   13.9952   -5.8334   -2.3738 H   0  0  0  0  0  0  0  0  0  0  0  0
   12.5372   -7.2785   -3.7686 H   0  0  0  0  0  0  0  0  0  0  0  0
   10.0672   -7.0856   -3.5934 H   0  0  0  0  0  0  0  0  0  0  0  0
    6.2177   -5.5310   -1.2722 H   0  0  0  0  0  0  0  0  0  0  0  0
    2.7418   -2.9840   -3.6458 H   0  0  0  0  0  0  0  0  0  0  0  0
    1.4391   -2.5292   -4.7488 H   0  0  0  0  0  0  0  0  0  0  0  0
    3.1280   -2.3917   -5.2553 H   0  0  0  0  0  0  0  0  0  0  0  0
    1.5759    0.4074   -5.4482 H   0  0  0  0  0  0  0  0  0  0  0  0
    3.0001    1.1261   -4.6907 H   0  0  0  0  0  0  0  0  0  0  0  0
    3.2066   -0.1773   -5.8526 H   0  0  0  0  0  0  0  0  0  0  0  0
  1  2  1  0  0  0  0
  1 27  1  0  0  0  0
  1 28  1  0  0  0  0
  1 29  1  0  0  0  0
  2  3  1  0  0  0  0
  2  4  2  0  0  0  0
  3 30  1  0  0  0  0
  3 31  1  0  0  0  0
  3 32  1  0  0  0  0
  4  5  1  0  0  0  0
  4 33  1  0  0  0  0
  5  6  1  0  0  0  0
  5 24  1  0  0  0  0
  5 34  1  0  0  0  0
  6  7  1  0  0  0  0
  6 24  1  0  0  0  0
  6 35  1  0  0  0  0
  7  8  2  0  0  0  0
  7  9  1  0  0  0  0
  9 10  1  0  0  0  0
 10 11  1  0  0  0  0
 10 36  1  0  0  0  0
 10 37  1  0  0  0  0
 11 12  2  0  0  0  0
 11 23  1  0  0  0  0
 12 13  1  0  0  0  0
 12 38  1  0  0  0  0
 13 14  2  0  0  0  0
 13 39  1  0  0  0  0
 14 15  1  0  0  0  0
 14 40  1  0  0  0  0
 15 16  1  0  0  0  0
 15 23  2  0  0  0  0
 16 17  1  0  0  0  0
 17 18  2  0  0  0  0
 17 22  1  0  0  0  0
 18 19  1  0  0  0  0
 18 41  1  0  0  0  0
 19 20  2  0  0  0  0
 19 42  1  0  0  0  0
 20 21  1  0  0  0  0
 20 43  1  0  0  0  0
 21 22  2  0  0  0  0
 21 44  1  0  0  0  0
 22 45  1  0  0  0  0
 23 46  1  0  0  0  0
 24 25  1  0  0  0  0
 24 26  1  0  0  0  0
 25 47  1  0  0  0  0
 25 48  1  0  0  0  0
 25 49  1  0  0  0  0
 26 50  1  0  0  0  0
 26 51  1  0  0  0  0
 26 52  1  0  0  0  0
M  END
>  <DRUGBANK_ID>
DB13717

>  <COMMON_NAME>
Phenothrin

>  <CAS_NUMBER>
26002-80-2

>  <UNII>
707484X33X

>  <SYNONYMS>
Phenothrin

$$$$
