
 OpenBabel10282417113D

 59 60  0  0  0  0  0  0  0  0999 V2000
   -2.0190   -0.9959   -0.1325 C   0  0  1  0  0  0  0  0  0  0  0  0
   -2.3033    0.5154    0.0459 C   0  0  0  0  0  0  0  0  0  0  0  0
   -1.0863    1.4220   -0.1762 C   0  0  0  0  0  0  0  0  0  0  0  0
   -0.7044   -1.3666    0.2769 O   0  0  0  0  0  0  0  0  0  0  0  0
    0.2978   -0.5854   -0.3027 C   0  0  1  0  0  0  0  0  0  0  0  0
    0.1829    0.7722    0.3616 C   0  0  1  0  0  0  0  0  0  0  0  0
    1.4886    1.4101   -0.0492 C   0  0  2  0  0  0  0  0  0  0  0  0
    2.4347    0.2165    0.0145 C   0  0  0  0  0  0  0  0  0  0  0  0
    1.6985   -1.0832   -0.0082 C   0  0  0  0  0  0  0  0  0  0  0  0
    3.6570    0.2725    0.0401 O   0  0  0  0  0  0  0  0  0  0  0  0
   -3.0507   -1.8309    0.6805 C   0  0  0  0  0  0  0  0  0  0  0  0
   -2.7022   -3.3182    0.8125 C   0  0  0  0  0  0  0  0  0  0  0  0
   -3.2316   -1.2895    1.9172 F   0  0  0  0  0  0  0  0  0  0  0  0
   -4.2690   -1.7121    0.0711 F   0  0  0  0  0  0  0  0  0  0  0  0
   -1.4093   -3.6392    1.5915 C   0  0  0  0  0  0  0  0  0  0  0  0
   -2.1380   -1.3095   -1.5282 O   0  0  0  0  0  0  0  0  0  0  0  0
   -1.3703   -3.0117    2.9869 C   0  0  0  0  0  0  0  0  0  0  0  0
   -2.4861   -3.5842    3.8447 C   0  0  0  0  0  0  0  0  0  0  0  0
    0.1771   -0.5308   -1.3939 H   0  0  0  0  0  0  0  0  0  0  0  0
    0.1110    0.6763    1.4555 H   0  0  0  0  0  0  0  0  0  0  0  0
    1.9278    2.5739    0.8197 C   0  0  0  0  0  0  0  0  0  0  0  0
    3.2138    3.1844    0.2534 C   0  0  0  0  0  0  0  0  0  0  0  0
    3.0276    3.6180   -1.2054 C   0  0  0  0  0  0  0  0  0  0  0  0
    1.9348    4.6874   -1.3099 C   0  0  0  0  0  0  0  0  0  0  0  0
    2.3510    5.9604   -0.5671 C   0  0  0  0  0  0  0  0  0  0  0  0
    3.6778    6.5229   -1.0806 C   0  0  0  0  0  0  0  0  0  0  0  0
    3.5862    6.9690   -2.5155 C   0  0  0  0  0  0  0  0  0  0  0  0
    3.6840    8.1251   -2.9086 O   0  0  0  0  0  0  0  0  0  0  0  0
    3.3623    5.9704   -3.3884 O   0  0  0  0  0  0  0  0  0  0  0  0
   -2.6733    0.7118    1.0576 H   0  0  0  0  0  0  0  0  0  0  0  0
   -3.1005    0.8246   -0.6417 H   0  0  0  0  0  0  0  0  0  0  0  0
   -1.2562    2.3928    0.2999 H   0  0  0  0  0  0  0  0  0  0  0  0
   -0.9798    1.6040   -1.2524 H   0  0  0  0  0  0  0  0  0  0  0  0
    1.3740    1.6917   -1.0990 H   0  0  0  0  0  0  0  0  0  0  0  0
    2.0787   -1.7055   -0.8230 H   0  0  0  0  0  0  0  0  0  0  0  0
    1.7979   -1.5917    0.9521 H   0  0  0  0  0  0  0  0  0  0  0  0
   -3.5426   -3.8171    1.3080 H   0  0  0  0  0  0  0  0  0  0  0  0
   -2.6505   -3.7708   -0.1837 H   0  0  0  0  0  0  0  0  0  0  0  0
   -1.2997   -4.7259    1.6754 H   0  0  0  0  0  0  0  0  0  0  0  0
   -0.5170   -3.3446    1.0338 H   0  0  0  0  0  0  0  0  0  0  0  0
   -3.0189   -0.9967   -1.8006 H   0  0  0  0  0  0  0  0  0  0  0  0
   -0.4004   -3.2085    3.4559 H   0  0  0  0  0  0  0  0  0  0  0  0
   -1.4465   -1.9194    2.9421 H   0  0  0  0  0  0  0  0  0  0  0  0
   -2.3630   -4.6679    3.9331 H   0  0  0  0  0  0  0  0  0  0  0  0
   -2.4804   -3.1412    4.8417 H   0  0  0  0  0  0  0  0  0  0  0  0
   -3.4729   -3.3935    3.4112 H   0  0  0  0  0  0  0  0  0  0  0  0
    1.1321    3.3286    0.8592 H   0  0  0  0  0  0  0  0  0  0  0  0
    2.0864    2.2675    1.8586 H   0  0  0  0  0  0  0  0  0  0  0  0
    3.5307    4.0203    0.8838 H   0  0  0  0  0  0  0  0  0  0  0  0
    4.0471    2.4820    0.3139 H   0  0  0  0  0  0  0  0  0  0  0  0
    3.9861    3.9599   -1.6045 H   0  0  0  0  0  0  0  0  0  0  0  0
    2.7845    2.7771   -1.8618 H   0  0  0  0  0  0  0  0  0  0  0  0
    1.7081    4.8942   -2.3574 H   0  0  0  0  0  0  0  0  0  0  0  0
    0.9756    4.3275   -0.9239 H   0  0  0  0  0  0  0  0  0  0  0  0
    1.5567    6.7086   -0.6472 H   0  0  0  0  0  0  0  0  0  0  0  0
    2.4422    5.7511    0.5070 H   0  0  0  0  0  0  0  0  0  0  0  0
    3.9607    7.3826   -0.4656 H   0  0  0  0  0  0  0  0  0  0  0  0
    4.5082    5.8162   -0.9760 H   0  0  0  0  0  0  0  0  0  0  0  0
    3.1719    6.3894   -4.2521 H   0  0  0  0  0  0  0  0  0  0  0  0
  1  2  1  0  0  0  0
  1  4  1  0  0  0  0
  1 11  1  0  0  0  0
  1 16  1  6  0  0  0
  2  3  1  0  0  0  0
  2 30  1  0  0  0  0
  2 31  1  0  0  0  0
  3  6  1  0  0  0  0
  3 32  1  0  0  0  0
  3 33  1  0  0  0  0
  5 19  1  6  0  0  0
  5  4  1  0  0  0  0
  5  6  1  0  0  0  0
  6  7  1  0  0  0  0
  6 20  1  1  0  0  0
  7  8  1  0  0  0  0
  7 21  1  0  0  0  0
  7 34  1  6  0  0  0
  8  9  1  0  0  0  0
  8 10  2  0  0  0  0
  9  5  1  0  0  0  0
  9 35  1  0  0  0  0
  9 36  1  0  0  0  0
 11 14  1  0  0  0  0
 11 12  1  0  0  0  0
 11 13  1  0  0  0  0
 12 15  1  0  0  0  0
 12 37  1  0  0  0  0
 12 38  1  0  0  0  0
 15 17  1  0  0  0  0
 15 39  1  0  0  0  0
 15 40  1  0  0  0  0
 16 41  1  0  0  0  0
 17 18  1  0  0  0  0
 17 42  1  0  0  0  0
 17 43  1  0  0  0  0
 18 44  1  0  0  0  0
 18 45  1  0  0  0  0
 18 46  1  0  0  0  0
 21 22  1  0  0  0  0
 21 47  1  0  0  0  0
 21 48  1  0  0  0  0
 22 23  1  0  0  0  0
 22 49  1  0  0  0  0
 22 50  1  0  0  0  0
 23 24  1  0  0  0  0
 23 51  1  0  0  0  0
 23 52  1  0  0  0  0
 24 25  1  0  0  0  0
 24 53  1  0  0  0  0
 24 54  1  0  0  0  0
 25 26  1  0  0  0  0
 25 55  1  0  0  0  0
 25 56  1  0  0  0  0
 26 27  1  0  0  0  0
 26 57  1  0  0  0  0
 26 58  1  0  0  0  0
 27 28  2  0  0  0  0
 27 29  1  0  0  0  0
 29 59  1  0  0  0  0
M  END
>  <DRUGBANK_ID>
DB01046

>  <SECONDARY_ACCESSION_NUMBERS>
APRD01298

>  <COMMON_NAME>
Lubiprostone

>  <CAS_NUMBER>
136790-76-6

>  <UNII>
7662KG2R6K

>  <SYNONYMS>
Lubiprostone

$$$$
