
 OpenBabel10282417203D

 91 93  0  0  1  0  0  0  0  0999 V2000
   -4.3617   -5.5869    3.6061 C   0  0  0  0  0  0  0  0  0  0  0  0
   -2.9429   -5.5498    3.0600 C   0  0  0  0  0  0  0  0  0  0  0  0
   -2.0259   -4.9000    3.9419 O   0  0  0  0  0  0  0  0  0  0  0  0
   -2.2980   -3.6202    4.2921 C   0  0  0  0  0  0  0  0  0  0  0  0
   -3.2270   -2.9295    3.8609 O   0  0  0  0  0  0  0  0  0  0  0  0
   -1.4705   -3.2236    5.2774 N   0  0  0  0  0  0  0  0  0  0  0  0
   -0.0663   -3.4822    5.1319 C   0  0  0  0  0  0  0  0  0  0  0  0
    0.5254   -3.9444    6.4197 C   0  0  0  0  0  0  0  0  0  0  0  0
    0.1712   -3.0213    7.4915 N   0  0  0  0  0  0  0  0  0  0  0  0
   -1.2660   -2.8123    7.6744 C   0  0  0  0  0  0  0  0  0  0  0  0
   -1.8495   -2.3035    6.3525 C   0  0  0  0  0  0  0  0  0  0  0  0
    1.0652   -2.3920    8.3193 C   0  0  0  0  0  0  0  0  0  0  0  0
    0.6547   -1.6473    9.2121 O   0  0  0  0  0  0  0  0  0  0  0  0
    2.5846   -2.5934    8.0184 C   0  0  2  0  0  0  0  0  0  0  0  0
    3.3279   -1.4395    7.3812 C   0  0  0  0  0  0  0  0  0  0  0  0
    2.3591   -0.6704    6.5885 C   0  0  0  0  0  0  0  0  0  0  0  0
    1.4118    0.1849    7.1491 C   0  0  0  0  0  0  0  0  0  0  0  0
    0.3388    0.5738    6.3776 C   0  0  0  0  0  0  0  0  0  0  0  0
    0.3126    0.2200    5.0246 C   0  0  0  0  0  0  0  0  0  0  0  0
    1.3371   -0.5513    4.4409 C   0  0  0  0  0  0  0  0  0  0  0  0
    2.2700   -1.0863    5.2902 C   0  0  0  0  0  0  0  0  0  0  0  0
    1.3375   -0.9534    2.9976 C   0  0  0  0  0  0  0  0  0  0  0  0
    2.1784   -1.7587    2.3830 N   0  0  0  0  0  0  0  0  0  0  0  0
    3.1728   -2.3321    3.1775 O   0  0  0  0  0  0  0  0  0  0  0  0
    0.3627   -0.4057    2.2149 N   0  0  0  0  0  0  0  0  0  0  0  0
    3.0262   -3.9890    7.8982 N   0  0  0  0  0  0  0  0  0  0  0  0
    2.2902   -5.1934    8.8656 S   0  0  0  0  0  0  0  0  0  0  0  0
    0.9157   -4.9243    9.1802 O   0  0  0  0  0  0  0  0  0  0  0  0
    2.6016   -6.3491    8.0377 O   0  0  0  0  0  0  0  0  0  0  0  0
    3.1233   -5.2267   10.4785 C   0  0  0  0  0  0  0  0  0  0  0  0
    3.2981   -4.0424   11.2743 C   0  0  0  0  0  0  0  0  0  0  0  0
    3.7887   -4.0560   12.5591 C   0  0  0  0  0  0  0  0  0  0  0  0
    4.0362   -5.2466   13.1555 C   0  0  0  0  0  0  0  0  0  0  0  0
    3.7435   -6.4228   12.4629 C   0  0  0  0  0  0  0  0  0  0  0  0
    3.3689   -6.4483   11.1015 C   0  0  0  0  0  0  0  0  0  0  0  0
    3.3437   -7.7956   10.4207 C   0  0  0  0  0  0  0  0  0  0  0  0
    4.7571   -8.3706   10.4081 C   0  0  0  0  0  0  0  0  0  0  0  0
    2.3091   -8.7236   11.0340 C   0  0  0  0  0  0  0  0  0  0  0  0
    4.6873   -5.2025   14.4988 C   0  0  0  0  0  0  0  0  0  0  0  0
    3.7595   -5.8207   15.5221 C   0  0  0  0  0  0  0  0  0  0  0  0
    6.0352   -5.8999   14.3930 C   0  0  0  0  0  0  0  0  0  0  0  0
    3.0481   -2.6527   10.8556 C   0  0  0  0  0  0  0  0  0  0  0  0
    2.0653   -1.7330   11.5354 C   0  0  0  0  0  0  0  0  0  0  0  0
    4.3937   -1.9441   10.5483 C   0  0  0  0  0  0  0  0  0  0  0  0
   -4.3952   -6.1001    4.5723 H   0  0  0  0  0  0  0  0  0  0  0  0
   -5.0286   -6.0903    2.9036 H   0  0  0  0  0  0  0  0  0  0  0  0
   -4.7659   -4.5864    3.7735 H   0  0  0  0  0  0  0  0  0  0  0  0
   -2.5909   -6.5820    2.9420 H   0  0  0  0  0  0  0  0  0  0  0  0
   -2.8860   -5.0705    2.0797 H   0  0  0  0  0  0  0  0  0  0  0  0
    0.2264   -4.1119    4.2893 H   0  0  0  0  0  0  0  0  0  0  0  0
    0.3440   -2.5181    4.9193 H   0  0  0  0  0  0  0  0  0  0  0  0
    0.1693   -4.9397    6.6941 H   0  0  0  0  0  0  0  0  0  0  0  0
    1.5854   -3.9747    6.2262 H   0  0  0  0  0  0  0  0  0  0  0  0
   -1.6934   -3.7860    7.9378 H   0  0  0  0  0  0  0  0  0  0  0  0
   -1.4850   -2.1189    8.4937 H   0  0  0  0  0  0  0  0  0  0  0  0
   -1.4258   -1.3258    6.1332 H   0  0  0  0  0  0  0  0  0  0  0  0
   -2.9323   -2.1870    6.4049 H   0  0  0  0  0  0  0  0  0  0  0  0
    3.2043   -2.4212    8.8432 H   0  0  0  0  0  0  0  0  0  0  0  0
    3.7105   -0.7070    8.1058 H   0  0  0  0  0  0  0  0  0  0  0  0
    4.2126   -1.7833    6.8327 H   0  0  0  0  0  0  0  0  0  0  0  0
    1.3953    0.3696    8.2243 H   0  0  0  0  0  0  0  0  0  0  0  0
   -0.5073    1.0684    6.8481 H   0  0  0  0  0  0  0  0  0  0  0  0
   -0.5967    0.4491    4.4828 H   0  0  0  0  0  0  0  0  0  0  0  0
    2.8450   -1.9752    5.0694 H   0  0  0  0  0  0  0  0  0  0  0  0
    3.7144   -2.8571    2.5660 H   0  0  0  0  0  0  0  0  0  0  0  0
   -0.2875    0.2841    2.5575 H   0  0  0  0  0  0  0  0  0  0  0  0
    0.4820   -0.4680    1.2153 H   0  0  0  0  0  0  0  0  0  0  0  0
    3.2533   -4.3503    6.9742 H   0  0  0  0  0  0  0  0  0  0  0  0
    3.9709   -3.1147   13.0745 H   0  0  0  0  0  0  0  0  0  0  0  0
    3.8600   -7.3609   12.9969 H   0  0  0  0  0  0  0  0  0  0  0  0
    3.0773   -7.7486    9.3793 H   0  0  0  0  0  0  0  0  0  0  0  0
    5.1267   -8.5628   11.4187 H   0  0  0  0  0  0  0  0  0  0  0  0
    4.7803   -9.3063    9.8452 H   0  0  0  0  0  0  0  0  0  0  0  0
    5.4498   -7.6683    9.9249 H   0  0  0  0  0  0  0  0  0  0  0  0
    1.3127   -8.2677   10.9853 H   0  0  0  0  0  0  0  0  0  0  0  0
    2.2792   -9.6653   10.4789 H   0  0  0  0  0  0  0  0  0  0  0  0
    2.5323   -8.9474   12.0790 H   0  0  0  0  0  0  0  0  0  0  0  0
    4.8741   -4.1564   14.7884 H   0  0  0  0  0  0  0  0  0  0  0  0
    3.5333   -6.8608   15.2703 H   0  0  0  0  0  0  0  0  0  0  0  0
    4.2190   -5.7919   16.5105 H   0  0  0  0  0  0  0  0  0  0  0  0
    2.8089   -5.2739   15.5586 H   0  0  0  0  0  0  0  0  0  0  0  0
    6.6705   -5.4086   13.6434 H   0  0  0  0  0  0  0  0  0  0  0  0
    6.5518   -5.8780   15.3526 H   0  0  0  0  0  0  0  0  0  0  0  0
    5.9185   -6.9435   14.0840 H   0  0  0  0  0  0  0  0  0  0  0  0
    2.3743   -2.9468   10.0950 H   0  0  0  0  0  0  0  0  0  0  0  0
    2.3576   -1.4585   12.5376 H   0  0  0  0  0  0  0  0  0  0  0  0
    1.9719   -0.8250   10.9224 H   0  0  0  0  0  0  0  0  0  0  0  0
    1.0821   -2.2240   11.5568 H   0  0  0  0  0  0  0  0  0  0  0  0
    5.0719   -2.5601    9.9350 H   0  0  0  0  0  0  0  0  0  0  0  0
    4.2512   -0.9930   10.0285 H   0  0  0  0  0  0  0  0  0  0  0  0
    4.9307   -1.6973   11.4661 H   0  0  0  0  0  0  0  0  0  0  0  0
  1  2  1  0  0  0  0
  1 45  1  0  0  0  0
  1 46  1  0  0  0  0
  1 47  1  0  0  0  0
  2  3  1  0  0  0  0
  2 48  1  0  0  0  0
  2 49  1  0  0  0  0
  3  4  1  0  0  0  0
  4  5  2  0  0  0  0
  4  6  1  0  0  0  0
  6  7  1  0  0  0  0
  6 11  1  0  0  0  0
  7  8  1  0  0  0  0
  7 50  1  0  0  0  0
  7 51  1  0  0  0  0
  8  9  1  0  0  0  0
  8 52  1  0  0  0  0
  8 53  1  0  0  0  0
  9 10  1  0  0  0  0
  9 12  1  0  0  0  0
 10 11  1  0  0  0  0
 10 54  1  0  0  0  0
 10 55  1  0  0  0  0
 11 56  1  0  0  0  0
 11 57  1  0  0  0  0
 12 13  2  0  0  0  0
 14 26  1  0  0  0  0
 14 58  1  1  0  0  0
 14 15  1  0  0  0  0
 14 12  1  0  0  0  0
 15 16  1  0  0  0  0
 15 59  1  0  0  0  0
 15 60  1  0  0  0  0
 16 17  2  0  0  0  0
 16 21  1  0  0  0  0
 17 18  1  0  0  0  0
 17 61  1  0  0  0  0
 18 19  2  0  0  0  0
 18 62  1  0  0  0  0
 19 20  1  0  0  0  0
 19 63  1  0  0  0  0
 20 21  2  0  0  0  0
 20 22  1  0  0  0  0
 21 64  1  0  0  0  0
 22 23  2  0  0  0  0
 22 25  1  0  0  0  0
 23 24  1  0  0  0  0
 24 65  1  0  0  0  0
 25 66  1  0  0  0  0
 25 67  1  0  0  0  0
 26 27  1  0  0  0  0
 26 68  1  0  0  0  0
 27 28  2  0  0  0  0
 27 29  2  0  0  0  0
 27 30  1  0  0  0  0
 30 31  2  0  0  0  0
 30 35  1  0  0  0  0
 31 32  1  0  0  0  0
 31 42  1  0  0  0  0
 32 33  2  0  0  0  0
 32 69  1  0  0  0  0
 33 34  1  0  0  0  0
 33 39  1  0  0  0  0
 34 35  2  0  0  0  0
 34 70  1  0  0  0  0
 35 36  1  0  0  0  0
 36 37  1  0  0  0  0
 36 38  1  0  0  0  0
 36 71  1  0  0  0  0
 37 72  1  0  0  0  0
 37 73  1  0  0  0  0
 37 74  1  0  0  0  0
 38 75  1  0  0  0  0
 38 76  1  0  0  0  0
 38 77  1  0  0  0  0
 39 40  1  0  0  0  0
 39 41  1  0  0  0  0
 39 78  1  0  0  0  0
 40 79  1  0  0  0  0
 40 80  1  0  0  0  0
 40 81  1  0  0  0  0
 41 82  1  0  0  0  0
 41 83  1  0  0  0  0
 41 84  1  0  0  0  0
 42 43  1  0  0  0  0
 42 44  1  0  0  0  0
 42 85  1  0  0  0  0
 43 86  1  0  0  0  0
 43 87  1  0  0  0  0
 43 88  1  0  0  0  0
 44 89  1  0  0  0  0
 44 90  1  0  0  0  0
 44 91  1  0  0  0  0
M  END
>  <DRUGBANK_ID>
DB13052

>  <SECONDARY_ACCESSION_NUMBERS>
DB05558

>  <COMMON_NAME>
Upamostat

>  <CAS_NUMBER>
1191101-18-4

>  <UNII>
S5M7KW6U17

>  <SYNONYMS>
Mesupron; Upamostat

$$$$
