
 OpenBabel10282417233D

 81 85  0  0  1  0  0  0  0  0999 V2000
    1.4437   -0.7038    0.3676 C   0  0  0  0  0  0  0  0  0  0  0  0
    0.5128    0.6442    0.9199 C   0  0  2  0  0  0  0  0  0  0  0  0
   -1.1392    0.2044   -0.1176 C   0  0  0  0  0  0  0  0  0  0  0  0
   -1.1567    1.1294   -1.7461 N   0  0  0  0  0  0  0  0  0  0  0  0
   -2.5356    1.3031   -2.1995 C   0  0  0  0  0  0  0  0  0  0  0  0
   -3.4931    2.4274   -1.4899 C   0  0  0  0  0  0  0  0  0  0  0  0
   -3.9640    3.2550   -2.3005 O   0  0  0  0  0  0  0  0  0  0  0  0
   -3.7726    2.5912   -0.0899 N   0  0  0  0  0  0  0  0  0  0  0  0
   -3.1744    2.3103    1.1991 C   0  0  0  0  0  0  0  0  0  0  0  0
   -3.5038    3.0670    2.4884 C   0  0  0  0  0  0  0  0  0  0  0  0
   -2.7370    4.4041    2.5882 C   0  0  0  0  0  0  0  0  0  0  0  0
   -3.1523    2.2468    3.8130 C   0  0  0  0  0  0  0  0  0  0  0  0
   -4.8536    3.0880    1.9362 C   0  0  0  0  0  0  0  0  0  0  0  0
   -4.9531    2.8562    0.5296 C   0  0  0  0  0  0  0  0  0  0  0  0
   -6.0986    2.4993   -0.0146 C   0  0  0  0  0  0  0  0  0  0  0  0
   -7.1918    2.7072    0.7889 C   0  0  0  0  0  0  0  0  0  0  0  0
   -8.5095    2.6742    0.1006 C   0  0  0  0  0  0  0  0  0  0  0  0
   -8.6035    3.7246   -0.9762 C   0  0  0  0  0  0  0  0  0  0  0  0
   -7.7723    3.6593   -2.1015 C   0  0  0  0  0  0  0  0  0  0  0  0
   -7.7995    4.6119   -3.0921 C   0  0  0  0  0  0  0  0  0  0  0  0
   -8.5495    5.7422   -2.8807 C   0  0  0  0  0  0  0  0  0  0  0  0
   -8.6012    6.6689   -3.8417 F   0  0  0  0  0  0  0  0  0  0  0  0
   -9.2958    5.8949   -1.7177 C   0  0  0  0  0  0  0  0  0  0  0  0
   -9.4648    4.8093   -0.8618 C   0  0  0  0  0  0  0  0  0  0  0  0
   -7.0209    2.9951    2.1644 C   0  0  0  0  0  0  0  0  0  0  0  0
   -8.1374    3.2434    3.1041 C   0  0  0  0  0  0  0  0  0  0  0  0
   -8.1864    2.2406    4.1103 O   0  0  0  0  0  0  0  0  0  0  0  0
   -5.8447    3.1004    2.7759 N   0  0  0  0  0  0  0  0  0  0  0  0
   -0.3672    2.7850   -1.9878 C   0  0  1  0  0  0  0  0  0  0  0  0
   -0.9615    4.0301   -1.2194 C   0  0  0  0  0  0  0  0  0  0  0  0
   -0.8948    3.8379    0.2529 N   0  0  0  0  0  0  0  0  0  0  0  0
    0.4282    4.2927    1.2109 C   0  0  0  0  0  0  0  0  0  0  0  0
    2.2531    3.5344    1.0479 C   0  0  0  0  0  0  0  0  0  0  0  0
    2.4412    1.7047    0.2767 O   0  0  0  0  0  0  0  0  0  0  0  0
    0.8169    1.2010   -0.8032 C   0  0  0  0  0  0  0  0  0  0  0  0
   -0.8587    2.1646    0.2295 C   0  0  1  0  0  0  0  0  0  0  0  0
   -1.0238    1.5526    2.0265 C   0  0  0  0  0  0  0  0  0  0  0  0
    1.0548    3.0629   -1.4096 C   0  0  0  0  0  0  0  0  0  0  0  0
    0.8709    2.5338    0.3870 N   0  0  0  0  0  0  0  0  0  0  0  0
    1.3641   -1.0380   -0.7176 H   0  0  0  0  0  0  0  0  0  0  0  0
    0.9425   -1.5345    0.8409 H   0  0  0  0  0  0  0  0  0  0  0  0
    2.4972   -0.4612    0.3758 H   0  0  0  0  0  0  0  0  0  0  0  0
    0.7665    0.7554    1.9985 H   0  0  0  0  0  0  0  0  0  0  0  0
   -1.3971   -0.8559   -0.1246 H   0  0  0  0  0  0  0  0  0  0  0  0
   -2.0930    0.5166    0.3268 H   0  0  0  0  0  0  0  0  0  0  0  0
   -2.3493    1.5796   -3.2607 H   0  0  0  0  0  0  0  0  0  0  0  0
   -2.9614    0.3070   -2.1796 H   0  0  0  0  0  0  0  0  0  0  0  0
   -2.2971    2.8526    1.2009 H   0  0  0  0  0  0  0  0  0  0  0  0
   -3.3149    1.2347    1.3673 H   0  0  0  0  0  0  0  0  0  0  0  0
   -3.1257    5.0012    3.4016 H   0  0  0  0  0  0  0  0  0  0  0  0
   -1.6831    4.2430    2.8489 H   0  0  0  0  0  0  0  0  0  0  0  0
   -2.7417    4.9670    1.6469 H   0  0  0  0  0  0  0  0  0  0  0  0
   -3.4088    1.1780    3.7047 H   0  0  0  0  0  0  0  0  0  0  0  0
   -2.0656    2.2456    4.0834 H   0  0  0  0  0  0  0  0  0  0  0  0
   -3.5843    2.6782    4.7014 H   0  0  0  0  0  0  0  0  0  0  0  0
   -6.0496    2.1242   -1.0203 H   0  0  0  0  0  0  0  0  0  0  0  0
   -8.6412    1.6725   -0.3081 H   0  0  0  0  0  0  0  0  0  0  0  0
   -9.3078    2.8285    0.8131 H   0  0  0  0  0  0  0  0  0  0  0  0
   -7.0821    2.8510   -2.2659 H   0  0  0  0  0  0  0  0  0  0  0  0
   -7.2138    4.4592   -3.9879 H   0  0  0  0  0  0  0  0  0  0  0  0
   -9.7439    6.8541   -1.4914 H   0  0  0  0  0  0  0  0  0  0  0  0
  -10.2686    4.8106   -0.1308 H   0  0  0  0  0  0  0  0  0  0  0  0
   -8.0052    4.2359    3.5429 H   0  0  0  0  0  0  0  0  0  0  0  0
   -9.0849    3.2281    2.5970 H   0  0  0  0  0  0  0  0  0  0  0  0
   -8.1140    1.3856    3.6532 H   0  0  0  0  0  0  0  0  0  0  0  0
   -0.2503    2.9083   -3.0695 H   0  0  0  0  0  0  0  0  0  0  0  0
   -0.6602    5.0498   -1.4677 H   0  0  0  0  0  0  0  0  0  0  0  0
   -1.9644    4.0139   -1.5952 H   0  0  0  0  0  0  0  0  0  0  0  0
    0.3491    5.3816    1.1613 H   0  0  0  0  0  0  0  0  0  0  0  0
    0.0860    3.9383    2.1993 H   0  0  0  0  0  0  0  0  0  0  0  0
    2.4739    4.1420    0.1651 H   0  0  0  0  0  0  0  0  0  0  0  0
    2.9093    3.7115    1.8938 H   0  0  0  0  0  0  0  0  0  0  0  0
    1.0650    1.1145   -1.8593 H   0  0  0  0  0  0  0  0  0  0  0  0
    0.4954    0.1953   -0.9283 H   0  0  0  0  0  0  0  0  0  0  0  0
   -1.7565    2.1325   -0.2830 H   0  0  0  0  0  0  0  0  0  0  0  0
   -1.9602    1.5166    2.4586 H   0  0  0  0  0  0  0  0  0  0  0  0
   -1.0942    0.4371    2.1470 H   0  0  0  0  0  0  0  0  0  0  0  0
   -0.3973    2.0639    2.7556 H   0  0  0  0  0  0  0  0  0  0  0  0
    1.9703    2.4710   -1.7861 H   0  0  0  0  0  0  0  0  0  0  0  0
    1.5180    4.0419   -1.5426 H   0  0  0  0  0  0  0  0  0  0  0  0
    1.7564    2.4492    0.0476 H   0  0  0  0  0  0  0  0  0  0  0  0
  1 40  1  0  0  0  0
  1 41  1  0  0  0  0
  1 42  1  0  0  0  0
  2  1  1  0  0  0  0
  2  3  1  0  0  0  0
  2 39  1  0  0  0  0
  2 43  1  1  0  0  0
  3  4  1  0  0  0  0
  3 44  1  0  0  0  0
  3 45  1  0  0  0  0
  4  5  1  0  0  0  0
  5  6  1  0  0  0  0
  5 46  1  0  0  0  0
  5 47  1  0  0  0  0
  6  7  2  0  0  0  0
  6  8  1  0  0  0  0
  8  9  1  0  0  0  0
  8 14  1  0  0  0  0
  9 10  1  0  0  0  0
  9 48  1  0  0  0  0
  9 49  1  0  0  0  0
 10 11  1  0  0  0  0
 10 12  1  0  0  0  0
 10 13  1  0  0  0  0
 11 50  1  0  0  0  0
 11 51  1  0  0  0  0
 11 52  1  0  0  0  0
 12 53  1  0  0  0  0
 12 54  1  0  0  0  0
 12 55  1  0  0  0  0
 13 14  2  0  0  0  0
 13 28  1  0  0  0  0
 14 15  1  0  0  0  0
 15 16  2  0  0  0  0
 15 56  1  0  0  0  0
 16 17  1  0  0  0  0
 16 25  1  0  0  0  0
 17 18  1  0  0  0  0
 17 57  1  0  0  0  0
 17 58  1  0  0  0  0
 18 19  2  0  0  0  0
 18 24  1  0  0  0  0
 19 20  1  0  0  0  0
 19 59  1  0  0  0  0
 20 21  2  0  0  0  0
 20 60  1  0  0  0  0
 21 22  1  0  0  0  0
 21 23  1  0  0  0  0
 23 24  2  0  0  0  0
 23 61  1  0  0  0  0
 24 62  1  0  0  0  0
 25 26  1  0  0  0  0
 25 28  2  0  0  0  0
 26 27  1  0  0  0  0
 26 63  1  0  0  0  0
 26 64  1  0  0  0  0
 27 65  1  0  0  0  0
 29  4  1  0  0  0  0
 29 38  1  0  0  0  0
 29 66  1  6  0  0  0
 29 30  1  0  0  0  0
 30 31  1  0  0  0  0
 30 67  1  0  0  0  0
 30 68  1  0  0  0  0
 31 32  1  0  0  0  0
 32 33  1  0  0  0  0
 32 69  1  0  0  0  0
 32 70  1  0  0  0  0
 33 34  1  0  0  0  0
 33 71  1  0  0  0  0
 33 72  1  0  0  0  0
 34 35  1  0  0  0  0
 35 73  1  0  0  0  0
 35 74  1  0  0  0  0
 36 35  1  0  0  0  0
 36 31  1  0  0  0  0
 36 37  1  0  0  0  0
 36 75  1  6  0  0  0
 37 76  1  0  0  0  0
 37 77  1  0  0  0  0
 37 78  1  0  0  0  0
 38 39  1  0  0  0  0
 38 79  1  0  0  0  0
 38 80  1  0  0  0  0
 39 81  1  0  0  0  0
M  END
>  <DRUGBANK_ID>
DB16160

>  <COMMON_NAME>
Tolinapant

>  <CAS_NUMBER>
1799328-86-1

>  <UNII>
2LHZ9ZC3YO

$$$$
