M18
 OpenBabel10282417173D

 55 56  0  0  0  0  0  0  0  0999 V2000
    0.9378    0.0766   -0.1263 C   0  0  0  0  0  0  0  0  0  0  0  0
    0.3731    1.4852   -0.0414 C   0  0  0  0  0  0  0  0  0  0  0  0
   -0.5193    1.9347   -0.7488 O   0  0  0  0  0  0  0  0  0  0  0  0
    0.9749    2.2332    0.9266 O   0  0  0  0  0  0  0  0  0  0  0  0
    0.4402    3.5763    0.9806 C   0  0  0  0  0  0  0  0  0  0  0  0
    0.8489    4.4259   -0.2405 C   0  0  2  0  0  0  0  0  0  0  0  0
    2.3447    4.3231   -0.5549 C   0  0  0  0  0  0  0  0  0  0  0  0
    2.5569    5.4644   -1.5422 C   0  0  0  0  0  0  0  0  0  0  0  0
    1.5427    6.5328   -1.1177 C   0  0  0  0  0  0  0  0  0  0  0  0
    0.6514    5.8777   -0.1630 N   0  0  0  0  0  0  0  0  0  0  0  0
   -0.3062    6.4713    0.6456 C   0  0  0  0  0  0  0  0  0  0  0  0
   -0.4032    8.0052    0.6909 C   0  0  0  0  0  0  0  0  0  0  0  0
   -1.7648    8.4285    0.4183 N   0  0  0  0  0  0  0  0  0  0  0  0
   -2.5628    9.1120    1.2966 C   0  0  0  0  0  0  0  0  0  0  0  0
   -3.8386    9.4048    0.8894 O   0  0  0  0  0  0  0  0  0  0  0  0
   -4.4587    9.0436   -0.3778 C   0  0  0  0  0  0  0  0  0  0  0  0
   -3.7123    9.7147   -1.5386 C   0  0  0  0  0  0  0  0  0  0  0  0
   -4.5805    7.5182   -0.4760 C   0  0  0  0  0  0  0  0  0  0  0  0
   -5.9008    9.6033   -0.4043 C   0  0  0  0  0  0  0  0  0  0  0  0
   -2.1618    9.4923    2.3955 O   0  0  0  0  0  0  0  0  0  0  0  0
   -1.0783    5.8015    1.3360 O   0  0  0  0  0  0  0  0  0  0  0  0
    0.5384   -0.7100   -1.3722 C   0  0  0  0  0  0  0  0  0  0  0  0
    0.0485   -0.0889   -2.5362 C   0  0  0  0  0  0  0  0  0  0  0  0
   -0.2892   -0.8147   -3.6728 C   0  0  0  0  0  0  0  0  0  0  0  0
   -0.9401    0.0129   -5.0342 Cl  0  0  0  0  0  0  0  0  0  0  0  0
   -0.0872   -2.1835   -3.7045 C   0  0  0  0  0  0  0  0  0  0  0  0
    0.4180   -2.8269   -2.5732 C   0  0  0  0  0  0  0  0  0  0  0  0
    0.7176   -2.1010   -1.4108 C   0  0  0  0  0  0  0  0  0  0  0  0
    0.3033    4.0974   -1.1354 H   0  0  0  0  0  0  0  0  0  0  0  0
    0.5938   -0.4588    0.7678 H   0  0  0  0  0  0  0  0  0  0  0  0
    2.0340    0.1270   -0.1047 H   0  0  0  0  0  0  0  0  0  0  0  0
   -0.6545    3.5172    1.0563 H   0  0  0  0  0  0  0  0  0  0  0  0
    0.7975    4.0382    1.9058 H   0  0  0  0  0  0  0  0  0  0  0  0
    2.9393    4.4983    0.3505 H   0  0  0  0  0  0  0  0  0  0  0  0
    2.6362    3.3542   -0.9729 H   0  0  0  0  0  0  0  0  0  0  0  0
    3.5850    5.8393   -1.5260 H   0  0  0  0  0  0  0  0  0  0  0  0
    2.3508    5.1173   -2.5625 H   0  0  0  0  0  0  0  0  0  0  0  0
    2.0261    7.3944   -0.6551 H   0  0  0  0  0  0  0  0  0  0  0  0
    0.9579    6.8661   -1.9841 H   0  0  0  0  0  0  0  0  0  0  0  0
   -0.0897    8.3382    1.6835 H   0  0  0  0  0  0  0  0  0  0  0  0
    0.2210    8.4787   -0.0649 H   0  0  0  0  0  0  0  0  0  0  0  0
   -2.1465    8.0715   -0.4345 H   0  0  0  0  0  0  0  0  0  0  0  0
   -2.6530    9.4667   -1.5925 H   0  0  0  0  0  0  0  0  0  0  0  0
   -4.1546    9.4486   -2.5016 H   0  0  0  0  0  0  0  0  0  0  0  0
   -3.7375   10.8057   -1.4236 H   0  0  0  0  0  0  0  0  0  0  0  0
   -5.1911    7.1354    0.3513 H   0  0  0  0  0  0  0  0  0  0  0  0
   -5.0340    7.2165   -1.4230 H   0  0  0  0  0  0  0  0  0  0  0  0
   -3.6338    6.9871   -0.3868 H   0  0  0  0  0  0  0  0  0  0  0  0
   -6.5114    9.2040    0.4130 H   0  0  0  0  0  0  0  0  0  0  0  0
   -5.9199   10.6947   -0.3089 H   0  0  0  0  0  0  0  0  0  0  0  0
   -6.3958    9.3423   -1.3499 H   0  0  0  0  0  0  0  0  0  0  0  0
   -0.0938    0.9839   -2.6001 H   0  0  0  0  0  0  0  0  0  0  0  0
   -0.3122   -2.7440   -4.6061 H   0  0  0  0  0  0  0  0  0  0  0  0
    0.5832   -3.9009   -2.6014 H   0  0  0  0  0  0  0  0  0  0  0  0
    1.1033   -2.6357   -0.5440 H   0  0  0  0  0  0  0  0  0  0  0  0
  1  2  1  0  0  0  0
  1 22  1  0  0  0  0
  1 30  1  0  0  0  0
  1 31  1  0  0  0  0
  2  3  2  0  0  0  0
  2  4  1  0  0  0  0
  4  5  1  0  0  0  0
  5 32  1  0  0  0  0
  5 33  1  0  0  0  0
  6  5  1  0  0  0  0
  6  7  1  0  0  0  0
  6 10  1  0  0  0  0
  6 29  1  6  0  0  0
  7  8  1  0  0  0  0
  7 34  1  0  0  0  0
  7 35  1  0  0  0  0
  8  9  1  0  0  0  0
  8 36  1  0  0  0  0
  8 37  1  0  0  0  0
  9 10  1  0  0  0  0
  9 38  1  0  0  0  0
  9 39  1  0  0  0  0
 10 11  1  0  0  0  0
 11 12  1  0  0  0  0
 11 21  2  0  0  0  0
 12 13  1  0  0  0  0
 12 40  1  0  0  0  0
 12 41  1  0  0  0  0
 13 14  1  0  0  0  0
 13 42  1  0  0  0  0
 14 15  1  0  0  0  0
 14 20  2  0  0  0  0
 15 16  1  0  0  0  0
 16 17  1  0  0  0  0
 16 18  1  0  0  0  0
 16 19  1  0  0  0  0
 17 43  1  0  0  0  0
 17 44  1  0  0  0  0
 17 45  1  0  0  0  0
 18 46  1  0  0  0  0
 18 47  1  0  0  0  0
 18 48  1  0  0  0  0
 19 49  1  0  0  0  0
 19 50  1  0  0  0  0
 19 51  1  0  0  0  0
 22 23  2  0  0  0  0
 22 28  1  0  0  0  0
 23 24  1  0  0  0  0
 23 52  1  0  0  0  0
 24 25  1  0  0  0  0
 24 26  2  0  0  0  0
 26 27  1  0  0  0  0
 26 53  1  0  0  0  0
 27 28  2  0  0  0  0
 27 54  1  0  0  0  0
 28 55  1  0  0  0  0
M  END
>  <DRUGBANK_ID>
DB08152

>  <COMMON_NAME>
{(2S)-1-[N-(tert-butoxycarbonyl)glycyl]pyrrolidin-2-yl}methyl (3-chlorophenyl)acetate

$$$$
