
 OpenBabel10282417183D

 25 27  0  0  0  0  0  0  0  0999 V2000
    0.9227   -1.4228   -0.0014 C   0  0  0  0  0  0  0  0  0  0  0  0
   -0.2715   -0.7124   -0.0034 C   0  0  0  0  0  0  0  0  0  0  0  0
   -0.2664    0.6754    0.0017 C   0  0  0  0  0  0  0  0  0  0  0  0
    0.8529    1.4152    0.0016 N   0  0  0  0  0  0  0  0  0  0  0  0
    1.9593    0.6660   -0.0129 C   0  0  0  0  0  0  0  0  0  0  0  0
    2.0535   -0.6817   -0.0098 N   0  0  0  0  0  0  0  0  0  0  0  0
   -1.5396    1.1849    0.0008 N   0  0  0  0  0  0  0  0  0  0  0  0
   -2.3244    0.1333   -0.0236 C   0  0  0  0  0  0  0  0  0  0  0  0
   -1.6029   -1.0205   -0.0222 N   0  0  0  0  0  0  0  0  0  0  0  0
    1.0804   -2.7832    0.0246 N   0  0  0  0  0  0  0  0  0  0  0  0
    0.0361   -3.7686    0.0038 C   0  0  0  0  0  0  0  0  0  0  0  0
   -0.0294   -4.6783   -1.1639 C   0  0  0  0  0  0  0  0  0  0  0  0
   -0.3118   -6.0236   -1.2334 C   0  0  0  0  0  0  0  0  0  0  0  0
   -0.2471   -6.3743   -2.5972 C   0  0  0  0  0  0  0  0  0  0  0  0
    0.0217   -5.2110   -3.2813 C   0  0  0  0  0  0  0  0  0  0  0  0
    0.1347   -4.1651   -2.4174 O   0  0  0  0  0  0  0  0  0  0  0  0
    2.8975    1.2118   -0.0299 H   0  0  0  0  0  0  0  0  0  0  0  0
   -3.4041    0.1288   -0.0493 H   0  0  0  0  0  0  0  0  0  0  0  0
   -2.0292   -1.9338   -0.0598 H   0  0  0  0  0  0  0  0  0  0  0  0
    2.0371   -3.0968   -0.0883 H   0  0  0  0  0  0  0  0  0  0  0  0
    0.1304   -4.3728    0.9124 H   0  0  0  0  0  0  0  0  0  0  0  0
   -0.9532   -3.3396    0.0928 H   0  0  0  0  0  0  0  0  0  0  0  0
   -0.5231   -6.6573   -0.3843 H   0  0  0  0  0  0  0  0  0  0  0  0
   -0.3796   -7.3568   -3.0254 H   0  0  0  0  0  0  0  0  0  0  0  0
    0.1613   -4.9767   -4.3283 H   0  0  0  0  0  0  0  0  0  0  0  0
  1  2  1  0  0  0  0
  1  6  2  0  0  0  0
  1 10  1  0  0  0  0
  2  3  2  0  0  0  0
  2  9  1  0  0  0  0
  3  4  1  0  0  0  0
  3  7  1  0  0  0  0
  4  5  2  0  0  0  0
  5  6  1  0  0  0  0
  5 17  1  0  0  0  0
  7  8  2  0  0  0  0
  8  9  1  0  0  0  0
  8 18  1  0  0  0  0
  9 19  1  0  0  0  0
 10 11  1  0  0  0  0
 10 20  1  0  0  0  0
 11 12  1  0  0  0  0
 11 21  1  0  0  0  0
 11 22  1  0  0  0  0
 12 13  2  0  0  0  0
 12 16  1  0  0  0  0
 13 14  1  0  0  0  0
 13 23  1  0  0  0  0
 14 15  2  0  0  0  0
 14 24  1  0  0  0  0
 15 16  1  0  0  0  0
 15 25  1  0  0  0  0
M  END
>  <DRUGBANK_ID>
DB11336

>  <COMMON_NAME>
Kinetin

>  <CAS_NUMBER>
525-79-1

>  <UNII>
P39Y9652YJ

$$$$
