
 OpenBabel10282417183D

 52 55  0  0  0  0  0  0  0  0999 V2000
    1.0804   -0.0360    0.0205 C   0  0  0  0  0  0  0  0  0  0  0  0
    0.4597   -1.4783   -0.8021 S   0  0  0  0  0  0  0  0  0  0  0  0
    1.0757   -2.6300   -0.1707 O   0  0  0  0  0  0  0  0  0  0  0  0
   -0.9815   -1.3570   -0.8988 O   0  0  0  0  0  0  0  0  0  0  0  0
    1.0608   -1.4317   -2.4716 C   0  0  0  0  0  0  0  0  0  0  0  0
    1.2749   -0.2160   -3.1244 C   0  0  0  0  0  0  0  0  0  0  0  0
    1.6748   -0.2245   -4.4586 C   0  0  0  0  0  0  0  0  0  0  0  0
    1.7921   -1.4420   -5.1513 C   0  0  0  0  0  0  0  0  0  0  0  0
    1.6418   -2.6427   -4.4657 C   0  0  0  0  0  0  0  0  0  0  0  0
    1.2824   -2.6488   -3.1280 C   0  0  0  0  0  0  0  0  0  0  0  0
    1.9149   -3.8049   -5.0776 F   0  0  0  0  0  0  0  0  0  0  0  0
    2.1720   -1.4494   -6.5116 N   0  0  0  0  0  0  0  0  0  0  0  0
    1.5459   -2.2203   -7.5021 C   0  0  0  0  0  0  0  0  0  0  0  0
    2.0751   -2.3977   -8.7347 C   0  0  0  0  0  0  0  0  0  0  0  0
    3.2817   -1.6754   -9.0960 C   0  0  0  0  0  0  0  0  0  0  0  0
    3.7126   -0.8229   -8.1706 C   0  0  0  0  0  0  0  0  0  0  0  0
    3.3423   -0.7937   -6.7806 C   0  0  0  0  0  0  0  0  0  0  0  0
    4.1084   -0.2340   -5.9873 O   0  0  0  0  0  0  0  0  0  0  0  0
    3.8545   -1.8455  -10.3366 O   0  0  0  0  0  0  0  0  0  0  0  0
    5.1688   -1.3264  -10.7015 C   0  0  0  0  0  0  0  0  0  0  0  0
    6.3584   -1.7460   -9.8179 C   0  0  0  0  0  0  0  0  0  0  0  0
    6.6011   -0.8488   -8.6122 C   0  0  0  0  0  0  0  0  0  0  0  0
    6.4035    0.5786   -8.9266 N   0  0  0  0  0  0  0  0  0  0  0  0
    5.3784    1.0974   -9.8496 C   0  0  0  0  0  0  0  0  0  0  0  0
    5.2087    0.1704  -11.0498 C   0  0  0  0  0  0  0  0  0  0  0  0
    7.4178    1.4304   -8.5526 C   0  0  0  0  0  0  0  0  0  0  0  0
    7.1275    2.5554   -7.8728 N   0  0  0  0  0  0  0  0  0  0  0  0
    8.1710    3.3366   -7.4931 C   0  0  0  0  0  0  0  0  0  0  0  0
    9.4772    3.0740   -7.8223 C   0  0  0  0  0  0  0  0  0  0  0  0
    9.6673    1.9228   -8.5406 C   0  0  0  0  0  0  0  0  0  0  0  0
    8.6703    1.0825   -8.8907 N   0  0  0  0  0  0  0  0  0  0  0  0
   10.7729    4.1018   -7.3915 Cl  0  0  0  0  0  0  0  0  0  0  0  0
    1.2727   -3.3756   -9.9036 Cl  0  0  0  0  0  0  0  0  0  0  0  0
    0.7239   -0.0619    1.0535 H   0  0  0  0  0  0  0  0  0  0  0  0
    0.6913    0.8632   -0.4593 H   0  0  0  0  0  0  0  0  0  0  0  0
    2.1712   -0.0499    0.0084 H   0  0  0  0  0  0  0  0  0  0  0  0
    1.1131    0.7416   -2.6407 H   0  0  0  0  0  0  0  0  0  0  0  0
    1.8734    0.7223   -4.9621 H   0  0  0  0  0  0  0  0  0  0  0  0
    1.1638   -3.6025   -2.6241 H   0  0  0  0  0  0  0  0  0  0  0  0
    0.5901   -2.6470   -7.2237 H   0  0  0  0  0  0  0  0  0  0  0  0
    4.4761   -0.1287   -8.2784 H   0  0  0  0  0  0  0  0  0  0  0  0
    5.3492   -1.8371  -11.6607 H   0  0  0  0  0  0  0  0  0  0  0  0
    6.2347   -2.7859   -9.4929 H   0  0  0  0  0  0  0  0  0  0  0  0
    7.2755   -1.6998  -10.4188 H   0  0  0  0  0  0  0  0  0  0  0  0
    5.9495   -1.1908   -7.8018 H   0  0  0  0  0  0  0  0  0  0  0  0
    7.5662   -1.0596   -8.1359 H   0  0  0  0  0  0  0  0  0  0  0  0
    5.5888    2.1220  -10.1755 H   0  0  0  0  0  0  0  0  0  0  0  0
    4.3888    1.2398   -9.3921 H   0  0  0  0  0  0  0  0  0  0  0  0
    6.0726    0.3492  -11.7022 H   0  0  0  0  0  0  0  0  0  0  0  0
    4.3095    0.4433  -11.6139 H   0  0  0  0  0  0  0  0  0  0  0  0
    7.9105    4.2094   -6.9003 H   0  0  0  0  0  0  0  0  0  0  0  0
   10.6538    1.6213   -8.8755 H   0  0  0  0  0  0  0  0  0  0  0  0
  1  2  1  0  0  0  0
  1 34  1  0  0  0  0
  1 35  1  0  0  0  0
  1 36  1  0  0  0  0
  2  3  2  0  0  0  0
  2  4  2  0  0  0  0
  2  5  1  0  0  0  0
  5  6  2  0  0  0  0
  5 10  1  0  0  0  0
  6  7  1  0  0  0  0
  6 37  1  0  0  0  0
  7  8  2  0  0  0  0
  7 38  1  0  0  0  0
  8  9  1  0  0  0  0
  8 12  1  0  0  0  0
  9 10  2  0  0  0  0
  9 11  1  0  0  0  0
 10 39  1  0  0  0  0
 12 13  1  0  0  0  0
 12 17  1  0  0  0  0
 13 14  2  0  0  0  0
 13 40  1  0  0  0  0
 14 15  1  0  0  0  0
 14 33  1  0  0  0  0
 15 16  2  0  0  0  0
 15 19  1  0  0  0  0
 16 17  1  0  0  0  0
 16 41  1  0  0  0  0
 17 18  2  0  0  0  0
 19 20  1  0  0  0  0
 20 21  1  0  0  0  0
 20 25  1  0  0  0  0
 20 42  1  0  0  0  0
 21 22  1  0  0  0  0
 21 43  1  0  0  0  0
 21 44  1  0  0  0  0
 22 23  1  0  0  0  0
 22 45  1  0  0  0  0
 22 46  1  0  0  0  0
 23 24  1  0  0  0  0
 23 26  1  0  0  0  0
 24 25  1  0  0  0  0
 24 47  1  0  0  0  0
 24 48  1  0  0  0  0
 25 49  1  0  0  0  0
 25 50  1  0  0  0  0
 26 27  2  0  0  0  0
 26 31  1  0  0  0  0
 27 28  1  0  0  0  0
 28 29  2  0  0  0  0
 28 51  1  0  0  0  0
 29 30  1  0  0  0  0
 29 32  1  0  0  0  0
 30 31  2  0  0  0  0
 30 52  1  0  0  0  0
M  END
>  <DRUGBANK_ID>
DB11773

>  <COMMON_NAME>
BMS-903452

>  <CAS_NUMBER>
1339944-47-6

>  <UNII>
49731B9ULN

$$$$
