
 OpenBabel10282417113D

 95 95  0  0  0  0  0  0  0  0999 V2000
    1.1656   -0.3690    1.1294 C   0  0  0  0  0  0  0  0  0  0  0  0
    0.3646   -1.4007    0.5780 C   0  0  0  0  0  0  0  0  0  0  0  0
    0.5612    0.8955    1.0079 C   0  0  0  0  0  0  0  0  0  0  0  0
   -0.9914   -1.1417    0.1727 C   0  0  0  0  0  0  0  0  0  0  0  0
   -0.6782    1.1671    0.4486 C   0  0  0  0  0  0  0  0  0  0  0  0
   -1.5326    0.1525    0.1342 C   0  0  0  0  0  0  0  0  0  0  0  0
    2.2859    2.5589   -0.6758 C   0  0  0  0  0  0  0  0  0  0  0  0
    3.2161    2.0614    0.5483 C   0  0  0  0  0  0  0  0  0  0  0  0
    3.5962    0.6239    0.7925 O   0  0  0  0  0  0  0  0  0  0  0  0
    1.4307    1.5305   -1.3136 O   0  0  0  0  0  0  0  0  0  0  0  0
    1.8705    0.1157   -1.3497 C   0  0  0  0  0  0  0  0  0  0  0  0
    4.4931    0.1841   -2.0296 O   0  0  0  0  0  0  0  0  0  0  0  0
    3.3061   -0.5113   -1.6255 C   0  0  0  0  0  0  0  0  0  0  0  0
    2.6325    1.9690   -3.0226 C   0  0  0  0  0  0  0  0  0  0  0  0
    4.0563    1.4967   -2.3010 C   0  0  0  0  0  0  0  0  0  0  0  0
    2.8231   -0.5778    1.1010 C   0  0  0  0  0  0  0  0  0  0  0  0
    3.2670   -1.6192    0.8609 O   0  0  0  0  0  0  0  0  0  0  0  0
   -2.8175    0.4439   -0.2422 N   0  0  0  0  0  0  0  0  0  0  0  0
    3.0454    2.2029   -8.7099 C   0  0  0  0  0  0  0  0  0  0  0  0
    4.3456    1.5885   -7.9717 C   0  0  0  0  0  0  0  0  0  0  0  0
    2.0580    1.1151   -9.0933 O   0  0  0  0  0  0  0  0  0  0  0  0
    2.4842   -0.2944   -9.2865 C   0  0  0  0  0  0  0  0  0  0  0  0
    5.0389   -0.2898  -10.1072 O   0  0  0  0  0  0  0  0  0  0  0  0
    3.8494   -1.0274   -9.6502 C   0  0  0  0  0  0  0  0  0  0  0  0
    1.8985   -0.4194   -3.8596 C   0  0  0  0  0  0  0  0  0  0  0  0
    4.4759    0.3460   -4.6238 O   0  0  0  0  0  0  0  0  0  0  0  0
    3.4386   -0.5606   -4.1925 C   0  0  0  0  0  0  0  0  0  0  0  0
    4.0633    1.6168   -5.1234 C   0  0  0  0  0  0  0  0  0  0  0  0
    2.8095    1.9991   -5.8940 C   0  0  0  0  0  0  0  0  0  0  0  0
    1.8369    1.0406   -6.2670 O   0  0  0  0  0  0  0  0  0  0  0  0
    2.2383   -0.2836   -6.4962 C   0  0  0  0  0  0  0  0  0  0  0  0
    3.6572   -0.6371   -6.9215 C   0  0  0  0  0  0  0  0  0  0  0  0
    4.6936    0.2732   -7.3825 O   0  0  0  0  0  0  0  0  0  0  0  0
    1.6245    1.0168   -3.6085 O   0  0  0  0  0  0  0  0  0  0  0  0
    4.7617    1.0652  -10.4616 C   0  0  0  0  0  0  0  0  0  0  0  0
    3.7510    1.5417  -11.5209 C   0  0  0  0  0  0  0  0  0  0  0  0
    2.5784    0.7459  -11.7031 O   0  0  0  0  0  0  0  0  0  0  0  0
    2.8822   -0.5637  -12.1237 C   0  0  0  0  0  0  0  0  0  0  0  0
   -3.3429    1.8117   -0.2601 C   0  0  0  0  0  0  0  0  0  0  0  0
   -4.0444    2.0550   -1.5843 C   0  0  0  0  0  0  0  0  0  0  0  0
   -5.2226    1.1083   -1.7480 C   0  0  0  0  0  0  0  0  0  0  0  0
   -6.2220    1.2951   -0.6172 C   0  0  0  0  0  0  0  0  0  0  0  0
    0.8113   -2.3387    0.2319 H   0  0  0  0  0  0  0  0  0  0  0  0
    1.0895    1.8230    0.9364 H   0  0  0  0  0  0  0  0  0  0  0  0
   -1.6098   -1.9842   -0.1267 H   0  0  0  0  0  0  0  0  0  0  0  0
   -0.8783    2.2146    0.2334 H   0  0  0  0  0  0  0  0  0  0  0  0
    1.7304    3.5051   -0.7394 H   0  0  0  0  0  0  0  0  0  0  0  0
    3.0383    3.0745   -1.3181 H   0  0  0  0  0  0  0  0  0  0  0  0
    2.7598    2.3509    1.4672 H   0  0  0  0  0  0  0  0  0  0  0  0
    4.1740    2.5914    0.4174 H   0  0  0  0  0  0  0  0  0  0  0  0
    2.1219    0.1758   -0.4597 H   0  0  0  0  0  0  0  0  0  0  0  0
    1.0483   -0.6284   -1.5770 H   0  0  0  0  0  0  0  0  0  0  0  0
    3.3727   -1.5862   -1.8533 H   0  0  0  0  0  0  0  0  0  0  0  0
    2.9509   -0.0901   -2.4594 H   0  0  0  0  0  0  0  0  0  0  0  0
    2.2638    3.0015   -3.3059 H   0  0  0  0  0  0  0  0  0  0  0  0
    3.5002    2.4068   -3.4552 H   0  0  0  0  0  0  0  0  0  0  0  0
    3.7274    1.5256   -1.3419 H   0  0  0  0  0  0  0  0  0  0  0  0
    4.8183    2.2930   -2.2821 H   0  0  0  0  0  0  0  0  0  0  0  0
   -3.4736   -0.3260   -0.2894 H   0  0  0  0  0  0  0  0  0  0  0  0
    2.4857    3.0506   -8.2877 H   0  0  0  0  0  0  0  0  0  0  0  0
    3.5089    2.7717   -9.4954 H   0  0  0  0  0  0  0  0  0  0  0  0
    3.4098    1.3388   -7.6064 H   0  0  0  0  0  0  0  0  0  0  0  0
    4.9785    2.3654   -7.4941 H   0  0  0  0  0  0  0  0  0  0  0  0
    3.2955   -0.1170   -8.6975 H   0  0  0  0  0  0  0  0  0  0  0  0
    1.7296   -1.0478   -8.8910 H   0  0  0  0  0  0  0  0  0  0  0  0
    4.0967   -2.0794   -9.4569 H   0  0  0  0  0  0  0  0  0  0  0  0
    3.1671   -1.2541  -10.3734 H   0  0  0  0  0  0  0  0  0  0  0  0
    2.0177   -1.2525   -3.1694 H   0  0  0  0  0  0  0  0  0  0  0  0
    0.9589   -0.9408   -4.0805 H   0  0  0  0  0  0  0  0  0  0  0  0
    3.6765   -1.5874   -4.4939 H   0  0  0  0  0  0  0  0  0  0  0  0
    2.8665    0.0766   -4.7441 H   0  0  0  0  0  0  0  0  0  0  0  0
    3.1684    1.8183   -4.6774 H   0  0  0  0  0  0  0  0  0  0  0  0
    4.7938    2.4188   -4.9046 H   0  0  0  0  0  0  0  0  0  0  0  0
    2.5133    3.0439   -6.0738 H   0  0  0  0  0  0  0  0  0  0  0  0
    3.6895    2.0486   -6.3918 H   0  0  0  0  0  0  0  0  0  0  0  0
    2.7355   -0.9040   -5.8232 H   0  0  0  0  0  0  0  0  0  0  0  0
    1.4034   -1.0186   -6.3794 H   0  0  0  0  0  0  0  0  0  0  0  0
    3.9791   -1.6990   -6.9845 H   0  0  0  0  0  0  0  0  0  0  0  0
    2.8580   -0.8549   -7.5581 H   0  0  0  0  0  0  0  0  0  0  0  0
    4.0247    1.0637   -9.7754 H   0  0  0  0  0  0  0  0  0  0  0  0
    5.4311    1.8516  -10.0436 H   0  0  0  0  0  0  0  0  0  0  0  0
    3.3662    2.5550  -11.2877 H   0  0  0  0  0  0  0  0  0  0  0  0
    4.2932    1.5718  -12.4335 H   0  0  0  0  0  0  0  0  0  0  0  0
    3.4260   -0.7123  -13.0289 H   0  0  0  0  0  0  0  0  0  0  0  0
    3.8288   -0.8552  -11.6934 H   0  0  0  0  0  0  0  0  0  0  0  0
    2.1060   -1.2753  -11.7515 H   0  0  0  0  0  0  0  0  0  0  0  0
   -3.9894    1.9872    0.6052 H   0  0  0  0  0  0  0  0  0  0  0  0
   -2.6019    2.6076   -0.1815 H   0  0  0  0  0  0  0  0  0  0  0  0
   -4.3881    3.0960   -1.6231 H   0  0  0  0  0  0  0  0  0  0  0  0
   -3.3319    1.9251   -2.4100 H   0  0  0  0  0  0  0  0  0  0  0  0
   -5.7026    1.2890   -2.7126 H   0  0  0  0  0  0  0  0  0  0  0  0
   -4.8711    0.0707   -1.7620 H   0  0  0  0  0  0  0  0  0  0  0  0
   -6.5946    2.3241   -0.6103 H   0  0  0  0  0  0  0  0  0  0  0  0
   -7.0571    0.6047   -0.7283 H   0  0  0  0  0  0  0  0  0  0  0  0
   -5.7793    1.0930    0.3635 H   0  0  0  0  0  0  0  0  0  0  0  0
  2  1  1  0  0  0  0
  2 43  1  0  0  0  0
  3  1  2  0  0  0  0
  3 44  1  0  0  0  0
  4  2  2  0  0  0  0
  4 45  1  0  0  0  0
  5  3  1  0  0  0  0
  5 46  1  0  0  0  0
  6  4  1  0  0  0  0
  6  5  2  0  0  0  0
  6 18  1  0  0  0  0
  7 47  1  0  0  0  0
  7 48  1  0  0  0  0
  8  7  1  0  0  0  0
  8 49  1  0  0  0  0
  8 50  1  0  0  0  0
  9  8  1  0  0  0  0
  9 16  1  0  0  0  0
 10  7  1  0  0  0  0
 11 10  1  0  0  0  0
 11 13  1  0  0  0  0
 11 51  1  0  0  0  0
 11 52  1  0  0  0  0
 12 15  1  0  0  0  0
 13 12  1  0  0  0  0
 13 53  1  0  0  0  0
 13 54  1  0  0  0  0
 14 34  1  0  0  0  0
 14 55  1  0  0  0  0
 14 56  1  0  0  0  0
 15 14  1  0  0  0  0
 15 57  1  0  0  0  0
 15 58  1  0  0  0  0
 16 17  2  0  0  0  0
 16  1  1  0  0  0  0
 18 39  1  0  0  0  0
 18 59  1  0  0  0  0
 19 21  1  0  0  0  0
 19 60  1  0  0  0  0
 19 61  1  0  0  0  0
 20 19  1  0  0  0  0
 20 62  1  0  0  0  0
 20 63  1  0  0  0  0
 21 22  1  0  0  0  0
 22 24  1  0  0  0  0
 22 64  1  0  0  0  0
 22 65  1  0  0  0  0
 23 35  1  0  0  0  0
 24 23  1  0  0  0  0
 24 66  1  0  0  0  0
 24 67  1  0  0  0  0
 25 34  1  0  0  0  0
 25 68  1  0  0  0  0
 25 69  1  0  0  0  0
 27 25  1  0  0  0  0
 27 26  1  0  0  0  0
 27 70  1  0  0  0  0
 27 71  1  0  0  0  0
 28 26  1  0  0  0  0
 28 72  1  0  0  0  0
 28 73  1  0  0  0  0
 29 28  1  0  0  0  0
 29 74  1  0  0  0  0
 29 75  1  0  0  0  0
 30 29  1  0  0  0  0
 31 30  1  0  0  0  0
 31 76  1  0  0  0  0
 31 77  1  0  0  0  0
 32 31  1  0  0  0  0
 32 78  1  0  0  0  0
 32 79  1  0  0  0  0
 33 32  1  0  0  0  0
 33 20  1  0  0  0  0
 35 36  1  0  0  0  0
 35 80  1  0  0  0  0
 35 81  1  0  0  0  0
 36 37  1  0  0  0  0
 36 82  1  0  0  0  0
 36 83  1  0  0  0  0
 37 38  1  0  0  0  0
 38 84  1  0  0  0  0
 38 85  1  0  0  0  0
 38 86  1  0  0  0  0
 39 40  1  0  0  0  0
 39 87  1  0  0  0  0
 39 88  1  0  0  0  0
 40 41  1  0  0  0  0
 40 89  1  0  0  0  0
 40 90  1  0  0  0  0
 41 42  1  0  0  0  0
 41 91  1  0  0  0  0
 41 92  1  0  0  0  0
 42 93  1  0  0  0  0
 42 94  1  0  0  0  0
 42 95  1  0  0  0  0
M  END
>  <DRUGBANK_ID>
DB00868

>  <SECONDARY_ACCESSION_NUMBERS>
APRD00629

>  <COMMON_NAME>
Benzonatate

>  <CAS_NUMBER>
104-31-4

>  <UNII>
5P4DHS6ENR

>  <SYNONYMS>
2-[2-[2-[2-[2-[2-[2-[2-(2-methoxyethoxy)ethoxy]ethoxy]ethoxy]ethoxy]ethoxy]ethoxy]ethoxy]ethyl 4-butylaminobenzoate; 2,5,8,11,14,17,20,23,26-nonaoxaoctacosan-28-yl p-(butylamino)benzoate; 3,6,9,12,15,18,21,24,27-nonaoxaoctacosyl 4-butylaminobenzoate; 4-(butylamino)benzoic acid 3,6,9,12,15,18,21,24,27-nonaoxaoctacos-1-yl ester; Benzonatat; Benzonatate; Benzonatato; Benzonatatum; Benzononatine; nonaethyleneglycol monomethyl ether p-n-butylaminobenzoate; p-butylaminobenzoic acid Ï‰-O-methylnonaethyleneglycol ester

$$$$
