391
 OpenBabel10282417103D

 46 47  0  0  1  0  0  0  0  0999 V2000
    0.9477    0.2033    0.0466 S   0  0  0  0  0  0  0  0  0  0  0  0
    6.4886   -2.9193    0.5085 O   0  0  0  0  0  0  0  0  0  0  0  0
    6.9184    0.1864    0.0418 O   0  0  0  0  0  0  0  0  0  0  0  0
    0.5202    0.7363    1.3206 O   0  0  0  0  0  0  0  0  0  0  0  0
    0.4648    0.7007   -1.2154 O   0  0  0  0  0  0  0  0  0  0  0  0
    3.1388   -6.0401   -0.6251 N   0  0  0  0  0  0  0  0  0  0  0  0
    4.5146   -3.6444    0.4834 N   0  0  0  0  0  0  0  0  0  0  0  0
    0.4851   -1.4335    0.1151 N   0  0  0  0  0  0  0  0  0  0  0  0
    2.7409   -4.6228   -0.7825 C   0  0  3  0  0  0  0  0  0  0  0  0
    1.2734   -4.6370   -1.1786 C   0  0  0  0  0  0  0  0  0  0  0  0
    1.1767   -5.8920   -2.0283 C   0  0  0  0  0  0  0  0  0  0  0  0
    2.3342   -6.7915   -1.5943 C   0  0  0  0  0  0  0  0  0  0  0  0
    3.1004   -3.8231    0.4675 C   0  0  0  0  0  0  0  0  0  0  0  0
    2.9664   -6.5462    0.7543 C   0  0  0  0  0  0  0  0  0  0  0  0
    1.5543   -6.3788    1.3323 C   0  0  0  0  0  0  0  0  0  0  0  0
    5.3398   -2.5797    0.3438 C   0  0  0  0  0  0  0  0  0  0  0  0
    4.8037   -1.1708    0.0994 C   0  0  0  0  0  0  0  0  0  0  0  0
    3.4233   -0.9912   -0.1396 C   0  0  0  0  0  0  0  0  0  0  0  0
    5.5611    0.0031    0.1330 C   0  0  0  0  0  0  0  0  0  0  0  0
    2.7297    0.2037    0.0008 C   0  0  0  0  0  0  0  0  0  0  0  0
    4.8706    1.2493    0.1747 C   0  0  0  0  0  0  0  0  0  0  0  0
    3.4670    1.3580    0.1357 C   0  0  0  0  0  0  0  0  0  0  0  0
    7.7647   -0.9318   -0.1887 C   0  0  0  0  0  0  0  0  0  0  0  0
    5.0686   -4.4978    0.5481 H   0  0  0  0  0  0  0  0  0  0  0  0
    0.6827   -1.8354    1.0328 H   0  0  0  0  0  0  0  0  0  0  0  0
   -0.5260   -1.4820   -0.0582 H   0  0  0  0  0  0  0  0  0  0  0  0
    3.2860   -4.2039   -1.6483 H   0  0  0  0  0  0  0  0  0  0  0  0
    0.5919   -4.7005   -0.3300 H   0  0  0  0  0  0  0  0  0  0  0  0
    0.9704   -3.7396   -1.7273 H   0  0  0  0  0  0  0  0  0  0  0  0
    0.2116   -6.3884   -1.8932 H   0  0  0  0  0  0  0  0  0  0  0  0
    1.2850   -5.6254   -3.0850 H   0  0  0  0  0  0  0  0  0  0  0  0
    1.9767   -7.7372   -1.1739 H   0  0  0  0  0  0  0  0  0  0  0  0
    2.9490   -7.0542   -2.4632 H   0  0  0  0  0  0  0  0  0  0  0  0
    2.8962   -4.2745    1.4318 H   0  0  0  0  0  0  0  0  0  0  0  0
    2.5020   -2.9453    0.6009 H   0  0  0  0  0  0  0  0  0  0  0  0
    3.2763   -7.5919    0.8025 H   0  0  0  0  0  0  0  0  0  0  0  0
    3.6923   -6.0561    1.4188 H   0  0  0  0  0  0  0  0  0  0  0  0
    0.8172   -6.8873    0.7077 H   0  0  0  0  0  0  0  0  0  0  0  0
    1.4972   -6.7605    2.3496 H   0  0  0  0  0  0  0  0  0  0  0  0
    1.2352   -5.3349    1.4181 H   0  0  0  0  0  0  0  0  0  0  0  0
    2.8415   -1.7731   -0.5922 H   0  0  0  0  0  0  0  0  0  0  0  0
    5.4559    2.1659    0.2381 H   0  0  0  0  0  0  0  0  0  0  0  0
    2.9808    2.3302    0.1310 H   0  0  0  0  0  0  0  0  0  0  0  0
    7.9181   -1.4393    0.7673 H   0  0  0  0  0  0  0  0  0  0  0  0
    7.3992   -1.5699   -1.0057 H   0  0  0  0  0  0  0  0  0  0  0  0
    8.7635   -0.6114   -0.4905 H   0  0  0  0  0  0  0  0  0  0  0  0
  1  4  2  0  0  0  0
  1  5  2  0  0  0  0
  1  8  1  0  0  0  0
  1 20  1  0  0  0  0
  2 16  2  0  0  0  0
  3 19  1  0  0  0  0
  3 23  1  0  0  0  0
  6  9  1  0  0  0  0
  6 12  1  0  0  0  0
  6 14  1  0  0  0  0
  7 13  1  0  0  0  0
  7 16  1  0  0  0  0
  7 24  1  0  0  0  0
  8 25  1  0  0  0  0
  8 26  1  0  0  0  0
  9 10  1  0  0  0  0
  9 13  1  0  0  0  0
  9 27  1  0  0  0  0
 10 11  1  0  0  0  0
 10 28  1  0  0  0  0
 10 29  1  0  0  0  0
 11 12  1  0  0  0  0
 11 30  1  0  0  0  0
 11 31  1  0  0  0  0
 12 32  1  0  0  0  0
 12 33  1  0  0  0  0
 13 34  1  0  0  0  0
 13 35  1  0  0  0  0
 14 15  1  0  0  0  0
 14 36  1  0  0  0  0
 14 37  1  0  0  0  0
 15 38  1  0  0  0  0
 15 39  1  0  0  0  0
 15 40  1  0  0  0  0
 16 17  1  0  0  0  0
 17 18  1  0  0  0  0
 17 19  2  0  0  0  0
 18 20  2  0  0  0  0
 18 41  1  0  0  0  0
 19 21  1  0  0  0  0
 20 22  1  0  0  0  0
 21 22  2  0  0  0  0
 21 42  1  0  0  0  0
 22 43  1  0  0  0  0
 23 44  1  0  0  0  0
 23 45  1  0  0  0  0
 23 46  1  0  0  0  0
M  END
>  <DRUGBANK_ID>
DB00391

>  <SECONDARY_ACCESSION_NUMBERS>
APRD00032

>  <COMMON_NAME>
Sulpiride

>  <CAS_NUMBER>
15676-16-1

>  <UNII>
7MNE9M8287

>  <SYNONYMS>
(Â±)-sulpiride; 5-(Aminosulfonyl)-N-((1-ethyl-2-pyrrolidinyl)methyl)-2-methoxybenzamide; N-((1-Ethyl-2-pyrrolidinyl)methyl)-2-methoxy-5-sulfamoylbenzamide; N-((1-Ethyl-2-pyrrolidinyl)methyl)-5-sulfamoyl-o-anisamide; Sulpirid; Sulpirida; Sulpiride; Sulpiridum; Sulpyrid

$$$$
