
 OpenBabel10282417153D

 62 67  0  0  0  0  0  0  0  0999 V2000
    2.5609   -1.2329   -2.9189 C   0  0  0  0  0  0  0  0  0  0  0  0
    0.3435    2.0375   -3.7297 C   0  0  2  0  0  0  0  0  0  0  0  0
    3.3475   -2.2040   -2.0701 C   0  0  0  0  0  0  0  0  0  0  0  0
    2.7515    0.5313   -2.9311 C   0  0  2  0  0  0  0  0  0  0  0  0
    1.4328   -1.0739   -4.1155 C   0  0  2  0  0  0  0  0  0  0  0  0
    1.5273    1.7260   -2.8131 C   0  0  2  0  0  0  0  0  0  0  0  0
    3.8172   -1.4147   -0.9304 C   0  0  0  0  0  0  0  0  0  0  0  0
    0.0537    0.1250   -3.8425 C   0  0  0  0  0  0  0  0  0  0  0  0
   -0.4322    3.4968   -2.5037 C   0  0  2  0  0  0  0  0  0  0  0  0
    1.2571   -2.2828   -5.0580 C   0  0  0  0  0  0  0  0  0  0  0  0
    3.5708   -1.9862    0.2539 C   0  0  0  0  0  0  0  0  0  0  0  0
   -0.0525    5.1424   -1.4427 C   0  0  0  0  0  0  0  0  0  0  0  0
    3.6397    1.0582   -1.8428 C   0  0  0  0  0  0  0  0  0  0  0  0
    1.2643   -4.6389   -5.3260 C   0  0  0  0  0  0  0  0  0  0  0  0
    3.8631   -3.9444   -1.4129 C   0  0  0  0  0  0  0  0  0  0  0  0
    0.9384   -3.5401   -4.5516 C   0  0  0  0  0  0  0  0  0  0  0  0
    0.6249    1.4657   -1.5246 C   0  0  0  0  0  0  0  0  0  0  0  0
    0.1075    6.2973   -0.8590 C   0  0  0  0  0  0  0  0  0  0  0  0
    1.8300   -4.5333   -6.5809 C   0  0  0  0  0  0  0  0  0  0  0  0
    3.8240    0.0666   -0.7562 C   0  0  0  0  0  0  0  0  0  0  0  0
    1.1718   -5.9332   -4.9136 O   0  0  0  0  0  0  0  0  0  0  0  0
    2.7668   -3.2292    0.1921 C   0  0  0  0  0  0  0  0  0  0  0  0
    2.1781   -5.7427   -7.0979 O   0  0  0  0  0  0  0  0  0  0  0  0
   -0.7090    2.1916   -1.7083 C   0  0  0  0  0  0  0  0  0  0  0  0
    1.6525   -6.6218   -6.0832 C   0  0  0  0  0  0  0  0  0  0  0  0
    1.7137   -2.1830   -6.4213 C   0  0  0  0  0  0  0  0  0  0  0  0
    2.0377   -3.3153   -7.1790 C   0  0  0  0  0  0  0  0  0  0  0  0
    1.5285   -3.3175   -0.1845 O   0  0  0  0  0  0  0  0  0  0  0  0
    3.5927   -4.3505    0.2273 C   0  0  0  0  0  0  0  0  0  0  0  0
   -1.8449    3.8539   -2.4931 O   0  0  0  0  0  0  0  0  0  0  0  0
    0.5355    1.9898   -5.4050 C   0  0  0  0  0  0  0  0  0  0  0  0
    0.2940    7.6436   -0.1786 C   0  0  0  0  0  0  0  0  0  0  0  0
    2.0450    2.6947   -2.8935 H   0  0  0  0  0  0  0  0  0  0  0  0
    3.2660    0.7231   -3.8987 H   0  0  0  0  0  0  0  0  0  0  0  0
    2.0585   -0.5110   -4.8213 H   0  0  0  0  0  0  0  0  0  0  0  0
   -0.6423   -0.0698   -4.6803 H   0  0  0  0  0  0  0  0  0  0  0  0
   -0.4895   -0.2971   -2.9933 H   0  0  0  0  0  0  0  0  0  0  0  0
    4.2645   -1.7575    1.0581 H   0  0  0  0  0  0  0  0  0  0  0  0
    4.4964    1.6791   -2.1290 H   0  0  0  0  0  0  0  0  0  0  0  0
    3.0708    1.8586   -1.3498 H   0  0  0  0  0  0  0  0  0  0  0  0
    4.9463   -4.0993   -1.2069 H   0  0  0  0  0  0  0  0  0  0  0  0
    3.8998   -4.7818   -2.1554 H   0  0  0  0  0  0  0  0  0  0  0  0
    0.5665   -3.6611   -3.5423 H   0  0  0  0  0  0  0  0  0  0  0  0
    0.9327    1.5508   -0.4904 H   0  0  0  0  0  0  0  0  0  0  0  0
    0.5167    0.3849   -1.5782 H   0  0  0  0  0  0  0  0  0  0  0  0
    4.6728    0.3768   -0.1580 H   0  0  0  0  0  0  0  0  0  0  0  0
    2.9113    0.2463   -0.1594 H   0  0  0  0  0  0  0  0  0  0  0  0
   -1.6234    2.1463   -1.1015 H   0  0  0  0  0  0  0  0  0  0  0  0
   -1.2151    1.5073   -2.4242 H   0  0  0  0  0  0  0  0  0  0  0  0
    2.4327   -7.3285   -5.7786 H   0  0  0  0  0  0  0  0  0  0  0  0
    0.8157   -7.1794   -6.5166 H   0  0  0  0  0  0  0  0  0  0  0  0
    1.9235   -1.2098   -6.8675 H   0  0  0  0  0  0  0  0  0  0  0  0
    2.4981   -3.2361   -8.1602 H   0  0  0  0  0  0  0  0  0  0  0  0
    3.6130   -5.4121    0.5332 H   0  0  0  0  0  0  0  0  0  0  0  0
    3.5447   -4.0448    1.3192 H   0  0  0  0  0  0  0  0  0  0  0  0
   -1.9382    4.1643   -1.5395 H   0  0  0  0  0  0  0  0  0  0  0  0
   -0.3848    2.0960   -6.0145 H   0  0  0  0  0  0  0  0  0  0  0  0
    1.3968    2.4867   -5.8575 H   0  0  0  0  0  0  0  0  0  0  0  0
    0.7825    0.9450   -5.7463 H   0  0  0  0  0  0  0  0  0  0  0  0
   -0.6700    8.1517   -0.0872 H   0  0  0  0  0  0  0  0  0  0  0  0
    0.7177    7.5013    0.8194 H   0  0  0  0  0  0  0  0  0  0  0  0
    0.9714    8.2682   -0.7674 H   0  0  0  0  0  0  0  0  0  0  0  0
  2  6  1  0  0  0  0
  2  8  1  0  0  0  0
  2 31  1  1  0  0  0
  3  1  2  0  0  0  0
  4  1  1  0  0  0  0
  4 34  1  1  0  0  0
  5  1  1  0  0  0  0
  5 10  1  0  0  0  0
  5 35  1  6  0  0  0
  6  4  1  0  0  0  0
  6 33  1  1  0  0  0
  7  3  1  0  0  0  0
  8  5  1  0  0  0  0
  8 36  1  0  0  0  0
  8 37  1  0  0  0  0
  9  2  1  0  0  0  0
  9 24  1  0  0  0  0
  9 30  1  0  0  0  0
  9 12  1  1  0  0  0
 11  7  2  0  0  0  0
 11 38  1  0  0  0  0
 13  4  1  0  0  0  0
 13 39  1  0  0  0  0
 13 40  1  0  0  0  0
 14 16  2  0  0  0  0
 15  3  1  0  0  0  0
 15 41  1  0  0  0  0
 15 42  1  0  0  0  0
 16 10  1  0  0  0  0
 16 43  1  0  0  0  0
 17  6  1  0  0  0  0
 17 44  1  0  0  0  0
 17 45  1  0  0  0  0
 18 12  3  0  0  0  0
 19 27  2  0  0  0  0
 19 14  1  0  0  0  0
 20 13  1  0  0  0  0
 20  7  1  0  0  0  0
 20 46  1  0  0  0  0
 20 47  1  0  0  0  0
 21 14  1  0  0  0  0
 22 29  1  0  0  0  0
 22 11  1  0  0  0  0
 23 19  1  0  0  0  0
 24 17  1  0  0  0  0
 24 48  1  0  0  0  0
 24 49  1  0  0  0  0
 25 21  1  0  0  0  0
 25 23  1  0  0  0  0
 25 50  1  0  0  0  0
 25 51  1  0  0  0  0
 26 10  2  0  0  0  0
 26 52  1  0  0  0  0
 27 26  1  0  0  0  0
 27 53  1  0  0  0  0
 28 22  2  0  0  0  0
 29 15  1  0  0  0  0
 29 54  1  0  0  0  0
 29 55  1  0  0  0  0
 30 56  1  0  0  0  0
 31 57  1  0  0  0  0
 31 58  1  0  0  0  0
 31 59  1  0  0  0  0
 32 18  1  0  0  0  0
 32 60  1  0  0  0  0
 32 61  1  0  0  0  0
 32 62  1  0  0  0  0
M  END
>  <DRUGBANK_ID>
DB05423

>  <COMMON_NAME>
ORG-34517

>  <CAS_NUMBER>
189035-07-2

>  <UNII>
17VAN37K4Y

$$$$
