COR
 OpenBabel10282417163D

 42 43  0  0  0  0  0  0  0  0999 V2000
    1.1574    0.8047    2.3106 C   0  0  0  0  0  0  0  0  0  0  0  0
    0.5404   -0.2894    1.4180 C   0  0  2  0  0  0  0  0  0  0  0  0
    0.9208   -0.2376   -0.0274 N   0  0  0  0  0  0  0  0  0  0  0  0
   -0.9964   -0.2582    1.4821 C   0  0  3  0  0  0  0  0  0  0  0  0
   -1.4229   -1.2686    0.5525 O   0  0  0  0  0  0  0  0  0  0  0  0
   -1.5803   -0.4985    2.9149 C   0  0  1  0  0  0  0  0  0  0  0  0
   -1.2499    0.5216    3.9371 N   0  0  0  0  0  0  0  0  0  0  0  0
   -3.1244   -0.5860    2.8734 C   0  0  0  0  0  0  0  0  0  0  0  0
    2.4219    1.3572    1.7436 C   0  0  0  0  0  0  0  0  0  0  0  0
    3.6131    0.6666    1.9442 C   0  0  0  0  0  0  0  0  0  0  0  0
    4.7336    1.0354    1.2110 C   0  0  0  0  0  0  0  0  0  0  0  0
    4.6330    2.0658    0.2751 C   0  0  0  0  0  0  0  0  0  0  0  0
    3.4389    2.7534    0.0804 C   0  0  0  0  0  0  0  0  0  0  0  0
    2.3336    2.4336    0.8559 C   0  0  0  0  0  0  0  0  0  0  0  0
   -3.6375   -1.7456    2.0608 C   0  0  0  0  0  0  0  0  0  0  0  0
   -3.1071   -3.0276    2.2720 C   0  0  0  0  0  0  0  0  0  0  0  0
   -3.4385   -4.0787    1.4279 C   0  0  0  0  0  0  0  0  0  0  0  0
   -4.3638   -3.8771    0.4088 C   0  0  0  0  0  0  0  0  0  0  0  0
   -4.9360   -2.6189    0.2178 C   0  0  0  0  0  0  0  0  0  0  0  0
   -4.5514   -1.5444    1.0192 C   0  0  0  0  0  0  0  0  0  0  0  0
    0.8869   -1.2718    1.7676 H   0  0  0  0  0  0  0  0  0  0  0  0
   -1.1637   -1.4417    3.2855 H   0  0  0  0  0  0  0  0  0  0  0  0
    1.3970    0.3824    3.2935 H   0  0  0  0  0  0  0  0  0  0  0  0
    0.4633    1.6405    2.4562 H   0  0  0  0  0  0  0  0  0  0  0  0
    1.9198   -0.4545   -0.0906 H   0  0  0  0  0  0  0  0  0  0  0  0
    0.8702    0.7362   -0.3335 H   0  0  0  0  0  0  0  0  0  0  0  0
   -1.3787    0.6914    1.0882 H   0  0  0  0  0  0  0  0  0  0  0  0
   -0.8966   -1.1128   -0.2584 H   0  0  0  0  0  0  0  0  0  0  0  0
   -1.7054    0.2699    4.8155 H   0  0  0  0  0  0  0  0  0  0  0  0
   -0.2643    0.4814    4.1760 H   0  0  0  0  0  0  0  0  0  0  0  0
   -3.5165   -0.7082    3.8913 H   0  0  0  0  0  0  0  0  0  0  0  0
   -3.5260    0.3656    2.4976 H   0  0  0  0  0  0  0  0  0  0  0  0
    3.6543   -0.1857    2.6179 H   0  0  0  0  0  0  0  0  0  0  0  0
    5.6592    0.4899    1.3434 H   0  0  0  0  0  0  0  0  0  0  0  0
    5.5021    2.3282   -0.3239 H   0  0  0  0  0  0  0  0  0  0  0  0
    3.3446    3.5087   -0.6919 H   0  0  0  0  0  0  0  0  0  0  0  0
    1.3887    2.9481    0.7024 H   0  0  0  0  0  0  0  0  0  0  0  0
   -2.3583   -3.1959    3.0403 H   0  0  0  0  0  0  0  0  0  0  0  0
   -2.9501   -5.0391    1.5552 H   0  0  0  0  0  0  0  0  0  0  0  0
   -4.6208   -4.6991   -0.2509 H   0  0  0  0  0  0  0  0  0  0  0  0
   -5.6592   -2.4682   -0.5781 H   0  0  0  0  0  0  0  0  0  0  0  0
   -4.9212   -0.5476    0.7903 H   0  0  0  0  0  0  0  0  0  0  0  0
  1  9  1  0  0  0  0
  1 23  1  0  0  0  0
  1 24  1  0  0  0  0
  2  4  1  0  0  0  0
  2 21  1  1  0  0  0
  2  3  1  0  0  0  0
  2  1  1  0  0  0  0
  3 25  1  0  0  0  0
  3 26  1  0  0  0  0
  4  5  1  0  0  0  0
  4  6  1  0  0  0  0
  4 27  1  0  0  0  0
  5 28  1  0  0  0  0
  6  7  1  0  0  0  0
  6  8  1  0  0  0  0
  6 22  1  1  0  0  0
  7 29  1  0  0  0  0
  7 30  1  0  0  0  0
  8 15  1  0  0  0  0
  8 31  1  0  0  0  0
  8 32  1  0  0  0  0
  9 10  2  0  0  0  0
  9 14  1  0  0  0  0
 10 11  1  0  0  0  0
 10 33  1  0  0  0  0
 11 12  2  0  0  0  0
 11 34  1  0  0  0  0
 12 13  1  0  0  0  0
 12 35  1  0  0  0  0
 13 14  2  0  0  0  0
 13 36  1  0  0  0  0
 14 37  1  0  0  0  0
 15 16  2  0  0  0  0
 15 20  1  0  0  0  0
 16 17  1  0  0  0  0
 16 38  1  0  0  0  0
 17 18  2  0  0  0  0
 17 39  1  0  0  0  0
 18 19  1  0  0  0  0
 18 40  1  0  0  0  0
 19 20  2  0  0  0  0
 19 41  1  0  0  0  0
 20 42  1  0  0  0  0
M  END
>  <DRUGBANK_ID>
DB07575

>  <COMMON_NAME>
2,4-DIAMINO-1,5-DIPHENYL-3-HYDROXYPENTANE

$$$$
