
 OpenBabel10282417183D

 32 32  0  0  0  0  0  0  0  0999 V2000
    0.9878   -0.1359    0.0666 C   0  0  0  0  0  0  0  0  0  0  0  0
    1.3282    2.1022   -0.8878 C   0  0  0  0  0  0  0  0  0  0  0  0
   -1.1906    3.8389   -0.5809 C   0  0  0  0  0  0  0  0  0  0  0  0
   -4.2799    2.1942    2.7266 C   0  0  0  0  0  0  0  0  0  0  0  0
   -3.1496    0.3715    1.6265 C   0  0  0  0  0  0  0  0  0  0  0  0
   -4.7521    1.3007    3.6933 C   0  0  0  0  0  0  0  0  0  0  0  0
   -3.5086   -0.4900    2.6518 C   0  0  0  0  0  0  0  0  0  0  0  0
   -3.0097    2.6487    0.5780 C   0  0  0  0  0  0  0  0  0  0  0  0
    0.6056    1.3435    0.2189 C   0  0  0  0  0  0  0  0  0  0  0  0
   -1.4605    2.7653    0.4739 C   0  0  3  0  0  0  0  0  0  0  0  0
   -3.4937    1.7313    1.6715 C   0  0  0  0  0  0  0  0  0  0  0  0
   -4.3520   -0.0403    3.6514 C   0  0  0  0  0  0  0  0  0  0  0  0
   -5.0705   -1.3983    5.0434 I   0  0  0  0  0  0  0  0  0  0  0  0
   -0.8460    1.4704    0.1294 N   0  0  0  0  0  0  0  0  0  0  0  0
    0.6405   -0.5402   -0.8920 H   0  0  0  0  0  0  0  0  0  0  0  0
    0.5788   -0.7560    0.8702 H   0  0  0  0  0  0  0  0  0  0  0  0
    2.0793   -0.2455    0.0885 H   0  0  0  0  0  0  0  0  0  0  0  0
    0.8469    1.9253   -1.8569 H   0  0  0  0  0  0  0  0  0  0  0  0
    1.3585    3.1708   -0.6922 H   0  0  0  0  0  0  0  0  0  0  0  0
    2.3749    1.7995   -0.9647 H   0  0  0  0  0  0  0  0  0  0  0  0
   -1.3602    3.4444   -1.5894 H   0  0  0  0  0  0  0  0  0  0  0  0
   -1.8360    4.7108   -0.4442 H   0  0  0  0  0  0  0  0  0  0  0  0
   -0.1800    4.2326   -0.5127 H   0  0  0  0  0  0  0  0  0  0  0  0
   -4.5454    3.2491    2.8041 H   0  0  0  0  0  0  0  0  0  0  0  0
   -2.5755   -0.0270    0.8000 H   0  0  0  0  0  0  0  0  0  0  0  0
   -5.4224    1.6563    4.4664 H   0  0  0  0  0  0  0  0  0  0  0  0
   -3.1238   -1.5072    2.6274 H   0  0  0  0  0  0  0  0  0  0  0  0
   -3.4289    3.6519    0.7461 H   0  0  0  0  0  0  0  0  0  0  0  0
   -3.4314    2.3117   -0.3793 H   0  0  0  0  0  0  0  0  0  0  0  0
    0.9503    1.6790    1.2044 H   0  0  0  0  0  0  0  0  0  0  0  0
   -1.0830    3.0958    1.4503 H   0  0  0  0  0  0  0  0  0  0  0  0
   -1.2077    1.1058   -0.7486 H   0  0  0  0  0  0  0  0  0  0  0  0
  1 15  1  0  0  0  0
  1 16  1  0  0  0  0
  1 17  1  0  0  0  0
  2 18  1  0  0  0  0
  2 19  1  0  0  0  0
  2 20  1  0  0  0  0
  3 21  1  0  0  0  0
  3 22  1  0  0  0  0
  3 23  1  0  0  0  0
  4 24  1  0  0  0  0
  5 25  1  0  0  0  0
  6  4  1  0  0  0  0
  6 26  1  0  0  0  0
  7  5  2  0  0  0  0
  7 27  1  0  0  0  0
  8 28  1  0  0  0  0
  8 29  1  0  0  0  0
  9  1  1  0  0  0  0
  9  2  1  0  0  0  0
  9 30  1  0  0  0  0
 10  3  1  0  0  0  0
 10  8  1  0  0  0  0
 10 31  1  0  0  0  0
 11  4  2  0  0  0  0
 11  5  1  0  0  0  0
 11  8  1  0  0  0  0
 12  6  2  0  0  0  0
 12  7  1  0  0  0  0
 13 12  1  0  0  0  0
 14  9  1  0  0  0  0
 14 10  1  0  0  0  0
 14 32  1  0  0  0  0
M  ISO  1  13 123
M  END
>  <DRUGBANK_ID>
DB09480

>  <COMMON_NAME>
Iofetamine I-123

>  <CAS_NUMBER>
75917-92-9

>  <UNII>
LV23B78IJC

>  <SYNONYMS>
Iodine iofetamine (123I); Iofetamine (123 I); Iofetamine (123I); Iofetamine I 123; Iofetamine, I-123

$$$$
