
 OpenBabel10282417203D

 37 39  0  0  0  0  0  0  0  0999 V2000
    0.9981   -0.0059   -0.1400 C   0  0  0  0  0  0  0  0  0  0  0  0
    4.6593    5.6304    4.0633 C   0  0  0  0  0  0  0  0  0  0  0  0
    4.9235    4.6740    2.8981 C   0  0  0  0  0  0  0  0  0  0  0  0
    3.3164    6.3364    3.9027 C   0  0  0  0  0  0  0  0  0  0  0  0
    3.7298    3.8309    2.5535 C   0  0  0  0  0  0  0  0  0  0  0  0
    2.1665    5.3300    3.8273 C   0  0  0  0  0  0  0  0  0  0  0  0
    1.6272   -0.7972    3.9856 C   0  0  0  0  0  0  0  0  0  0  0  0
    1.1473   -0.5434    2.7006 C   0  0  0  0  0  0  0  0  0  0  0  0
    1.8994    1.5703    4.3311 C   0  0  0  0  0  0  0  0  0  0  0  0
   -0.7450    2.9737    1.5185 C   0  0  0  0  0  0  0  0  0  0  0  0
    2.4932    4.1236    2.9922 C   0  0  0  0  0  0  0  0  0  0  0  0
    2.0099    0.2623    4.7930 C   0  0  0  0  0  0  0  0  0  0  0  0
    1.3955    1.8344    3.0413 C   0  0  0  0  0  0  0  0  0  0  0  0
    1.0182    0.7690    2.2042 C   0  0  0  0  0  0  0  0  0  0  0  0
   -0.3131    1.9668    0.4665 C   0  0  0  0  0  0  0  0  0  0  0  0
    1.3452    3.2543    2.5918 C   0  0  0  0  0  0  0  0  0  0  0  0
    2.6206   -0.0455    6.3697 Cl  0  0  0  0  0  0  0  0  0  0  0  0
    0.3926    3.7977    1.9135 N   0  0  0  0  0  0  0  0  0  0  0  0
    0.5377    0.9393    0.8719 N   0  0  0  0  0  0  0  0  0  0  0  0
   -0.7668    2.0318   -0.6819 O   0  0  0  0  0  0  0  0  0  0  0  0
    0.6872    0.2858   -1.1460 H   0  0  0  0  0  0  0  0  0  0  0  0
    0.5996   -1.0041    0.0545 H   0  0  0  0  0  0  0  0  0  0  0  0
    2.0938   -0.0266   -0.1219 H   0  0  0  0  0  0  0  0  0  0  0  0
    5.4663    6.3683    4.1281 H   0  0  0  0  0  0  0  0  0  0  0  0
    4.6622    5.0684    5.0064 H   0  0  0  0  0  0  0  0  0  0  0  0
    5.2107    5.2463    2.0077 H   0  0  0  0  0  0  0  0  0  0  0  0
    5.7692    4.0254    3.1519 H   0  0  0  0  0  0  0  0  0  0  0  0
    3.1486    7.0199    4.7427 H   0  0  0  0  0  0  0  0  0  0  0  0
    3.3315    6.9475    2.9914 H   0  0  0  0  0  0  0  0  0  0  0  0
    3.9049    2.9751    1.9060 H   0  0  0  0  0  0  0  0  0  0  0  0
    1.9294    4.9848    4.8414 H   0  0  0  0  0  0  0  0  0  0  0  0
    1.2756    5.8421    3.4469 H   0  0  0  0  0  0  0  0  0  0  0  0
    1.6900   -1.8222    4.3425 H   0  0  0  0  0  0  0  0  0  0  0  0
    0.8285   -1.3999    2.1123 H   0  0  0  0  0  0  0  0  0  0  0  0
    2.2120    2.3830    4.9821 H   0  0  0  0  0  0  0  0  0  0  0  0
   -1.2373    2.4866    2.3668 H   0  0  0  0  0  0  0  0  0  0  0  0
   -1.4932    3.6305    1.0588 H   0  0  0  0  0  0  0  0  0  0  0  0
  1 21  1  0  0  0  0
  1 22  1  0  0  0  0
  1 23  1  0  0  0  0
  2 24  1  0  0  0  0
  2 25  1  0  0  0  0
  3  2  1  0  0  0  0
  3 26  1  0  0  0  0
  3 27  1  0  0  0  0
  4  2  1  0  0  0  0
  4 28  1  0  0  0  0
  4 29  1  0  0  0  0
  5  3  1  0  0  0  0
  5 30  1  0  0  0  0
  6  4  1  0  0  0  0
  6 31  1  0  0  0  0
  6 32  1  0  0  0  0
  7 33  1  0  0  0  0
  8  7  2  0  0  0  0
  8 34  1  0  0  0  0
  9 35  1  0  0  0  0
 10 36  1  0  0  0  0
 10 37  1  0  0  0  0
 11  5  2  0  0  0  0
 11  6  1  0  0  0  0
 12  7  1  0  0  0  0
 12  9  2  0  0  0  0
 13  9  1  0  0  0  0
 14  8  1  0  0  0  0
 14 13  2  0  0  0  0
 15 10  1  0  0  0  0
 16 11  1  0  0  0  0
 16 13  1  0  0  0  0
 17 12  1  0  0  0  0
 18 10  1  0  0  0  0
 18 16  2  0  0  0  0
 19  1  1  0  0  0  0
 19 14  1  0  0  0  0
 19 15  1  0  0  0  0
 20 15  2  0  0  0  0
M  END
>  <DRUGBANK_ID>
DB13324

>  <COMMON_NAME>
Tetrazepam

>  <CAS_NUMBER>
10379-14-3

>  <UNII>
FO92091VP8

>  <SYNONYMS>
Tetrazepam

$$$$
