
 OpenBabel10282417213D

 65 69  0  0  0  0  0  0  0  0999 V2000
    0.3779    1.1189    0.0034 N   0  0  0  0  0  0  0  0  0  0  0  0
   -0.9689    1.2153    0.0010 C   0  0  0  0  0  0  0  0  0  0  0  0
    0.9376   -0.1284    0.0099 C   0  0  0  0  0  0  0  0  0  0  0  0
    0.1661   -1.3030    0.0234 C   0  0  0  0  0  0  0  0  0  0  0  0
    2.4387   -0.1035   -0.0022 C   0  0  0  0  0  0  0  0  0  0  0  0
    0.7406   -2.6044    0.0567 N   0  0  0  0  0  0  0  0  0  0  0  0
   -1.2229   -1.1345    0.0026 C   0  0  0  0  0  0  0  0  0  0  0  0
   -1.8036    0.1246   -0.0069 C   0  0  0  0  0  0  0  0  0  0  0  0
    0.0326   -3.7894    0.0462 C   0  0  0  0  0  0  0  0  0  0  0  0
    0.8166   -5.0304    0.0134 C   0  0  0  0  0  0  0  0  0  0  0  0
    0.3628   -6.0473   -0.8221 C   0  0  0  0  0  0  0  0  0  0  0  0
    0.9987   -7.2784   -0.8115 C   0  0  0  0  0  0  0  0  0  0  0  0
    2.0828   -7.5383    0.0571 C   0  0  0  0  0  0  0  0  0  0  0  0
    2.5589   -8.9878    0.2350 C   0  0  2  0  0  0  0  0  0  0  0  0
    1.3867   -9.8512    0.8162 C   0  0  0  0  0  0  0  0  0  0  0  0
    1.0283   -9.5701    2.2436 C   0  0  0  0  0  0  0  0  0  0  0  0
    0.4324   -8.3537    2.5376 C   0  0  0  0  0  0  0  0  0  0  0  0
    0.3625   -7.9206    3.8468 C   0  0  0  0  0  0  0  0  0  0  0  0
    0.7023   -8.7851    4.8829 C   0  0  0  0  0  0  0  0  0  0  0  0
    1.1753  -10.0590    4.6100 C   0  0  0  0  0  0  0  0  0  0  0  0
    1.4121  -10.4143    3.2968 C   0  0  0  0  0  0  0  0  0  0  0  0
    2.8020   -9.6079   -1.1602 C   0  0  0  0  0  0  0  0  0  0  0  0
    3.3068  -11.0477   -1.1399 C   0  0  0  0  0  0  0  0  0  0  0  0
    4.2366  -11.4599    0.0191 C   0  0  1  0  0  0  0  0  0  0  0  0
    4.7839  -10.2539    0.7974 C   0  0  0  0  0  0  0  0  0  0  0  0
    3.7737   -9.1774    1.2072 C   0  0  1  0  0  0  0  0  0  0  0  0
    4.4929   -7.9144    1.6893 C   0  0  0  0  0  0  0  0  0  0  0  0
    3.5910   -6.7203    1.9368 C   0  0  0  0  0  0  0  0  0  0  0  0
    2.5465   -6.4966    0.8838 C   0  0  0  0  0  0  0  0  0  0  0  0
    1.8948   -5.2483    0.8703 C   0  0  0  0  0  0  0  0  0  0  0  0
   -1.1954   -3.9368    0.0261 O   0  0  0  0  0  0  0  0  0  0  0  0
    3.3958   -9.5664    2.1492 H   0  0  0  0  0  0  0  0  0  0  0  0
    3.6491  -12.6071    0.9176 C   0  0  0  0  0  0  0  0  0  0  0  0
    5.3934  -12.0334   -0.6556 O   0  0  0  0  0  0  0  0  0  0  0  0
    3.3517  -13.6772    0.1357 F   0  0  0  0  0  0  0  0  0  0  0  0
    4.5385  -13.0164    1.8487 F   0  0  0  0  0  0  0  0  0  0  0  0
    2.5226  -12.3404    1.5803 F   0  0  0  0  0  0  0  0  0  0  0  0
   -1.3759    2.2215    0.0052 H   0  0  0  0  0  0  0  0  0  0  0  0
    2.7916    0.4285   -0.8929 H   0  0  0  0  0  0  0  0  0  0  0  0
    2.8062    0.4253    0.8839 H   0  0  0  0  0  0  0  0  0  0  0  0
    2.8974   -1.0923   -0.0104 H   0  0  0  0  0  0  0  0  0  0  0  0
    1.7503   -2.6752    0.0384 H   0  0  0  0  0  0  0  0  0  0  0  0
   -1.9103   -1.9700   -0.0066 H   0  0  0  0  0  0  0  0  0  0  0  0
   -2.8823    0.2247   -0.0160 H   0  0  0  0  0  0  0  0  0  0  0  0
   -0.5277   -5.9084   -1.4335 H   0  0  0  0  0  0  0  0  0  0  0  0
    0.5571   -8.0632   -1.4208 H   0  0  0  0  0  0  0  0  0  0  0  0
    0.4968   -9.8641    0.1797 H   0  0  0  0  0  0  0  0  0  0  0  0
    1.7156  -10.8694    0.7626 H   0  0  0  0  0  0  0  0  0  0  0  0
    0.1138   -7.6942    1.7390 H   0  0  0  0  0  0  0  0  0  0  0  0
    0.0494   -6.9018    4.0392 H   0  0  0  0  0  0  0  0  0  0  0  0
    0.6041   -8.4610    5.9097 H   0  0  0  0  0  0  0  0  0  0  0  0
    1.4114  -10.7663    5.3983 H   0  0  0  0  0  0  0  0  0  0  0  0
    1.9758  -11.3256    3.1536 H   0  0  0  0  0  0  0  0  0  0  0  0
    3.4348   -8.9700   -1.7895 H   0  0  0  0  0  0  0  0  0  0  0  0
    1.8454   -9.6646   -1.7035 H   0  0  0  0  0  0  0  0  0  0  0  0
    3.7966  -11.2046   -2.1084 H   0  0  0  0  0  0  0  0  0  0  0  0
    2.4354  -11.7148   -1.1570 H   0  0  0  0  0  0  0  0  0  0  0  0
    5.2739  -10.6143    1.7139 H   0  0  0  0  0  0  0  0  0  0  0  0
    5.5909   -9.7845    0.2200 H   0  0  0  0  0  0  0  0  0  0  0  0
    4.9761   -8.1508    2.6504 H   0  0  0  0  0  0  0  0  0  0  0  0
    5.2961   -7.6366    1.0014 H   0  0  0  0  0  0  0  0  0  0  0  0
    3.0918   -6.8235    2.9083 H   0  0  0  0  0  0  0  0  0  0  0  0
    4.2310   -5.8316    1.9982 H   0  0  0  0  0  0  0  0  0  0  0  0
    2.1690   -4.4920    1.6030 H   0  0  0  0  0  0  0  0  0  0  0  0
    5.0556  -12.8012   -1.1578 H   0  0  0  0  0  0  0  0  0  0  0  0
  1  2  2  0  0  0  0
  1  3  1  0  0  0  0
  2  8  1  0  0  0  0
  2 38  1  0  0  0  0
  3  4  2  0  0  0  0
  4  6  1  0  0  0  0
  5  3  1  0  0  0  0
  5 39  1  0  0  0  0
  5 40  1  0  0  0  0
  5 41  1  0  0  0  0
  6 42  1  0  0  0  0
  7  4  1  0  0  0  0
  7 43  1  0  0  0  0
  8  7  2  0  0  0  0
  8 44  1  0  0  0  0
  9  6  1  0  0  0  0
  9 10  1  0  0  0  0
 10 30  2  0  0  0  0
 11 10  1  0  0  0  0
 11 12  2  0  0  0  0
 11 45  1  0  0  0  0
 12 13  1  0  0  0  0
 12 46  1  0  0  0  0
 13 29  2  0  0  0  0
 14 22  1  0  0  0  0
 14 13  1  0  0  0  0
 14 15  1  6  0  0  0
 15 47  1  0  0  0  0
 15 48  1  0  0  0  0
 16 15  1  0  0  0  0
 17 16  2  0  0  0  0
 17 18  1  0  0  0  0
 17 49  1  0  0  0  0
 18 19  2  0  0  0  0
 18 50  1  0  0  0  0
 19 20  1  0  0  0  0
 19 51  1  0  0  0  0
 20 21  2  0  0  0  0
 20 52  1  0  0  0  0
 21 16  1  0  0  0  0
 21 53  1  0  0  0  0
 22 23  1  0  0  0  0
 22 54  1  0  0  0  0
 22 55  1  0  0  0  0
 23 56  1  0  0  0  0
 23 57  1  0  0  0  0
 24 25  1  0  0  0  0
 24 23  1  0  0  0  0
 24 33  1  0  0  0  0
 24 34  1  6  0  0  0
 25 58  1  0  0  0  0
 25 59  1  0  0  0  0
 26 27  1  0  0  0  0
 26 14  1  0  0  0  0
 26 25  1  0  0  0  0
 26 32  1  1  0  0  0
 27 28  1  0  0  0  0
 27 60  1  0  0  0  0
 27 61  1  0  0  0  0
 28 62  1  0  0  0  0
 28 63  1  0  0  0  0
 29 28  1  0  0  0  0
 30 29  1  0  0  0  0
 30 64  1  0  0  0  0
 31  9  2  0  0  0  0
 33 35  1  0  0  0  0
 33 36  1  0  0  0  0
 33 37  1  0  0  0  0
 34 65  1  0  0  0  0
M  END
>  <DRUGBANK_ID>
DB14676

>  <COMMON_NAME>
Fagrocorat

>  <CAS_NUMBER>
1044535-52-5

>  <UNII>
OPM23UN90U

$$$$
