
 OpenBabel10282417193D

126128  0  0  0  0  0  0  0  0999 V2000
   -2.4864   11.9579    9.4174 C   0  0  0  0  0  0  0  0  0  0  0  0
   -1.0569   11.7156    9.1312 C   0  0  0  0  0  0  0  0  0  0  0  0
   -0.2430   11.4860    7.9961 C   0  0  0  0  0  0  0  0  0  0  0  0
   -0.8170   11.2810    6.7871 C   0  0  0  0  0  0  0  0  0  0  0  0
   -2.1284   11.5693    6.7485 C   0  0  0  0  0  0  0  0  0  0  0  0
   -2.7269   11.8130    8.0450 C   0  0  0  0  0  0  0  0  0  0  0  0
   -3.0090   11.4376    5.5527 C   0  0  0  0  0  0  0  0  0  0  0  0
   -4.2268   11.8104    5.9033 C   0  0  0  0  0  0  0  0  0  0  0  0
   -3.9255   11.8685    7.6860 N   0  0  0  0  0  0  0  0  0  0  0  0
   -3.4565   13.0164   10.7541 C   0  0  0  0  0  0  0  0  0  0  0  0
   -4.2566   14.4793   10.2738 C   0  0  0  0  0  0  0  0  0  0  0  0
   -4.5127   12.1102   11.2221 C   0  0  0  0  0  0  0  0  0  0  0  0
   -2.7249   13.8372   12.2492 C   0  0  0  0  0  0  0  0  0  0  0  0
   -6.0513   12.0537    5.2195 C   0  0  0  0  0  0  0  0  0  0  0  0
   -5.8085   12.8711    3.9533 C   0  0  0  0  0  0  0  0  0  0  0  0
   -6.9289   10.9384    4.5914 C   0  0  0  0  0  0  0  0  0  0  0  0
   -7.2770   12.5726    6.2791 C   0  0  0  0  0  0  0  0  0  0  0  0
   -2.9577   10.6621    4.3334 C   0  0  0  0  0  0  0  0  0  0  0  0
   -3.8647    9.4055    4.3337 C   0  0  1  0  0  0  0  0  0  0  0  0
   -5.3624    9.2001    4.7833 C   0  0  0  0  0  0  0  0  0  0  0  0
   -6.1055    8.7941    3.8453 O   0  0  0  0  0  0  0  0  0  0  0  0
   -5.9269    9.7831    6.2020 N   0  0  0  0  0  0  0  0  0  0  0  0
   -5.4853   10.9734    7.1555 C   0  0  2  0  0  0  0  0  0  0  0  0
   -5.1784   13.1779    6.9368 C   0  0  0  0  0  0  0  0  0  0  0  0
   -4.0759    9.6180    7.2081 C   0  0  0  0  0  0  0  0  0  0  0  0
   -3.6904   13.8251    7.1006 N   0  0  0  0  0  0  0  0  0  0  0  0
   -5.5422   14.0837    6.1800 O   0  0  0  0  0  0  0  0  0  0  0  0
   -2.7346   14.7210    6.4758 C   0  0  0  0  0  0  0  0  0  0  0  0
   -2.4744   15.5555    7.7215 C   0  0  0  0  0  0  0  0  0  0  0  0
   -1.4829   15.0456    8.7658 C   0  0  0  0  0  0  0  0  0  0  0  0
    0.3709   14.7822   10.5194 C   0  0  0  0  0  0  0  0  0  0  0  0
   -0.2781   15.3290    9.2482 C   0  0  0  0  0  0  0  0  0  0  0  0
   -1.7836   14.0886    9.6017 C   0  0  0  0  0  0  0  0  0  0  0  0
   -1.1061   13.3165   10.8291 C   0  0  0  0  0  0  0  0  0  0  0  0
   -0.0042   13.7589   11.3540 C   0  0  0  0  0  0  0  0  0  0  0  0
   -2.9586    9.3663    8.1710 C   0  0  0  0  0  0  0  0  0  0  0  0
   -3.6352    9.6838    9.4156 C   0  0  0  0  0  0  0  0  0  0  0  0
   -4.2222    8.5226    9.8121 N   0  0  0  0  0  0  0  0  0  0  0  0
   -3.5547    7.8378   10.7296 C   0  0  0  0  0  0  0  0  0  0  0  0
   -3.8810    6.6135   10.8654 N   0  0  0  0  0  0  0  0  0  0  0  0
   -2.6521    8.4862   11.5026 N   0  0  0  0  0  0  0  0  0  0  0  0
   -3.6470    8.8422    3.0061 N   0  0  0  0  0  0  0  0  0  0  0  0
   -3.3534    7.5178    3.0284 C   0  0  0  0  0  0  0  0  0  0  0  0
   -2.9260    6.8594    1.7238 C   0  0  2  0  0  0  0  0  0  0  0  0
   -2.4820    5.3902    1.9165 C   0  0  0  0  0  0  0  0  0  0  0  0
   -2.4443    4.8182    3.3397 C   0  0  0  0  0  0  0  0  0  0  0  0
   -3.8134    4.3220    3.8356 C   0  0  0  0  0  0  0  0  0  0  0  0
   -4.2049    3.1122    3.1125 N   0  0  0  0  0  0  0  0  0  0  0  0
   -4.3620    1.9213    3.7343 C   0  0  0  0  0  0  0  0  0  0  0  0
   -4.6881    0.8741    2.9537 N   0  0  0  0  0  0  0  0  0  0  0  0
   -4.2019    1.8113    5.0056 N   0  0  0  0  0  0  0  0  0  0  0  0
   -3.3688    6.9596    4.1209 O   0  0  0  0  0  0  0  0  0  0  0  0
   -1.7314    7.5802    1.2000 N   0  0  0  0  0  0  0  0  0  0  0  0
    1.2287   11.3586    8.1907 C   0  0  0  0  0  0  0  0  0  0  0  0
    1.4332    9.8625    8.1221 C   0  0  0  0  0  0  0  0  0  0  0  0
    1.8732   12.1463    7.0644 C   0  0  0  0  0  0  0  0  0  0  0  0
    1.7854   11.8694    9.5328 C   0  0  0  0  0  0  0  0  0  0  0  0
   -0.2972   11.9849    9.8020 H   0  0  0  0  0  0  0  0  0  0  0  0
   -0.3581   10.8070    5.9504 H   0  0  0  0  0  0  0  0  0  0  0  0
   -4.6649   12.2309    8.3842 H   0  0  0  0  0  0  0  0  0  0  0  0
   -4.8705   14.3356    9.3856 H   0  0  0  0  0  0  0  0  0  0  0  0
   -4.7439   15.0129   11.0924 H   0  0  0  0  0  0  0  0  0  0  0  0
   -3.5619   15.3078   10.0352 H   0  0  0  0  0  0  0  0  0  0  0  0
   -3.9975   11.2007   11.5098 H   0  0  0  0  0  0  0  0  0  0  0  0
   -5.0148   12.5821   12.0589 H   0  0  0  0  0  0  0  0  0  0  0  0
   -5.1928   11.9707   10.3834 H   0  0  0  0  0  0  0  0  0  0  0  0
   -2.0013   13.1984   12.8156 H   0  0  0  0  0  0  0  0  0  0  0  0
   -2.1829   14.7636   11.8837 H   0  0  0  0  0  0  0  0  0  0  0  0
   -3.3242   14.2704   13.0348 H   0  0  0  0  0  0  0  0  0  0  0  0
   -4.9865   12.3800    3.4266 H   0  0  0  0  0  0  0  0  0  0  0  0
   -6.7244   12.8264    3.3665 H   0  0  0  0  0  0  0  0  0  0  0  0
   -5.5185   13.9021    4.0632 H   0  0  0  0  0  0  0  0  0  0  0  0
   -7.4031    9.9929    5.0140 H   0  0  0  0  0  0  0  0  0  0  0  0
   -7.7904   11.0625    3.9705 H   0  0  0  0  0  0  0  0  0  0  0  0
   -6.0728   10.7642    3.9790 H   0  0  0  0  0  0  0  0  0  0  0  0
   -7.3626   11.9843    7.2051 H   0  0  0  0  0  0  0  0  0  0  0  0
   -7.2165   13.5856    6.6900 H   0  0  0  0  0  0  0  0  0  0  0  0
   -8.2205   12.5679    5.7730 H   0  0  0  0  0  0  0  0  0  0  0  0
   -3.2322   11.3383    3.5226 H   0  0  0  0  0  0  0  0  0  0  0  0
   -1.9310   10.3273    4.2303 H   0  0  0  0  0  0  0  0  0  0  0  0
   -3.4966    8.6589    5.0281 H   0  0  0  0  0  0  0  0  0  0  0  0
   -6.8945    9.8671    6.4463 H   0  0  0  0  0  0  0  0  0  0  0  0
   -5.9824   10.8043    8.1033 H   0  0  0  0  0  0  0  0  0  0  0  0
   -4.4775    8.6041    7.0622 H   0  0  0  0  0  0  0  0  0  0  0  0
   -3.4239    9.6352    6.3665 H   0  0  0  0  0  0  0  0  0  0  0  0
   -2.8748   13.3902    7.4393 H   0  0  0  0  0  0  0  0  0  0  0  0
   -1.7773   14.1735    6.2275 H   0  0  0  0  0  0  0  0  0  0  0  0
   -3.2483   15.0253    5.5897 H   0  0  0  0  0  0  0  0  0  0  0  0
   -2.2072   16.5534    7.4937 H   0  0  0  0  0  0  0  0  0  0  0  0
   -3.5090   15.6084    8.1437 H   0  0  0  0  0  0  0  0  0  0  0  0
    1.2534   15.2756   10.8313 H   0  0  0  0  0  0  0  0  0  0  0  0
    0.2075   16.0582    8.6564 H   0  0  0  0  0  0  0  0  0  0  0  0
   -2.7410   13.8112    9.1691 H   0  0  0  0  0  0  0  0  0  0  0  0
   -1.5625   12.3240   11.3042 H   0  0  0  0  0  0  0  0  0  0  0  0
    0.3536   13.3227   12.2734 H   0  0  0  0  0  0  0  0  0  0  0  0
   -2.1389    8.7034    7.8487 H   0  0  0  0  0  0  0  0  0  0  0  0
   -2.1282   10.0032    8.2189 H   0  0  0  0  0  0  0  0  0  0  0  0
   -2.9176   10.0877   10.0931 H   0  0  0  0  0  0  0  0  0  0  0  0
   -4.4403   10.4093    9.3900 H   0  0  0  0  0  0  0  0  0  0  0  0
   -4.7252    8.1090    9.0299 H   0  0  0  0  0  0  0  0  0  0  0  0
   -4.5895    6.4596   10.1384 H   0  0  0  0  0  0  0  0  0  0  0  0
   -2.2280    9.3978   11.3707 H   0  0  0  0  0  0  0  0  0  0  0  0
   -2.2264    7.9669   12.2408 H   0  0  0  0  0  0  0  0  0  0  0  0
   -3.9967    9.3167    2.1845 H   0  0  0  0  0  0  0  0  0  0  0  0
   -3.7397    6.9551    0.9942 H   0  0  0  0  0  0  0  0  0  0  0  0
   -2.9809    4.6897    1.2367 H   0  0  0  0  0  0  0  0  0  0  0  0
   -1.4454    5.3623    1.5785 H   0  0  0  0  0  0  0  0  0  0  0  0
   -1.7049    4.0221    3.4025 H   0  0  0  0  0  0  0  0  0  0  0  0
   -1.9901    5.5494    4.0194 H   0  0  0  0  0  0  0  0  0  0  0  0
   -3.7353    4.1439    4.9151 H   0  0  0  0  0  0  0  0  0  0  0  0
   -4.6092    5.0704    3.7229 H   0  0  0  0  0  0  0  0  0  0  0  0
   -4.3357    3.2117    2.1182 H   0  0  0  0  0  0  0  0  0  0  0  0
   -4.8180   -0.0420    3.3608 H   0  0  0  0  0  0  0  0  0  0  0  0
   -4.8151    0.9330    1.9551 H   0  0  0  0  0  0  0  0  0  0  0  0
   -4.3510    0.8630    5.3329 H   0  0  0  0  0  0  0  0  0  0  0  0
   -1.9061    8.5783    1.1313 H   0  0  0  0  0  0  0  0  0  0  0  0
   -0.9765    7.4694    1.8835 H   0  0  0  0  0  0  0  0  0  0  0  0
    1.0359    9.4538    7.1874 H   0  0  0  0  0  0  0  0  0  0  0  0
    2.4920    9.6446    8.1912 H   0  0  0  0  0  0  0  0  0  0  0  0
    0.8950    9.3650    8.9436 H   0  0  0  0  0  0  0  0  0  0  0  0
    1.6300   13.2163    7.1486 H   0  0  0  0  0  0  0  0  0  0  0  0
    2.9483   12.0055    7.0983 H   0  0  0  0  0  0  0  0  0  0  0  0
    1.5123   11.8145    6.0865 H   0  0  0  0  0  0  0  0  0  0  0  0
    1.6245   12.9445    9.6047 H   0  0  0  0  0  0  0  0  0  0  0  0
    1.3106   11.3768   10.3989 H   0  0  0  0  0  0  0  0  0  0  0  0
    2.8515   11.7134    9.6345 H   0  0  0  0  0  0  0  0  0  0  0  0
  1  2  2  0  0  0  0
  1  6  1  0  0  0  0
  1 10  1  0  0  0  0
  2  3  1  0  0  0  0
  2 58  1  0  0  0  0
  3  4  2  0  0  0  0
  3 54  1  0  0  0  0
  4  5  1  0  0  0  0
  4 59  1  0  0  0  0
  5  7  1  0  0  0  0
  6  5  2  0  0  0  0
  6  9  1  0  0  0  0
  7  8  2  0  0  0  0
  7 18  1  0  0  0  0
  8  9  1  0  0  0  0
  8 14  1  0  0  0  0
  9 60  1  0  0  0  0
 10 11  1  0  0  0  0
 10 12  1  0  0  0  0
 10 13  1  0  0  0  0
 11 61  1  0  0  0  0
 11 62  1  0  0  0  0
 11 63  1  0  0  0  0
 12 64  1  0  0  0  0
 12 65  1  0  0  0  0
 12 66  1  0  0  0  0
 13 67  1  0  0  0  0
 13 68  1  0  0  0  0
 13 69  1  0  0  0  0
 14 15  1  0  0  0  0
 14 16  1  0  0  0  0
 14 17  1  0  0  0  0
 15 70  1  0  0  0  0
 15 71  1  0  0  0  0
 15 72  1  0  0  0  0
 16 73  1  0  0  0  0
 16 74  1  0  0  0  0
 16 75  1  0  0  0  0
 17 76  1  0  0  0  0
 17 77  1  0  0  0  0
 17 78  1  0  0  0  0
 18 79  1  0  0  0  0
 18 80  1  0  0  0  0
 19 18  1  0  0  0  0
 19 20  1  0  0  0  0
 19 42  1  0  0  0  0
 19 81  1  1  0  0  0
 20 21  2  0  0  0  0
 20 22  1  0  0  0  0
 22 82  1  0  0  0  0
 23 25  1  0  0  0  0
 23 83  1  1  0  0  0
 23 24  1  0  0  0  0
 23 22  1  0  0  0  0
 24 26  1  0  0  0  0
 24 27  2  0  0  0  0
 25 36  1  0  0  0  0
 25 84  1  0  0  0  0
 25 85  1  0  0  0  0
 26 28  1  0  0  0  0
 26 86  1  0  0  0  0
 28 29  1  0  0  0  0
 28 87  1  0  0  0  0
 28 88  1  0  0  0  0
 29 30  1  0  0  0  0
 29 89  1  0  0  0  0
 29 90  1  0  0  0  0
 30 33  1  0  0  0  0
 31 32  1  0  0  0  0
 31 35  2  0  0  0  0
 31 91  1  0  0  0  0
 32 30  2  0  0  0  0
 32 92  1  0  0  0  0
 33 34  2  0  0  0  0
 33 93  1  0  0  0  0
 34 35  1  0  0  0  0
 34 94  1  0  0  0  0
 35 95  1  0  0  0  0
 36 37  1  0  0  0  0
 36 96  1  0  0  0  0
 36 97  1  0  0  0  0
 37 38  1  0  0  0  0
 37 98  1  0  0  0  0
 37 99  1  0  0  0  0
 38 39  1  0  0  0  0
 38100  1  0  0  0  0
 39 40  2  0  0  0  0
 39 41  1  0  0  0  0
 40101  1  0  0  0  0
 41102  1  0  0  0  0
 41103  1  0  0  0  0
 42 43  1  0  0  0  0
 42104  1  0  0  0  0
 43 52  2  0  0  0  0
 44 53  1  0  0  0  0
 44105  1  6  0  0  0
 44 45  1  0  0  0  0
 44 43  1  0  0  0  0
 45 46  1  0  0  0  0
 45106  1  0  0  0  0
 45107  1  0  0  0  0
 46 47  1  0  0  0  0
 46108  1  0  0  0  0
 46109  1  0  0  0  0
 47 48  1  0  0  0  0
 47110  1  0  0  0  0
 47111  1  0  0  0  0
 48 49  1  0  0  0  0
 48112  1  0  0  0  0
 49 50  1  0  0  0  0
 49 51  2  0  0  0  0
 50113  1  0  0  0  0
 50114  1  0  0  0  0
 51115  1  0  0  0  0
 53116  1  0  0  0  0
 53117  1  0  0  0  0
 54 55  1  0  0  0  0
 54 56  1  0  0  0  0
 54 57  1  0  0  0  0
 55118  1  0  0  0  0
 55119  1  0  0  0  0
 55120  1  0  0  0  0
 56121  1  0  0  0  0
 56122  1  0  0  0  0
 56123  1  0  0  0  0
 57124  1  0  0  0  0
 57125  1  0  0  0  0
 57126  1  0  0  0  0
M  END
>  <DRUGBANK_ID>
DB12711

>  <COMMON_NAME>
LTX-109

>  <CAS_NUMBER>
1166254-80-3

>  <UNII>
HO813QDF65

$$$$
