
 OpenBabel10282417203D

 17 18  0  0  0  0  0  0  0  0999 V2000
   -2.0160    1.0430   -0.0000 B   0  0  0  0  0  0  0  0  0  0  0  0
   -0.2630    0.7310   -0.0010 C   0  0  0  0  0  0  0  0  0  0  0  0
    0.7470    1.5310   -0.0020 C   0  0  0  0  0  0  0  0  0  0  0  0
    2.0560    1.0290    0.0040 C   0  0  0  0  0  0  0  0  0  0  0  0
    2.2430   -0.3630   -0.0020 C   0  0  0  0  0  0  0  0  0  0  0  0
    1.1910   -1.1820   -0.0010 C   0  0  0  0  0  0  0  0  0  0  0  0
   -0.1370   -0.6650   -0.0000 C   0  0  0  0  0  0  0  0  0  0  0  0
   -1.2460   -1.4220    0.0010 C   0  0  0  0  0  0  0  0  0  0  0  0
   -2.5770   -0.7040    0.0010 O   0  0  0  0  0  0  0  0  0  0  0  0
    3.8908   -1.0362   -0.0110 Cl  0  0  0  0  0  0  0  0  0  0  0  0
   -2.7897    2.3280    0.0000 O   0  0  0  0  0  0  0  0  0  0  0  0
    0.5852    2.5887   -0.0075 H   0  0  0  0  0  0  0  0  0  0  0  0
    2.8953    1.6926    0.0130 H   0  0  0  0  0  0  0  0  0  0  0  0
    1.3457   -2.2408   -0.0009 H   0  0  0  0  0  0  0  0  0  0  0  0
   -1.2189   -1.9494   -0.9296 H   0  0  0  0  0  0  0  0  0  0  0  0
   -1.2135   -2.0383    0.8751 H   0  0  0  0  0  0  0  0  0  0  0  0
   -3.7694    2.1273    0.0007 H   0  0  0  0  0  0  0  0  0  0  0  0
  1  2  1  0  0  0  0
  1  9  1  0  0  0  0
  1 11  1  0  0  0  0
  2  3  2  0  0  0  0
  2  7  1  0  0  0  0
  3  4  1  0  0  0  0
  3 12  1  0  0  0  0
  4  5  2  0  0  0  0
  4 13  1  0  0  0  0
  5  6  1  0  0  0  0
  5 10  1  0  0  0  0
  6  7  2  0  0  0  0
  6 14  1  0  0  0  0
  7  8  1  0  0  0  0
  8  9  1  0  0  0  0
  8 15  1  0  0  0  0
  8 16  1  0  0  0  0
 11 17  1  0  0  0  0
M  END
>  <DRUGBANK_ID>
DB12810

>  <COMMON_NAME>
AN-2718

>  <CAS_NUMBER>
174672-06-1

>  <UNII>
810U6C2DGG

$$$$
