
 OpenBabel10282417113D

 60 63  0  0  1  0  0  0  0  0999 V2000
    2.5676   -1.9005    0.0236 C   0  0  0  0  0  0  0  0  0  0  0  0
   -0.5224   -2.1935   -0.3629 C   0  0  0  0  0  0  0  0  0  0  0  0
    3.6895    0.2446   -0.4422 C   0  0  1  0  0  0  0  0  0  0  0  0
    1.5679    1.7214   -0.4035 C   0  0  0  0  0  0  0  0  0  0  0  0
    3.9524   -1.2413   -0.1227 C   0  0  0  0  0  0  0  0  0  0  0  0
   -2.0578    0.1052   -0.3890 C   0  0  0  0  0  0  0  0  0  0  0  0
    0.0609    1.6656   -0.0711 C   0  0  0  0  0  0  0  0  0  0  0  0
   -1.9324   -2.3332    0.2021 C   0  0  0  0  0  0  0  0  0  0  0  0
   -2.7368   -1.1010   -0.0217 C   0  0  0  0  0  0  0  0  0  0  0  0
   -2.8300    1.1152   -0.8228 C   0  0  0  0  0  0  0  0  0  0  0  0
   -4.1717   -1.2301    0.0933 C   0  0  0  0  0  0  0  0  0  0  0  0
   -4.1761    0.8344   -0.8331 C   0  0  0  0  0  0  0  0  0  0  0  0
    0.1546   -0.8994    0.1108 C   0  0  2  0  0  0  0  0  0  0  0  0
    0.0833   -0.8532    1.2047 H   0  0  0  0  0  0  0  0  0  0  0  0
   -0.5713    0.3007   -0.5114 C   0  0  1  0  0  0  0  0  0  0  0  0
   -0.4133    0.2724   -1.6017 H   0  0  0  0  0  0  0  0  0  0  0  0
    2.2943    0.4934    0.1551 C   0  0  2  0  0  0  0  0  0  0  0  0
    2.3551    0.6086    1.6986 C   0  0  0  0  0  0  0  0  0  0  0  0
    1.6000   -0.7904   -0.3494 C   0  0  1  0  0  0  0  0  0  0  0  0
    1.5785   -0.7647   -1.4532 H   0  0  0  0  0  0  0  0  0  0  0  0
   -6.2486    0.2974    0.1263 O   0  0  0  0  0  0  0  0  0  0  0  0
   -4.9161   -0.2019   -0.3763 C   0  0  0  0  0  0  0  0  0  0  0  0
    4.6955    1.1073    0.0460 O   0  0  0  0  0  0  0  0  0  0  0  0
   -6.9664    1.6428    0.3321 C   0  0  0  0  0  0  0  0  0  0  0  0
   -6.3450    2.9521    0.2314 N   0  0  0  0  0  0  0  0  0  0  0  0
   -7.1294    4.1861    0.2110 C   0  0  0  0  0  0  0  0  0  0  0  0
   -6.7067    5.2162    1.2972 C   0  0  0  0  0  0  0  0  0  0  0  0
   -4.9225    3.2710    0.1774 C   0  0  0  0  0  0  0  0  0  0  0  0
   -4.1438    2.8719    1.4922 C   0  0  0  0  0  0  0  0  0  0  0  0
   -5.1375    6.1031    1.1489 Cl  0  0  0  0  0  0  0  0  0  0  0  0
   -4.6041    1.4023    2.4342 Cl  0  0  0  0  0  0  0  0  0  0  0  0
   -8.1927    1.5681    0.6224 O   0  0  0  0  0  0  0  0  0  0  0  0
    2.4564   -2.7667   -0.6361 H   0  0  0  0  0  0  0  0  0  0  0  0
    2.4008   -2.2414    1.0513 H   0  0  0  0  0  0  0  0  0  0  0  0
   -0.5773   -2.1834   -1.4615 H   0  0  0  0  0  0  0  0  0  0  0  0
    0.0470   -3.0737   -0.0666 H   0  0  0  0  0  0  0  0  0  0  0  0
    3.6616    0.3738   -1.5323 H   0  0  0  0  0  0  0  0  0  0  0  0
    2.0115    2.6478   -0.0160 H   0  0  0  0  0  0  0  0  0  0  0  0
    1.6823    1.7645   -1.4953 H   0  0  0  0  0  0  0  0  0  0  0  0
    4.5244   -1.7097   -0.9297 H   0  0  0  0  0  0  0  0  0  0  0  0
    4.5324   -1.3633    0.7979 H   0  0  0  0  0  0  0  0  0  0  0  0
   -0.0993    1.8414    0.9994 H   0  0  0  0  0  0  0  0  0  0  0  0
   -0.4025    2.5183   -0.5825 H   0  0  0  0  0  0  0  0  0  0  0  0
   -2.4441   -3.1336   -0.3427 H   0  0  0  0  0  0  0  0  0  0  0  0
   -1.9271   -2.5622    1.2703 H   0  0  0  0  0  0  0  0  0  0  0  0
   -2.4705    2.1403   -0.8936 H   0  0  0  0  0  0  0  0  0  0  0  0
   -4.6330   -2.0827    0.5712 H   0  0  0  0  0  0  0  0  0  0  0  0
   -4.7243    1.5342   -0.3335 H   0  0  0  0  0  0  0  0  0  0  0  0
    2.8879    1.5173    1.9988 H   0  0  0  0  0  0  0  0  0  0  0  0
    1.3635    0.6591    2.1558 H   0  0  0  0  0  0  0  0  0  0  0  0
    2.8700   -0.2383    2.1607 H   0  0  0  0  0  0  0  0  0  0  0  0
    4.7819    0.9829    1.0048 H   0  0  0  0  0  0  0  0  0  0  0  0
   -7.0247    4.6136   -0.7966 H   0  0  0  0  0  0  0  0  0  0  0  0
   -8.1873    3.9476    0.3471 H   0  0  0  0  0  0  0  0  0  0  0  0
   -7.4122    6.0377    1.2956 H   0  0  0  0  0  0  0  0  0  0  0  0
   -6.6756    4.7158    2.2665 H   0  0  0  0  0  0  0  0  0  0  0  0
   -4.6419    3.0018   -0.8585 H   0  0  0  0  0  0  0  0  0  0  0  0
   -4.6592    4.2798   -0.1140 H   0  0  0  0  0  0  0  0  0  0  0  0
   -3.0682    2.7954    1.3271 H   0  0  0  0  0  0  0  0  0  0  0  0
   -4.3242    3.6331    2.2426 H   0  0  0  0  0  0  0  0  0  0  0  0
  1 33  1  0  0  0  0
  1 34  1  0  0  0  0
  2  8  1  0  0  0  0
  2 35  1  0  0  0  0
  2 36  1  0  0  0  0
  3  5  1  0  0  0  0
  3 23  1  0  0  0  0
  3 37  1  6  0  0  0
  4  7  1  0  0  0  0
  4 38  1  0  0  0  0
  4 39  1  0  0  0  0
  5  1  1  0  0  0  0
  5 40  1  0  0  0  0
  5 41  1  0  0  0  0
  6  9  1  0  0  0  0
  6 10  2  0  0  0  0
  7 42  1  0  0  0  0
  7 43  1  0  0  0  0
  8  9  1  0  0  0  0
  8 44  1  0  0  0  0
  8 45  1  0  0  0  0
  9 11  2  0  0  0  0
 10 12  1  0  0  0  0
 10 46  1  0  0  0  0
 11 22  1  0  0  0  0
 11 47  1  0  0  0  0
 12 22  2  0  0  0  0
 12 48  1  0  0  0  0
 13 15  1  0  0  0  0
 13  2  1  0  0  0  0
 13 14  1  1  0  0  0
 15  6  1  0  0  0  0
 15  7  1  0  0  0  0
 15 16  1  6  0  0  0
 17  3  1  0  0  0  0
 17  4  1  0  0  0  0
 17 18  1  1  0  0  0
 18 49  1  0  0  0  0
 18 50  1  0  0  0  0
 18 51  1  0  0  0  0
 19 13  1  0  0  0  0
 19 17  1  0  0  0  0
 19  1  1  0  0  0  0
 19 20  1  6  0  0  0
 21 24  1  0  0  0  0
 22 21  1  0  0  0  0
 23 52  1  0  0  0  0
 24 25  1  0  0  0  0
 24 32  2  0  0  0  0
 25 26  1  0  0  0  0
 25 28  1  0  0  0  0
 26 27  1  0  0  0  0
 26 53  1  0  0  0  0
 26 54  1  0  0  0  0
 27 30  1  0  0  0  0
 27 55  1  0  0  0  0
 27 56  1  0  0  0  0
 28 29  1  0  0  0  0
 28 57  1  0  0  0  0
 28 58  1  0  0  0  0
 29 31  1  0  0  0  0
 29 59  1  0  0  0  0
 29 60  1  0  0  0  0
M  END
>  <DRUGBANK_ID>
DB01196

>  <SECONDARY_ACCESSION_NUMBERS>
APRD00625

>  <COMMON_NAME>
Estramustine

>  <CAS_NUMBER>
2998-57-4

>  <UNII>
35LT29625A

>  <SYNONYMS>
17Î²-Estradiol 3-(bis(2-chloroethyl)carbamate); Estradiol 3-(N,N-bis(2-chloroethyl)carbamate); Estramustina; Estramustine; Estramustinum

$$$$
