
 OpenBabel10282417233D

 47 49  0  0  0  0  0  0  0  0999 V2000
    0.9430    0.1541   -0.0080 C   0  0  0  0  0  0  0  0  0  0  0  0
    0.6126   -0.8555    0.9570 N   0  0  0  0  0  0  0  0  0  0  0  0
   -0.0705   -0.4016    2.0282 C   0  0  0  0  0  0  0  0  0  0  0  0
   -0.4534    0.7581    2.2024 O   0  0  0  0  0  0  0  0  0  0  0  0
   -0.3132   -1.3245    3.1279 C   0  0  0  0  0  0  0  0  0  0  0  0
   -0.7098   -0.5946    4.2309 O   0  0  0  0  0  0  0  0  0  0  0  0
   -0.0807   -2.6539    2.9332 C   0  0  0  0  0  0  0  0  0  0  0  0
    0.4917   -3.0706    1.7120 N   0  0  0  0  0  0  0  0  0  0  0  0
    0.8446   -2.2027    0.8122 C   0  0  0  0  0  0  0  0  0  0  0  0
    1.5014   -2.6317   -0.3808 N   0  0  0  0  0  0  0  0  0  0  0  0
    2.8023   -2.1192   -0.9099 C   0  0  0  0  0  0  0  0  0  0  0  0
    2.6464   -1.4492   -2.2875 C   0  0  0  0  0  0  0  0  0  0  0  0
    2.0258   -2.3789   -3.3259 C   0  0  0  0  0  0  0  0  0  0  0  0
    0.6684   -2.8871   -2.8637 C   0  0  0  0  0  0  0  0  0  0  0  0
    0.8210   -3.8415   -1.3660 S   0  0  0  0  0  0  0  0  0  0  0  0
    1.7944   -4.8720   -1.5969 O   0  0  0  0  0  0  0  0  0  0  0  0
   -0.5390   -4.1317   -0.9333 O   0  0  0  0  0  0  0  0  0  0  0  0
   -0.3156   -3.8734    3.9483 C   0  0  0  0  0  0  0  0  0  0  0  0
    0.0001   -5.0217    3.6075 O   0  0  0  0  0  0  0  0  0  0  0  0
   -0.8577   -3.7795    5.2178 N   0  0  0  0  0  0  0  0  0  0  0  0
   -1.4233   -2.6121    5.8245 C   0  0  0  0  0  0  0  0  0  0  0  0
   -2.9019   -2.4130    5.9105 C   0  0  0  0  0  0  0  0  0  0  0  0
   -3.4885   -1.1169    5.9063 C   0  0  0  0  0  0  0  0  0  0  0  0
   -4.8723   -0.9791    6.0084 C   0  0  0  0  0  0  0  0  0  0  0  0
   -5.6505   -2.1262    6.0938 C   0  0  0  0  0  0  0  0  0  0  0  0
   -6.9720   -2.0177    6.2721 F   0  0  0  0  0  0  0  0  0  0  0  0
   -5.0848   -3.3927    6.0089 C   0  0  0  0  0  0  0  0  0  0  0  0
   -3.7148   -3.5328    5.8930 C   0  0  0  0  0  0  0  0  0  0  0  0
    0.5552    1.1409    0.2535 H   0  0  0  0  0  0  0  0  0  0  0  0
    0.5192   -0.1299   -0.9687 H   0  0  0  0  0  0  0  0  0  0  0  0
    2.0280    0.2458   -0.0316 H   0  0  0  0  0  0  0  0  0  0  0  0
   -1.0887    0.2497    3.9017 H   0  0  0  0  0  0  0  0  0  0  0  0
    3.2545   -1.4202   -0.1991 H   0  0  0  0  0  0  0  0  0  0  0  0
    3.5162   -2.9464   -0.9869 H   0  0  0  0  0  0  0  0  0  0  0  0
    2.0312   -0.5480   -2.2369 H   0  0  0  0  0  0  0  0  0  0  0  0
    3.6246   -1.1044   -2.6429 H   0  0  0  0  0  0  0  0  0  0  0  0
    1.9078   -1.8446   -4.2760 H   0  0  0  0  0  0  0  0  0  0  0  0
    2.7082   -3.2158   -3.5102 H   0  0  0  0  0  0  0  0  0  0  0  0
   -0.0170   -2.0567   -2.6608 H   0  0  0  0  0  0  0  0  0  0  0  0
    0.2158   -3.5350   -3.6181 H   0  0  0  0  0  0  0  0  0  0  0  0
   -0.9362   -4.6621    5.7094 H   0  0  0  0  0  0  0  0  0  0  0  0
   -0.8045   -2.1679    6.6095 H   0  0  0  0  0  0  0  0  0  0  0  0
   -1.3466   -2.0468    4.9739 H   0  0  0  0  0  0  0  0  0  0  0  0
   -2.8874   -0.2092    5.8135 H   0  0  0  0  0  0  0  0  0  0  0  0
   -5.3486   -0.0028    6.0432 H   0  0  0  0  0  0  0  0  0  0  0  0
   -5.6996   -4.2808    6.0504 H   0  0  0  0  0  0  0  0  0  0  0  0
   -3.2699   -4.5151    5.7829 H   0  0  0  0  0  0  0  0  0  0  0  0
  1  2  1  0  0  0  0
  1 29  1  0  0  0  0
  1 30  1  0  0  0  0
  1 31  1  0  0  0  0
  2  3  1  0  0  0  0
  2  9  1  0  0  0  0
  3  4  2  0  0  0  0
  3  5  1  0  0  0  0
  5  6  1  0  0  0  0
  5  7  2  0  0  0  0
  6 32  1  0  0  0  0
  7  8  1  0  0  0  0
  7 18  1  0  0  0  0
  8  9  2  0  0  0  0
  9 10  1  0  0  0  0
 10 11  1  0  0  0  0
 10 15  1  0  0  0  0
 11 12  1  0  0  0  0
 11 33  1  0  0  0  0
 11 34  1  0  0  0  0
 12 13  1  0  0  0  0
 12 35  1  0  0  0  0
 12 36  1  0  0  0  0
 13 14  1  0  0  0  0
 13 37  1  0  0  0  0
 13 38  1  0  0  0  0
 14 15  1  0  0  0  0
 14 39  1  0  0  0  0
 14 40  1  0  0  0  0
 15 16  2  0  0  0  0
 15 17  2  0  0  0  0
 18 19  2  0  0  0  0
 18 20  1  0  0  0  0
 20 21  1  0  0  0  0
 20 41  1  0  0  0  0
 21 22  1  0  0  0  0
 21 42  1  0  0  0  0
 21 43  1  0  0  0  0
 22 23  2  0  0  0  0
 22 28  1  0  0  0  0
 23 24  1  0  0  0  0
 23 44  1  0  0  0  0
 24 25  2  0  0  0  0
 24 45  1  0  0  0  0
 25 26  1  0  0  0  0
 25 27  1  0  0  0  0
 27 28  2  0  0  0  0
 27 46  1  0  0  0  0
 28 47  1  0  0  0  0
M  END
>  <DRUGBANK_ID>
DB16114

>  <COMMON_NAME>
HIV Integrase Inhibitor

>  <CAS_NUMBER>
729607-74-3

>  <UNII>
7PR4P7YOKT

>  <SYNONYMS>
BMS 707035

$$$$
