
 OpenBabel10282417233D

 95102  0  0  1  0  0  0  0  0999 V2000
    8.0792    2.6830   -1.0320 H   0  0  0  0  0  0  0  0  0  0  0  0
    7.0947    2.2778   -1.2949 C   0  0  1  0  0  0  0  0  0  0  0  0
    6.8891    2.4215   -2.7874 C   0  0  0  0  0  0  0  0  0  0  0  0
    6.3827    3.7333   -2.9896 O   0  0  0  0  0  0  0  0  0  0  0  0
    5.9614    4.2488   -1.8054 C   0  0  0  0  0  0  0  0  0  0  0  0
    5.4242    5.3419   -1.7651 O   0  0  0  0  0  0  0  0  0  0  0  0
    6.0742    3.1994   -0.7039 C   0  0  2  0  0  0  0  0  0  0  0  0
    5.1247    2.7510   -0.7365 H   0  0  0  0  0  0  0  0  0  0  0  0
    6.1723    3.3263    0.8133 C   0  0  2  0  0  0  0  0  0  0  0  0
    7.1233    4.3793    1.1553 C   0  0  0  0  0  0  0  0  0  0  0  0
    6.8042    5.6454    0.7047 C   0  0  0  0  0  0  0  0  0  0  0  0
    7.6488    6.6866    0.8999 C   0  0  0  0  0  0  0  0  0  0  0  0
    7.4452    7.8617    0.2724 O   0  0  0  0  0  0  0  0  0  0  0  0
    6.3078    8.0837   -0.5541 C   0  0  0  0  0  0  0  0  0  0  0  0
    8.7110    6.4896    1.7858 C   0  0  0  0  0  0  0  0  0  0  0  0
    9.6318    7.5335    2.0881 O   0  0  0  0  0  0  0  0  0  0  0  0
    9.4294    8.9161    1.9241 C   0  0  0  0  0  0  0  0  0  0  0  0
    8.4113    9.4893    1.6587 O   0  0  0  0  0  0  0  0  0  0  0  0
   10.6784    9.5137    1.8514 O   0  0  0  0  0  0  0  0  0  0  0  0
   10.6648   10.7288    1.0418 C   0  0  0  0  0  0  0  0  0  0  0  0
   10.5435   10.4825   -0.5130 C   0  0  3  0  0  0  0  0  0  0  0  0
   10.1098    9.0627   -0.7842 C   0  0  0  0  0  0  0  0  0  0  0  0
   10.9708    8.4527   -1.6949 O   0  0  0  0  0  0  0  0  0  0  0  0
   12.0533    9.3442   -1.8450 C   0  0  0  0  0  0  0  0  0  0  0  0
   13.2691    9.0057   -0.9976 C   0  0  0  0  0  0  0  0  0  0  0  0
   12.3027    9.1484   -3.3292 C   0  0  0  0  0  0  0  0  0  0  0  0
   11.6861   10.6534   -1.3814 O   0  0  0  0  0  0  0  0  0  0  0  0
    8.9414    5.2235    2.3747 C   0  0  0  0  0  0  0  0  0  0  0  0
    9.7738    4.8525    3.3865 O   0  0  0  0  0  0  0  0  0  0  0  0
   10.4577    5.9188    3.9907 C   0  0  0  0  0  0  0  0  0  0  0  0
    8.2061    4.1468    1.9643 C   0  0  0  0  0  0  0  0  0  0  0  0
    6.4658    2.0082    1.5313 C   0  0  0  0  0  0  0  0  0  0  0  0
    6.9717    0.8779    0.8045 C   0  0  0  0  0  0  0  0  0  0  0  0
    7.2424   -0.3067    1.5111 C   0  0  0  0  0  0  0  0  0  0  0  0
    6.9040   -0.3692    2.8551 C   0  0  0  0  0  0  0  0  0  0  0  0
    7.0310   -1.4667    3.6520 O   0  0  0  0  0  0  0  0  0  0  0  0
    6.3198   -1.0305    4.8301 C   0  0  0  0  0  0  0  0  0  0  0  0
    5.9501    0.3633    4.7902 O   0  0  0  0  0  0  0  0  0  0  0  0
    6.3120    0.6788    3.5185 C   0  0  0  0  0  0  0  0  0  0  0  0
    6.1003    1.8859    2.8995 C   0  0  0  0  0  0  0  0  0  0  0  0
    6.9400    0.8702   -0.7408 C   0  0  1  0  0  0  0  0  0  0  0  0
    5.8324    0.1583   -1.3728 O   0  0  0  0  0  0  0  0  0  0  0  0
    4.4151    0.4942   -1.1777 C   0  0  2  0  0  0  0  0  0  0  0  0
    4.0111    1.6940   -1.8676 O   0  0  0  0  0  0  0  0  0  0  0  0
    2.8610    2.3983   -1.3428 C   0  0  2  0  0  0  0  0  0  0  0  0
    1.9761    1.8535   -1.6649 H   0  0  0  0  0  0  0  0  0  0  0  0
    2.7794    3.8348   -1.8896 C   0  0  0  0  0  0  0  0  0  0  0  0
    1.6547    4.5318   -1.3685 O   0  0  0  0  0  0  0  0  0  0  0  0
    1.7766    4.6329    0.0512 C   0  0  1  0  0  0  0  0  0  0  0  0
    0.6015    5.4157    0.5703 C   0  0  0  0  0  0  0  0  0  0  0  0
    1.7087    3.3267    0.6246 O   0  0  0  0  0  0  0  0  0  0  0  0
    2.8196    2.5554    0.1895 C   0  0  1  0  0  0  0  0  0  0  0  0
    3.6626    3.1289    0.5532 H   0  0  0  0  0  0  0  0  0  0  0  0
    2.8648    1.1834    0.8414 C   0  0  2  0  0  0  0  0  0  0  0  0
    2.9519    1.3213    2.2754 O   0  0  0  0  0  0  0  0  0  0  0  0
    4.0786    0.4475    0.3148 C   0  0  1  0  0  0  0  0  0  0  0  0
    4.3054   -0.8217    0.9075 O   0  0  0  0  0  0  0  0  0  0  0  0
    6.1924    1.7128   -3.2444 H   0  0  0  0  0  0  0  0  0  0  0  0
    7.8396    2.3613   -3.3165 H   0  0  0  0  0  0  0  0  0  0  0  0
    5.2367    3.7020    1.2480 H   0  0  0  0  0  0  0  0  0  0  0  0
    5.8739    5.8051    0.1855 H   0  0  0  0  0  0  0  0  0  0  0  0
    6.3951    7.5202   -1.4856 H   0  0  0  0  0  0  0  0  0  0  0  0
    5.3564    7.8857   -0.0446 H   0  0  0  0  0  0  0  0  0  0  0  0
    6.3224    9.1448   -0.8107 H   0  0  0  0  0  0  0  0  0  0  0  0
    9.7876   11.3073    1.3624 H   0  0  0  0  0  0  0  0  0  0  0  0
   11.5407   11.3192    1.3219 H   0  0  0  0  0  0  0  0  0  0  0  0
    9.8535   11.2565   -0.8713 H   0  0  0  0  0  0  0  0  0  0  0  0
    9.0639    8.9832   -1.0646 H   0  0  0  0  0  0  0  0  0  0  0  0
   10.3258    8.4103    0.0361 H   0  0  0  0  0  0  0  0  0  0  0  0
   14.0701    9.7177   -1.2328 H   0  0  0  0  0  0  0  0  0  0  0  0
   13.0456    9.1445    0.0679 H   0  0  0  0  0  0  0  0  0  0  0  0
   13.6241    7.9843   -1.1337 H   0  0  0  0  0  0  0  0  0  0  0  0
   11.3521    9.2062   -3.8821 H   0  0  0  0  0  0  0  0  0  0  0  0
   13.0020    9.8579   -3.7566 H   0  0  0  0  0  0  0  0  0  0  0  0
   12.6540    8.1167   -3.5020 H   0  0  0  0  0  0  0  0  0  0  0  0
   11.2026    6.2773    3.2791 H   0  0  0  0  0  0  0  0  0  0  0  0
    9.7616    6.7002    4.3167 H   0  0  0  0  0  0  0  0  0  0  0  0
   10.9734    5.5407    4.8704 H   0  0  0  0  0  0  0  0  0  0  0  0
    8.4216    3.1569    2.3640 H   0  0  0  0  0  0  0  0  0  0  0  0
    7.5862   -1.2008    1.0037 H   0  0  0  0  0  0  0  0  0  0  0  0
    6.9493   -1.1988    5.7111 H   0  0  0  0  0  0  0  0  0  0  0  0
    5.4116   -1.6383    4.9277 H   0  0  0  0  0  0  0  0  0  0  0  0
    5.6003    2.6895    3.4378 H   0  0  0  0  0  0  0  0  0  0  0  0
    7.8453    0.3298   -1.0511 H   0  0  0  0  0  0  0  0  0  0  0  0
    3.8744   -0.3079   -1.6843 H   0  0  0  0  0  0  0  0  0  0  0  0
    2.8210    3.8841   -2.9808 H   0  0  0  0  0  0  0  0  0  0  0  0
    3.6172    4.4084   -1.5351 H   0  0  0  0  0  0  0  0  0  0  0  0
    2.7065    5.1566    0.3431 H   0  0  0  0  0  0  0  0  0  0  0  0
    0.6307    5.4843    1.6619 H   0  0  0  0  0  0  0  0  0  0  0  0
    0.5808    6.4186    0.1358 H   0  0  0  0  0  0  0  0  0  0  0  0
   -0.3171    4.8967    0.2853 H   0  0  0  0  0  0  0  0  0  0  0  0
    1.9673    0.6093    0.6472 H   0  0  0  0  0  0  0  0  0  0  0  0
    3.7005    1.8943    2.5155 H   0  0  0  0  0  0  0  0  0  0  0  0
    4.8100    1.0623    0.7432 H   0  0  0  0  0  0  0  0  0  0  0  0
    3.7334   -1.4725    0.4818 H   0  0  0  0  0  0  0  0  0  0  0  0
  2  1  1  1  0  0  0
  2  3  1  0  0  0  0
  2  7  1  0  0  0  0
  2 41  1  0  0  0  0
  3  4  1  0  0  0  0
  3 58  1  0  0  0  0
  3 59  1  0  0  0  0
  4  5  1  0  0  0  0
  5  6  2  0  0  0  0
  7  5  1  0  0  0  0
  7  8  1  6  0  0  0
  7  9  1  0  0  0  0
  9 10  1  0  0  0  0
  9 32  1  0  0  0  0
  9 60  1  1  0  0  0
 10 11  2  0  0  0  0
 10 31  1  0  0  0  0
 11 12  1  0  0  0  0
 11 61  1  0  0  0  0
 12 13  1  0  0  0  0
 12 15  2  0  0  0  0
 13 14  1  0  0  0  0
 14 62  1  0  0  0  0
 14 63  1  0  0  0  0
 14 64  1  0  0  0  0
 15 16  1  0  0  0  0
 15 28  1  0  0  0  0
 16 17  1  0  0  0  0
 17 18  2  0  0  0  0
 17 19  1  0  0  0  0
 19 20  1  0  0  0  0
 20 21  1  0  0  0  0
 20 65  1  0  0  0  0
 20 66  1  0  0  0  0
 21 22  1  0  0  0  0
 21 27  1  0  0  0  0
 21 67  1  0  0  0  0
 22 23  1  0  0  0  0
 22 68  1  0  0  0  0
 22 69  1  0  0  0  0
 23 24  1  0  0  0  0
 24 25  1  0  0  0  0
 24 26  1  0  0  0  0
 24 27  1  0  0  0  0
 25 70  1  0  0  0  0
 25 71  1  0  0  0  0
 25 72  1  0  0  0  0
 26 73  1  0  0  0  0
 26 74  1  0  0  0  0
 26 75  1  0  0  0  0
 28 29  1  0  0  0  0
 28 31  2  0  0  0  0
 29 30  1  0  0  0  0
 30 76  1  0  0  0  0
 30 77  1  0  0  0  0
 30 78  1  0  0  0  0
 31 79  1  0  0  0  0
 32 33  2  0  0  0  0
 32 40  1  0  0  0  0
 33 34  1  0  0  0  0
 34 35  2  0  0  0  0
 34 80  1  0  0  0  0
 35 36  1  0  0  0  0
 35 39  1  0  0  0  0
 36 37  1  0  0  0  0
 37 38  1  0  0  0  0
 37 81  1  0  0  0  0
 37 82  1  0  0  0  0
 38 39  1  0  0  0  0
 39 40  2  0  0  0  0
 40 83  1  0  0  0  0
 41 33  1  0  0  0  0
 41 42  1  0  0  0  0
 41 84  1  6  0  0  0
 43 44  1  0  0  0  0
 43 85  1  6  0  0  0
 43 42  1  0  0  0  0
 45 44  1  0  0  0  0
 45 46  1  6  0  0  0
 45 47  1  0  0  0  0
 47 48  1  0  0  0  0
 47 86  1  0  0  0  0
 47 87  1  0  0  0  0
 49 48  1  0  0  0  0
 49 50  1  0  0  0  0
 49 51  1  0  0  0  0
 49 88  1  1  0  0  0
 50 89  1  0  0  0  0
 50 90  1  0  0  0  0
 50 91  1  0  0  0  0
 52 51  1  0  0  0  0
 52 45  1  0  0  0  0
 52 53  1  1  0  0  0
 52 54  1  0  0  0  0
 54 55  1  0  0  0  0
 54 56  1  0  0  0  0
 54 92  1  6  0  0  0
 55 93  1  0  0  0  0
 56 43  1  0  0  0  0
 56 57  1  0  0  0  0
 56 94  1  1  0  0  0
 57 95  1  0  0  0  0
M  END
>  <DRUGBANK_ID>
DB17255

>  <COMMON_NAME>
Etoposide toniribate

>  <CAS_NUMBER>
433304-61-1

>  <UNII>
A59HL2Q48U

>  <SYNONYMS>
((4rs)-2,2-dimethyl-1,3-dioxolan-4-yl)methyl4-((5r,5ar,8ar,9s)-9-((4,6-o-((1r)-ethane-1,1-diyl)-.beta.-d-glucopyranosyl)oxy)-6-oxo-5,5a,6,8,8a,9-hexahydro-2h-furo(3',4':6,7)naphtho(2,3-d)(1,3)dioxol-5-yl)-2,6-dimethoxyphenyl carbonate; Carbonic acid, (2,2-dimethyl-1,3-dioxolan-4-yl)methyl 4-((5r,5ar,8ar,9s)-9-((4,6-o-(1r)-ethylidene-.beta.-d-glucopyranosyl)oxy)-5,5a,6,8,8a,9-hexahydro-6-oxofuro(3',4':6,7)naphtho(2,3-d)-1,3-dioxol-5-yl)-2,6-dimethoxyphenyl ester; Provp-16i

$$$$
