
 OpenBabel10282417133D

 16 16  0  0  0  0  0  0  0  0999 V2000
    1.0756    0.0795    0.0059 C   0  0  0  0  0  0  0  0  0  0  0  0
    0.6199   -1.1073   -0.8228 C   0  0  0  0  0  0  0  0  0  0  0  0
    1.0470   -2.4000   -0.3100 N   0  0  0  0  0  0  0  0  0  0  0  0
    0.5100   -3.5741   -0.7372 C   0  0  0  0  0  0  0  0  0  0  0  0
   -0.3597   -3.7620   -1.5654 O   0  0  0  0  0  0  0  0  0  0  0  0
    1.1708   -4.6516    0.0077 C   0  0  0  0  0  0  0  0  0  0  0  0
    2.0747   -4.0929    0.8097 C   0  0  0  0  0  0  0  0  0  0  0  0
    2.0188   -2.6438    0.6073 C   0  0  0  0  0  0  0  0  0  0  0  0
    2.7430   -1.8772    1.2145 O   0  0  0  0  0  0  0  0  0  0  0  0
    0.7370   -0.0256    1.0422 H   0  0  0  0  0  0  0  0  0  0  0  0
    0.6787    1.0159   -0.3937 H   0  0  0  0  0  0  0  0  0  0  0  0
    2.1673    0.1585    0.0047 H   0  0  0  0  0  0  0  0  0  0  0  0
   -0.4760   -1.1179   -0.8758 H   0  0  0  0  0  0  0  0  0  0  0  0
    0.9793   -1.0136   -1.8548 H   0  0  0  0  0  0  0  0  0  0  0  0
    0.9281   -5.6930   -0.0987 H   0  0  0  0  0  0  0  0  0  0  0  0
    2.7418   -4.5626    1.5098 H   0  0  0  0  0  0  0  0  0  0  0  0
  1  2  1  0  0  0  0
  1 10  1  0  0  0  0
  1 11  1  0  0  0  0
  1 12  1  0  0  0  0
  2  3  1  0  0  0  0
  2 13  1  0  0  0  0
  2 14  1  0  0  0  0
  3  4  1  0  0  0  0
  3  8  1  0  0  0  0
  4  5  2  0  0  0  0
  4  6  1  0  0  0  0
  6  7  2  0  0  0  0
  6 15  1  0  0  0  0
  7  8  1  0  0  0  0
  7 16  1  0  0  0  0
  8  9  2  0  0  0  0
M  END
>  <DRUGBANK_ID>
DB02967

>  <SECONDARY_ACCESSION_NUMBERS>
EXPT02327

>  <COMMON_NAME>
N-Ethylmaleimide

>  <CAS_NUMBER>
128-53-0

>  <UNII>
O3C74ACM9V

$$$$
