
 OpenBabel10282417123D

 28 27  0  0  1  0  0  0  0  0999 V2000
   -1.5876    1.5928   -4.7897 C   0  0  0  0  0  0  0  0  0  0  0  0
   -2.4177    0.6735   -3.9238 C   0  0  0  0  0  0  0  0  0  0  0  0
   -1.8281   -0.6932   -4.0424 C   0  0  0  0  0  0  0  0  0  0  0  0
   -0.3325   -0.7169   -3.6541 C   0  0  0  0  0  0  0  0  0  0  0  0
   -0.1136   -0.6729   -2.1274 C   0  0  0  0  0  0  0  0  0  0  0  0
   -0.8123   -1.6566   -1.3793 O   0  0  0  0  0  0  0  0  0  0  0  0
   -0.3085   -3.1456   -1.6403 P   0  0  2  0  0  0  0  0  0  0  0  0
   -1.5327   -4.0001   -1.0598 O   0  0  0  0  0  0  0  0  0  0  0  0
    0.9846   -3.5130   -0.9630 O   0  0  0  0  0  0  0  0  0  0  0  0
   -0.2920   -3.1403   -3.2219 O   0  0  0  0  0  0  0  0  0  0  0  0
   -1.5882   -3.3300   -4.3519 P   0  0  0  0  0  0  0  0  0  0  0  0
   -0.6585   -4.5183   -4.9920 O   0  0  0  0  0  0  0  0  0  0  0  0
   -2.3362   -4.3013   -3.2791 O   0  0  0  0  0  0  0  0  0  0  0  0
   -2.7483   -3.4997   -5.3632 O   0  0  0  0  0  0  0  0  0  0  0  0
   -0.5512    1.6512   -4.4526 H   0  0  0  0  0  0  0  0  0  0  0  0
   -1.9653    2.6052   -4.7489 H   0  0  0  0  0  0  0  0  0  0  0  0
   -1.5693    1.2165   -5.8203 H   0  0  0  0  0  0  0  0  0  0  0  0
   -2.4177    0.9595   -2.8694 H   0  0  0  0  0  0  0  0  0  0  0  0
   -3.4583    0.6392   -4.2651 H   0  0  0  0  0  0  0  0  0  0  0  0
   -2.4483   -1.3544   -3.4181 H   0  0  0  0  0  0  0  0  0  0  0  0
   -1.9502   -1.0162   -5.0891 H   0  0  0  0  0  0  0  0  0  0  0  0
    0.1759   -1.5282   -4.1844 H   0  0  0  0  0  0  0  0  0  0  0  0
    0.2648    0.0688   -4.0983 H   0  0  0  0  0  0  0  0  0  0  0  0
    0.9506   -0.7747   -1.9058 H   0  0  0  0  0  0  0  0  0  0  0  0
   -0.4658    0.2860   -1.7556 H   0  0  0  0  0  0  0  0  0  0  0  0
   -1.2619   -4.4670   -0.2403 H   0  0  0  0  0  0  0  0  0  0  0  0
   -0.2709   -4.2735   -5.8452 H   0  0  0  0  0  0  0  0  0  0  0  0
   -2.6652   -3.8687   -2.4636 H   0  0  0  0  0  0  0  0  0  0  0  0
  1  2  1  0  0  0  0
  1 15  1  0  0  0  0
  1 16  1  0  0  0  0
  1 17  1  0  0  0  0
  2  3  1  0  0  0  0
  2 18  1  0  0  0  0
  2 19  1  0  0  0  0
  3  4  1  0  0  0  0
  3 20  1  0  0  0  0
  3 21  1  0  0  0  0
  4  5  1  0  0  0  0
  4 22  1  0  0  0  0
  4 23  1  0  0  0  0
  5  6  1  0  0  0  0
  5 24  1  0  0  0  0
  5 25  1  0  0  0  0
  7  9  2  1  0  0  0
  7 10  1  0  0  0  0
  7  8  1  0  0  0  0
  7  6  1  0  0  0  0
  8 26  1  0  0  0  0
 10 11  1  0  0  0  0
 11 12  1  0  0  0  0
 11 13  1  0  0  0  0
 11 14  2  0  0  0  0
 12 27  1  0  0  0  0
 13 28  1  0  0  0  0
M  END
>  <DRUGBANK_ID>
DB02707

>  <SECONDARY_ACCESSION_NUMBERS>
EXPT02472

>  <COMMON_NAME>
Pentyl Trihydrogen Diphosphate

$$$$
