354
 OpenBabel10282417103D

 64 67  0  0  1  0  0  0  0  0999 V2000
   -2.1623    0.0782    0.1244 Cl  0  0  0  0  0  0  0  0  0  0  0  0
    4.1234   -0.6494    1.0052 N   0  0  0  0  0  0  0  0  0  0  0  0
    1.9906   -1.5121    2.9657 N   0  0  0  0  0  0  0  0  0  0  0  0
    3.7304   -2.0579    1.1879 C   0  0  0  0  0  0  0  0  0  0  0  0
    3.7745    0.1547    2.1602 C   0  0  0  0  0  0  0  0  0  0  0  0
    2.3392   -2.2796    1.7835 C   0  0  0  0  0  0  0  0  0  0  0  0
    2.3801   -0.0993    2.7891 C   0  0  0  0  0  0  0  0  0  0  0  0
    3.8180   -0.0076   -0.2667 C   0  0  3  0  0  0  0  0  0  0  0  0
    2.4099   -2.1971    4.1847 C   0  0  0  0  0  0  0  0  0  0  0  0
    2.3035    0.1151   -0.5379 C   0  0  0  0  0  0  0  0  0  0  0  0
    4.5847   -0.6748   -1.4018 C   0  0  0  0  0  0  0  0  0  0  0  0
    3.8979   -2.2954    4.4079 C   0  0  0  0  0  0  0  0  0  0  0  0
    8.2164   -2.1549    3.9074 C   0  0  0  0  0  0  0  0  0  0  0  0
    6.7009   -2.2134    4.0911 C   0  0  0  0  0  0  0  0  0  0  0  0
    4.6152   -1.1462    4.7338 C   0  0  0  0  0  0  0  0  0  0  0  0
    4.6064   -3.4593    4.0955 C   0  0  0  0  0  0  0  0  0  0  0  0
    1.6233    1.3136   -0.2678 C   0  0  0  0  0  0  0  0  0  0  0  0
    1.5424   -1.0229   -0.8576 C   0  0  0  0  0  0  0  0  0  0  0  0
    4.2975   -0.2518   -2.6840 C   0  0  0  0  0  0  0  0  0  0  0  0
    5.4973   -1.7358   -1.1979 C   0  0  0  0  0  0  0  0  0  0  0  0
    5.9735   -1.0730    4.4298 C   0  0  0  0  0  0  0  0  0  0  0  0
    6.0005   -3.4294    4.0220 C   0  0  0  0  0  0  0  0  0  0  0  0
    8.7966   -2.8243    5.1630 C   0  0  0  0  0  0  0  0  0  0  0  0
    8.6803   -2.9041    2.6415 C   0  0  0  0  0  0  0  0  0  0  0  0
    8.7750   -0.7144    3.8161 C   0  0  0  0  0  0  0  0  0  0  0  0
    0.2276    1.3182   -0.1535 C   0  0  0  0  0  0  0  0  0  0  0  0
    0.1739   -1.0524   -0.5720 C   0  0  0  0  0  0  0  0  0  0  0  0
    4.7732   -0.9795   -3.7741 C   0  0  0  0  0  0  0  0  0  0  0  0
    5.9305   -2.4953   -2.2846 C   0  0  0  0  0  0  0  0  0  0  0  0
   -0.4818    0.1218   -0.2332 C   0  0  0  0  0  0  0  0  0  0  0  0
    5.5490   -2.1198   -3.5523 C   0  0  0  0  0  0  0  0  0  0  0  0
    3.7778   -2.6518    0.2709 H   0  0  0  0  0  0  0  0  0  0  0  0
    4.5023   -2.5224    1.8022 H   0  0  0  0  0  0  0  0  0  0  0  0
    4.5465   -0.1467    2.8277 H   0  0  0  0  0  0  0  0  0  0  0  0
    4.0071    1.2224    2.0697 H   0  0  0  0  0  0  0  0  0  0  0  0
    1.6142   -1.9208    1.0931 H   0  0  0  0  0  0  0  0  0  0  0  0
    2.0848   -3.3444    1.8174 H   0  0  0  0  0  0  0  0  0  0  0  0
    1.6404    0.3596    2.1286 H   0  0  0  0  0  0  0  0  0  0  0  0
    2.2588    0.4579    3.7229 H   0  0  0  0  0  0  0  0  0  0  0  0
    4.2354    1.0099   -0.2184 H   0  0  0  0  0  0  0  0  0  0  0  0
    1.9297   -1.7148    5.0387 H   0  0  0  0  0  0  0  0  0  0  0  0
    1.9872   -3.2101    4.1421 H   0  0  0  0  0  0  0  0  0  0  0  0
    4.0887   -0.2144    4.9371 H   0  0  0  0  0  0  0  0  0  0  0  0
    4.0841   -4.3677    3.8046 H   0  0  0  0  0  0  0  0  0  0  0  0
    2.1775    2.2233   -0.0496 H   0  0  0  0  0  0  0  0  0  0  0  0
    2.0460   -1.9693   -1.0618 H   0  0  0  0  0  0  0  0  0  0  0  0
    3.6470    0.6048   -2.8448 H   0  0  0  0  0  0  0  0  0  0  0  0
    5.8153   -2.0493   -0.2120 H   0  0  0  0  0  0  0  0  0  0  0  0
    6.4060   -0.0780    4.3452 H   0  0  0  0  0  0  0  0  0  0  0  0
    6.5278   -4.3638    3.8517 H   0  0  0  0  0  0  0  0  0  0  0  0
    8.4731   -3.8688    5.2460 H   0  0  0  0  0  0  0  0  0  0  0  0
    9.8887   -2.8127    5.1577 H   0  0  0  0  0  0  0  0  0  0  0  0
    8.4506   -2.3083    6.0680 H   0  0  0  0  0  0  0  0  0  0  0  0
    8.2877   -2.4343    1.7310 H   0  0  0  0  0  0  0  0  0  0  0  0
    9.7745   -2.9031    2.5700 H   0  0  0  0  0  0  0  0  0  0  0  0
    8.3624   -3.9512    2.6314 H   0  0  0  0  0  0  0  0  0  0  0  0
    8.3956   -0.1936    2.9272 H   0  0  0  0  0  0  0  0  0  0  0  0
    8.5069   -0.1158    4.6947 H   0  0  0  0  0  0  0  0  0  0  0  0
    9.8685   -0.7117    3.7603 H   0  0  0  0  0  0  0  0  0  0  0  0
   -0.2910    2.2414    0.0860 H   0  0  0  0  0  0  0  0  0  0  0  0
   -0.3263   -2.0152   -0.4732 H   0  0  0  0  0  0  0  0  0  0  0  0
    4.4998   -0.6637   -4.7643 H   0  0  0  0  0  0  0  0  0  0  0  0
    6.5373   -3.3782   -2.0989 H   0  0  0  0  0  0  0  0  0  0  0  0
    5.8658   -2.7188   -4.4066 H   0  0  0  0  0  0  0  0  0  0  0  0
  1 30  1  0  0  0  0
  2  4  1  0  0  0  0
  2  5  1  0  0  0  0
  2  8  1  0  0  0  0
  3  6  1  0  0  0  0
  3  7  1  0  0  0  0
  3  9  1  0  0  0  0
  4  6  1  0  0  0  0
  4 32  1  0  0  0  0
  4 33  1  0  0  0  0
  5  7  1  0  0  0  0
  5 34  1  0  0  0  0
  5 35  1  0  0  0  0
  6 36  1  0  0  0  0
  6 37  1  0  0  0  0
  7 38  1  0  0  0  0
  7 39  1  0  0  0  0
  8 10  1  0  0  0  0
  8 11  1  0  0  0  0
  8 40  1  0  0  0  0
  9 12  1  0  0  0  0
  9 41  1  0  0  0  0
  9 42  1  0  0  0  0
 10 17  2  0  0  0  0
 10 18  1  0  0  0  0
 11 19  2  0  0  0  0
 11 20  1  0  0  0  0
 12 15  2  0  0  0  0
 12 16  1  0  0  0  0
 13 14  1  0  0  0  0
 13 23  1  0  0  0  0
 13 24  1  0  0  0  0
 13 25  1  0  0  0  0
 14 21  2  0  0  0  0
 14 22  1  0  0  0  0
 15 21  1  0  0  0  0
 15 43  1  0  0  0  0
 16 22  2  0  0  0  0
 16 44  1  0  0  0  0
 17 26  1  0  0  0  0
 17 45  1  0  0  0  0
 18 27  2  0  0  0  0
 18 46  1  0  0  0  0
 19 28  1  0  0  0  0
 19 47  1  0  0  0  0
 20 29  2  0  0  0  0
 20 48  1  0  0  0  0
 21 49  1  0  0  0  0
 22 50  1  0  0  0  0
 23 51  1  0  0  0  0
 23 52  1  0  0  0  0
 23 53  1  0  0  0  0
 24 54  1  0  0  0  0
 24 55  1  0  0  0  0
 24 56  1  0  0  0  0
 25 57  1  0  0  0  0
 25 58  1  0  0  0  0
 25 59  1  0  0  0  0
 26 30  2  0  0  0  0
 26 60  1  0  0  0  0
 27 30  1  0  0  0  0
 27 61  1  0  0  0  0
 28 31  2  0  0  0  0
 28 62  1  0  0  0  0
 29 31  1  0  0  0  0
 29 63  1  0  0  0  0
 31 64  1  0  0  0  0
M  END
>  <DRUGBANK_ID>
DB00354

>  <SECONDARY_ACCESSION_NUMBERS>
APRD00723

>  <COMMON_NAME>
Buclizine

>  <CAS_NUMBER>
82-95-1

>  <UNII>
0C94V6X681

>  <SYNONYMS>
1-(p-tert-Butylbenzyl)-4-(4-chloro-alpha-phenylbenzyl)piperazine; Buclizina; Buclizine; Buclizinum

$$$$
