312
 OpenBabel10282417103D

 34 34  0  0  1  0  0  0  0  0999 V2000
   -2.3904   -1.1007   -0.1131 O   0  0  0  0  0  0  0  0  0  0  0  0
    2.4314   -1.0801   -0.0939 O   0  0  0  0  0  0  0  0  0  0  0  0
    0.0023    2.6701   -0.0109 O   0  0  0  0  0  0  0  0  0  0  0  0
   -1.1409    0.7275    0.0318 N   0  0  0  0  0  0  0  0  0  0  0  0
    1.1626    0.7382    0.0245 N   0  0  0  0  0  0  0  0  0  0  0  0
    0.0261   -1.4568   -0.1161 C   0  0  0  0  0  0  0  0  0  0  0  0
    0.0099   -2.5006    1.0726 C   0  0  3  0  0  0  0  0  0  0  0  0
   -1.2035   -3.4860    1.0822 C   0  0  0  0  0  0  0  0  0  0  0  0
    0.0724   -2.0885   -1.5290 C   0  0  0  0  0  0  0  0  0  0  0  0
   -1.2584   -0.6256   -0.0392 C   0  0  0  0  0  0  0  0  0  0  0  0
    1.2953   -0.6133   -0.0233 C   0  0  0  0  0  0  0  0  0  0  0  0
    1.3374   -3.2657    1.2600 C   0  0  0  0  0  0  0  0  0  0  0  0
   -1.3939   -4.4409   -0.1044 C   0  0  0  0  0  0  0  0  0  0  0  0
    0.1448   -1.1165   -2.6891 C   0  0  0  0  0  0  0  0  0  0  0  0
    0.0074    1.4364    0.0144 C   0  0  0  0  0  0  0  0  0  0  0  0
   -0.2094   -5.3435   -0.3898 C   0  0  0  0  0  0  0  0  0  0  0  0
   -2.0074    1.2468    0.0155 H   0  0  0  0  0  0  0  0  0  0  0  0
    2.0246    1.2631   -0.0050 H   0  0  0  0  0  0  0  0  0  0  0  0
   -0.0949   -1.9108    1.9997 H   0  0  0  0  0  0  0  0  0  0  0  0
   -1.1608   -4.0882    1.9989 H   0  0  0  0  0  0  0  0  0  0  0  0
   -2.1315   -2.9156    1.2057 H   0  0  0  0  0  0  0  0  0  0  0  0
    0.8887   -2.8126   -1.6128 H   0  0  0  0  0  0  0  0  0  0  0  0
   -0.8550   -2.5921   -1.7565 H   0  0  0  0  0  0  0  0  0  0  0  0
    2.1391   -2.6262    1.6373 H   0  0  0  0  0  0  0  0  0  0  0  0
    1.2332   -4.0871    1.9756 H   0  0  0  0  0  0  0  0  0  0  0  0
    1.7243   -3.6599    0.3231 H   0  0  0  0  0  0  0  0  0  0  0  0
   -2.2785   -5.0588    0.0723 H   0  0  0  0  0  0  0  0  0  0  0  0
   -1.6846   -3.9125   -1.0047 H   0  0  0  0  0  0  0  0  0  0  0  0
    1.0533   -0.5167   -2.6663 H   0  0  0  0  0  0  0  0  0  0  0  0
    0.1204   -1.6885   -3.6220 H   0  0  0  0  0  0  0  0  0  0  0  0
   -0.7338   -0.4652   -2.6819 H   0  0  0  0  0  0  0  0  0  0  0  0
    0.0296   -5.9380    0.4954 H   0  0  0  0  0  0  0  0  0  0  0  0
   -0.4105   -6.0012   -1.2362 H   0  0  0  0  0  0  0  0  0  0  0  0
    0.6806   -4.8016   -0.6965 H   0  0  0  0  0  0  0  0  0  0  0  0
  1 10  2  0  0  0  0
  2 11  2  0  0  0  0
  3 15  2  0  0  0  0
  4 10  1  0  0  0  0
  4 15  1  0  0  0  0
  4 17  1  0  0  0  0
  5 11  1  0  0  0  0
  5 15  1  0  0  0  0
  5 18  1  0  0  0  0
  6  7  1  0  0  0  0
  6  9  1  0  0  0  0
  6 10  1  0  0  0  0
  6 11  1  0  0  0  0
  7  8  1  0  0  0  0
  7 12  1  0  0  0  0
  7 19  1  0  0  0  0
  8 13  1  0  0  0  0
  8 20  1  0  0  0  0
  8 21  1  0  0  0  0
  9 14  1  0  0  0  0
  9 22  1  0  0  0  0
  9 23  1  0  0  0  0
 12 24  1  0  0  0  0
 12 25  1  0  0  0  0
 12 26  1  0  0  0  0
 13 16  1  0  0  0  0
 13 27  1  0  0  0  0
 13 28  1  0  0  0  0
 14 29  1  0  0  0  0
 14 30  1  0  0  0  0
 14 31  1  0  0  0  0
 16 32  1  0  0  0  0
 16 33  1  0  0  0  0
 16 34  1  0  0  0  0
M  END
>  <DRUGBANK_ID>
DB00312

>  <SECONDARY_ACCESSION_NUMBERS>
APRD01174

>  <COMMON_NAME>
Pentobarbital

>  <CAS_NUMBER>
76-74-4

>  <UNII>
I4744080IR

>  <SYNONYMS>
5-Ethyl-5-(1-methyl-butyl)-pyrimidine-2,4,6-trione; 5-Ethyl-5-(1-methylbutyl)-2,4,6(1H,3H,5H)-pyrimidinetrione; 5-ethyl-5-(1-methylbutyl)barbituric acid; 5-ethyl-5-(sec-pentyl)barbituric acid; Pentobarbital; Pentobarbitone

$$$$
