
 OpenBabel10282417143D

 70 74  0  0  0  0  0  0  0  0999 V2000
    1.0036    0.1100   -0.0210 C   0  0  0  0  0  0  0  0  0  0  0  0
    0.5372    0.4433   -1.4385 C   0  0  0  0  0  0  0  0  0  0  0  0
    1.0435   -0.5279   -2.5169 C   0  0  0  0  0  0  0  0  0  0  0  0
    0.5188   -1.9615   -2.4676 C   0  0  0  0  0  0  0  0  0  0  0  0
   -0.9753   -2.0096   -2.2554 C   0  0  0  0  0  0  0  0  0  0  0  0
   -1.6893   -1.5472   -3.4315 N   0  0  0  0  0  0  0  0  0  0  0  0
   -2.4539   -2.5001   -4.1081 C   0  0  0  0  0  0  0  0  0  0  0  0
   -3.4828   -3.1552   -3.4057 C   0  0  0  0  0  0  0  0  0  0  0  0
   -3.8880   -2.7550   -2.0021 C   0  0  0  0  0  0  0  0  0  0  0  0
   -4.5062   -3.9121   -1.2412 C   0  0  0  0  0  0  0  0  0  0  0  0
   -5.7046   -4.4014   -2.0248 C   0  0  0  0  0  0  0  0  0  0  0  0
   -5.2755   -4.9344   -3.3902 C   0  0  0  0  0  0  0  0  0  0  0  0
   -4.2088   -4.1274   -4.0846 C   0  0  0  0  0  0  0  0  0  0  0  0
   -3.9583   -4.4835   -5.3668 N   0  0  0  0  0  0  0  0  0  0  0  0
   -2.9565   -3.8822   -6.0250 C   0  0  0  0  0  0  0  0  0  0  0  0
   -2.6969   -4.3012   -7.3253 C   0  0  0  0  0  0  0  0  0  0  0  0
   -1.6457   -3.7729   -8.0769 C   0  0  0  0  0  0  0  0  0  0  0  0
   -0.8420   -2.7876   -7.5264 C   0  0  0  0  0  0  0  0  0  0  0  0
   -1.0942   -2.3396   -6.2269 C   0  0  0  0  0  0  0  0  0  0  0  0
   -2.1544   -2.8811   -5.4489 C   0  0  0  0  0  0  0  0  0  0  0  0
    0.5204   -1.2446    0.4959 C   0  0  0  0  0  0  0  0  0  0  0  0
    0.9748   -1.6165    1.8783 C   0  0  0  0  0  0  0  0  0  0  0  0
    0.4485   -0.6471    2.8870 C   0  0  0  0  0  0  0  0  0  0  0  0
   -1.0042   -0.6291    2.8699 N   0  0  0  0  0  0  0  0  0  0  0  0
   -1.7269   -0.9080    4.0149 C   0  0  0  0  0  0  0  0  0  0  0  0
   -2.7846   -1.8165    3.9335 C   0  0  0  0  0  0  0  0  0  0  0  0
   -3.4395   -2.1636    5.0939 C   0  0  0  0  0  0  0  0  0  0  0  0
   -3.1246   -1.6745    6.3122 N   0  0  0  0  0  0  0  0  0  0  0  0
   -2.1058   -0.7922    6.3924 C   0  0  0  0  0  0  0  0  0  0  0  0
   -1.7617   -0.2601    7.6334 C   0  0  0  0  0  0  0  0  0  0  0  0
   -0.7052    0.6493    7.7910 C   0  0  0  0  0  0  0  0  0  0  0  0
    0.0164    1.0676    6.6949 C   0  0  0  0  0  0  0  0  0  0  0  0
   -0.3457    0.5919    5.4475 C   0  0  0  0  0  0  0  0  0  0  0  0
   -1.3763   -0.3725    5.2782 C   0  0  0  0  0  0  0  0  0  0  0  0
    0.6435    0.9171    0.6278 H   0  0  0  0  0  0  0  0  0  0  0  0
    2.0975    0.1401    0.0131 H   0  0  0  0  0  0  0  0  0  0  0  0
   -0.5555    0.5448   -1.4572 H   0  0  0  0  0  0  0  0  0  0  0  0
    0.9055    1.4465   -1.6897 H   0  0  0  0  0  0  0  0  0  0  0  0
    0.7625   -0.1157   -3.4914 H   0  0  0  0  0  0  0  0  0  0  0  0
    2.1368   -0.5539   -2.4878 H   0  0  0  0  0  0  0  0  0  0  0  0
    0.7913   -2.5108   -3.3709 H   0  0  0  0  0  0  0  0  0  0  0  0
    1.0239   -2.5511   -1.7048 H   0  0  0  0  0  0  0  0  0  0  0  0
   -1.2228   -3.0335   -1.9466 H   0  0  0  0  0  0  0  0  0  0  0  0
   -1.3126   -1.3640   -1.4427 H   0  0  0  0  0  0  0  0  0  0  0  0
   -1.2630   -0.8104   -3.9779 H   0  0  0  0  0  0  0  0  0  0  0  0
   -4.5716   -1.9012   -2.0684 H   0  0  0  0  0  0  0  0  0  0  0  0
   -3.0733   -2.4248   -1.3665 H   0  0  0  0  0  0  0  0  0  0  0  0
   -4.7992   -3.5757   -0.2411 H   0  0  0  0  0  0  0  0  0  0  0  0
   -3.7698   -4.7171   -1.1108 H   0  0  0  0  0  0  0  0  0  0  0  0
   -6.2242   -5.1829   -1.4638 H   0  0  0  0  0  0  0  0  0  0  0  0
   -6.4060   -3.5677   -2.1545 H   0  0  0  0  0  0  0  0  0  0  0  0
   -4.8739   -5.9465   -3.2615 H   0  0  0  0  0  0  0  0  0  0  0  0
   -6.1540   -5.0025   -4.0396 H   0  0  0  0  0  0  0  0  0  0  0  0
   -3.3252   -5.0747   -7.7596 H   0  0  0  0  0  0  0  0  0  0  0  0
   -1.4598   -4.1420   -9.0825 H   0  0  0  0  0  0  0  0  0  0  0  0
   -0.0176   -2.3720   -8.1009 H   0  0  0  0  0  0  0  0  0  0  0  0
   -0.4438   -1.5739   -5.8160 H   0  0  0  0  0  0  0  0  0  0  0  0
   -0.5670   -1.3244    0.4199 H   0  0  0  0  0  0  0  0  0  0  0  0
    0.9554   -2.0511   -0.0624 H   0  0  0  0  0  0  0  0  0  0  0  0
    0.6224   -2.6318    2.1048 H   0  0  0  0  0  0  0  0  0  0  0  0
    2.0697   -1.6428    1.9060 H   0  0  0  0  0  0  0  0  0  0  0  0
    0.8655   -0.9715    3.8443 H   0  0  0  0  0  0  0  0  0  0  0  0
    0.8239    0.3579    2.6744 H   0  0  0  0  0  0  0  0  0  0  0  0
   -1.5113   -0.5131    2.0008 H   0  0  0  0  0  0  0  0  0  0  0  0
   -3.0677   -2.2728    2.9901 H   0  0  0  0  0  0  0  0  0  0  0  0
   -4.2581   -2.8797    5.0813 H   0  0  0  0  0  0  0  0  0  0  0  0
   -2.3343   -0.5610    8.5023 H   0  0  0  0  0  0  0  0  0  0  0  0
   -0.4624    1.0402    8.7737 H   0  0  0  0  0  0  0  0  0  0  0  0
    0.8422    1.7681    6.7800 H   0  0  0  0  0  0  0  0  0  0  0  0
    0.1923    0.9962    4.6016 H   0  0  0  0  0  0  0  0  0  0  0  0
  1  2  1  0  0  0  0
  1 21  1  0  0  0  0
  1 35  1  0  0  0  0
  1 36  1  0  0  0  0
  2  3  1  0  0  0  0
  2 37  1  0  0  0  0
  2 38  1  0  0  0  0
  3  4  1  0  0  0  0
  3 39  1  0  0  0  0
  3 40  1  0  0  0  0
  4  5  1  0  0  0  0
  4 41  1  0  0  0  0
  4 42  1  0  0  0  0
  5  6  1  0  0  0  0
  5 43  1  0  0  0  0
  5 44  1  0  0  0  0
  6  7  1  0  0  0  0
  6 45  1  0  0  0  0
  7  8  2  0  0  0  0
  7 20  1  0  0  0  0
  8  9  1  0  0  0  0
  8 13  1  0  0  0  0
  9 10  1  0  0  0  0
  9 46  1  0  0  0  0
  9 47  1  0  0  0  0
 10 11  1  0  0  0  0
 10 48  1  0  0  0  0
 10 49  1  0  0  0  0
 11 12  1  0  0  0  0
 11 50  1  0  0  0  0
 11 51  1  0  0  0  0
 12 13  1  0  0  0  0
 12 52  1  0  0  0  0
 12 53  1  0  0  0  0
 13 14  2  0  0  0  0
 14 15  1  0  0  0  0
 15 16  2  0  0  0  0
 15 20  1  0  0  0  0
 16 17  1  0  0  0  0
 16 54  1  0  0  0  0
 17 18  2  0  0  0  0
 17 55  1  0  0  0  0
 18 19  1  0  0  0  0
 18 56  1  0  0  0  0
 19 20  2  0  0  0  0
 19 57  1  0  0  0  0
 21 22  1  0  0  0  0
 21 58  1  0  0  0  0
 21 59  1  0  0  0  0
 22 23  1  0  0  0  0
 22 60  1  0  0  0  0
 22 61  1  0  0  0  0
 23 24  1  0  0  0  0
 23 62  1  0  0  0  0
 23 63  1  0  0  0  0
 24 25  1  0  0  0  0
 24 64  1  0  0  0  0
 25 26  2  0  0  0  0
 25 34  1  0  0  0  0
 26 27  1  0  0  0  0
 26 65  1  0  0  0  0
 27 28  2  0  0  0  0
 27 66  1  0  0  0  0
 28 29  1  0  0  0  0
 29 30  2  0  0  0  0
 29 34  1  0  0  0  0
 30 31  1  0  0  0  0
 30 67  1  0  0  0  0
 31 32  2  0  0  0  0
 31 68  1  0  0  0  0
 32 33  1  0  0  0  0
 32 69  1  0  0  0  0
 33 34  2  0  0  0  0
 33 70  1  0  0  0  0
M  END
>  <DRUGBANK_ID>
DB04616

>  <COMMON_NAME>
TACRINE(8)-4-AMINOQUINOLINE

$$$$
