S27
 OpenBabel10282417173D

 53 54  0  0  0  0  0  0  0  0999 V2000
    3.3084   -0.0813   -1.6341 C   0  0  0  0  0  0  0  0  0  0  0  0
    3.2922    1.2347   -2.0774 C   0  0  0  0  0  0  0  0  0  0  0  0
    3.4937    1.5272   -3.4331 C   0  0  0  0  0  0  0  0  0  0  0  0
    3.7616    0.5179   -4.3446 C   0  0  0  0  0  0  0  0  0  0  0  0
    3.5800   -0.7793   -3.9412 C   0  0  0  0  0  0  0  0  0  0  0  0
    3.1851   -1.0502   -2.6288 C   0  0  0  0  0  0  0  0  0  0  0  0
    3.1355   -0.5411    0.2349 P   0  0  2  0  0  0  0  0  0  0  0  0
    1.6197   -0.2737    0.0666 O   0  0  0  0  0  0  0  0  0  0  0  0
    3.1589    1.1406    1.1253 C   0  0  0  0  0  0  0  0  0  0  0  0
    4.8780   -0.8487    0.4284 N   0  0  0  0  0  0  0  0  0  0  0  0
    5.4844   -0.3037    1.7507 C   0  0  0  0  0  0  0  0  0  0  0  0
    4.9473   -0.7714    3.1251 C   0  0  0  0  0  0  0  0  0  0  0  0
    5.3271   -2.0256    3.5681 C   0  0  0  0  0  0  0  0  0  0  0  0
    4.6112   -2.7080    4.5645 C   0  0  0  0  0  0  0  0  0  0  0  0
    3.6975   -2.0454    5.3537 C   0  0  0  0  0  0  0  0  0  0  0  0
    3.5634   -0.6824    5.1681 C   0  0  0  0  0  0  0  0  0  0  0  0
    4.1414   -0.0618    4.0399 C   0  0  0  0  0  0  0  0  0  0  0  0
    5.0515   -2.4209    0.4237 C   0  0  1  0  0  0  0  0  0  0  0  0
    4.1630   -3.3754    1.3262 C   0  0  0  0  0  0  0  0  0  0  0  0
    2.8735   -3.7490    0.9838 N   0  0  0  0  0  0  0  0  0  0  0  0
    2.2879   -4.5375    2.0432 O   0  0  0  0  0  0  0  0  0  0  0  0
    4.6766   -4.0691    2.2292 O   0  0  0  0  0  0  0  0  0  0  0  0
    4.8410   -3.0586   -0.9348 C   0  0  0  0  0  0  0  0  0  0  0  0
    5.6498   -2.4881   -2.0781 C   0  0  0  0  0  0  0  0  0  0  0  0
    7.1349   -2.6108   -1.8688 C   0  0  0  0  0  0  0  0  0  0  0  0
    5.2543   -3.2344   -3.3554 C   0  0  0  0  0  0  0  0  0  0  0  0
    6.0885   -2.6109    0.7177 H   0  0  0  0  0  0  0  0  0  0  0  0
    3.0422    2.0278   -1.3849 H   0  0  0  0  0  0  0  0  0  0  0  0
    3.4416    2.5492   -3.7825 H   0  0  0  0  0  0  0  0  0  0  0  0
    4.0306    0.7062   -5.3771 H   0  0  0  0  0  0  0  0  0  0  0  0
    3.7886   -1.5704   -4.6547 H   0  0  0  0  0  0  0  0  0  0  0  0
    2.8800   -2.0555   -2.3837 H   0  0  0  0  0  0  0  0  0  0  0  0
    3.3027    0.8822    2.1488 H   0  0  0  0  0  0  0  0  0  0  0  0
    3.9016    1.8411    0.7574 H   0  0  0  0  0  0  0  0  0  0  0  0
    2.1671    1.6069    1.1568 H   0  0  0  0  0  0  0  0  0  0  0  0
    6.5582   -0.5240    1.7256 H   0  0  0  0  0  0  0  0  0  0  0  0
    5.4704    0.7908    1.7183 H   0  0  0  0  0  0  0  0  0  0  0  0
    6.0910   -2.5625    3.0122 H   0  0  0  0  0  0  0  0  0  0  0  0
    4.7297   -3.7857    4.6589 H   0  0  0  0  0  0  0  0  0  0  0  0
    3.1412   -2.5831    6.1156 H   0  0  0  0  0  0  0  0  0  0  0  0
    2.9907   -0.1031    5.8878 H   0  0  0  0  0  0  0  0  0  0  0  0
    3.9077    0.9945    3.9257 H   0  0  0  0  0  0  0  0  0  0  0  0
    2.8670   -4.3407    0.1469 H   0  0  0  0  0  0  0  0  0  0  0  0
    2.8942   -4.3583    2.7988 H   0  0  0  0  0  0  0  0  0  0  0  0
    5.0281   -4.1378   -0.8702 H   0  0  0  0  0  0  0  0  0  0  0  0
    3.7723   -3.0095   -1.1300 H   0  0  0  0  0  0  0  0  0  0  0  0
    5.4879   -1.4110   -2.1569 H   0  0  0  0  0  0  0  0  0  0  0  0
    7.4097   -3.6647   -1.8289 H   0  0  0  0  0  0  0  0  0  0  0  0
    7.6440   -2.1233   -2.7045 H   0  0  0  0  0  0  0  0  0  0  0  0
    7.4495   -2.1095   -0.9507 H   0  0  0  0  0  0  0  0  0  0  0  0
    4.1752   -3.2544   -3.5356 H   0  0  0  0  0  0  0  0  0  0  0  0
    5.7434   -2.7738   -4.2172 H   0  0  0  0  0  0  0  0  0  0  0  0
    5.5186   -4.2898   -3.3010 H   0  0  0  0  0  0  0  0  0  0  0  0
  1  2  2  0  0  0  0
  1  6  1  0  0  0  0
  2  3  1  0  0  0  0
  2 28  1  0  0  0  0
  3  4  2  0  0  0  0
  3 29  1  0  0  0  0
  4  5  1  0  0  0  0
  4 30  1  0  0  0  0
  5  6  2  0  0  0  0
  5 31  1  0  0  0  0
  6 32  1  0  0  0  0
  7  9  1  0  0  0  0
  7 10  1  0  0  0  0
  7  8  2  1  0  0  0
  7  1  1  0  0  0  0
  9 33  1  0  0  0  0
  9 34  1  0  0  0  0
  9 35  1  0  0  0  0
 10 11  1  0  0  0  0
 11 12  1  0  0  0  0
 11 36  1  0  0  0  0
 11 37  1  0  0  0  0
 12 13  2  0  0  0  0
 12 17  1  0  0  0  0
 13 14  1  0  0  0  0
 13 38  1  0  0  0  0
 14 15  2  0  0  0  0
 14 39  1  0  0  0  0
 15 16  1  0  0  0  0
 15 40  1  0  0  0  0
 16 17  2  0  0  0  0
 16 41  1  0  0  0  0
 17 42  1  0  0  0  0
 18 10  1  0  0  0  0
 18 19  1  0  0  0  0
 18 23  1  0  0  0  0
 18 27  1  1  0  0  0
 19 20  1  0  0  0  0
 19 22  2  0  0  0  0
 20 21  1  0  0  0  0
 20 43  1  0  0  0  0
 21 44  1  0  0  0  0
 23 24  1  0  0  0  0
 23 45  1  0  0  0  0
 23 46  1  0  0  0  0
 24 25  1  0  0  0  0
 24 26  1  0  0  0  0
 24 47  1  0  0  0  0
 25 48  1  0  0  0  0
 25 49  1  0  0  0  0
 25 50  1  0  0  0  0
 26 51  1  0  0  0  0
 26 52  1  0  0  0  0
 26 53  1  0  0  0  0
M  END
>  <DRUGBANK_ID>
DB08507

>  <COMMON_NAME>
N-[[2-METHYL-4-HYDROXYCARBAMOYL]BUT-4-YL-N]-BENZYL-P-[PHENYL]-P-[METHYL]PHOSPHINAMID

$$$$
