
 OpenBabel10282417173D

 61 66  0  0  0  0  0  0  0  0999 V2000
    2.3275    0.7257   -0.0360 C   0  0  0  0  0  0  0  0  0  0  0  0
    1.0982    1.3259    0.0636 C   0  0  0  0  0  0  0  0  0  0  0  0
    2.3771   -0.6629   -0.0369 C   0  0  0  0  0  0  0  0  0  0  0  0
   -0.4205   -8.8490   -5.3001 C   0  0  0  0  0  0  0  0  0  0  0  0
   -0.8031   -9.4401   -6.5364 C   0  0  0  0  0  0  0  0  0  0  0  0
   -1.1270    0.1193   -0.9439 C   0  0  0  0  0  0  0  0  0  0  0  0
   -1.2794   -1.3711   -2.2932 C   0  0  0  0  0  0  0  0  0  0  0  0
   -0.4260   -5.2854   -2.8254 C   0  0  0  0  0  0  0  0  0  0  0  0
    1.9442   -5.1267    0.5503 C   0  0  0  0  0  0  0  0  0  0  0  0
   -0.5286   -6.3939   -1.9641 C   0  0  0  0  0  0  0  0  0  0  0  0
    2.0342   -3.6597    1.0140 C   0  0  0  0  0  0  0  0  0  0  0  0
    1.7355   -7.8376   -6.0350 C   0  0  0  0  0  0  0  0  0  0  0  0
   -0.7182   -2.4992   -1.4194 C   0  0  0  0  0  0  0  0  0  0  0  0
    0.9898  -10.3925   -7.4621 C   0  0  0  0  0  0  0  0  0  0  0  0
    1.5980   -3.8537   -4.2665 C   0  0  0  0  0  0  0  0  0  0  0  0
    1.2263   -7.4454   -3.9499 C   0  0  0  0  0  0  0  0  0  0  0  0
    2.5937   -5.5560   -4.9594 C   0  0  0  0  0  0  0  0  0  0  0  0
    0.7917   -8.2577   -5.0377 C   0  0  0  0  0  0  0  0  0  0  0  0
   -0.0547    0.2758   -0.1082 C   0  0  0  0  0  0  0  0  0  0  0  0
    0.2107   -8.5203   -7.0552 C   0  0  2  0  0  0  0  0  0  0  0  0
    1.1267   -5.0021   -3.5314 C   0  0  0  0  0  0  0  0  0  0  0  0
   -0.9671   -3.2031   -3.2300 C   0  0  0  0  0  0  0  0  0  0  0  0
    0.0027   -1.1368   -0.3147 C   0  0  0  0  0  0  0  0  0  0  0  0
    0.7485   -5.1729   -0.3471 C   0  0  1  0  0  0  0  0  0  0  0  0
    1.2490   -1.5002    0.0065 C   0  0  0  0  0  0  0  0  0  0  0  0
    0.1603   -6.5856   -5.8726 C   0  0  3  0  0  0  0  0  0  0  0  0
    1.0524   -3.7686   -0.9314 C   0  0  0  0  0  0  0  0  0  0  0  0
    1.3833  -11.5534   -7.7423 N   0  0  0  0  0  0  0  0  0  0  0  0
    2.5651   -4.2576   -5.1083 N   0  0  0  0  0  0  0  0  0  0  0  0
    0.7126   -6.3917   -1.2088 N   0  0  0  0  0  0  0  0  0  0  0  0
    1.7000   -6.0716   -4.0822 N   0  0  0  0  0  0  0  0  0  0  0  0
    1.3776   -2.8969    0.0607 N   0  0  0  0  0  0  0  0  0  0  0  0
    1.1036   -3.3248   -2.0552 O   0  0  0  0  0  0  0  0  0  0  0  0
   -0.4699   -4.6984   -4.7018 O   0  0  0  0  0  0  0  0  0  0  0  0
    0.0053   -8.8283   -8.3194 H   0  0  0  0  0  0  0  0  0  0  0  0
   -0.1972   -5.2093    0.2094 H   0  0  0  0  0  0  0  0  0  0  0  0
    0.7661   -7.0095   -7.1744 H   0  0  0  0  0  0  0  0  0  0  0  0
    3.2617    1.2621   -0.1084 H   0  0  0  0  0  0  0  0  0  0  0  0
    1.1300    2.4401    0.0271 H   0  0  0  0  0  0  0  0  0  0  0  0
    3.3298   -1.1516   -0.1486 H   0  0  0  0  0  0  0  0  0  0  0  0
   -1.2742   -8.7150   -4.6989 H   0  0  0  0  0  0  0  0  0  0  0  0
   -1.5383   -9.0356   -7.1818 H   0  0  0  0  0  0  0  0  0  0  0  0
   -0.8092  -10.5462   -6.3622 H   0  0  0  0  0  0  0  0  0  0  0  0
   -1.4800    1.3849   -0.1589 H   0  0  0  0  0  0  0  0  0  0  0  0
   -2.3206   -0.5552   -1.5906 H   0  0  0  0  0  0  0  0  0  0  0  0
   -1.4662   -5.0768   -3.3697 H   0  0  0  0  0  0  0  0  0  0  0  0
   -0.4115   -4.6064   -2.0495 H   0  0  0  0  0  0  0  0  0  0  0  0
    2.8500   -5.4291    0.0108 H   0  0  0  0  0  0  0  0  0  0  0  0
    1.8251   -5.8033    1.3855 H   0  0  0  0  0  0  0  0  0  0  0  0
   -0.8003   -7.1626   -2.6273 H   0  0  0  0  0  0  0  0  0  0  0  0
   -1.4525   -6.2853   -1.4410 H   0  0  0  0  0  0  0  0  0  0  0  0
    1.5530   -3.5321    1.9751 H   0  0  0  0  0  0  0  0  0  0  0  0
    3.0649   -3.3387    1.0656 H   0  0  0  0  0  0  0  0  0  0  0  0
    2.5981   -8.6547   -5.7845 H   0  0  0  0  0  0  0  0  0  0  0  0
    2.2981   -7.1773   -6.6837 H   0  0  0  0  0  0  0  0  0  0  0  0
   -1.2136   -2.6463   -0.0900 H   0  0  0  0  0  0  0  0  0  0  0  0
    1.1967   -2.8217   -4.1966 H   0  0  0  0  0  0  0  0  0  0  0  0
    1.9571   -7.9706   -3.4356 H   0  0  0  0  0  0  0  0  0  0  0  0
    0.3071   -7.5377   -3.5113 H   0  0  0  0  0  0  0  0  0  0  0  0
    3.2239   -6.2372   -5.4726 H   0  0  0  0  0  0  0  0  0  0  0  0
    1.5201   -6.3117   -1.8368 H   0  0  0  0  0  0  0  0  0  0  0  0
  1 38  1  0  0  0  0
  2  1  2  0  0  0  0
  2 39  1  0  0  0  0
  3  1  1  0  0  0  0
  3 40  1  0  0  0  0
  4 41  1  0  0  0  0
  5  4  1  0  0  0  0
  5 42  1  0  0  0  0
  5 43  1  0  0  0  0
  6 44  1  0  0  0  0
  7  6  2  0  0  0  0
  7 45  1  0  0  0  0
  8 46  1  0  0  0  0
  8 47  1  0  0  0  0
  9 48  1  0  0  0  0
  9 49  1  0  0  0  0
 10  8  1  0  0  0  0
 10 50  1  0  0  0  0
 10 51  1  0  0  0  0
 11  9  1  0  0  0  0
 11 52  1  0  0  0  0
 11 53  1  0  0  0  0
 12 54  1  0  0  0  0
 12 55  1  0  0  0  0
 13 56  1  0  0  0  0
 15 57  1  0  0  0  0
 16 58  1  0  0  0  0
 16 59  1  0  0  0  0
 17 60  1  0  0  0  0
 18  4  2  0  0  0  0
 18 12  1  0  0  0  0
 18 16  1  0  0  0  0
 19  2  1  0  0  0  0
 19  6  1  0  0  0  0
 20  5  1  0  0  0  0
 20 26  1  0  0  0  0
 20 35  1  6  0  0  0
 20 14  1  0  0  0  0
 21  8  1  0  0  0  0
 21 15  2  0  0  0  0
 22  7  1  0  0  0  0
 22 13  2  0  0  0  0
 23 13  1  0  0  0  0
 23 19  2  0  0  0  0
 24  9  1  0  0  0  0
 24 27  1  0  0  0  0
 24 30  1  0  0  0  0
 24 36  1  1  0  0  0
 25  3  2  0  0  0  0
 25 23  1  0  0  0  0
 26 12  1  0  0  0  0
 28 14  3  0  0  0  0
 29 15  1  0  0  0  0
 29 17  2  0  0  0  0
 30 10  1  0  0  0  0
 30 61  1  0  0  0  0
 31 16  1  0  0  0  0
 31 17  1  0  0  0  0
 31 21  1  0  0  0  0
 32 11  1  0  0  0  0
 32 25  1  0  0  0  0
 32 27  1  0  0  0  0
 33 27  2  0  0  0  0
 34 22  1  0  0  0  0
 34 26  1  0  0  0  0
 37 26  1  0  0  0  0
M  END
>  <DRUGBANK_ID>
DB08676

>  <COMMON_NAME>
(20S)-19,20,22,23-TETRAHYDRO-19-OXO-5H,21H-18,20-ETHANO-12,14-ETHENO-6,10-METHENOBENZ[D]IMIDAZO[4,3-L][1,6,9,13]OXATRIAZACYCLONOADECOSINE-9-CARBONITRILE

$$$$
