I48
 OpenBabel10282417173D

 49 51  0  0  0  0  0  0  0  0999 V2000
    1.5037    0.0133    0.0935 N   0  3  0  0  0  0  0  0  0  0  0  0
    0.7432    1.0853    0.3333 C   0  0  0  0  0  0  0  0  0  0  0  0
   -0.5942    0.8996    0.6588 C   0  0  0  0  0  0  0  0  0  0  0  0
   -1.1460   -0.3915    0.6700 C   0  0  0  0  0  0  0  0  0  0  0  0
   -0.3372   -1.4445    0.3234 C   0  0  0  0  0  0  0  0  0  0  0  0
    0.9998   -1.2264    0.0856 C   0  0  0  0  0  0  0  0  0  0  0  0
   -2.4775   -0.5751    0.8795 N   0  0  0  0  0  0  0  0  0  0  0  0
   -3.3060   -1.7671    0.9691 C   0  0  0  0  0  0  0  0  0  0  0  0
   -4.4808   -1.4688    1.8801 C   0  0  0  0  0  0  0  0  0  0  0  0
   -5.3826   -0.4270    1.3845 O   0  0  0  0  0  0  0  0  0  0  0  0
   -5.0392    0.8983    1.3428 C   0  0  0  0  0  0  0  0  0  0  0  0
   -4.1587    1.4489    0.4033 C   0  0  0  0  0  0  0  0  0  0  0  0
   -3.7475    2.7498    0.2190 C   0  0  0  0  0  0  0  0  0  0  0  0
   -4.2941    3.6282    1.1483 C   0  0  0  0  0  0  0  0  0  0  0  0
   -5.2992    3.1569    2.0640 C   0  0  0  0  0  0  0  0  0  0  0  0
   -5.6917    1.7999    2.1265 C   0  0  0  0  0  0  0  0  0  0  0  0
   -6.0083    4.0939    2.9937 C   0  0  0  0  0  0  0  0  0  0  0  0
   -2.7134    3.0473   -0.7747 N   0  0  0  0  0  0  0  0  0  0  0  0
   -2.0756    2.0942   -2.1254 S   0  0  0  0  0  0  0  0  0  0  0  0
   -2.4847    2.7639   -3.3631 O   0  0  0  0  0  0  0  0  0  0  0  0
   -0.6579    2.0113   -1.8698 O   0  0  0  0  0  0  0  0  0  0  0  0
   -2.6634    0.3688   -2.3010 C   0  0  0  0  0  0  0  0  0  0  0  0
   -1.7515   -0.7059   -2.4619 C   0  0  0  0  0  0  0  0  0  0  0  0
   -2.1702   -2.0443   -2.2926 C   0  0  0  0  0  0  0  0  0  0  0  0
   -3.4926   -2.3110   -1.9663 C   0  0  0  0  0  0  0  0  0  0  0  0
   -4.4053   -1.2462   -1.8710 C   0  0  0  0  0  0  0  0  0  0  0  0
   -4.0179    0.0680   -2.1514 C   0  0  0  0  0  0  0  0  0  0  0  0
    2.4876    0.1522   -0.1262 H   0  0  0  0  0  0  0  0  0  0  0  0
    1.1935    2.0637    0.1850 H   0  0  0  0  0  0  0  0  0  0  0  0
   -1.2005    1.7955    0.7814 H   0  0  0  0  0  0  0  0  0  0  0  0
   -0.7642   -2.4314    0.2022 H   0  0  0  0  0  0  0  0  0  0  0  0
    1.6652   -2.0462   -0.1385 H   0  0  0  0  0  0  0  0  0  0  0  0
   -2.8386    0.1470    1.4922 H   0  0  0  0  0  0  0  0  0  0  0  0
   -3.8888   -2.0481    0.1188 H   0  0  0  0  0  0  0  0  0  0  0  0
   -2.7123   -2.6643    1.1458 H   0  0  0  0  0  0  0  0  0  0  0  0
   -5.0877   -2.3870    1.8835 H   0  0  0  0  0  0  0  0  0  0  0  0
   -4.1050   -1.2869    2.8845 H   0  0  0  0  0  0  0  0  0  0  0  0
   -3.6350    0.7843   -0.2158 H   0  0  0  0  0  0  0  0  0  0  0  0
   -4.0034    4.6769    1.1955 H   0  0  0  0  0  0  0  0  0  0  0  0
   -6.4914    1.4544    2.7779 H   0  0  0  0  0  0  0  0  0  0  0  0
   -7.0791    4.0942    2.7623 H   0  0  0  0  0  0  0  0  0  0  0  0
   -5.8611    3.7636    4.0277 H   0  0  0  0  0  0  0  0  0  0  0  0
   -5.6236    5.1085    2.8880 H   0  0  0  0  0  0  0  0  0  0  0  0
   -2.3008    3.9869   -0.7516 H   0  0  0  0  0  0  0  0  0  0  0  0
   -0.6933   -0.5289   -2.6288 H   0  0  0  0  0  0  0  0  0  0  0  0
   -1.4561   -2.8687   -2.2526 H   0  0  0  0  0  0  0  0  0  0  0  0
   -3.7453   -3.2942   -1.5507 H   0  0  0  0  0  0  0  0  0  0  0  0
   -5.3376   -1.3706   -1.3032 H   0  0  0  0  0  0  0  0  0  0  0  0
   -4.7496    0.8515   -1.9571 H   0  0  0  0  0  0  0  0  0  0  0  0
  1  2  1  0  0  0  0
  1  6  2  0  0  0  0
  1 28  1  0  0  0  0
  2  3  2  0  0  0  0
  2 29  1  0  0  0  0
  3  4  1  0  0  0  0
  3 30  1  0  0  0  0
  4  5  2  0  0  0  0
  4  7  1  0  0  0  0
  5  6  1  0  0  0  0
  5 31  1  0  0  0  0
  6 32  1  0  0  0  0
  7  8  1  0  0  0  0
  7 33  1  0  0  0  0
  8  9  1  0  0  0  0
  8 34  1  0  0  0  0
  8 35  1  0  0  0  0
  9 10  1  0  0  0  0
  9 36  1  0  0  0  0
  9 37  1  0  0  0  0
 10 11  1  0  0  0  0
 11 12  2  0  0  0  0
 11 16  1  0  0  0  0
 12 13  1  0  0  0  0
 12 38  1  0  0  0  0
 13 14  2  0  0  0  0
 13 18  1  0  0  0  0
 14 15  1  0  0  0  0
 14 39  1  0  0  0  0
 15 16  2  0  0  0  0
 15 17  1  0  0  0  0
 16 40  1  0  0  0  0
 17 41  1  0  0  0  0
 17 42  1  0  0  0  0
 17 43  1  0  0  0  0
 18 19  1  0  0  0  0
 18 44  1  0  0  0  0
 19 20  2  0  0  0  0
 19 21  2  0  0  0  0
 19 22  1  0  0  0  0
 22 23  2  0  0  0  0
 22 27  1  0  0  0  0
 23 24  1  0  0  0  0
 23 45  1  0  0  0  0
 24 25  2  0  0  0  0
 24 46  1  0  0  0  0
 25 26  1  0  0  0  0
 25 47  1  0  0  0  0
 26 27  2  0  0  0  0
 26 48  1  0  0  0  0
 27 49  1  0  0  0  0
M  CHG  1   1   1
M  END
>  <DRUGBANK_ID>
DB07944

>  <COMMON_NAME>
N-{3-METHYL-5-[2-(PYRIDIN-4-YLAMINO)-ETHOXY]-PHENYL}-BENZENESULFONAMIDE

$$$$
