
 OpenBabel10282417153D

 41 43  0  0  0  0  0  0  0  0999 V2000
    0.7298   -0.0677    0.0036 C   0  0  0  0  0  0  0  0  0  0  0  0
    3.3818    0.9648    1.8652 C   0  0  0  0  0  0  0  0  0  0  0  0
    3.3217    0.3113    3.0986 C   0  0  0  0  0  0  0  0  0  0  0  0
    2.9695    2.9658    0.3864 C   0  0  0  0  0  0  0  0  0  0  0  0
    1.2435    2.4915    5.1976 C   0  0  0  0  0  0  0  0  0  0  0  0
    0.1920   -0.9556    1.1306 C   0  0  0  0  0  0  0  0  0  0  0  0
    0.3211    1.4013    0.0810 C   0  0  0  0  0  0  0  0  0  0  0  0
    2.3802    2.2805   -0.8593 C   0  0  0  0  0  0  0  0  0  0  0  0
    1.1960    1.4733    6.1073 C   0  0  0  0  0  0  0  0  0  0  0  0
    2.2055    2.8491    2.8064 C   0  0  0  0  0  0  0  0  0  0  0  0
    0.8008   -1.6049    3.4016 C   0  0  0  0  0  0  0  0  0  0  0  0
   -0.4930    0.0571    3.2489 C   0  0  0  0  0  0  0  0  0  0  0  0
    2.8649    2.2500    1.7141 C   0  0  0  0  0  0  0  0  0  0  0  0
    2.0645    2.1878    4.0490 C   0  0  0  0  0  0  0  0  0  0  0  0
   -0.5030   -1.2185    4.1138 C   0  0  0  0  0  0  0  0  0  0  0  0
    2.6820    0.9370    4.1962 C   0  0  0  0  0  0  0  0  0  0  0  0
    0.6128   -0.4944    2.4475 N   0  0  0  0  0  0  0  0  0  0  0  0
   -1.5936   -2.1285    3.8804 O   0  0  0  0  0  0  0  0  0  0  0  0
    0.9522    2.2131   -0.9141 O   0  0  0  0  0  0  0  0  0  0  0  0
    2.4202    0.3209    5.7976 S   0  0  0  0  0  0  0  0  0  0  0  0
    0.3913   -0.4698   -0.9583 H   0  0  0  0  0  0  0  0  0  0  0  0
    1.8159   -0.1815   -0.0328 H   0  0  0  0  0  0  0  0  0  0  0  0
    3.7547    0.4188    1.0013 H   0  0  0  0  0  0  0  0  0  0  0  0
    3.5852   -0.7465    3.1338 H   0  0  0  0  0  0  0  0  0  0  0  0
    4.0439    3.1069    0.2124 H   0  0  0  0  0  0  0  0  0  0  0  0
    2.5288    3.9647    0.4787 H   0  0  0  0  0  0  0  0  0  0  0  0
    0.5879    3.3612    5.2508 H   0  0  0  0  0  0  0  0  0  0  0  0
   -0.8929   -1.0547    1.0471 H   0  0  0  0  0  0  0  0  0  0  0  0
    0.6232   -1.9465    0.9472 H   0  0  0  0  0  0  0  0  0  0  0  0
   -0.7581    1.4767   -0.0874 H   0  0  0  0  0  0  0  0  0  0  0  0
    0.4795    1.8475    1.0600 H   0  0  0  0  0  0  0  0  0  0  0  0
    2.8205    1.2976   -1.0510 H   0  0  0  0  0  0  0  0  0  0  0  0
    2.6730    2.8884   -1.7258 H   0  0  0  0  0  0  0  0  0  0  0  0
    0.5241    1.3609    6.9578 H   0  0  0  0  0  0  0  0  0  0  0  0
    1.6882    3.7993    2.6675 H   0  0  0  0  0  0  0  0  0  0  0  0
    1.6795   -1.5481    4.0461 H   0  0  0  0  0  0  0  0  0  0  0  0
    0.8596   -2.6107    2.9782 H   0  0  0  0  0  0  0  0  0  0  0  0
   -1.4185    0.3072    2.7234 H   0  0  0  0  0  0  0  0  0  0  0  0
   -0.2448    0.9606    3.8052 H   0  0  0  0  0  0  0  0  0  0  0  0
   -0.3895   -1.0245    5.1880 H   0  0  0  0  0  0  0  0  0  0  0  0
   -1.5056   -2.3223    2.9311 H   0  0  0  0  0  0  0  0  0  0  0  0
  1 21  1  0  0  0  0
  1 22  1  0  0  0  0
  2 23  1  0  0  0  0
  3  2  2  0  0  0  0
  3 24  1  0  0  0  0
  4 25  1  0  0  0  0
  4 26  1  0  0  0  0
  5 27  1  0  0  0  0
  6  1  1  0  0  0  0
  6 28  1  0  0  0  0
  6 29  1  0  0  0  0
  7  1  1  0  0  0  0
  7 30  1  0  0  0  0
  7 31  1  0  0  0  0
  8  4  1  0  0  0  0
  8 32  1  0  0  0  0
  8 33  1  0  0  0  0
  9  5  2  0  0  0  0
  9 34  1  0  0  0  0
 10 35  1  0  0  0  0
 11 36  1  0  0  0  0
 11 37  1  0  0  0  0
 12 38  1  0  0  0  0
 12 39  1  0  0  0  0
 13  2  1  0  0  0  0
 13  4  1  0  0  0  0
 13 10  2  0  0  0  0
 14  5  1  0  0  0  0
 14 10  1  0  0  0  0
 15 11  1  0  0  0  0
 15 12  1  0  0  0  0
 15 40  1  0  0  0  0
 16  3  1  0  0  0  0
 16 14  2  0  0  0  0
 17  6  1  0  0  0  0
 17 11  1  0  0  0  0
 17 12  1  0  0  0  0
 18 15  1  0  0  0  0
 18 41  1  0  0  0  0
 19  7  1  0  0  0  0
 19  8  1  0  0  0  0
 20  9  1  0  0  0  0
 20 16  1  0  0  0  0
M  END
>  <DRUGBANK_ID>
DB05938

>  <COMMON_NAME>
Edonerpic

>  <CAS_NUMBER>
519187-23-6

>  <UNII>
QY49O94S2W

>  <SYNONYMS>
Edonerpic

$$$$
