
 OpenBabel10282417123D

 46 49  0  0  0  0  0  0  0  0999 V2000
    3.1819    0.1171    0.0492 O   0  0  0  0  0  0  0  0  0  0  0  0
   11.6207   -4.1143   -0.1532 O   0  0  0  0  0  0  0  0  0  0  0  0
    6.8608   -4.0833   -1.3013 N   0  0  0  0  0  0  0  0  0  0  0  0
    9.3602   -4.5954   -0.0338 N   0  0  0  0  0  0  0  0  0  0  0  0
    1.0825    1.0750   -0.0100 N   0  0  0  0  0  0  0  0  0  0  0  0
    1.1298   -1.2915    0.0045 C   0  0  3  0  0  0  0  0  0  0  0  0
    7.2927   -5.4730   -1.1054 C   0  0  0  0  0  0  0  0  0  0  0  0
    7.9447   -3.0883   -1.4042 C   0  0  0  0  0  0  0  0  0  0  0  0
    1.4523   -2.1519   -1.2151 C   0  0  0  0  0  0  0  0  0  0  0  0
    8.2848   -5.5845    0.0751 C   0  0  0  0  0  0  0  0  0  0  0  0
    8.9019   -3.2149   -0.1967 C   0  0  0  0  0  0  0  0  0  0  0  0
   -0.2790   -0.7470   -0.0098 C   0  0  0  0  0  0  0  0  0  0  0  0
    5.5431   -3.6770   -1.2926 C   0  0  0  0  0  0  0  0  0  0  0  0
    2.8733   -2.6690   -1.2277 C   0  0  0  0  0  0  0  0  0  0  0  0
    1.9636    0.0071    0.0138 C   0  0  0  0  0  0  0  0  0  0  0  0
   -0.2321    0.6462   -0.0133 C   0  0  0  0  0  0  0  0  0  0  0  0
    4.6860   -3.9543   -0.2227 C   0  0  0  0  0  0  0  0  0  0  0  0
    5.0218   -2.9010   -2.3380 C   0  0  0  0  0  0  0  0  0  0  0  0
    3.3732   -3.4553   -0.1841 C   0  0  0  0  0  0  0  0  0  0  0  0
    3.7243   -2.3707   -2.2935 C   0  0  0  0  0  0  0  0  0  0  0  0
   -1.4955   -1.4068    0.0072 C   0  0  0  0  0  0  0  0  0  0  0  0
   -1.3636    1.4309   -0.0134 C   0  0  0  0  0  0  0  0  0  0  0  0
   10.6979   -4.9115   -0.0379 C   0  0  0  0  0  0  0  0  0  0  0  0
   -2.6608   -0.6320    0.0097 C   0  0  0  0  0  0  0  0  0  0  0  0
   -2.5950    0.7741   -0.0039 C   0  0  0  0  0  0  0  0  0  0  0  0
    1.3976    2.0327   -0.0046 H   0  0  0  0  0  0  0  0  0  0  0  0
    1.2960   -1.8191    0.9497 H   0  0  0  0  0  0  0  0  0  0  0  0
    6.4507   -6.1593   -0.9689 H   0  0  0  0  0  0  0  0  0  0  0  0
    7.8134   -5.7796   -2.0225 H   0  0  0  0  0  0  0  0  0  0  0  0
    8.5024   -3.2923   -2.3256 H   0  0  0  0  0  0  0  0  0  0  0  0
    7.5658   -2.0620   -1.4572 H   0  0  0  0  0  0  0  0  0  0  0  0
    0.7820   -3.0220   -1.2502 H   0  0  0  0  0  0  0  0  0  0  0  0
    1.2475   -1.5917   -2.1393 H   0  0  0  0  0  0  0  0  0  0  0  0
    7.7597   -5.3685    1.0127 H   0  0  0  0  0  0  0  0  0  0  0  0
    8.7007   -6.5950    0.1413 H   0  0  0  0  0  0  0  0  0  0  0  0
    8.3766   -2.9539    0.7302 H   0  0  0  0  0  0  0  0  0  0  0  0
    9.7502   -2.5326   -0.3063 H   0  0  0  0  0  0  0  0  0  0  0  0
    5.0454   -4.5243    0.6285 H   0  0  0  0  0  0  0  0  0  0  0  0
    5.6262   -2.7124   -3.2215 H   0  0  0  0  0  0  0  0  0  0  0  0
    2.7604   -3.6601    0.6905 H   0  0  0  0  0  0  0  0  0  0  0  0
    3.3979   -1.7025   -3.0876 H   0  0  0  0  0  0  0  0  0  0  0  0
   -1.5551   -2.4904    0.0229 H   0  0  0  0  0  0  0  0  0  0  0  0
   -1.3063    2.5128   -0.0175 H   0  0  0  0  0  0  0  0  0  0  0  0
   10.8918   -5.9911    0.0737 H   0  0  0  0  0  0  0  0  0  0  0  0
   -3.6334   -1.1201    0.0246 H   0  0  0  0  0  0  0  0  0  0  0  0
   -3.5148    1.3545   -0.0050 H   0  0  0  0  0  0  0  0  0  0  0  0
  1 15  2  0  0  0  0
  2 23  2  0  0  0  0
  3  7  1  0  0  0  0
  3  8  1  0  0  0  0
  3 13  1  0  0  0  0
  4 10  1  0  0  0  0
  4 11  1  0  0  0  0
  4 23  1  0  0  0  0
  5 15  1  0  0  0  0
  5 16  1  0  0  0  0
  5 26  1  0  0  0  0
  6  9  1  0  0  0  0
  6 12  1  0  0  0  0
  6 15  1  0  0  0  0
  6 27  1  0  0  0  0
  7 10  1  0  0  0  0
  7 28  1  0  0  0  0
  7 29  1  0  0  0  0
  8 11  1  0  0  0  0
  8 30  1  0  0  0  0
  8 31  1  0  0  0  0
  9 14  1  0  0  0  0
  9 32  1  0  0  0  0
  9 33  1  0  0  0  0
 10 34  1  0  0  0  0
 10 35  1  0  0  0  0
 11 36  1  0  0  0  0
 11 37  1  0  0  0  0
 12 16  1  0  0  0  0
 12 21  2  0  0  0  0
 13 17  2  0  0  0  0
 13 18  1  0  0  0  0
 14 19  2  0  0  0  0
 14 20  1  0  0  0  0
 16 22  2  0  0  0  0
 17 19  1  0  0  0  0
 17 38  1  0  0  0  0
 18 20  2  0  0  0  0
 18 39  1  0  0  0  0
 19 40  1  0  0  0  0
 20 41  1  0  0  0  0
 21 24  1  0  0  0  0
 21 42  1  0  0  0  0
 22 25  1  0  0  0  0
 22 43  1  0  0  0  0
 23 44  1  0  0  0  0
 24 25  2  0  0  0  0
 24 45  1  0  0  0  0
 25 46  1  0  0  0  0
M  END
>  <DRUGBANK_ID>
DB02058

>  <SECONDARY_ACCESSION_NUMBERS>
EXPT02973

>  <COMMON_NAME>
3-[4-(1-formylpiperazin-4-yl)-benzylidenyl]-2-indolinone

$$$$
