CBT
 OpenBabel10282417133D

 35 37  0  0  0  0  0  0  0  0999 V2000
   -2.0901   -0.0132   -0.0021 Cl  0  0  0  0  0  0  0  0  0  0  0  0
   -0.3698   -0.0172   -0.0294 C   0  0  0  0  0  0  0  0  0  0  0  0
    0.3242    1.1886   -0.0574 C   0  0  0  0  0  0  0  0  0  0  0  0
    1.7223    1.1827   -0.0834 C   0  0  0  0  0  0  0  0  0  0  0  0
    0.3222   -1.2257   -0.0253 C   0  0  0  0  0  0  0  0  0  0  0  0
    1.7203   -1.2290   -0.0174 C   0  0  0  0  0  0  0  0  0  0  0  0
    2.4400   -0.0242   -0.0248 C   0  0  0  0  0  0  0  0  0  0  0  0
    3.9619   -0.0343    0.0532 C   0  0  0  0  0  0  0  0  0  0  0  0
    4.4365   -0.6914    1.2687 N   0  0  0  0  0  0  0  0  0  0  0  0
    5.1818   -1.8184    1.1840 C   0  0  0  0  0  0  0  0  0  0  0  0
    5.0847   -2.9013    1.9610 N   0  0  0  0  0  0  0  0  0  0  0  0
    6.0491   -3.6672    1.4299 N   0  0  0  0  0  0  0  0  0  0  0  0
    6.7511   -3.1187    0.4350 N   0  0  0  0  0  0  0  0  0  0  0  0
    6.1829   -1.9353    0.2467 N   0  0  0  0  0  0  0  0  0  0  0  0
    4.0208   -0.1986    2.5755 C   0  0  0  0  0  0  0  0  0  0  0  0
    4.4988    1.2260    2.8020 C   0  0  0  0  0  0  0  0  0  0  0  0
    5.7890    1.4846    3.2844 C   0  0  0  0  0  0  0  0  0  0  0  0
    6.2285    2.8013    3.4605 C   0  0  0  0  0  0  0  0  0  0  0  0
    5.3953    3.8663    3.1222 C   0  0  0  0  0  0  0  0  0  0  0  0
    5.9327    5.4855    3.3412 Cl  0  0  0  0  0  0  0  0  0  0  0  0
    4.1205    3.6282    2.6226 C   0  0  0  0  0  0  0  0  0  0  0  0
    3.6689    2.3149    2.4946 C   0  0  0  0  0  0  0  0  0  0  0  0
   -0.2143    2.1333   -0.0552 H   0  0  0  0  0  0  0  0  0  0  0  0
    2.2462    2.1363   -0.1157 H   0  0  0  0  0  0  0  0  0  0  0  0
   -0.2176   -2.1685   -0.0176 H   0  0  0  0  0  0  0  0  0  0  0  0
    2.2514   -2.1785    0.0131 H   0  0  0  0  0  0  0  0  0  0  0  0
    4.3331   -0.5240   -0.8566 H   0  0  0  0  0  0  0  0  0  0  0  0
    4.3505    0.9901    0.0135 H   0  0  0  0  0  0  0  0  0  0  0  0
    6.2358   -4.6109    1.7565 H   0  0  0  0  0  0  0  0  0  0  0  0
    2.9306   -0.2491    2.6821 H   0  0  0  0  0  0  0  0  0  0  0  0
    4.4162   -0.8161    3.3936 H   0  0  0  0  0  0  0  0  0  0  0  0
    6.4560    0.6608    3.5308 H   0  0  0  0  0  0  0  0  0  0  0  0
    7.2223    2.9889    3.8573 H   0  0  0  0  0  0  0  0  0  0  0  0
    3.4708    4.4522    2.3404 H   0  0  0  0  0  0  0  0  0  0  0  0
    2.6562    2.1453    2.1466 H   0  0  0  0  0  0  0  0  0  0  0  0
  1  2  1  0  0  0  0
  2  3  2  0  0  0  0
  2  5  1  0  0  0  0
  3  4  1  0  0  0  0
  3 23  1  0  0  0  0
  4  7  2  0  0  0  0
  4 24  1  0  0  0  0
  5  6  2  0  0  0  0
  5 25  1  0  0  0  0
  6  7  1  0  0  0  0
  6 26  1  0  0  0  0
  7  8  1  0  0  0  0
  8  9  1  0  0  0  0
  8 27  1  0  0  0  0
  8 28  1  0  0  0  0
  9 10  1  0  0  0  0
  9 15  1  0  0  0  0
 10 11  2  0  0  0  0
 10 14  1  0  0  0  0
 11 12  1  0  0  0  0
 12 13  1  0  0  0  0
 12 29  1  0  0  0  0
 13 14  2  0  0  0  0
 15 16  1  0  0  0  0
 15 30  1  0  0  0  0
 15 31  1  0  0  0  0
 16 17  2  0  0  0  0
 16 22  1  0  0  0  0
 17 18  1  0  0  0  0
 17 32  1  0  0  0  0
 18 19  2  0  0  0  0
 18 33  1  0  0  0  0
 19 20  1  0  0  0  0
 19 21  1  0  0  0  0
 21 22  2  0  0  0  0
 21 34  1  0  0  0  0
 22 35  1  0  0  0  0
M  END
>  <DRUGBANK_ID>
DB04037

>  <SECONDARY_ACCESSION_NUMBERS>
EXPT00852

>  <COMMON_NAME>
N,N-Bis(4-Chlorobenzyl)-1h-1,2,3,4-Tetraazol-5-Amine

$$$$
