1132
 OpenBabel10282417113D

 45 47  0  0  1  0  0  0  0  0999 V2000
   -1.1396    0.9160   -0.3998 S   0  0  0  0  0  0  0  0  0  0  0  0
   -0.6339    7.4117   -1.0839 O   0  0  0  0  0  0  0  0  0  0  0  0
    2.4720   -0.4306   -0.1106 O   0  0  0  0  0  0  0  0  0  0  0  0
   -1.9346   -1.5216    0.0577 O   0  0  0  0  0  0  0  0  0  0  0  0
    0.3194   -1.1581   -0.0792 N   0  0  0  0  0  0  0  0  0  0  0  0
    0.7840    6.1740    2.4697 N   0  0  0  0  0  0  0  0  0  0  0  0
    0.6487    1.1747   -0.3767 C   0  0  3  0  0  0  0  0  0  0  0  0
    1.2297    2.0273   -1.4978 C   0  0  0  0  0  0  0  0  0  0  0  0
    0.8201    3.4889   -1.4771 C   0  0  0  0  0  0  0  0  0  0  0  0
    1.2733   -0.1963   -0.2067 C   0  0  0  0  0  0  0  0  0  0  0  0
    1.3865    4.3972   -0.5900 C   0  0  0  0  0  0  0  0  0  0  0  0
   -0.0716    4.0240   -2.3958 C   0  0  0  0  0  0  0  0  0  0  0  0
   -1.0230    7.5060    1.4473 C   0  0  0  0  0  0  0  0  0  0  0  0
   -0.0046    6.2181   -1.3062 C   0  0  0  0  0  0  0  0  0  0  0  0
   -0.3756    8.1018    0.1675 C   0  0  0  0  0  0  0  0  0  0  0  0
    1.0200    5.7408   -0.5327 C   0  0  0  0  0  0  0  0  0  0  0  0
   -0.4400    5.3885   -2.3385 C   0  0  0  0  0  0  0  0  0  0  0  0
   -0.4701    6.1841    1.9429 C   0  0  0  0  0  0  0  0  0  0  0  0
   -0.9912   -0.7893   -0.0901 C   0  0  0  0  0  0  0  0  0  0  0  0
    0.8022    3.7305    2.3826 C   0  0  0  0  0  0  0  0  0  0  0  0
   -1.1534    5.0057    1.6614 C   0  0  0  0  0  0  0  0  0  0  0  0
    1.6281    2.4601    2.5216 C   0  0  0  0  0  0  0  0  0  0  0  0
   -0.5245    3.7773    1.9155 C   0  0  0  0  0  0  0  0  0  0  0  0
    1.3948    4.9650    2.6196 C   0  0  0  0  0  0  0  0  0  0  0  0
    2.8816    2.3065    1.6142 C   0  0  0  0  0  0  0  0  0  0  0  0
    0.5671   -2.1263    0.0376 H   0  0  0  0  0  0  0  0  0  0  0  0
    0.8003    1.6782    0.5500 H   0  0  0  0  0  0  0  0  0  0  0  0
    2.3282    2.0097   -1.4566 H   0  0  0  0  0  0  0  0  0  0  0  0
    0.9854    1.5640   -2.4555 H   0  0  0  0  0  0  0  0  0  0  0  0
    2.0937    4.1017    0.1610 H   0  0  0  0  0  0  0  0  0  0  0  0
   -0.4792    3.3829   -3.1706 H   0  0  0  0  0  0  0  0  0  0  0  0
   -0.8915    8.2239    2.2680 H   0  0  0  0  0  0  0  0  0  0  0  0
   -2.1019    7.4069    1.2841 H   0  0  0  0  0  0  0  0  0  0  0  0
    0.6923    8.3205    0.2913 H   0  0  0  0  0  0  0  0  0  0  0  0
   -0.8417    9.0888    0.0321 H   0  0  0  0  0  0  0  0  0  0  0  0
    1.4895    6.3573    0.2233 H   0  0  0  0  0  0  0  0  0  0  0  0
   -1.0540    5.8020   -3.1298 H   0  0  0  0  0  0  0  0  0  0  0  0
   -2.1019    5.0395    1.1274 H   0  0  0  0  0  0  0  0  0  0  0  0
    1.9824    2.3953    3.5508 H   0  0  0  0  0  0  0  0  0  0  0  0
    0.9642    1.5901    2.4245 H   0  0  0  0  0  0  0  0  0  0  0  0
   -1.0625    2.8869    1.6094 H   0  0  0  0  0  0  0  0  0  0  0  0
    2.4687    5.0189    2.7862 H   0  0  0  0  0  0  0  0  0  0  0  0
    3.6185    3.0959    1.7757 H   0  0  0  0  0  0  0  0  0  0  0  0
    3.3532    1.3287    1.7450 H   0  0  0  0  0  0  0  0  0  0  0  0
    2.6974    2.3449    0.5458 H   0  0  0  0  0  0  0  0  0  0  0  0
  1  7  1  0  0  0  0
  1 19  1  0  0  0  0
  2 14  1  0  0  0  0
  2 15  1  0  0  0  0
  3 10  2  0  0  0  0
  4 19  2  0  0  0  0
  5 10  1  0  0  0  0
  5 19  1  0  0  0  0
  5 26  1  0  0  0  0
  6 18  2  0  0  0  0
  6 24  1  0  0  0  0
  7  8  1  0  0  0  0
  7 10  1  0  0  0  0
  7 27  1  0  0  0  0
  8  9  1  0  0  0  0
  8 28  1  0  0  0  0
  8 29  1  0  0  0  0
  9 11  2  0  0  0  0
  9 12  1  0  0  0  0
 11 16  1  0  0  0  0
 11 30  1  0  0  0  0
 12 17  2  0  0  0  0
 12 31  1  0  0  0  0
 13 15  1  0  0  0  0
 13 18  1  0  0  0  0
 13 32  1  0  0  0  0
 13 33  1  0  0  0  0
 14 16  2  0  0  0  0
 14 17  1  0  0  0  0
 15 34  1  0  0  0  0
 15 35  1  0  0  0  0
 16 36  1  0  0  0  0
 17 37  1  0  0  0  0
 18 21  1  0  0  0  0
 20 22  1  0  0  0  0
 20 23  1  0  0  0  0
 20 24  2  0  0  0  0
 21 23  2  0  0  0  0
 21 38  1  0  0  0  0
 22 25  1  0  0  0  0
 22 39  1  0  0  0  0
 22 40  1  0  0  0  0
 23 41  1  0  0  0  0
 24 42  1  0  0  0  0
 25 43  1  0  0  0  0
 25 44  1  0  0  0  0
 25 45  1  0  0  0  0
M  END
>  <DRUGBANK_ID>
DB01132

>  <SECONDARY_ACCESSION_NUMBERS>
APRD00653

>  <COMMON_NAME>
Pioglitazone

>  <CAS_NUMBER>
111025-46-8

>  <UNII>
X4OV71U42S

>  <SYNONYMS>
(Â±)-5-((4-(2-(5-ethyl-2-pyridinyl)ethoxy)phenyl)methyl)-2,4-thiazolidinedione; 5-{4-[2-(5-ethylpyridin-2-yl)ethoxy]benzyl}-1,3-thiazolidine-2,4-dione; Pioglitazona; Pioglitazone; Pioglitazonum

$$$$
