
 OpenBabel10282417223D

 27 28  0  0  0  0  0  0  0  0999 V2000
    0.0171    1.1312    0.3257 C   0  0  2  0  0  0  0  0  0  0  0  0
   -0.0285   -0.0143    1.3702 C   0  0  0  0  0  0  0  0  0  0  0  0
   -0.0018   -1.1199    0.2676 C   0  0  1  0  0  0  0  0  0  0  0  0
   -1.2602   -0.7960   -0.5764 C   0  0  1  0  0  0  0  0  0  0  0  0
   -1.1770    0.7209   -0.5512 C   0  0  0  0  0  0  0  0  0  0  0  0
   -1.9531    1.4953   -1.0961 O   0  0  0  0  0  0  0  0  0  0  0  0
   -1.2492   -1.4570   -2.3831 Br  0  0  0  0  0  0  0  0  0  0  0  0
    1.2838   -0.7530   -0.5160 C   0  0  0  0  0  0  0  0  0  0  0  0
    1.2603    0.7908   -0.5288 C   0  0  0  0  0  0  0  0  0  0  0  0
    1.1704   -0.0257    2.3378 C   0  0  0  0  0  0  0  0  0  0  0  0
   -1.2946   -0.0133    2.2492 C   0  0  0  0  0  0  0  0  0  0  0  0
   -0.0086    2.5380    0.8797 C   0  0  0  0  0  0  0  0  0  0  0  0
    0.0076   -2.1409    0.6587 H   0  0  0  0  0  0  0  0  0  0  0  0
   -2.1796   -1.1491   -0.1044 H   0  0  0  0  0  0  0  0  0  0  0  0
    1.3284   -1.1684   -1.5246 H   0  0  0  0  0  0  0  0  0  0  0  0
    2.1762   -1.1282   -0.0036 H   0  0  0  0  0  0  0  0  0  0  0  0
    1.1780    1.1762   -1.5512 H   0  0  0  0  0  0  0  0  0  0  0  0
    2.1827    1.1884   -0.0925 H   0  0  0  0  0  0  0  0  0  0  0  0
    1.1400    0.8518    2.9945 H   0  0  0  0  0  0  0  0  0  0  0  0
    1.1398   -0.9175    2.9714 H   0  0  0  0  0  0  0  0  0  0  0  0
    2.1469   -0.0088    1.8495 H   0  0  0  0  0  0  0  0  0  0  0  0
   -2.2279    0.0888    1.6896 H   0  0  0  0  0  0  0  0  0  0  0  0
   -1.3559   -0.9433    2.8229 H   0  0  0  0  0  0  0  0  0  0  0  0
   -1.2715    0.8224    2.9576 H   0  0  0  0  0  0  0  0  0  0  0  0
   -0.8990    2.7121    1.4929 H   0  0  0  0  0  0  0  0  0  0  0  0
    0.8683    2.7267    1.5090 H   0  0  0  0  0  0  0  0  0  0  0  0
   -0.0114    3.2850    0.0805 H   0  0  0  0  0  0  0  0  0  0  0  0
  1  2  1  0  0  0  0
  1 12  1  1  0  0  0
  3  2  1  0  0  0  0
  3  4  1  0  0  0  0
  3 13  1  1  0  0  0
  4  5  1  0  0  0  0
  4 14  1  1  0  0  0
  4  7  1  0  0  0  0
  5  1  1  0  0  0  0
  6  5  2  0  0  0  0
  8  3  1  0  0  0  0
  8  9  1  0  0  0  0
  8 15  1  0  0  0  0
  8 16  1  0  0  0  0
  9  1  1  0  0  0  0
  9 17  1  0  0  0  0
  9 18  1  0  0  0  0
 10  2  1  0  0  0  0
 10 19  1  0  0  0  0
 10 20  1  0  0  0  0
 10 21  1  0  0  0  0
 11  2  1  0  0  0  0
 11 22  1  0  0  0  0
 11 23  1  0  0  0  0
 11 24  1  0  0  0  0
 12 25  1  0  0  0  0
 12 26  1  0  0  0  0
 12 27  1  0  0  0  0
M  END
>  <DRUGBANK_ID>
DB15915

>  <COMMON_NAME>
Camphor monobromide

>  <CAS_NUMBER>
76-29-9

>  <UNII>
NAY429URSN

>  <SYNONYMS>
3-Bromo-d-camphor; 3-Bromocamphor; Camphor bromide; Camphor, monobromated

$$$$
