DT1
 OpenBabel10282417163D

 50 53  0  0  0  0  0  0  0  0999 V2000
    0.9019    0.2631    0.0165 O   0  0  0  0  0  0  0  0  0  0  0  0
    2.3347    0.0007    0.1201 S   0  0  0  0  0  0  0  0  0  0  0  0
    3.1142   -0.3447   -1.0280 O   0  0  0  0  0  0  0  0  0  0  0  0
    3.0246    1.4273    0.6884 N   0  0  0  0  0  0  0  0  0  0  0  0
    2.5369   -1.2008    1.4350 C   0  0  0  0  0  0  0  0  0  0  0  0
    3.3094   -1.0061    2.5740 C   0  0  0  0  0  0  0  0  0  0  0  0
    1.9278   -2.4455    1.2804 C   0  0  0  0  0  0  0  0  0  0  0  0
    2.2313   -3.5360    2.1542 C   0  0  0  0  0  0  0  0  0  0  0  0
    3.5653   -2.0969    3.4691 C   0  0  0  0  0  0  0  0  0  0  0  0
    3.1214   -3.4154    3.2190 C   0  0  0  0  0  0  0  0  0  0  0  0
    3.7310   -4.5536    3.8521 N   0  0  0  0  0  0  0  0  0  0  0  0
    3.6429   -5.9189    3.4619 C   0  0  0  0  0  0  0  0  0  0  0  0
    2.6402   -6.7948    3.9524 N   0  0  0  0  0  0  0  0  0  0  0  0
    2.4898   -8.1062    3.4359 C   0  0  0  0  0  0  0  0  0  0  0  0
    3.2383   -8.5783    2.3996 N   0  0  0  0  0  0  0  0  0  0  0  0
    1.5333   -8.7235    4.0911 N   0  0  0  0  0  0  0  0  0  0  0  0
    1.1359   -7.8036    5.0049 C   0  0  0  0  0  0  0  0  0  0  0  0
    1.7444   -6.6175    4.9579 N   0  0  0  0  0  0  0  0  0  0  0  0
    4.5404   -6.4845    2.6232 C   0  0  0  0  0  0  0  0  0  0  0  0
    4.1999   -7.8063    2.0102 C   0  0  0  0  0  0  0  0  0  0  0  0
    5.7459   -7.3135    0.1173 C   0  0  0  0  0  0  0  0  0  0  0  0
    4.8538   -8.1672    0.8733 O   0  0  0  0  0  0  0  0  0  0  0  0
    5.0881   -6.0847   -0.5256 C   0  0  0  0  0  0  0  0  0  0  0  0
    5.9632   -4.8450   -0.2091 C   0  0  0  0  0  0  0  0  0  0  0  0
    5.3518   -3.5740   -0.7347 C   0  0  0  0  0  0  0  0  0  0  0  0
    3.9531   -3.5346   -0.2329 C   0  0  0  0  0  0  0  0  0  0  0  0
    3.0156   -4.6645   -0.6648 C   0  0  0  0  0  0  0  0  0  0  0  0
    3.5928   -5.9667   -0.2144 C   0  0  0  0  0  0  0  0  0  0  0  0
    4.0309    1.4290    0.5121 H   0  0  0  0  0  0  0  0  0  0  0  0
    2.5768    2.2022    0.1882 H   0  0  0  0  0  0  0  0  0  0  0  0
    3.7351   -0.0273    2.7777 H   0  0  0  0  0  0  0  0  0  0  0  0
    1.4223   -2.6442    0.3301 H   0  0  0  0  0  0  0  0  0  0  0  0
    1.9109   -4.5337    1.8703 H   0  0  0  0  0  0  0  0  0  0  0  0
    4.1518   -1.8872    4.3594 H   0  0  0  0  0  0  0  0  0  0  0  0
    3.8978   -4.4157    4.8457 H   0  0  0  0  0  0  0  0  0  0  0  0
    0.3698   -8.0146    5.7395 H   0  0  0  0  0  0  0  0  0  0  0  0
    5.3515   -5.9067    2.2355 H   0  0  0  0  0  0  0  0  0  0  0  0
    6.5878   -7.0524    0.7645 H   0  0  0  0  0  0  0  0  0  0  0  0
    6.1668   -7.9115   -0.6998 H   0  0  0  0  0  0  0  0  0  0  0  0
    5.1260   -6.1793   -1.6184 H   0  0  0  0  0  0  0  0  0  0  0  0
    6.0995   -4.7213    0.8729 H   0  0  0  0  0  0  0  0  0  0  0  0
    6.9709   -4.9506   -0.6166 H   0  0  0  0  0  0  0  0  0  0  0  0
    5.8810   -2.7041   -0.3186 H   0  0  0  0  0  0  0  0  0  0  0  0
    5.3392   -3.4974   -1.8193 H   0  0  0  0  0  0  0  0  0  0  0  0
    4.1196   -3.5558    0.8471 H   0  0  0  0  0  0  0  0  0  0  0  0
    3.5491   -2.5844   -0.5406 H   0  0  0  0  0  0  0  0  0  0  0  0
    2.0218   -4.6140   -0.2011 H   0  0  0  0  0  0  0  0  0  0  0  0
    2.8173   -4.6454   -1.7317 H   0  0  0  0  0  0  0  0  0  0  0  0
    3.0179   -6.8267   -0.5771 H   0  0  0  0  0  0  0  0  0  0  0  0
    3.3861   -5.9475    0.8427 H   0  0  0  0  0  0  0  0  0  0  0  0
  1  2  2  0  0  0  0
  2  3  2  0  0  0  0
  2  4  1  0  0  0  0
  2  5  1  0  0  0  0
  4 29  1  0  0  0  0
  4 30  1  0  0  0  0
  5  6  2  0  0  0  0
  5  7  1  0  0  0  0
  6  9  1  0  0  0  0
  6 31  1  0  0  0  0
  7  8  2  0  0  0  0
  7 32  1  0  0  0  0
  8 10  1  0  0  0  0
  8 33  1  0  0  0  0
  9 10  2  0  0  0  0
  9 34  1  0  0  0  0
 10 11  1  0  0  0  0
 11 12  1  0  0  0  0
 11 35  1  0  0  0  0
 12 13  1  0  0  0  0
 12 19  2  0  0  0  0
 13 14  1  0  0  0  0
 13 18  1  0  0  0  0
 14 15  1  0  0  0  0
 14 16  2  0  0  0  0
 15 20  2  0  0  0  0
 16 17  1  0  0  0  0
 17 18  2  0  0  0  0
 17 36  1  0  0  0  0
 19 20  1  0  0  0  0
 19 37  1  0  0  0  0
 20 22  1  0  0  0  0
 21 22  1  0  0  0  0
 21 23  1  0  0  0  0
 21 38  1  0  0  0  0
 21 39  1  0  0  0  0
 23 24  1  0  0  0  0
 23 28  1  0  0  0  0
 23 40  1  0  0  0  0
 24 25  1  0  0  0  0
 24 41  1  0  0  0  0
 24 42  1  0  0  0  0
 25 26  1  0  0  0  0
 25 43  1  0  0  0  0
 25 44  1  0  0  0  0
 26 27  1  0  0  0  0
 26 45  1  0  0  0  0
 26 46  1  0  0  0  0
 27 28  1  0  0  0  0
 27 47  1  0  0  0  0
 27 48  1  0  0  0  0
 28 49  1  0  0  0  0
 28 50  1  0  0  0  0
M  END
>  <DRUGBANK_ID>
DB07685

>  <COMMON_NAME>
4-{[5-(CYCLOHEXYLMETHOXY)[1,2,4]TRIAZOLO[1,5-A]PYRIMIDIN-7-YL]AMINO}BENZENESULFONAMIDE

$$$$
