
 OpenBabel10282417173D

 39 40  0  0  0  0  0  0  0  0999 V2000
    4.5558    5.5216    2.8818 N   0  0  0  0  0  0  0  0  0  0  0  0
    5.5158    4.5539    2.6472 C   0  0  0  0  0  0  0  0  0  0  0  0
    6.0576    3.8998    3.5488 O   0  0  0  0  0  0  0  0  0  0  0  0
    5.8355    4.1991    1.1971 C   0  0  2  0  0  0  0  0  0  0  0  0
    5.4787    5.2523    0.1466 C   0  0  0  0  0  0  0  0  0  0  0  0
    5.1995    2.8501    0.8646 C   0  0  0  0  0  0  0  0  0  0  0  0
    5.8418    4.7942   -1.2671 C   0  0  0  0  0  0  0  0  0  0  0  0
    5.5512    2.3992   -0.5411 C   0  0  0  0  0  0  0  0  0  0  0  0
    5.1852    3.4412   -1.6052 C   0  0  2  0  0  0  0  0  0  0  0  0
    4.2115    5.9454    4.1859 C   0  0  0  0  0  0  0  0  0  0  0  0
    2.8855    6.2113    4.5181 C   0  0  0  0  0  0  0  0  0  0  0  0
    5.2019    6.1339    5.1458 C   0  0  0  0  0  0  0  0  0  0  0  0
    2.6111    6.6144    5.8191 C   0  0  0  0  0  0  0  0  0  0  0  0
    4.8326    6.5851    6.3985 C   0  0  0  0  0  0  0  0  0  0  0  0
    3.5560    6.8240    6.7612 N   0  0  0  0  0  0  0  0  0  0  0  0
    5.5604    2.9923   -3.0432 C   0  0  2  0  0  0  0  0  0  0  0  0
    4.5208    3.4515   -3.9687 N   0  0  0  0  0  0  0  0  0  0  0  0
    5.7220    1.4794   -3.1940 C   0  0  0  0  0  0  0  0  0  0  0  0
    4.0954    3.5852   -1.5496 H   0  0  0  0  0  0  0  0  0  0  0  0
    3.9690    5.8450    2.1244 H   0  0  0  0  0  0  0  0  0  0  0  0
    6.9291    4.0764    1.1683 H   0  0  0  0  0  0  0  0  0  0  0  0
    4.4030    5.4582    0.1649 H   0  0  0  0  0  0  0  0  0  0  0  0
    5.9939    6.1926    0.3725 H   0  0  0  0  0  0  0  0  0  0  0  0
    5.5417    2.0778    1.5648 H   0  0  0  0  0  0  0  0  0  0  0  0
    4.1092    2.9060    0.9688 H   0  0  0  0  0  0  0  0  0  0  0  0
    5.5286    5.5613   -1.9852 H   0  0  0  0  0  0  0  0  0  0  0  0
    6.9334    4.7067   -1.3514 H   0  0  0  0  0  0  0  0  0  0  0  0
    5.0100    1.4649   -0.7267 H   0  0  0  0  0  0  0  0  0  0  0  0
    6.6246    2.1794   -0.5931 H   0  0  0  0  0  0  0  0  0  0  0  0
    2.0674    6.0461    3.8271 H   0  0  0  0  0  0  0  0  0  0  0  0
    6.2489    5.9711    4.9185 H   0  0  0  0  0  0  0  0  0  0  0  0
    1.5912    6.7773    6.1578 H   0  0  0  0  0  0  0  0  0  0  0  0
    5.5833    6.7778    7.1588 H   0  0  0  0  0  0  0  0  0  0  0  0
    6.5071    3.4625   -3.3383 H   0  0  0  0  0  0  0  0  0  0  0  0
    4.8578    3.3918   -4.9281 H   0  0  0  0  0  0  0  0  0  0  0  0
    4.2904    4.4276   -3.7953 H   0  0  0  0  0  0  0  0  0  0  0  0
    5.9601    1.1927   -4.2215 H   0  0  0  0  0  0  0  0  0  0  0  0
    6.5479    1.1151   -2.5712 H   0  0  0  0  0  0  0  0  0  0  0  0
    4.8099    0.9517   -2.8939 H   0  0  0  0  0  0  0  0  0  0  0  0
  1  2  1  0  0  0  0
  1 10  1  0  0  0  0
  1 20  1  0  0  0  0
  2  3  2  0  0  0  0
  4  2  1  0  0  0  0
  4 21  1  6  0  0  0
  5  4  1  0  0  0  0
  5 22  1  0  0  0  0
  5 23  1  0  0  0  0
  6  4  1  0  0  0  0
  6 24  1  0  0  0  0
  6 25  1  0  0  0  0
  7  5  1  0  0  0  0
  7 26  1  0  0  0  0
  7 27  1  0  0  0  0
  8  6  1  0  0  0  0
  8 28  1  0  0  0  0
  8 29  1  0  0  0  0
  9  7  1  0  0  0  0
  9  8  1  0  0  0  0
  9 16  1  0  0  0  0
  9 19  1  1  0  0  0
 11 10  1  0  0  0  0
 11 30  1  0  0  0  0
 12 10  2  0  0  0  0
 12 31  1  0  0  0  0
 13 11  2  0  0  0  0
 13 32  1  0  0  0  0
 14 12  1  0  0  0  0
 14 33  1  0  0  0  0
 15 13  1  0  0  0  0
 15 14  2  0  0  0  0
 16 18  1  0  0  0  0
 16 34  1  6  0  0  0
 16 17  1  0  0  0  0
 17 35  1  0  0  0  0
 17 36  1  0  0  0  0
 18 37  1  0  0  0  0
 18 38  1  0  0  0  0
 18 39  1  0  0  0  0
M  END
>  <DRUGBANK_ID>
DB08756

>  <COMMON_NAME>
Y-27632

>  <CAS_NUMBER>
146986-50-7

>  <UNII>
0X370ROP6H

>  <SYNONYMS>
(R)-(+)-trans-N-(4-pyridyl)-4-(1-aminoethyl)-cyclohexanecarboxamide; 4-[(1R)-1-aminoethyl]-N-(pyridin-4-yl)cyclohexane-1-carboxamide

$$$$
