
 OpenBabel10282417213D

  5  3  0  0  0  0  0  0  0  0999 V2000
    0.9737    0.0605    0.0751 V   0  0  0  0  0  0  0  0  0  0  0  0
   -0.0064    0.8609    1.5720 O   0  0  0  0  0  0  0  0  0  0  0  0
   -0.0064   -0.7398   -1.4218 O   0  0  0  0  0  0  0  0  0  0  0  0
    3.1637    0.0605    0.0751 O   0  5  0  0  0  0  0  0  0  0  0  0
    0.9910    0.0637    0.0766 Na  0  3  0  0  0  0  0  0  0  0  0  0
  1  2  2  0  0  0  0
  1  3  2  0  0  0  0
  1  4  1  0  0  0  0
M  CHG  2   4  -1   5   1
M  END
>  <DRUGBANK_ID>
DB14702

>  <COMMON_NAME>
Sodium metavanadate

>  <CAS_NUMBER>
13718-26-8

>  <UNII>
252S9L5606

>  <SYNONYMS>
Sodium trioxovanadate; Sodium vanadate; Sodium vanadate(V); Sodium vanadium oxide; Vanadic acid, monosodium salt

$$$$
