
 OpenBabel10282417123D

106114  0  0  0  0  0  0  0  0999 V2000
   -1.8572    0.8473   -0.0472 C   0  0  0  0  0  0  0  0  0  0  0  0
    0.4354    1.2847    0.1666 C   0  0  1  0  0  0  0  0  0  0  0  0
   -0.7472   -1.3112    0.6632 C   0  0  1  0  0  0  0  0  0  0  0  0
    0.4093   -1.5385   -0.2078 C   0  0  1  0  0  0  0  0  0  0  0  0
    1.3148   -0.1353   -0.3762 C   0  0  1  0  0  0  0  0  0  0  0  0
   -2.8144    1.4100    0.4757 O   0  0  0  0  0  0  0  0  0  0  0  0
    0.9540    2.6032    0.6659 C   0  0  0  0  0  0  0  0  0  0  0  0
   -0.1946   -1.0527    2.0820 C   0  0  0  0  0  0  0  0  0  0  0  0
    0.7921   -2.8663    0.3188 O   0  0  0  0  0  0  0  0  0  0  0  0
    3.0822   -0.2973   -1.3462 O   0  0  0  0  0  0  0  0  0  0  0  0
    0.3321    3.7632    1.3582 C   0  0  0  0  0  0  0  0  0  0  0  0
   -1.3325   -1.2512    2.9713 C   0  0  0  0  0  0  0  0  0  0  0  0
   -1.8247   -2.5530    3.0726 C   0  0  0  0  0  0  0  0  0  0  0  0
    0.0904    3.8063    2.6837 C   0  0  0  0  0  0  0  0  0  0  0  0
    0.3091    5.0010    0.7400 C   0  0  0  0  0  0  0  0  0  0  0  0
   -1.9176   -0.1493    3.5710 C   0  0  0  0  0  0  0  0  0  0  0  0
   -2.9548   -0.3945    4.4315 C   0  0  0  0  0  0  0  0  0  0  0  0
   -2.9307   -2.7706    3.8378 C   0  0  0  0  0  0  0  0  0  0  0  0
   -0.3709    5.0194    3.2113 C   0  0  0  0  0  0  0  0  0  0  0  0
    0.0816    6.2529    1.2277 C   0  0  0  0  0  0  0  0  0  0  0  0
   -3.4681   -1.6951    4.5436 C   0  0  0  0  0  0  0  0  0  0  0  0
   -0.4156    6.2252    2.4763 C   0  0  0  0  0  0  0  0  0  0  0  0
   -1.7579   -0.5390   -0.0430 N   0  0  0  0  0  0  0  0  0  0  0  0
   -0.7561    1.5333   -0.5746 N   0  0  0  0  0  0  0  0  0  0  0  0
   -0.7394    2.4289   -1.8254 C   0  0  0  0  0  0  0  0  0  0  0  0
    0.1009    3.8229   -2.0833 C   0  0  0  0  0  0  0  0  0  0  0  0
    1.4269    6.3887   -1.7646 C   0  0  0  0  0  0  0  0  0  0  0  0
    1.5653    4.0782   -1.8790 C   0  0  0  0  0  0  0  0  0  0  0  0
   -0.6432    4.9812   -2.2850 C   0  0  0  0  0  0  0  0  0  0  0  0
    0.0264    6.2417   -2.2049 C   0  0  0  0  0  0  0  0  0  0  0  0
    2.2244    5.2549   -1.4638 C   0  0  0  0  0  0  0  0  0  0  0  0
    3.4303    5.2141   -0.2695 C   0  0  0  0  0  0  0  0  0  0  0  0
    3.9567    6.3163   -0.0339 O   0  0  0  0  0  0  0  0  0  0  0  0
   -2.7039   -1.3315   -0.8636 C   0  0  0  0  0  0  0  0  0  0  0  0
   -2.1431   -2.0193   -2.1291 C   0  0  0  0  0  0  0  0  0  0  0  0
   -0.9312   -3.1176   -4.3945 C   0  0  0  0  0  0  0  0  0  0  0  0
   -0.6212   -3.6580   -3.1668 C   0  0  0  0  0  0  0  0  0  0  0  0
   -1.2949   -3.1654   -2.0573 C   0  0  0  0  0  0  0  0  0  0  0  0
   -2.4361   -1.4841   -3.4012 C   0  0  0  0  0  0  0  0  0  0  0  0
   -1.8503   -2.0458   -4.5377 C   0  0  0  0  0  0  0  0  0  0  0  0
   -3.0227   -0.8410   -6.4523 N   0  0  0  0  0  0  0  0  0  0  0  0
   -1.9104   -1.4942   -5.9155 C   0  0  0  0  0  0  0  0  0  0  0  0
   -0.8885   -1.7354   -6.5585 O   0  0  0  0  0  0  0  0  0  0  0  0
   -3.1210   -0.9405   -7.8725 C   0  0  0  0  0  0  0  0  0  0  0  0
   -2.1602   -1.1137   -8.8031 N   0  0  0  0  0  0  0  0  0  0  0  0
   -4.0949   -1.8113   -8.3993 N   0  0  0  0  0  0  0  0  0  0  0  0
   -3.2969   -2.9830   -8.3368 C   0  0  0  0  0  0  0  0  0  0  0  0
   -2.1420   -2.5183   -8.9794 C   0  0  0  0  0  0  0  0  0  0  0  0
   -1.0843   -3.4247   -9.2159 C   0  0  0  0  0  0  0  0  0  0  0  0
   -3.1826   -3.9800   -7.3676 C   0  0  0  0  0  0  0  0  0  0  0  0
   -1.9743   -4.6866   -7.3243 C   0  0  0  0  0  0  0  0  0  0  0  0
   -0.9838   -4.4863   -8.2911 C   0  0  0  0  0  0  0  0  0  0  0  0
    3.9002    4.1124    0.6853 N   0  0  0  0  0  0  0  0  0  0  0  0
    3.8746    2.7345    0.4324 C   0  0  0  0  0  0  0  0  0  0  0  0
    3.7928    2.4704   -0.8441 N   0  0  0  0  0  0  0  0  0  0  0  0
    3.7453    1.4989    1.2722 N   0  0  0  0  0  0  0  0  0  0  0  0
    1.6594   -0.7786   -2.5515 C   0  0  0  0  0  0  0  0  0  0  0  0
    2.3689   -1.9793   -1.4201 C   0  0  0  0  0  0  0  0  0  0  0  0
    3.1970   -1.3941    0.1537 C   0  0  0  0  0  0  0  0  0  0  0  0
    1.9114    0.9539   -2.2873 C   0  0  0  0  0  0  0  0  0  0  0  0
    3.5124    0.3997    0.3738 C   0  0  0  0  0  0  0  0  0  0  0  0
    2.9683    1.5062   -0.8618 C   0  0  0  0  0  0  0  0  0  0  0  0
    0.0990    1.0040    1.1484 H   0  0  0  0  0  0  0  0  0  0  0  0
   -1.2218   -2.3027    0.7338 H   0  0  0  0  0  0  0  0  0  0  0  0
    0.0212   -1.6933   -1.1862 H   0  0  0  0  0  0  0  0  0  0  0  0
    1.6784   -0.2155    0.6090 H   0  0  0  0  0  0  0  0  0  0  0  0
    1.8483    2.5327    1.2220 H   0  0  0  0  0  0  0  0  0  0  0  0
    1.1322    2.9590   -0.2823 H   0  0  0  0  0  0  0  0  0  0  0  0
    0.6006   -1.7591    2.3726 H   0  0  0  0  0  0  0  0  0  0  0  0
    0.2901   -0.1199    2.3470 H   0  0  0  0  0  0  0  0  0  0  0  0
    1.7212   -3.1299    0.3004 H   0  0  0  0  0  0  0  0  0  0  0  0
    3.4643    0.0969   -2.1456 H   0  0  0  0  0  0  0  0  0  0  0  0
   -1.3689   -3.3642    2.5031 H   0  0  0  0  0  0  0  0  0  0  0  0
    0.2473    2.9060    3.2578 H   0  0  0  0  0  0  0  0  0  0  0  0
    0.4183    5.0046   -0.2833 H   0  0  0  0  0  0  0  0  0  0  0  0
   -1.5711    0.8620    3.3572 H   0  0  0  0  0  0  0  0  0  0  0  0
   -3.3581    0.4289    5.0069 H   0  0  0  0  0  0  0  0  0  0  0  0
   -3.3339   -3.7734    3.8857 H   0  0  0  0  0  0  0  0  0  0  0  0
   -0.7319    5.0184    4.2226 H   0  0  0  0  0  0  0  0  0  0  0  0
    0.1587    7.1240    0.5809 H   0  0  0  0  0  0  0  0  0  0  0  0
   -4.3124   -1.8729    5.1922 H   0  0  0  0  0  0  0  0  0  0  0  0
   -0.8848    7.1318    2.8199 H   0  0  0  0  0  0  0  0  0  0  0  0
   -0.3581    1.7706   -2.5944 H   0  0  0  0  0  0  0  0  0  0  0  0
   -1.7940    2.5603   -2.0948 H   0  0  0  0  0  0  0  0  0  0  0  0
    1.7168    7.3770   -1.4008 H   0  0  0  0  0  0  0  0  0  0  0  0
    2.2055    3.3097   -1.5815 H   0  0  0  0  0  0  0  0  0  0  0  0
   -1.7356    4.9263   -2.2667 H   0  0  0  0  0  0  0  0  0  0  0  0
   -0.6207    7.1245   -2.2167 H   0  0  0  0  0  0  0  0  0  0  0  0
   -3.1491   -2.1121   -0.2369 H   0  0  0  0  0  0  0  0  0  0  0  0
   -3.4964   -0.6511   -1.1752 H   0  0  0  0  0  0  0  0  0  0  0  0
   -0.3903   -3.5020   -5.2602 H   0  0  0  0  0  0  0  0  0  0  0  0
    0.1778   -4.3955   -3.0825 H   0  0  0  0  0  0  0  0  0  0  0  0
   -1.0000   -3.5984   -1.1024 H   0  0  0  0  0  0  0  0  0  0  0  0
   -3.0601   -0.6012   -3.4791 H   0  0  0  0  0  0  0  0  0  0  0  0
   -3.8814   -0.7493   -5.9176 H   0  0  0  0  0  0  0  0  0  0  0  0
   -4.3665   -1.5443   -9.3316 H   0  0  0  0  0  0  0  0  0  0  0  0
   -0.2489   -3.2270   -9.8801 H   0  0  0  0  0  0  0  0  0  0  0  0
   -3.8476   -3.9704   -6.5132 H   0  0  0  0  0  0  0  0  0  0  0  0
   -1.7652   -5.3144   -6.4595 H   0  0  0  0  0  0  0  0  0  0  0  0
   -0.0636   -5.0697   -8.2296 H   0  0  0  0  0  0  0  0  0  0  0  0
    4.8673    4.3579    0.9118 H   0  0  0  0  0  0  0  0  0  0  0  0
    3.5555    1.4597    2.2874 H   0  0  0  0  0  0  0  0  0  0  0  0
    0.8684   -1.0549   -3.2550 H   0  0  0  0  0  0  0  0  0  0  0  0
    1.9423   -2.9704   -1.5577 H   0  0  0  0  0  0  0  0  0  0  0  0
    2.8843   -1.8621    1.1062 H   0  0  0  0  0  0  0  0  0  0  0  0
    1.6390    1.6913   -3.0030 H   0  0  0  0  0  0  0  0  0  0  0  0
  1 24  1  0  0  0  0
  1 23  1  0  0  0  0
  1  6  2  0  0  0  0
  2 24  1  0  0  0  0
  2  5  1  0  0  0  0
  2  7  1  0  0  0  0
  2 63  1  1  0  0  0
  3 23  1  0  0  0  0
  3  4  1  0  0  0  0
  3 64  1  1  0  0  0
  3  8  1  0  0  0  0
  4  5  1  0  0  0  0
  4 65  1  6  0  0  0
  4  9  1  0  0  0  0
  5 10  1  0  0  0  0
  5 66  1  1  0  0  0
  7 11  1  0  0  0  0
  7 67  1  0  0  0  0
  7 68  1  0  0  0  0
  8 12  1  0  0  0  0
  8 69  1  0  0  0  0
  8 70  1  0  0  0  0
  9 71  1  0  0  0  0
 10 72  1  0  0  0  0
 11 14  2  0  0  0  0
 11 15  1  0  0  0  0
 12 13  2  0  0  0  0
 12 16  1  0  0  0  0
 13 18  1  0  0  0  0
 13 73  1  0  0  0  0
 14 19  1  0  0  0  0
 14 74  1  0  0  0  0
 15 20  2  0  0  0  0
 15 75  1  0  0  0  0
 16 17  2  0  0  0  0
 16 76  1  0  0  0  0
 17 21  1  0  0  0  0
 17 77  1  0  0  0  0
 18 21  2  0  0  0  0
 18 78  1  0  0  0  0
 19 22  2  0  0  0  0
 19 79  1  0  0  0  0
 20 22  1  0  0  0  0
 20 80  1  0  0  0  0
 21 81  1  0  0  0  0
 22 82  1  0  0  0  0
 23 34  1  0  0  0  0
 24 25  1  0  0  0  0
 25 26  1  0  0  0  0
 25 83  1  0  0  0  0
 25 84  1  0  0  0  0
 26 28  1  0  0  0  0
 26 29  2  0  0  0  0
 27 31  1  0  0  0  0
 27 30  2  0  0  0  0
 27 85  1  0  0  0  0
 28 31  2  0  0  0  0
 28 86  1  0  0  0  0
 29 30  1  0  0  0  0
 29 87  1  0  0  0  0
 30 88  1  0  0  0  0
 31 32  1  0  0  0  0
 32 33  2  0  0  0  0
 32 53  1  0  0  0  0
 34 35  1  0  0  0  0
 34 89  1  0  0  0  0
 34 90  1  0  0  0  0
 35 38  1  0  0  0  0
 35 39  2  0  0  0  0
 36 37  1  0  0  0  0
 36 40  2  0  0  0  0
 36 91  1  0  0  0  0
 37 38  2  0  0  0  0
 37 92  1  0  0  0  0
 38 93  1  0  0  0  0
 39 40  1  0  0  0  0
 39 94  1  0  0  0  0
 40 42  1  0  0  0  0
 41 42  1  0  0  0  0
 41 44  1  0  0  0  0
 41 95  1  0  0  0  0
 42 43  2  0  0  0  0
 44 45  2  0  0  0  0
 44 46  1  0  0  0  0
 45 48  1  0  0  0  0
 46 47  1  0  0  0  0
 46 96  1  0  0  0  0
 47 50  1  0  0  0  0
 47 48  2  0  0  0  0
 48 49  1  0  0  0  0
 49 52  2  0  0  0  0
 49 97  1  0  0  0  0
 50 51  2  0  0  0  0
 50 98  1  0  0  0  0
 51 52  1  0  0  0  0
 51 99  1  0  0  0  0
 52100  1  0  0  0  0
 53 54  1  0  0  0  0
 53101  1  0  0  0  0
 54 56  1  0  0  0  0
 54 55  2  0  0  0  0
 55 62  1  0  0  0  0
 56 61  1  0  0  0  0
 56102  1  0  0  0  0
 57 58  1  0  0  0  0
 57 60  2  0  0  0  0
 57103  1  0  0  0  0
 58 59  2  0  0  0  0
 58104  1  0  0  0  0
 59 61  1  0  0  0  0
 59105  1  0  0  0  0
 60 62  1  0  0  0  0
 60106  1  0  0  0  0
 61 62  2  0  0  0  0
M  END
>  <DRUGBANK_ID>
DB02729

>  <SECONDARY_ACCESSION_NUMBERS>
EXPT00032

>  <COMMON_NAME>
SD146

>  <CAS_NUMBER>
183854-21-9

>  <SYNONYMS>
3,3'-{[(4R,5S,6S,7R)-4,7-Dibenzyl-5,6-dihydroxy-2-oxo-1,3-diazepane-1,3-diyl]bis(methylene)}bis[N-(1H-benzimidazol-2-yl)benzamide]

$$$$
