
 OpenBabel10282417133D

 29 30  0  0  0  0  0  0  0  0999 V2000
    1.4011   -0.2058    0.0105 C   0  0  0  0  0  0  0  0  0  0  0  0
    0.5578   -1.3166   -0.0018 C   0  0  0  0  0  0  0  0  0  0  0  0
    0.8685    1.0804    0.0020 C   0  0  0  0  0  0  0  0  0  0  0  0
   -0.8301   -1.1566   -0.0190 C   0  0  0  0  0  0  0  0  0  0  0  0
   -0.5217    1.2451    0.0076 C   0  0  0  0  0  0  0  0  0  0  0  0
   -1.3846    0.1345   -0.0414 C   0  0  0  0  0  0  0  0  0  0  0  0
    2.8534   -0.4283    0.1831 C   0  0  0  0  0  0  0  0  0  0  0  0
    3.4554    0.0875    1.2093 N   0  0  0  0  0  0  0  0  0  0  0  0
    3.5070   -1.2846   -0.8341 C   0  0  0  0  0  0  0  0  0  0  0  0
    4.7796   -0.2196    1.3575 N   0  0  0  0  0  0  0  0  0  0  0  0
    4.8009   -1.5592   -0.6492 C   0  0  0  0  0  0  0  0  0  0  0  0
    5.5143   -1.0191    0.5226 C   0  0  0  0  0  0  0  0  0  0  0  0
    6.7010   -1.2819    0.7084 O   0  0  0  0  0  0  0  0  0  0  0  0
   -1.6829   -2.2159    0.0245 O   0  0  0  0  0  0  0  0  0  0  0  0
   -2.7141    0.4676   -0.1069 O   0  0  0  0  0  0  0  0  0  0  0  0
   -1.1659   -3.5292    0.0976 C   0  0  0  0  0  0  0  0  0  0  0  0
   -3.6931   -0.5528   -0.3012 C   0  0  0  0  0  0  0  0  0  0  0  0
   -3.4151   -1.2933   -1.4026 F   0  0  0  0  0  0  0  0  0  0  0  0
   -3.7716   -1.3470    0.7934 F   0  0  0  0  0  0  0  0  0  0  0  0
    1.0014   -2.3044    0.0420 H   0  0  0  0  0  0  0  0  0  0  0  0
    1.5248    1.9473   -0.0029 H   0  0  0  0  0  0  0  0  0  0  0  0
   -0.9341    2.2512    0.0691 H   0  0  0  0  0  0  0  0  0  0  0  0
    2.9504   -1.6517   -1.6851 H   0  0  0  0  0  0  0  0  0  0  0  0
    5.2453    0.1625    2.1738 H   0  0  0  0  0  0  0  0  0  0  0  0
    5.3750   -2.1681   -1.3344 H   0  0  0  0  0  0  0  0  0  0  0  0
   -0.5872   -3.7628   -0.8003 H   0  0  0  0  0  0  0  0  0  0  0  0
   -0.5764   -3.6658    1.0089 H   0  0  0  0  0  0  0  0  0  0  0  0
   -2.0172   -4.2137    0.1405 H   0  0  0  0  0  0  0  0  0  0  0  0
   -4.6756   -0.1027   -0.4497 H   0  0  0  0  0  0  0  0  0  0  0  0
  1  7  1  0  0  0  0
  2  1  1  0  0  0  0
  2 20  1  0  0  0  0
  3  1  2  0  0  0  0
  3 21  1  0  0  0  0
  4  2  2  0  0  0  0
  4 14  1  0  0  0  0
  5  3  1  0  0  0  0
  5 22  1  0  0  0  0
  6  4  1  0  0  0  0
  6  5  2  0  0  0  0
  6 15  1  0  0  0  0
  8  7  2  0  0  0  0
  9  7  1  0  0  0  0
  9 23  1  0  0  0  0
 10  8  1  0  0  0  0
 10 24  1  0  0  0  0
 11  9  2  0  0  0  0
 11 25  1  0  0  0  0
 12 10  1  0  0  0  0
 12 11  1  0  0  0  0
 12 13  2  0  0  0  0
 14 16  1  0  0  0  0
 15 17  1  0  0  0  0
 16 26  1  0  0  0  0
 16 27  1  0  0  0  0
 16 28  1  0  0  0  0
 17 18  1  0  0  0  0
 17 19  1  0  0  0  0
 17 29  1  0  0  0  0
M  END
>  <DRUGBANK_ID>
DB02918

>  <SECONDARY_ACCESSION_NUMBERS>
EXPT03284

>  <COMMON_NAME>
Zardaverine

>  <CAS_NUMBER>
101975-10-4

>  <UNII>
TQ358GWH6Y

>  <SYNONYMS>
6-(4-(Difluoromethoxy)-3-methoxyphenyl)-3(2H)-pyridazinone; zardaverina; Zardaverine

$$$$
