
 OpenBabel10282417213D

 33 33  0  0  0  0  0  0  0  0999 V2000
   -2.2712    0.5379   -0.0330 O   0  0  0  0  0  0  0  0  0  0  0  0
    2.3013    0.6191    0.0772 O   0  0  0  0  0  0  0  0  0  0  0  0
   -2.4170   -3.9826   -1.6362 O   0  0  0  0  0  0  0  0  0  0  0  0
    1.3257   -2.9263    1.1293 O   0  0  0  0  0  0  0  0  0  0  0  0
   -0.6446    2.9764   -1.0277 O   0  0  0  0  0  0  0  0  0  0  0  0
   -1.5241   -0.5113   -2.7596 O   0  0  0  0  0  0  0  0  0  0  0  0
   -3.1068   -2.8454    2.4474 O   0  0  0  0  0  0  0  0  0  0  0  0
    0.8079   -1.1095   -0.2271 N   0  0  0  0  0  0  0  0  0  0  0  0
    0.0216    0.9830   -0.0862 N   0  0  0  0  0  0  0  0  0  0  0  0
   -1.2234   -2.1334   -1.1255 N   0  0  0  0  0  0  0  0  0  0  0  0
   -2.1819   -3.5978    0.5061 N   0  0  0  0  0  0  0  0  0  0  0  0
   -0.6122   -1.2351   -0.2049 C   0  0  3  0  0  0  0  0  0  0  0  0
   -1.1070    0.2054   -0.1329 C   0  0  0  0  0  0  0  0  0  0  0  0
    1.1572    0.2165   -0.0715 C   0  0  0  0  0  0  0  0  0  0  0  0
   -1.9389   -3.2384   -0.7733 C   0  0  0  0  0  0  0  0  0  0  0  0
    1.6866   -2.2340   -0.0532 C   0  0  0  0  0  0  0  0  0  0  0  0
   -0.0046    2.3967    0.0913 C   0  0  0  0  0  0  0  0  0  0  0  0
   -1.0235   -1.8140   -2.5231 C   0  0  0  0  0  0  0  0  0  0  0  0
   -1.8796   -3.2115    1.8678 C   0  0  0  0  0  0  0  0  0  0  0  0
    1.7235   -2.4428    1.8725 H   0  0  0  0  0  0  0  0  0  0  0  0
   -0.2435    2.5651   -1.8113 H   0  0  0  0  0  0  0  0  0  0  0  0
   -2.4766   -0.5495   -2.5531 H   0  0  0  0  0  0  0  0  0  0  0  0
   -3.4293   -2.0938    1.9181 H   0  0  0  0  0  0  0  0  0  0  0  0
   -2.7335   -4.4472    0.5017 H   0  0  0  0  0  0  0  0  0  0  0  0
   -0.8276   -1.5260    0.7815 H   0  0  0  0  0  0  0  0  0  0  0  0
    1.5633   -2.9105   -0.9031 H   0  0  0  0  0  0  0  0  0  0  0  0
    2.7320   -1.9194    0.0086 H   0  0  0  0  0  0  0  0  0  0  0  0
   -0.5669    2.6498    0.9959 H   0  0  0  0  0  0  0  0  0  0  0  0
    1.0092    2.7959    0.1624 H   0  0  0  0  0  0  0  0  0  0  0  0
    0.0512   -1.8003   -2.7325 H   0  0  0  0  0  0  0  0  0  0  0  0
   -1.4980   -2.5105   -3.2188 H   0  0  0  0  0  0  0  0  0  0  0  0
   -1.4377   -4.0680    2.3794 H   0  0  0  0  0  0  0  0  0  0  0  0
   -1.1944   -2.4049    2.0833 H   0  0  0  0  0  0  0  0  0  0  0  0
  1 13  2  0  0  0  0
  2 14  2  0  0  0  0
  3 15  2  0  0  0  0
  4 16  1  0  0  0  0
  4 20  1  0  0  0  0
  5 17  1  0  0  0  0
  5 21  1  0  0  0  0
  6 18  1  0  0  0  0
  6 22  1  0  0  0  0
  7 19  1  0  0  0  0
  7 23  1  0  0  0  0
  8 12  1  0  0  0  0
  8 14  1  0  0  0  0
  8 16  1  0  0  0  0
  9 13  1  0  0  0  0
  9 14  1  0  0  0  0
  9 17  1  0  0  0  0
 10 12  1  0  0  0  0
 10 15  1  0  0  0  0
 10 18  1  0  0  0  0
 11 15  1  0  0  0  0
 11 19  1  0  0  0  0
 11 24  1  0  0  0  0
 12 13  1  0  0  0  0
 12 25  1  0  0  0  0
 16 26  1  0  0  0  0
 16 27  1  0  0  0  0
 17 28  1  0  0  0  0
 17 29  1  0  0  0  0
 18 30  1  0  0  0  0
 18 31  1  0  0  0  0
 19 32  1  0  0  0  0
 19 33  1  0  0  0  0
M  END
>  <DRUGBANK_ID>
DB14173

>  <COMMON_NAME>
Diazolidinylurea

>  <CAS_NUMBER>
78491-02-8

>  <UNII>
N9VX1IBW6K

>  <SYNONYMS>
Diazolidinyl urea; N-(1,3-Bis(hydroxymethyl)-2,5-dioxo-4-imidazolidinyl)-N,N'-bis(hydroxymethyl)urea; N,N'-Bis(hydroxymethyl) urea

$$$$
