
 OpenBabel10282417193D

 40 42  0  0  0  0  0  0  0  0999 V2000
    2.7501   -0.2417   -0.0142 C   0  0  0  0  0  0  0  0  0  0  0  0
    2.3607    1.1309   -0.0572 C   0  0  0  0  0  0  0  0  0  0  0  0
    0.9830    1.4738   -0.0573 C   0  0  0  0  0  0  0  0  0  0  0  0
    1.7225   -1.1813    0.0129 C   0  0  0  0  0  0  0  0  0  0  0  0
    4.1323   -0.6644   -0.1907 N   0  0  0  0  0  0  0  0  0  0  0  0
    0.3812   -0.8274    0.0152 C   0  0  0  0  0  0  0  0  0  0  0  0
   -0.0027    0.4933   -0.0028 C   0  0  0  0  0  0  0  0  0  0  0  0
   -1.4480    0.8091    0.0090 C   0  0  0  0  0  0  0  0  0  0  0  0
   -2.3802   -0.3669   -0.0051 C   0  0  0  0  0  0  0  0  0  0  0  0
   -1.8229   -1.5826   -0.0337 C   0  0  0  0  0  0  0  0  0  0  0  0
   -0.4922   -1.8744   -0.0064 O   0  0  0  0  0  0  0  0  0  0  0  0
   -1.8552    1.9645    0.0251 O   0  0  0  0  0  0  0  0  0  0  0  0
    3.3499    2.1070   -0.1559 O   0  0  0  0  0  0  0  0  0  0  0  0
    3.0007    3.4466   -0.0494 C   0  0  0  0  0  0  0  0  0  0  0  0
    4.6965   -2.2627    0.0578 S   0  0  0  0  0  0  0  0  0  0  0  0
    5.6320   -2.5386   -1.4264 C   0  0  0  0  0  0  0  0  0  0  0  0
    5.6180   -2.2353    1.1660 O   0  0  0  0  0  0  0  0  0  0  0  0
    3.6403   -3.2551    0.0043 O   0  0  0  0  0  0  0  0  0  0  0  0
   -3.7388   -0.1473    0.0106 N   0  0  0  0  0  0  0  0  0  0  0  0
   -4.7221   -1.1018    0.0133 C   0  0  0  0  0  0  0  0  0  0  0  0
   -5.9201   -0.8560    0.0416 O   0  0  0  0  0  0  0  0  0  0  0  0
    2.3109    3.9649    1.0558 C   0  0  0  0  0  0  0  0  0  0  0  0
    1.9771    5.3223    1.1122 C   0  0  0  0  0  0  0  0  0  0  0  0
    2.4066    6.1874    0.1089 C   0  0  0  0  0  0  0  0  0  0  0  0
    3.1576    5.6914   -0.9568 C   0  0  0  0  0  0  0  0  0  0  0  0
    3.4178    4.3180   -1.0596 C   0  0  0  0  0  0  0  0  0  0  0  0
    0.6479    2.5050   -0.1226 H   0  0  0  0  0  0  0  0  0  0  0  0
    1.8845   -2.2452    0.0200 H   0  0  0  0  0  0  0  0  0  0  0  0
    4.8259    0.0411    0.0762 H   0  0  0  0  0  0  0  0  0  0  0  0
   -2.3571   -2.5193   -0.0725 H   0  0  0  0  0  0  0  0  0  0  0  0
    6.5110   -1.8963   -1.4323 H   0  0  0  0  0  0  0  0  0  0  0  0
    5.9392   -3.5899   -1.4262 H   0  0  0  0  0  0  0  0  0  0  0  0
    4.9920   -2.3617   -2.2931 H   0  0  0  0  0  0  0  0  0  0  0  0
   -4.0572    0.8189    0.0423 H   0  0  0  0  0  0  0  0  0  0  0  0
   -4.3590   -2.1402   -0.0116 H   0  0  0  0  0  0  0  0  0  0  0  0
    1.9802    3.3126    1.8588 H   0  0  0  0  0  0  0  0  0  0  0  0
    1.3899    5.7052    1.9441 H   0  0  0  0  0  0  0  0  0  0  0  0
    2.1588    7.2458    0.1590 H   0  0  0  0  0  0  0  0  0  0  0  0
    3.5417    6.3802   -1.7062 H   0  0  0  0  0  0  0  0  0  0  0  0
    3.9377    3.9397   -1.9350 H   0  0  0  0  0  0  0  0  0  0  0  0
  1  2  1  0  0  0  0
  1  5  1  0  0  0  0
  2  3  2  0  0  0  0
  2 13  1  0  0  0  0
  3  7  1  0  0  0  0
  3 27  1  0  0  0  0
  4  1  2  0  0  0  0
  4 28  1  0  0  0  0
  5 15  1  0  0  0  0
  5 29  1  0  0  0  0
  6  7  2  0  0  0  0
  6  4  1  0  0  0  0
  7  8  1  0  0  0  0
  8  9  1  0  0  0  0
  8 12  2  0  0  0  0
  9 19  1  0  0  0  0
  9 10  2  0  0  0  0
 10 11  1  0  0  0  0
 10 30  1  0  0  0  0
 11  6  1  0  0  0  0
 13 14  1  0  0  0  0
 14 22  2  0  0  0  0
 15 16  1  0  0  0  0
 15 17  2  0  0  0  0
 15 18  2  0  0  0  0
 16 31  1  0  0  0  0
 16 32  1  0  0  0  0
 16 33  1  0  0  0  0
 19 20  1  0  0  0  0
 19 34  1  0  0  0  0
 20 21  2  0  0  0  0
 20 35  1  0  0  0  0
 22 23  1  0  0  0  0
 22 36  1  0  0  0  0
 23 24  2  0  0  0  0
 23 37  1  0  0  0  0
 24 25  1  0  0  0  0
 24 38  1  0  0  0  0
 25 26  2  0  0  0  0
 25 39  1  0  0  0  0
 26 14  1  0  0  0  0
 26 40  1  0  0  0  0
M  END
>  <DRUGBANK_ID>
DB12233

>  <COMMON_NAME>
Iguratimod

>  <CAS_NUMBER>
123663-49-0

>  <UNII>
4IHY34Y2NV

>  <SYNONYMS>
Iguratimod

$$$$
