472
 OpenBabel10282417103D

 40 41  0  0  1  0  0  0  0  0999 V2000
    0.6137   -0.2691    0.1377 F   0  0  0  0  0  0  0  0  0  0  0  0
    2.4611   -0.7175    1.2238 F   0  0  0  0  0  0  0  0  0  0  0  0
    2.4516   -0.6823   -0.9408 F   0  0  0  0  0  0  0  0  0  0  0  0
    3.8780    5.3213   -0.3723 O   0  0  0  0  0  0  0  0  0  0  0  0
    7.0432    2.7376   -1.3366 N   0  0  0  0  0  0  0  0  0  0  0  0
    5.2247    5.4734   -0.9768 C   0  0  3  0  0  0  0  0  0  0  0  0
    6.4578    4.8724   -0.1239 C   0  0  0  0  0  0  0  0  0  0  0  0
    5.2825    5.2276   -2.5107 C   0  0  0  0  0  0  0  0  0  0  0  0
    6.7155    3.3311   -0.0221 C   0  0  0  0  0  0  0  0  0  0  0  0
    6.1736    5.9080   -3.3489 C   0  0  0  0  0  0  0  0  0  0  0  0
    4.5697    4.1774   -3.1101 C   0  0  0  0  0  0  0  0  0  0  0  0
    3.3069    4.0954   -0.1648 C   0  0  0  0  0  0  0  0  0  0  0  0
    6.4077    5.4403   -4.6560 C   0  0  0  0  0  0  0  0  0  0  0  0
    5.0045    3.5496   -4.2650 C   0  0  0  0  0  0  0  0  0  0  0  0
    3.9572    2.9438   -0.5308 C   0  0  0  0  0  0  0  0  0  0  0  0
    2.0624    3.8772    0.3676 C   0  0  0  0  0  0  0  0  0  0  0  0
    2.3228    1.4136    0.1764 C   0  0  0  0  0  0  0  0  0  0  0  0
    5.8832    4.2194   -5.0817 C   0  0  0  0  0  0  0  0  0  0  0  0
    6.5533    1.3920   -1.6233 C   0  0  0  0  0  0  0  0  0  0  0  0
    3.5592    1.6460   -0.2933 C   0  0  0  0  0  0  0  0  0  0  0  0
    1.5688    2.5406    0.5596 C   0  0  0  0  0  0  0  0  0  0  0  0
    1.9438   -0.0398    0.1642 C   0  0  0  0  0  0  0  0  0  0  0  0
    6.6807    3.3351   -2.0802 H   0  0  0  0  0  0  0  0  0  0  0  0
    5.3914    6.5607   -0.8823 H   0  0  0  0  0  0  0  0  0  0  0  0
    7.3964    5.3060   -0.5001 H   0  0  0  0  0  0  0  0  0  0  0  0
    6.3468    5.2404    0.9069 H   0  0  0  0  0  0  0  0  0  0  0  0
    7.5400    3.1008    0.6589 H   0  0  0  0  0  0  0  0  0  0  0  0
    5.8872    2.8899    0.5387 H   0  0  0  0  0  0  0  0  0  0  0  0
    6.6958    6.8005   -3.0107 H   0  0  0  0  0  0  0  0  0  0  0  0
    3.7097    3.7194   -2.6476 H   0  0  0  0  0  0  0  0  0  0  0  0
    7.0439    5.9999   -5.3352 H   0  0  0  0  0  0  0  0  0  0  0  0
    4.6407    2.5517   -4.4969 H   0  0  0  0  0  0  0  0  0  0  0  0
    4.8229    3.0574   -1.1094 H   0  0  0  0  0  0  0  0  0  0  0  0
    1.4261    4.7278    0.6084 H   0  0  0  0  0  0  0  0  0  0  0  0
    6.1197    3.7991   -6.0533 H   0  0  0  0  0  0  0  0  0  0  0  0
    5.4812    1.3582   -1.7699 H   0  0  0  0  0  0  0  0  0  0  0  0
    6.8707    1.0605   -2.6161 H   0  0  0  0  0  0  0  0  0  0  0  0
    6.8390    0.6592   -0.8686 H   0  0  0  0  0  0  0  0  0  0  0  0
    4.2082    0.8058   -0.5373 H   0  0  0  0  0  0  0  0  0  0  0  0
    0.6026    2.3880    1.0147 H   0  0  0  0  0  0  0  0  0  0  0  0
  1 22  1  0  0  0  0
  2 22  1  0  0  0  0
  3 22  1  0  0  0  0
  4  6  1  0  0  0  0
  4 12  1  0  0  0  0
  5  9  1  0  0  0  0
  5 19  1  0  0  0  0
  5 23  1  0  0  0  0
  6  7  1  0  0  0  0
  6  8  1  0  0  0  0
  6 24  1  0  0  0  0
  7  9  1  0  0  0  0
  7 25  1  0  0  0  0
  7 26  1  0  0  0  0
  8 10  2  0  0  0  0
  8 11  1  0  0  0  0
  9 27  1  0  0  0  0
  9 28  1  0  0  0  0
 10 13  1  0  0  0  0
 10 29  1  0  0  0  0
 11 14  2  0  0  0  0
 11 30  1  0  0  0  0
 12 15  2  0  0  0  0
 12 16  1  0  0  0  0
 13 18  2  0  0  0  0
 13 31  1  0  0  0  0
 14 18  1  0  0  0  0
 14 32  1  0  0  0  0
 15 20  1  0  0  0  0
 15 33  1  0  0  0  0
 16 21  2  0  0  0  0
 16 34  1  0  0  0  0
 17 20  2  0  0  0  0
 17 21  1  0  0  0  0
 17 22  1  0  0  0  0
 18 35  1  0  0  0  0
 19 36  1  0  0  0  0
 19 37  1  0  0  0  0
 19 38  1  0  0  0  0
 20 39  1  0  0  0  0
 21 40  1  0  0  0  0
M  END
>  <DRUGBANK_ID>
DB00472

>  <SECONDARY_ACCESSION_NUMBERS>
APRD00530

>  <COMMON_NAME>
Fluoxetine

>  <CAS_NUMBER>
54910-89-3

>  <UNII>
01K63SUP8D

>  <SYNONYMS>
(+-)-N-Methyl-3-phenyl-3-((alpha,alpha,alpha-trifluoro-P-tolyl)oxy)propylamine; (+-)-N-Methyl-gamma-(4-(trifluoromethyl)phenoxy)benzenepropanamine; Fluoxetin; Fluoxetina; Fluoxetine; Fluox√©tine; Fluoxetinum

$$$$
