DCN
 OpenBabel10282417143D

 24 25  0  0  0  0  0  0  0  0999 V2000
    0.2240   -0.8827   -0.0018 C   0  0  0  0  0  0  0  0  0  0  0  0
   -0.7428    0.1099   -0.0184 C   0  0  0  0  0  0  0  0  0  0  0  0
    1.5791   -0.5477    0.0406 C   0  0  0  0  0  0  0  0  0  0  0  0
    1.9934    0.7949    0.0039 C   0  0  0  0  0  0  0  0  0  0  0  0
    0.9955    1.7866   -0.0111 C   0  0  0  0  0  0  0  0  0  0  0  0
   -0.3657    1.4492   -0.0132 C   0  0  0  0  0  0  0  0  0  0  0  0
    6.3848   -1.4388   -0.0302 C   0  0  0  0  0  0  0  0  0  0  0  0
    5.5346   -1.3661   -1.1333 C   0  0  0  0  0  0  0  0  0  0  0  0
    4.5501   -0.3762   -1.1902 C   0  0  0  0  0  0  0  0  0  0  0  0
    4.3604    0.4692   -0.0928 C   0  0  0  0  0  0  0  0  0  0  0  0
    6.2645   -0.5237    1.0162 C   0  0  0  0  0  0  0  0  0  0  0  0
    5.2485    0.4352    0.9850 C   0  0  0  0  0  0  0  0  0  0  0  0
    3.2800    1.3091   -0.0028 O   0  0  0  0  0  0  0  0  0  0  0  0
   -2.4056   -0.3269   -0.0201 Cl  0  0  0  0  0  0  0  0  0  0  0  0
    7.5670   -2.6852    0.0561 Cl  0  0  0  0  0  0  0  0  0  0  0  0
    2.3835   -1.6458    0.1391 O   0  0  0  0  0  0  0  0  0  0  0  0
   -0.0589   -1.9325    0.0021 H   0  0  0  0  0  0  0  0  0  0  0  0
    1.2720    2.8405   -0.0143 H   0  0  0  0  0  0  0  0  0  0  0  0
   -1.1228    2.2284   -0.0117 H   0  0  0  0  0  0  0  0  0  0  0  0
    5.6014   -2.1029   -1.9302 H   0  0  0  0  0  0  0  0  0  0  0  0
    3.8618   -0.3468   -2.0313 H   0  0  0  0  0  0  0  0  0  0  0  0
    6.9364   -0.5742    1.8695 H   0  0  0  0  0  0  0  0  0  0  0  0
    5.1263    1.1214    1.8201 H   0  0  0  0  0  0  0  0  0  0  0  0
    3.2265   -1.3900    0.5448 H   0  0  0  0  0  0  0  0  0  0  0  0
  1  2  2  0  0  0  0
  1  3  1  0  0  0  0
  1 17  1  0  0  0  0
  2  6  1  0  0  0  0
  2 14  1  0  0  0  0
  3  4  2  0  0  0  0
  3 16  1  0  0  0  0
  4  5  1  0  0  0  0
  4 13  1  0  0  0  0
  5  6  2  0  0  0  0
  5 18  1  0  0  0  0
  6 19  1  0  0  0  0
  7  8  2  0  0  0  0
  7 11  1  0  0  0  0
  7 15  1  0  0  0  0
  8  9  1  0  0  0  0
  8 20  1  0  0  0  0
  9 10  2  0  0  0  0
  9 21  1  0  0  0  0
 10 12  1  0  0  0  0
 10 13  1  0  0  0  0
 11 12  2  0  0  0  0
 11 22  1  0  0  0  0
 12 23  1  0  0  0  0
 16 24  1  0  0  0  0
M  END
>  <DRUGBANK_ID>
DB04393

>  <SECONDARY_ACCESSION_NUMBERS>
EXPT01135

>  <COMMON_NAME>
Soneclosan

>  <CAS_NUMBER>
3380-30-1

>  <UNII>
814H7B74XK

>  <SYNONYMS>
5-chloro-2-(p-chlorophenoxy)phenol; Hydroxydichlorodiphenyl ether; Soneclosan

$$$$
