1BA
 OpenBabel10282417163D

 41 42  0  0  0  0  0  0  0  0999 V2000
    1.0225   -0.1111   -0.0100 N   0  0  0  0  0  0  0  0  0  0  0  0
    1.6898    4.9482   -0.0397 C   0  0  0  0  0  0  0  0  0  0  0  0
    2.2768    3.8874   -0.7079 C   0  0  0  0  0  0  0  0  0  0  0  0
    2.0386    2.6032   -0.2631 C   0  0  0  0  0  0  0  0  0  0  0  0
    1.0986    2.3120    0.7302 C   0  0  0  0  0  0  0  0  0  0  0  0
    0.6340    0.8979    1.0022 C   0  0  0  0  0  0  0  0  0  0  0  0
    0.9759    0.9027   -3.6627 C   0  0  0  0  0  0  0  0  0  0  0  0
    0.1715    1.7961   -6.1812 C   0  0  0  0  0  0  0  0  0  0  0  0
   -0.0141    1.8908   -3.7708 C   0  0  0  0  0  0  0  0  0  0  0  0
    0.8202    4.6884    1.0340 C   0  0  0  0  0  0  0  0  0  0  0  0
    0.9225    7.1668   -0.8713 C   0  0  0  0  0  0  0  0  0  0  0  0
    2.1161    6.3443   -0.4121 C   0  0  0  0  0  0  0  0  0  0  0  0
    2.8352    6.9759    0.7780 C   0  0  0  0  0  0  0  0  0  0  0  0
    0.5666    0.2243   -1.3314 N   0  0  0  0  0  0  0  0  0  0  0  0
    1.4836    0.3973   -2.3634 C   0  0  0  0  0  0  0  0  0  0  0  0
    2.6959    0.1745   -2.2463 O   0  0  0  0  0  0  0  0  0  0  0  0
    1.5913    0.4114   -4.8205 C   0  0  0  0  0  0  0  0  0  0  0  0
    1.2063    0.8759   -6.0766 C   0  0  0  0  0  0  0  0  0  0  0  0
   -0.2275    2.1422   -7.4381 O   0  0  0  0  0  0  0  0  0  0  0  0
   -0.4290    2.3259   -5.0400 C   0  0  0  0  0  0  0  0  0  0  0  0
    0.5508    3.3811    1.4387 C   0  0  0  0  0  0  0  0  0  0  0  0
    2.0504   -0.1520   -0.0378 H   0  0  0  0  0  0  0  0  0  0  0  0
    2.9447    4.0341   -1.5532 H   0  0  0  0  0  0  0  0  0  0  0  0
    2.6137    1.8231   -0.7349 H   0  0  0  0  0  0  0  0  0  0  0  0
   -0.4634    0.9003    1.0596 H   0  0  0  0  0  0  0  0  0  0  0  0
    1.0008    0.5847    1.9871 H   0  0  0  0  0  0  0  0  0  0  0  0
   -0.4438    2.3523   -2.8851 H   0  0  0  0  0  0  0  0  0  0  0  0
    0.3537    5.5100    1.5712 H   0  0  0  0  0  0  0  0  0  0  0  0
    0.1712    7.2583   -0.0810 H   0  0  0  0  0  0  0  0  0  0  0  0
    1.2404    8.1725   -1.1588 H   0  0  0  0  0  0  0  0  0  0  0  0
    0.4406    6.6969   -1.7368 H   0  0  0  0  0  0  0  0  0  0  0  0
    2.8322    6.2963   -1.2453 H   0  0  0  0  0  0  0  0  0  0  0  0
    3.6978    6.3672    1.0779 H   0  0  0  0  0  0  0  0  0  0  0  0
    3.1932    7.9772    0.5289 H   0  0  0  0  0  0  0  0  0  0  0  0
    2.1760    7.0574    1.6490 H   0  0  0  0  0  0  0  0  0  0  0  0
   -0.4271    0.3673   -1.4824 H   0  0  0  0  0  0  0  0  0  0  0  0
    2.3747   -0.3398   -4.7413 H   0  0  0  0  0  0  0  0  0  0  0  0
    1.7104    0.5156   -6.9687 H   0  0  0  0  0  0  0  0  0  0  0  0
   -1.0486    2.6576   -7.3860 H   0  0  0  0  0  0  0  0  0  0  0  0
   -1.2006    3.0865   -5.1212 H   0  0  0  0  0  0  0  0  0  0  0  0
   -0.0769    3.2102    2.3102 H   0  0  0  0  0  0  0  0  0  0  0  0
  1  6  1  0  0  0  0
  1 14  1  0  0  0  0
  1 22  1  0  0  0  0
  2  3  1  0  0  0  0
  2 10  2  0  0  0  0
  2 12  1  0  0  0  0
  3  4  2  0  0  0  0
  3 23  1  0  0  0  0
  4  5  1  0  0  0  0
  4 24  1  0  0  0  0
  5  6  1  0  0  0  0
  5 21  2  0  0  0  0
  6 25  1  0  0  0  0
  6 26  1  0  0  0  0
  7  9  1  0  0  0  0
  7 15  1  0  0  0  0
  7 17  2  0  0  0  0
  8 18  2  0  0  0  0
  8 19  1  0  0  0  0
  8 20  1  0  0  0  0
  9 20  2  0  0  0  0
  9 27  1  0  0  0  0
 10 21  1  0  0  0  0
 10 28  1  0  0  0  0
 11 12  1  0  0  0  0
 11 29  1  0  0  0  0
 11 30  1  0  0  0  0
 11 31  1  0  0  0  0
 12 13  1  0  0  0  0
 12 32  1  0  0  0  0
 13 33  1  0  0  0  0
 13 34  1  0  0  0  0
 13 35  1  0  0  0  0
 14 15  1  0  0  0  0
 14 36  1  0  0  0  0
 15 16  2  0  0  0  0
 17 18  1  0  0  0  0
 17 37  1  0  0  0  0
 18 38  1  0  0  0  0
 19 39  1  0  0  0  0
 20 40  1  0  0  0  0
 21 41  1  0  0  0  0
M  END
>  <DRUGBANK_ID>
DB06884

>  <COMMON_NAME>
4-HYDROXY-N'-(4-ISOPROPYLBENZYL)BENZOHYDRAZIDE

$$$$
