
 OpenBabel10282417183D

 20 18  0  0  0  0  0  0  0  0999 V2000
    1.0032   -0.0348    0.0937 C   0  0  0  0  0  0  0  0  0  0  0  0
    0.3932    1.0114    1.4657 P   0  0  0  0  0  0  0  0  0  0  0  0
    0.3932    0.6303   -1.4983 P   0  0  0  0  0  0  0  0  0  0  0  0
    1.6218    1.5694   -1.5767 O   0  0  0  0  0  0  0  0  0  0  0  0
    0.0141   -0.2589    2.2657 O   0  0  0  0  0  0  0  0  0  0  0  0
    0.5299   -1.3626    0.2644 O   0  0  0  0  0  0  0  0  0  0  0  0
    0.4698   -0.9538   -2.1894 O   0  0  0  0  0  0  0  0  0  0  0  0
   -0.1834    1.2591   -3.0033 O   0  0  0  0  0  0  0  0  0  0  0  0
    1.9691    1.7040    1.6382 O   0  0  0  0  0  0  0  0  0  0  0  0
   -0.1834    2.0004    2.7627 O   0  0  0  0  0  0  0  0  0  0  0  0
    2.5232   -0.0348    0.0937 C   0  0  0  0  0  0  0  0  0  0  0  0
    0.9899    0.0592    0.0799 Tc  0  0  0  0  0  0  0  0  0  0  0  0
   -0.4701   -1.3626    0.2644 H   0  0  0  0  0  0  0  0  0  0  0  0
    0.7988   -1.6016   -1.5024 H   0  0  0  0  0  0  0  0  0  0  0  0
   -0.2946    2.2502   -2.9298 H   0  0  0  0  0  0  0  0  0  0  0  0
    2.5870    1.2985    0.9646 H   0  0  0  0  0  0  0  0  0  0  0  0
   -1.1090    1.7160    3.0126 H   0  0  0  0  0  0  0  0  0  0  0  0
    2.8799    0.9658   -0.0349 H   0  0  0  0  0  0  0  0  0  0  0  0
    2.8799   -0.4237    1.0245 H   0  0  0  0  0  0  0  0  0  0  0  0
    2.8799   -0.6465   -0.7085 H   0  0  0  0  0  0  0  0  0  0  0  0
  2  1  1  0  0  0  0
  3  1  1  0  0  0  0
  4  3  2  0  0  0  0
  5  2  2  0  0  0  0
  6  1  1  0  0  0  0
  6 13  1  0  0  0  0
  7  3  1  0  0  0  0
  7 14  1  0  0  0  0
  8  3  1  0  0  0  0
  8 15  1  0  0  0  0
  9  2  1  0  0  0  0
  9 16  1  0  0  0  0
 10  2  1  0  0  0  0
 10 17  1  0  0  0  0
 11  1  1  0  0  0  0
 11 18  1  0  0  0  0
 11 19  1  0  0  0  0
 11 20  1  0  0  0  0
M  ISO  1  12  99
M  END
>  <DRUGBANK_ID>
DB09411

>  <COMMON_NAME>
Technetium Tc-99m etidronate

>  <CAS_NUMBER>
63347-65-9

>  <UNII>
13W7DMI45X

>  <SYNONYMS>
Technetium (99mTc) etidronate; Technetium Tc 99m etidronate

$$$$
