1351
 OpenBabel10282417113D

 34 34  0  0  0  0  0  0  0  0999 V2000
   -2.4121   -1.0827   -0.1204 O   0  0  0  0  0  0  0  0  0  0  0  0
    2.3801   -1.1972    0.1228 O   0  0  0  0  0  0  0  0  0  0  0  0
    0.0452    2.6486   -0.0075 O   0  0  0  0  0  0  0  0  0  0  0  0
   -1.1349    0.7315    0.0263 N   0  0  0  0  0  0  0  0  0  0  0  0
    1.1749    0.6936   -0.0073 N   0  0  0  0  0  0  0  0  0  0  0  0
   -0.0120   -1.4539   -0.1096 C   0  0  0  0  0  0  0  0  0  0  0  0
   -0.0545   -2.4741    1.0739 C   0  0  0  0  0  0  0  0  0  0  0  0
   -1.2416   -3.4605    1.1133 C   0  0  0  0  0  0  0  0  0  0  0  0
    0.0774   -2.0664   -1.5298 C   0  0  0  0  0  0  0  0  0  0  0  0
   -1.3222   -4.3881   -0.1001 C   0  0  0  0  0  0  0  0  0  0  0  0
   -1.2771   -0.6166   -0.0436 C   0  0  0  0  0  0  0  0  0  0  0  0
    1.2737   -0.6648    0.0453 C   0  0  0  0  0  0  0  0  0  0  0  0
    0.1646   -1.0982   -2.6879 C   0  0  0  0  0  0  0  0  0  0  0  0
   -0.0488   -5.2064   -0.2723 C   0  0  0  0  0  0  0  0  0  0  0  0
   -2.5897   -5.2096   -0.1642 C   0  0  0  0  0  0  0  0  0  0  0  0
    0.0298    1.4171    0.0001 C   0  0  0  0  0  0  0  0  0  0  0  0
   -1.9933    1.2636    0.0160 H   0  0  0  0  0  0  0  0  0  0  0  0
    2.0432    1.2086    0.0083 H   0  0  0  0  0  0  0  0  0  0  0  0
    0.8846   -3.0408    1.1241 H   0  0  0  0  0  0  0  0  0  0  0  0
   -0.0657   -1.9096    2.0199 H   0  0  0  0  0  0  0  0  0  0  0  0
   -1.1679   -4.0667    2.0240 H   0  0  0  0  0  0  0  0  0  0  0  0
   -2.1787   -2.9074    1.2302 H   0  0  0  0  0  0  0  0  0  0  0  0
    0.8875   -2.8025   -1.5926 H   0  0  0  0  0  0  0  0  0  0  0  0
   -0.8501   -2.5393   -1.8090 H   0  0  0  0  0  0  0  0  0  0  0  0
   -1.4787   -3.8112   -0.9872 H   0  0  0  0  0  0  0  0  0  0  0  0
    1.0729   -0.5021   -2.6605 H   0  0  0  0  0  0  0  0  0  0  0  0
    0.1385   -1.6757   -3.6188 H   0  0  0  0  0  0  0  0  0  0  0  0
   -0.7179   -0.4514   -2.6868 H   0  0  0  0  0  0  0  0  0  0  0  0
    0.0653   -5.9082    0.5555 H   0  0  0  0  0  0  0  0  0  0  0  0
   -0.0607   -5.7512   -1.2195 H   0  0  0  0  0  0  0  0  0  0  0  0
    0.8519   -4.5838   -0.2954 H   0  0  0  0  0  0  0  0  0  0  0  0
   -3.4586   -4.5389   -0.1653 H   0  0  0  0  0  0  0  0  0  0  0  0
   -2.6121   -5.7535   -1.1167 H   0  0  0  0  0  0  0  0  0  0  0  0
   -2.6616   -5.9080    0.6650 H   0  0  0  0  0  0  0  0  0  0  0  0
  1 11  2  0  0  0  0
  2 12  2  0  0  0  0
  3 16  2  0  0  0  0
  4 11  1  0  0  0  0
  4 16  1  0  0  0  0
  4 17  1  0  0  0  0
  5 12  1  0  0  0  0
  5 16  1  0  0  0  0
  5 18  1  0  0  0  0
  6  7  1  0  0  0  0
  6  9  1  0  0  0  0
  6 11  1  0  0  0  0
  6 12  1  0  0  0  0
  7  8  1  0  0  0  0
  7 19  1  0  0  0  0
  7 20  1  0  0  0  0
  8 10  1  0  0  0  0
  8 21  1  0  0  0  0
  8 22  1  0  0  0  0
  9 13  1  0  0  0  0
  9 23  1  0  0  0  0
  9 24  1  0  0  0  0
 10 14  1  0  0  0  0
 10 15  1  0  0  0  0
 10 25  1  0  0  0  0
 13 26  1  0  0  0  0
 13 27  1  0  0  0  0
 13 28  1  0  0  0  0
 14 29  1  0  0  0  0
 14 30  1  0  0  0  0
 14 31  1  0  0  0  0
 15 32  1  0  0  0  0
 15 33  1  0  0  0  0
 15 34  1  0  0  0  0
M  END
>  <DRUGBANK_ID>
DB01351

>  <COMMON_NAME>
Amobarbital

>  <CAS_NUMBER>
57-43-2

>  <UNII>
GWH6IJ239E

>  <SYNONYMS>
5-ethyl-5-(3-methylbutyl)-2,4,6(1H,3H,5H)-pyrimidinetrione; 5-ethyl-5-(3-methylbutyl)barbituric acid; 5-ethyl-5-isoamylbarbituric acid; 5-ethyl-5-isopentylbarbituric acid; Amobarbital; Amobarbitale; Amylobarbitone; Barbamil; Barbamyl

$$$$
