M04
 OpenBabel10282417173D

 47 50  0  0  0  0  0  0  0  0999 V2000
    1.2888    0.0525    0.6196 N   0  0  0  0  0  0  0  0  0  0  0  0
    0.8156    1.2466   -0.0444 C   0  0  0  0  0  0  0  0  0  0  0  0
   -0.6854    1.3117    0.2041 C   0  0  0  0  0  0  0  0  0  0  0  0
   -2.8680    0.0680    0.4241 C   0  0  0  0  0  0  0  0  0  0  0  0
   -3.6573    1.2462    0.0642 N   0  0  0  0  0  0  0  0  0  0  0  0
   -0.7208   -1.2346    0.3079 C   0  0  0  0  0  0  0  0  0  0  0  0
    0.8050   -1.2184    0.1760 C   0  0  0  0  0  0  0  0  0  0  0  0
   -0.4483   -0.1111   -2.7349 C   0  0  0  0  0  0  0  0  0  0  0  0
    0.3257   -1.2740   -2.7912 C   0  0  0  0  0  0  0  0  0  0  0  0
    1.6736   -1.1988   -3.1738 C   0  0  0  0  0  0  0  0  0  0  0  0
    2.1620   -0.0425   -3.7625 C   0  0  0  0  0  0  0  0  0  0  0  0
    3.8154    0.0477   -4.2255 Cl  0  0  0  0  0  0  0  0  0  0  0  0
    1.3131    1.0428   -3.9558 C   0  0  0  0  0  0  0  0  0  0  0  0
    0.0189    1.0216   -3.4169 C   0  0  0  0  0  0  0  0  0  0  0  0
    2.5086    0.0689    1.2435 C   0  0  0  0  0  0  0  0  0  0  0  0
    3.5749   -0.6392    0.8138 N   0  0  0  0  0  0  0  0  0  0  0  0
   -1.6640   -0.0276   -1.8242 C   0  0  0  0  0  0  0  0  0  0  0  0
    4.6451   -0.7165    1.6364 C   0  0  0  0  0  0  0  0  0  0  0  0
    4.7693   -0.2388    2.8940 N   0  0  0  0  0  0  0  0  0  0  0  0
    3.6745    0.4322    3.2677 C   0  0  0  0  0  0  0  0  0  0  0  0
    3.4356    0.9990    4.4869 N   0  0  0  0  0  0  0  0  0  0  0  0
    2.2071    1.6102    4.5055 C   0  0  0  0  0  0  0  0  0  0  0  0
    1.6257    1.4027    3.2795 C   0  0  0  0  0  0  0  0  0  0  0  0
    2.5452    0.6580    2.4988 C   0  0  0  0  0  0  0  0  0  0  0  0
   -1.4514    0.0331   -0.2528 C   0  0  0  0  0  0  0  0  0  0  0  0
    1.0453    1.2247   -1.1055 H   0  0  0  0  0  0  0  0  0  0  0  0
    1.2910    2.1617    0.3288 H   0  0  0  0  0  0  0  0  0  0  0  0
   -1.1004    2.2147   -0.2538 H   0  0  0  0  0  0  0  0  0  0  0  0
   -0.8296    1.4236    1.2894 H   0  0  0  0  0  0  0  0  0  0  0  0
   -3.4354   -0.8294    0.1511 H   0  0  0  0  0  0  0  0  0  0  0  0
   -2.7682    0.0509    1.5184 H   0  0  0  0  0  0  0  0  0  0  0  0
   -4.5441    1.2302    0.5674 H   0  0  0  0  0  0  0  0  0  0  0  0
   -3.1814    2.0896    0.3836 H   0  0  0  0  0  0  0  0  0  0  0  0
   -0.9295   -1.3155    1.3861 H   0  0  0  0  0  0  0  0  0  0  0  0
   -1.1379   -2.1426   -0.1422 H   0  0  0  0  0  0  0  0  0  0  0  0
    1.2356   -2.0820    0.6968 H   0  0  0  0  0  0  0  0  0  0  0  0
    1.1701   -1.3358   -0.8173 H   0  0  0  0  0  0  0  0  0  0  0  0
   -0.0236   -2.1860   -2.3075 H   0  0  0  0  0  0  0  0  0  0  0  0
    2.3563   -2.0001   -2.8910 H   0  0  0  0  0  0  0  0  0  0  0  0
    1.6782    1.9361   -4.4524 H   0  0  0  0  0  0  0  0  0  0  0  0
   -0.5855    1.9244   -3.4597 H   0  0  0  0  0  0  0  0  0  0  0  0
   -2.3133   -0.8812   -2.0577 H   0  0  0  0  0  0  0  0  0  0  0  0
   -2.2325    0.8630   -2.1222 H   0  0  0  0  0  0  0  0  0  0  0  0
    5.5115   -1.2371    1.2399 H   0  0  0  0  0  0  0  0  0  0  0  0
    4.0876    0.9506    5.2603 H   0  0  0  0  0  0  0  0  0  0  0  0
    1.8368    2.1252    5.3777 H   0  0  0  0  0  0  0  0  0  0  0  0
    0.6431    1.7282    2.9639 H   0  0  0  0  0  0  0  0  0  0  0  0
  1  2  1  0  0  0  0
  1  7  1  0  0  0  0
  1 15  1  0  0  0  0
  2  3  1  0  0  0  0
  2 26  1  0  0  0  0
  2 27  1  0  0  0  0
  3 25  1  0  0  0  0
  3 28  1  0  0  0  0
  3 29  1  0  0  0  0
  4  5  1  0  0  0  0
  4 25  1  0  0  0  0
  4 30  1  0  0  0  0
  4 31  1  0  0  0  0
  5 32  1  0  0  0  0
  5 33  1  0  0  0  0
  6  7  1  0  0  0  0
  6 25  1  0  0  0  0
  6 34  1  0  0  0  0
  6 35  1  0  0  0  0
  7 36  1  0  0  0  0
  7 37  1  0  0  0  0
  8  9  1  0  0  0  0
  8 14  2  0  0  0  0
  8 17  1  0  0  0  0
  9 10  2  0  0  0  0
  9 38  1  0  0  0  0
 10 11  1  0  0  0  0
 10 39  1  0  0  0  0
 11 12  1  0  0  0  0
 11 13  2  0  0  0  0
 13 14  1  0  0  0  0
 13 40  1  0  0  0  0
 14 41  1  0  0  0  0
 15 16  1  0  0  0  0
 15 24  2  0  0  0  0
 16 18  2  0  0  0  0
 17 25  1  0  0  0  0
 17 42  1  0  0  0  0
 17 43  1  0  0  0  0
 18 19  1  0  0  0  0
 18 44  1  0  0  0  0
 19 20  2  0  0  0  0
 20 21  1  0  0  0  0
 20 24  1  0  0  0  0
 21 22  1  0  0  0  0
 21 45  1  0  0  0  0
 22 23  2  0  0  0  0
 22 46  1  0  0  0  0
 23 24  1  0  0  0  0
 23 47  1  0  0  0  0
M  END
>  <DRUGBANK_ID>
DB08149

>  <COMMON_NAME>
1-[4-(4-chlorobenzyl)-1-(7H-pyrrolo[2,3-d]pyrimidin-4-yl)piperidin-4-yl]methanamine

>  <UNII>
WA4499B7GU

$$$$
