893
 OpenBabel10282417163D

 44 45  0  0  0  0  0  0  0  0999 V2000
    1.3698   -0.1838    0.0016 C   0  0  0  0  0  0  0  0  0  0  0  0
    0.5325   -1.3057    0.0099 C   0  0  0  0  0  0  0  0  0  0  0  0
   -0.8606   -1.1209    0.0211 C   0  0  0  0  0  0  0  0  0  0  0  0
   -1.3792    0.1847   -0.0068 C   0  0  0  0  0  0  0  0  0  0  0  0
   -0.5458    1.2963    0.0585 C   0  0  0  0  0  0  0  0  0  0  0  0
    0.8324    1.1082   -0.0018 C   0  0  0  0  0  0  0  0  0  0  0  0
   -1.8504   -2.2614    0.0744 C   0  0  0  0  0  0  0  0  0  0  0  0
   -2.7268   -2.1439    1.2411 N   0  0  0  0  0  0  0  0  0  0  0  0
   -4.1140   -2.1132    1.1247 C   0  0  0  0  0  0  0  0  0  0  0  0
   -4.9067   -1.9897    2.4037 C   0  0  0  0  0  0  0  0  0  0  0  0
   -6.0488   -2.7251    2.5385 N   0  0  0  0  0  0  0  0  0  0  0  0
   -6.8069   -2.5662    3.6670 C   0  0  0  0  0  0  0  0  0  0  0  0
   -6.4387   -1.6592    4.6683 C   0  0  0  0  0  0  0  0  0  0  0  0
   -5.2444   -0.9539    4.5179 C   0  0  0  0  0  0  0  0  0  0  0  0
   -4.4817   -1.0924    3.3682 C   0  0  0  0  0  0  0  0  0  0  0  0
   -0.9827    2.5825    0.2279 O   0  0  0  0  0  0  0  0  0  0  0  0
   -2.3806    2.7252    0.4851 C   0  0  0  0  0  0  0  0  0  0  0  0
    0.9810   -2.6001   -0.0008 O   0  0  0  0  0  0  0  0  0  0  0  0
    2.3909   -2.7964   -0.0512 C   0  0  0  0  0  0  0  0  0  0  0  0
   -7.1499   -1.3765    5.8830 C   0  0  0  0  0  0  0  0  0  0  0  0
   -7.6816   -1.1964    6.8956 N   0  0  0  0  0  0  0  0  0  0  0  0
   -7.8856   -3.4143    3.6713 O   0  0  0  0  0  0  0  0  0  0  0  0
   -8.7512   -3.4644    4.8073 C   0  0  0  0  0  0  0  0  0  0  0  0
   -8.0709   -4.1157    6.0131 C   0  0  0  0  0  0  0  0  0  0  0  0
   -4.6844   -2.1297    0.0396 O   0  0  0  0  0  0  0  0  0  0  0  0
    2.4509   -0.2782    0.0223 H   0  0  0  0  0  0  0  0  0  0  0  0
   -2.4580    0.2970   -0.0647 H   0  0  0  0  0  0  0  0  0  0  0  0
    1.5020    1.9640   -0.0427 H   0  0  0  0  0  0  0  0  0  0  0  0
   -2.4345   -2.2703   -0.8516 H   0  0  0  0  0  0  0  0  0  0  0  0
   -1.3433   -3.2262    0.1569 H   0  0  0  0  0  0  0  0  0  0  0  0
   -2.2784   -2.1698    2.1467 H   0  0  0  0  0  0  0  0  0  0  0  0
   -4.9200   -0.2818    5.3096 H   0  0  0  0  0  0  0  0  0  0  0  0
   -3.6047   -0.4736    3.2285 H   0  0  0  0  0  0  0  0  0  0  0  0
   -2.9538    2.4727   -0.4125 H   0  0  0  0  0  0  0  0  0  0  0  0
   -2.7091    2.1186    1.3402 H   0  0  0  0  0  0  0  0  0  0  0  0
   -2.5836    3.7704    0.7316 H   0  0  0  0  0  0  0  0  0  0  0  0
    2.8295   -2.3409   -0.9463 H   0  0  0  0  0  0  0  0  0  0  0  0
    2.8661   -2.4158    0.8589 H   0  0  0  0  0  0  0  0  0  0  0  0
    2.5816   -3.8724   -0.1017 H   0  0  0  0  0  0  0  0  0  0  0  0
   -9.1734   -2.4690    4.9944 H   0  0  0  0  0  0  0  0  0  0  0  0
   -9.6254   -4.0752    4.5503 H   0  0  0  0  0  0  0  0  0  0  0  0
   -7.0745   -3.7214    6.2283 H   0  0  0  0  0  0  0  0  0  0  0  0
   -8.6804   -3.9908    6.9129 H   0  0  0  0  0  0  0  0  0  0  0  0
   -7.8795   -5.1726    5.8274 H   0  0  0  0  0  0  0  0  0  0  0  0
  1  2  2  0  0  0  0
  1  6  1  0  0  0  0
  1 26  1  0  0  0  0
  2  3  1  0  0  0  0
  2 18  1  0  0  0  0
  3  4  2  0  0  0  0
  3  7  1  0  0  0  0
  4  5  1  0  0  0  0
  4 27  1  0  0  0  0
  5  6  2  0  0  0  0
  5 16  1  0  0  0  0
  6 28  1  0  0  0  0
  7  8  1  0  0  0  0
  7 29  1  0  0  0  0
  7 30  1  0  0  0  0
  8  9  1  0  0  0  0
  8 31  1  0  0  0  0
  9 10  1  0  0  0  0
  9 25  2  0  0  0  0
 10 11  1  0  0  0  0
 10 15  2  0  0  0  0
 11 12  2  0  0  0  0
 12 13  1  0  0  0  0
 12 22  1  0  0  0  0
 13 14  2  0  0  0  0
 13 20  1  0  0  0  0
 14 15  1  0  0  0  0
 14 32  1  0  0  0  0
 15 33  1  0  0  0  0
 16 17  1  0  0  0  0
 17 34  1  0  0  0  0
 17 35  1  0  0  0  0
 17 36  1  0  0  0  0
 18 19  1  0  0  0  0
 19 37  1  0  0  0  0
 19 38  1  0  0  0  0
 19 39  1  0  0  0  0
 20 21  3  0  0  0  0
 22 23  1  0  0  0  0
 23 24  1  0  0  0  0
 23 40  1  0  0  0  0
 23 41  1  0  0  0  0
 24 42  1  0  0  0  0
 24 43  1  0  0  0  0
 24 44  1  0  0  0  0
M  END
>  <DRUGBANK_ID>
DB07276

>  <COMMON_NAME>
5-CYANO-N-(2,5-DIMETHOXYBENZYL)-6-ETHOXYPYRIDINE-2-CARBOXAMIDE

$$$$
