PO1
 OpenBabel10282417173D

 58 61  0  0  0  0  0  0  0  0999 V2000
   -4.5930   -0.1557   -0.2300 C   0  0  0  0  0  0  0  0  0  0  0  0
   -3.9821   -1.3996   -0.0122 C   0  0  0  0  0  0  0  0  0  0  0  0
   -6.9206   -2.0713   -1.4111 O   0  0  0  0  0  0  0  0  0  0  0  0
   -7.0161   -1.2257   -0.2384 S   0  0  0  0  0  0  0  0  0  0  0  0
   -7.0287   -1.7498    1.1120 O   0  0  0  0  0  0  0  0  0  0  0  0
   -8.5632   -0.5913   -0.4199 N   0  0  0  0  0  0  0  0  0  0  0  0
   -5.9650    0.0293   -0.3695 O   0  0  0  0  0  0  0  0  0  0  0  0
   -2.6141   -1.4826    0.1906 C   0  0  0  0  0  0  0  0  0  0  0  0
   -1.7984   -0.3532    0.1662 C   0  0  0  0  0  0  0  0  0  0  0  0
   -2.3852    0.9068   -0.0793 C   0  0  0  0  0  0  0  0  0  0  0  0
   -3.7800    0.9918   -0.2961 C   0  0  0  0  0  0  0  0  0  0  0  0
   -4.7666   -2.5023   -0.0071 O   0  0  0  0  0  0  0  0  0  0  0  0
   -4.2485   -3.7930    0.2221 C   0  0  0  0  0  0  0  0  0  0  0  0
   -0.3303   -0.5054    0.5218 C   0  0  2  0  0  0  0  0  0  0  0  0
    0.4665    0.6899   -0.0271 C   0  0  1  0  0  0  0  0  0  0  0  0
   -0.1627    1.9817    0.5026 C   0  0  0  0  0  0  0  0  0  0  0  0
   -1.5356    2.1610   -0.1432 C   0  0  0  0  0  0  0  0  0  0  0  0
    0.3137   -1.8676    0.1422 C   0  0  0  0  0  0  0  0  0  0  0  0
    1.8216   -1.9466    0.4564 C   0  0  0  0  0  0  0  0  0  0  0  0
    2.5737   -0.7584   -0.1619 C   0  0  2  0  0  0  0  0  0  0  0  0
    1.9071    0.5310    0.4032 C   0  0  1  0  0  0  0  0  0  0  0  0
    2.5439   -0.8964   -1.7000 C   0  0  0  0  0  0  0  0  0  0  0  0
    4.0221   -0.5047    0.3212 C   0  0  2  0  0  0  0  0  0  0  0  0
    4.1742    1.0087    0.0402 C   0  0  0  0  0  0  0  0  0  0  0  0
    2.8228    1.6585    0.0022 C   0  0  0  0  0  0  0  0  0  0  0  0
    5.0863   -1.1942   -0.3445 O   0  0  0  0  0  0  0  0  0  0  0  0
    6.5697   -0.5251   -0.1339 S   0  0  0  0  0  0  0  0  0  0  0  0
    6.7104    0.6223   -0.9927 O   0  0  0  0  0  0  0  0  0  0  0  0
    6.8433   -0.4422    1.2866 O   0  0  0  0  0  0  0  0  0  0  0  0
    7.6856   -1.5579   -0.8021 N   0  0  0  0  0  0  0  0  0  0  0  0
   -0.2958   -0.4567    1.6213 H   0  0  0  0  0  0  0  0  0  0  0  0
    0.4166    0.7167   -1.1239 H   0  0  0  0  0  0  0  0  0  0  0  0
    1.9304    0.4893    1.5055 H   0  0  0  0  0  0  0  0  0  0  0  0
    4.0863   -0.7276    1.3961 H   0  0  0  0  0  0  0  0  0  0  0  0
   -8.6657   -0.2518   -1.3729 H   0  0  0  0  0  0  0  0  0  0  0  0
   -9.1817   -1.3959   -0.2730 H   0  0  0  0  0  0  0  0  0  0  0  0
   -2.1776   -2.4500    0.3938 H   0  0  0  0  0  0  0  0  0  0  0  0
   -4.2251    1.9649   -0.4988 H   0  0  0  0  0  0  0  0  0  0  0  0
   -3.5508   -4.0730   -0.5706 H   0  0  0  0  0  0  0  0  0  0  0  0
   -3.7981   -3.8642    1.2153 H   0  0  0  0  0  0  0  0  0  0  0  0
   -5.0981   -4.4808    0.1861 H   0  0  0  0  0  0  0  0  0  0  0  0
   -0.2604    1.9295    1.5954 H   0  0  0  0  0  0  0  0  0  0  0  0
    0.4609    2.8555    0.2839 H   0  0  0  0  0  0  0  0  0  0  0  0
   -1.3910    2.4336   -1.1974 H   0  0  0  0  0  0  0  0  0  0  0  0
   -2.0448    2.9951    0.3508 H   0  0  0  0  0  0  0  0  0  0  0  0
   -0.1675   -2.6802    0.6986 H   0  0  0  0  0  0  0  0  0  0  0  0
    0.1329   -2.0800   -0.9188 H   0  0  0  0  0  0  0  0  0  0  0  0
    2.2169   -2.9026    0.0941 H   0  0  0  0  0  0  0  0  0  0  0  0
    1.9418   -1.9535    1.5479 H   0  0  0  0  0  0  0  0  0  0  0  0
    3.0124   -1.8388   -2.0058 H   0  0  0  0  0  0  0  0  0  0  0  0
    1.5296   -0.8966   -2.1077 H   0  0  0  0  0  0  0  0  0  0  0  0
    3.0805   -0.0864   -2.1996 H   0  0  0  0  0  0  0  0  0  0  0  0
    4.8412    1.4752    0.7696 H   0  0  0  0  0  0  0  0  0  0  0  0
    4.5806    1.1589   -0.9622 H   0  0  0  0  0  0  0  0  0  0  0  0
    2.7913    2.5210    0.6719 H   0  0  0  0  0  0  0  0  0  0  0  0
    2.6198    2.0126   -1.0157 H   0  0  0  0  0  0  0  0  0  0  0  0
    7.4723   -1.6344   -1.7969 H   0  0  0  0  0  0  0  0  0  0  0  0
    8.5661   -1.0413   -0.7085 H   0  0  0  0  0  0  0  0  0  0  0  0
  1  2  1  0  0  0  0
  1  7  1  0  0  0  0
  1 11  2  0  0  0  0
  2  8  2  0  0  0  0
  2 12  1  0  0  0  0
  3  4  2  0  0  0  0
  4  5  2  0  0  0  0
  4  6  1  0  0  0  0
  4  7  1  0  0  0  0
  6 35  1  0  0  0  0
  6 36  1  0  0  0  0
  8  9  1  0  0  0  0
  8 37  1  0  0  0  0
  9 10  2  0  0  0  0
  9 14  1  0  0  0  0
 10 11  1  0  0  0  0
 10 17  1  0  0  0  0
 11 38  1  0  0  0  0
 12 13  1  0  0  0  0
 13 39  1  0  0  0  0
 13 40  1  0  0  0  0
 13 41  1  0  0  0  0
 14 15  1  0  0  0  0
 14 18  1  0  0  0  0
 14 31  1  1  0  0  0
 15 16  1  0  0  0  0
 15 21  1  0  0  0  0
 15 32  1  6  0  0  0
 16 17  1  0  0  0  0
 16 42  1  0  0  0  0
 16 43  1  0  0  0  0
 17 44  1  0  0  0  0
 17 45  1  0  0  0  0
 18 19  1  0  0  0  0
 18 46  1  0  0  0  0
 18 47  1  0  0  0  0
 19 20  1  0  0  0  0
 19 48  1  0  0  0  0
 19 49  1  0  0  0  0
 20 21  1  0  0  0  0
 20 22  1  6  0  0  0
 20 23  1  0  0  0  0
 21 25  1  0  0  0  0
 21 33  1  1  0  0  0
 22 50  1  0  0  0  0
 22 51  1  0  0  0  0
 22 52  1  0  0  0  0
 23 24  1  0  0  0  0
 23 34  1  1  0  0  0
 23 26  1  0  0  0  0
 24 25  1  0  0  0  0
 24 53  1  0  0  0  0
 24 54  1  0  0  0  0
 25 55  1  0  0  0  0
 25 56  1  0  0  0  0
 26 27  1  0  0  0  0
 27 28  2  0  0  0  0
 27 29  2  0  0  0  0
 27 30  1  0  0  0  0
 30 57  1  0  0  0  0
 30 58  1  0  0  0  0
M  END
>  <DRUGBANK_ID>
DB08416

>  <COMMON_NAME>
(9BETA,13ALPHA,14BETA,17ALPHA)-2-METHOXYESTRA-1,3,5(10)-TRIENE-3,17-DIYL DISULFAMATE

>  <UNII>
S57SQE6LE5

$$$$
