4BG
 OpenBabel10282417163D

 35 36  0  0  0  0  0  0  0  0999 V2000
    1.3768   -0.2381    0.1798 C   0  0  0  0  0  0  0  0  0  0  0  0
    0.4958   -1.3183    0.1263 C   0  0  0  0  0  0  0  0  0  0  0  0
   -0.8812   -1.0948    0.0675 C   0  0  0  0  0  0  0  0  0  0  0  0
   -1.3851    0.2070    0.1016 C   0  0  0  0  0  0  0  0  0  0  0  0
   -0.5120    1.2924    0.1789 C   0  0  0  0  0  0  0  0  0  0  0  0
    0.8768    1.0747    0.1457 C   0  0  0  0  0  0  0  0  0  0  0  0
    1.8015    2.2045   -0.2372 C   0  0  0  0  0  0  0  0  0  0  0  0
    1.4000    2.8544   -1.4510 O   0  0  0  0  0  0  0  0  0  0  0  0
    1.4652    2.1267   -2.6026 C   0  0  0  0  0  0  0  0  0  0  0  0
    0.8992    0.8701   -2.8399 C   0  0  0  0  0  0  0  0  0  0  0  0
    0.8925    0.2500   -4.0973 C   0  0  0  0  0  0  0  0  0  0  0  0
    2.0095    2.7847   -3.6670 C   0  0  0  0  0  0  0  0  0  0  0  0
    1.9737    2.1805   -4.9115 C   0  0  0  0  0  0  0  0  0  0  0  0
    1.4357    0.9207   -5.1762 C   0  0  0  0  0  0  0  0  0  0  0  0
    1.4269    0.3038   -6.4468 N   0  0  0  0  0  0  0  0  0  0  0  0
    1.8630    0.7676   -7.6643 C   0  0  0  0  0  0  0  0  0  0  0  0
    1.8502   -0.0050   -8.6390 O   0  0  0  0  0  0  0  0  0  0  0  0
    2.3678    2.2011   -7.8365 C   0  0  0  0  0  0  0  0  0  0  0  0
    1.2942    3.1573   -7.5252 N   0  0  0  0  0  0  0  0  0  0  0  0
    2.4476   -0.4198    0.1104 H   0  0  0  0  0  0  0  0  0  0  0  0
    0.8870   -2.3296    0.0542 H   0  0  0  0  0  0  0  0  0  0  0  0
   -1.5621   -1.9358   -0.0326 H   0  0  0  0  0  0  0  0  0  0  0  0
   -2.4535    0.3801   -0.0012 H   0  0  0  0  0  0  0  0  0  0  0  0
   -0.9087    2.3052    0.1279 H   0  0  0  0  0  0  0  0  0  0  0  0
    1.7723    2.9674    0.5484 H   0  0  0  0  0  0  0  0  0  0  0  0
    2.8465    1.8828   -0.3304 H   0  0  0  0  0  0  0  0  0  0  0  0
    0.3823    0.3280   -2.0730 H   0  0  0  0  0  0  0  0  0  0  0  0
    0.4217   -0.7271   -4.1812 H   0  0  0  0  0  0  0  0  0  0  0  0
    2.4450    3.7750   -3.5866 H   0  0  0  0  0  0  0  0  0  0  0  0
    2.3813    2.8326   -5.6477 H   0  0  0  0  0  0  0  0  0  0  0  0
    1.0725   -0.6458   -6.5009 H   0  0  0  0  0  0  0  0  0  0  0  0
    3.2589    2.3111   -7.2032 H   0  0  0  0  0  0  0  0  0  0  0  0
    2.7349    2.3699   -8.8491 H   0  0  0  0  0  0  0  0  0  0  0  0
    1.6181    4.1167   -7.4627 H   0  0  0  0  0  0  0  0  0  0  0  0
    0.5041    3.0763   -8.1553 H   0  0  0  0  0  0  0  0  0  0  0  0
  1  2  2  0  0  0  0
  1  6  1  0  0  0  0
  1 20  1  0  0  0  0
  2  3  1  0  0  0  0
  2 21  1  0  0  0  0
  3  4  2  0  0  0  0
  3 22  1  0  0  0  0
  4  5  1  0  0  0  0
  4 23  1  0  0  0  0
  5  6  2  0  0  0  0
  5 24  1  0  0  0  0
  6  7  1  0  0  0  0
  7  8  1  0  0  0  0
  7 25  1  0  0  0  0
  7 26  1  0  0  0  0
  8  9  1  0  0  0  0
  9 10  2  0  0  0  0
  9 12  1  0  0  0  0
 10 11  1  0  0  0  0
 10 27  1  0  0  0  0
 11 14  2  0  0  0  0
 11 28  1  0  0  0  0
 12 13  2  0  0  0  0
 12 29  1  0  0  0  0
 13 14  1  0  0  0  0
 13 30  1  0  0  0  0
 14 15  1  0  0  0  0
 15 16  1  0  0  0  0
 15 31  1  0  0  0  0
 16 17  2  0  0  0  0
 16 18  1  0  0  0  0
 18 19  1  0  0  0  0
 18 32  1  0  0  0  0
 18 33  1  0  0  0  0
 19 34  1  0  0  0  0
 19 35  1  0  0  0  0
M  END
>  <DRUGBANK_ID>
DB07099

>  <COMMON_NAME>
N-[4-(benzyloxy)phenyl]glycinamide

$$$$
