191
 OpenBabel10282417103D

 26 26  0  0  0  0  0  0  0  0999 V2000
    0.9393   -0.0246    0.0028 N   0  0  0  0  0  0  0  0  0  0  0  0
    0.4371    0.7520   -1.1455 C   0  0  0  0  0  0  0  0  0  0  0  0
    0.8986    0.1213   -2.5051 C   0  0  0  0  0  0  0  0  0  0  0  0
   -1.0924    0.8510   -1.0165 C   0  0  0  0  0  0  0  0  0  0  0  0
    0.9959    2.1773   -1.0290 C   0  0  0  0  0  0  0  0  0  0  0  0
    0.4549   -1.3157   -2.7083 C   0  0  0  0  0  0  0  0  0  0  0  0
    1.3850   -2.3564   -2.7182 C   0  0  0  0  0  0  0  0  0  0  0  0
   -0.9095   -1.6350   -2.7788 C   0  0  0  0  0  0  0  0  0  0  0  0
    0.9548   -3.6864   -2.6991 C   0  0  0  0  0  0  0  0  0  0  0  0
   -1.3377   -2.9520   -2.6363 C   0  0  0  0  0  0  0  0  0  0  0  0
   -0.4082   -3.9779   -2.6161 C   0  0  0  0  0  0  0  0  0  0  0  0
    0.6089   -0.9893   -0.0854 H   0  0  0  0  0  0  0  0  0  0  0  0
    1.9556   -0.0876   -0.0415 H   0  0  0  0  0  0  0  0  0  0  0  0
    0.5492    0.7274   -3.3503 H   0  0  0  0  0  0  0  0  0  0  0  0
    1.9981    0.1595   -2.5504 H   0  0  0  0  0  0  0  0  0  0  0  0
   -1.3954    1.4201   -0.1323 H   0  0  0  0  0  0  0  0  0  0  0  0
   -1.5208    1.3438   -1.8976 H   0  0  0  0  0  0  0  0  0  0  0  0
   -1.5676   -0.1265   -0.8980 H   0  0  0  0  0  0  0  0  0  0  0  0
    0.6648    2.6551   -0.0984 H   0  0  0  0  0  0  0  0  0  0  0  0
    2.0906    2.1894   -1.0392 H   0  0  0  0  0  0  0  0  0  0  0  0
    0.6427    2.8000   -1.8590 H   0  0  0  0  0  0  0  0  0  0  0  0
    2.4533   -2.1464   -2.7164 H   0  0  0  0  0  0  0  0  0  0  0  0
   -1.6599   -0.8581   -2.8690 H   0  0  0  0  0  0  0  0  0  0  0  0
    1.6799   -4.4918   -2.7108 H   0  0  0  0  0  0  0  0  0  0  0  0
   -2.3998   -3.1592   -2.5219 H   0  0  0  0  0  0  0  0  0  0  0  0
   -0.7439   -5.0092   -2.5443 H   0  0  0  0  0  0  0  0  0  0  0  0
  1  2  1  0  0  0  0
  1 12  1  0  0  0  0
  1 13  1  0  0  0  0
  2  3  1  0  0  0  0
  2  4  1  0  0  0  0
  2  5  1  0  0  0  0
  3  6  1  0  0  0  0
  3 14  1  0  0  0  0
  3 15  1  0  0  0  0
  4 16  1  0  0  0  0
  4 17  1  0  0  0  0
  4 18  1  0  0  0  0
  5 19  1  0  0  0  0
  5 20  1  0  0  0  0
  5 21  1  0  0  0  0
  6  7  2  0  0  0  0
  6  8  1  0  0  0  0
  7  9  1  0  0  0  0
  7 22  1  0  0  0  0
  8 10  2  0  0  0  0
  8 23  1  0  0  0  0
  9 11  2  0  0  0  0
  9 24  1  0  0  0  0
 10 11  1  0  0  0  0
 10 25  1  0  0  0  0
 11 26  1  0  0  0  0
M  END
>  <DRUGBANK_ID>
DB00191

>  <SECONDARY_ACCESSION_NUMBERS>
APRD00093

>  <COMMON_NAME>
Phentermine

>  <CAS_NUMBER>
122-09-8

>  <UNII>
C045TQL4WP

>  <SYNONYMS>
alpha,alpha-Dimethylphenethylamine; Fentermina; Phentermine; Phentermine resin; Phenterminum

$$$$
