
 OpenBabel10282417123D

 81 83  0  0  1  0  0  0  0  0999 V2000
   -0.2622    0.8762    9.2850 C   0  0  0  0  0  0  0  0  0  0  0  0
   -1.4143   -2.0919    7.0934 C   0  0  0  0  0  0  0  0  0  0  0  0
    3.3305    1.1489    6.1428 C   0  0  0  0  0  0  0  0  0  0  0  0
    0.6871    3.6777    6.7902 C   0  0  0  0  0  0  0  0  0  0  0  0
   -3.6985    3.8351    5.0432 C   0  0  0  0  0  0  0  0  0  0  0  0
   -1.0056    2.4628    4.3658 C   0  0  0  0  0  0  0  0  0  0  0  0
    2.5005    3.7336   -2.0979 C   0  0  0  0  0  0  0  0  0  0  0  0
    3.3875    4.5329   -1.3735 C   0  0  0  0  0  0  0  0  0  0  0  0
    1.5184    3.0205   -1.4268 C   0  0  0  0  0  0  0  0  0  0  0  0
    0.6173    5.5048    3.3119 C   0  0  0  0  0  0  0  0  0  0  0  0
    0.6192    6.4023    4.5260 C   0  0  0  0  0  0  0  0  0  0  0  0
    3.3364    4.5792    0.0314 C   0  0  0  0  0  0  0  0  0  0  0  0
    1.4341    3.1131   -0.0368 C   0  0  0  0  0  0  0  0  0  0  0  0
    2.0300    5.3527    2.7472 C   0  0  0  0  0  0  0  0  0  0  0  0
   -0.7132    6.4761    5.2700 C   0  0  0  0  0  0  0  0  0  0  0  0
   -2.0150    2.0892    7.5381 C   0  0  0  0  0  0  0  0  0  0  0  0
   -2.0070    3.4394    7.8138 C   0  0  0  0  0  0  0  0  0  0  0  0
   -1.1388    0.8090    8.0146 C   0  0  1  0  0  0  0  0  0  0  0  0
   -0.9265   -1.0925    6.0364 C   0  0  1  0  0  0  0  0  0  0  0  0
    2.6706    0.9831    4.7446 C   0  0  2  0  0  0  0  0  0  0  0  0
    2.3823    3.8327    0.7329 C   0  0  0  0  0  0  0  0  0  0  0  0
    2.1691    3.8989    2.2562 C   0  0  1  0  0  0  0  0  0  0  0  0
   -0.8109    5.6725    6.6478 C   0  0  1  0  0  0  0  0  0  0  0  0
   -2.0117    4.5984    6.6332 C   0  0  2  0  0  0  0  0  0  0  0  0
   -1.3145   -0.1445    4.9026 C   0  0  1  0  0  0  0  0  0  0  0  0
   -0.1723   -0.1165    6.9682 C   0  0  1  0  0  0  0  0  0  0  0  0
    0.0796    0.4319    4.2198 C   0  0  2  0  0  0  0  0  0  0  0  0
    2.5109    1.8303    3.4009 C   0  0  0  0  0  0  0  0  0  0  0  0
    1.3253    0.1691    5.0711 C   0  0  1  0  0  0  0  0  0  0  0  0
   -2.1327   -0.5687    3.8209 O   0  0  0  0  0  0  0  0  0  0  0  0
    2.0105    1.2861    2.4436 O   0  0  0  0  0  0  0  0  0  0  0  0
    1.6623   -1.2140    5.1277 O   0  0  0  0  0  0  0  0  0  0  0  0
    0.4491    5.0513    7.0873 O   0  0  0  0  0  0  0  0  0  0  0  0
   -3.1613    4.9171    5.8182 O   0  0  0  0  0  0  0  0  0  0  0  0
    0.1622    1.8488    4.0625 O   0  0  0  0  0  0  0  0  0  0  0  0
    2.9344    3.1350    3.2895 O   0  0  0  0  0  0  0  0  0  0  0  0
    0.8437    0.6458    6.3561 O   0  0  0  0  0  0  0  0  0  0  0  0
   -2.7051    1.8152    6.7415 H   0  0  0  0  0  0  0  0  0  0  0  0
   -1.3730    3.7514    8.6469 H   0  0  0  0  0  0  0  0  0  0  0  0
   -1.9683    0.1523    8.3031 H   0  0  0  0  0  0  0  0  0  0  0  0
   -0.4331   -1.8328    5.3961 H   0  0  0  0  0  0  0  0  0  0  0  0
    3.4212    0.3045    4.3060 H   0  0  0  0  0  0  0  0  0  0  0  0
    1.1665    3.4728    2.3272 H   0  0  0  0  0  0  0  0  0  0  0  0
   -0.9633    6.4622    7.3986 H   0  0  0  0  0  0  0  0  0  0  0  0
   -1.5375    4.0471    5.8799 H   0  0  0  0  0  0  0  0  0  0  0  0
   -1.9588    0.5826    5.3737 H   0  0  0  0  0  0  0  0  0  0  0  0
    0.4310   -0.7812    7.5963 H   0  0  0  0  0  0  0  0  0  0  0  0
    0.1495    0.0357    3.2058 H   0  0  0  0  0  0  0  0  0  0  0  0
    0.5855    0.1737    9.2336 H   0  0  0  0  0  0  0  0  0  0  0  0
   -0.8271    0.5145   10.1496 H   0  0  0  0  0  0  0  0  0  0  0  0
    0.1785    1.8497    9.4776 H   0  0  0  0  0  0  0  0  0  0  0  0
   -0.5353   -2.7536    7.2556 H   0  0  0  0  0  0  0  0  0  0  0  0
   -1.5211   -1.6940    8.1126 H   0  0  0  0  0  0  0  0  0  0  0  0
   -2.2642   -2.7199    6.8742 H   0  0  0  0  0  0  0  0  0  0  0  0
    4.2316    1.7455    6.2262 H   0  0  0  0  0  0  0  0  0  0  0  0
    2.6660    1.4899    6.9495 H   0  0  0  0  0  0  0  0  0  0  0  0
    3.5862    0.1208    6.4738 H   0  0  0  0  0  0  0  0  0  0  0  0
   -0.1957    3.1584    6.5403 H   0  0  0  0  0  0  0  0  0  0  0  0
    1.3063    3.5202    5.9125 H   0  0  0  0  0  0  0  0  0  0  0  0
    0.9849    3.0873    7.6624 H   0  0  0  0  0  0  0  0  0  0  0  0
   -3.0191    3.0472    4.7670 H   0  0  0  0  0  0  0  0  0  0  0  0
   -4.4328    3.3438    5.6645 H   0  0  0  0  0  0  0  0  0  0  0  0
   -4.1090    4.1542    4.0745 H   0  0  0  0  0  0  0  0  0  0  0  0
   -1.7752    2.1074    3.7051 H   0  0  0  0  0  0  0  0  0  0  0  0
   -1.2071    2.2166    5.3889 H   0  0  0  0  0  0  0  0  0  0  0  0
   -0.9137    3.5252    4.2964 H   0  0  0  0  0  0  0  0  0  0  0  0
    2.5630    3.6784   -3.1818 H   0  0  0  0  0  0  0  0  0  0  0  0
    4.1253    5.1243   -1.9110 H   0  0  0  0  0  0  0  0  0  0  0  0
    0.8163    2.3946   -1.9729 H   0  0  0  0  0  0  0  0  0  0  0  0
   -0.1092    5.7675    2.5300 H   0  0  0  0  0  0  0  0  0  0  0  0
    0.3332    4.5359    3.6733 H   0  0  0  0  0  0  0  0  0  0  0  0
    0.9458    7.3963    4.2073 H   0  0  0  0  0  0  0  0  0  0  0  0
    1.3828    6.0244    5.2051 H   0  0  0  0  0  0  0  0  0  0  0  0
    4.0174    5.2437    0.5564 H   0  0  0  0  0  0  0  0  0  0  0  0
    0.5901    2.6249    0.4504 H   0  0  0  0  0  0  0  0  0  0  0  0
    2.1789    6.1171    1.9747 H   0  0  0  0  0  0  0  0  0  0  0  0
    2.7674    5.5440    3.5338 H   0  0  0  0  0  0  0  0  0  0  0  0
   -0.8765    7.5499    5.4617 H   0  0  0  0  0  0  0  0  0  0  0  0
   -1.5617    6.2456    4.6121 H   0  0  0  0  0  0  0  0  0  0  0  0
   -2.0287    0.1303    3.1357 H   0  0  0  0  0  0  0  0  0  0  0  0
    1.8999   -1.3935    6.0511 H   0  0  0  0  0  0  0  0  0  0  0  0
  1 49  1  0  0  0  0
  1 50  1  0  0  0  0
  1 51  1  0  0  0  0
  2 52  1  0  0  0  0
  2 53  1  0  0  0  0
  2 54  1  0  0  0  0
  3 55  1  0  0  0  0
  3 56  1  0  0  0  0
  3 57  1  0  0  0  0
  4 58  1  0  0  0  0
  4 59  1  0  0  0  0
  4 60  1  0  0  0  0
  5 61  1  0  0  0  0
  5 62  1  0  0  0  0
  5 63  1  0  0  0  0
  6 64  1  0  0  0  0
  6 65  1  0  0  0  0
  6 66  1  0  0  0  0
  7 67  1  0  0  0  0
  8  7  2  0  0  0  0
  8 68  1  0  0  0  0
  9  7  1  0  0  0  0
  9 69  1  0  0  0  0
 10 70  1  0  0  0  0
 10 71  1  0  0  0  0
 11 10  1  0  0  0  0
 11 72  1  0  0  0  0
 11 73  1  0  0  0  0
 12  8  1  0  0  0  0
 12 74  1  0  0  0  0
 13  9  2  0  0  0  0
 13 75  1  0  0  0  0
 14 10  1  0  0  0  0
 14 76  1  0  0  0  0
 14 77  1  0  0  0  0
 15 11  1  0  0  0  0
 15 78  1  0  0  0  0
 15 79  1  0  0  0  0
 17 16  2  0  0  0  0
 18 16  1  0  0  0  0
 18 40  1  1  0  0  0
 18  1  1  0  0  0  0
 19 41  1  6  0  0  0
 19  2  1  0  0  0  0
 20 42  1  6  0  0  0
 20  3  1  0  0  0  0
 21 12  2  0  0  0  0
 21 13  1  0  0  0  0
 22 14  1  0  0  0  0
 22 21  1  0  0  0  0
 22 43  1  1  0  0  0
 23 15  1  0  0  0  0
 23 44  1  1  0  0  0
 23 33  1  0  0  0  0
 24 17  1  0  0  0  0
 24 23  1  0  0  0  0
 24 34  1  0  0  0  0
 24 45  1  6  0  0  0
 25 19  1  0  0  0  0
 25 30  1  0  0  0  0
 25 46  1  1  0  0  0
 26 18  1  0  0  0  0
 26 19  1  0  0  0  0
 26 47  1  1  0  0  0
 27 25  1  0  0  0  0
 27 48  1  6  0  0  0
 27 35  1  0  0  0  0
 28 20  1  0  0  0  0
 29 20  1  0  0  0  0
 29 27  1  0  0  0  0
 29 32  1  1  0  0  0
 30 80  1  0  0  0  0
 31 28  2  0  0  0  0
 32 81  1  0  0  0  0
 33  4  1  0  0  0  0
 34  5  1  0  0  0  0
 35  6  1  0  0  0  0
 36 22  1  0  0  0  0
 36 28  1  0  0  0  0
 37 26  1  0  0  0  0
 37 29  1  0  0  0  0
 38 16  1  0  0  0  0
 39 17  1  0  0  0  0
M  END
>  <DRUGBANK_ID>
DB02859

>  <SECONDARY_ACCESSION_NUMBERS>
EXPT02829

>  <COMMON_NAME>
Soraphen A

>  <CAS_NUMBER>
122547-72-2

$$$$
