802
 OpenBabel10282417123D

 31 33  0  0  0  0  0  0  0  0999 V2000
    2.1806    0.7598   -0.0194 C   0  0  0  0  0  0  0  0  0  0  0  0
    2.1775   -0.6558   -0.0058 C   0  0  0  0  0  0  0  0  0  0  0  0
    0.9987   -1.4230    0.0072 C   0  0  0  0  0  0  0  0  0  0  0  0
   -0.1966   -0.7144    0.0328 C   0  0  0  0  0  0  0  0  0  0  0  0
   -0.2486    0.6673    0.0682 C   0  0  0  0  0  0  0  0  0  0  0  0
    0.9358    1.4129    0.0185 C   0  0  0  0  0  0  0  0  0  0  0  0
    3.4416    1.5438   -0.0629 C   0  0  0  0  0  0  0  0  0  0  0  0
    3.4298    2.8631   -0.0809 N   0  0  0  0  0  0  0  0  0  0  0  0
    4.6110    0.9350   -0.0819 N   0  3  0  0  0  0  0  0  0  0  0  0
   -1.5162   -1.0875    0.0147 N   0  0  0  0  0  0  0  0  0  0  0  0
   -1.5249    1.1185    0.1749 N   0  0  0  0  0  0  0  0  0  0  0  0
   -2.2955    0.0480    0.0774 C   0  0  0  0  0  0  0  0  0  0  0  0
   -3.7645   -0.0118    0.0165 C   0  0  0  0  0  0  0  0  0  0  0  0
   -4.4329   -0.7309    1.0310 C   0  0  0  0  0  0  0  0  0  0  0  0
   -5.8001   -0.9369    0.9481 C   0  0  0  0  0  0  0  0  0  0  0  0
   -6.4097   -1.7156    1.8547 F   0  0  0  0  0  0  0  0  0  0  0  0
   -6.5395   -0.3548   -0.0600 C   0  0  0  0  0  0  0  0  0  0  0  0
   -5.8853    0.4365   -1.0083 C   0  0  0  0  0  0  0  0  0  0  0  0
   -4.4822    0.5842   -1.0626 C   0  0  0  0  0  0  0  0  0  0  0  0
   -3.9425    1.1970   -2.0505 O   0  5  0  0  0  0  0  0  0  0  0  0
    3.0990   -1.2297   -0.0119 H   0  0  0  0  0  0  0  0  0  0  0  0
    1.0230   -2.5078    0.0016 H   0  0  0  0  0  0  0  0  0  0  0  0
    0.8033    2.4861    0.0122 H   0  0  0  0  0  0  0  0  0  0  0  0
    4.2724    3.4177   -0.1140 H   0  0  0  0  0  0  0  0  0  0  0  0
    2.5600    3.3838   -0.0793 H   0  0  0  0  0  0  0  0  0  0  0  0
    4.6764   -0.0730   -0.0747 H   0  0  0  0  0  0  0  0  0  0  0  0
    5.4838    1.4402   -0.1131 H   0  0  0  0  0  0  0  0  0  0  0  0
   -1.8858   -2.0215   -0.0816 H   0  0  0  0  0  0  0  0  0  0  0  0
   -3.8936   -1.1340    1.8797 H   0  0  0  0  0  0  0  0  0  0  0  0
   -7.6092   -0.5087   -0.1222 H   0  0  0  0  0  0  0  0  0  0  0  0
   -6.4841    0.9459   -1.7638 H   0  0  0  0  0  0  0  0  0  0  0  0
  1  2  2  0  0  0  0
  1  6  1  0  0  0  0
  1  7  1  0  0  0  0
  2  3  1  0  0  0  0
  2 21  1  0  0  0  0
  3  4  2  0  0  0  0
  3 22  1  0  0  0  0
  4  5  1  0  0  0  0
  4 10  1  0  0  0  0
  5  6  2  0  0  0  0
  5 11  1  0  0  0  0
  6 23  1  0  0  0  0
  7  8  1  0  0  0  0
  7  9  2  0  0  0  0
  8 24  1  0  0  0  0
  8 25  1  0  0  0  0
  9 26  1  0  0  0  0
  9 27  1  0  0  0  0
 10 12  1  0  0  0  0
 10 28  1  0  0  0  0
 11 12  2  0  0  0  0
 12 13  1  0  0  0  0
 13 14  2  0  0  0  0
 13 19  1  0  0  0  0
 14 15  1  0  0  0  0
 14 29  1  0  0  0  0
 15 16  1  0  0  0  0
 15 17  2  0  0  0  0
 17 18  1  0  0  0  0
 17 30  1  0  0  0  0
 18 19  2  0  0  0  0
 18 31  1  0  0  0  0
 19 20  1  0  0  0  0
M  CHG  2   9   1  20  -1
M  END
>  <DRUGBANK_ID>
DB02875

>  <SECONDARY_ACCESSION_NUMBERS>
EXPT00318

>  <COMMON_NAME>
CRA_1802

$$$$
