
 OpenBabel10282417203D

 36 37  0  0  0  0  0  0  0  0999 V2000
    2.5288    1.1114   -0.0101 C   0  0  0  0  0  0  0  0  0  0  0  0
    1.2160    0.3687    0.0382 C   0  0  0  0  0  0  0  0  0  0  0  0
   -0.0495    1.0028    0.1996 C   0  0  0  0  0  0  0  0  0  0  0  0
   -1.1076    0.1345    0.5550 C   0  0  0  0  0  0  0  0  0  0  0  0
   -0.9988   -1.2555    0.3297 C   0  0  0  0  0  0  0  0  0  0  0  0
    0.1949   -1.8526    0.0350 C   0  0  0  0  0  0  0  0  0  0  0  0
    1.3139   -1.0481   -0.0138 C   0  0  0  0  0  0  0  0  0  0  0  0
   -2.4423    0.4676    1.1526 C   0  0  0  0  0  0  0  0  0  0  0  0
   -0.1242    2.4262    0.0131 N   0  0  0  0  0  0  0  0  0  0  0  0
   -1.1424    3.3376   -0.2089 C   0  0  0  0  0  0  0  0  0  0  0  0
   -0.8734    4.5413   -0.0742 O   0  0  0  0  0  0  0  0  0  0  0  0
   -2.5999    2.9010   -0.4416 C   0  0  0  0  0  0  0  0  0  0  0  0
   -2.7711    1.8430   -1.5661 N   0  0  0  0  0  0  0  0  0  0  0  0
   -3.1846    0.4019   -1.6119 C   0  0  0  0  0  0  0  0  0  0  0  0
   -2.5266   -0.1468   -2.8571 C   0  0  0  0  0  0  0  0  0  0  0  0
   -2.6967    1.0274   -3.7756 C   0  0  0  0  0  0  0  0  0  0  0  0
   -2.4727    2.2079   -2.8634 C   0  0  0  0  0  0  0  0  0  0  0  0
   -2.0973    3.3372   -3.2198 O   0  0  0  0  0  0  0  0  0  0  0  0
    2.6165    1.7331   -0.9040 H   0  0  0  0  0  0  0  0  0  0  0  0
    2.6380    1.7192    0.8930 H   0  0  0  0  0  0  0  0  0  0  0  0
    3.3751    0.4105   -0.0144 H   0  0  0  0  0  0  0  0  0  0  0  0
   -1.8950   -1.8740    0.3681 H   0  0  0  0  0  0  0  0  0  0  0  0
    0.2337   -2.9308   -0.0679 H   0  0  0  0  0  0  0  0  0  0  0  0
    2.2790   -1.5430   -0.0838 H   0  0  0  0  0  0  0  0  0  0  0  0
   -2.4501    0.9619    2.1135 H   0  0  0  0  0  0  0  0  0  0  0  0
   -2.8912    1.1107    0.4694 H   0  0  0  0  0  0  0  0  0  0  0  0
   -3.2363   -0.2872    1.0537 H   0  0  0  0  0  0  0  0  0  0  0  0
    0.7633    2.9205   -0.0341 H   0  0  0  0  0  0  0  0  0  0  0  0
   -2.8914    2.7138    0.6035 H   0  0  0  0  0  0  0  0  0  0  0  0
   -3.3053    3.7250   -0.6203 H   0  0  0  0  0  0  0  0  0  0  0  0
   -4.2679    0.2547   -1.5449 H   0  0  0  0  0  0  0  0  0  0  0  0
   -2.7710   -0.2880   -0.9118 H   0  0  0  0  0  0  0  0  0  0  0  0
   -2.9644   -1.0962   -3.1870 H   0  0  0  0  0  0  0  0  0  0  0  0
   -1.4586   -0.3479   -2.6653 H   0  0  0  0  0  0  0  0  0  0  0  0
   -3.7298    1.0458   -4.1300 H   0  0  0  0  0  0  0  0  0  0  0  0
   -1.9775    0.9987   -4.5911 H   0  0  0  0  0  0  0  0  0  0  0  0
  1  2  1  0  0  0  0
  1 19  1  0  0  0  0
  1 20  1  0  0  0  0
  1 21  1  0  0  0  0
  2  3  2  0  0  0  0
  3  9  1  0  0  0  0
  3  4  1  0  0  0  0
  4  5  2  0  0  0  0
  4  8  1  0  0  0  0
  5  6  1  0  0  0  0
  5 22  1  0  0  0  0
  6  7  2  0  0  0  0
  6 23  1  0  0  0  0
  7  2  1  0  0  0  0
  7 24  1  0  0  0  0
  8 25  1  0  0  0  0
  8 26  1  0  0  0  0
  8 27  1  0  0  0  0
  9 10  1  0  0  0  0
  9 28  1  0  0  0  0
 10 11  2  0  0  0  0
 10 12  1  0  0  0  0
 12 13  1  0  0  0  0
 12 29  1  0  0  0  0
 12 30  1  0  0  0  0
 13 14  1  0  0  0  0
 14 15  1  0  0  0  0
 14 31  1  0  0  0  0
 14 32  1  0  0  0  0
 15 16  1  0  0  0  0
 15 33  1  0  0  0  0
 15 34  1  0  0  0  0
 16 17  1  0  0  0  0
 16 35  1  0  0  0  0
 16 36  1  0  0  0  0
 17 13  1  0  0  0  0
 17 18  2  0  0  0  0
M  END
>  <DRUGBANK_ID>
DB13082

>  <COMMON_NAME>
Nefiracetam

>  <CAS_NUMBER>
77191-36-7

>  <UNII>
1JK12GX30N

>  <SYNONYMS>
Nefiracetam; Nefiracetamum

$$$$
