SPB
 OpenBabel10282417173D

 42 43  0  0  0  0  0  0  0  0999 V2000
    1.3719   -0.2001    0.0052 C   0  0  0  0  0  0  0  0  0  0  0  0
    0.5080   -1.2999    0.0149 C   0  0  0  0  0  0  0  0  0  0  0  0
   -0.8725   -1.1086   -0.0078 C   0  0  0  0  0  0  0  0  0  0  0  0
   -1.3916    0.1794    0.0110 C   0  0  0  0  0  0  0  0  0  0  0  0
   -0.5299    1.2727    0.0442 C   0  0  0  0  0  0  0  0  0  0  0  0
    0.8604    1.1033   -0.0282 C   0  0  0  0  0  0  0  0  0  0  0  0
    1.7801    2.2366   -0.2223 C   0  0  0  0  0  0  0  0  0  0  0  0
    1.3753    3.5076   -0.3583 C   0  0  0  0  0  0  0  0  0  0  0  0
    2.2655    4.6242   -0.6528 C   0  0  0  0  0  0  0  0  0  0  0  0
    3.2383    4.5754   -1.6576 C   0  0  0  0  0  0  0  0  0  0  0  0
    4.0090    5.7078   -1.9699 C   0  0  0  0  0  0  0  0  0  0  0  0
    3.7851    6.9113   -1.2975 C   0  0  0  0  0  0  0  0  0  0  0  0
    2.7439    6.9543   -0.3622 C   0  0  0  0  0  0  0  0  0  0  0  0
    2.0345    5.8207    0.0065 C   0  0  0  0  0  0  0  0  0  0  0  0
    4.6174    8.0364   -1.5513 N   0  0  0  0  0  0  0  0  0  0  0  0
    4.5589    9.2006   -0.8087 C   0  0  0  0  0  0  0  0  0  0  0  0
    5.4917   10.3245   -1.2055 C   0  0  0  0  0  0  0  0  0  0  0  0
    4.6939   11.5850   -1.5807 C   0  0  0  0  0  0  0  0  0  0  0  0
    3.6926   12.0844   -0.5245 C   0  0  0  0  0  0  0  0  0  0  0  0
    4.3352   12.4994    0.7761 C   0  0  0  0  0  0  0  0  0  0  0  0
    4.2601   13.6168    1.2781 O   0  0  0  0  0  0  0  0  0  0  0  0
    3.8042    9.3772    0.1447 O   0  0  0  0  0  0  0  0  0  0  0  0
    5.0343   11.5322    1.3891 O   0  0  0  0  0  0  0  0  0  0  0  0
    2.4454   -0.3766    0.0119 H   0  0  0  0  0  0  0  0  0  0  0  0
    0.9129   -2.3081    0.0199 H   0  0  0  0  0  0  0  0  0  0  0  0
   -1.5456   -1.9604   -0.0267 H   0  0  0  0  0  0  0  0  0  0  0  0
   -2.4646    0.3467   -0.0126 H   0  0  0  0  0  0  0  0  0  0  0  0
   -0.9781    2.2582    0.1118 H   0  0  0  0  0  0  0  0  0  0  0  0
    2.8359    1.9967   -0.3226 H   0  0  0  0  0  0  0  0  0  0  0  0
    0.3315    3.7964   -0.2806 H   0  0  0  0  0  0  0  0  0  0  0  0
    3.3918    3.6516   -2.2097 H   0  0  0  0  0  0  0  0  0  0  0  0
    4.7623    5.6195   -2.7468 H   0  0  0  0  0  0  0  0  0  0  0  0
    2.4267    7.8672    0.1241 H   0  0  0  0  0  0  0  0  0  0  0  0
    1.3038    5.9053    0.8077 H   0  0  0  0  0  0  0  0  0  0  0  0
    5.3753    7.9200   -2.2122 H   0  0  0  0  0  0  0  0  0  0  0  0
    6.1383   10.5245   -0.3450 H   0  0  0  0  0  0  0  0  0  0  0  0
    6.1693   10.0347   -2.0126 H   0  0  0  0  0  0  0  0  0  0  0  0
    5.3979   12.3966   -1.8025 H   0  0  0  0  0  0  0  0  0  0  0  0
    4.1441   11.3828   -2.5093 H   0  0  0  0  0  0  0  0  0  0  0  0
    3.1678   12.9595   -0.9274 H   0  0  0  0  0  0  0  0  0  0  0  0
    2.8916   11.3656   -0.3271 H   0  0  0  0  0  0  0  0  0  0  0  0
    5.4133   11.9147    2.2038 H   0  0  0  0  0  0  0  0  0  0  0  0
  1  2  2  0  0  0  0
  1  6  1  0  0  0  0
  1 24  1  0  0  0  0
  2  3  1  0  0  0  0
  2 25  1  0  0  0  0
  3  4  2  0  0  0  0
  3 26  1  0  0  0  0
  4  5  1  0  0  0  0
  4 27  1  0  0  0  0
  5  6  2  0  0  0  0
  5 28  1  0  0  0  0
  6  7  1  0  0  0  0
  7  8  2  0  0  0  0
  7 29  1  0  0  0  0
  8  9  1  0  0  0  0
  8 30  1  0  0  0  0
  9 10  2  0  0  0  0
  9 14  1  0  0  0  0
 10 11  1  0  0  0  0
 10 31  1  0  0  0  0
 11 12  2  0  0  0  0
 11 32  1  0  0  0  0
 12 13  1  0  0  0  0
 12 15  1  0  0  0  0
 13 14  2  0  0  0  0
 13 33  1  0  0  0  0
 14 34  1  0  0  0  0
 15 16  1  0  0  0  0
 15 35  1  0  0  0  0
 16 17  1  0  0  0  0
 16 22  2  0  0  0  0
 17 18  1  0  0  0  0
 17 36  1  0  0  0  0
 17 37  1  0  0  0  0
 18 19  1  0  0  0  0
 18 38  1  0  0  0  0
 18 39  1  0  0  0  0
 19 20  1  0  0  0  0
 19 40  1  0  0  0  0
 19 41  1  0  0  0  0
 20 21  2  0  0  0  0
 20 23  1  0  0  0  0
 23 42  1  0  0  0  0
M  END
>  <DRUGBANK_ID>
DB08562

>  <COMMON_NAME>
4-(4-STYRYL-PHENYLCARBAMOYL)-BUTYRIC ACID

$$$$
