
 OpenBabel10282417203D

 45 47  0  0  1  0  0  0  0  0999 V2000
    0.1820   -6.4610   -2.0635 C   0  0  0  0  0  0  0  0  0  0  0  0
   -0.4172   -5.8590   -0.8260 C   0  0  0  0  0  0  0  0  0  0  0  0
   -0.8761   -4.5277   -0.8501 C   0  0  0  0  0  0  0  0  0  0  0  0
   -1.4769   -3.8906    0.2676 C   0  0  0  0  0  0  0  0  0  0  0  0
   -1.5380   -4.6566    1.4308 C   0  0  0  0  0  0  0  0  0  0  0  0
   -1.0919   -5.9771    1.4740 C   0  0  0  0  0  0  0  0  0  0  0  0
   -0.5346   -6.5940    0.3571 C   0  0  0  0  0  0  0  0  0  0  0  0
   -0.0873   -8.0165    0.5095 C   0  0  0  0  0  0  0  0  0  0  0  0
   -2.0681   -4.2608    2.6116 O   0  0  0  0  0  0  0  0  0  0  0  0
   -2.0188   -2.4859   -0.0031 C   0  0  1  0  0  0  0  0  0  0  0  0
   -3.0998   -2.6150   -1.1390 C   0  0  0  0  0  0  0  0  0  0  0  0
   -4.2446   -1.6845   -0.6964 C   0  0  2  0  0  0  0  0  0  0  0  0
   -3.7439   -0.2554   -0.9295 C   0  0  0  0  0  0  0  0  0  0  0  0
   -2.7254   -0.0828    0.2008 C   0  0  0  0  0  0  0  0  0  0  0  0
   -2.7532   -1.4699    0.9723 C   0  0  1  0  0  0  0  0  0  0  0  0
   -4.2677   -1.8421    0.8457 C   0  0  0  0  0  0  0  0  0  0  0  0
   -5.2376   -0.8863    1.5634 C   0  0  0  0  0  0  0  0  0  0  0  0
   -4.6867   -3.2523    1.2934 C   0  0  0  0  0  0  0  0  0  0  0  0
   -2.1666   -1.1990    2.3571 C   0  0  0  0  0  0  0  0  0  0  0  0
    1.2211   -6.7440   -1.8683 H   0  0  0  0  0  0  0  0  0  0  0  0
   -0.3894   -7.3443   -2.3677 H   0  0  0  0  0  0  0  0  0  0  0  0
    0.1787   -5.7603   -2.9039 H   0  0  0  0  0  0  0  0  0  0  0  0
   -0.7917   -3.9754   -1.7879 H   0  0  0  0  0  0  0  0  0  0  0  0
   -1.2122   -6.5324    2.4022 H   0  0  0  0  0  0  0  0  0  0  0  0
    0.6666   -8.0754    1.3011 H   0  0  0  0  0  0  0  0  0  0  0  0
   -0.9405   -8.6484    0.7773 H   0  0  0  0  0  0  0  0  0  0  0  0
    0.3560   -8.4228   -0.4011 H   0  0  0  0  0  0  0  0  0  0  0  0
   -2.6841   -3.5567    2.3872 H   0  0  0  0  0  0  0  0  0  0  0  0
   -1.1458   -1.9442   -0.4001 H   0  0  0  0  0  0  0  0  0  0  0  0
   -2.6867   -2.3363   -2.1162 H   0  0  0  0  0  0  0  0  0  0  0  0
   -3.4852   -3.6366   -1.2395 H   0  0  0  0  0  0  0  0  0  0  0  0
   -5.1876   -1.8994   -1.2049 H   0  0  0  0  0  0  0  0  0  0  0  0
   -3.2869   -0.1214   -1.9160 H   0  0  0  0  0  0  0  0  0  0  0  0
   -4.5564    0.4739   -0.8469 H   0  0  0  0  0  0  0  0  0  0  0  0
   -1.7297    0.1605   -0.1868 H   0  0  0  0  0  0  0  0  0  0  0  0
   -3.0223    0.7542    0.8444 H   0  0  0  0  0  0  0  0  0  0  0  0
   -6.2748   -1.1571    1.3337 H   0  0  0  0  0  0  0  0  0  0  0  0
   -5.1081   -0.9593    2.6489 H   0  0  0  0  0  0  0  0  0  0  0  0
   -5.1220    0.1652    1.2965 H   0  0  0  0  0  0  0  0  0  0  0  0
   -4.1265   -4.0591    0.8213 H   0  0  0  0  0  0  0  0  0  0  0  0
   -4.5874   -3.3536    2.3797 H   0  0  0  0  0  0  0  0  0  0  0  0
   -5.7368   -3.4479    1.0565 H   0  0  0  0  0  0  0  0  0  0  0  0
   -2.6911   -0.3681    2.8435 H   0  0  0  0  0  0  0  0  0  0  0  0
   -2.2372   -2.0047    3.0802 H   0  0  0  0  0  0  0  0  0  0  0  0
   -1.1097   -0.9232    2.2839 H   0  0  0  0  0  0  0  0  0  0  0  0
  1  2  1  0  0  0  0
  1 20  1  0  0  0  0
  1 21  1  0  0  0  0
  1 22  1  0  0  0  0
  2  3  2  0  0  0  0
  2  7  1  0  0  0  0
  3  4  1  0  0  0  0
  3 23  1  0  0  0  0
  4  5  2  0  0  0  0
  5  6  1  0  0  0  0
  5  9  1  0  0  0  0
  6  7  2  0  0  0  0
  6 24  1  0  0  0  0
  7  8  1  0  0  0  0
  8 25  1  0  0  0  0
  8 26  1  0  0  0  0
  8 27  1  0  0  0  0
  9 28  1  0  0  0  0
 10 11  1  0  0  0  0
 10 15  1  0  0  0  0
 10 29  1  6  0  0  0
 10  4  1  0  0  0  0
 11 30  1  0  0  0  0
 11 31  1  0  0  0  0
 12 11  1  0  0  0  0
 12 13  1  0  0  0  0
 12 16  1  0  0  0  0
 12 32  1  6  0  0  0
 13 14  1  0  0  0  0
 13 33  1  0  0  0  0
 13 34  1  0  0  0  0
 14 15  1  0  0  0  0
 14 35  1  0  0  0  0
 14 36  1  0  0  0  0
 15 16  1  0  0  0  0
 15 19  1  1  0  0  0
 16 17  1  0  0  0  0
 16 18  1  0  0  0  0
 17 37  1  0  0  0  0
 17 38  1  0  0  0  0
 17 39  1  0  0  0  0
 18 40  1  0  0  0  0
 18 41  1  0  0  0  0
 18 42  1  0  0  0  0
 19 43  1  0  0  0  0
 19 44  1  0  0  0  0
 19 45  1  0  0  0  0
M  END
>  <DRUGBANK_ID>
DB13714

>  <COMMON_NAME>
Xibornol

>  <CAS_NUMBER>
13741-18-9

>  <UNII>
RQ12GMY0FZ

>  <SYNONYMS>
Xibornol

$$$$
