
 OpenBabel10282417193D

 51 52  0  0  0  0  0  0  0  0999 V2000
    3.0368    6.9964    3.3845 C   0  0  0  0  0  0  0  0  0  0  0  0
    3.1837    4.8217    4.0022 C   0  0  0  0  0  0  0  0  0  0  0  0
    3.8949    5.6958    4.8122 C   0  0  0  0  0  0  0  0  0  0  0  0
    3.7831    7.0149    4.4450 N   0  0  0  0  0  0  0  0  0  0  0  0
    2.7225    5.7097    3.0555 N   0  0  0  0  0  0  0  0  0  0  0  0
    2.3266    5.5792    1.7025 C   0  0  0  0  0  0  0  0  0  0  0  0
    3.6149    5.3258    0.7800 C   0  0  0  0  0  0  0  0  0  0  0  0
    5.2086    2.6024    0.3067 C   0  0  0  0  0  0  0  0  0  0  0  0
    5.0574    2.7524   -1.3507 C   0  0  0  0  0  0  0  0  0  0  0  0
    4.3229    4.1794   -2.0820 C   0  0  0  0  0  0  0  0  0  0  0  0
    3.6045    5.5323   -1.0752 C   0  0  0  0  0  0  0  0  0  0  0  0
    4.5939    3.8738    1.3850 C   0  0  0  0  0  0  0  0  0  0  0  0
    3.2081    3.2784    4.0892 C   0  0  0  0  0  0  0  0  0  0  0  0
    1.9271    2.3823    3.6741 C   0  0  2  0  0  0  0  0  0  0  0  0
   -0.0937    3.1450    4.8432 O   0  0  0  0  0  0  0  0  0  0  0  0
    1.7911    1.3811    2.4790 N   0  0  0  0  0  0  0  0  0  0  0  0
    1.5156    1.9427    1.0987 C   0  0  2  0  0  0  0  0  0  0  0  0
    1.7214    1.0724   -0.1421 C   0  0  0  0  0  0  0  0  0  0  0  0
    2.6585    0.3154   -0.3531 O   0  0  0  0  0  0  0  0  0  0  0  0
    0.9103    1.4766   -1.1577 O   0  0  0  0  0  0  0  0  0  0  0  0
    5.6376    1.0064    0.9427 Cl  0  0  0  0  0  0  0  0  0  0  0  0
    4.2999    4.1542   -3.7936 Cl  0  0  0  0  0  0  0  0  0  0  0  0
    0.6126    3.1600    3.8514 C   0  0  0  0  0  0  0  0  0  0  0  0
    2.7195    2.7413    0.9578 C   0  0  0  0  0  0  0  0  0  0  0  0
    3.2505    3.7135   -0.3079 C   0  0  0  0  0  0  0  0  0  0  0  0
    1.5871    4.6789   -0.6100 C   0  0  0  0  0  0  0  0  0  0  0  0
    5.1702    4.6920   -0.2963 C   0  0  0  0  0  0  0  0  0  0  0  0
    0.2455    3.8818    2.7701 O   0  0  0  0  0  0  0  0  0  0  0  0
    2.7681    7.8151    2.7181 H   0  0  0  0  0  0  0  0  0  0  0  0
    4.5306    5.4017    5.6276 H   0  0  0  0  0  0  0  0  0  0  0  0
    1.6233    4.7657    1.6427 H   0  0  0  0  0  0  0  0  0  0  0  0
    1.6436    6.4122    1.4726 H   0  0  0  0  0  0  0  0  0  0  0  0
    5.3066    1.8494   -1.9176 H   0  0  0  0  0  0  0  0  0  0  0  0
    3.0642    6.2727   -1.6663 H   0  0  0  0  0  0  0  0  0  0  0  0
    4.5546    3.4026    2.3254 H   0  0  0  0  0  0  0  0  0  0  0  0
    4.1864    2.8994    3.7778 H   0  0  0  0  0  0  0  0  0  0  0  0
    3.4607    3.0183    5.1291 H   0  0  0  0  0  0  0  0  0  0  0  0
    1.9569    1.6611    4.4996 H   0  0  0  0  0  0  0  0  0  0  0  0
    1.0807    0.6894    2.6986 H   0  0  0  0  0  0  0  0  0  0  0  0
    0.6336    2.5677    1.0426 H   0  0  0  0  0  0  0  0  0  0  0  0
    0.3284    2.2192   -0.9125 H   0  0  0  0  0  0  0  0  0  0  0  0
    2.6260    3.3666    1.8124 H   0  0  0  0  0  0  0  0  0  0  0  0
    3.4481    1.9795    1.2091 H   0  0  0  0  0  0  0  0  0  0  0  0
    2.9898    2.9956   -1.1357 H   0  0  0  0  0  0  0  0  0  0  0  0
    1.6072    5.7102   -0.2051 H   0  0  0  0  0  0  0  0  0  0  0  0
    1.3594    5.0619   -1.6154 H   0  0  0  0  0  0  0  0  0  0  0  0
    0.6979    4.2434   -0.1562 H   0  0  0  0  0  0  0  0  0  0  0  0
    6.1883    4.1965   -0.2438 H   0  0  0  0  0  0  0  0  0  0  0  0
    5.4915    5.5245   -1.0280 H   0  0  0  0  0  0  0  0  0  0  0  0
    5.4630    5.4647    0.5541 H   0  0  0  0  0  0  0  0  0  0  0  0
   -0.4612    4.5251    2.9765 H   0  0  0  0  0  0  0  0  0  0  0  0
  1  4  2  0  0  0  0
  1  5  1  0  0  0  0
  1 29  1  0  0  0  0
  2  5  1  0  0  0  0
  2  3  2  0  0  0  0
  2 13  1  0  0  0  0
  3  4  1  0  0  0  0
  3 30  1  0  0  0  0
  5  6  1  0  0  0  0
  6  7  1  0  0  0  0
  6 31  1  0  0  0  0
  6 32  1  0  0  0  0
  7 11  2  0  0  0  0
  7 12  1  0  0  0  0
  8  9  1  0  0  0  0
  8 12  2  0  0  0  0
  8 21  1  0  0  0  0
  9 10  2  0  0  0  0
  9 33  1  0  0  0  0
 10 11  1  0  0  0  0
 10 22  1  0  0  0  0
 11 34  1  0  0  0  0
 12 35  1  0  0  0  0
 13 36  1  0  0  0  0
 13 37  1  0  0  0  0
 14 23  1  0  0  0  0
 14 38  1  1  0  0  0
 14 16  1  0  0  0  0
 14 13  1  0  0  0  0
 15 23  2  0  0  0  0
 16 39  1  0  0  0  0
 17 24  1  0  0  0  0
 17 40  1  6  0  0  0
 17 18  1  0  0  0  0
 17 16  1  0  0  0  0
 18 20  1  0  0  0  0
 18 19  2  0  0  0  0
 20 41  1  0  0  0  0
 23 28  1  0  0  0  0
 24 25  1  0  0  0  0
 24 42  1  0  0  0  0
 24 43  1  0  0  0  0
 25 26  1  0  0  0  0
 25 27  1  0  0  0  0
 25 44  1  0  0  0  0
 26 45  1  0  0  0  0
 26 46  1  0  0  0  0
 26 47  1  0  0  0  0
 27 48  1  0  0  0  0
 27 49  1  0  0  0  0
 27 50  1  0  0  0  0
 28 51  1  0  0  0  0
M  END
>  <DRUGBANK_ID>
DB12271

>  <SECONDARY_ACCESSION_NUMBERS>
DB06387

>  <COMMON_NAME>
ORE-1001

>  <CAS_NUMBER>
305335-31-3

>  <UNII>
4LD0ZHV25K

$$$$
