
 OpenBabel10282417183D

 33 32  0  0  0  0  0  0  0  0999 V2000
    1.0706   -0.1006    0.1119 C   0  0  0  0  0  0  0  0  0  0  0  0
   -0.6580    1.6596   -0.5614 C   0  0  0  0  0  0  0  0  0  0  0  0
    0.2347    1.1074    0.5799 C   0  0  3  0  0  0  0  0  0  0  0  0
    0.5492   -1.1682   -0.2016 O   0  0  0  0  0  0  0  0  0  0  0  0
    2.4247    0.0175    0.0269 N   0  0  0  0  0  0  0  0  0  0  0  0
   -0.4610    0.7962    1.7803 O   0  0  0  0  0  0  0  0  0  0  0  0
   -1.6939    0.6389   -1.0733 C   0  0  0  0  0  0  0  0  0  0  0  0
    4.1323    0.6308    1.6835 C   0  0  0  0  0  0  0  0  0  0  0  0
   -1.3989    2.9051   -0.0337 C   0  0  0  0  0  0  0  0  0  0  0  0
    0.2368    2.0995   -1.7446 C   0  0  0  0  0  0  0  0  0  0  0  0
   -2.6249    0.2662   -0.0680 O   0  0  0  0  0  0  0  0  0  0  0  0
    5.9943    0.0926    0.2361 O   0  0  0  0  0  0  0  0  0  0  0  0
    3.2600    1.0924    0.5268 C   0  0  0  0  0  0  0  0  0  0  0  0
    5.1417   -0.4199    1.2511 C   0  0  0  0  0  0  0  0  0  0  0  0
    0.8739    1.9326    0.8725 H   0  0  0  0  0  0  0  0  0  0  0  0
    2.8645   -0.8256   -0.3290 H   0  0  0  0  0  0  0  0  0  0  0  0
   -0.8617   -0.0799    1.6740 H   0  0  0  0  0  0  0  0  0  0  0  0
   -2.2732    1.0755   -1.8929 H   0  0  0  0  0  0  0  0  0  0  0  0
   -1.2300   -0.2640   -1.4806 H   0  0  0  0  0  0  0  0  0  0  0  0
    4.6631    1.5073    2.0734 H   0  0  0  0  0  0  0  0  0  0  0  0
    3.5073    0.2358    2.4945 H   0  0  0  0  0  0  0  0  0  0  0  0
   -0.6910    3.6755    0.2943 H   0  0  0  0  0  0  0  0  0  0  0  0
   -2.0288    3.3438   -0.8144 H   0  0  0  0  0  0  0  0  0  0  0  0
   -2.0405    2.6623    0.8194 H   0  0  0  0  0  0  0  0  0  0  0  0
    0.9663    2.8563   -1.4310 H   0  0  0  0  0  0  0  0  0  0  0  0
    0.7963    1.2591   -2.1703 H   0  0  0  0  0  0  0  0  0  0  0  0
   -0.3612    2.5329   -2.5534 H   0  0  0  0  0  0  0  0  0  0  0  0
   -2.2277   -0.4495    0.4515 H   0  0  0  0  0  0  0  0  0  0  0  0
    5.4636    0.2708   -0.5585 H   0  0  0  0  0  0  0  0  0  0  0  0
    3.8414    1.4647   -0.3194 H   0  0  0  0  0  0  0  0  0  0  0  0
    2.6797    1.9396    0.8791 H   0  0  0  0  0  0  0  0  0  0  0  0
    5.7661   -0.7082    2.1003 H   0  0  0  0  0  0  0  0  0  0  0  0
    4.6486   -1.3240    0.8794 H   0  0  0  0  0  0  0  0  0  0  0  0
  2  3  1  0  0  0  0
  3  1  1  0  0  0  0
  3  6  1  0  0  0  0
  3 15  1  0  0  0  0
  4  1  2  0  0  0  0
  5  1  1  0  0  0  0
  5 16  1  0  0  0  0
  6 17  1  0  0  0  0
  7  2  1  0  0  0  0
  7 18  1  0  0  0  0
  7 19  1  0  0  0  0
  8 13  1  0  0  0  0
  8 20  1  0  0  0  0
  8 21  1  0  0  0  0
  9  2  1  0  0  0  0
  9 22  1  0  0  0  0
  9 23  1  0  0  0  0
  9 24  1  0  0  0  0
 10  2  1  0  0  0  0
 10 25  1  0  0  0  0
 10 26  1  0  0  0  0
 10 27  1  0  0  0  0
 11  7  1  0  0  0  0
 11 28  1  0  0  0  0
 12 14  1  0  0  0  0
 12 29  1  0  0  0  0
 13  5  1  0  0  0  0
 13 30  1  0  0  0  0
 13 31  1  0  0  0  0
 14  8  1  0  0  0  0
 14 32  1  0  0  0  0
 14 33  1  0  0  0  0
M  END
>  <DRUGBANK_ID>
DB11204

>  <COMMON_NAME>
Panthenol

>  <CAS_NUMBER>
16485-10-2

>  <UNII>
WV9CM0O67Z

>  <SYNONYMS>
DL-panthenol; DL-Pantothenol; Pantenol; Panthenol; Panthenolum

$$$$
