EBP
 OpenBabel10282417123D

 35 35  0  0  0  0  0  0  0  0999 V2000
    0.8703    0.1134   -0.7659 C   0  0  0  0  0  0  0  0  0  0  0  0
    0.2032    1.3101   -0.5034 C   0  0  0  0  0  0  0  0  0  0  0  0
   -1.2211    1.3585   -0.3751 C   0  0  0  0  0  0  0  0  0  0  0  0
   -2.0398    0.2242   -0.5334 C   0  0  0  0  0  0  0  0  0  0  0  0
   -1.4338   -0.9332   -0.9822 C   0  0  0  0  0  0  0  0  0  0  0  0
   -0.0226   -0.9579   -1.2518 C   0  0  0  0  0  0  0  0  0  0  0  0
    2.4920    0.0040   -0.0140 C   0  0  0  0  0  0  0  0  0  0  0  0
   -3.4845    0.1688   -0.1026 C   0  0  0  0  0  0  0  0  0  0  0  0
    3.4398    1.3616    2.7066 C   0  0  0  0  0  0  0  0  0  0  0  0
    4.7247    0.8790    3.3737 C   0  0  0  0  0  0  0  0  0  0  0  0
    1.1718   -2.3309    0.5645 C   0  0  0  0  0  0  0  0  0  0  0  0
    0.2950   -1.4268    1.4408 C   0  0  0  0  0  0  0  0  0  0  0  0
    3.1338   -0.8803    1.4540 P   0  0  0  0  0  0  0  0  0  0  0  0
    2.5064    0.3062    2.4117 O   0  0  0  0  0  0  0  0  0  0  0  0
    2.3331   -2.2564    1.3303 O   0  0  0  0  0  0  0  0  0  0  0  0
    3.6769   -1.6284    2.6961 O   0  0  0  0  0  0  0  0  0  0  0  0
    0.7716    2.1983   -0.2529 H   0  0  0  0  0  0  0  0  0  0  0  0
   -1.6607    2.2765   -0.0027 H   0  0  0  0  0  0  0  0  0  0  0  0
   -1.9667   -1.8877   -0.8090 H   0  0  0  0  0  0  0  0  0  0  0  0
    0.2609   -1.9845   -1.4972 H   0  0  0  0  0  0  0  0  0  0  0  0
    3.0904   -0.3688   -0.8582 H   0  0  0  0  0  0  0  0  0  0  0  0
    2.7644    1.0638    0.0467 H   0  0  0  0  0  0  0  0  0  0  0  0
   -4.0655   -0.3598   -0.8673 H   0  0  0  0  0  0  0  0  0  0  0  0
   -3.6163   -0.3757    0.8442 H   0  0  0  0  0  0  0  0  0  0  0  0
   -3.9097    1.1679    0.0112 H   0  0  0  0  0  0  0  0  0  0  0  0
    3.6993    1.8725    1.7743 H   0  0  0  0  0  0  0  0  0  0  0  0
    2.9376    2.0885    3.3496 H   0  0  0  0  0  0  0  0  0  0  0  0
    5.2654    0.1656    2.7413 H   0  0  0  0  0  0  0  0  0  0  0  0
    5.4124    1.7072    3.5625 H   0  0  0  0  0  0  0  0  0  0  0  0
    4.5017    0.3741    4.3186 H   0  0  0  0  0  0  0  0  0  0  0  0
    1.6691   -2.0731   -0.3812 H   0  0  0  0  0  0  0  0  0  0  0  0
    0.8468   -3.3308    0.3965 H   0  0  0  0  0  0  0  0  0  0  0  0
    0.7809   -0.5360    1.8130 H   0  0  0  0  0  0  0  0  0  0  0  0
   -0.5591   -0.9463    1.0180 H   0  0  0  0  0  0  0  0  0  0  0  0
   -0.0661   -1.9511    2.3083 H   0  0  0  0  0  0  0  0  0  0  0  0
  1  2  2  0  0  0  0
  1  6  1  0  0  0  0
  1  7  1  0  0  0  0
  2  3  1  0  0  0  0
  2 17  1  0  0  0  0
  3  4  2  0  0  0  0
  3 18  1  0  0  0  0
  4  5  1  0  0  0  0
  4  8  1  0  0  0  0
  5  6  2  0  0  0  0
  5 19  1  0  0  0  0
  6 20  1  0  0  0  0
  7 13  1  0  0  0  0
  7 21  1  0  0  0  0
  7 22  1  0  0  0  0
  8 23  1  0  0  0  0
  8 24  1  0  0  0  0
  8 25  1  0  0  0  0
  9 10  1  0  0  0  0
  9 14  1  0  0  0  0
  9 26  1  0  0  0  0
  9 27  1  0  0  0  0
 10 28  1  0  0  0  0
 10 29  1  0  0  0  0
 10 30  1  0  0  0  0
 11 12  1  0  0  0  0
 11 15  1  0  0  0  0
 11 31  1  0  0  0  0
 11 32  1  0  0  0  0
 12 33  1  0  0  0  0
 12 34  1  0  0  0  0
 12 35  1  0  0  0  0
 13 14  1  0  0  0  0
 13 15  1  0  0  0  0
 13 16  2  0  0  0  0
M  END
>  <DRUGBANK_ID>
DB02138

>  <SECONDARY_ACCESSION_NUMBERS>
EXPT01324

>  <COMMON_NAME>
Diethyl 4-Methylbenzylphosphonate

>  <CAS_NUMBER>
3762-25-2

>  <UNII>
KR7824QXJ2

$$$$
