
 OpenBabel10282417143D

 41 41  0  0  0  0  0  0  0  0999 V2000
    0.8067   -1.6639   -6.7468 P   0  0  0  0  0  0  0  0  0  0  0  0
    2.1237   -3.0266   -4.8139 O   0  0  0  0  0  0  0  0  0  0  0  0
    4.9481   -2.0976   -7.6948 O   0  0  0  0  0  0  0  0  0  0  0  0
    4.9248   -2.3104   -2.6619 O   0  0  0  0  0  0  0  0  0  0  0  0
    3.2661   -3.7504   -0.8731 O   0  0  0  0  0  0  0  0  0  0  0  0
    1.3450   -0.4841   -5.8077 O   0  0  0  0  0  0  0  0  0  0  0  0
    1.3891   -1.2445   -8.1856 O   0  0  0  0  0  0  0  0  0  0  0  0
   -0.6781   -1.7339   -6.6920 O   0  0  0  0  0  0  0  0  0  0  0  0
    2.8764   -6.0397   -2.3158 O   0  0  0  0  0  0  0  0  0  0  0  0
    6.2074    1.3459   -5.0580 O   0  0  0  0  0  0  0  0  0  0  0  0
    4.9352   -0.4908   -4.9542 N   0  0  0  0  0  0  0  0  0  0  0  0
    4.3642   -1.8274   -5.2942 C   0  0  1  0  0  0  0  0  0  0  0  0
    3.1358   -2.0976   -4.3543 C   0  0  2  0  0  0  0  0  0  0  0  0
    3.9050   -1.9482   -6.7472 C   0  0  2  0  0  0  0  0  0  0  0  0
    3.1054   -3.1959   -6.9956 C   0  0  0  0  0  0  0  0  0  0  0  0
    1.8187   -3.0929   -6.2242 C   0  0  2  0  0  0  0  0  0  0  0  0
    3.5082   -2.3545   -2.8635 C   0  0  1  0  0  0  0  0  0  0  0  0
    2.8793   -3.6193   -2.2548 C   0  0  1  0  0  0  0  0  0  0  0  0
    3.3583   -4.8812   -2.9807 C   0  0  0  0  0  0  0  0  0  0  0  0
    5.6917    0.4140   -5.6516 C   0  0  0  0  0  0  0  0  0  0  0  0
    5.8502    0.2814   -7.1365 C   0  0  0  0  0  0  0  0  0  0  0  0
    2.6180   -1.1495   -4.2503 H   0  0  0  0  0  0  0  0  0  0  0  0
    4.6571   -1.5900   -8.4776 H   0  0  0  0  0  0  0  0  0  0  0  0
    5.3150   -3.1535   -2.9482 H   0  0  0  0  0  0  0  0  0  0  0  0
    2.7142   -3.1385   -0.3526 H   0  0  0  0  0  0  0  0  0  0  0  0
    0.9097   -0.5738   -4.9350 H   0  0  0  0  0  0  0  0  0  0  0  0
    1.5793   -1.9871   -8.7888 H   0  0  0  0  0  0  0  0  0  0  0  0
    3.1883   -5.9333   -1.3959 H   0  0  0  0  0  0  0  0  0  0  0  0
    5.0180   -0.2999   -3.9568 H   0  0  0  0  0  0  0  0  0  0  0  0
    5.1587   -2.5616   -5.1196 H   0  0  0  0  0  0  0  0  0  0  0  0
    3.3618   -1.0319   -6.9821 H   0  0  0  0  0  0  0  0  0  0  0  0
    2.9346   -3.3013   -8.0738 H   0  0  0  0  0  0  0  0  0  0  0  0
    3.7085   -4.0682   -6.7134 H   0  0  0  0  0  0  0  0  0  0  0  0
    1.2514   -4.0135   -6.4192 H   0  0  0  0  0  0  0  0  0  0  0  0
    3.1448   -1.4928   -2.2850 H   0  0  0  0  0  0  0  0  0  0  0  0
    1.7827   -3.5582   -2.2662 H   0  0  0  0  0  0  0  0  0  0  0  0
    3.0298   -4.9315   -4.0185 H   0  0  0  0  0  0  0  0  0  0  0  0
    4.4487   -4.9421   -2.9801 H   0  0  0  0  0  0  0  0  0  0  0  0
    6.4452   -0.6100   -7.3430 H   0  0  0  0  0  0  0  0  0  0  0  0
    4.8677    0.2960   -7.6142 H   0  0  0  0  0  0  0  0  0  0  0  0
    6.3985    1.1152   -7.5715 H   0  0  0  0  0  0  0  0  0  0  0  0
  1  6  1  0  0  0  0
  1  7  1  0  0  0  0
  1  8  2  0  0  0  0
  2 13  1  0  0  0  0
  2 16  1  0  0  0  0
  3 23  1  0  0  0  0
  4 24  1  0  0  0  0
  5 25  1  0  0  0  0
  6 26  1  0  0  0  0
  7 27  1  0  0  0  0
  9 19  1  0  0  0  0
  9 28  1  0  0  0  0
 10 20  2  0  0  0  0
 11 20  1  0  0  0  0
 11 29  1  0  0  0  0
 12 13  1  0  0  0  0
 12 14  1  0  0  0  0
 12 30  1  1  0  0  0
 12 11  1  0  0  0  0
 13 22  1  1  0  0  0
 14 15  1  0  0  0  0
 14 31  1  6  0  0  0
 14  3  1  0  0  0  0
 15 16  1  0  0  0  0
 15 32  1  0  0  0  0
 15 33  1  0  0  0  0
 16  1  1  0  0  0  0
 16 34  1  6  0  0  0
 17 35  1  1  0  0  0
 17 13  1  0  0  0  0
 17  4  1  0  0  0  0
 18 19  1  0  0  0  0
 18 36  1  6  0  0  0
 18 17  1  0  0  0  0
 18  5  1  0  0  0  0
 19 37  1  0  0  0  0
 19 38  1  0  0  0  0
 20 21  1  0  0  0  0
 21 39  1  0  0  0  0
 21 40  1  0  0  0  0
 21 41  1  0  0  0  0
M  END
>  <DRUGBANK_ID>
DB04561

>  <SECONDARY_ACCESSION_NUMBERS>
EXPT00595

>  <COMMON_NAME>
4-acetamido-2,4-didexoy-D-glycero-beta-D-galacto-octopyranosylphosphonic acid

$$$$
