
 OpenBabel10282417133D

 74 76  0  0  0  0  0  0  0  0999 V2000
   -1.5406    1.2580    0.1566 O   0  0  0  0  0  0  0  0  0  0  0  0
   -0.1149    2.9358    0.9492 O   0  0  0  0  0  0  0  0  0  0  0  0
   -1.1216   -1.4385    0.8806 O   0  0  0  0  0  0  0  0  0  0  0  0
    1.3908   -1.6868   -0.2804 O   0  0  0  0  0  0  0  0  0  0  0  0
    2.1555    1.0974    0.0273 O   0  0  0  0  0  0  0  0  0  0  0  0
   -4.0234    1.0659   -1.0482 O   0  0  0  0  0  0  0  0  0  0  0  0
    1.4259    0.6916    6.2992 O   0  0  0  0  0  0  0  0  0  0  0  0
   -2.1766    5.5330    4.6454 O   0  5  0  0  0  0  0  0  0  0  0  0
   -1.3860    4.6176    6.4791 O   0  0  0  0  0  0  0  0  0  0  0  0
    4.7481   -1.7603    2.2278 N   0  0  0  0  0  0  0  0  0  0  0  0
    3.7633   -3.4451    4.5693 N   0  0  0  0  0  0  0  0  0  0  0  0
    2.6166    0.5735    4.4322 N   0  0  0  0  0  0  0  0  0  0  0  0
    4.8186   -6.5599    2.6242 N   0  0  0  0  0  0  0  0  0  0  0  0
   -1.5798    4.6414    5.2559 N   0  3  0  0  0  0  0  0  0  0  0  0
   -0.9236   -0.9998   -0.4806 C   0  0  2  0  0  0  0  0  0  0  0  0
    0.5396   -0.5985   -0.6713 C   0  0  1  0  0  0  0  0  0  0  0  0
   -1.7889    0.2204   -0.8054 C   0  0  1  0  0  0  0  0  0  0  0  0
    0.8288    0.6234    0.1982 C   0  0  2  0  0  0  0  0  0  0  0  0
    3.3493   -2.0378    2.5279 C   0  0  0  0  0  0  0  0  0  0  0  0
    5.4877   -2.8628    2.7549 C   0  0  0  0  0  0  0  0  0  0  0  0
    3.1605   -2.2202    4.0664 C   0  0  0  0  0  0  0  0  0  0  0  0
    5.1992   -3.3782    4.2049 C   0  0  0  0  0  0  0  0  0  0  0  0
   -0.2166    1.7758    0.0680 C   0  0  1  0  0  0  0  0  0  0  0  0
    5.1847   -0.4929    2.7518 C   0  0  0  0  0  0  0  0  0  0  0  0
    2.9522   -4.5981    4.1685 C   0  0  0  0  0  0  0  0  0  0  0  0
   -3.2714   -0.1021   -0.7238 C   0  0  0  0  0  0  0  0  0  0  0  0
    4.1393    0.5219    2.4058 C   0  0  0  0  0  0  0  0  0  0  0  0
    2.8302   -5.0250    2.6916 C   0  0  0  0  0  0  0  0  0  0  0  0
    2.7580    0.3772    3.0193 C   0  0  0  0  0  0  0  0  0  0  0  0
    4.1184   -5.4598    1.9959 C   0  0  0  0  0  0  0  0  0  0  0  0
   -0.3478    2.8013    2.2897 C   0  0  0  0  0  0  0  0  0  0  0  0
    0.3751    1.9134    3.0245 C   0  0  0  0  0  0  0  0  0  0  0  0
    0.4978    1.7875    4.4049 C   0  0  0  0  0  0  0  0  0  0  0  0
    1.5058    0.9672    5.0763 C   0  0  0  0  0  0  0  0  0  0  0  0
   -1.0964    3.6510    3.0424 C   0  0  0  0  0  0  0  0  0  0  0  0
   -1.0153    3.5686    4.4666 C   0  0  0  0  0  0  0  0  0  0  0  0
   -0.2694    2.6107    5.1591 C   0  0  0  0  0  0  0  0  0  0  0  0
    3.0594   -0.0714    5.0706 H   0  0  0  0  0  0  0  0  0  0  0  0
    5.8030   -6.4643    2.3313 H   0  0  0  0  0  0  0  0  0  0  0  0
    4.8920   -6.2813    3.6129 H   0  0  0  0  0  0  0  0  0  0  0  0
   -1.2183   -0.6567    1.4587 H   0  0  0  0  0  0  0  0  0  0  0  0
    1.1098   -1.9706    0.6117 H   0  0  0  0  0  0  0  0  0  0  0  0
    2.3506    1.1904   -0.9201 H   0  0  0  0  0  0  0  0  0  0  0  0
   -3.7602    1.7479   -0.4001 H   0  0  0  0  0  0  0  0  0  0  0  0
   -1.1584   -1.8525   -1.1223 H   0  0  0  0  0  0  0  0  0  0  0  0
    0.7746   -0.3776   -1.7138 H   0  0  0  0  0  0  0  0  0  0  0  0
   -1.5541    0.6111   -1.8045 H   0  0  0  0  0  0  0  0  0  0  0  0
    0.7566    0.1596    1.1728 H   0  0  0  0  0  0  0  0  0  0  0  0
    2.9275   -1.3281    1.8313 H   0  0  0  0  0  0  0  0  0  0  0  0
    2.7082   -2.7296    2.0224 H   0  0  0  0  0  0  0  0  0  0  0  0
    4.9329   -3.4114    2.0446 H   0  0  0  0  0  0  0  0  0  0  0  0
    6.5025   -3.0421    2.4002 H   0  0  0  0  0  0  0  0  0  0  0  0
    3.7616   -1.5043    4.6203 H   0  0  0  0  0  0  0  0  0  0  0  0
    2.1305   -2.0958    4.4166 H   0  0  0  0  0  0  0  0  0  0  0  0
    5.6925   -2.6618    4.8850 H   0  0  0  0  0  0  0  0  0  0  0  0
    5.6727   -4.3383    4.4189 H   0  0  0  0  0  0  0  0  0  0  0  0
   -0.0578    2.1941   -0.9360 H   0  0  0  0  0  0  0  0  0  0  0  0
    6.1217   -0.2285    2.2567 H   0  0  0  0  0  0  0  0  0  0  0  0
    5.3522   -0.5011    3.8273 H   0  0  0  0  0  0  0  0  0  0  0  0
    3.2656   -5.4605    4.7583 H   0  0  0  0  0  0  0  0  0  0  0  0
    1.9306   -4.3880    4.5319 H   0  0  0  0  0  0  0  0  0  0  0  0
   -3.5267   -0.8881   -1.4374 H   0  0  0  0  0  0  0  0  0  0  0  0
   -3.5589   -0.4140    0.2847 H   0  0  0  0  0  0  0  0  0  0  0  0
    4.0349    0.5093    1.3077 H   0  0  0  0  0  0  0  0  0  0  0  0
    4.4623    1.5247    2.6729 H   0  0  0  0  0  0  0  0  0  0  0  0
    2.0838   -5.8125    2.6000 H   0  0  0  0  0  0  0  0  0  0  0  0
    2.3005   -4.2812    2.1092 H   0  0  0  0  0  0  0  0  0  0  0  0
    1.9764   -0.3884    2.7984 H   0  0  0  0  0  0  0  0  0  0  0  0
    2.4268    1.1756    2.4122 H   0  0  0  0  0  0  0  0  0  0  0  0
    4.0820   -5.2965    0.9061 H   0  0  0  0  0  0  0  0  0  0  0  0
    4.9695   -4.8793    2.2085 H   0  0  0  0  0  0  0  0  0  0  0  0
    0.8917    1.3036    2.3808 H   0  0  0  0  0  0  0  0  0  0  0  0
   -1.7142    4.3786    2.5354 H   0  0  0  0  0  0  0  0  0  0  0  0
   -0.1974    2.5455    6.2437 H   0  0  0  0  0  0  0  0  0  0  0  0
  1 17  1  0  0  0  0
  1 23  1  0  0  0  0
  2 31  1  0  0  0  0
  3 41  1  0  0  0  0
  4 42  1  0  0  0  0
  5 43  1  0  0  0  0
  6 26  1  0  0  0  0
  6 44  1  0  0  0  0
  7 34  2  0  0  0  0
  8 14  1  0  0  0  0
  9 14  2  0  0  0  0
 10 19  1  0  0  0  0
 10 20  1  0  0  0  0
 10 24  1  0  0  0  0
 11 21  1  0  0  0  0
 11 22  1  0  0  0  0
 11 25  1  0  0  0  0
 12 29  1  0  0  0  0
 12 34  1  0  0  0  0
 12 38  1  0  0  0  0
 13 30  1  0  0  0  0
 13 39  1  0  0  0  0
 13 40  1  0  0  0  0
 14 36  1  0  0  0  0
 15  3  1  0  0  0  0
 15 16  1  0  0  0  0
 15 17  1  0  0  0  0
 15 45  1  6  0  0  0
 16  4  1  0  0  0  0
 16 18  1  0  0  0  0
 16 46  1  6  0  0  0
 17 26  1  0  0  0  0
 17 47  1  6  0  0  0
 18  5  1  0  0  0  0
 18 23  1  0  0  0  0
 18 48  1  1  0  0  0
 19 21  1  0  0  0  0
 19 49  1  0  0  0  0
 19 50  1  0  0  0  0
 20 22  1  0  0  0  0
 20 51  1  0  0  0  0
 20 52  1  0  0  0  0
 21 53  1  0  0  0  0
 21 54  1  0  0  0  0
 22 55  1  0  0  0  0
 22 56  1  0  0  0  0
 23  2  1  0  0  0  0
 23 57  1  6  0  0  0
 24 27  1  0  0  0  0
 24 58  1  0  0  0  0
 24 59  1  0  0  0  0
 25 28  1  0  0  0  0
 25 60  1  0  0  0  0
 25 61  1  0  0  0  0
 26 62  1  0  0  0  0
 26 63  1  0  0  0  0
 27 29  1  0  0  0  0
 27 64  1  0  0  0  0
 27 65  1  0  0  0  0
 28 30  1  0  0  0  0
 28 66  1  0  0  0  0
 28 67  1  0  0  0  0
 29 68  1  0  0  0  0
 29 69  1  0  0  0  0
 30 70  1  0  0  0  0
 30 71  1  0  0  0  0
 31 32  2  0  0  0  0
 31 35  1  0  0  0  0
 32 33  1  0  0  0  0
 32 72  1  0  0  0  0
 33 34  1  0  0  0  0
 33 37  2  0  0  0  0
 35 36  2  0  0  0  0
 35 73  1  0  0  0  0
 36 37  1  0  0  0  0
 37 74  1  0  0  0  0
M  CHG  2   8  -1  14   1
M  END
>  <DRUGBANK_ID>
DB04073

>  <SECONDARY_ACCESSION_NUMBERS>
EXPT00043

>  <COMMON_NAME>
N-{3-[4-(3-amino-propyl)-piperazin-1-yl]-propyl}-3-nitro-5-(galactopyranosyl)-beta-benzamide

$$$$
