NB1
 OpenBabel10282417173D

 33 34  0  0  0  0  0  0  0  0999 V2000
   -0.3687   -0.7573    0.5919 C   0  0  2  0  0  0  0  0  0  0  0  0
   -0.2063    0.7670    0.5894 C   0  0  1  0  0  0  0  0  0  0  0  0
    1.1818    1.3046    0.2474 C   0  0  2  0  0  0  0  0  0  0  0  0
    2.0146    0.3474   -0.6185 C   0  0  1  0  0  0  0  0  0  0  0  0
    1.9532   -1.0830   -0.0877 C   0  0  1  0  0  0  0  0  0  0  0  0
    2.6578   -1.3764    1.2649 C   0  0  0  0  0  0  0  0  0  0  0  0
   -2.1999    0.6933   -0.5077 C   0  0  0  0  0  0  0  0  0  0  0  0
   -3.4294    1.2744   -1.1548 C   0  0  0  0  0  0  0  0  0  0  0  0
   -3.1876    3.5843   -0.0352 C   0  0  0  0  0  0  0  0  0  0  0  0
   -1.1616    1.4339   -0.3030 N   0  0  0  0  0  0  0  0  0  0  0  0
    1.8328    1.6615    1.4712 O   0  0  0  0  0  0  0  0  0  0  0  0
    1.5020    0.3384   -1.9653 O   0  0  0  0  0  0  0  0  0  0  0  0
    0.5717   -1.5101   -0.1696 O   0  0  0  0  0  0  0  0  0  0  0  0
    2.9007   -0.2734    2.1256 O   0  0  0  0  0  0  0  0  0  0  0  0
   -2.0777   -0.9740   -0.0343 S   0  0  0  0  0  0  0  0  0  0  0  0
   -4.0864    2.3786   -0.3023 C   0  0  0  0  0  0  0  0  0  0  0  0
   -0.3302   -1.1420    1.6157 H   0  0  0  0  0  0  0  0  0  0  0  0
   -0.4721    1.1038    1.6024 H   0  0  0  0  0  0  0  0  0  0  0  0
    1.0919    2.2542   -0.2912 H   0  0  0  0  0  0  0  0  0  0  0  0
    3.0535    0.6854   -0.6803 H   0  0  0  0  0  0  0  0  0  0  0  0
    2.4536   -1.7384   -0.8135 H   0  0  0  0  0  0  0  0  0  0  0  0
    2.0770   -2.0891    1.8534 H   0  0  0  0  0  0  0  0  0  0  0  0
    3.6430   -1.8143    1.0732 H   0  0  0  0  0  0  0  0  0  0  0  0
   -3.1342    1.7052   -2.1194 H   0  0  0  0  0  0  0  0  0  0  0  0
   -4.1651    0.4888   -1.3561 H   0  0  0  0  0  0  0  0  0  0  0  0
   -2.8473    4.0346   -0.9731 H   0  0  0  0  0  0  0  0  0  0  0  0
   -3.7192    4.3479    0.5407 H   0  0  0  0  0  0  0  0  0  0  0  0
   -2.3114    3.3159    0.5590 H   0  0  0  0  0  0  0  0  0  0  0  0
    1.6637    0.9425    2.1239 H   0  0  0  0  0  0  0  0  0  0  0  0
    0.6941   -0.2134   -1.9695 H   0  0  0  0  0  0  0  0  0  0  0  0
    3.3306    0.4543    1.6202 H   0  0  0  0  0  0  0  0  0  0  0  0
   -4.9824    2.7407   -0.8234 H   0  0  0  0  0  0  0  0  0  0  0  0
   -4.4225    1.9645    0.6552 H   0  0  0  0  0  0  0  0  0  0  0  0
  1  2  1  0  0  0  0
  1 13  1  0  0  0  0
  1 15  1  0  0  0  0
  1 17  1  1  0  0  0
  2  3  1  0  0  0  0
  2 10  1  0  0  0  0
  2 18  1  1  0  0  0
  3  4  1  0  0  0  0
  3 11  1  0  0  0  0
  3 19  1  6  0  0  0
  4  5  1  0  0  0  0
  4 20  1  6  0  0  0
  4 12  1  0  0  0  0
  5 13  1  0  0  0  0
  5 21  1  6  0  0  0
  5  6  1  0  0  0  0
  6 14  1  0  0  0  0
  6 22  1  0  0  0  0
  6 23  1  0  0  0  0
  7  8  1  0  0  0  0
  7 10  2  0  0  0  0
  7 15  1  0  0  0  0
  8 16  1  0  0  0  0
  8 24  1  0  0  0  0
  8 25  1  0  0  0  0
  9 16  1  0  0  0  0
  9 26  1  0  0  0  0
  9 27  1  0  0  0  0
  9 28  1  0  0  0  0
 11 29  1  0  0  0  0
 12 30  1  0  0  0  0
 14 31  1  0  0  0  0
 16 32  1  0  0  0  0
 16 33  1  0  0  0  0
M  END
>  <DRUGBANK_ID>
DB08255

>  <COMMON_NAME>
(3AR,5R,6S,7R,7AR)-5-(HYDROXYMETHYL)-2-PROPYL-5,6,7,7A-TETRAHYDRO-3AH-PYRANO[3,2-D][1,3]THIAZOLE-6,7-DIOL

$$$$
