PU9
 OpenBabel10282417143D

 51 53  0  0  0  0  0  0  0  0999 V2000
   -2.4964    0.1527   -0.3196 Cl  0  0  0  0  0  0  0  0  0  0  0  0
   -0.8739    0.6224    0.0716 C   0  0  0  0  0  0  0  0  0  0  0  0
   -0.0117    1.7503   -0.1954 C   0  0  0  0  0  0  0  0  0  0  0  0
   -0.6295    2.9690   -0.3720 O   0  0  0  0  0  0  0  0  0  0  0  0
   -2.0129    2.8817   -0.1288 C   0  0  0  0  0  0  0  0  0  0  0  0
    1.5580    1.9115   -0.0412 C   0  0  0  0  0  0  0  0  0  0  0  0
    2.3622    2.9309   -0.4490 O   0  0  0  0  0  0  0  0  0  0  0  0
    1.6920    4.1016   -0.1160 C   0  0  0  0  0  0  0  0  0  0  0  0
    2.3020    1.1284    0.7405 C   0  0  0  0  0  0  0  0  0  0  0  0
    3.5619    0.5728    0.4119 O   0  0  0  0  0  0  0  0  0  0  0  0
    4.6441    1.4735    0.1211 C   0  0  0  0  0  0  0  0  0  0  0  0
    1.3416    0.4450    1.4833 C   0  0  0  0  0  0  0  0  0  0  0  0
   -0.3006   -0.1993    0.9279 C   0  0  0  0  0  0  0  0  0  0  0  0
   -0.7880   -2.0147    0.3121 C   0  0  0  0  0  0  0  0  0  0  0  0
   -0.2305   -3.1153   -1.1404 C   0  0  0  0  0  0  0  0  0  0  0  0
   -1.0419   -3.6637   -2.0710 N   0  0  0  0  0  0  0  0  0  0  0  0
   -0.2694   -4.4798   -2.9739 C   0  0  0  0  0  0  0  0  0  0  0  0
   -0.5748   -5.2813   -4.1149 C   0  0  0  0  0  0  0  0  0  0  0  0
   -1.8501   -5.4479   -4.6032 N   0  0  0  0  0  0  0  0  0  0  0  0
    1.0584   -4.4552   -2.6159 C   0  0  0  0  0  0  0  0  0  0  0  0
    2.0917   -5.0808   -3.2522 N   0  0  0  0  0  0  0  0  0  0  0  0
    1.6821   -5.7968   -4.3247 C   0  0  0  0  0  0  0  0  0  0  0  0
    0.4228   -5.9319   -4.7757 N   0  0  0  0  0  0  0  0  0  0  0  0
    1.0827   -3.6662   -1.4592 N   0  0  0  0  0  0  0  0  0  0  0  0
    2.3449   -3.3598   -0.8263 C   0  0  0  0  0  0  0  0  0  0  0  0
    2.5417   -1.8749   -0.8780 C   0  0  0  0  0  0  0  0  0  0  0  0
    1.2982   -1.1309   -0.2153 C   0  0  0  0  0  0  0  0  0  0  0  0
    1.1449   -1.5985    1.2228 C   0  0  0  0  0  0  0  0  0  0  0  0
    1.0133   -1.9997    2.4564 C   0  0  0  0  0  0  0  0  0  0  0  0
   -2.4203    2.3792   -1.0088 H   0  0  0  0  0  0  0  0  0  0  0  0
   -2.2585    2.3897    0.8348 H   0  0  0  0  0  0  0  0  0  0  0  0
   -2.4231    3.8702   -0.0908 H   0  0  0  0  0  0  0  0  0  0  0  0
    1.0506    4.2449   -0.9773 H   0  0  0  0  0  0  0  0  0  0  0  0
    1.1619    4.0137    0.8479 H   0  0  0  0  0  0  0  0  0  0  0  0
    2.4198    4.8955   -0.0349 H   0  0  0  0  0  0  0  0  0  0  0  0
    4.5349    1.9496   -0.8597 H   0  0  0  0  0  0  0  0  0  0  0  0
    4.6609    2.1801    0.9439 H   0  0  0  0  0  0  0  0  0  0  0  0
    5.6437    0.9899    0.1011 H   0  0  0  0  0  0  0  0  0  0  0  0
    2.1821   -0.2136    1.9649 H   0  0  0  0  0  0  0  0  0  0  0  0
   -0.6052   -2.7968    1.0829 H   0  0  0  0  0  0  0  0  0  0  0  0
   -1.8680   -2.0975    0.1744 H   0  0  0  0  0  0  0  0  0  0  0  0
   -2.6044   -4.9860   -4.1221 H   0  0  0  0  0  0  0  0  0  0  0  0
   -1.9981   -6.0353   -5.4100 H   0  0  0  0  0  0  0  0  0  0  0  0
    2.4454   -6.3367   -4.8956 H   0  0  0  0  0  0  0  0  0  0  0  0
    2.3068   -3.7513    0.1874 H   0  0  0  0  0  0  0  0  0  0  0  0
    3.1810   -3.8658   -1.3377 H   0  0  0  0  0  0  0  0  0  0  0  0
    3.5190   -1.6330   -0.4529 H   0  0  0  0  0  0  0  0  0  0  0  0
    2.6007   -1.5491   -1.9357 H   0  0  0  0  0  0  0  0  0  0  0  0
    1.4869   -0.1790   -0.6783 H   0  0  0  0  0  0  0  0  0  0  0  0
    0.5524   -1.2909   -0.9825 H   0  0  0  0  0  0  0  0  0  0  0  0
    0.9065   -2.3217    3.4677 H   0  0  0  0  0  0  0  0  0  0  0  0
  1  2  1  0  0  0  0
  2  3  2  0  0  0  0
  2 13  1  0  0  0  0
  3  4  1  0  0  0  0
  3  6  1  0  0  0  0
  4  5  1  0  0  0  0
  5 30  1  0  0  0  0
  5 31  1  0  0  0  0
  5 32  1  0  0  0  0
  6  7  1  0  0  0  0
  6  9  2  0  0  0  0
  7  8  1  0  0  0  0
  8 33  1  0  0  0  0
  8 34  1  0  0  0  0
  8 35  1  0  0  0  0
  9 10  1  0  0  0  0
  9 12  1  0  0  0  0
 10 11  1  0  0  0  0
 11 36  1  0  0  0  0
 11 37  1  0  0  0  0
 11 38  1  0  0  0  0
 12 13  2  0  0  0  0
 12 39  1  0  0  0  0
 13 14  1  0  0  0  0
 14 15  1  0  0  0  0
 14 40  1  0  0  0  0
 14 41  1  0  0  0  0
 15 16  2  0  0  0  0
 15 24  1  0  0  0  0
 16 17  1  0  0  0  0
 17 18  2  0  0  0  0
 17 20  1  0  0  0  0
 18 19  1  0  0  0  0
 18 23  1  0  0  0  0
 19 42  1  0  0  0  0
 19 43  1  0  0  0  0
 20 21  2  0  0  0  0
 20 24  1  0  0  0  0
 21 22  1  0  0  0  0
 22 23  2  0  0  0  0
 22 44  1  0  0  0  0
 24 25  1  0  0  0  0
 25 26  1  0  0  0  0
 25 45  1  0  0  0  0
 25 46  1  0  0  0  0
 26 27  1  0  0  0  0
 26 47  1  0  0  0  0
 26 48  1  0  0  0  0
 27 28  1  0  0  0  0
 27 49  1  0  0  0  0
 27 50  1  0  0  0  0
 28 29  3  0  0  0  0
 29 51  1  0  0  0  0
M  END
>  <DRUGBANK_ID>
DB04505

>  <SECONDARY_ACCESSION_NUMBERS>
EXPT02699

>  <COMMON_NAME>
8-(2-Chloro-3,4,5-Trimethoxy-Benzyl)-9-Pent-4-Ylnyl-9h-Purin-6-Ylamine

$$$$
