
 OpenBabel10282417203D

 17 14  0  0  0  0  0  0  0  0999 V2000
    1.0699    0.0196   -0.0688 C   0  0  0  0  0  0  0  0  0  0  0  0
    0.5632    0.3054   -1.4731 C   0  0  3  0  0  0  0  0  0  0  0  0
    1.0698   -0.7678   -2.4228 C   0  0  0  0  0  0  0  0  0  0  0  0
    0.4665   -2.3861   -1.8814 S   0  0  0  0  0  0  0  0  0  0  0  0
   -1.0639   -2.3861   -1.8814 O   0  0  0  0  0  0  0  0  0  0  0  0
    0.9767   -3.4667   -2.8376 O   0  0  0  0  0  0  0  0  0  0  0  0
    1.0365   -2.7077   -0.3016 O   0  5  0  0  0  0  0  0  0  0  0  0
   -0.8568    0.3054   -1.4731 O   0  0  0  0  0  0  0  0  0  0  0  0
    0.4665   -1.5987    0.4725 S   0  5  0  0  0  0  0  0  0  0  0  0
    1.0101    0.0628    0.0772 Na  0  3  0  0  0  0  0  0  0  0  0  0
    0.9336   -0.0661    0.0350 Au  0  3  0  0  0  0  0  0  0  0  0  0
    0.7132    0.7751    0.5997 H   0  0  0  0  0  0  0  0  0  0  0  0
    2.1399    0.0196   -0.0688 H   0  0  0  0  0  0  0  0  0  0  0  0
    0.9199    1.2621   -1.7931 H   0  0  0  0  0  0  0  0  0  0  0  0
    0.7132   -0.5666   -3.4113 H   0  0  0  0  0  0  0  0  0  0  0  0
    2.1398   -0.7678   -2.4228 H   0  0  0  0  0  0  0  0  0  0  0  0
   -1.1901   -0.5887   -1.1740 H   0  0  0  0  0  0  0  0  0  0  0  0
  1  2  1  0  0  0  0
  1  9  1  0  0  0  0
  1 12  1  0  0  0  0
  1 13  1  0  0  0  0
  2  3  1  0  0  0  0
  2  8  1  0  0  0  0
  2 14  1  0  0  0  0
  3  4  1  0  0  0  0
  3 15  1  0  0  0  0
  3 16  1  0  0  0  0
  4  5  2  0  0  0  0
  4  6  2  0  0  0  0
  4  7  1  0  0  0  0
  8 17  1  0  0  0  0
M  CHG  4   7  -1   9  -1  10   1  11   1
M  END
>  <DRUGBANK_ID>
DB13763

>  <COMMON_NAME>
Aurotioprol

>  <CAS_NUMBER>
27279-43-2

>  <UNII>
G7097J63E9

$$$$
