
 OpenBabel10282417133D

 83 85  0  0  1  0  0  0  0  0999 V2000
    1.0569    0.0993   -0.0831 C   0  0  0  0  0  0  0  0  0  0  0  0
    0.4215   -0.1039    1.2650 C   0  0  0  0  0  0  0  0  0  0  0  0
    1.0515    0.6900    2.3508 C   0  0  0  0  0  0  0  0  0  0  0  0
   -1.0428   -0.3463    1.2810 C   0  0  0  0  0  0  0  0  0  0  0  0
   -1.4405   -1.4152    0.2511 C   0  0  0  0  0  0  0  0  0  0  0  0
   -0.7368   -2.7849    0.2336 N   0  0  0  0  0  0  0  0  0  0  0  0
   -1.1933   -3.6149   -1.4348 C   0  0  0  0  0  0  0  0  0  0  0  0
   -0.2065   -3.0082   -3.2169 C   0  0  1  0  0  0  0  0  0  0  0  0
    0.8227   -3.4515   -2.3174 O   0  0  0  0  0  0  0  0  0  0  0  0
    0.2923   -3.0150   -5.3199 C   0  0  2  0  0  0  0  0  0  0  0  0
    1.3092   -3.1051   -7.4614 C   0  0  0  0  0  0  0  0  0  0  0  0
    2.3016   -3.7736   -9.1768 C   0  0  0  0  0  0  0  0  0  0  0  0
    2.5519   -4.8702  -10.6242 C   0  0  0  0  0  0  0  0  0  0  0  0
    3.5287   -6.0838  -10.7626 C   0  0  0  0  0  0  0  0  0  0  0  0
    4.3055   -6.1583   -9.6873 C   0  0  0  0  0  0  0  0  0  0  0  0
    4.6759   -7.3758   -9.1541 O   0  0  0  0  0  0  0  0  0  0  0  0
    4.1578   -7.7877   -7.8335 C   0  0  0  0  0  0  0  0  0  0  0  0
    4.6274   -6.8922   -6.6661 C   0  0  0  0  0  0  0  0  0  0  0  0
    3.9980   -5.5583   -6.6514 C   0  0  0  0  0  0  0  0  0  0  0  0
    2.5812   -5.6298   -6.8533 C   0  0  0  0  0  0  0  0  0  0  0  0
    2.1129   -6.3953   -7.6759 O   0  0  0  0  0  0  0  0  0  0  0  0
    1.8434   -4.7888   -6.1604 N   0  0  0  0  0  0  0  0  0  0  0  0
    0.3873   -4.9327   -6.4386 C   0  0  1  0  0  0  0  0  0  0  0  0
   -0.2360   -5.7759   -7.4200 C   0  0  0  0  0  0  0  0  0  0  0  0
   -1.7256   -5.6018   -7.3040 C   0  0  0  0  0  0  0  0  0  0  0  0
    0.1475   -5.2826   -8.7603 C   0  0  0  0  0  0  0  0  0  0  0  0
   -0.2719   -5.3114   -5.1728 C   0  0  0  0  0  0  0  0  0  0  0  0
    0.1196   -6.1141   -4.3447 O   0  0  0  0  0  0  0  0  0  0  0  0
   -0.9986   -3.8864   -5.2481 N   0  0  0  0  0  0  0  0  0  0  0  0
    4.6473   -4.8342   -9.2572 C   0  0  0  0  0  0  0  0  0  0  0  0
    3.6319   -3.7025   -9.0288 C   0  0  0  0  0  0  0  0  0  0  0  0
    1.0531   -2.8994    0.6954 S   0  0  0  0  0  0  0  0  0  0  0  0
    1.6675   -2.4363   -0.5198 O   0  0  0  0  0  0  0  0  0  0  0  0
    1.5961   -2.3480    1.9287 O   0  0  0  0  0  0  0  0  0  0  0  0
    1.4670   -4.5098    1.0196 C   0  0  0  0  0  0  0  0  0  0  0  0
    2.7109   -4.6750    1.6198 C   0  0  0  0  0  0  0  0  0  0  0  0
    3.2166   -5.9402    1.7095 C   0  0  0  0  0  0  0  0  0  0  0  0
    2.3816   -7.0151    1.4798 C   0  0  0  0  0  0  0  0  0  0  0  0
    1.0451   -6.8127    1.2054 C   0  0  0  0  0  0  0  0  0  0  0  0
    0.6111   -5.5563    0.8861 C   0  0  0  0  0  0  0  0  0  0  0  0
    0.7346    1.0714   -0.4108 H   0  0  0  0  0  0  0  0  0  0  0  0
    0.6913   -0.5865   -0.8480 H   0  0  0  0  0  0  0  0  0  0  0  0
    2.1511    0.0078   -0.0652 H   0  0  0  0  0  0  0  0  0  0  0  0
    0.5444   -1.0341    1.6581 H   0  0  0  0  0  0  0  0  0  0  0  0
    0.7303    1.6959    2.1486 H   0  0  0  0  0  0  0  0  0  0  0  0
    0.7028    0.3435    3.3306 H   0  0  0  0  0  0  0  0  0  0  0  0
    2.1472    0.6041    2.3369 H   0  0  0  0  0  0  0  0  0  0  0  0
   -1.3516   -0.6611    2.2924 H   0  0  0  0  0  0  0  0  0  0  0  0
   -1.4563    0.6259    1.0482 H   0  0  0  0  0  0  0  0  0  0  0  0
   -2.5396   -1.4738    0.2879 H   0  0  0  0  0  0  0  0  0  0  0  0
   -1.1843   -1.0745   -0.7384 H   0  0  0  0  0  0  0  0  0  0  0  0
   -1.0730   -4.5919   -0.8178 H   0  0  0  0  0  0  0  0  0  0  0  0
   -2.3666   -3.6023   -0.9814 H   0  0  0  0  0  0  0  0  0  0  0  0
   -1.0268   -2.2724   -2.8264 H   0  0  0  0  0  0  0  0  0  0  0  0
    0.6782   -2.8386   -1.5332 H   0  0  0  0  0  0  0  0  0  0  0  0
    0.4808   -3.8493   -4.4840 H   0  0  0  0  0  0  0  0  0  0  0  0
    1.6717   -2.1595   -8.2230 H   0  0  0  0  0  0  0  0  0  0  0  0
    0.7123   -3.0266   -8.6462 H   0  0  0  0  0  0  0  0  0  0  0  0
    2.8320   -4.6317  -11.9311 H   0  0  0  0  0  0  0  0  0  0  0  0
    3.6076   -6.9297  -11.4933 H   0  0  0  0  0  0  0  0  0  0  0  0
    4.5002   -8.8020   -7.5948 H   0  0  0  0  0  0  0  0  0  0  0  0
    3.0794   -7.9650   -7.8484 H   0  0  0  0  0  0  0  0  0  0  0  0
    5.7085   -6.7995   -6.7478 H   0  0  0  0  0  0  0  0  0  0  0  0
    4.2933   -7.2466   -5.7056 H   0  0  0  0  0  0  0  0  0  0  0  0
    4.0706   -5.4090   -7.6466 H   0  0  0  0  0  0  0  0  0  0  0  0
    4.4798   -4.6616   -6.2773 H   0  0  0  0  0  0  0  0  0  0  0  0
    2.3280   -4.0420   -5.6252 H   0  0  0  0  0  0  0  0  0  0  0  0
   -0.1553   -3.9898   -6.8757 H   0  0  0  0  0  0  0  0  0  0  0  0
    0.1197   -6.7331   -7.0940 H   0  0  0  0  0  0  0  0  0  0  0  0
   -2.0486   -4.5689   -7.5227 H   0  0  0  0  0  0  0  0  0  0  0  0
   -2.1193   -6.2922   -8.0163 H   0  0  0  0  0  0  0  0  0  0  0  0
   -2.0834   -5.8508   -6.3018 H   0  0  0  0  0  0  0  0  0  0  0  0
    1.1944   -5.2135   -8.8004 H   0  0  0  0  0  0  0  0  0  0  0  0
   -0.0724   -5.9796   -9.5183 H   0  0  0  0  0  0  0  0  0  0  0  0
   -0.2322   -4.2932   -8.9914 H   0  0  0  0  0  0  0  0  0  0  0  0
   -1.5441   -3.2904   -4.6231 H   0  0  0  0  0  0  0  0  0  0  0  0
    5.4235   -4.7524   -8.4744 H   0  0  0  0  0  0  0  0  0  0  0  0
    3.7513   -2.9175   -8.3506 H   0  0  0  0  0  0  0  0  0  0  0  0
    3.2897   -3.8229    1.9777 H   0  0  0  0  0  0  0  0  0  0  0  0
    4.2511   -6.0983    1.9604 H   0  0  0  0  0  0  0  0  0  0  0  0
    2.7759   -8.0146    1.5426 H   0  0  0  0  0  0  0  0  0  0  0  0
    0.3309   -7.6189    1.1975 H   0  0  0  0  0  0  0  0  0  0  0  0
   -0.3923   -5.4573    0.5540 H   0  0  0  0  0  0  0  0  0  0  0  0
  1  2  1  0  0  0  0
  1 41  1  0  0  0  0
  1 42  1  0  0  0  0
  1 43  1  0  0  0  0
  2  3  1  0  0  0  0
  2  4  1  0  0  0  0
  2 44  1  0  0  0  0
  3 45  1  0  0  0  0
  3 46  1  0  0  0  0
  3 47  1  0  0  0  0
  4  5  1  0  0  0  0
  4 48  1  0  0  0  0
  4 49  1  0  0  0  0
  5  6  1  0  0  0  0
  5 50  1  0  0  0  0
  5 51  1  0  0  0  0
  6  7  1  0  0  0  0
  6 32  1  0  0  0  0
  7  8  1  0  0  0  0
  7 52  1  0  0  0  0
  7 53  1  0  0  0  0
  8  9  1  0  0  0  0
  8 54  1  1  0  0  0
  9 55  1  0  0  0  0
 10  8  1  0  0  0  0
 10 11  1  0  0  0  0
 10 29  1  0  0  0  0
 10 56  1  1  0  0  0
 11 12  1  0  0  0  0
 11 57  1  0  0  0  0
 11 58  1  0  0  0  0
 12 13  2  0  0  0  0
 12 31  1  0  0  0  0
 13 14  1  0  0  0  0
 13 59  1  0  0  0  0
 14 15  2  0  0  0  0
 14 60  1  0  0  0  0
 15 16  1  0  0  0  0
 15 30  1  0  0  0  0
 16 17  1  0  0  0  0
 17 18  1  0  0  0  0
 17 61  1  0  0  0  0
 17 62  1  0  0  0  0
 18 19  1  0  0  0  0
 18 63  1  0  0  0  0
 18 64  1  0  0  0  0
 19 20  1  0  0  0  0
 19 65  1  0  0  0  0
 19 66  1  0  0  0  0
 20 21  2  0  0  0  0
 20 22  1  0  0  0  0
 22 23  1  0  0  0  0
 22 67  1  0  0  0  0
 23 24  1  0  0  0  0
 23 27  1  0  0  0  0
 23 68  1  6  0  0  0
 24 25  1  0  0  0  0
 24 26  1  0  0  0  0
 24 69  1  0  0  0  0
 25 70  1  0  0  0  0
 25 71  1  0  0  0  0
 25 72  1  0  0  0  0
 26 73  1  0  0  0  0
 26 74  1  0  0  0  0
 26 75  1  0  0  0  0
 27 28  2  0  0  0  0
 27 29  1  0  0  0  0
 29 76  1  0  0  0  0
 30 31  2  0  0  0  0
 30 77  1  0  0  0  0
 31 78  1  0  0  0  0
 32 33  2  0  0  0  0
 32 34  2  0  0  0  0
 32 35  1  0  0  0  0
 35 36  2  0  0  0  0
 35 40  1  0  0  0  0
 36 37  1  0  0  0  0
 36 79  1  0  0  0  0
 37 38  2  0  0  0  0
 37 80  1  0  0  0  0
 38 39  1  0  0  0  0
 38 81  1  0  0  0  0
 39 40  2  0  0  0  0
 39 82  1  0  0  0  0
 40 83  1  0  0  0  0
M  END
>  <DRUGBANK_ID>
DB03768

>  <SECONDARY_ACCESSION_NUMBERS>
EXPT01695

>  <COMMON_NAME>
N-[2-Hydroxy-2-(8-Isopropyl-6,9-Dioxo-2-Oxa-7,10-Diaza-Bicyclo[11.2.2]Heptadeca-1(16),13(17),14-Trien-11-Yl)-Ethyl]-N-(3-Methyl-Butyl)-Benzenesulfonamide,Inhibitor 3

$$$$
