951
 OpenBabel10282417113D

 17 17  0  0  0  0  0  0  0  0999 V2000
    1.0530    0.0255   -0.0270 O   0  0  0  0  0  0  0  0  0  0  0  0
    2.9873    0.5991   -1.0758 N   0  0  0  0  0  0  0  0  0  0  0  0
    4.2656   -1.2093    3.5560 N   0  0  0  0  0  0  0  0  0  0  0  0
    4.3781    0.5335   -1.2712 N   0  0  0  0  0  0  0  0  0  0  0  0
    2.9898   -0.3453    1.2347 C   0  0  0  0  0  0  0  0  0  0  0  0
    2.5795   -1.5226    1.8609 C   0  0  0  0  0  0  0  0  0  0  0  0
    4.0106    0.4175    1.8005 C   0  0  0  0  0  0  0  0  0  0  0  0
    2.2822    0.1008    0.0111 C   0  0  0  0  0  0  0  0  0  0  0  0
    3.2476   -1.9097    3.0087 C   0  0  0  0  0  0  0  0  0  0  0  0
    4.6191   -0.0597    2.9456 C   0  0  0  0  0  0  0  0  0  0  0  0
    2.4030    0.7908   -1.8910 H   0  0  0  0  0  0  0  0  0  0  0  0
    4.7348    1.4891   -1.3472 H   0  0  0  0  0  0  0  0  0  0  0  0
    4.8493    0.1137   -0.4693 H   0  0  0  0  0  0  0  0  0  0  0  0
    1.7648   -2.1219    1.4675 H   0  0  0  0  0  0  0  0  0  0  0  0
    4.3242    1.3607    1.3705 H   0  0  0  0  0  0  0  0  0  0  0  0
    2.9770   -2.8189    3.5388 H   0  0  0  0  0  0  0  0  0  0  0  0
    5.4290    0.4882    3.4189 H   0  0  0  0  0  0  0  0  0  0  0  0
  1  8  2  0  0  0  0
  2  4  1  0  0  0  0
  2  8  1  0  0  0  0
  2 11  1  0  0  0  0
  3  9  2  0  0  0  0
  3 10  1  0  0  0  0
  4 12  1  0  0  0  0
  4 13  1  0  0  0  0
  5  6  2  0  0  0  0
  5  7  1  0  0  0  0
  5  8  1  0  0  0  0
  6  9  1  0  0  0  0
  6 14  1  0  0  0  0
  7 10  2  0  0  0  0
  7 15  1  0  0  0  0
  9 16  1  0  0  0  0
 10 17  1  0  0  0  0
M  END
>  <DRUGBANK_ID>
DB00951

>  <SECONDARY_ACCESSION_NUMBERS>
APRD01055; EXPT01940

>  <COMMON_NAME>
Isoniazid

>  <CAS_NUMBER>
54-85-3

>  <UNII>
V83O1VOZ8L

>  <SYNONYMS>
4-pyridinecarbohydrazide; INH; Isoniazid; Isoniazida; Isonicotinic acid hydrazide; Isonicotinic hydrazide; Isonicotinohydrazide; Isonicotinoylhydrazide; Isonicotins√§urehydrazid; Isonicotinylhydrazine; Pyridine-4-carboxylic acid hydrazide

$$$$
