
 OpenBabel10282417133D

 19 19  0  0  0  0  0  0  0  0999 V2000
    1.3633   -0.0088    0.2069 N   0  0  0  0  0  0  0  0  0  0  0  0
    0.7382    1.2227   -0.2450 C   0  0  0  0  0  0  0  0  0  0  0  0
    0.7154   -1.2363   -0.2260 C   0  0  0  0  0  0  0  0  0  0  0  0
    2.4464    0.0125    1.0573 C   0  0  0  0  0  0  0  0  0  0  0  0
   -0.7121    1.2769    0.2294 C   0  0  0  0  0  0  0  0  0  0  0  0
   -0.7424   -1.2554    0.2333 C   0  0  0  0  0  0  0  0  0  0  0  0
    3.0027    1.0180    1.4843 O   0  0  0  0  0  0  0  0  0  0  0  0
   -1.4808    0.0197   -0.1875 C   0  0  0  0  0  0  0  0  0  0  0  0
    2.7982   -0.9937    1.3368 H   0  0  0  0  0  0  0  0  0  0  0  0
    0.7778    1.2190   -1.3405 H   0  0  0  0  0  0  0  0  0  0  0  0
    1.2907    2.0988    0.1069 H   0  0  0  0  0  0  0  0  0  0  0  0
    1.2531   -2.1131    0.1480 H   0  0  0  0  0  0  0  0  0  0  0  0
    0.7618   -1.2543   -1.3214 H   0  0  0  0  0  0  0  0  0  0  0  0
   -1.2036    2.1661   -0.1792 H   0  0  0  0  0  0  0  0  0  0  0  0
   -0.7360    1.3614    1.3230 H   0  0  0  0  0  0  0  0  0  0  0  0
   -0.7783   -1.3408    1.3263 H   0  0  0  0  0  0  0  0  0  0  0  0
   -1.2535   -2.1318   -0.1800 H   0  0  0  0  0  0  0  0  0  0  0  0
   -2.4817    0.0331    0.2591 H   0  0  0  0  0  0  0  0  0  0  0  0
   -1.6171    0.0207   -1.2761 H   0  0  0  0  0  0  0  0  0  0  0  0
  1  2  1  0  0  0  0
  1  3  1  0  0  0  0
  1  4  1  0  0  0  0
  2  5  1  0  0  0  0
  2 10  1  0  0  0  0
  2 11  1  0  0  0  0
  3  6  1  0  0  0  0
  3 12  1  0  0  0  0
  3 13  1  0  0  0  0
  4  7  2  0  0  0  0
  4  9  1  0  0  0  0
  5  8  1  0  0  0  0
  5 14  1  0  0  0  0
  5 15  1  0  0  0  0
  6  8  1  0  0  0  0
  6 16  1  0  0  0  0
  6 17  1  0  0  0  0
  8 18  1  0  0  0  0
  8 19  1  0  0  0  0
M  END
>  <DRUGBANK_ID>
DB04113

>  <SECONDARY_ACCESSION_NUMBERS>
EXPT01477

>  <COMMON_NAME>
N-Formylpiperidine

>  <CAS_NUMBER>
2591-86-8

>  <UNII>
ZIQ29H6CZG

>  <SYNONYMS>
1-Formylpiperidine; 1-Piperidinecarboxaldehyde; Formylpiperidine; Piperidinoformamide

$$$$
