
 OpenBabel10282417193D

106107  0  0  0  0  0  0  0  0999 V2000
    1.1187   -0.7202    0.1576 O   0  0  0  0  0  0  0  0  0  0  0  0
    2.3633   -0.4810    0.1602 C   0  0  0  0  0  0  0  0  0  0  0  0
    3.1398   -1.1660   -0.7079 N   0  0  0  0  0  0  0  0  0  0  0  0
    4.5365   -1.1875   -0.7339 C   0  0  0  0  0  0  0  0  0  0  0  0
    5.2321   -1.0348    0.4542 C   0  0  0  0  0  0  0  0  0  0  0  0
    6.6213   -1.0112    0.5465 C   0  0  0  0  0  0  0  0  0  0  0  0
    7.2646   -0.8365    1.8713 C   0  0  0  0  0  0  0  0  0  0  0  0
    8.5466   -0.9355    2.1388 N   0  0  0  0  0  0  0  0  0  0  0  0
    9.0718   -0.7575    3.4665 N   0  0  0  0  0  0  0  0  0  0  0  0
    8.5617   -0.4827    4.7337 C   0  0  0  0  0  0  0  0  0  0  0  0
    9.4118   -0.2738    5.7346 N   0  0  0  0  0  0  0  0  0  0  0  0
    7.3028   -0.3783    5.1250 N   0  0  0  0  0  0  0  0  0  0  0  0
    6.2647   -0.4955    2.8807 C   0  0  0  0  0  0  0  0  0  0  0  0
    7.3146   -1.2280   -0.5987 C   0  0  0  0  0  0  0  0  0  0  0  0
    6.6236   -1.5688   -1.7885 C   0  0  0  0  0  0  0  0  0  0  0  0
    7.4245   -2.2565   -2.8288 C   0  0  0  0  0  0  0  0  0  0  0  0
    6.9566   -2.5806   -4.0044 N   0  0  0  0  0  0  0  0  0  0  0  0
    7.7299   -3.2729   -4.9581 N   0  0  0  0  0  0  0  0  0  0  0  0
    9.0715   -3.6052   -5.0456 C   0  0  0  0  0  0  0  0  0  0  0  0
    9.3910   -4.6538   -5.8393 N   0  0  0  0  0  0  0  0  0  0  0  0
   10.0861   -3.0800   -4.4415 N   0  0  0  0  0  0  0  0  0  0  0  0
    8.7780   -2.6106   -2.3239 C   0  0  0  0  0  0  0  0  0  0  0  0
    5.2319   -1.4795   -1.8843 C   0  0  0  0  0  0  0  0  0  0  0  0
    2.9314    0.6784    0.9242 C   0  0  0  0  0  0  0  0  0  0  0  0
    2.2803    1.8737    0.3367 C   0  0  0  0  0  0  0  0  0  0  0  0
    0.8142    2.1256    0.5360 C   0  0  0  0  0  0  0  0  0  0  0  0
    0.4229    2.2614    1.9956 C   0  0  0  0  0  0  0  0  0  0  0  0
    1.0642    3.4369    2.6906 C   0  0  0  0  0  0  0  0  0  0  0  0
    0.6336    4.6959    1.9969 C   0  0  0  0  0  0  0  0  0  0  0  0
   -0.7024    5.2932    2.0608 C   0  0  0  0  0  0  0  0  0  0  0  0
   -0.7521    5.5817    3.5490 C   0  0  0  0  0  0  0  0  0  0  0  0
    0.2819    6.6751    4.0977 C   0  0  0  0  0  0  0  0  0  0  0  0
   -0.2369    7.6113    4.7251 O   0  0  0  0  0  0  0  0  0  0  0  0
    1.6942    6.6963    4.0667 N   0  0  0  0  0  0  0  0  0  0  0  0
    2.7931    6.0217    3.3783 C   0  0  0  0  0  0  0  0  0  0  0  0
    3.0059    6.0602    1.9081 C   0  0  0  0  0  0  0  0  0  0  0  0
    3.6276    5.0221    1.1637 C   0  0  0  0  0  0  0  0  0  0  0  0
    3.1929    4.6143   -0.3477 C   0  0  0  0  0  0  0  0  0  0  0  0
    3.8313    3.7358   -1.1292 N   0  0  0  0  0  0  0  0  0  0  0  0
    3.1933    3.0728   -2.4009 N   0  0  0  0  0  0  0  0  0  0  0  0
    1.9221    3.1514   -3.0284 C   0  0  0  0  0  0  0  0  0  0  0  0
    1.5519    2.1445   -3.8642 N   0  0  0  0  0  0  0  0  0  0  0  0
    1.0194    4.0790   -2.9528 N   0  0  0  0  0  0  0  0  0  0  0  0
    1.8460    5.0795   -0.7933 C   0  0  0  0  0  0  0  0  0  0  0  0
    4.3029    4.1432    1.9889 C   0  0  0  0  0  0  0  0  0  0  0  0
    4.4342    4.3532    3.4208 C   0  0  0  0  0  0  0  0  0  0  0  0
    5.6460    3.7771    4.0307 C   0  0  0  0  0  0  0  0  0  0  0  0
    6.1943    4.1950    5.1446 N   0  0  0  0  0  0  0  0  0  0  0  0
    7.4816    3.7545    5.5587 N   0  0  0  0  0  0  0  0  0  0  0  0
    8.5174    3.0018    5.0115 C   0  0  0  0  0  0  0  0  0  0  0  0
    9.4491    2.5474    5.8710 N   0  0  0  0  0  0  0  0  0  0  0  0
    8.6929    2.6082    3.7698 N   0  0  0  0  0  0  0  0  0  0  0  0
    6.2432    2.7778    3.1517 C   0  0  0  0  0  0  0  0  0  0  0  0
    3.6109    5.2096    4.1406 C   0  0  0  0  0  0  0  0  0  0  0  0
    2.6234   -1.7401   -1.3597 H   0  0  0  0  0  0  0  0  0  0  0  0
    4.6349   -0.9602    1.3519 H   0  0  0  0  0  0  0  0  0  0  0  0
   10.0933   -0.7865    3.4455 H   0  0  0  0  0  0  0  0  0  0  0  0
    9.0082    0.1511    6.5609 H   0  0  0  0  0  0  0  0  0  0  0  0
   10.4231   -0.2276    5.6647 H   0  0  0  0  0  0  0  0  0  0  0  0
    7.1379    0.0235    6.0247 H   0  0  0  0  0  0  0  0  0  0  0  0
    5.4560    0.1455    2.5673 H   0  0  0  0  0  0  0  0  0  0  0  0
    5.8722   -1.3954    3.3639 H   0  0  0  0  0  0  0  0  0  0  0  0
    6.8087    0.2478    3.4011 H   0  0  0  0  0  0  0  0  0  0  0  0
    8.3948   -1.2423   -0.5016 H   0  0  0  0  0  0  0  0  0  0  0  0
    7.1466   -3.7170   -5.6605 H   0  0  0  0  0  0  0  0  0  0  0  0
   10.3999   -4.6388   -5.9763 H   0  0  0  0  0  0  0  0  0  0  0  0
    8.9729   -4.5931   -6.7585 H   0  0  0  0  0  0  0  0  0  0  0  0
   10.7702   -3.8230   -4.2589 H   0  0  0  0  0  0  0  0  0  0  0  0
    9.4309   -1.7324   -2.4301 H   0  0  0  0  0  0  0  0  0  0  0  0
    8.8252   -3.0314   -1.3205 H   0  0  0  0  0  0  0  0  0  0  0  0
    9.0384   -3.5069   -2.8283 H   0  0  0  0  0  0  0  0  0  0  0  0
    4.7108   -1.6556   -2.8176 H   0  0  0  0  0  0  0  0  0  0  0  0
    2.8497    0.6055    2.0095 H   0  0  0  0  0  0  0  0  0  0  0  0
    3.9865    0.8816    0.6974 H   0  0  0  0  0  0  0  0  0  0  0  0
    2.8472    2.6809    0.7407 H   0  0  0  0  0  0  0  0  0  0  0  0
    2.4542    1.7922   -0.7263 H   0  0  0  0  0  0  0  0  0  0  0  0
    0.5157    3.0221    0.0046 H   0  0  0  0  0  0  0  0  0  0  0  0
    0.2362    1.3713    0.0126 H   0  0  0  0  0  0  0  0  0  0  0  0
   -0.6552    2.4015    2.0248 H   0  0  0  0  0  0  0  0  0  0  0  0
    0.7073    1.3631    2.5367 H   0  0  0  0  0  0  0  0  0  0  0  0
    0.9088    3.4616    3.7665 H   0  0  0  0  0  0  0  0  0  0  0  0
    2.1374    3.3014    2.6143 H   0  0  0  0  0  0  0  0  0  0  0  0
    1.0942    5.5702    2.3261 H   0  0  0  0  0  0  0  0  0  0  0  0
    1.0785    4.6492    1.0689 H   0  0  0  0  0  0  0  0  0  0  0  0
   -0.7245    6.2387    1.4897 H   0  0  0  0  0  0  0  0  0  0  0  0
   -1.4239    4.6165    1.6027 H   0  0  0  0  0  0  0  0  0  0  0  0
   -1.7786    5.8881    3.7704 H   0  0  0  0  0  0  0  0  0  0  0  0
   -0.6200    4.6578    4.1225 H   0  0  0  0  0  0  0  0  0  0  0  0
    2.0297    7.4055    4.7105 H   0  0  0  0  0  0  0  0  0  0  0  0
    2.4116    6.7600    1.3300 H   0  0  0  0  0  0  0  0  0  0  0  0
    3.5211    2.0990   -2.4433 H   0  0  0  0  0  0  0  0  0  0  0  0
    0.8344    2.5076   -4.4931 H   0  0  0  0  0  0  0  0  0  0  0  0
    2.2794    1.7440   -4.4408 H   0  0  0  0  0  0  0  0  0  0  0  0
    0.0997    3.7922   -3.2750 H   0  0  0  0  0  0  0  0  0  0  0  0
    0.8266    5.1083   -0.4162 H   0  0  0  0  0  0  0  0  0  0  0  0
    1.8960    5.9215   -1.4568 H   0  0  0  0  0  0  0  0  0  0  0  0
    1.6059    4.0911   -1.1215 H   0  0  0  0  0  0  0  0  0  0  0  0
    4.6488    3.2014    1.5610 H   0  0  0  0  0  0  0  0  0  0  0  0
    7.6851    4.0976    6.4958 H   0  0  0  0  0  0  0  0  0  0  0  0
   10.2177    2.1258    5.3599 H   0  0  0  0  0  0  0  0  0  0  0  0
    9.7820    3.1769    6.5960 H   0  0  0  0  0  0  0  0  0  0  0  0
    9.2950    1.8037    3.6418 H   0  0  0  0  0  0  0  0  0  0  0  0
    5.5425    2.0184    2.8516 H   0  0  0  0  0  0  0  0  0  0  0  0
    6.7529    3.2520    2.2980 H   0  0  0  0  0  0  0  0  0  0  0  0
    6.8059    2.2031    3.8285 H   0  0  0  0  0  0  0  0  0  0  0  0
    3.5902    5.1822    5.2301 H   0  0  0  0  0  0  0  0  0  0  0  0
  2  1  2  0  0  0  0
  2  3  1  0  0  0  0
  3 55  1  0  0  0  0
  4  3  1  0  0  0  0
  5  4  1  0  0  0  0
  5  6  2  0  0  0  0
  5 56  1  0  0  0  0
  7  6  1  0  0  0  0
  7  8  2  0  0  0  0
  8  9  1  0  0  0  0
  9 57  1  0  0  0  0
 10  9  1  0  0  0  0
 10 11  1  0  0  0  0
 10 12  2  0  0  0  0
 11 58  1  0  0  0  0
 11 59  1  0  0  0  0
 12 60  1  0  0  0  0
 13  7  1  0  0  0  0
 13 61  1  0  0  0  0
 13 62  1  0  0  0  0
 13 63  1  0  0  0  0
 14  6  1  0  0  0  0
 14 15  2  0  0  0  0
 14 64  1  0  0  0  0
 16 15  1  0  0  0  0
 16 17  2  0  0  0  0
 17 18  1  0  0  0  0
 18 65  1  0  0  0  0
 19 18  1  0  0  0  0
 19 20  1  0  0  0  0
 19 21  2  0  0  0  0
 20 66  1  0  0  0  0
 20 67  1  0  0  0  0
 21 68  1  0  0  0  0
 22 16  1  0  0  0  0
 22 69  1  0  0  0  0
 22 70  1  0  0  0  0
 22 71  1  0  0  0  0
 23 15  1  0  0  0  0
 23  4  2  0  0  0  0
 23 72  1  0  0  0  0
 24  2  1  0  0  0  0
 24 73  1  0  0  0  0
 24 74  1  0  0  0  0
 25 24  1  0  0  0  0
 25 75  1  0  0  0  0
 25 76  1  0  0  0  0
 26 25  1  0  0  0  0
 26 77  1  0  0  0  0
 26 78  1  0  0  0  0
 27 26  1  0  0  0  0
 27 79  1  0  0  0  0
 27 80  1  0  0  0  0
 28 27  1  0  0  0  0
 28 29  1  0  0  0  0
 28 81  1  0  0  0  0
 28 82  1  0  0  0  0
 29 30  1  0  0  0  0
 29 83  1  0  0  0  0
 29 84  1  0  0  0  0
 30 31  1  0  0  0  0
 30 85  1  0  0  0  0
 30 86  1  0  0  0  0
 31 32  1  0  0  0  0
 31 87  1  0  0  0  0
 31 88  1  0  0  0  0
 32 33  2  0  0  0  0
 32 34  1  0  0  0  0
 34 89  1  0  0  0  0
 35 34  1  0  0  0  0
 36 35  1  0  0  0  0
 36 37  2  0  0  0  0
 36 90  1  0  0  0  0
 38 37  1  0  0  0  0
 38 39  2  0  0  0  0
 39 40  1  0  0  0  0
 40 91  1  0  0  0  0
 41 40  1  0  0  0  0
 41 42  1  0  0  0  0
 41 43  2  0  0  0  0
 42 92  1  0  0  0  0
 42 93  1  0  0  0  0
 43 94  1  0  0  0  0
 44 38  1  0  0  0  0
 44 95  1  0  0  0  0
 44 96  1  0  0  0  0
 44 97  1  0  0  0  0
 45 37  1  0  0  0  0
 45 46  2  0  0  0  0
 45 98  1  0  0  0  0
 47 46  1  0  0  0  0
 47 48  2  0  0  0  0
 48 49  1  0  0  0  0
 49 99  1  0  0  0  0
 50 49  1  0  0  0  0
 50 51  1  0  0  0  0
 50 52  2  0  0  0  0
 51100  1  0  0  0  0
 51101  1  0  0  0  0
 52102  1  0  0  0  0
 53 47  1  0  0  0  0
 53103  1  0  0  0  0
 53104  1  0  0  0  0
 53105  1  0  0  0  0
 54 46  1  0  0  0  0
 54 35  2  0  0  0  0
 54106  1  0  0  0  0
M  END
>  <DRUGBANK_ID>
DB12094

>  <COMMON_NAME>
Semapimod

>  <CAS_NUMBER>
352513-83-8

>  <UNII>
9SGW2H1K8P

>  <SYNONYMS>
Semapimod

$$$$
