1392
 OpenBabel10282417113D

 52 56  0  0  1  0  0  0  0  0999 V2000
   -0.1004   -0.3742   -0.2901 O   0  0  0  0  0  0  0  0  0  0  0  0
    0.8335    0.3481   -3.7399 O   0  0  0  0  0  0  0  0  0  0  0  0
   -0.6918    0.7483   -2.2987 O   0  0  0  0  0  0  0  0  0  0  0  0
   -2.2354   -1.9308   -1.2771 N   0  0  3  0  0  0  0  0  0  0  0  0
   -3.0989   -5.2663   -2.9229 N   0  0  0  0  0  0  0  0  0  0  0  0
   -0.4470   -3.0350   -0.5598 C   0  0  2  0  0  0  0  0  0  0  0  0
   -0.7467   -2.4594    0.8287 C   0  0  2  0  0  0  0  0  0  0  0  0
   -0.8319   -4.2858   -1.2270 C   0  0  0  0  0  0  0  0  0  0  0  0
   -1.7292   -3.3654   -2.0719 C   0  0  1  0  0  0  0  0  0  0  0  0
    0.2978   -1.7525   -1.8880 C   0  0  2  0  0  0  0  0  0  0  0  0
   -2.0140   -1.5676    0.2912 C   0  0  0  0  0  0  0  0  0  0  0  0
    0.7595   -2.3922    1.1712 C   0  0  0  0  0  0  0  0  0  0  0  0
    1.0430   -1.0393   -0.8209 C   0  0  2  0  0  0  0  0  0  0  0  0
    1.6391   -2.1903   -0.0589 C   0  0  0  0  0  0  0  0  0  0  0  0
   -2.9257   -3.9639   -2.5846 C   0  0  0  0  0  0  0  0  0  0  0  0
   -2.8637   -1.0751   -2.2298 C   0  0  0  0  0  0  0  0  0  0  0  0
   -4.0294   -3.2111   -2.8732 C   0  0  0  0  0  0  0  0  0  0  0  0
   -4.1785   -1.7373   -2.5780 C   0  0  0  0  0  0  0  0  0  0  0  0
    0.0934   -0.1675   -2.7488 C   0  0  0  0  0  0  0  0  0  0  0  0
   -4.9330   -4.1039   -3.4387 C   0  0  0  0  0  0  0  0  0  0  0  0
   -4.3474   -5.3750   -3.4729 C   0  0  0  0  0  0  0  0  0  0  0  0
   -6.2162   -3.9007   -3.9241 C   0  0  0  0  0  0  0  0  0  0  0  0
   -4.9985   -6.4841   -3.9911 C   0  0  0  0  0  0  0  0  0  0  0  0
   -6.8810   -4.9919   -4.4542 C   0  0  0  0  0  0  0  0  0  0  0  0
   -6.2829   -6.2557   -4.4873 C   0  0  0  0  0  0  0  0  0  0  0  0
    1.9231    0.2286   -4.7046 C   0  0  0  0  0  0  0  0  0  0  0  0
   -1.4797   -3.3389   -0.2075 H   0  0  0  0  0  0  0  0  0  0  0  0
   -1.1886   -3.0164    1.6769 H   0  0  0  0  0  0  0  0  0  0  0  0
   -1.1274   -3.1161   -2.9540 H   0  0  0  0  0  0  0  0  0  0  0  0
   -0.8734   -0.5565   -0.9210 H   0  0  0  0  0  0  0  0  0  0  0  0
   -2.4368   -6.0262   -2.8009 H   0  0  0  0  0  0  0  0  0  0  0  0
    0.1406   -4.7382   -1.4408 H   0  0  0  0  0  0  0  0  0  0  0  0
   -1.3928   -5.0652   -0.6546 H   0  0  0  0  0  0  0  0  0  0  0  0
    0.8515   -2.3451   -2.6317 H   0  0  0  0  0  0  0  0  0  0  0  0
   -2.9638   -1.6797    0.8340 H   0  0  0  0  0  0  0  0  0  0  0  0
   -1.8181   -0.5232    0.5994 H   0  0  0  0  0  0  0  0  0  0  0  0
    1.0199   -3.3981    1.5458 H   0  0  0  0  0  0  0  0  0  0  0  0
    0.9919   -1.6576    1.9302 H   0  0  0  0  0  0  0  0  0  0  0  0
    1.6631   -0.1585   -0.7547 H   0  0  0  0  0  0  0  0  0  0  0  0
    1.6299   -3.1115   -0.6981 H   0  0  0  0  0  0  0  0  0  0  0  0
    2.7129   -2.1265    0.0426 H   0  0  0  0  0  0  0  0  0  0  0  0
   -2.9445   -0.0558   -1.8553 H   0  0  0  0  0  0  0  0  0  0  0  0
   -2.2204   -1.0558   -3.1226 H   0  0  0  0  0  0  0  0  0  0  0  0
   -4.8252   -1.6278   -1.7029 H   0  0  0  0  0  0  0  0  0  0  0  0
   -4.6096   -1.2113   -3.4298 H   0  0  0  0  0  0  0  0  0  0  0  0
   -6.6477   -2.9074   -3.8817 H   0  0  0  0  0  0  0  0  0  0  0  0
   -4.5330   -7.4627   -4.0123 H   0  0  0  0  0  0  0  0  0  0  0  0
   -7.8779   -4.8387   -4.8456 H   0  0  0  0  0  0  0  0  0  0  0  0
   -6.8331   -7.0866   -4.9122 H   0  0  0  0  0  0  0  0  0  0  0  0
    2.8857    0.3857   -4.2127 H   0  0  0  0  0  0  0  0  0  0  0  0
    1.8313   -0.7089   -5.2371 H   0  0  0  0  0  0  0  0  0  0  0  0
    1.8356    1.0522   -5.4448 H   0  0  0  0  0  0  0  0  0  0  0  0
  1 30  1  0  0  0  0
  2 19  1  0  0  0  0
  2 26  1  0  0  0  0
  3 19  2  0  0  0  0
  4  9  1  0  0  0  0
  4 11  1  0  0  0  0
  4 16  1  0  0  0  0
  5 15  1  0  0  0  0
  5 21  1  0  0  0  0
  5 31  1  0  0  0  0
  6  7  1  0  0  0  0
  6  8  1  0  0  0  0
  6 10  1  0  0  0  0
  6 27  1  6  0  0  0
  7 11  1  0  0  0  0
  7 12  1  0  0  0  0
  7 28  1  1  0  0  0
  8  9  1  0  0  0  0
  8 32  1  0  0  0  0
  8 33  1  0  0  0  0
  9 15  1  0  0  0  0
  9 29  1  6  0  0  0
 10 13  1  0  0  0  0
 10 34  1  6  0  0  0
 10 19  1  0  0  0  0
 11 35  1  0  0  0  0
 11 36  1  0  0  0  0
 12 14  1  0  0  0  0
 12 37  1  0  0  0  0
 12 38  1  0  0  0  0
 13 14  1  0  0  0  0
 13 39  1  6  0  0  0
 13  1  1  0  0  0  0
 14 40  1  0  0  0  0
 14 41  1  0  0  0  0
 15 17  2  0  0  0  0
 16 18  1  0  0  0  0
 16 42  1  0  0  0  0
 16 43  1  0  0  0  0
 17 18  1  0  0  0  0
 17 20  1  0  0  0  0
 18 44  1  0  0  0  0
 18 45  1  0  0  0  0
 20 21  1  0  0  0  0
 20 22  2  0  0  0  0
 21 23  2  0  0  0  0
 22 24  1  0  0  0  0
 22 46  1  0  0  0  0
 23 25  1  0  0  0  0
 23 47  1  0  0  0  0
 24 25  2  0  0  0  0
 24 48  1  0  0  0  0
 25 49  1  0  0  0  0
 26 50  1  0  0  0  0
 26 51  1  0  0  0  0
 26 52  1  0  0  0  0
M  END
>  <DRUGBANK_ID>
DB01392

>  <COMMON_NAME>
Yohimbine

>  <CAS_NUMBER>
146-48-5

>  <UNII>
2Y49VWD90Q

>  <SYNONYMS>
(+)-yohimbine; (16α,17α)-17-hydroxyyohimban-16-carboxylic acid methyl ester; 17α-hydroxyyohimban-16α-carboxylic acid methyl ester; Johimbin; Quebrachin; Yohimbic acid methyl ester; Yohimbin; Yohimbine; Yohimbinum

$$$$
