
 OpenBabel10282417183D

 18 18  0  0  0  0  0  0  0  0999 V2000
    0.9964    0.0554    0.0612 O   0  0  0  0  0  0  0  0  0  0  0  0
    5.2299    4.8459    0.0166 N   0  0  0  0  0  0  0  0  0  0  0  0
    4.7623    2.6463   -0.8508 N   0  0  0  0  0  0  0  0  0  0  0  0
    4.0534    1.4558   -0.8161 N   0  0  0  0  0  0  0  0  0  0  0  0
    6.2559    5.0362   -0.9295 N   0  0  0  0  0  0  0  0  0  0  0  0
    2.9504   -1.0819   -0.0676 N   0  0  0  0  0  0  0  0  0  0  0  0
    4.4037    3.7025   -0.0769 C   0  0  0  0  0  0  0  0  0  0  0  0
    2.9735    1.3580   -0.0133 C   0  0  0  0  0  0  0  0  0  0  0  0
    3.3008    3.5923    0.7644 C   0  0  0  0  0  0  0  0  0  0  0  0
    2.5656    2.4054    0.7932 C   0  0  0  0  0  0  0  0  0  0  0  0
    2.2231    0.0766   -0.0198 C   0  0  0  0  0  0  0  0  0  0  0  0
    4.7996    5.6798    0.4142 H   0  0  0  0  0  0  0  0  0  0  0  0
    7.1433    5.1564   -0.4341 H   0  0  0  0  0  0  0  0  0  0  0  0
    6.3864    4.1742   -1.4763 H   0  0  0  0  0  0  0  0  0  0  0  0
    3.9626   -1.0921   -0.0898 H   0  0  0  0  0  0  0  0  0  0  0  0
    2.4508   -1.9619   -0.0541 H   0  0  0  0  0  0  0  0  0  0  0  0
    3.0093    4.4181    1.4054 H   0  0  0  0  0  0  0  0  0  0  0  0
    1.7112    2.2940    1.4527 H   0  0  0  0  0  0  0  0  0  0  0  0
  1 11  2  0  0  0  0
  2  5  1  0  0  0  0
  2  7  1  0  0  0  0
  2 12  1  0  0  0  0
  3  4  1  0  0  0  0
  3  7  2  0  0  0  0
  4  8  2  0  0  0  0
  5 13  1  0  0  0  0
  5 14  1  0  0  0  0
  6 11  1  0  0  0  0
  6 15  1  0  0  0  0
  6 16  1  0  0  0  0
  7  9  1  0  0  0  0
  8 10  1  0  0  0  0
  8 11  1  0  0  0  0
  9 10  2  0  0  0  0
  9 17  1  0  0  0  0
 10 18  1  0  0  0  0
M  END
>  <DRUGBANK_ID>
DB09243

>  <COMMON_NAME>
Hydracarbazine

>  <CAS_NUMBER>
3614-47-9

>  <UNII>
6CTK2FB9QM

>  <SYNONYMS>
Hydracarbazine

$$$$
