
 OpenBabel10282417243D

 61 64  0  0  1  0  0  0  0  0999 V2000
   -1.2028   -1.2587    0.0096 C   0  0  0  0  0  0  0  0  0  0  0  0
   -1.7590    0.1201   -0.2914 C   0  0  0  0  0  0  0  0  0  0  0  0
   -0.9805    1.2898    0.4309 C   0  0  0  0  0  0  0  0  0  0  0  0
    0.5473    1.1352    0.2131 C   0  0  2  0  0  0  0  0  0  0  0  0
    1.4955    2.2277    0.5302 N   0  0  0  0  0  0  0  0  0  0  0  0
    2.8197    2.0986   -0.1979 C   0  0  0  0  0  0  0  0  0  0  0  0
    3.7572    0.8950    0.1340 C   0  0  0  0  0  0  0  0  0  0  0  0
    4.9005    1.0422    0.8710 C   0  0  0  0  0  0  0  0  0  0  0  0
    5.6687   -0.1025    1.1882 C   0  0  0  0  0  0  0  0  0  0  0  0
    5.1066   -1.3767    1.0044 C   0  0  0  0  0  0  0  0  0  0  0  0
    3.9480   -1.4795    0.3429 C   0  0  0  0  0  0  0  0  0  0  0  0
    3.1037   -2.7866    0.3972 C   0  0  0  0  0  0  0  0  0  0  0  0
    3.0834   -3.6959    1.6233 N   0  0  0  0  0  0  0  0  0  0  0  0
    1.6467   -4.3040    1.7631 C   0  0  1  0  0  0  0  0  0  0  0  0
    1.2704   -5.6779    2.4249 C   0  0  0  0  0  0  0  0  0  0  0  0
    1.6223   -5.7855    3.9188 C   0  0  0  0  0  0  0  0  0  0  0  0
    1.0466   -4.6193    4.7297 C   0  0  0  0  0  0  0  0  0  0  0  0
    1.6823   -3.4562    4.0405 C   0  0  0  0  0  0  0  0  0  0  0  0
    0.9244   -3.2891    2.6868 C   0  0  2  0  0  0  0  0  0  0  0  0
   -0.5616   -3.2172    2.6913 N   0  0  0  0  0  0  0  0  0  0  0  0
   -1.1005   -1.9565    3.2559 C   0  0  0  0  0  0  0  0  0  0  0  0
   -0.0475   -0.9123    3.6168 C   0  0  0  0  0  0  0  0  0  0  0  0
    0.7477   -0.1841    2.5477 N   0  0  0  0  0  0  0  0  0  0  0  0
    0.8072   -0.2447    0.9692 C   0  0  1  0  0  0  0  0  0  0  0  0
    0.2593   -1.2317   -0.1768 C   0  0  0  0  0  0  0  0  0  0  0  0
    3.3772   -0.3669   -0.2802 N   0  0  0  0  0  0  0  0  0  0  0  0
   -1.6978   -2.1281   -0.4324 H   0  0  0  0  0  0  0  0  0  0  0  0
   -1.2666   -1.4416    1.0433 H   0  0  0  0  0  0  0  0  0  0  0  0
   -2.8142    0.1296   -0.0138 H   0  0  0  0  0  0  0  0  0  0  0  0
   -1.6864    0.2544   -1.3774 H   0  0  0  0  0  0  0  0  0  0  0  0
   -1.3646    2.2525    0.0876 H   0  0  0  0  0  0  0  0  0  0  0  0
   -1.1744    1.2309    1.5079 H   0  0  0  0  0  0  0  0  0  0  0  0
    0.6453    1.0624   -0.8835 H   0  0  0  0  0  0  0  0  0  0  0  0
    1.6392    2.2733    1.5335 H   0  0  0  0  0  0  0  0  0  0  0  0
    3.3803    3.0342   -0.0233 H   0  0  0  0  0  0  0  0  0  0  0  0
    2.6405    2.1120   -1.2821 H   0  0  0  0  0  0  0  0  0  0  0  0
    5.2504    2.0172    1.2230 H   0  0  0  0  0  0  0  0  0  0  0  0
    6.6540   -0.0142    1.5989 H   0  0  0  0  0  0  0  0  0  0  0  0
    5.5838   -2.2698    1.4186 H   0  0  0  0  0  0  0  0  0  0  0  0
    3.1857   -3.3724   -0.5113 H   0  0  0  0  0  0  0  0  0  0  0  0
    2.1360   -2.3628    0.4362 H   0  0  0  0  0  0  0  0  0  0  0  0
    3.1706   -3.0015    2.3777 H   0  0  0  0  0  0  0  0  0  0  0  0
    1.2537   -4.3697    0.7430 H   0  0  0  0  0  0  0  0  0  0  0  0
    1.6330   -6.5515    1.8786 H   0  0  0  0  0  0  0  0  0  0  0  0
    0.1702   -5.7520    2.3462 H   0  0  0  0  0  0  0  0  0  0  0  0
    1.3142   -6.7403    4.3522 H   0  0  0  0  0  0  0  0  0  0  0  0
    2.7163   -5.7393    3.9848 H   0  0  0  0  0  0  0  0  0  0  0  0
    1.3412   -4.7265    5.7807 H   0  0  0  0  0  0  0  0  0  0  0  0
   -0.0446   -4.5604    4.7496 H   0  0  0  0  0  0  0  0  0  0  0  0
    2.2882   -3.1609    4.9172 H   0  0  0  0  0  0  0  0  0  0  0  0
    1.8890   -2.3865    4.0447 H   0  0  0  0  0  0  0  0  0  0  0  0
    1.1865   -2.3716    2.1989 H   0  0  0  0  0  0  0  0  0  0  0  0
   -1.0008   -4.0219    3.1382 H   0  0  0  0  0  0  0  0  0  0  0  0
   -1.7991   -2.1865    4.0726 H   0  0  0  0  0  0  0  0  0  0  0  0
   -1.7806   -1.4099    2.6133 H   0  0  0  0  0  0  0  0  0  0  0  0
    0.5695   -1.4106    4.3744 H   0  0  0  0  0  0  0  0  0  0  0  0
   -0.4587   -0.2041    4.3476 H   0  0  0  0  0  0  0  0  0  0  0  0
    1.7294   -0.2646    2.8461 H   0  0  0  0  0  0  0  0  0  0  0  0
    1.8511   -0.3631    0.9282 H   0  0  0  0  0  0  0  0  0  0  0  0
    0.6015   -2.2582   -0.2745 H   0  0  0  0  0  0  0  0  0  0  0  0
    0.4850   -0.8493   -1.1953 H   0  0  0  0  0  0  0  0  0  0  0  0
  1  2  1  0  0  0  0
  1 25  1  0  0  0  0
  1 27  1  0  0  0  0
  1 28  1  0  0  0  0
  2  3  1  0  0  0  0
  2 29  1  0  0  0  0
  2 30  1  0  0  0  0
  3 31  1  0  0  0  0
  3 32  1  0  0  0  0
  4  3  1  0  0  0  0
  4  5  1  0  0  0  0
  4 24  1  0  0  0  0
  4 33  1  1  0  0  0
  5  6  1  0  0  0  0
  5 34  1  0  0  0  0
  6  7  1  0  0  0  0
  6 35  1  0  0  0  0
  6 36  1  0  0  0  0
  7  8  2  0  0  0  0
  7 26  1  0  0  0  0
  8  9  1  0  0  0  0
  8 37  1  0  0  0  0
  9 10  2  0  0  0  0
  9 38  1  0  0  0  0
 10 11  1  0  0  0  0
 10 39  1  0  0  0  0
 11 12  1  0  0  0  0
 11 26  2  0  0  0  0
 12 13  1  0  0  0  0
 12 40  1  0  0  0  0
 12 41  1  0  0  0  0
 13 42  1  0  0  0  0
 14 13  1  0  0  0  0
 14 15  1  0  0  0  0
 14 19  1  0  0  0  0
 14 43  1  6  0  0  0
 15 16  1  0  0  0  0
 15 44  1  0  0  0  0
 15 45  1  0  0  0  0
 16 17  1  0  0  0  0
 16 46  1  0  0  0  0
 16 47  1  0  0  0  0
 17 18  1  0  0  0  0
 17 48  1  0  0  0  0
 17 49  1  0  0  0  0
 18 50  1  0  0  0  0
 18 51  1  0  0  0  0
 19 18  1  0  0  0  0
 19 20  1  0  0  0  0
 19 52  1  6  0  0  0
 20 21  1  0  0  0  0
 20 53  1  0  0  0  0
 21 22  1  0  0  0  0
 21 54  1  0  0  0  0
 21 55  1  0  0  0  0
 22 23  1  0  0  0  0
 22 56  1  0  0  0  0
 22 57  1  0  0  0  0
 23 58  1  0  0  0  0
 24 23  1  0  0  0  0
 24 25  1  0  0  0  0
 24 59  1  6  0  0  0
 25 60  1  0  0  0  0
 25 61  1  0  0  0  0
M  END
>  <DRUGBANK_ID>
DB18481

>  <COMMON_NAME>
Avasopasem

>  <UNII>
HP219O4H4V

>  <SYNONYMS>
(4AS,13AS,17AS,21AS)-1,2,3,4,4A,5,6,12,13,13A,14,15,16,17,17A,18,19,20,21,21A-EICOSAHYDRO-11,7-NITRILO-7H-DIBENZO(B,H)(1,4,7,10)TETRAAZACYCLOHEPTADECINE

$$$$
