
 OpenBabel10282417233D

268271  0  0  0  0  0  0  0  0999 V2000
    1.0786   -0.0353   -0.0091 C   0  0  0  0  0  0  0  0  0  0  0  0
    0.5969   -0.0717   -1.4222 C   0  0  0  0  0  0  0  0  0  0  0  0
   -0.1734   -0.9466   -1.8557 O   0  0  0  0  0  0  0  0  0  0  0  0
    1.0423    0.8814   -2.2685 N   0  0  0  0  0  0  0  0  0  0  0  0
    1.7897    2.0627   -1.8909 C   0  0  1  0  0  0  0  0  0  0  0  0
    3.1932    2.1334   -2.5694 C   0  0  0  0  0  0  0  0  0  0  0  0
    3.2312    2.5716   -4.0210 C   0  0  0  0  0  0  0  0  0  0  0  0
    2.8154    4.0255   -3.9758 C   0  0  0  0  0  0  0  0  0  0  0  0
    3.7357    5.0688   -3.7033 N   0  0  0  0  0  0  0  0  0  0  0  0
    3.7846    6.0140   -4.6517 C   0  0  0  0  0  0  0  0  0  0  0  0
    3.9748    7.2317   -4.1572 N   0  0  0  0  0  0  0  0  0  0  0  0
    3.6310    5.7874   -5.9136 N   0  0  0  0  0  0  0  0  0  0  0  0
    0.8142    3.2398   -2.0496 C   0  0  0  0  0  0  0  0  0  0  0  0
    0.7341    4.1183   -1.1778 O   0  0  0  0  0  0  0  0  0  0  0  0
    0.2426    3.5243   -3.2730 N   0  0  0  0  0  0  0  0  0  0  0  0
    0.3081    2.9681   -4.7474 C   0  0  1  0  0  0  0  0  0  0  0  0
   -1.1288    2.7324   -5.1598 C   0  0  0  0  0  0  0  0  0  0  0  0
   -2.1183    3.9279   -5.1756 C   0  0  0  0  0  0  0  0  0  0  0  0
   -1.9644    5.2143   -4.6014 C   0  0  0  0  0  0  0  0  0  0  0  0
   -2.4592    6.3591   -5.2646 C   0  0  0  0  0  0  0  0  0  0  0  0
   -3.3709    6.2486   -6.2687 C   0  0  0  0  0  0  0  0  0  0  0  0
   -3.7894    4.9800   -6.6214 C   0  0  0  0  0  0  0  0  0  0  0  0
   -3.1466    3.8281   -6.1083 C   0  0  0  0  0  0  0  0  0  0  0  0
   -3.6489    7.3482   -7.0277 O   0  0  0  0  0  0  0  0  0  0  0  0
    1.2890    3.4553   -6.1543 C   0  0  0  0  0  0  0  0  0  0  0  0
    2.2116    2.7660   -6.6053 O   0  0  0  0  0  0  0  0  0  0  0  0
    1.2888    4.7794   -6.5706 N   0  0  0  0  0  0  0  0  0  0  0  0
    0.2927    5.6800   -6.1253 C   0  0  1  0  0  0  0  0  0  0  0  0
    0.6041    7.0562   -5.1326 C   0  0  0  0  0  0  0  0  0  0  0  0
    1.2153    8.3625   -5.6480 C   0  0  0  0  0  0  0  0  0  0  0  0
    2.1591    8.2481   -6.6458 C   0  0  0  0  0  0  0  0  0  0  0  0
    2.4452    9.2428   -7.5606 C   0  0  0  0  0  0  0  0  0  0  0  0
    1.8155   10.4536   -7.4569 C   0  0  0  0  0  0  0  0  0  0  0  0
    1.0109   10.6881   -6.3490 C   0  0  0  0  0  0  0  0  0  0  0  0
    0.7015    9.6478   -5.4379 C   0  0  0  0  0  0  0  0  0  0  0  0
    1.7903   11.3453   -8.4871 O   0  0  0  0  0  0  0  0  0  0  0  0
   -0.7439    5.3495   -7.3874 C   0  0  0  0  0  0  0  0  0  0  0  0
   -1.1080    4.2956   -7.7769 O   0  0  0  0  0  0  0  0  0  0  0  0
   -0.9703    6.3621   -8.2721 N   0  0  0  0  0  0  0  0  0  0  0  0
    0.0986    7.2156   -8.4361 C   0  0  1  0  0  0  0  0  0  0  0  0
    1.2948    6.6950   -9.3064 C   0  0  0  0  0  0  0  0  0  0  0  0
    1.2224    7.2018  -10.7134 C   0  0  0  0  0  0  0  0  0  0  0  0
    1.3539    8.7222  -10.6238 C   0  0  0  0  0  0  0  0  0  0  0  0
    2.5741    9.3677  -10.9751 N   0  0  0  0  0  0  0  0  0  0  0  0
    2.5109   10.3964  -11.8587 C   0  0  0  0  0  0  0  0  0  0  0  0
    3.2510   11.4365  -11.4403 N   0  0  0  0  0  0  0  0  0  0  0  0
    1.8041   10.4461  -12.9123 N   0  0  0  0  0  0  0  0  0  0  0  0
   -0.6609    8.4864   -8.4128 C   0  0  0  0  0  0  0  0  0  0  0  0
   -1.1494    8.9785   -7.3425 O   0  0  0  0  0  0  0  0  0  0  0  0
   -0.9155    9.0030   -9.6018 N   0  0  0  0  0  0  0  0  0  0  0  0
   -1.5849    8.3678  -10.7326 C   0  0  1  0  0  0  0  0  0  0  0  0
   -3.0323    8.6119  -10.4483 C   0  0  0  0  0  0  0  0  0  0  0  0
   -3.4474   10.0715  -10.1267 C   0  0  0  0  0  0  0  0  0  0  0  0
   -2.8468   11.2898   -9.4108 C   0  0  0  0  0  0  0  0  0  0  0  0
   -3.4878   12.4136   -9.9489 C   0  0  0  0  0  0  0  0  0  0  0  0
   -4.4071   11.9454  -10.8860 N   0  0  0  0  0  0  0  0  0  0  0  0
   -4.4619   10.5690  -10.9104 C   0  0  0  0  0  0  0  0  0  0  0  0
   -3.0126   13.7395   -9.6652 C   0  0  0  0  0  0  0  0  0  0  0  0
   -1.7434   13.9826   -9.1084 C   0  0  0  0  0  0  0  0  0  0  0  0
   -1.0756   12.9333   -8.5542 C   0  0  0  0  0  0  0  0  0  0  0  0
   -1.6713   11.6515   -8.6188 C   0  0  0  0  0  0  0  0  0  0  0  0
   -0.9501    8.6402  -12.2243 C   0  0  0  0  0  0  0  0  0  0  0  0
   -0.3794    7.7627  -12.8821 O   0  0  0  0  0  0  0  0  0  0  0  0
   -0.6964    9.9074  -12.6451 N   0  0  0  0  0  0  0  0  0  0  0  0
   -1.2354   11.0608  -12.0687 C   0  0  1  0  0  0  0  0  0  0  0  0
   -0.2949   12.1459  -11.4217 C   0  0  0  0  0  0  0  0  0  0  0  0
   -0.0230   13.5008  -12.0500 C   0  0  0  0  0  0  0  0  0  0  0  0
   -1.4793   13.9146  -12.4394 C   0  0  0  0  0  0  0  0  0  0  0  0
   -2.3748   15.0698  -12.2953 C   0  0  0  0  0  0  0  0  0  0  0  0
   -1.6338   16.1853  -11.8591 N   0  0  0  0  0  0  0  0  0  0  0  0
   -2.3237   11.3208  -13.1282 C   0  0  0  0  0  0  0  0  0  0  0  0
   -3.5116   11.0638  -13.1610 O   0  0  0  0  0  0  0  0  0  0  0  0
   -1.9656   11.9451  -14.2419 N   0  0  0  0  0  0  0  0  0  0  0  0
   -0.6375   12.4549  -14.5776 C   0  0  1  0  0  0  0  0  0  0  0  0
   -0.2040   11.5372  -15.7216 C   0  0  0  0  0  0  0  0  0  0  0  0
   -0.9819   11.9458  -16.9488 C   0  0  0  0  0  0  0  0  0  0  0  0
   -0.4863   13.3597  -17.1135 C   0  0  0  0  0  0  0  0  0  0  0  0
    0.8084   14.0206  -17.2730 C   0  0  0  0  0  0  0  0  0  0  0  0
    0.9561   13.5564  -18.6063 N   0  0  0  0  0  0  0  0  0  0  0  0
   -0.4848   14.2905  -14.6576 C   0  0  0  0  0  0  0  0  0  0  0  0
    0.5606   14.9396  -14.3678 O   0  0  0  0  0  0  0  0  0  0  0  0
   -1.6795   14.9797  -15.1458 N   0  0  0  0  0  0  0  0  0  0  0  0
   -2.8386   14.3361  -16.0250 C   0  0  1  0  0  0  0  0  0  0  0  0
   -4.3194   14.5794  -15.5250 C   0  0  0  0  0  0  0  0  0  0  0  0
   -4.7867   15.9530  -15.9684 C   0  0  0  0  0  0  0  0  0  0  0  0
   -4.7588   15.8257  -17.4826 C   0  0  0  0  0  0  0  0  0  0  0  0
   -5.3843   15.0305  -18.5436 C   0  0  0  0  0  0  0  0  0  0  0  0
   -6.6090   15.7407  -18.4613 N   0  0  0  0  0  0  0  0  0  0  0  0
   -2.5695   14.3969  -17.8053 C   0  0  0  0  0  0  0  0  0  0  0  0
   -2.7852   13.4556  -18.6165 O   0  0  0  0  0  0  0  0  0  0  0  0
   -2.0157   15.6696  -18.2043 N   0  0  0  0  0  0  0  0  0  0  0  0
   -2.2525   17.0048  -17.4266 C   0  0  1  0  0  0  0  0  0  0  0  0
   -0.9551   17.8263  -17.0751 C   0  0  0  0  0  0  0  0  0  0  0  0
   -0.5035   18.6100  -18.2925 C   0  0  0  0  0  0  0  0  0  0  0  0
   -1.6724   19.5548  -18.5195 C   0  0  0  0  0  0  0  0  0  0  0  0
   -2.3816   20.6311  -17.8213 C   0  0  0  0  0  0  0  0  0  0  0  0
   -1.3572   21.5803  -18.0694 N   0  0  0  0  0  0  0  0  0  0  0  0
   -3.6946   17.9564  -17.9675 C   0  0  0  0  0  0  0  0  0  0  0  0
   -4.5105   18.5457  -17.2105 O   0  0  0  0  0  0  0  0  0  0  0  0
   -3.8312   17.9310  -19.4062 N   0  0  0  0  0  0  0  0  0  0  0  0
   -2.6314   17.7533  -20.3932 C   0  0  1  0  0  0  0  0  0  0  0  0
   -2.8147   16.6311  -21.4832 C   0  0  0  0  0  0  0  0  0  0  0  0
   -3.6681   17.1597  -22.6223 C   0  0  0  0  0  0  0  0  0  0  0  0
   -2.8113   18.2906  -23.1781 C   0  0  0  0  0  0  0  0  0  0  0  0
   -1.4888   18.4797  -23.7827 C   0  0  0  0  0  0  0  0  0  0  0  0
   -1.9038   17.9512  -25.0292 N   0  0  0  0  0  0  0  0  0  0  0  0
   -1.8423   19.2922  -20.9337 C   0  0  0  0  0  0  0  0  0  0  0  0
   -0.6020   19.4813  -21.0378 O   0  0  0  0  0  0  0  0  0  0  0  0
   -2.8205   20.3248  -21.2051 N   0  0  0  0  0  0  0  0  0  0  0  0
   -4.2803   20.0232  -21.6683 C   0  0  1  0  0  0  0  0  0  0  0  0
   -5.4062   20.6667  -20.8012 C   0  0  0  0  0  0  0  0  0  0  0  0
   -5.5659   22.0960  -21.2134 C   0  0  0  0  0  0  0  0  0  0  0  0
   -5.9936   22.0284  -22.6737 C   0  0  0  0  0  0  0  0  0  0  0  0
   -7.1105   21.4568  -23.4272 C   0  0  0  0  0  0  0  0  0  0  0  0
   -7.9855   22.5050  -23.0238 N   0  0  0  0  0  0  0  0  0  0  0  0
   -4.5658   19.9873  -23.4685 C   0  0  0  0  0  0  0  0  0  0  0  0
   -5.2691   19.1232  -24.0513 O   0  0  0  0  0  0  0  0  0  0  0  0
   -3.8764   21.0851  -24.1554 N   0  0  0  0  0  0  0  0  0  0  0  0
   -3.4549   22.5128  -23.4861 C   0  0  1  0  0  0  0  0  0  0  0  0
   -2.0220   22.8235  -23.8557 C   0  0  0  0  0  0  0  0  0  0  0  0
   -1.9831   23.0495  -25.3546 C   0  0  0  0  0  0  0  0  0  0  0  0
   -2.9903   24.1141  -25.7861 C   0  0  0  0  0  0  0  0  0  0  0  0
   -2.8850   25.4191  -24.9523 C   0  0  0  0  0  0  0  0  0  0  0  0
   -1.5836   26.0035  -25.1988 N   0  0  0  0  0  0  0  0  0  0  0  0
   -4.5611   23.9408  -23.4888 C   0  0  0  0  0  0  0  0  0  0  0  0
   -5.0451   24.5695  -22.3773 N   0  0  0  0  0  0  0  0  0  0  0  0
   -5.2748   24.2600  -24.4580 O   0  0  0  0  0  0  0  0  0  0  0  0
    0.7176   -0.9136    0.5254 H   0  0  0  0  0  0  0  0  0  0  0  0
    0.7004    0.8634    0.4898 H   0  0  0  0  0  0  0  0  0  0  0  0
    2.1732   -0.0384   -0.0002 H   0  0  0  0  0  0  0  0  0  0  0  0
    0.5597    0.8483   -3.1542 H   0  0  0  0  0  0  0  0  0  0  0  0
    2.0122    2.0372   -0.8197 H   0  0  0  0  0  0  0  0  0  0  0  0
    3.8018    2.8736   -2.0381 H   0  0  0  0  0  0  0  0  0  0  0  0
    3.6887    1.1663   -2.4827 H   0  0  0  0  0  0  0  0  0  0  0  0
    4.1845    2.4571   -4.5406 H   0  0  0  0  0  0  0  0  0  0  0  0
    2.5929    1.8456   -4.5437 H   0  0  0  0  0  0  0  0  0  0  0  0
    2.1077    4.4149   -4.6546 H   0  0  0  0  0  0  0  0  0  0  0  0
    2.2205    4.1541   -3.1193 H   0  0  0  0  0  0  0  0  0  0  0  0
    3.4720    5.4497   -2.7952 H   0  0  0  0  0  0  0  0  0  0  0  0
    4.2979    7.9197   -4.8239 H   0  0  0  0  0  0  0  0  0  0  0  0
    4.5065    7.2302   -3.2986 H   0  0  0  0  0  0  0  0  0  0  0  0
    3.8150    6.6640   -6.3791 H   0  0  0  0  0  0  0  0  0  0  0  0
   -0.0786    4.4694   -3.1476 H   0  0  0  0  0  0  0  0  0  0  0  0
    0.7300    1.9799   -4.5980 H   0  0  0  0  0  0  0  0  0  0  0  0
   -1.0135    2.2713   -6.1576 H   0  0  0  0  0  0  0  0  0  0  0  0
   -1.5197    1.9498   -4.5041 H   0  0  0  0  0  0  0  0  0  0  0  0
   -1.1932    5.4749   -3.8895 H   0  0  0  0  0  0  0  0  0  0  0  0
   -1.9342    7.3114   -5.2502 H   0  0  0  0  0  0  0  0  0  0  0  0
   -4.4560    4.8697   -7.4614 H   0  0  0  0  0  0  0  0  0  0  0  0
   -3.2706    2.8812   -6.6307 H   0  0  0  0  0  0  0  0  0  0  0  0
   -3.0416    8.0871   -6.7911 H   0  0  0  0  0  0  0  0  0  0  0  0
    2.2091    5.1225   -6.8456 H   0  0  0  0  0  0  0  0  0  0  0  0
   -0.0134    5.0728   -5.3238 H   0  0  0  0  0  0  0  0  0  0  0  0
   -0.2888    7.4014   -4.6066 H   0  0  0  0  0  0  0  0  0  0  0  0
    1.1730    6.7183   -4.2538 H   0  0  0  0  0  0  0  0  0  0  0  0
    2.3542    7.2464   -6.9902 H   0  0  0  0  0  0  0  0  0  0  0  0
    2.9350    8.8917   -8.4525 H   0  0  0  0  0  0  0  0  0  0  0  0
    0.4333   11.6071   -6.3204 H   0  0  0  0  0  0  0  0  0  0  0  0
   -0.1323    9.8185   -4.7580 H   0  0  0  0  0  0  0  0  0  0  0  0
    1.9656   10.9415   -9.3570 H   0  0  0  0  0  0  0  0  0  0  0  0
   -1.6841    6.2224   -8.9688 H   0  0  0  0  0  0  0  0  0  0  0  0
    0.5173    7.2308   -7.4771 H   0  0  0  0  0  0  0  0  0  0  0  0
    2.2962    6.9968   -8.9851 H   0  0  0  0  0  0  0  0  0  0  0  0
    1.3513    5.6026   -9.2583 H   0  0  0  0  0  0  0  0  0  0  0  0
    1.9347    6.7766  -11.4128 H   0  0  0  0  0  0  0  0  0  0  0  0
    0.2762    6.7500  -11.0163 H   0  0  0  0  0  0  0  0  0  0  0  0
    0.5993    9.3255  -11.0558 H   0  0  0  0  0  0  0  0  0  0  0  0
    1.2058    9.0151   -9.5998 H   0  0  0  0  0  0  0  0  0  0  0  0
    3.1064    9.5745  -10.1532 H   0  0  0  0  0  0  0  0  0  0  0  0
    3.5969   11.9826  -12.2203 H   0  0  0  0  0  0  0  0  0  0  0  0
    4.0040   11.2072  -10.8105 H   0  0  0  0  0  0  0  0  0  0  0  0
    1.9354   11.3470  -13.3789 H   0  0  0  0  0  0  0  0  0  0  0  0
   -0.8608    9.9993   -9.6564 H   0  0  0  0  0  0  0  0  0  0  0  0
   -1.4490    7.2977  -10.6057 H   0  0  0  0  0  0  0  0  0  0  0  0
   -3.5185    8.1770  -11.3349 H   0  0  0  0  0  0  0  0  0  0  0  0
   -3.3303    8.0031   -9.5903 H   0  0  0  0  0  0  0  0  0  0  0  0
   -4.6811   12.4504  -11.7200 H   0  0  0  0  0  0  0  0  0  0  0  0
   -4.9439   10.0484  -11.7447 H   0  0  0  0  0  0  0  0  0  0  0  0
   -3.5166   14.6098  -10.0594 H   0  0  0  0  0  0  0  0  0  0  0  0
   -1.2036   14.9203   -9.2678 H   0  0  0  0  0  0  0  0  0  0  0  0
   -0.0175   13.0384   -8.2881 H   0  0  0  0  0  0  0  0  0  0  0  0
   -0.9737   10.9432   -8.2114 H   0  0  0  0  0  0  0  0  0  0  0  0
    0.1448   10.0207  -13.2137 H   0  0  0  0  0  0  0  0  0  0  0  0
   -1.6806   10.6724  -11.2069 H   0  0  0  0  0  0  0  0  0  0  0  0
   -0.9693   12.5446  -10.7097 H   0  0  0  0  0  0  0  0  0  0  0  0
    0.4994   11.7934  -10.7679 H   0  0  0  0  0  0  0  0  0  0  0  0
    0.4910   14.2308  -11.4191 H   0  0  0  0  0  0  0  0  0  0  0  0
    0.7825   13.2866  -12.7714 H   0  0  0  0  0  0  0  0  0  0  0  0
   -1.7642   13.7506  -13.4268 H   0  0  0  0  0  0  0  0  0  0  0  0
   -2.1085   13.1404  -12.0699 H   0  0  0  0  0  0  0  0  0  0  0  0
   -2.9434   15.3041  -13.1963 H   0  0  0  0  0  0  0  0  0  0  0  0
   -3.2119   14.6397  -11.7633 H   0  0  0  0  0  0  0  0  0  0  0  0
   -2.2095   16.7279  -11.2342 H   0  0  0  0  0  0  0  0  0  0  0  0
   -0.8052   15.8702  -11.3604 H   0  0  0  0  0  0  0  0  0  0  0  0
   -2.8536   12.2934  -14.5690 H   0  0  0  0  0  0  0  0  0  0  0  0
    0.0261   12.1075  -13.8155 H   0  0  0  0  0  0  0  0  0  0  0  0
    0.8635   11.6837  -15.8620 H   0  0  0  0  0  0  0  0  0  0  0  0
   -0.4104   10.4983  -15.4527 H   0  0  0  0  0  0  0  0  0  0  0  0
   -0.9128   11.3349  -17.8310 H   0  0  0  0  0  0  0  0  0  0  0  0
   -2.0604   11.8520  -16.6906 H   0  0  0  0  0  0  0  0  0  0  0  0
   -0.9478   14.2873  -17.1897 H   0  0  0  0  0  0  0  0  0  0  0  0
   -0.8208   13.4820  -16.1710 H   0  0  0  0  0  0  0  0  0  0  0  0
    0.6652   15.1265  -17.2427 H   0  0  0  0  0  0  0  0  0  0  0  0
    1.4946   13.7748  -16.4683 H   0  0  0  0  0  0  0  0  0  0  0  0
    1.9031   13.6762  -18.8943 H   0  0  0  0  0  0  0  0  0  0  0  0
    0.7036   12.5660  -18.6288 H   0  0  0  0  0  0  0  0  0  0  0  0
   -1.5337   15.9865  -15.1256 H   0  0  0  0  0  0  0  0  0  0  0  0
   -2.8035   13.2947  -15.8401 H   0  0  0  0  0  0  0  0  0  0  0  0
   -4.9650   13.8517  -16.0411 H   0  0  0  0  0  0  0  0  0  0  0  0
   -4.4412   14.4163  -14.4584 H   0  0  0  0  0  0  0  0  0  0  0  0
   -5.7268   16.3436  -15.6119 H   0  0  0  0  0  0  0  0  0  0  0  0
   -4.0502   16.6390  -15.5088 H   0  0  0  0  0  0  0  0  0  0  0  0
   -4.1831   16.3079  -18.2028 H   0  0  0  0  0  0  0  0  0  0  0  0
   -3.8796   15.3801  -17.3199 H   0  0  0  0  0  0  0  0  0  0  0  0
   -4.8683   15.2330  -19.5142 H   0  0  0  0  0  0  0  0  0  0  0  0
   -5.2851   13.9631  -18.3643 H   0  0  0  0  0  0  0  0  0  0  0  0
   -7.3125   15.2277  -18.9497 H   0  0  0  0  0  0  0  0  0  0  0  0
   -6.8515   15.8324  -17.4746 H   0  0  0  0  0  0  0  0  0  0  0  0
   -1.7458   15.6356  -19.1830 H   0  0  0  0  0  0  0  0  0  0  0  0
   -2.5166   16.7183  -16.4346 H   0  0  0  0  0  0  0  0  0  0  0  0
   -1.2312   18.5671  -16.3093 H   0  0  0  0  0  0  0  0  0  0  0  0
   -0.1660   17.2020  -16.6659 H   0  0  0  0  0  0  0  0  0  0  0  0
    0.4425   19.1278  -18.2746 H   0  0  0  0  0  0  0  0  0  0  0  0
   -0.3360   17.8276  -19.0569 H   0  0  0  0  0  0  0  0  0  0  0  0
   -2.3447   19.6407  -19.3098 H   0  0  0  0  0  0  0  0  0  0  0  0
   -2.2255   18.7407  -18.3497 H   0  0  0  0  0  0  0  0  0  0  0  0
   -3.3111   20.8902  -18.3858 H   0  0  0  0  0  0  0  0  0  0  0  0
   -2.7040   20.3279  -16.8285 H   0  0  0  0  0  0  0  0  0  0  0  0
   -1.4892   22.3662  -17.4689 H   0  0  0  0  0  0  0  0  0  0  0  0
   -0.4621   21.1294  -17.8712 H   0  0  0  0  0  0  0  0  0  0  0  0
   -4.7102   18.3563  -19.6851 H   0  0  0  0  0  0  0  0  0  0  0  0
   -1.8619   17.2826  -19.8268 H   0  0  0  0  0  0  0  0  0  0  0  0
   -1.8217   16.4168  -21.9066 H   0  0  0  0  0  0  0  0  0  0  0  0
   -3.2034   15.7062  -21.0646 H   0  0  0  0  0  0  0  0  0  0  0  0
   -4.0027   16.4837  -23.3929 H   0  0  0  0  0  0  0  0  0  0  0  0
   -4.6161   17.4382  -22.1243 H   0  0  0  0  0  0  0  0  0  0  0  0
   -2.9835   19.3171  -23.2440 H   0  0  0  0  0  0  0  0  0  0  0  0
   -2.6476   18.5081  -22.2182 H   0  0  0  0  0  0  0  0  0  0  0  0
   -1.2711   19.5747  -23.8517 H   0  0  0  0  0  0  0  0  0  0  0  0
   -0.6978   18.0495  -23.1728 H   0  0  0  0  0  0  0  0  0  0  0  0
   -1.1049   17.7614  -25.5945 H   0  0  0  0  0  0  0  0  0  0  0  0
   -2.4392   17.1004  -24.8539 H   0  0  0  0  0  0  0  0  0  0  0  0
   -2.3489   21.1978  -21.4170 H   0  0  0  0  0  0  0  0  0  0  0  0
   -4.4617   19.0217  -21.3558 H   0  0  0  0  0  0  0  0  0  0  0  0
   -6.3582   20.1672  -21.0191 H   0  0  0  0  0  0  0  0  0  0  0  0
   -5.2148   20.5893  -19.7317 H   0  0  0  0  0  0  0  0  0  0  0  0
   -6.2240   22.6946  -20.6060 H   0  0  0  0  0  0  0  0  0  0  0  0
   -4.5482   22.4972  -21.0318 H   0  0  0  0  0  0  0  0  0  0  0  0
   -5.5935   22.4631  -23.5456 H   0  0  0  0  0  0  0  0  0  0  0  0
   -5.2381   21.3828  -22.7537 H   0  0  0  0  0  0  0  0  0  0  0  0
   -6.8727   21.4909  -24.5189 H   0  0  0  0  0  0  0  0  0  0  0  0
   -7.2904   20.4179  -23.1677 H   0  0  0  0  0  0  0  0  0  0  0  0
   -8.9165   22.2727  -23.3012 H   0  0  0  0  0  0  0  0  0  0  0  0
   -7.9204   22.6056  -22.0145 H   0  0  0  0  0  0  0  0  0  0  0  0
   -3.9830   21.0337  -25.1694 H   0  0  0  0  0  0  0  0  0  0  0  0
   -3.3515   22.2852  -22.4432 H   0  0  0  0  0  0  0  0  0  0  0  0
   -1.6882   23.6830  -23.2617 H   0  0  0  0  0  0  0  0  0  0  0  0
   -1.3498   22.0020  -23.5691 H   0  0  0  0  0  0  0  0  0  0  0  0
   -0.9773   23.3029  -25.6778 H   0  0  0  0  0  0  0  0  0  0  0  0
   -2.2497   22.1095  -25.8519 H   0  0  0  0  0  0  0  0  0  0  0  0
   -2.9329   24.3498  -26.8453 H   0  0  0  0  0  0  0  0  0  0  0  0
   -3.9555   23.6001  -25.7641 H   0  0  0  0  0  0  0  0  0  0  0  0
   -3.7146   26.1074  -25.1533 H   0  0  0  0  0  0  0  0  0  0  0  0
   -2.8986   25.2802  -23.8626 H   0  0  0  0  0  0  0  0  0  0  0  0
   -1.4604   26.7890  -24.5660 H   0  0  0  0  0  0  0  0  0  0  0  0
   -0.8841   25.3142  -24.9251 H   0  0  0  0  0  0  0  0  0  0  0  0
   -6.0305   24.7691  -22.6083 H   0  0  0  0  0  0  0  0  0  0  0  0
   -4.9861   24.2292  -21.4352 H   0  0  0  0  0  0  0  0  0  0  0  0
  1  2  1  0  0  0  0
  1128  1  0  0  0  0
  1129  1  0  0  0  0
  1130  1  0  0  0  0
  2  3  2  0  0  0  0
  2  4  1  0  0  0  0
  4  5  1  0  0  0  0
  4131  1  0  0  0  0
  5  6  1  0  0  0  0
  5 13  1  0  0  0  0
  5132  1  1  0  0  0
  6  7  1  0  0  0  0
  6133  1  0  0  0  0
  6134  1  0  0  0  0
  7  8  1  0  0  0  0
  7135  1  0  0  0  0
  7136  1  0  0  0  0
  8  9  1  0  0  0  0
  8137  1  0  0  0  0
  8138  1  0  0  0  0
  9 10  1  0  0  0  0
  9139  1  0  0  0  0
 10 11  1  0  0  0  0
 10 12  2  0  0  0  0
 11140  1  0  0  0  0
 11141  1  0  0  0  0
 12142  1  0  0  0  0
 13 14  2  0  0  0  0
 13 15  1  0  0  0  0
 15 16  1  0  0  0  0
 15143  1  0  0  0  0
 16 17  1  0  0  0  0
 16 25  1  0  0  0  0
 16144  1  1  0  0  0
 17 18  1  0  0  0  0
 17145  1  0  0  0  0
 17146  1  0  0  0  0
 18 19  1  0  0  0  0
 18 23  2  0  0  0  0
 19147  1  0  0  0  0
 20 19  2  0  0  0  0
 20148  1  0  0  0  0
 21 20  1  0  0  0  0
 21 24  1  0  0  0  0
 22 21  2  0  0  0  0
 22149  1  0  0  0  0
 23 22  1  0  0  0  0
 23150  1  0  0  0  0
 24151  1  0  0  0  0
 25 26  2  0  0  0  0
 25 27  1  0  0  0  0
 27 28  1  0  0  0  0
 27152  1  0  0  0  0
 28 29  1  0  0  0  0
 28 37  1  0  0  0  0
 28153  1  1  0  0  0
 29 30  1  0  0  0  0
 29154  1  0  0  0  0
 29155  1  0  0  0  0
 30 31  1  0  0  0  0
 30 35  2  0  0  0  0
 31156  1  0  0  0  0
 32 31  2  0  0  0  0
 32157  1  0  0  0  0
 33 32  1  0  0  0  0
 33 36  1  0  0  0  0
 34 33  2  0  0  0  0
 34158  1  0  0  0  0
 35 34  1  0  0  0  0
 35159  1  0  0  0  0
 36160  1  0  0  0  0
 37 38  2  0  0  0  0
 37 39  1  0  0  0  0
 39 40  1  0  0  0  0
 39161  1  0  0  0  0
 40 41  1  0  0  0  0
 40 48  1  0  0  0  0
 40162  1  1  0  0  0
 41 42  1  0  0  0  0
 41163  1  0  0  0  0
 41164  1  0  0  0  0
 42 43  1  0  0  0  0
 42165  1  0  0  0  0
 42166  1  0  0  0  0
 43 44  1  0  0  0  0
 43167  1  0  0  0  0
 43168  1  0  0  0  0
 44 45  1  0  0  0  0
 44169  1  0  0  0  0
 45 46  1  0  0  0  0
 45 47  2  0  0  0  0
 46170  1  0  0  0  0
 46171  1  0  0  0  0
 47172  1  0  0  0  0
 48 49  2  0  0  0  0
 48 50  1  0  0  0  0
 50 51  1  0  0  0  0
 50173  1  0  0  0  0
 51 52  1  0  0  0  0
 51 62  1  0  0  0  0
 51174  1  1  0  0  0
 52 53  1  0  0  0  0
 52175  1  0  0  0  0
 52176  1  0  0  0  0
 53 54  1  0  0  0  0
 53 57  2  0  0  0  0
 54 61  1  0  0  0  0
 55 54  2  0  0  0  0
 55 58  1  0  0  0  0
 56 55  1  0  0  0  0
 56177  1  0  0  0  0
 57 56  1  0  0  0  0
 57178  1  0  0  0  0
 58179  1  0  0  0  0
 59 58  2  0  0  0  0
 59180  1  0  0  0  0
 60 59  1  0  0  0  0
 60181  1  0  0  0  0
 61 60  2  0  0  0  0
 61182  1  0  0  0  0
 62 63  2  0  0  0  0
 62 64  1  0  0  0  0
 64 65  1  0  0  0  0
 64183  1  0  0  0  0
 65 66  1  0  0  0  0
 65 71  1  0  0  0  0
 65184  1  1  0  0  0
 66 67  1  0  0  0  0
 66185  1  0  0  0  0
 66186  1  0  0  0  0
 67 68  1  0  0  0  0
 67187  1  0  0  0  0
 67188  1  0  0  0  0
 68 69  1  0  0  0  0
 68189  1  0  0  0  0
 68190  1  0  0  0  0
 69 70  1  0  0  0  0
 69191  1  0  0  0  0
 69192  1  0  0  0  0
 70193  1  0  0  0  0
 70194  1  0  0  0  0
 71 72  2  0  0  0  0
 71 73  1  0  0  0  0
 73 74  1  0  0  0  0
 73195  1  0  0  0  0
 74 75  1  0  0  0  0
 74 80  1  0  0  0  0
 74196  1  1  0  0  0
 75 76  1  0  0  0  0
 75197  1  0  0  0  0
 75198  1  0  0  0  0
 76 77  1  0  0  0  0
 76199  1  0  0  0  0
 76200  1  0  0  0  0
 77 78  1  0  0  0  0
 77201  1  0  0  0  0
 77202  1  0  0  0  0
 78 79  1  0  0  0  0
 78203  1  0  0  0  0
 78204  1  0  0  0  0
 79205  1  0  0  0  0
 79206  1  0  0  0  0
 80 81  2  0  0  0  0
 80 82  1  0  0  0  0
 82 83  1  0  0  0  0
 82207  1  0  0  0  0
 83 84  1  0  0  0  0
 83 89  1  0  0  0  0
 83208  1  1  0  0  0
 84 85  1  0  0  0  0
 84209  1  0  0  0  0
 84210  1  0  0  0  0
 85 86  1  0  0  0  0
 85211  1  0  0  0  0
 85212  1  0  0  0  0
 86 87  1  0  0  0  0
 86213  1  0  0  0  0
 86214  1  0  0  0  0
 87 88  1  0  0  0  0
 87215  1  0  0  0  0
 87216  1  0  0  0  0
 88217  1  0  0  0  0
 88218  1  0  0  0  0
 89 90  2  0  0  0  0
 89 91  1  0  0  0  0
 91 92  1  0  0  0  0
 91219  1  0  0  0  0
 92 93  1  0  0  0  0
 92 98  1  0  0  0  0
 92220  1  1  0  0  0
 93 94  1  0  0  0  0
 93221  1  0  0  0  0
 93222  1  0  0  0  0
 94 95  1  0  0  0  0
 94223  1  0  0  0  0
 94224  1  0  0  0  0
 95 96  1  0  0  0  0
 95225  1  0  0  0  0
 95226  1  0  0  0  0
 96 97  1  0  0  0  0
 96227  1  0  0  0  0
 96228  1  0  0  0  0
 97229  1  0  0  0  0
 97230  1  0  0  0  0
 98 99  2  0  0  0  0
 98100  1  0  0  0  0
100101  1  0  0  0  0
100231  1  0  0  0  0
101102  1  0  0  0  0
101107  1  0  0  0  0
101232  1  1  0  0  0
102103  1  0  0  0  0
102233  1  0  0  0  0
102234  1  0  0  0  0
103104  1  0  0  0  0
103235  1  0  0  0  0
103236  1  0  0  0  0
104105  1  0  0  0  0
104237  1  0  0  0  0
104238  1  0  0  0  0
105106  1  0  0  0  0
105239  1  0  0  0  0
105240  1  0  0  0  0
106241  1  0  0  0  0
106242  1  0  0  0  0
107108  2  0  0  0  0
107109  1  0  0  0  0
109110  1  0  0  0  0
109243  1  0  0  0  0
110111  1  0  0  0  0
110116  1  0  0  0  0
110244  1  1  0  0  0
111112  1  0  0  0  0
111245  1  0  0  0  0
111246  1  0  0  0  0
112113  1  0  0  0  0
112247  1  0  0  0  0
112248  1  0  0  0  0
113114  1  0  0  0  0
113249  1  0  0  0  0
113250  1  0  0  0  0
114115  1  0  0  0  0
114251  1  0  0  0  0
114252  1  0  0  0  0
115253  1  0  0  0  0
115254  1  0  0  0  0
116117  2  0  0  0  0
116118  1  0  0  0  0
118119  1  0  0  0  0
118255  1  0  0  0  0
119120  1  0  0  0  0
119125  1  0  0  0  0
119256  1  1  0  0  0
120121  1  0  0  0  0
120257  1  0  0  0  0
120258  1  0  0  0  0
121122  1  0  0  0  0
121259  1  0  0  0  0
121260  1  0  0  0  0
122123  1  0  0  0  0
122261  1  0  0  0  0
122262  1  0  0  0  0
123124  1  0  0  0  0
123263  1  0  0  0  0
123264  1  0  0  0  0
124265  1  0  0  0  0
124266  1  0  0  0  0
125126  1  0  0  0  0
125127  2  0  0  0  0
126267  1  0  0  0  0
126268  1  0  0  0  0
M  END
>  <DRUGBANK_ID>
DB16013

>  <COMMON_NAME>
SER-100

>  <CAS_NUMBER>
383123-18-0

>  <UNII>
VJ98TJ922K

>  <SYNONYMS>
AC-RYYRWKKKKKKK-NH2; Acetyl-Arg-Tyr-Tyr-Arg-Trp-Lys-Lys-Lys-Lys-Lys-Lys-Lys-NH2

$$$$
