
 OpenBabel10282417183D

 46 48  0  0  0  0  0  0  0  0999 V2000
    1.5620    0.1541    0.0605 C   0  0  0  0  0  0  0  0  0  0  0  0
    0.7317    1.2660    0.0323 C   0  0  0  0  0  0  0  0  0  0  0  0
   -4.2236   -3.9301    0.8425 C   0  0  0  0  0  0  0  0  0  0  0  0
   -4.5092   -2.7262    0.0043 C   0  0  0  0  0  0  0  0  0  0  0  0
    1.0104   -1.1008    0.1333 C   0  0  0  0  0  0  0  0  0  0  0  0
   -5.6541   -0.2412   -1.2433 C   0  0  0  0  0  0  0  0  0  0  0  0
   -7.5191   -1.8586   -1.3281 C   0  0  0  0  0  0  0  0  0  0  0  0
   -6.5711    0.7935   -1.2570 C   0  0  0  0  0  0  0  0  0  0  0  0
   -8.4106   -0.8273   -1.3435 C   0  0  0  0  0  0  0  0  0  0  0  0
   -0.6382    1.0693    0.0478 C   0  0  0  0  0  0  0  0  0  0  0  0
   -3.6407   -5.0869    0.0048 C   0  0  0  0  0  0  0  0  0  0  0  0
   -1.1696   -4.9117    0.2723 C   0  0  0  0  0  0  0  0  0  0  0  0
   -2.1481   -3.8969   -1.6670 C   0  0  0  0  0  0  0  0  0  0  0  0
   -0.9135   -3.5207    0.9193 C   0  0  0  0  0  0  0  0  0  0  0  0
   -1.8259   -2.4829   -1.0861 C   0  0  0  0  0  0  0  0  0  0  0  0
   -6.1790   -1.5425   -1.2899 C   0  0  0  0  0  0  0  0  0  0  0  0
   -7.9349    0.4839   -1.3142 C   0  0  0  0  0  0  0  0  0  0  0  0
   -5.4195   -2.7354   -1.1338 C   0  0  0  0  0  0  0  0  0  0  0  0
   -0.3543   -1.2345    0.1400 C   0  0  0  0  0  0  0  0  0  0  0  0
   -8.8264    1.4771   -1.3360 F   0  0  0  0  0  0  0  0  0  0  0  0
   -1.2007   -0.1611    0.0915 N   0  0  0  0  0  0  0  0  0  0  0  0
   -2.3172   -4.9732   -0.6552 N   0  0  0  0  0  0  0  0  0  0  0  0
   -0.7159   -2.5553   -0.1867 N   0  0  0  0  0  0  0  0  0  0  0  0
   -5.4688   -3.6146   -2.0084 O   0  0  0  0  0  0  0  0  0  0  0  0
    2.6364    0.2269   -0.0154 H   0  0  0  0  0  0  0  0  0  0  0  0
    1.1570    2.2594   -0.0155 H   0  0  0  0  0  0  0  0  0  0  0  0
   -5.1395   -4.2055    1.3657 H   0  0  0  0  0  0  0  0  0  0  0  0
   -3.5318   -3.6775    1.6467 H   0  0  0  0  0  0  0  0  0  0  0  0
   -4.3511   -1.7686    0.5208 H   0  0  0  0  0  0  0  0  0  0  0  0
   -3.7914   -2.7673   -0.7559 H   0  0  0  0  0  0  0  0  0  0  0  0
    1.5915   -2.0100    0.0424 H   0  0  0  0  0  0  0  0  0  0  0  0
   -4.5838   -0.0345   -1.1780 H   0  0  0  0  0  0  0  0  0  0  0  0
   -7.8134   -2.9069   -1.3128 H   0  0  0  0  0  0  0  0  0  0  0  0
   -6.2484    1.8291   -1.2143 H   0  0  0  0  0  0  0  0  0  0  0  0
   -9.4637   -1.0593   -1.3705 H   0  0  0  0  0  0  0  0  0  0  0  0
   -1.3191    1.9188   -0.0023 H   0  0  0  0  0  0  0  0  0  0  0  0
   -4.3833   -5.3500   -0.7568 H   0  0  0  0  0  0  0  0  0  0  0  0
   -3.6144   -5.9645    0.6603 H   0  0  0  0  0  0  0  0  0  0  0  0
   -1.2411   -5.7156    1.0105 H   0  0  0  0  0  0  0  0  0  0  0  0
   -0.2736   -5.1378   -0.3251 H   0  0  0  0  0  0  0  0  0  0  0  0
   -1.2954   -4.1619   -2.3094 H   0  0  0  0  0  0  0  0  0  0  0  0
   -2.9961   -3.8860   -2.3624 H   0  0  0  0  0  0  0  0  0  0  0  0
   -1.7303   -3.2428    1.5893 H   0  0  0  0  0  0  0  0  0  0  0  0
   -0.0360   -3.5752    1.5683 H   0  0  0  0  0  0  0  0  0  0  0  0
   -2.4953   -2.0296   -0.3729 H   0  0  0  0  0  0  0  0  0  0  0  0
   -1.8302   -1.7352   -1.8906 H   0  0  0  0  0  0  0  0  0  0  0  0
  1 25  1  0  0  0  0
  2  1  2  0  0  0  0
  2 26  1  0  0  0  0
  3 27  1  0  0  0  0
  3 28  1  0  0  0  0
  4  3  1  0  0  0  0
  4 29  1  0  0  0  0
  4 30  1  0  0  0  0
  5  1  1  0  0  0  0
  5 31  1  0  0  0  0
  6 32  1  0  0  0  0
  7 33  1  0  0  0  0
  8  6  1  0  0  0  0
  8 34  1  0  0  0  0
  9  7  2  0  0  0  0
  9 35  1  0  0  0  0
 10  2  1  0  0  0  0
 10 36  1  0  0  0  0
 11  3  1  0  0  0  0
 11 37  1  0  0  0  0
 11 38  1  0  0  0  0
 12 39  1  0  0  0  0
 12 40  1  0  0  0  0
 13 41  1  0  0  0  0
 13 42  1  0  0  0  0
 14 12  1  0  0  0  0
 14 43  1  0  0  0  0
 14 44  1  0  0  0  0
 15 13  1  0  0  0  0
 15 45  1  0  0  0  0
 15 46  1  0  0  0  0
 16  6  2  0  0  0  0
 16  7  1  0  0  0  0
 17  8  2  0  0  0  0
 17  9  1  0  0  0  0
 18  4  1  0  0  0  0
 18 16  1  0  0  0  0
 19  5  2  0  0  0  0
 20 17  1  0  0  0  0
 21 10  2  0  0  0  0
 21 19  1  0  0  0  0
 22 11  1  0  0  0  0
 22 12  1  0  0  0  0
 22 13  1  0  0  0  0
 23 14  1  0  0  0  0
 23 15  1  0  0  0  0
 23 19  1  0  0  0  0
 24 18  2  0  0  0  0
M  END
>  <DRUGBANK_ID>
DB11376

>  <COMMON_NAME>
Azaperone

>  <CAS_NUMBER>
1649-18-9

>  <UNII>
19BV78AK7W

>  <SYNONYMS>
1-(3-(4-Fluorobenzoyl)propyl)-4-(2-pyridyl)piperazine; 1-(4-Fluorophenyl)-4-[4-(2-pyridinyl)-1-piperazinyl]-1-butanone; 4'-Fluoro-4-(4-(2-pyridyl)-1-piperazinyl)butyrophenone; Azaperon; Azaperona; Azaperone; Azaperonum

$$$$
