MO8
 OpenBabel10282417173D

 23 24  0  0  0  0  0  0  0  0999 V2000
    0.8675    0.1017   -0.1167 N   0  0  0  0  0  0  0  0  0  0  0  0
    0.1764    1.1190    0.5075 C   0  0  0  0  0  0  0  0  0  0  0  0
    0.6030    2.3660    0.3135 N   0  0  0  0  0  0  0  0  0  0  0  0
   -0.1772    3.3725    0.7844 C   0  0  0  0  0  0  0  0  0  0  0  0
    0.2813    4.7652    0.4396 C   0  0  0  0  0  0  0  0  0  0  0  0
   -1.3412    3.1413    1.5102 C   0  0  0  0  0  0  0  0  0  0  0  0
   -0.9039    0.7926    1.2178 N   0  0  0  0  0  0  0  0  0  0  0  0
   -1.6326    1.8067    1.7578 C   0  0  0  0  0  0  0  0  0  0  0  0
   -2.8158    1.3763    2.5967 C   0  0  0  0  0  0  0  0  0  0  0  0
   -3.3854    2.4467    3.5216 C   0  0  0  0  0  0  0  0  0  0  0  0
   -3.8268    3.9053    2.5612 S   0  0  0  0  0  0  0  0  0  0  0  0
   -2.1508    4.2922    2.0362 C   0  0  0  0  0  0  0  0  0  0  0  0
    0.4564   -0.8122   -0.0545 H   0  0  0  0  0  0  0  0  0  0  0  0
    1.8649    0.2194   -0.1710 H   0  0  0  0  0  0  0  0  0  0  0  0
    1.2999    4.9294    0.7986 H   0  0  0  0  0  0  0  0  0  0  0  0
    0.2384    4.9155   -0.6434 H   0  0  0  0  0  0  0  0  0  0  0  0
   -0.3301    5.5490    0.8934 H   0  0  0  0  0  0  0  0  0  0  0  0
   -2.5152    0.5242    3.2191 H   0  0  0  0  0  0  0  0  0  0  0  0
   -3.6002    1.0157    1.9198 H   0  0  0  0  0  0  0  0  0  0  0  0
   -2.6608    2.7413    4.2893 H   0  0  0  0  0  0  0  0  0  0  0  0
   -4.2834    2.0875    4.0310 H   0  0  0  0  0  0  0  0  0  0  0  0
   -2.2744    5.0536    1.2627 H   0  0  0  0  0  0  0  0  0  0  0  0
   -1.6163    4.7363    2.8839 H   0  0  0  0  0  0  0  0  0  0  0  0
  1  2  1  0  0  0  0
  1 13  1  0  0  0  0
  1 14  1  0  0  0  0
  2  3  1  0  0  0  0
  3  4  2  0  0  0  0
  4  5  1  0  0  0  0
  5 15  1  0  0  0  0
  5 16  1  0  0  0  0
  5 17  1  0  0  0  0
  6  4  1  0  0  0  0
  6 12  1  0  0  0  0
  7  2  2  0  0  0  0
  7  8  1  0  0  0  0
  8  6  2  0  0  0  0
  9  8  1  0  0  0  0
  9 18  1  0  0  0  0
  9 19  1  0  0  0  0
 10  9  1  0  0  0  0
 10 11  1  0  0  0  0
 10 20  1  0  0  0  0
 10 21  1  0  0  0  0
 11 12  1  0  0  0  0
 12 22  1  0  0  0  0
 12 23  1  0  0  0  0
M  END
>  <DRUGBANK_ID>
DB08194

>  <COMMON_NAME>
4-methyl-7,8-dihydro-5H-thiopyrano[4,3-d]pyrimidin-2-amine

>  <UNII>
AN8UFC8Y2Y

$$$$
