
 OpenBabel10282417163D

 48 49  0  0  0  0  0  0  0  0999 V2000
   10.2933   -6.5832   -5.3615 C   0  0  0  0  0  0  0  0  0  0  0  0
   10.0591   -6.1656   -6.7178 C   0  0  0  0  0  0  0  0  0  0  0  0
    9.8696   -7.1355   -7.6879 C   0  0  0  0  0  0  0  0  0  0  0  0
    9.7277   -8.4505   -7.2530 C   0  0  0  0  0  0  0  0  0  0  0  0
    9.5463   -8.7234   -5.8953 C   0  0  0  0  0  0  0  0  0  0  0  0
    9.6005   -7.7086   -4.9747 C   0  0  0  0  0  0  0  0  0  0  0  0
    9.7446   -9.5546   -8.0484 O   0  0  0  0  0  0  0  0  0  0  0  0
    9.8292   -9.2772   -9.4346 C   0  0  0  0  0  0  0  0  0  0  0  0
   10.9451   -5.7058   -4.3409 C   0  0  0  0  0  0  0  0  0  0  0  0
   10.1723   -4.7367   -4.1015 C   0  0  0  0  0  0  0  0  0  0  0  0
   10.6508   -3.2461   -3.8401 C   0  0  0  0  0  0  0  0  0  0  0  0
   10.7136   -2.8917   -2.5440 C   0  0  0  0  0  0  0  0  0  0  0  0
   11.1102   -4.1307   -2.0508 C   0  0  0  0  0  0  0  0  0  0  0  0
   11.3470   -5.4972   -3.0432 C   0  0  0  0  0  0  0  0  0  0  0  0
   10.3234   -0.9719   -1.9897 S   0  0  0  0  0  0  0  0  0  0  0  0
    9.9214   -0.5695   -0.6713 O   0  0  0  0  0  0  0  0  0  0  0  0
   11.4094   -0.1849   -2.5038 O   0  0  0  0  0  0  0  0  0  0  0  0
    8.7022   -0.4879   -2.4983 N   0  0  0  0  0  0  0  0  0  0  0  0
    7.6345   -1.5500   -2.0461 C   0  0  2  0  0  0  0  0  0  0  0  0
    7.8961   -2.2989   -0.4508 C   0  0  0  0  0  0  0  0  0  0  0  0
    7.5712   -3.8060   -0.4930 C   0  0  0  0  0  0  0  0  0  0  0  0
    9.2099   -2.3687    0.4780 C   0  0  0  0  0  0  0  0  0  0  0  0
    8.1977   -2.6596   -3.3879 P   0  0  0  0  0  0  0  0  0  0  0  0
    7.3230   -3.8180   -2.9317 O   0  0  0  0  0  0  0  0  0  0  0  0
    7.1571   -1.9359   -4.4552 O   0  0  0  0  0  0  0  0  0  0  0  0
    8.7302   -3.7086   -4.6564 O   0  0  0  0  0  0  0  0  0  0  0  0
   10.0841   -5.1210   -7.0525 H   0  0  0  0  0  0  0  0  0  0  0  0
    9.9726   -6.8566   -8.7354 H   0  0  0  0  0  0  0  0  0  0  0  0
    9.4871   -9.7348   -5.5133 H   0  0  0  0  0  0  0  0  0  0  0  0
    9.2692   -7.8323   -3.9493 H   0  0  0  0  0  0  0  0  0  0  0  0
    8.9920   -8.6497   -9.7622 H   0  0  0  0  0  0  0  0  0  0  0  0
   10.7903   -8.8109   -9.6779 H   0  0  0  0  0  0  0  0  0  0  0  0
    9.7636  -10.2312   -9.9555 H   0  0  0  0  0  0  0  0  0  0  0  0
    9.0918   -5.2533   -4.3077 H   0  0  0  0  0  0  0  0  0  0  0  0
   10.3498   -2.4578   -4.5498 H   0  0  0  0  0  0  0  0  0  0  0  0
   11.2374   -4.3135   -1.0023 H   0  0  0  0  0  0  0  0  0  0  0  0
   12.0760   -6.2043   -2.7128 H   0  0  0  0  0  0  0  0  0  0  0  0
    8.4891    0.3104   -1.8772 H   0  0  0  0  0  0  0  0  0  0  0  0
    6.5929   -1.2293   -2.1081 H   0  0  0  0  0  0  0  0  0  0  0  0
    7.1311   -1.8136    0.1669 H   0  0  0  0  0  0  0  0  0  0  0  0
    8.3769   -4.3294   -1.0295 H   0  0  0  0  0  0  0  0  0  0  0  0
    7.5534   -4.2772    0.4914 H   0  0  0  0  0  0  0  0  0  0  0  0
    6.5949   -4.0013   -0.9384 H   0  0  0  0  0  0  0  0  0  0  0  0
    9.5770   -1.4459    0.9480 H   0  0  0  0  0  0  0  0  0  0  0  0
    9.0825   -2.9473    1.3938 H   0  0  0  0  0  0  0  0  0  0  0  0
   10.0509   -2.8243   -0.0514 H   0  0  0  0  0  0  0  0  0  0  0  0
    6.2843   -1.7250   -4.0482 H   0  0  0  0  0  0  0  0  0  0  0  0
    8.7223   -3.2472   -5.5185 H   0  0  0  0  0  0  0  0  0  0  0  0
  1  2  1  0  0  0  0
  1  6  2  0  0  0  0
  1  9  1  0  0  0  0
  2  3  2  0  0  0  0
  2 27  1  0  0  0  0
  3  4  1  0  0  0  0
  3 28  1  0  0  0  0
  4  7  1  0  0  0  0
  5  4  2  0  0  0  0
  5  6  1  0  0  0  0
  5 29  1  0  0  0  0
  6 30  1  0  0  0  0
  8  7  1  0  0  0  0
  8 31  1  0  0  0  0
  8 32  1  0  0  0  0
  8 33  1  0  0  0  0
  9 10  1  0  0  0  0
  9 14  2  0  0  0  0
 10 11  2  0  0  0  0
 10 34  1  0  0  0  0
 11 12  1  0  0  0  0
 11 35  1  0  0  0  0
 12 13  2  0  0  0  0
 12 15  1  0  0  0  0
 13 14  1  0  0  0  0
 13 36  1  0  0  0  0
 14 37  1  0  0  0  0
 16 15  2  0  0  0  0
 17 15  2  0  0  0  0
 18 15  1  0  0  0  0
 18 38  1  0  0  0  0
 19 23  1  0  0  0  0
 19 39  1  6  0  0  0
 19 20  1  0  0  0  0
 19 18  1  0  0  0  0
 20 21  1  0  0  0  0
 20 22  1  0  0  0  0
 20 40  1  0  0  0  0
 21 41  1  0  0  0  0
 21 42  1  0  0  0  0
 21 43  1  0  0  0  0
 22 44  1  0  0  0  0
 22 45  1  0  0  0  0
 22 46  1  0  0  0  0
 24 23  2  0  0  0  0
 25 23  1  0  0  0  0
 25 47  1  0  0  0  0
 26 23  1  0  0  0  0
 26 48  1  0  0  0  0
M  END
>  <DRUGBANK_ID>
DB07713

>  <COMMON_NAME>
(1S)-1-{[(4'-methoxy-1,1'-biphenyl-4-yl)sulfonyl]amino}-2-methylpropylphosphonic acid

$$$$
