
 OpenBabel10282417113D

 79 81  0  0  1  0  0  0  0  0999 V2000
   -0.5720    1.4474   -4.3752 C   0  0  1  0  0  0  0  0  0  0  0  0
   -0.8481    2.1949   -3.1141 C   0  0  1  0  0  0  0  0  0  0  0  0
    1.9419    0.9830   -4.2362 O   0  0  0  0  0  0  0  0  0  0  0  0
    0.6390    0.4400   -4.2930 C   0  0  1  0  0  0  0  0  0  0  0  0
    0.5009    2.6578   -2.6220 C   0  0  2  0  0  0  0  0  0  0  0  0
    2.1706    1.6891   -3.0291 C   0  0  2  0  0  0  0  0  0  0  0  0
   -0.1334   -1.7858   -0.0219 C   0  0  2  0  0  0  0  0  0  0  0  0
   -0.8053   -2.7723    0.8656 C   0  0  0  0  0  0  0  0  0  0  0  0
   -1.1205   -0.7899   -0.2183 O   0  0  0  0  0  0  0  0  0  0  0  0
   -0.7484   -0.0309   -1.3346 C   0  0  2  0  0  0  0  0  0  0  0  0
    0.4202   -0.6938   -2.0644 C   0  0  2  0  0  0  0  0  0  0  0  0
   -0.5174    1.3529   -0.8882 O   0  0  0  0  0  0  0  0  0  0  0  0
    1.9236    1.0476    1.8425 C   0  0  1  0  0  0  0  0  0  0  0  0
    1.8565   -0.1019    2.6920 O   0  0  0  0  0  0  0  0  0  0  0  0
    0.5615    1.9718   -0.0943 C   0  0  2  0  0  0  0  0  0  0  0  0
    3.3728    2.2053    0.1381 C   0  0  1  0  0  0  0  0  0  0  0  0
    4.6130    1.7568   -0.4537 O   0  0  0  0  0  0  0  0  0  0  0  0
    2.1234    2.4719   -0.8162 C   0  0  2  0  0  0  0  0  0  0  0  0
    3.1718    0.9753    1.0183 C   0  0  1  0  0  0  0  0  0  0  0  0
    0.7493    0.9732    0.9653 C   0  0  2  0  0  0  0  0  0  0  0  0
   -0.4334    0.8211    1.7346 O   0  0  0  0  0  0  0  0  0  0  0  0
    2.2768    3.8067   -2.1939 N   0  0  0  0  0  0  0  0  0  0  0  0
    1.6574    4.6791   -4.6080 N   0  0  0  0  0  0  0  0  0  0  0  0
    2.3633    3.7848   -3.9006 C   0  0  0  0  0  0  0  0  0  0  0  0
    2.8932    3.0633   -4.8674 N   0  0  0  0  0  0  0  0  0  0  0  0
    0.4378   -0.7384   -3.4936 O   0  0  0  0  0  0  0  0  0  0  0  0
    0.1714    3.8179   -1.5007 O   0  0  0  0  0  0  0  0  0  0  0  0
   -1.7796    3.3097   -3.1834 O   0  0  0  0  0  0  0  0  0  0  0  0
    3.9614    2.3917   -2.8062 C   0  0  0  0  0  0  0  0  0  0  0  0
    4.3826    3.4588   -1.7771 O   0  0  0  0  0  0  0  0  0  0  0  0
   -1.7193    0.0546   -5.8952 C   0  0  0  0  0  0  0  0  0  0  0  0
   -1.7919    0.6768   -4.6040 N   0  0  0  0  0  0  0  0  0  0  0  0
    4.2824    0.9093    1.9510 N   0  0  0  0  0  0  0  0  0  0  0  0
    6.3558    0.3485    2.4731 N   0  0  0  0  0  0  0  0  0  0  0  0
    5.2711    0.0197    1.7636 C   0  0  0  0  0  0  0  0  0  0  0  0
    5.1656   -1.0230    1.0158 N   0  0  0  0  0  0  0  0  0  0  0  0
    1.9170   -2.4876   -1.2362 C   0  0  0  0  0  0  0  0  0  0  0  0
    2.3222   -3.6673   -1.5156 O   0  0  0  0  0  0  0  0  0  0  0  0
    0.4606   -2.0776   -1.4011 C   0  0  1  0  0  0  0  0  0  0  0  0
   -0.3590   -2.9837   -2.1008 O   0  0  0  0  0  0  0  0  0  0  0  0
   -0.3979    2.2281   -5.1309 H   0  0  0  0  0  0  0  0  0  0  0  0
   -1.4692    1.5745   -2.5217 H   0  0  0  0  0  0  0  0  0  0  0  0
    0.7241    0.0729   -5.3144 H   0  0  0  0  0  0  0  0  0  0  0  0
    0.4753    3.4296   -3.3576 H   0  0  0  0  0  0  0  0  0  0  0  0
    2.4538    0.7688   -2.5093 H   0  0  0  0  0  0  0  0  0  0  0  0
    0.6626   -1.4470    0.6291 H   0  0  0  0  0  0  0  0  0  0  0  0
   -0.3257   -2.7022    1.8523 H   0  0  0  0  0  0  0  0  0  0  0  0
   -1.8527   -2.4951    1.0280 H   0  0  0  0  0  0  0  0  0  0  0  0
   -0.6969   -3.7723    0.4754 H   0  0  0  0  0  0  0  0  0  0  0  0
   -1.6352   -0.1146   -1.9873 H   0  0  0  0  0  0  0  0  0  0  0  0
    1.3072   -0.2036   -1.7430 H   0  0  0  0  0  0  0  0  0  0  0  0
    1.8728    1.9709    2.4124 H   0  0  0  0  0  0  0  0  0  0  0  0
    2.0565   -0.8872    2.1469 H   0  0  0  0  0  0  0  0  0  0  0  0
    0.0855    2.8220    0.4010 H   0  0  0  0  0  0  0  0  0  0  0  0
    3.5571    3.0986    0.7201 H   0  0  0  0  0  0  0  0  0  0  0  0
    5.0527    2.5253   -0.8795 H   0  0  0  0  0  0  0  0  0  0  0  0
    2.1871    1.4789   -1.1719 H   0  0  0  0  0  0  0  0  0  0  0  0
    3.1631    0.0710    0.3723 H   0  0  0  0  0  0  0  0  0  0  0  0
    0.9671    0.1350    0.3447 H   0  0  0  0  0  0  0  0  0  0  0  0
   -0.9564    1.6403    1.6882 H   0  0  0  0  0  0  0  0  0  0  0  0
    1.6125    4.5700   -2.0329 H   0  0  0  0  0  0  0  0  0  0  0  0
    1.9260    4.4364   -5.5846 H   0  0  0  0  0  0  0  0  0  0  0  0
    2.0243    5.5941   -4.4530 H   0  0  0  0  0  0  0  0  0  0  0  0
    2.3197    2.2663   -5.2349 H   0  0  0  0  0  0  0  0  0  0  0  0
    0.8391    3.9886   -0.7954 H   0  0  0  0  0  0  0  0  0  0  0  0
   -1.4336    3.9967   -2.5693 H   0  0  0  0  0  0  0  0  0  0  0  0
    4.6568    1.5602   -2.7221 H   0  0  0  0  0  0  0  0  0  0  0  0
    4.3816    2.9589   -3.6305 H   0  0  0  0  0  0  0  0  0  0  0  0
    3.5771    4.0083   -1.6198 H   0  0  0  0  0  0  0  0  0  0  0  0
   -2.6084   -0.5411   -6.0552 H   0  0  0  0  0  0  0  0  0  0  0  0
   -1.5904    0.8242   -6.6577 H   0  0  0  0  0  0  0  0  0  0  0  0
   -0.8853   -0.6499   -5.9597 H   0  0  0  0  0  0  0  0  0  0  0  0
   -2.6204    1.2516   -4.4458 H   0  0  0  0  0  0  0  0  0  0  0  0
    4.5954    1.8339    2.2059 H   0  0  0  0  0  0  0  0  0  0  0  0
    7.0499   -0.3586    2.6578 H   0  0  0  0  0  0  0  0  0  0  0  0
    6.2857    1.0883    3.1584 H   0  0  0  0  0  0  0  0  0  0  0  0
    6.0506   -1.5267    1.0209 H   0  0  0  0  0  0  0  0  0  0  0  0
    2.6270   -1.7731   -0.8086 H   0  0  0  0  0  0  0  0  0  0  0  0
   -0.2508   -3.8329   -1.6420 H   0  0  0  0  0  0  0  0  0  0  0  0
  1  4  1  0  0  0  0
  1 41  1  6  0  0  0
  1 32  1  0  0  0  0
  2  1  1  0  0  0  0
  2 28  1  0  0  0  0
  2 42  1  1  0  0  0
  3  4  1  0  0  0  0
  3  6  1  0  0  0  0
  4 43  1  6  0  0  0
  4 26  1  0  0  0  0
  5  2  1  0  0  0  0
  5 27  1  0  0  0  0
  5 44  1  6  0  0  0
  6  5  1  0  0  0  0
  6 29  1  0  0  0  0
  6 45  1  1  0  0  0
  7 39  1  0  0  0  0
  7 46  1  1  0  0  0
  7  8  1  0  0  0  0
  8 47  1  0  0  0  0
  8 48  1  0  0  0  0
  8 49  1  0  0  0  0
  9  7  1  0  0  0  0
  9 10  1  0  0  0  0
 10 50  1  6  0  0  0
 10 12  1  0  0  0  0
 11 10  1  0  0  0  0
 11 51  1  1  0  0  0
 11 26  1  0  0  0  0
 13 14  1  0  0  0  0
 13 52  1  1  0  0  0
 14 53  1  0  0  0  0
 15 12  1  0  0  0  0
 15 20  1  0  0  0  0
 15 54  1  1  0  0  0
 16 18  1  0  0  0  0
 16 55  1  1  0  0  0
 16 17  1  0  0  0  0
 17 56  1  0  0  0  0
 18 15  1  0  0  0  0
 18 22  1  0  0  0  0
 18 57  1  6  0  0  0
 19 13  1  0  0  0  0
 19 16  1  0  0  0  0
 19 33  1  0  0  0  0
 19 58  1  6  0  0  0
 20 13  1  0  0  0  0
 20 59  1  6  0  0  0
 20 21  1  0  0  0  0
 21 60  1  0  0  0  0
 22 24  1  0  0  0  0
 22 61  1  0  0  0  0
 23 62  1  0  0  0  0
 23 63  1  0  0  0  0
 24 23  1  0  0  0  0
 24 25  2  0  0  0  0
 25 64  1  0  0  0  0
 27 65  1  0  0  0  0
 28 66  1  0  0  0  0
 29 30  1  0  0  0  0
 29 67  1  0  0  0  0
 29 68  1  0  0  0  0
 30 69  1  0  0  0  0
 31 70  1  0  0  0  0
 31 71  1  0  0  0  0
 31 72  1  0  0  0  0
 32 31  1  0  0  0  0
 32 73  1  0  0  0  0
 33 74  1  0  0  0  0
 34 35  1  0  0  0  0
 34 75  1  0  0  0  0
 34 76  1  0  0  0  0
 35 33  1  0  0  0  0
 35 36  2  0  0  0  0
 36 77  1  0  0  0  0
 37 38  2  0  0  0  0
 37 78  1  0  0  0  0
 39 11  1  0  0  0  0
 39 37  1  1  0  0  0
 39 40  1  0  0  0  0
 40 79  1  0  0  0  0
M  END
>  <DRUGBANK_ID>
DB01082

>  <SECONDARY_ACCESSION_NUMBERS>
APRD00412

>  <COMMON_NAME>
Streptomycin

>  <CAS_NUMBER>
57-92-1

>  <UNII>
Y45QSO73OB

>  <SYNONYMS>
2,4-diguanidino-3,5,6-trihydroxycyclohexyl 5-deoxy-2-O-(2-deoxy-2-methylamino-alpha-L-glucopyranosyl)-3-C-formyl-beta-L-lyxopentanofuranoside; Estreptomicina; Streptomicina; Streptomycin; Streptomyzin

$$$$
