HPO
 OpenBabel10282417163D

 27 26  0  0  0  0  0  0  0  0999 V2000
    1.0954   -0.0805   -0.0094 C   0  0  0  0  0  0  0  0  0  0  0  0
    0.6490   -0.5856    1.3516 C   0  0  0  0  0  0  0  0  0  0  0  0
    1.1636    0.3335    2.4609 C   0  0  0  0  0  0  0  0  0  0  0  0
    0.5830    1.7521    2.3749 C   0  0  0  0  0  0  0  0  0  0  0  0
   -0.9400    1.7707    2.4021 C   0  0  0  0  0  0  0  0  0  0  0  0
   -1.4230    1.2324    3.7306 C   0  0  0  0  0  0  0  0  0  0  0  0
   -2.3269    2.0818    4.5347 C   0  0  0  0  0  0  0  0  0  0  0  0
   -1.1116    0.1200    4.1828 O   0  0  0  0  0  0  0  0  0  0  0  0
   -3.9433    1.2628    4.7905 P   0  0  0  0  0  0  0  0  0  0  0  0
   -3.8514    0.5220    3.4627 O   0  0  0  0  0  0  0  0  0  0  0  0
   -3.3703    0.4396    6.0760 O   0  0  0  0  0  0  0  0  0  0  0  0
   -5.4713    0.4886    5.0323 O   0  0  0  0  0  0  0  0  0  0  0  0
    0.7039    0.9198   -0.2193 H   0  0  0  0  0  0  0  0  0  0  0  0
    0.7403   -0.7404   -0.8029 H   0  0  0  0  0  0  0  0  0  0  0  0
    2.1877   -0.0320   -0.0484 H   0  0  0  0  0  0  0  0  0  0  0  0
   -0.4438   -0.6716    1.3750 H   0  0  0  0  0  0  0  0  0  0  0  0
    1.0270   -1.5999    1.5158 H   0  0  0  0  0  0  0  0  0  0  0  0
    0.9431   -0.1174    3.4325 H   0  0  0  0  0  0  0  0  0  0  0  0
    2.2561    0.3867    2.4310 H   0  0  0  0  0  0  0  0  0  0  0  0
    0.9689    2.3537    3.2064 H   0  0  0  0  0  0  0  0  0  0  0  0
    0.9332    2.2450    1.4614 H   0  0  0  0  0  0  0  0  0  0  0  0
   -1.2895    2.8009    2.2614 H   0  0  0  0  0  0  0  0  0  0  0  0
   -1.3968    1.1994    1.5872 H   0  0  0  0  0  0  0  0  0  0  0  0
   -1.8361    2.3361    5.4800 H   0  0  0  0  0  0  0  0  0  0  0  0
   -2.5226    3.0266    4.0189 H   0  0  0  0  0  0  0  0  0  0  0  0
   -2.4081    0.2725    6.1189 H   0  0  0  0  0  0  0  0  0  0  0  0
   -5.9217    0.4569    4.1672 H   0  0  0  0  0  0  0  0  0  0  0  0
  1  2  1  0  0  0  0
  1 13  1  0  0  0  0
  1 14  1  0  0  0  0
  1 15  1  0  0  0  0
  2  3  1  0  0  0  0
  2 16  1  0  0  0  0
  2 17  1  0  0  0  0
  3  4  1  0  0  0  0
  3 18  1  0  0  0  0
  3 19  1  0  0  0  0
  4  5  1  0  0  0  0
  4 20  1  0  0  0  0
  4 21  1  0  0  0  0
  5  6  1  0  0  0  0
  5 22  1  0  0  0  0
  5 23  1  0  0  0  0
  6  7  1  0  0  0  0
  6  8  2  0  0  0  0
  7  9  1  0  0  0  0
  7 24  1  0  0  0  0
  7 25  1  0  0  0  0
  9 10  2  0  0  0  0
  9 11  1  0  0  0  0
  9 12  1  0  0  0  0
 11 26  1  0  0  0  0
 12 27  1  0  0  0  0
M  END
>  <DRUGBANK_ID>
DB07912

>  <COMMON_NAME>
2-OXOHEPTYLPHOSPHONIC ACID

>  <UNII>
E9NR6YG6JA

$$$$
