
 OpenBabel10282417103D

 42 45  0  0  0  0  0  0  0  0999 V2000
   -0.7901    2.8532   -0.1207 C   0  0  0  0  0  0  0  0  0  0  0  0
   -2.0188    2.5395   -0.4945 C   0  0  0  0  0  0  0  0  0  0  0  0
   -1.5122    2.4053    1.5481 C   0  0  0  0  0  0  0  0  0  0  0  0
   -2.0896    3.9914   -0.2365 C   0  0  0  0  0  0  0  0  0  0  0  0
   -2.3103    3.4896    2.6119 C   0  0  0  0  0  0  0  0  0  0  0  0
   -2.2643    3.9645    1.3835 C   0  0  0  0  0  0  0  0  0  0  0  0
   -0.5089    2.9016   -1.9751 C   0  0  2  0  0  0  0  0  0  0  0  0
   -1.8622    2.5807   -2.8674 C   0  0  2  0  0  0  0  0  0  0  0  0
   -2.0026    1.7719   -1.6816 N   0  0  0  0  0  0  0  0  0  0  0  0
   -3.3542    2.8964   -2.8320 C   0  0  2  0  0  0  0  0  0  0  0  0
   -4.0670    1.8141   -1.9449 C   0  0  2  0  0  0  0  0  0  0  0  0
   -3.0131    0.7920   -1.6720 C   0  0  0  0  0  0  0  0  0  0  0  0
   -1.6664    1.1968    1.9221 O   0  0  0  0  0  0  0  0  0  0  0  0
   -1.6213    4.9511   -0.8830 O   0  0  0  0  0  0  0  0  0  0  0  0
   -2.1875    4.7701    3.5234 N   0  0  0  0  0  0  0  0  0  0  0  0
   -4.5137    2.0473   -3.2670 N   0  0  0  0  0  0  0  0  0  0  0  0
   -1.4996    5.2096    1.3712 C   0  0  0  0  0  0  0  0  0  0  0  0
   -1.6186    2.1400   -4.2409 O   0  0  0  0  0  0  0  0  0  0  0  0
    0.6622    1.9651   -2.4054 C   0  0  0  0  0  0  0  0  0  0  0  0
    0.4338    0.5302   -2.2305 O   0  0  0  0  0  0  0  0  0  0  0  0
   -0.0052   -0.0398   -1.0807 C   0  0  0  0  0  0  0  0  0  0  0  0
    0.2865    0.6440    0.0318 N   0  0  0  0  0  0  0  0  0  0  0  0
   -0.7003   -1.0424   -1.0065 O   0  0  0  0  0  0  0  0  0  0  0  0
   -3.5254    3.9530   -2.8778 H   0  0  0  0  0  0  0  0  0  0  0  0
   -4.4366    2.2732   -1.0289 H   0  0  0  0  0  0  0  0  0  0  0  0
   -2.0009    3.1628   -5.2646 C   0  0  0  0  0  0  0  0  0  0  0  0
   -0.2295    3.9089   -2.3290 H   0  0  0  0  0  0  0  0  0  0  0  0
   -3.0245    0.3186   -0.6793 H   0  0  0  0  0  0  0  0  0  0  0  0
   -2.6763    0.0743   -2.4255 H   0  0  0  0  0  0  0  0  0  0  0  0
   -2.2882    5.7049    3.0548 H   0  0  0  0  0  0  0  0  0  0  0  0
   -2.7267    4.9502    4.3777 H   0  0  0  0  0  0  0  0  0  0  0  0
   -4.2749    1.1792   -3.7560 H   0  0  0  0  0  0  0  0  0  0  0  0
   -0.5095    4.6975    1.4614 H   0  0  0  0  0  0  0  0  0  0  0  0
   -2.6281    5.2448    1.1697 H   0  0  0  0  0  0  0  0  0  0  0  0
   -1.5700    6.2191    1.4997 H   0  0  0  0  0  0  0  0  0  0  0  0
    0.9013    2.0893   -3.4741 H   0  0  0  0  0  0  0  0  0  0  0  0
    1.5596    2.2818   -1.8691 H   0  0  0  0  0  0  0  0  0  0  0  0
   -0.5931    0.6735    0.5600 H   0  0  0  0  0  0  0  0  0  0  0  0
    0.6827    1.5406   -0.1796 H   0  0  0  0  0  0  0  0  0  0  0  0
   -2.9989    3.6000   -5.1063 H   0  0  0  0  0  0  0  0  0  0  0  0
   -1.2742    3.9837   -5.2866 H   0  0  0  0  0  0  0  0  0  0  0  0
   -2.0517    2.7681   -6.3008 H   0  0  0  0  0  0  0  0  0  0  0  0
  2  1  2  0  0  0  0
  3  1  1  0  0  0  0
  4  2  1  0  0  0  0
  5  3  1  0  0  0  0
  6  4  1  0  0  0  0
  6  5  2  0  0  0  0
  7  1  1  0  0  0  0
  7 27  1  6  0  0  0
  7 19  1  0  0  0  0
  8  7  1  0  0  0  0
  8 18  1  1  0  0  0
  9  2  1  0  0  0  0
  9  8  1  0  0  0  0
 10  8  1  0  0  0  0
 10 24  1  1  0  0  0
 11 10  1  0  0  0  0
 11 16  1  0  0  0  0
 11 25  1  1  0  0  0
 12 11  1  0  0  0  0
 12  9  1  0  0  0  0
 12 28  1  0  0  0  0
 12 29  1  0  0  0  0
 13  3  2  0  0  0  0
 14  4  2  0  0  0  0
 15  5  1  0  0  0  0
 15 30  1  0  0  0  0
 15 31  1  0  0  0  0
 16 10  1  0  0  0  0
 16 32  1  0  0  0  0
 17  6  1  0  0  0  0
 17 33  1  0  0  0  0
 17 34  1  0  0  0  0
 17 35  1  0  0  0  0
 19 36  1  0  0  0  0
 19 37  1  0  0  0  0
 20 19  1  0  0  0  0
 21 20  1  0  0  0  0
 22 21  1  0  0  0  0
 22 38  1  0  0  0  0
 22 39  1  0  0  0  0
 23 21  2  0  0  0  0
 26 18  1  0  0  0  0
 26 40  1  0  0  0  0
 26 41  1  0  0  0  0
 26 42  1  0  0  0  0
M  END
>  <DRUGBANK_ID>
DB00305

>  <SECONDARY_ACCESSION_NUMBERS>
APRD00284

>  <COMMON_NAME>
Mitomycin

>  <CAS_NUMBER>
50-07-7

>  <UNII>
50SG953SK6

>  <SYNONYMS>
7-Amino-9alpha-methoxymitosane; Ametycine; Mitamycin; Mitocin-C; Mitomycin; Mitomycin C; Mitomycin-C; MMC

$$$$
