
 OpenBabel10282417183D

 31 31  0  0  0  0  0  0  0  0999 V2000
    1.1654    0.0381   -0.0821 O   0  0  0  0  0  0  0  0  0  0  0  0
    3.0877    1.3044   -0.0381 N   0  0  0  0  0  0  0  0  0  0  0  0
    3.1266   -1.2768   -0.1609 C   0  0  0  0  0  0  0  0  0  0  0  0
    2.4056    0.0686   -0.1048 C   0  0  0  0  0  0  0  0  0  0  0  0
    2.3803   -2.4566   -0.0400 C   0  0  0  0  0  0  0  0  0  0  0  0
    4.5115   -1.4525   -0.2932 C   0  0  0  0  0  0  0  0  0  0  0  0
    3.0213   -3.7155   -0.0064 C   0  0  0  0  0  0  0  0  0  0  0  0
    5.1654   -2.6643   -0.1242 C   0  0  0  0  0  0  0  0  0  0  0  0
    4.4174   -3.8063   -0.0086 C   0  0  0  0  0  0  0  0  0  0  0  0
    2.3311    2.5651   -0.0557 C   0  0  0  0  0  0  0  0  0  0  0  0
    4.5322    1.4608    0.0393 C   0  0  0  0  0  0  0  0  0  0  0  0
    2.2442   -4.9918    0.0127 C   0  0  0  0  0  0  0  0  0  0  0  0
    2.6512    3.4469    1.1492 C   0  0  0  0  0  0  0  0  0  0  0  0
    5.0894    0.9231    1.3616 C   0  0  0  0  0  0  0  0  0  0  0  0
    1.2926   -2.4068    0.0163 H   0  0  0  0  0  0  0  0  0  0  0  0
    5.2088   -0.6655   -0.4797 H   0  0  0  0  0  0  0  0  0  0  0  0
    6.2514   -2.6798   -0.1026 H   0  0  0  0  0  0  0  0  0  0  0  0
    4.9284   -4.7624    0.0463 H   0  0  0  0  0  0  0  0  0  0  0  0
    2.6039    3.0929   -0.9791 H   0  0  0  0  0  0  0  0  0  0  0  0
    1.2528    2.3861   -0.0971 H   0  0  0  0  0  0  0  0  0  0  0  0
    4.9456    1.0425   -0.8820 H   0  0  0  0  0  0  0  0  0  0  0  0
    4.8218    2.5101   -0.0594 H   0  0  0  0  0  0  0  0  0  0  0  0
    2.4943   -5.5737   -0.8814 H   0  0  0  0  0  0  0  0  0  0  0  0
    2.5059   -5.5692    0.9041 H   0  0  0  0  0  0  0  0  0  0  0  0
    1.1684   -4.8060    0.0135 H   0  0  0  0  0  0  0  0  0  0  0  0
    3.7112    3.7198    1.1919 H   0  0  0  0  0  0  0  0  0  0  0  0
    2.0888    4.3829    1.1091 H   0  0  0  0  0  0  0  0  0  0  0  0
    2.4135    2.9239    2.0798 H   0  0  0  0  0  0  0  0  0  0  0  0
    4.7115   -0.0636    1.6475 H   0  0  0  0  0  0  0  0  0  0  0  0
    6.1787    0.8511    1.3139 H   0  0  0  0  0  0  0  0  0  0  0  0
    4.7963    1.5626    2.1955 H   0  0  0  0  0  0  0  0  0  0  0  0
  1  4  2  0  0  0  0
  2  4  1  0  0  0  0
  2 10  1  0  0  0  0
  2 11  1  0  0  0  0
  3  4  1  0  0  0  0
  3  5  2  0  0  0  0
  3  6  1  0  0  0  0
  5  7  1  0  0  0  0
  5 15  1  0  0  0  0
  6  8  2  0  0  0  0
  6 16  1  0  0  0  0
  7  9  2  0  0  0  0
  7 12  1  0  0  0  0
  8  9  1  0  0  0  0
  8 17  1  0  0  0  0
  9 18  1  0  0  0  0
 10 13  1  0  0  0  0
 10 19  1  0  0  0  0
 10 20  1  0  0  0  0
 11 14  1  0  0  0  0
 11 21  1  0  0  0  0
 11 22  1  0  0  0  0
 12 23  1  0  0  0  0
 12 24  1  0  0  0  0
 12 25  1  0  0  0  0
 13 26  1  0  0  0  0
 13 27  1  0  0  0  0
 13 28  1  0  0  0  0
 14 29  1  0  0  0  0
 14 30  1  0  0  0  0
 14 31  1  0  0  0  0
M  END
>  <DRUGBANK_ID>
DB11282

>  <COMMON_NAME>
Diethyltoluamide

>  <CAS_NUMBER>
134-62-3

>  <UNII>
FB0C1XZV4Y

>  <SYNONYMS>
3-methyl-N,N-diethylbenzamide; DEET; diethyl toluamide; Diethyltoluamide; di√©thyltoluamide; diethyltoluamidum; dietiltoluamida; N,N-diethyl-m-toluamide

$$$$
