393
 OpenBabel10282417163D

 38 39  0  0  0  0  0  0  0  0999 V2000
    1.3986   -0.2694    0.0027 C   0  0  0  0  0  0  0  0  0  0  0  0
    2.8423   -0.4729    0.1511 N   0  3  0  0  0  0  0  0  0  0  0  0
    3.5672    0.5329    0.1978 O   0  5  0  0  0  0  0  0  0  0  0  0
    3.2483   -1.6384    0.2521 O   0  0  0  0  0  0  0  0  0  0  0  0
    0.8924    1.0238   -0.0154 C   0  0  0  0  0  0  0  0  0  0  0  0
   -0.4921    1.2035    0.0904 C   0  0  0  0  0  0  0  0  0  0  0  0
   -1.0393    2.5588    0.3404 C   0  0  0  0  0  0  0  0  0  0  0  0
   -0.4400    3.1588    1.5177 N   0  0  0  0  0  0  0  0  0  0  0  0
   -0.0279    4.4666    1.5807 C   0  0  0  0  0  0  0  0  0  0  0  0
    0.4366    5.0997    0.3517 C   0  0  0  0  0  0  0  0  0  0  0  0
   -0.6444    5.4448   -0.4738 C   0  0  0  0  0  0  0  0  0  0  0  0
   -0.4437    6.1036   -1.6633 C   0  0  0  0  0  0  0  0  0  0  0  0
    0.8398    6.5260   -1.9706 C   0  0  0  0  0  0  0  0  0  0  0  0
    1.0813    7.3563   -3.4559 Cl  0  0  0  0  0  0  0  0  0  0  0  0
    1.9157    6.2717   -1.1001 C   0  0  0  0  0  0  0  0  0  0  0  0
    1.7463    5.4908    0.0604 C   0  0  0  0  0  0  0  0  0  0  0  0
    2.9028    5.2458    0.7541 O   0  0  0  0  0  0  0  0  0  0  0  0
    2.9360    4.3185    1.8404 C   0  0  0  0  0  0  0  0  0  0  0  0
    2.4065    4.7904    3.1897 C   0  0  0  0  0  0  0  0  0  0  0  0
    2.5767    6.1143    3.3902 O   0  0  0  0  0  0  0  0  0  0  0  0
    1.8624    4.0799    4.0243 O   0  0  0  0  0  0  0  0  0  0  0  0
   -0.1232    5.1558    2.5778 O   0  0  0  0  0  0  0  0  0  0  0  0
   -1.3658    0.1219   -0.0047 C   0  0  0  0  0  0  0  0  0  0  0  0
   -0.8549   -1.1652   -0.0416 C   0  0  0  0  0  0  0  0  0  0  0  0
    0.5273   -1.3666   -0.0084 C   0  0  0  0  0  0  0  0  0  0  0  0
    1.5501    1.8914   -0.0479 H   0  0  0  0  0  0  0  0  0  0  0  0
   -0.8639    3.1154   -0.5753 H   0  0  0  0  0  0  0  0  0  0  0  0
   -2.1209    2.5489    0.5179 H   0  0  0  0  0  0  0  0  0  0  0  0
   -0.6925    2.7727    2.4230 H   0  0  0  0  0  0  0  0  0  0  0  0
   -1.6519    5.1573   -0.1785 H   0  0  0  0  0  0  0  0  0  0  0  0
   -1.2966    6.2978   -2.3042 H   0  0  0  0  0  0  0  0  0  0  0  0
    2.8877    6.7062   -1.3283 H   0  0  0  0  0  0  0  0  0  0  0  0
    2.4568    3.3748    1.5582 H   0  0  0  0  0  0  0  0  0  0  0  0
    3.9876    4.0702    2.0318 H   0  0  0  0  0  0  0  0  0  0  0  0
    1.9584    6.3324    4.1187 H   0  0  0  0  0  0  0  0  0  0  0  0
   -2.4422    0.2868   -0.0163 H   0  0  0  0  0  0  0  0  0  0  0  0
   -1.5392   -2.0083   -0.0465 H   0  0  0  0  0  0  0  0  0  0  0  0
    0.9080   -2.3827    0.0208 H   0  0  0  0  0  0  0  0  0  0  0  0
  1  2  1  0  0  0  0
  1 25  2  0  0  0  0
  1  5  1  0  0  0  0
  2  3  1  0  0  0  0
  2  4  2  0  0  0  0
  5  6  2  0  0  0  0
  5 26  1  0  0  0  0
  6 23  1  0  0  0  0
  6  7  1  0  0  0  0
  7  8  1  0  0  0  0
  7 27  1  0  0  0  0
  7 28  1  0  0  0  0
  8  9  1  0  0  0  0
  8 29  1  0  0  0  0
  9 22  2  0  0  0  0
  9 10  1  0  0  0  0
 10 11  2  0  0  0  0
 10 16  1  0  0  0  0
 11 12  1  0  0  0  0
 11 30  1  0  0  0  0
 12 13  2  0  0  0  0
 12 31  1  0  0  0  0
 13 15  1  0  0  0  0
 13 14  1  0  0  0  0
 15 16  2  0  0  0  0
 15 32  1  0  0  0  0
 16 17  1  0  0  0  0
 17 18  1  0  0  0  0
 18 19  1  0  0  0  0
 18 33  1  0  0  0  0
 18 34  1  0  0  0  0
 19 21  2  0  0  0  0
 19 20  1  0  0  0  0
 20 35  1  0  0  0  0
 23 24  2  0  0  0  0
 23 36  1  0  0  0  0
 24 25  1  0  0  0  0
 24 37  1  0  0  0  0
 25 38  1  0  0  0  0
M  CHG  2   2   1   3  -1
M  END
>  <DRUGBANK_ID>
DB07030

>  <COMMON_NAME>
(5-CHLORO-2-{[(3-NITROBENZYL)AMINO]CARBONYL}PHENOXY)ACETIC ACID

$$$$
