
 OpenBabel10282417123D

 17 17  0  0  0  0  0  0  0  0999 V2000
    0.9038   -0.0514   -0.0029 O   0  0  0  0  0  0  0  0  0  0  0  0
    2.1349   -0.0265    0.0026 C   0  0  0  0  0  0  0  0  0  0  0  0
    2.9589    0.9413   -0.8116 C   0  0  0  0  0  0  0  0  0  0  0  0
    3.7752    1.8447    0.0771 C   0  0  0  0  0  0  0  0  0  0  0  0
    3.6102    3.2326   -0.0166 C   0  0  0  0  0  0  0  0  0  0  0  0
    4.2202    4.0801    0.9061 C   0  0  0  0  0  0  0  0  0  0  0  0
    4.9962    3.5480    1.9329 C   0  0  0  0  0  0  0  0  0  0  0  0
    5.1958    2.1715    2.0142 C   0  0  0  0  0  0  0  0  0  0  0  0
    4.6336    1.3262    1.0579 C   0  0  0  0  0  0  0  0  0  0  0  0
    2.7021   -0.7479    0.6135 H   0  0  0  0  0  0  0  0  0  0  0  0
    3.5998    0.3840   -1.5014 H   0  0  0  0  0  0  0  0  0  0  0  0
    2.2603    1.5350   -1.4140 H   0  0  0  0  0  0  0  0  0  0  0  0
    2.9757    3.6610   -0.7899 H   0  0  0  0  0  0  0  0  0  0  0  0
    4.0578    5.1527    0.8432 H   0  0  0  0  0  0  0  0  0  0  0  0
    5.4442    4.2067    2.6716 H   0  0  0  0  0  0  0  0  0  0  0  0
    5.7676    1.7545    2.8394 H   0  0  0  0  0  0  0  0  0  0  0  0
    4.8388    0.2597    1.1187 H   0  0  0  0  0  0  0  0  0  0  0  0
  1  2  2  0  0  0  0
  2  3  1  0  0  0  0
  2 10  1  0  0  0  0
  3  4  1  0  0  0  0
  3 11  1  0  0  0  0
  3 12  1  0  0  0  0
  4  5  2  0  0  0  0
  4  9  1  0  0  0  0
  5  6  1  0  0  0  0
  5 13  1  0  0  0  0
  6  7  2  0  0  0  0
  6 14  1  0  0  0  0
  7  8  1  0  0  0  0
  7 15  1  0  0  0  0
  8  9  2  0  0  0  0
  8 16  1  0  0  0  0
  9 17  1  0  0  0  0
M  END
>  <DRUGBANK_ID>
DB02178

>  <SECONDARY_ACCESSION_NUMBERS>
EXPT01801

>  <COMMON_NAME>
Phenylacetaldehyde

>  <CAS_NUMBER>
122-78-1

>  <UNII>
U8J5PLW9MR

$$$$
