
 OpenBabel10282417123D

 34 33  0  0  1  0  0  0  0  0999 V2000
    0.8983    0.1313    0.2288 C   0  0  0  0  0  0  0  0  0  0  0  0
    1.0922   -2.3139   -3.6049 C   0  0  0  0  0  0  0  0  0  0  0  0
    0.1836   -1.7571   -6.3377 C   0  0  0  0  0  0  0  0  0  0  0  0
    0.3498    0.3222   -1.1755 C   0  0  1  0  0  0  0  0  0  0  0  0
    0.5547   -0.8775   -3.3332 C   0  0  2  0  0  0  0  0  0  0  0  0
    1.5790   -1.0709   -6.2895 C   0  0  2  0  0  0  0  0  0  0  0  0
    1.0712    0.3865   -4.1559 C   0  0  2  0  0  0  0  0  0  0  0  0
    1.5177    0.3237   -5.6576 C   0  0  2  0  0  0  0  0  0  0  0  0
    0.8807   -0.7951   -1.9012 N   0  0  0  0  0  0  0  0  0  0  0  0
    0.0696   -3.3032   -3.5521 O   0  0  0  0  0  0  0  0  0  0  0  0
   -0.6415   -1.1297   -7.3123 O   0  0  0  0  0  0  0  0  0  0  0  0
   -1.0520    0.2584   -1.1741 O   0  0  0  0  0  0  0  0  0  0  0  0
    2.1458   -1.0741   -7.5990 O   0  0  0  0  0  0  0  0  0  0  0  0
    2.1487    1.0182   -3.4221 O   0  0  0  0  0  0  0  0  0  0  0  0
    0.7107    1.2227   -6.4395 O   0  0  0  0  0  0  0  0  0  0  0  0
    0.6630    1.2942   -1.5627 H   0  0  0  0  0  0  0  0  0  0  0  0
   -0.5412   -0.8935   -3.4415 H   0  0  0  0  0  0  0  0  0  0  0  0
    2.3569   -1.5870   -5.7221 H   0  0  0  0  0  0  0  0  0  0  0  0
    0.2455    1.1183   -4.1077 H   0  0  0  0  0  0  0  0  0  0  0  0
    2.5221    0.7603   -5.7386 H   0  0  0  0  0  0  0  0  0  0  0  0
    0.5582   -0.8224    0.6531 H   0  0  0  0  0  0  0  0  0  0  0  0
    0.5516    0.9276    0.8876 H   0  0  0  0  0  0  0  0  0  0  0  0
    1.9961    0.1261    0.2236 H   0  0  0  0  0  0  0  0  0  0  0  0
    1.4688   -2.4834   -4.5835 H   0  0  0  0  0  0  0  0  0  0  0  0
    1.9576   -2.5978   -2.9970 H   0  0  0  0  0  0  0  0  0  0  0  0
    0.2728   -2.8271   -6.5568 H   0  0  0  0  0  0  0  0  0  0  0  0
   -0.3844   -1.6774   -5.4125 H   0  0  0  0  0  0  0  0  0  0  0  0
    1.9024   -0.6923   -1.8722 H   0  0  0  0  0  0  0  0  0  0  0  0
   -0.2890   -3.3219   -2.6332 H   0  0  0  0  0  0  0  0  0  0  0  0
   -1.3983   -0.7463   -6.8307 H   0  0  0  0  0  0  0  0  0  0  0  0
   -1.2488   -0.6741   -0.9839 H   0  0  0  0  0  0  0  0  0  0  0  0
    1.3919   -1.0045   -8.2096 H   0  0  0  0  0  0  0  0  0  0  0  0
    1.9322    1.9720   -3.3884 H   0  0  0  0  0  0  0  0  0  0  0  0
   -0.1861    0.8574   -6.5064 H   0  0  0  0  0  0  0  0  0  0  0  0
  1 21  1  0  0  0  0
  1 22  1  0  0  0  0
  1 23  1  0  0  0  0
  2 24  1  0  0  0  0
  2 25  1  0  0  0  0
  3 26  1  0  0  0  0
  3 27  1  0  0  0  0
  4  1  1  0  0  0  0
  4 12  1  0  0  0  0
  4 16  1  6  0  0  0
  5  9  1  0  0  0  0
  5 17  1  6  0  0  0
  5  7  1  0  0  0  0
  5  2  1  0  0  0  0
  6  3  1  0  0  0  0
  6 13  1  0  0  0  0
  6 18  1  1  0  0  0
  7 19  1  1  0  0  0
  7 14  1  0  0  0  0
  7  8  1  0  0  0  0
  8  6  1  0  0  0  0
  8 15  1  0  0  0  0
  8 20  1  6  0  0  0
  9  4  1  0  0  0  0
  9 28  1  0  0  0  0
 10  2  1  0  0  0  0
 10 29  1  0  0  0  0
 11  3  1  0  0  0  0
 11 30  1  0  0  0  0
 12 31  1  0  0  0  0
 13 32  1  0  0  0  0
 14 33  1  0  0  0  0
 15 34  1  0  0  0  0
M  END
>  <DRUGBANK_ID>
DB02787

>  <SECONDARY_ACCESSION_NUMBERS>
EXPT02197

>  <COMMON_NAME>
N-Acetylmannosaminitol

$$$$
