
 OpenBabel10282417153D

 77 82  0  0  0  0  0  0  0  0999 V2000
    0.5718    3.4972   -1.2530 C   0  0  0  0  0  0  0  0  0  0  0  0
   -0.6747    3.6964   -0.4791 C   0  0  0  0  0  0  0  0  0  0  0  0
   -0.7809    3.8144    0.8879 N   0  0  0  0  0  0  0  0  0  0  0  0
   -2.0855    4.0425    1.2063 C   0  0  0  0  0  0  0  0  0  0  0  0
   -2.7372    3.9762   -0.0087 C   0  0  0  0  0  0  0  0  0  0  0  0
   -1.8639    3.7335   -1.0292 N   0  0  0  0  0  0  0  0  0  0  0  0
   -4.1088    4.1808   -0.0387 C   0  0  0  0  0  0  0  0  0  0  0  0
   -4.7961    4.4429    1.0984 N   0  0  0  0  0  0  0  0  0  0  0  0
   -4.1134    4.4996    2.2581 C   0  0  0  0  0  0  0  0  0  0  0  0
   -2.7484    4.3112    2.3907 C   0  0  0  0  0  0  0  0  0  0  0  0
    0.2615    3.7166    1.8504 C   0  0  0  0  0  0  0  0  0  0  0  0
    0.9386    2.3540    1.8679 C   0  0  1  0  0  0  0  0  0  0  0  0
    1.5160    1.7338    0.5756 C   0  0  0  0  0  0  0  0  0  0  0  0
    2.5955    0.6474    0.5505 C   0  0  0  0  0  0  0  0  0  0  0  0
    3.6268    1.1581    1.4302 N   0  0  0  0  0  0  0  0  0  0  0  0
    3.0337    1.6026    2.5944 C   0  0  0  0  0  0  0  0  0  0  0  0
    2.1044    2.7199    2.6918 C   0  0  0  0  0  0  0  0  0  0  0  0
    4.9844    0.9355    1.4297 C   0  0  0  0  0  0  0  0  0  0  0  0
    5.5894    0.6508    0.3980 O   0  0  0  0  0  0  0  0  0  0  0  0
    5.7926    1.1769    2.7551 C   0  0  0  0  0  0  0  0  0  0  0  0
    5.5341    1.2405    4.1161 C   0  0  0  0  0  0  0  0  0  0  0  0
    4.1530    0.9983    4.8798 C   0  0  0  0  0  0  0  0  0  0  0  0
    3.3252   -0.1067    4.6121 C   0  0  0  0  0  0  0  0  0  0  0  0
    1.8860    0.0284    4.7471 C   0  0  0  0  0  0  0  0  0  0  0  0
    1.2611    1.1668    5.3131 C   0  0  0  0  0  0  0  0  0  0  0  0
    2.1369    2.1461    5.8171 C   0  0  0  0  0  0  0  0  0  0  0  0
    3.5404    2.0996    5.5484 C   0  0  0  0  0  0  0  0  0  0  0  0
   -0.1536    1.3591    5.0964 N   0  0  0  0  0  0  0  0  0  0  0  0
   -0.6374    2.4319    5.5490 N   0  0  0  0  0  0  0  0  0  0  0  0
   -2.0703    2.5041    5.4972 C   0  0  0  0  0  0  0  0  0  0  0  0
   -2.9183    1.3861    5.4476 C   0  0  0  0  0  0  0  0  0  0  0  0
   -4.3203    1.5088    5.2824 C   0  0  0  0  0  0  0  0  0  0  0  0
   -4.9029    2.7801    5.2814 C   0  0  0  0  0  0  0  0  0  0  0  0
   -4.1035    3.9025    5.4866 C   0  0  0  0  0  0  0  0  0  0  0  0
   -2.7020    3.7616    5.5575 C   0  0  0  0  0  0  0  0  0  0  0  0
   -6.2415    2.9317    5.0598 O   0  0  0  0  0  0  0  0  0  0  0  0
   -5.1888    0.2997    5.0819 C   0  0  0  0  0  0  0  0  0  0  0  0
   -6.3647    0.2460    4.8696 O   0  0  0  0  0  0  0  0  0  0  0  0
   -4.4674   -0.8459    5.1584 O   0  0  0  0  0  0  0  0  0  0  0  0
    6.6680    1.6602    4.9991 C   0  0  0  0  0  0  0  0  0  0  0  0
    7.6962    2.5727    4.7165 C   0  0  0  0  0  0  0  0  0  0  0  0
    8.7375    2.7337    5.6414 C   0  0  0  0  0  0  0  0  0  0  0  0
    8.6688    2.1228    6.8963 C   0  0  0  0  0  0  0  0  0  0  0  0
    7.5558    1.3794    7.2465 C   0  0  0  0  0  0  0  0  0  0  0  0
    6.6096    1.1019    6.2827 C   0  0  0  0  0  0  0  0  0  0  0  0
    1.4347    3.8659   -0.6982 H   0  0  0  0  0  0  0  0  0  0  0  0
    0.6047    4.0403   -2.1859 H   0  0  0  0  0  0  0  0  0  0  0  0
    0.6649    2.4413   -1.5435 H   0  0  0  0  0  0  0  0  0  0  0  0
   -4.6523    4.1608   -0.9678 H   0  0  0  0  0  0  0  0  0  0  0  0
   -4.7327    4.7296    3.1153 H   0  0  0  0  0  0  0  0  0  0  0  0
   -2.2246    4.3958    3.3226 H   0  0  0  0  0  0  0  0  0  0  0  0
    0.9610    4.5472    1.6802 H   0  0  0  0  0  0  0  0  0  0  0  0
   -0.1325    3.9106    2.8661 H   0  0  0  0  0  0  0  0  0  0  0  0
    0.2716    1.6170    2.3415 H   0  0  0  0  0  0  0  0  0  0  0  0
    0.6799    1.3648   -0.0007 H   0  0  0  0  0  0  0  0  0  0  0  0
    2.1283    2.5418    0.1843 H   0  0  0  0  0  0  0  0  0  0  0  0
    2.1703   -0.2860    0.9483 H   0  0  0  0  0  0  0  0  0  0  0  0
    2.9801    0.4545   -0.4530 H   0  0  0  0  0  0  0  0  0  0  0  0
    3.8053    2.0532    3.1386 H   0  0  0  0  0  0  0  0  0  0  0  0
    2.4958    0.7029    2.8263 H   0  0  0  0  0  0  0  0  0  0  0  0
    2.6542    3.6208    2.4120 H   0  0  0  0  0  0  0  0  0  0  0  0
    1.7495    2.9354    3.6931 H   0  0  0  0  0  0  0  0  0  0  0  0
    6.8230    1.3472    2.4186 H   0  0  0  0  0  0  0  0  0  0  0  0
    3.7092   -0.8523    3.9050 H   0  0  0  0  0  0  0  0  0  0  0  0
    1.2687   -0.5733    4.0595 H   0  0  0  0  0  0  0  0  0  0  0  0
    1.7204    3.0848    6.1807 H   0  0  0  0  0  0  0  0  0  0  0  0
    4.0915    3.0412    5.6395 H   0  0  0  0  0  0  0  0  0  0  0  0
   -2.4764    0.3985    5.5427 H   0  0  0  0  0  0  0  0  0  0  0  0
   -4.5454    4.8977    5.5127 H   0  0  0  0  0  0  0  0  0  0  0  0
   -2.0981    4.6696    5.5730 H   0  0  0  0  0  0  0  0  0  0  0  0
   -6.5005    3.8566    4.9239 H   0  0  0  0  0  0  0  0  0  0  0  0
   -5.1543   -1.5289    4.9990 H   0  0  0  0  0  0  0  0  0  0  0  0
    7.7222    3.1609    3.7999 H   0  0  0  0  0  0  0  0  0  0  0  0
    9.6094    3.3355    5.3939 H   0  0  0  0  0  0  0  0  0  0  0  0
    9.4780    2.2251    7.6111 H   0  0  0  0  0  0  0  0  0  0  0  0
    7.4157    0.9774    8.2432 H   0  0  0  0  0  0  0  0  0  0  0  0
    5.7981    0.4322    6.5540 H   0  0  0  0  0  0  0  0  0  0  0  0
  1  2  1  0  0  0  0
  1 46  1  0  0  0  0
  1 47  1  0  0  0  0
  1 48  1  0  0  0  0
  2  3  1  0  0  0  0
  2  6  2  0  0  0  0
  3  4  1  0  0  0  0
  3 11  1  0  0  0  0
  4  5  1  0  0  0  0
  4 10  2  0  0  0  0
  5  6  1  0  0  0  0
  5  7  2  0  0  0  0
  7  8  1  0  0  0  0
  7 49  1  0  0  0  0
  8  9  2  0  0  0  0
  9 10  1  0  0  0  0
  9 50  1  0  0  0  0
 10 51  1  0  0  0  0
 11 52  1  0  0  0  0
 11 53  1  0  0  0  0
 12 13  1  0  0  0  0
 12 17  1  0  0  0  0
 12 54  1  1  0  0  0
 12 11  1  0  0  0  0
 13 14  1  0  0  0  0
 13 55  1  0  0  0  0
 13 56  1  0  0  0  0
 14 15  1  0  0  0  0
 14 57  1  0  0  0  0
 14 58  1  0  0  0  0
 15 16  1  0  0  0  0
 15 18  1  0  0  0  0
 16 17  1  0  0  0  0
 16 59  1  0  0  0  0
 16 60  1  0  0  0  0
 17 61  1  0  0  0  0
 17 62  1  0  0  0  0
 18 19  2  0  0  0  0
 18 20  1  0  0  0  0
 20 21  2  0  0  0  0
 20 63  1  0  0  0  0
 21 22  1  0  0  0  0
 21 40  1  0  0  0  0
 22 23  2  0  0  0  0
 22 27  1  0  0  0  0
 23 24  1  0  0  0  0
 23 64  1  0  0  0  0
 24 25  2  0  0  0  0
 24 65  1  0  0  0  0
 25 26  1  0  0  0  0
 25 28  1  0  0  0  0
 26 27  2  0  0  0  0
 26 66  1  0  0  0  0
 27 67  1  0  0  0  0
 28 29  2  0  0  0  0
 29 30  1  0  0  0  0
 30 31  2  0  0  0  0
 30 35  1  0  0  0  0
 31 32  1  0  0  0  0
 31 68  1  0  0  0  0
 32 33  2  0  0  0  0
 32 37  1  0  0  0  0
 33 34  1  0  0  0  0
 33 36  1  0  0  0  0
 34 35  2  0  0  0  0
 34 69  1  0  0  0  0
 35 70  1  0  0  0  0
 36 71  1  0  0  0  0
 37 38  2  0  0  0  0
 37 39  1  0  0  0  0
 39 72  1  0  0  0  0
 40 41  2  0  0  0  0
 40 45  1  0  0  0  0
 41 42  1  0  0  0  0
 41 73  1  0  0  0  0
 42 43  2  0  0  0  0
 42 74  1  0  0  0  0
 43 44  1  0  0  0  0
 43 75  1  0  0  0  0
 44 45  2  0  0  0  0
 44 76  1  0  0  0  0
 45 77  1  0  0  0  0
M  END
>  <DRUGBANK_ID>
DB06251

>  <COMMON_NAME>
Dersalazine

>  <CAS_NUMBER>
188913-58-8

>  <UNII>
WS1IH75AJT

>  <SYNONYMS>
Dersalazine

$$$$
