
 OpenBabel10282417143D

 31 33  0  0  0  0  0  0  0  0999 V2000
    1.2137    0.7549   -0.0008 C   0  0  0  0  0  0  0  0  0  0  0  0
    1.1574   -0.7542   -0.0000 C   0  0  0  0  0  0  0  0  0  0  0  0
   -1.1942    0.7475   -0.0016 C   0  0  0  0  0  0  0  0  0  0  0  0
   -1.1723   -0.6646   -0.0010 C   0  0  0  0  0  0  0  0  0  0  0  0
   -2.4461    1.3762   -0.0003 C   0  0  0  0  0  0  0  0  0  0  0  0
   -2.3814   -1.3778   -0.0018 C   0  0  0  0  0  0  0  0  0  0  0  0
   -3.6309   -0.7252   -0.0008 C   0  0  0  0  0  0  0  0  0  0  0  0
   -3.6594    0.6713    0.0039 C   0  0  0  0  0  0  0  0  0  0  0  0
    3.5488    0.6818   -0.0001 C   0  0  0  0  0  0  0  0  0  0  0  0
    0.0302   -1.4057   -0.0003 N   0  0  0  0  0  0  0  0  0  0  0  0
    2.4663   -1.5000    0.0009 C   0  0  0  0  0  0  0  0  0  0  0  0
    2.5367   -2.7167    0.0026 O   0  0  0  0  0  0  0  0  0  0  0  0
    4.6273    1.2728    0.0002 O   0  0  0  0  0  0  0  0  0  0  0  0
    3.5578   -0.6817   -0.0003 N   0  0  0  0  0  0  0  0  0  0  0  0
    2.3661    1.3553   -0.0005 N   0  0  0  0  0  0  0  0  0  0  0  0
    0.0182    1.4564   -0.0020 N   0  0  0  0  0  0  0  0  0  0  0  0
    0.0557    2.9141   -0.0022 C   0  0  0  0  0  0  0  0  0  0  0  0
   -4.9082    1.5078    0.0158 C   0  0  0  0  0  0  0  0  0  0  0  0
   -4.8759   -1.5629   -0.0065 C   0  0  0  0  0  0  0  0  0  0  0  0
   -2.5353    2.4556   -0.0016 H   0  0  0  0  0  0  0  0  0  0  0  0
   -2.3421   -2.4670   -0.0029 H   0  0  0  0  0  0  0  0  0  0  0  0
    4.4675   -1.1158    0.0001 H   0  0  0  0  0  0  0  0  0  0  0  0
    0.5798    3.2716    0.8900 H   0  0  0  0  0  0  0  0  0  0  0  0
    0.5805    3.2711   -0.8943 H   0  0  0  0  0  0  0  0  0  0  0  0
   -0.9113    3.4150   -0.0027 H   0  0  0  0  0  0  0  0  0  0  0  0
   -4.9169    2.1377    0.9115 H   0  0  0  0  0  0  0  0  0  0  0  0
   -4.9327    2.1423   -0.8762 H   0  0  0  0  0  0  0  0  0  0  0  0
   -5.8329    0.9361    0.0242 H   0  0  0  0  0  0  0  0  0  0  0  0
   -4.9029   -2.1831   -0.9064 H   0  0  0  0  0  0  0  0  0  0  0  0
   -4.9093   -2.1876    0.8900 H   0  0  0  0  0  0  0  0  0  0  0  0
   -5.7949   -0.9776   -0.0098 H   0  0  0  0  0  0  0  0  0  0  0  0
  2  1  1  0  0  0  0
  2 11  1  0  0  0  0
  3  4  1  0  0  0  0
  4 10  1  0  0  0  0
  5  3  2  0  0  0  0
  5  8  1  0  0  0  0
  5 20  1  0  0  0  0
  6  4  2  0  0  0  0
  6 21  1  0  0  0  0
  7  6  1  0  0  0  0
  7 19  1  0  0  0  0
  8  7  2  0  0  0  0
  8 18  1  0  0  0  0
  9 13  2  0  0  0  0
 10  2  2  0  0  0  0
 11 14  1  0  0  0  0
 11 12  2  0  0  0  0
 14  9  1  0  0  0  0
 14 22  1  0  0  0  0
 15  1  2  0  0  0  0
 15  9  1  0  0  0  0
 16  3  1  0  0  0  0
 16  1  1  0  0  0  0
 16 17  1  0  0  0  0
 17 23  1  0  0  0  0
 17 24  1  0  0  0  0
 17 25  1  0  0  0  0
 18 26  1  0  0  0  0
 18 27  1  0  0  0  0
 18 28  1  0  0  0  0
 19 29  1  0  0  0  0
 19 30  1  0  0  0  0
 19 31  1  0  0  0  0
M  END
>  <DRUGBANK_ID>
DB04726

>  <COMMON_NAME>
Lumiflavin

>  <CAS_NUMBER>
1088-56-8

>  <UNII>
4M2669414M

>  <SYNONYMS>
7,8,10-Trimethylbenzo(g)pteridine-2,4(3H,10H)-dione; 7,8,10-Trimethylisoalloxazine; Lumiflavin; Lumiflavine

$$$$
