
 OpenBabel10282417213D

188192  0  0  0  0  0  0  0  0999 V2000
  -34.1281    0.0108   -4.1781 O   0  0  0  0  0  0  0  0  0  0  0  0
  -35.4255   -0.5663   -4.1683 C   0  0  2  0  0  0  0  0  0  0  0  0
  -35.3443   -1.9864   -3.6325 C   0  0  0  0  0  0  0  0  0  0  0  0
  -35.7038   -1.5182   -5.3202 C   0  0  2  0  0  0  0  0  0  0  0  0
  -36.6467   -2.5568   -4.8807 N   0  0  0  0  0  0  0  0  0  0  0  0
  -36.2882   -3.9652   -4.6598 C   0  0  0  0  0  0  0  0  0  0  0  0
  -37.1919   -4.8153   -4.3844 O   0  0  0  0  0  0  0  0  0  0  0  0
  -34.8366   -4.4048   -4.7607 C   0  0  2  0  0  0  0  0  0  0  0  0
  -33.0202   -8.2780    9.1600 C   0  0  0  0  0  0  0  0  0  0  0  0
  -32.4604   -9.8877    8.5504 S   0  0  0  0  0  0  0  0  0  0  0  0
  -34.1230  -11.1259    8.2150 S   0  0  0  0  0  0  0  0  0  0  0  0
  -32.3462  -13.8547    5.8089 N   0  0  0  0  0  0  0  0  0  0  0  0
  -32.6569  -15.0759    6.5659 C   0  0  0  0  0  0  0  0  0  0  0  0
  -32.2638  -16.2061    6.1379 O   0  0  0  0  0  0  0  0  0  0  0  0
  -33.5197  -14.6379    7.7381 C   0  0  2  0  0  0  0  0  0  0  0  0
  -32.6760  -14.4628    8.9291 N   0  0  0  0  0  0  0  0  0  0  0  0
  -33.1053  -13.5399    9.9897 C   0  0  0  0  0  0  0  0  0  0  0  0
  -32.1822  -13.2459   11.1609 C   0  0  0  0  0  0  0  0  0  0  0  0
  -31.8843  -11.8070   11.2008 N   0  0  0  0  0  0  0  0  0  0  0  0
  -32.9094  -11.1370   12.0141 C   0  0  0  0  0  0  0  0  0  0  0  0
  -32.6991  -11.2166   13.5077 C   0  0  0  0  0  0  0  0  0  0  0  0
  -31.7990  -10.1933   14.0256 N   0  0  0  0  0  0  0  0  0  0  0  0
  -31.9613  -10.1200   15.4847 C   0  0  0  0  0  0  0  0  0  0  0  0
  -31.5490  -11.4438   16.1075 C   0  0  0  0  0  0  0  0  0  0  0  0
  -30.5992  -11.4808   16.9511 O   0  0  0  0  0  0  0  0  0  0  0  0
  -32.2252  -12.6392   15.7468 O   0  5  0  0  0  0  0  0  0  0  0  0
  -30.3882  -10.4699   13.7235 C   0  0  0  0  0  0  0  0  0  0  0  0
  -29.5745   -9.1925   13.6412 C   0  0  0  0  0  0  0  0  0  0  0  0
  -29.5581   -8.6309   12.2861 N   0  0  0  0  0  0  0  0  0  0  0  0
  -29.2577   -7.1938   12.3593 C   0  0  0  0  0  0  0  0  0  0  0  0
  -27.8920   -6.9935   12.9959 C   0  0  0  0  0  0  0  0  0  0  0  0
  -26.9693   -6.4060   12.3489 O   0  0  0  0  0  0  0  0  0  0  0  0
  -27.6473   -7.4626   14.3136 O   0  5  0  0  0  0  0  0  0  0  0  0
  -28.5330   -9.3009   11.4728 C   0  0  0  0  0  0  0  0  0  0  0  0
  -28.7433   -9.2213    9.9792 C   0  0  0  0  0  0  0  0  0  0  0  0
  -29.6428  -10.2454    9.4615 N   0  0  0  0  0  0  0  0  0  0  0  0
  -29.2791  -11.5372   10.0615 C   0  0  0  0  0  0  0  0  0  0  0  0
  -29.4828  -11.4721   11.5664 C   0  0  0  0  0  0  0  0  0  0  0  0
  -30.2947  -12.2691   12.1328 O   0  0  0  0  0  0  0  0  0  0  0  0
  -28.7659  -10.5208   12.3394 O   0  5  0  0  0  0  0  0  0  0  0  0
  -31.0542   -9.9680    9.7634 C   0  0  0  0  0  0  0  0  0  0  0  0
  -31.8679  -11.2454    9.8457 C   0  0  0  0  0  0  0  0  0  0  0  0
  -34.2484  -12.9878    9.9273 O   0  0  0  0  0  0  0  0  0  0  0  0
  -34.5737  -15.6974    8.0152 C   0  0  0  0  0  0  0  0  0  0  0  0
  -35.4365  -15.2594    9.1874 C   0  0  0  0  0  0  0  0  0  0  0  0
  -34.8947  -15.1102   10.3905 C   0  0  0  0  0  0  0  0  0  0  0  0
  -35.6266  -14.5821   11.4265 C   0  0  0  0  0  0  0  0  0  0  0  0
  -36.9517  -14.2832   11.2707 C   0  0  0  0  0  0  0  0  0  0  0  0
  -37.4341  -14.3743   10.0447 C   0  0  0  0  0  0  0  0  0  0  0  0
  -36.7870  -15.0368    8.9749 C   0  0  0  0  0  0  0  0  0  0  0  0
  -29.3936  -10.1574    7.0862 C   0  0  0  0  0  0  0  0  0  0  0  0
  -28.1635   -9.3149    7.3817 C   0  0  0  0  0  0  0  0  0  0  0  0
  -27.0631   -9.4936    6.6603 C   0  0  0  0  0  0  0  0  0  0  0  0
  -25.9889   -8.6487    6.8021 C   0  0  0  0  0  0  0  0  0  0  0  0
  -25.9899   -7.6630    7.7497 C   0  0  0  0  0  0  0  0  0  0  0  0
  -24.8315   -6.8895    8.0258 O   0  0  0  0  0  0  0  0  0  0  0  0
  -27.1261   -7.4691    8.3943 C   0  0  0  0  0  0  0  0  0  0  0  0
  -28.2101   -8.3784    8.4012 C   0  0  0  0  0  0  0  0  0  0  0  0
  -29.5424   -9.3254    4.7524 C   0  0  0  0  0  0  0  0  0  0  0  0
  -28.3288   -9.6929    4.6680 O   0  0  0  0  0  0  0  0  0  0  0  0
  -30.2089   -8.7182    3.5913 N   0  0  0  0  0  0  0  0  0  0  0  0
  -31.6127   -8.2931    3.6889 C   0  0  2  0  0  0  0  0  0  0  0  0
  -32.4433   -9.0485    2.6643 C   0  0  0  0  0  0  0  0  0  0  0  0
  -32.3123  -10.5300    2.9776 C   0  0  0  0  0  0  0  0  0  0  0  0
  -31.2791   -9.1338    4.8172 C   0  0  0  0  0  0  0  0  0  0  0  0
  -29.9996   -9.5955    4.5177 N   0  0  0  0  0  0  0  0  0  0  0  0
  -29.8292  -10.6279    3.5983 C   0  0  0  0  0  0  0  0  0  0  0  0
  -28.6039  -11.0584    3.3220 C   0  0  0  0  0  0  0  0  0  0  0  0
  -28.4136  -12.1725    2.5407 C   0  0  0  0  0  0  0  0  0  0  0  0
  -29.4721  -12.8098    1.9551 C   0  0  0  0  0  0  0  0  0  0  0  0
  -30.6754  -12.3995    2.3122 C   0  0  0  0  0  0  0  0  0  0  0  0
  -30.9412  -11.1860    2.9896 C   0  0  0  0  0  0  0  0  0  0  0  0
  -31.7100   -6.8004    3.4190 C   0  0  0  0  0  0  0  0  0  0  0  0
  -31.0879   -5.9783    4.1622 O   0  0  0  0  0  0  0  0  0  0  0  0
  -32.5237   -6.3077    2.2982 N   0  0  0  0  0  0  0  0  0  0  0  0
  -32.6178   -4.8641    2.0372 C   0  0  1  0  0  0  0  0  0  0  0  0
  -31.7872   -4.1087    3.0618 C   0  0  0  0  0  0  0  0  0  0  0  0
  -31.8845   -2.6160    2.7919 C   0  0  0  0  0  0  0  0  0  0  0  0
  -33.3361   -2.1764    2.8928 C   0  0  0  0  0  0  0  0  0  0  0  0
  -33.8597   -2.4741    4.2884 C   0  0  0  0  0  0  0  0  0  0  0  0
  -33.0565   -1.7436    5.2793 N   0  0  0  0  0  0  0  0  0  0  0  0
  -32.0941   -4.5664    0.6416 C   0  0  0  0  0  0  0  0  0  0  0  0
  -30.8944   -4.8558    0.3380 O   0  0  0  0  0  0  0  0  0  0  0  0
  -32.9753   -3.9438   -0.3568 N   0  0  0  0  0  0  0  0  0  0  0  0
  -32.4688   -3.6559   -1.7064 C   0  0  2  0  0  0  0  0  0  0  0  0
  -33.2994   -4.4113   -2.7311 C   0  0  0  0  0  0  0  0  0  0  0  0
  -33.3593   -5.6801   -2.6898 O   0  0  0  0  0  0  0  0  0  0  0  0
  -34.0334   -3.6742   -3.7698 N   0  0  0  0  0  0  0  0  0  0  0  0
  -31.2180   -4.4975   -1.8996 C   0  0  2  0  0  0  0  0  0  0  0  0
  -31.2763   -5.1498   -3.1596 O   0  0  0  0  0  0  0  0  0  0  0  0
  -31.1312   -5.5373   -0.7943 C   0  0  0  0  0  0  0  0  0  0  0  0
  -34.4041   -2.1692   -5.7647 C   0  0  0  0  0  0  0  0  0  0  0  0
  -33.9426   -1.9962   -7.0965 O   0  0  0  0  0  0  0  0  0  0  0  0
  -33.7305   -2.8683   -4.9445 O   0  0  0  0  0  0  0  0  0  0  0  0
  -31.4686  -10.3804    5.8190 N   0  0  0  0  0  0  0  0  0  0  0  0
  -30.7026  -12.0003    7.3790 O   0  0  0  0  0  0  0  0  0  0  0  0
  -31.5974  -11.6511    6.5467 C   0  0  0  0  0  0  0  0  0  0  0  0
  -30.3048   -9.5136    6.0538 C   0  0  1  0  0  0  0  0  0  0  0  0
  -33.5632  -12.7356    7.6054 C   0  0  0  0  0  0  0  0  0  0  0  0
  -32.8008  -12.5474    6.3039 C   0  0  2  0  0  0  0  0  0  0  0  0
    0.9341    0.0666   -0.0349 Ga  0  1  0  0  0  0  0  0  0  0  0  0
  -33.2433   -0.2935   -3.8252 H   0  0  0  0  0  0  0  0  0  0  0  0
  -36.0697    0.0149   -3.5421 H   0  0  0  0  0  0  0  0  0  0  0  0
  -36.3160   -2.4178   -3.7531 H   0  0  0  0  0  0  0  0  0  0  0  0
  -34.6124   -2.6250   -4.0814 H   0  0  0  0  0  0  0  0  0  0  0  0
  -35.1299   -1.8758   -2.5901 H   0  0  0  0  0  0  0  0  0  0  0  0
  -36.1281   -0.9742   -6.1380 H   0  0  0  0  0  0  0  0  0  0  0  0
  -37.6208   -2.2618   -4.8130 H   0  0  0  0  0  0  0  0  0  0  0  0
  -34.7682   -5.4555   -4.5707 H   0  0  0  0  0  0  0  0  0  0  0  0
  -33.5569   -8.4105   10.0761 H   0  0  0  0  0  0  0  0  0  0  0  0
  -32.1731   -7.6470    9.3309 H   0  0  0  0  0  0  0  0  0  0  0  0
  -31.8151  -13.9145    4.9401 H   0  0  0  0  0  0  0  0  0  0  0  0
  -33.9992  -13.7111    7.5013 H   0  0  0  0  0  0  0  0  0  0  0  0
  -31.7586  -14.9058    8.9791 H   0  0  0  0  0  0  0  0  0  0  0  0
  -32.6598  -13.5367   12.0732 H   0  0  0  0  0  0  0  0  0  0  0  0
  -31.2717  -13.7956   11.0441 H   0  0  0  0  0  0  0  0  0  0  0  0
  -32.8564  -10.0985   11.7618 H   0  0  0  0  0  0  0  0  0  0  0  0
  -33.8550  -11.5841   11.7887 H   0  0  0  0  0  0  0  0  0  0  0  0
  -33.6521  -11.0583   13.9678 H   0  0  0  0  0  0  0  0  0  0  0  0
  -32.2893  -12.1771   13.7410 H   0  0  0  0  0  0  0  0  0  0  0  0
  -31.3453   -9.3359   15.8731 H   0  0  0  0  0  0  0  0  0  0  0  0
  -32.9855   -9.9187   15.7201 H   0  0  0  0  0  0  0  0  0  0  0  0
  -29.9884  -11.0714   14.5130 H   0  0  0  0  0  0  0  0  0  0  0  0
  -30.3276  -10.9814   12.7857 H   0  0  0  0  0  0  0  0  0  0  0  0
  -30.0284   -8.4722   14.2893 H   0  0  0  0  0  0  0  0  0  0  0  0
  -28.5687   -9.4052   13.9380 H   0  0  0  0  0  0  0  0  0  0  0  0
  -29.2556   -6.7792   11.3729 H   0  0  0  0  0  0  0  0  0  0  0  0
  -30.0024   -6.7034   12.9508 H   0  0  0  0  0  0  0  0  0  0  0  0
  -27.6150   -8.7882   11.6711 H   0  0  0  0  0  0  0  0  0  0  0  0
  -28.5140  -10.3343   11.7498 H   0  0  0  0  0  0  0  0  0  0  0  0
  -29.1963   -8.2735    9.7759 H   0  0  0  0  0  0  0  0  0  0  0  0
  -27.7940   -9.3299    9.4976 H   0  0  0  0  0  0  0  0  0  0  0  0
  -29.8974  -12.3079    9.6509 H   0  0  0  0  0  0  0  0  0  0  0  0
  -28.2527  -11.7525    9.8495 H   0  0  0  0  0  0  0  0  0  0  0  0
  -31.1036   -9.4773   10.7130 H   0  0  0  0  0  0  0  0  0  0  0  0
  -31.4590   -9.3472    8.9916 H   0  0  0  0  0  0  0  0  0  0  0  0
  -31.4140  -11.9657    9.1976 H   0  0  0  0  0  0  0  0  0  0  0  0
  -32.8737  -11.0327    9.5489 H   0  0  0  0  0  0  0  0  0  0  0  0
  -35.1878  -15.8249    7.1483 H   0  0  0  0  0  0  0  0  0  0  0  0
  -34.0942  -16.6242    8.2520 H   0  0  0  0  0  0  0  0  0  0  0  0
  -33.8790  -15.4040   10.5547 H   0  0  0  0  0  0  0  0  0  0  0  0
  -35.1528  -14.4021   12.3689 H   0  0  0  0  0  0  0  0  0  0  0  0
  -37.5648  -13.9912   12.0975 H   0  0  0  0  0  0  0  0  0  0  0  0
  -38.3801  -13.9153    9.8466 H   0  0  0  0  0  0  0  0  0  0  0  0
  -37.2948  -15.3384    8.0827 H   0  0  0  0  0  0  0  0  0  0  0  0
  -29.9514  -10.3027    7.9876 H   0  0  0  0  0  0  0  0  0  0  0  0
  -29.0906  -11.1071    6.6973 H   0  0  0  0  0  0  0  0  0  0  0  0
  -27.0125  -10.3029    5.9621 H   0  0  0  0  0  0  0  0  0  0  0  0
  -25.1394   -8.7637    6.1618 H   0  0  0  0  0  0  0  0  0  0  0  0
  -23.9850   -7.0592    7.5213 H   0  0  0  0  0  0  0  0  0  0  0  0
  -27.2344   -6.5611    8.9500 H   0  0  0  0  0  0  0  0  0  0  0  0
  -28.9946   -8.3456    9.1280 H   0  0  0  0  0  0  0  0  0  0  0  0
  -29.6973   -8.5919    2.7180 H   0  0  0  0  0  0  0  0  0  0  0  0
  -31.9814   -8.5026    4.6713 H   0  0  0  0  0  0  0  0  0  0  0  0
  -33.4746   -8.7658    2.7016 H   0  0  0  0  0  0  0  0  0  0  0  0
  -32.0557   -8.8552    1.6858 H   0  0  0  0  0  0  0  0  0  0  0  0
  -32.1311   -9.5722    4.3411 H   0  0  0  0  0  0  0  0  0  0  0  0
  -29.1873   -9.1776    4.9715 H   0  0  0  0  0  0  0  0  0  0  0  0
  -27.7570  -10.5330    3.7113 H   0  0  0  0  0  0  0  0  0  0  0  0
  -27.4228  -12.5468    2.3883 H   0  0  0  0  0  0  0  0  0  0  0  0
  -29.3329  -13.5987    1.2456 H   0  0  0  0  0  0  0  0  0  0  0  0
  -31.5073  -13.0284    2.0726 H   0  0  0  0  0  0  0  0  0  0  0  0
  -33.0230   -6.9674    1.7018 H   0  0  0  0  0  0  0  0  0  0  0  0
  -33.6396   -4.5547    2.1082 H   0  0  0  0  0  0  0  0  0  0  0  0
  -32.1559   -4.3183    4.0442 H   0  0  0  0  0  0  0  0  0  0  0  0
  -30.7654   -4.4181    2.9908 H   0  0  0  0  0  0  0  0  0  0  0  0
  -31.2998   -2.0843    3.5132 H   0  0  0  0  0  0  0  0  0  0  0  0
  -31.5159   -2.4065    1.8095 H   0  0  0  0  0  0  0  0  0  0  0  0
  -33.4046   -1.1257    2.7028 H   0  0  0  0  0  0  0  0  0  0  0  0
  -33.9207   -2.7082    2.1715 H   0  0  0  0  0  0  0  0  0  0  0  0
  -34.8816   -2.1647    4.3594 H   0  0  0  0  0  0  0  0  0  0  0  0
  -33.7913   -3.5249    4.4784 H   0  0  0  0  0  0  0  0  0  0  0  0
  -33.4079   -1.9434    6.2158 H   0  0  0  0  0  0  0  0  0  0  0  0
  -32.0824   -2.0386    5.2116 H   0  0  0  0  0  0  0  0  0  0  0  0
  -33.9381   -3.7116   -0.1130 H   0  0  0  0  0  0  0  0  0  0  0  0
  -32.5373   -2.6051   -1.8964 H   0  0  0  0  0  0  0  0  0  0  0  0
  -33.9853   -2.6559   -3.8029 H   0  0  0  0  0  0  0  0  0  0  0  0
  -30.3545   -3.8666   -1.8643 H   0  0  0  0  0  0  0  0  0  0  0  0
  -30.9828   -6.0812   -2.9443 H   0  0  0  0  0  0  0  0  0  0  0  0
  -30.2506   -6.1298   -0.9304 H   0  0  0  0  0  0  0  0  0  0  0  0
  -31.0872   -5.0458    0.1551 H   0  0  0  0  0  0  0  0  0  0  0  0
  -31.9946   -6.1683   -0.8297 H   0  0  0  0  0  0  0  0  0  0  0  0
  -34.4727   -1.4461   -7.7418 H   0  0  0  0  0  0  0  0  0  0  0  0
  -32.1867  -10.1001    5.1510 H   0  0  0  0  0  0  0  0  0  0  0  0
  -30.6357   -8.5620    6.4142 H   0  0  0  0  0  0  0  0  0  0  0  0
  -34.4103  -13.3665    7.4344 H   0  0  0  0  0  0  0  0  0  0  0  0
  -32.9218  -13.1888    8.3321 H   0  0  0  0  0  0  0  0  0  0  0  0
  -33.4422  -12.0942    5.5772 H   0  0  0  0  0  0  0  0  0  0  0  0
  1102  1  0  0  0  0
  2103  1  1  0  0  0
  2  3  1  0  0  0  0
  2  1  1  0  0  0  0
  3104  1  0  0  0  0
  3105  1  0  0  0  0
  3106  1  0  0  0  0
  4 92  1  0  0  0  0
  4107  1  6  0  0  0
  4  5  1  0  0  0  0
  4  2  1  0  0  0  0
  5  6  1  0  0  0  0
  5108  1  0  0  0  0
  6  7  2  0  0  0  0
  8  6  1  0  0  0  0
  8  9  1  0  0  0  0
  8 88  1  0  0  0  0
  8109  1  6  0  0  0
  9 10  1  0  0  0  0
  9110  1  0  0  0  0
  9111  1  0  0  0  0
 10 11  1  0  0  0  0
 11 99  1  0  0  0  0
 12 13  1  0  0  0  0
 12112  1  0  0  0  0
 13 14  2  0  0  0  0
 15 44  1  0  0  0  0
 15113  1  6  0  0  0
 15 16  1  0  0  0  0
 15 13  1  0  0  0  0
 16 17  1  0  0  0  0
 16114  1  0  0  0  0
 17 18  1  0  0  0  0
 17 43  2  0  0  0  0
 18 19  1  0  0  0  0
 18115  1  0  0  0  0
 18116  1  0  0  0  0
 19 20  1  0  0  0  0
 19 42  1  0  0  0  0
 20 21  1  0  0  0  0
 20117  1  0  0  0  0
 20118  1  0  0  0  0
 21 22  1  0  0  0  0
 21119  1  0  0  0  0
 21120  1  0  0  0  0
 22 23  1  0  0  0  0
 22 27  1  0  0  0  0
 23 24  1  0  0  0  0
 23121  1  0  0  0  0
 23122  1  0  0  0  0
 24 25  2  0  0  0  0
 24 26  1  0  0  0  0
 27 28  1  0  0  0  0
 27123  1  0  0  0  0
 27124  1  0  0  0  0
 28 29  1  0  0  0  0
 28125  1  0  0  0  0
 28126  1  0  0  0  0
 29 30  1  0  0  0  0
 29 34  1  0  0  0  0
 30 31  1  0  0  0  0
 30127  1  0  0  0  0
 30128  1  0  0  0  0
 31 32  2  0  0  0  0
 31 33  1  0  0  0  0
 34 35  1  0  0  0  0
 34129  1  0  0  0  0
 34130  1  0  0  0  0
 35 36  1  0  0  0  0
 35131  1  0  0  0  0
 35132  1  0  0  0  0
 36 37  1  0  0  0  0
 36 41  1  0  0  0  0
 37 38  1  0  0  0  0
 37133  1  0  0  0  0
 37134  1  0  0  0  0
 38 39  2  0  0  0  0
 38 40  1  0  0  0  0
 41 42  1  0  0  0  0
 41135  1  0  0  0  0
 41136  1  0  0  0  0
 42137  1  0  0  0  0
 42138  1  0  0  0  0
 44 45  1  0  0  0  0
 44139  1  0  0  0  0
 44140  1  0  0  0  0
 45 46  2  0  0  0  0
 45 50  1  0  0  0  0
 46 47  1  0  0  0  0
 46141  1  0  0  0  0
 47 48  2  0  0  0  0
 47142  1  0  0  0  0
 48 49  1  0  0  0  0
 48143  1  0  0  0  0
 49 50  2  0  0  0  0
 49144  1  0  0  0  0
 50145  1  0  0  0  0
 51 52  1  0  0  0  0
 51146  1  0  0  0  0
 51147  1  0  0  0  0
 52 53  2  0  0  0  0
 52 58  1  0  0  0  0
 53 54  1  0  0  0  0
 53148  1  0  0  0  0
 54 55  2  0  0  0  0
 54149  1  0  0  0  0
 55 56  1  0  0  0  0
 55 57  1  0  0  0  0
 56150  1  0  0  0  0
 57 58  2  0  0  0  0
 57151  1  0  0  0  0
 58152  1  0  0  0  0
 59 60  2  0  0  0  0
 59 61  1  0  0  0  0
 59 98  1  0  0  0  0
 61 62  1  0  0  0  0
 61153  1  0  0  0  0
 62 73  1  0  0  0  0
 62154  1  1  0  0  0
 62 63  1  0  0  0  0
 63 64  1  0  0  0  0
 63155  1  0  0  0  0
 63156  1  0  0  0  0
 64 65  2  0  0  0  0
 64 72  1  0  0  0  0
 65 66  1  0  0  0  0
 65157  1  0  0  0  0
 66 67  1  0  0  0  0
 66158  1  0  0  0  0
 67 68  1  0  0  0  0
 67 72  2  0  0  0  0
 68159  1  0  0  0  0
 69 68  2  0  0  0  0
 69160  1  0  0  0  0
 70 69  1  0  0  0  0
 70161  1  0  0  0  0
 71 70  2  0  0  0  0
 71162  1  0  0  0  0
 72 71  1  0  0  0  0
 73 74  2  0  0  0  0
 73 75  1  0  0  0  0
 75 76  1  0  0  0  0
 75163  1  0  0  0  0
 76 77  1  0  0  0  0
 76 82  1  0  0  0  0
 76164  1  1  0  0  0
 77 78  1  0  0  0  0
 77165  1  0  0  0  0
 77166  1  0  0  0  0
 78 79  1  0  0  0  0
 78167  1  0  0  0  0
 78168  1  0  0  0  0
 79 80  1  0  0  0  0
 79169  1  0  0  0  0
 79170  1  0  0  0  0
 80 81  1  0  0  0  0
 80171  1  0  0  0  0
 80172  1  0  0  0  0
 81173  1  0  0  0  0
 81174  1  0  0  0  0
 82 83  2  0  0  0  0
 82 84  1  0  0  0  0
 84 85  1  0  0  0  0
 84175  1  0  0  0  0
 85 86  1  0  0  0  0
 85176  1  6  0  0  0
 86 87  2  0  0  0  0
 86 88  1  0  0  0  0
 88177  1  0  0  0  0
 89 91  1  0  0  0  0
 89178  1  1  0  0  0
 89 90  1  0  0  0  0
 89 85  1  0  0  0  0
 90179  1  0  0  0  0
 91180  1  0  0  0  0
 91181  1  0  0  0  0
 91182  1  0  0  0  0
 92 93  1  0  0  0  0
 92 94  2  0  0  0  0
 93183  1  0  0  0  0
 95 97  1  0  0  0  0
 95184  1  0  0  0  0
 97100  1  0  0  0  0
 97 96  2  0  0  0  0
 98 95  1  0  0  0  0
 98185  1  1  0  0  0
 98 51  1  0  0  0  0
 99186  1  0  0  0  0
 99187  1  0  0  0  0
100 12  1  0  0  0  0
100 99  1  0  0  0  0
100188  1  6  0  0  0
M  ISO  1 101  68
M  CHG  4  26  -1  33  -1  40  -1 101   3
M  END
>  <DRUGBANK_ID>
DB13925

>  <COMMON_NAME>
Dotatate gallium Ga-68

>  <CAS_NUMBER>
1027785-90-5

>  <UNII>
9L17Y0H71P

>  <SYNONYMS>
(68Ga)Gallium dotatate; 68Ga-DOTATATE; 68Ga-DOTATOC; DOTA-octreotate gallium Ga-68; Dotatate gallium Ga-68; Ga 68 DOTATOC; Gallium (68Ga) DOTA-tate; Gallium (68Ga) dotatate; Gallium (Ga 68) dotatate; Gallium 68 dotatate; Gallium dotatate, Ga-68; Gallium oxodotreotide Ga-68; Gallium-DOTA-octreotate Ga-68; Gallium-DOTA-octreotate, Ga-68; Gatate

$$$$
