2375
 OpenBabel10282417113D

 43 44  0  0  1  0  0  0  0  0999 V2000
    1.0942   -0.0251   -0.0363 S   0  0  0  0  0  0  0  0  0  0  0  0
    6.9953    0.0243    0.1049 F   0  0  0  0  0  0  0  0  0  0  0  0
    2.0544    6.5798    1.2944 F   0  0  0  0  0  0  0  0  0  0  0  0
    0.6426    7.4260    2.7088 F   0  0  0  0  0  0  0  0  0  0  0  0
    2.7202    8.0510    2.7234 F   0  0  0  0  0  0  0  0  0  0  0  0
    2.2872    2.5474    1.5178 O   0  0  0  0  0  0  0  0  0  0  0  0
    0.6512   -0.5427   -1.3175 O   0  0  0  0  0  0  0  0  0  0  0  0
    0.8055   -0.7485    1.1843 O   0  0  0  0  0  0  0  0  0  0  0  0
   -0.5166    0.9919    2.7267 O   0  0  0  0  0  0  0  0  0  0  0  0
    0.8113    2.3802    3.9022 N   0  0  0  0  0  0  0  0  0  0  0  0
    4.6226    7.9664    4.8628 N   0  0  0  0  0  0  0  0  0  0  0  0
    0.8780    2.4281    1.3406 C   0  0  3  0  0  0  0  0  0  0  0  0
    0.4867    1.6290    0.0963 C   0  0  0  0  0  0  0  0  0  0  0  0
    0.4032    3.8370    1.0170 C   0  0  0  0  0  0  0  0  0  0  0  0
    0.3114    1.9024    2.6948 C   0  0  0  0  0  0  0  0  0  0  0  0
    2.8811    0.0293   -0.1346 C   0  0  0  0  0  0  0  0  0  0  0  0
    1.6136    3.5137    4.1621 C   0  0  0  0  0  0  0  0  0  0  0  0
    3.6082    1.2193   -0.2576 C   0  0  0  0  0  0  0  0  0  0  0  0
    3.5632   -1.1795    0.0131 C   0  0  0  0  0  0  0  0  0  0  0  0
    1.2903    4.7542    3.6244 C   0  0  0  0  0  0  0  0  0  0  0  0
    4.9895    1.2301   -0.0735 C   0  0  0  0  0  0  0  0  0  0  0  0
    4.9598   -1.1783    0.0578 C   0  0  0  0  0  0  0  0  0  0  0  0
    2.7170    3.4629    5.0009 C   0  0  0  0  0  0  0  0  0  0  0  0
    2.1902    5.8352    3.5705 C   0  0  0  0  0  0  0  0  0  0  0  0
    5.6587    0.0256    0.0429 C   0  0  0  0  0  0  0  0  0  0  0  0
    3.2924    5.7831    4.4140 C   0  0  0  0  0  0  0  0  0  0  0  0
    3.5296    4.6073    5.1520 C   0  0  0  0  0  0  0  0  0  0  0  0
    1.9176    6.9662    2.5986 C   0  0  0  0  0  0  0  0  0  0  0  0
    4.0722    6.9573    4.6513 C   0  0  0  0  0  0  0  0  0  0  0  0
    2.6222    1.6955    1.8596 H   0  0  0  0  0  0  0  0  0  0  0  0
    0.6139    1.7488    4.6717 H   0  0  0  0  0  0  0  0  0  0  0  0
    0.8389    2.1333   -0.8164 H   0  0  0  0  0  0  0  0  0  0  0  0
   -0.6082    1.5883    0.0126 H   0  0  0  0  0  0  0  0  0  0  0  0
   -0.6402    4.0006    1.2987 H   0  0  0  0  0  0  0  0  0  0  0  0
    1.0699    4.5185    1.5048 H   0  0  0  0  0  0  0  0  0  0  0  0
    0.5854    4.1850   -0.0031 H   0  0  0  0  0  0  0  0  0  0  0  0
    3.1359    2.1827   -0.4188 H   0  0  0  0  0  0  0  0  0  0  0  0
    3.0131   -2.1174    0.0727 H   0  0  0  0  0  0  0  0  0  0  0  0
    0.3022    4.8946    3.1924 H   0  0  0  0  0  0  0  0  0  0  0  0
    5.5358    2.1688   -0.0353 H   0  0  0  0  0  0  0  0  0  0  0  0
    5.5106   -2.1106    0.1066 H   0  0  0  0  0  0  0  0  0  0  0  0
    2.9729    2.5543    5.5396 H   0  0  0  0  0  0  0  0  0  0  0  0
    4.3571    4.5811    5.8588 H   0  0  0  0  0  0  0  0  0  0  0  0
  1  7  2  0  0  0  0
  1  8  2  0  0  0  0
  1 13  1  0  0  0  0
  1 16  1  0  0  0  0
  2 25  1  0  0  0  0
  3 28  1  0  0  0  0
  4 28  1  0  0  0  0
  5 28  1  0  0  0  0
  6 12  1  0  0  0  0
  6 30  1  0  0  0  0
  9 15  2  0  0  0  0
 10 15  1  0  0  0  0
 10 17  1  0  0  0  0
 10 31  1  0  0  0  0
 11 29  3  0  0  0  0
 12 13  1  0  0  0  0
 12 14  1  0  0  0  0
 12 15  1  0  0  0  0
 13 32  1  0  0  0  0
 13 33  1  0  0  0  0
 14 34  1  0  0  0  0
 14 35  1  0  0  0  0
 14 36  1  0  0  0  0
 16 18  2  0  0  0  0
 16 19  1  0  0  0  0
 17 20  2  0  0  0  0
 17 23  1  0  0  0  0
 18 21  1  0  0  0  0
 18 37  1  0  0  0  0
 19 22  2  0  0  0  0
 19 38  1  0  0  0  0
 20 24  1  0  0  0  0
 20 39  1  0  0  0  0
 21 25  2  0  0  0  0
 21 40  1  0  0  0  0
 22 25  1  0  0  0  0
 22 41  1  0  0  0  0
 23 27  2  0  0  0  0
 23 42  1  0  0  0  0
 24 26  2  0  0  0  0
 24 28  1  0  0  0  0
 26 27  1  0  0  0  0
 26 29  1  0  0  0  0
 27 43  1  0  0  0  0
M  END
>  <DRUGBANK_ID>
DB01128

>  <SECONDARY_ACCESSION_NUMBERS>
APRD00042; DB06284

>  <COMMON_NAME>
Bicalutamide

>  <CAS_NUMBER>
90357-06-5

>  <UNII>
A0Z3NAU9DP

>  <SYNONYMS>
Bicalutamida; Bicalutamide; Bicalutamidum

$$$$
