
 OpenBabel10282417223D

 57 62  0  0  0  0  0  0  0  0999 V2000
    2.3124   -0.1205   -0.2233 N   0  0  0  0  0  0  0  0  0  0  0  0
    0.9348   -0.1099    0.0161 C   0  0  0  0  0  0  0  0  0  0  0  0
    0.3547    1.1104    0.0209 N   0  0  0  0  0  0  0  0  0  0  0  0
   -0.9970    1.1628    0.0193 C   0  0  0  0  0  0  0  0  0  0  0  0
   -1.8095    0.0444   -0.0112 C   0  0  0  0  0  0  0  0  0  0  0  0
   -1.1995   -1.2068    0.0222 C   0  0  0  0  0  0  0  0  0  0  0  0
    0.2009   -1.3034    0.0551 C   0  0  0  0  0  0  0  0  0  0  0  0
    0.8836   -2.6033    0.1627 C   0  0  0  0  0  0  0  0  0  0  0  0
    1.6787   -2.9531    1.1662 N   0  0  0  0  0  0  0  0  0  0  0  0
    2.0511   -4.2472    0.9110 C   0  0  0  0  0  0  0  0  0  0  0  0
    2.8771   -5.1057    1.6257 C   0  0  0  0  0  0  0  0  0  0  0  0
    3.1089   -6.3685    1.0800 C   0  0  0  0  0  0  0  0  0  0  0  0
    2.5143   -6.7401   -0.1365 C   0  0  0  0  0  0  0  0  0  0  0  0
    1.6948   -5.9298   -0.8542 N   0  0  0  0  0  0  0  0  0  0  0  0
    1.4965   -4.7175   -0.2787 C   0  0  0  0  0  0  0  0  0  0  0  0
    0.7740   -3.6472   -0.7441 N   0  0  0  0  0  0  0  0  0  0  0  0
    0.0342   -3.6054   -1.9323 C   0  0  0  0  0  0  0  0  0  0  0  0
    0.3341   -2.6235   -2.8653 C   0  0  0  0  0  0  0  0  0  0  0  0
   -0.4520   -2.5438   -4.0035 C   0  0  0  0  0  0  0  0  0  0  0  0
   -1.6189   -3.3194   -4.1504 C   0  0  0  0  0  0  0  0  0  0  0  0
   -1.9232   -4.2300   -3.1153 C   0  0  0  0  0  0  0  0  0  0  0  0
   -1.0514   -4.4557   -2.0595 C   0  0  0  0  0  0  0  0  0  0  0  0
   -2.4793   -3.2167   -5.4509 C   0  0  0  0  0  0  0  0  0  0  0  0
   -3.8141   -3.7970   -5.2391 N   0  0  0  0  0  0  0  0  0  0  0  0
   -1.8744   -3.7904   -6.7598 C   0  0  0  0  0  0  0  0  0  0  0  0
   -2.5325   -2.6284   -7.5292 C   0  0  0  0  0  0  0  0  0  0  0  0
   -2.6285   -1.8626   -6.1944 C   0  0  0  0  0  0  0  0  0  0  0  0
    2.7558   -8.0974   -0.6578 C   0  0  0  0  0  0  0  0  0  0  0  0
    2.3730   -9.2162    0.1053 C   0  0  0  0  0  0  0  0  0  0  0  0
    2.6560  -10.5162   -0.3163 C   0  0  0  0  0  0  0  0  0  0  0  0
    3.4264  -10.7194   -1.4561 C   0  0  0  0  0  0  0  0  0  0  0  0
    3.8558   -9.6246   -2.2045 C   0  0  0  0  0  0  0  0  0  0  0  0
    3.4576   -8.3282   -1.8518 C   0  0  0  0  0  0  0  0  0  0  0  0
    2.6801    0.8083   -0.0444 H   0  0  0  0  0  0  0  0  0  0  0  0
    2.7924   -0.8654    0.2716 H   0  0  0  0  0  0  0  0  0  0  0  0
   -1.4236    2.1627    0.0263 H   0  0  0  0  0  0  0  0  0  0  0  0
   -2.8893    0.1447   -0.0521 H   0  0  0  0  0  0  0  0  0  0  0  0
   -1.8217   -2.0976    0.0139 H   0  0  0  0  0  0  0  0  0  0  0  0
    3.3268   -4.7975    2.5623 H   0  0  0  0  0  0  0  0  0  0  0  0
    3.7585   -7.0646    1.6010 H   0  0  0  0  0  0  0  0  0  0  0  0
    1.1796   -1.9503   -2.7517 H   0  0  0  0  0  0  0  0  0  0  0  0
   -0.1419   -1.8644   -4.7920 H   0  0  0  0  0  0  0  0  0  0  0  0
   -2.8513   -4.7955   -3.1434 H   0  0  0  0  0  0  0  0  0  0  0  0
   -1.2702   -5.2377   -1.3399 H   0  0  0  0  0  0  0  0  0  0  0  0
   -4.3140   -3.3759   -4.4578 H   0  0  0  0  0  0  0  0  0  0  0  0
   -4.4447   -3.8159   -6.0337 H   0  0  0  0  0  0  0  0  0  0  0  0
   -0.7759   -3.7467   -6.7866 H   0  0  0  0  0  0  0  0  0  0  0  0
   -2.1707   -4.8003   -7.0568 H   0  0  0  0  0  0  0  0  0  0  0  0
   -1.9098   -2.1596   -8.2952 H   0  0  0  0  0  0  0  0  0  0  0  0
   -3.5040   -2.8841   -7.9624 H   0  0  0  0  0  0  0  0  0  0  0  0
   -3.5430   -1.2894   -6.0206 H   0  0  0  0  0  0  0  0  0  0  0  0
   -1.7850   -1.1731   -6.0603 H   0  0  0  0  0  0  0  0  0  0  0  0
    1.8501   -9.0729    1.0488 H   0  0  0  0  0  0  0  0  0  0  0  0
    2.2934  -11.3635    0.2592 H   0  0  0  0  0  0  0  0  0  0  0  0
    3.6899  -11.7291   -1.7608 H   0  0  0  0  0  0  0  0  0  0  0  0
    4.5081   -9.7809   -3.0608 H   0  0  0  0  0  0  0  0  0  0  0  0
    3.7304   -7.4963   -2.4979 H   0  0  0  0  0  0  0  0  0  0  0  0
  1  2  1  0  0  0  0
  1 34  1  0  0  0  0
  1 35  1  0  0  0  0
  2  3  2  0  0  0  0
  2  7  1  0  0  0  0
  3  4  1  0  0  0  0
  4  5  2  0  0  0  0
  4 36  1  0  0  0  0
  5  6  1  0  0  0  0
  5 37  1  0  0  0  0
  6  7  2  0  0  0  0
  6 38  1  0  0  0  0
  7  8  1  0  0  0  0
  8  9  2  0  0  0  0
  8 16  1  0  0  0  0
  9 10  1  0  0  0  0
 10 11  2  0  0  0  0
 10 15  1  0  0  0  0
 11 12  1  0  0  0  0
 11 39  1  0  0  0  0
 12 13  2  0  0  0  0
 12 40  1  0  0  0  0
 13 14  1  0  0  0  0
 13 28  1  0  0  0  0
 14 15  2  0  0  0  0
 15 16  1  0  0  0  0
 16 17  1  0  0  0  0
 17 18  2  0  0  0  0
 17 22  1  0  0  0  0
 18 19  1  0  0  0  0
 18 41  1  0  0  0  0
 19 20  2  0  0  0  0
 19 42  1  0  0  0  0
 20 21  1  0  0  0  0
 20 23  1  0  0  0  0
 21 22  2  0  0  0  0
 21 43  1  0  0  0  0
 22 44  1  0  0  0  0
 23 24  1  0  0  0  0
 23 25  1  0  0  0  0
 23 27  1  0  0  0  0
 24 45  1  0  0  0  0
 24 46  1  0  0  0  0
 25 26  1  0  0  0  0
 25 47  1  0  0  0  0
 25 48  1  0  0  0  0
 26 27  1  0  0  0  0
 26 49  1  0  0  0  0
 26 50  1  0  0  0  0
 27 51  1  0  0  0  0
 27 52  1  0  0  0  0
 28 29  2  0  0  0  0
 28 33  1  0  0  0  0
 29 30  1  0  0  0  0
 29 53  1  0  0  0  0
 30 31  2  0  0  0  0
 30 54  1  0  0  0  0
 31 32  1  0  0  0  0
 31 55  1  0  0  0  0
 32 33  2  0  0  0  0
 32 56  1  0  0  0  0
 33 57  1  0  0  0  0
M  END
>  <DRUGBANK_ID>
DB14982

>  <COMMON_NAME>
Miransertib

>  <CAS_NUMBER>
1313881-70-7

>  <UNII>
T1DQI1B52Y

>  <SYNONYMS>
3-{3-[4-(1-aminocyclobutyl)phenyl]-5-phenyl-3H-imidazo[4,5-b]pyridin-2-yl}pyridin-2-amine; ARQ 092; ARQ-092; ARQ092; Miransertib

$$$$
