
 OpenBabel10282417203D

 32 34  0  0  0  0  0  0  0  0999 V2000
   -0.3241    0.5314   -0.0186 C   0  0  0  0  0  0  0  0  0  0  0  0
   -0.2615   -0.8410    0.0222 C   0  0  0  0  0  0  0  0  0  0  0  0
    0.8398    1.2761   -0.0816 C   0  0  0  0  0  0  0  0  0  0  0  0
   -1.5904    1.0052   -0.0261 N   0  0  0  0  0  0  0  0  0  0  0  0
   -1.5955   -1.1974    0.0018 N   0  0  0  0  0  0  0  0  0  0  0  0
    0.9729   -1.5082    0.0296 C   0  0  0  0  0  0  0  0  0  0  0  0
    2.0979    0.7085    0.0274 C   0  0  0  0  0  0  0  0  0  0  0  0
   -2.3652   -0.0421   -0.0015 C   0  0  0  0  0  0  0  0  0  0  0  0
    2.1477   -0.7001    0.0491 C   0  0  0  0  0  0  0  0  0  0  0  0
    3.3567    1.5391    0.0822 C   0  0  0  0  0  0  0  0  0  0  0  0
   -3.7438   -0.0207    0.0048 N   0  0  0  0  0  0  0  0  0  0  0  0
    3.4081    3.0280   -0.1691 C   0  0  0  0  0  0  0  0  0  0  0  0
    4.4287    0.9376    0.1395 O   0  0  0  0  0  0  0  0  0  0  0  0
   -4.4223    1.1982    0.0205 C   0  0  0  0  0  0  0  0  0  0  0  0
    3.2475    4.3095    0.6224 C   0  0  0  0  0  0  0  0  0  0  0  0
    2.1129    3.8324   -0.1738 C   0  0  0  0  0  0  0  0  0  0  0  0
   -5.7919    1.1154    0.0295 O   0  0  0  0  0  0  0  0  0  0  0  0
   -3.9289    2.3092    0.0300 O   0  0  0  0  0  0  0  0  0  0  0  0
   -6.5350   -0.1030    0.0223 C   0  0  0  0  0  0  0  0  0  0  0  0
    0.6021    2.2943   -0.2592 H   0  0  0  0  0  0  0  0  0  0  0  0
   -1.9443   -2.1401   -0.0234 H   0  0  0  0  0  0  0  0  0  0  0  0
    1.0457   -2.5901    0.0223 H   0  0  0  0  0  0  0  0  0  0  0  0
    3.1202   -1.1979    0.0505 H   0  0  0  0  0  0  0  0  0  0  0  0
   -4.2448   -0.8858    0.0048 H   0  0  0  0  0  0  0  0  0  0  0  0
    4.2630    3.2173   -0.8190 H   0  0  0  0  0  0  0  0  0  0  0  0
    3.0817    4.3374    1.6920 H   0  0  0  0  0  0  0  0  0  0  0  0
    3.6202    5.2538    0.2266 H   0  0  0  0  0  0  0  0  0  0  0  0
    1.8052    4.1434   -1.1616 H   0  0  0  0  0  0  0  0  0  0  0  0
    1.2857    3.7225    0.5256 H   0  0  0  0  0  0  0  0  0  0  0  0
   -6.3242   -0.6662   -0.8896 H   0  0  0  0  0  0  0  0  0  0  0  0
   -6.3127   -0.6841    0.9203 H   0  0  0  0  0  0  0  0  0  0  0  0
   -7.5987    0.1551    0.0317 H   0  0  0  0  0  0  0  0  0  0  0  0
  1  2  2  0  0  0  0
  1  3  1  0  0  0  0
  1  4  1  0  0  0  0
  2  5  1  0  0  0  0
  2  6  1  0  0  0  0
  3  7  2  0  0  0  0
  3 20  1  0  0  0  0
  4  8  2  0  0  0  0
  5  8  1  0  0  0  0
  5 21  1  0  0  0  0
  6  9  2  0  0  0  0
  6 22  1  0  0  0  0
  7 10  1  0  0  0  0
  7  9  1  0  0  0  0
  8 11  1  0  0  0  0
  9 23  1  0  0  0  0
 10 12  1  0  0  0  0
 10 13  2  0  0  0  0
 11 14  1  0  0  0  0
 11 24  1  0  0  0  0
 12 15  1  0  0  0  0
 12 16  1  0  0  0  0
 12 25  1  0  0  0  0
 14 17  1  0  0  0  0
 14 18  2  0  0  0  0
 15 16  1  0  0  0  0
 15 26  1  0  0  0  0
 15 27  1  0  0  0  0
 16 28  1  0  0  0  0
 16 29  1  0  0  0  0
 17 19  1  0  0  0  0
 19 30  1  0  0  0  0
 19 31  1  0  0  0  0
 19 32  1  0  0  0  0
M  END
>  <DRUGBANK_ID>
DB13465

>  <COMMON_NAME>
Ciclobendazole

>  <CAS_NUMBER>
31431-43-3

>  <UNII>
JF3KQ40J31

>  <SYNONYMS>
Ciclobendazol; Ciclobendazole; Ciclobendazolum; Cyclobendazole

$$$$
