
 OpenBabel10282417123D

 26 28  0  0  0  0  0  0  0  0999 V2000
    1.0590   -0.0517   -0.2085 N   0  0  0  0  0  0  0  0  0  0  0  0
    0.3304    1.1455   -0.2266 C   0  0  0  0  0  0  0  0  0  0  0  0
    0.7537    2.1390   -1.1160 C   0  0  0  0  0  0  0  0  0  0  0  0
    0.0625    3.3412   -1.2349 C   0  0  0  0  0  0  0  0  0  0  0  0
   -1.0493    3.5889   -0.4345 C   0  0  0  0  0  0  0  0  0  0  0  0
   -1.4399    2.6565    0.5362 C   0  0  0  0  0  0  0  0  0  0  0  0
   -0.7459    1.4276    0.6544 C   0  0  0  0  0  0  0  0  0  0  0  0
   -1.1080    0.5668    1.7069 C   0  0  0  0  0  0  0  0  0  0  0  0
   -1.9117    1.0294    2.7562 C   0  0  0  0  0  0  0  0  0  0  0  0
   -1.9621    0.3295    3.9702 C   0  0  0  0  0  0  0  0  0  0  0  0
   -2.6561    0.8586    5.0575 C   0  0  0  0  0  0  0  0  0  0  0  0
   -3.3442    2.0610    4.9266 C   0  0  0  0  0  0  0  0  0  0  0  0
   -3.3391    2.7437    3.7083 C   0  0  0  0  0  0  0  0  0  0  0  0
   -2.5998    2.2466    2.6228 C   0  0  0  0  0  0  0  0  0  0  0  0
   -2.4624    2.9836    1.4403 C   0  0  0  0  0  0  0  0  0  0  0  0
    0.6244   -0.8538    0.2275 H   0  0  0  0  0  0  0  0  0  0  0  0
    2.0547    0.0411   -0.0329 H   0  0  0  0  0  0  0  0  0  0  0  0
    1.6208    1.9579   -1.7454 H   0  0  0  0  0  0  0  0  0  0  0  0
    0.3948    4.0877   -1.9506 H   0  0  0  0  0  0  0  0  0  0  0  0
   -1.5579    4.5456   -0.5224 H   0  0  0  0  0  0  0  0  0  0  0  0
   -0.6676   -0.4190    1.7820 H   0  0  0  0  0  0  0  0  0  0  0  0
   -1.3987   -0.5907    4.0979 H   0  0  0  0  0  0  0  0  0  0  0  0
   -2.6385    0.3391    6.0118 H   0  0  0  0  0  0  0  0  0  0  0  0
   -3.8673    2.4830    5.7805 H   0  0  0  0  0  0  0  0  0  0  0  0
   -3.8509    3.6992    3.6355 H   0  0  0  0  0  0  0  0  0  0  0  0
   -3.0656    3.8734    1.2854 H   0  0  0  0  0  0  0  0  0  0  0  0
  1  2  1  0  0  0  0
  1 16  1  0  0  0  0
  1 17  1  0  0  0  0
  2  3  2  0  0  0  0
  2  7  1  0  0  0  0
  3  4  1  0  0  0  0
  3 18  1  0  0  0  0
  4  5  2  0  0  0  0
  4 19  1  0  0  0  0
  5  6  1  0  0  0  0
  5 20  1  0  0  0  0
  6  7  2  0  0  0  0
  6 15  1  0  0  0  0
  7  8  1  0  0  0  0
  8  9  2  0  0  0  0
  8 21  1  0  0  0  0
  9 10  1  0  0  0  0
  9 14  1  0  0  0  0
 10 11  2  0  0  0  0
 10 22  1  0  0  0  0
 11 12  1  0  0  0  0
 11 23  1  0  0  0  0
 12 13  2  0  0  0  0
 12 24  1  0  0  0  0
 13 14  1  0  0  0  0
 13 25  1  0  0  0  0
 14 15  2  0  0  0  0
 15 26  1  0  0  0  0
M  END
>  <DRUGBANK_ID>
DB01976

>  <SECONDARY_ACCESSION_NUMBERS>
EXPT00518

>  <COMMON_NAME>
Aminoanthracene

>  <CAS_NUMBER>
62813-37-0

>  <UNII>
8H6056DWN2

$$$$
