
 OpenBabel10282417233D

 70 74  0  0  0  0  0  0  0  0999 V2000
    0.9376   -0.3203    0.1310 C   0  0  0  0  0  0  0  0  0  0  0  0
    0.2789   -0.7274    1.3828 N   0  0  0  0  0  0  0  0  0  0  0  0
    0.1365    0.2737    2.3456 N   0  0  0  0  0  0  0  0  0  0  0  0
    0.2170   -0.3117    3.5791 C   0  0  0  0  0  0  0  0  0  0  0  0
    0.4629    0.2601    4.6424 O   0  0  0  0  0  0  0  0  0  0  0  0
    0.0224   -1.7701    3.4513 C   0  0  0  0  0  0  0  0  0  0  0  0
   -0.2987   -2.6511    4.6550 C   0  0  0  0  0  0  0  0  0  0  0  0
   -0.0978   -3.8681    4.5851 O   0  0  0  0  0  0  0  0  0  0  0  0
   -0.8043   -2.1566    5.8750 N   0  0  0  0  0  0  0  0  0  0  0  0
   -1.3047   -0.8722    6.2115 C   0  0  0  0  0  0  0  0  0  0  0  0
   -2.0966   -0.2028    5.2958 C   0  0  0  0  0  0  0  0  0  0  0  0
   -2.1941    1.1798    5.3577 C   0  0  0  0  0  0  0  0  0  0  0  0
   -2.6763    1.7683    4.2569 F   0  0  0  0  0  0  0  0  0  0  0  0
   -1.7477    1.9221    6.4553 C   0  0  0  0  0  0  0  0  0  0  0  0
   -1.9171    3.2965    6.5902 O   0  0  0  0  0  0  0  0  0  0  0  0
   -2.7502    3.9867    5.7101 C   0  0  0  0  0  0  0  0  0  0  0  0
   -2.2433    5.1450    5.1418 C   0  0  0  0  0  0  0  0  0  0  0  0
   -3.0374    5.8268    4.2315 C   0  0  0  0  0  0  0  0  0  0  0  0
   -4.2744    5.4400    3.8451 N   0  0  0  0  0  0  0  0  0  0  0  0
   -4.8061    4.3624    4.4429 C   0  0  0  0  0  0  0  0  0  0  0  0
   -4.0901    3.6423    5.4314 C   0  0  0  0  0  0  0  0  0  0  0  0
   -4.7462    2.6211    6.1121 C   0  0  0  0  0  0  0  0  0  0  0  0
   -6.0717    2.3402    5.8595 C   0  0  0  0  0  0  0  0  0  0  0  0
   -6.7068    2.8708    4.7546 C   0  0  0  0  0  0  0  0  0  0  0  0
   -7.8669    2.3558    4.2451 O   0  0  0  0  0  0  0  0  0  0  0  0
   -8.3362    1.0883    4.7703 C   0  0  0  0  0  0  0  0  0  0  0  0
   -7.5335   -0.1928    4.3443 C   0  0  0  0  0  0  0  0  0  0  0  0
   -6.0606   -0.2468    4.7558 C   0  0  0  0  0  0  0  0  0  0  0  0
   -8.1764   -1.4390    4.9581 C   0  0  0  0  0  0  0  0  0  0  0  0
   -7.5921   -0.3171    2.9209 O   0  0  0  0  0  0  0  0  0  0  0  0
   -6.0903    3.9304    4.0886 C   0  0  0  0  0  0  0  0  0  0  0  0
   -1.0974    1.2188    7.4851 C   0  0  0  0  0  0  0  0  0  0  0  0
   -0.8654   -0.1795    7.3605 C   0  0  0  0  0  0  0  0  0  0  0  0
    0.3752   -1.9549    2.1359 C   0  0  0  0  0  0  0  0  0  0  0  0
    0.8102   -3.2669    1.5135 C   0  0  0  0  0  0  0  0  0  0  0  0
   -0.0890    1.6523    2.1569 C   0  0  0  0  0  0  0  0  0  0  0  0
   -1.0125    2.1351    1.2282 C   0  0  0  0  0  0  0  0  0  0  0  0
   -1.3324    3.4983    1.2064 C   0  0  0  0  0  0  0  0  0  0  0  0
   -0.7385    4.3805    2.1096 C   0  0  0  0  0  0  0  0  0  0  0  0
    0.1463    3.9025    3.0651 C   0  0  0  0  0  0  0  0  0  0  0  0
    0.4913    2.5575    3.0616 C   0  0  0  0  0  0  0  0  0  0  0  0
    0.6350    0.6951   -0.1627 H   0  0  0  0  0  0  0  0  0  0  0  0
    0.6289   -0.9477   -0.7090 H   0  0  0  0  0  0  0  0  0  0  0  0
    2.0324   -0.2826    0.1902 H   0  0  0  0  0  0  0  0  0  0  0  0
   -0.7600   -2.8226    6.6398 H   0  0  0  0  0  0  0  0  0  0  0  0
   -2.4785   -0.6917    4.4098 H   0  0  0  0  0  0  0  0  0  0  0  0
   -1.2498    5.5026    5.3795 H   0  0  0  0  0  0  0  0  0  0  0  0
   -2.6821    6.7344    3.7514 H   0  0  0  0  0  0  0  0  0  0  0  0
   -4.2354    1.9755    6.8168 H   0  0  0  0  0  0  0  0  0  0  0  0
   -6.5198    1.5717    6.4685 H   0  0  0  0  0  0  0  0  0  0  0  0
   -8.4657    1.1561    5.8587 H   0  0  0  0  0  0  0  0  0  0  0  0
   -9.3573    0.9867    4.3763 H   0  0  0  0  0  0  0  0  0  0  0  0
   -5.9658   -0.2587    5.8480 H   0  0  0  0  0  0  0  0  0  0  0  0
   -5.5384   -1.1403    4.4054 H   0  0  0  0  0  0  0  0  0  0  0  0
   -5.5060    0.5704    4.2944 H   0  0  0  0  0  0  0  0  0  0  0  0
   -9.1882   -1.6020    4.5798 H   0  0  0  0  0  0  0  0  0  0  0  0
   -7.5905   -2.3285    4.6941 H   0  0  0  0  0  0  0  0  0  0  0  0
   -8.2042   -1.3702    6.0516 H   0  0  0  0  0  0  0  0  0  0  0  0
   -6.9344   -0.9808    2.6529 H   0  0  0  0  0  0  0  0  0  0  0  0
   -6.6171    4.4374    3.2828 H   0  0  0  0  0  0  0  0  0  0  0  0
   -0.6989    1.7546    8.3482 H   0  0  0  0  0  0  0  0  0  0  0  0
   -0.2262   -0.6646    8.0983 H   0  0  0  0  0  0  0  0  0  0  0  0
    1.6502   -3.7155    2.0672 H   0  0  0  0  0  0  0  0  0  0  0  0
    0.0042   -4.0065    1.4960 H   0  0  0  0  0  0  0  0  0  0  0  0
    1.1715   -3.1526    0.4831 H   0  0  0  0  0  0  0  0  0  0  0  0
   -1.5531    1.4539    0.5780 H   0  0  0  0  0  0  0  0  0  0  0  0
   -2.0853    3.8714    0.5170 H   0  0  0  0  0  0  0  0  0  0  0  0
   -0.9931    5.4358    2.0910 H   0  0  0  0  0  0  0  0  0  0  0  0
    0.5407    4.5535    3.8398 H   0  0  0  0  0  0  0  0  0  0  0  0
    1.2123    2.2175    3.8018 H   0  0  0  0  0  0  0  0  0  0  0  0
  1  2  1  0  0  0  0
  1 42  1  0  0  0  0
  1 43  1  0  0  0  0
  1 44  1  0  0  0  0
  2  3  1  0  0  0  0
  2 34  1  0  0  0  0
  3  4  1  0  0  0  0
  3 36  1  0  0  0  0
  4  5  2  0  0  0  0
  4  6  1  0  0  0  0
  6  7  1  0  0  0  0
  6 34  2  0  0  0  0
  7  8  2  0  0  0  0
  7  9  1  0  0  0  0
  9 10  1  0  0  0  0
  9 45  1  0  0  0  0
 10 11  2  0  0  0  0
 10 33  1  0  0  0  0
 11 12  1  0  0  0  0
 11 46  1  0  0  0  0
 12 13  1  0  0  0  0
 12 14  2  0  0  0  0
 14 15  1  0  0  0  0
 14 32  1  0  0  0  0
 15 16  1  0  0  0  0
 16 17  2  0  0  0  0
 16 21  1  0  0  0  0
 17 18  1  0  0  0  0
 17 47  1  0  0  0  0
 18 19  2  0  0  0  0
 18 48  1  0  0  0  0
 19 20  1  0  0  0  0
 20 21  2  0  0  0  0
 20 31  1  0  0  0  0
 21 22  1  0  0  0  0
 22 23  2  0  0  0  0
 22 49  1  0  0  0  0
 23 24  1  0  0  0  0
 23 50  1  0  0  0  0
 24 25  1  0  0  0  0
 24 31  2  0  0  0  0
 25 26  1  0  0  0  0
 26 27  1  0  0  0  0
 26 51  1  0  0  0  0
 26 52  1  0  0  0  0
 27 28  1  0  0  0  0
 27 29  1  0  0  0  0
 27 30  1  0  0  0  0
 28 53  1  0  0  0  0
 28 54  1  0  0  0  0
 28 55  1  0  0  0  0
 29 56  1  0  0  0  0
 29 57  1  0  0  0  0
 29 58  1  0  0  0  0
 30 59  1  0  0  0  0
 31 60  1  0  0  0  0
 32 33  2  0  0  0  0
 32 61  1  0  0  0  0
 33 62  1  0  0  0  0
 34 35  1  0  0  0  0
 35 63  1  0  0  0  0
 35 64  1  0  0  0  0
 35 65  1  0  0  0  0
 36 37  2  0  0  0  0
 36 41  1  0  0  0  0
 37 38  1  0  0  0  0
 37 66  1  0  0  0  0
 38 39  2  0  0  0  0
 38 67  1  0  0  0  0
 39 40  1  0  0  0  0
 39 68  1  0  0  0  0
 40 41  2  0  0  0  0
 40 69  1  0  0  0  0
 41 70  1  0  0  0  0
M  END
>  <DRUGBANK_ID>
DB16256

>  <COMMON_NAME>
Ningetinib

>  <CAS_NUMBER>
1394820-69-9

>  <UNII>
PW3Q92Z6A4

>  <SYNONYMS>
Ct-053 free base; Ct-053-ptsa free base; Ct053ptsa free base

$$$$
