
 OpenBabel10282417223D

  4  3  0  0  0  0  0  0  0  0999 V2000
    1.0711   -0.0648    0.1316 O   0  5  0  0  0  0  0  0  0  0  0  0
    2.6844    0.0453   -0.0015 S   0  0  0  0  0  0  0  0  0  0  0  0
    3.1491   -0.9944    1.2556 C   0  0  0  0  0  0  0  0  0  0  0  0
    3.5253   -1.6957    2.1036 N   0  0  0  0  0  0  0  0  0  0  0  0
  1  2  1  0  0  0  0
  2  3  1  0  0  0  0
  3  4  3  0  0  0  0
M  CHG  1   1  -1
M  END
>  <DRUGBANK_ID>
DB15309

>  <COMMON_NAME>
Hypothiocyanite ion

>  <CAS_NUMBER>
63296-34-4

>  <UNII>
N84CZ7T0OY

>  <SYNONYMS>
HYPOTHIOCYANITE

$$$$
