
 OpenBabel10282417213D

 28 30  0  0  0  0  0  0  0  0999 V2000
    2.6067   -0.4649   -0.0149 C   0  0  0  0  0  0  0  0  0  0  0  0
    2.3827    0.9113   -0.0212 C   0  0  0  0  0  0  0  0  0  0  0  0
    1.5322   -1.3693   -0.0131 C   0  0  0  0  0  0  0  0  0  0  0  0
    1.0850    1.4108    0.0080 C   0  0  0  0  0  0  0  0  0  0  0  0
   -4.6841    0.6971   -1.2827 C   0  0  0  0  0  0  0  0  0  0  0  0
   -5.6584    0.2829    0.8800 C   0  0  0  0  0  0  0  0  0  0  0  0
   -4.4205    2.1528   -0.8518 C   0  0  0  0  0  0  0  0  0  0  0  0
   -5.3019    1.7164    1.2906 C   0  0  0  0  0  0  0  0  0  0  0  0
    0.2098   -0.8909    0.0131 C   0  0  0  0  0  0  0  0  0  0  0  0
    0.0290    0.4920    0.0632 C   0  0  0  0  0  0  0  0  0  0  0  0
   -2.0181   -0.8447    0.0932 C   0  0  0  0  0  0  0  0  0  0  0  0
   -0.9716   -1.6398    0.0046 N   0  0  0  0  0  0  0  0  0  0  0  0
   -4.6918   -0.2026   -0.1197 N   0  0  0  0  0  0  0  0  0  0  0  0
   -5.3476    2.5908    0.1488 O   0  0  0  0  0  0  0  0  0  0  0  0
   -1.6229    0.8044    0.2660 S   0  0  0  0  0  0  0  0  0  0  0  0
   -3.6752   -1.4953    0.1049 S   0  0  0  0  0  0  0  0  0  0  0  0
    3.6271   -0.8376   -0.0114 H   0  0  0  0  0  0  0  0  0  0  0  0
    3.2215    1.6033   -0.0290 H   0  0  0  0  0  0  0  0  0  0  0  0
    1.7156   -2.4407   -0.0130 H   0  0  0  0  0  0  0  0  0  0  0  0
    0.8954    2.4822    0.0203 H   0  0  0  0  0  0  0  0  0  0  0  0
   -5.6690    0.6555   -1.7670 H   0  0  0  0  0  0  0  0  0  0  0  0
   -3.9557    0.3755   -2.0355 H   0  0  0  0  0  0  0  0  0  0  0  0
   -6.6640    0.2893    0.4343 H   0  0  0  0  0  0  0  0  0  0  0  0
   -5.7118   -0.3656    1.7615 H   0  0  0  0  0  0  0  0  0  0  0  0
   -3.4292    2.3070   -0.4410 H   0  0  0  0  0  0  0  0  0  0  0  0
   -4.4729    2.8212   -1.7145 H   0  0  0  0  0  0  0  0  0  0  0  0
   -6.0230    2.0982    2.0192 H   0  0  0  0  0  0  0  0  0  0  0  0
   -4.3101    1.7564    1.7587 H   0  0  0  0  0  0  0  0  0  0  0  0
  1 17  1  0  0  0  0
  2  1  2  0  0  0  0
  2 18  1  0  0  0  0
  3  1  1  0  0  0  0
  3 19  1  0  0  0  0
  4  2  1  0  0  0  0
  4 20  1  0  0  0  0
  5 21  1  0  0  0  0
  5 22  1  0  0  0  0
  6 23  1  0  0  0  0
  6 24  1  0  0  0  0
  7  5  1  0  0  0  0
  7 25  1  0  0  0  0
  7 26  1  0  0  0  0
  8  6  1  0  0  0  0
  8 27  1  0  0  0  0
  8 28  1  0  0  0  0
  9  3  2  0  0  0  0
 10  4  2  0  0  0  0
 10  9  1  0  0  0  0
 12  9  1  0  0  0  0
 12 11  2  0  0  0  0
 13  5  1  0  0  0  0
 13  6  1  0  0  0  0
 14  7  1  0  0  0  0
 14  8  1  0  0  0  0
 15 10  1  0  0  0  0
 15 11  1  0  0  0  0
 16 11  1  0  0  0  0
 16 13  1  0  0  0  0
M  END
>  <DRUGBANK_ID>
DB14202

>  <COMMON_NAME>
Morpholinylmercaptobenzothiazole

>  <CAS_NUMBER>
102-77-2

>  <UNII>
VCD7623F3K

>  <SYNONYMS>
2-(4-Morpholino)thiobenzothiazole; 2-Benzothiazolylsulfenylmorpholine; 4-(1,3-benzothiazol-2-ylsulfanyl)morpholine; MBS; Morpholinylmercapto-benzo-thiazole; N-(oxydiethylene)benzothiazole-2-sulfenamide; N-Oxydiethylene-2-benzothiazole sulfenamide

$$$$
