
 OpenBabel10282417193D

 79 83  0  0  1  0  0  0  0  0999 V2000
   -0.3515    1.1374   -8.0079 C   0  0  0  0  0  0  0  0  0  0  0  0
   -1.5459    1.9990   -7.8336 C   0  0  0  0  0  0  0  0  0  0  0  0
   -2.3866    2.0866   -9.0272 C   0  0  0  0  0  0  0  0  0  0  0  0
   -3.4779    2.9308   -9.1193 C   0  0  0  0  0  0  0  0  0  0  0  0
   -3.6454    3.8303   -8.0670 C   0  0  0  0  0  0  0  0  0  0  0  0
   -2.7919    3.7352   -6.8060 C   0  0  0  0  0  0  0  0  0  0  0  0
   -1.8523    2.6406   -6.5901 C   0  0  0  0  0  0  0  0  0  0  0  0
   -1.7477    1.7105   -5.0190 C   0  0  1  0  0  0  0  0  0  0  0  0
   -2.9439    0.8487   -4.0498 C   0  0  0  0  0  0  0  0  0  0  0  0
   -3.4992   -0.5650   -4.5646 C   0  0  2  0  0  0  0  0  0  0  0  0
   -2.2055   -1.3965   -4.8595 C   0  0  0  0  0  0  0  0  0  0  0  0
   -1.1304   -0.6622   -5.6439 C   0  0  0  0  0  0  0  0  0  0  0  0
   -0.6925    0.6513   -5.1000 N   0  0  0  0  0  0  0  0  0  0  0  0
    0.5084    1.0335   -4.5598 C   0  0  0  0  0  0  0  0  0  0  0  0
    0.4694    1.9609   -3.7464 O   0  0  0  0  0  0  0  0  0  0  0  0
    1.6999    0.4807   -4.9925 N   0  0  0  0  0  0  0  0  0  0  0  0
    1.8965   -0.7092   -5.8028 C   0  0  0  0  0  0  0  0  0  0  0  0
    2.9899    0.9731   -4.4586 C   0  0  2  0  0  0  0  0  0  0  0  0
    3.5954   -0.1535   -3.5881 C   0  0  0  0  0  0  0  0  0  0  0  0
    3.0068    2.3566   -3.8365 C   0  0  0  0  0  0  0  0  0  0  0  0
    3.4940    2.5367   -2.5447 C   0  0  0  0  0  0  0  0  0  0  0  0
    3.5474    3.7786   -1.9303 C   0  0  0  0  0  0  0  0  0  0  0  0
    3.0181    4.8805   -2.5920 C   0  0  0  0  0  0  0  0  0  0  0  0
    2.5283    4.7513   -3.8980 C   0  0  0  0  0  0  0  0  0  0  0  0
    2.5150    3.4882   -4.5102 C   0  0  0  0  0  0  0  0  0  0  0  0
    2.1197    5.9650   -4.6820 C   0  0  0  0  0  0  0  0  0  0  0  0
    2.8071    6.0457   -5.8562 F   0  0  0  0  0  0  0  0  0  0  0  0
    0.8022    5.9992   -5.0066 F   0  0  0  0  0  0  0  0  0  0  0  0
    2.3825    7.1294   -4.0240 F   0  0  0  0  0  0  0  0  0  0  0  0
    4.2622    3.8902   -0.6181 C   0  0  0  0  0  0  0  0  0  0  0  0
    5.3320    4.7256   -0.7067 F   0  0  0  0  0  0  0  0  0  0  0  0
    3.4756    4.3610    0.3804 F   0  0  0  0  0  0  0  0  0  0  0  0
    4.7662    2.7006   -0.1755 F   0  0  0  0  0  0  0  0  0  0  0  0
   -4.4206   -0.6122   -5.7573 N   0  0  3  0  0  0  0  0  0  0  0  0
   -3.8301    0.2939   -6.6721 C   0  0  0  0  0  0  0  0  0  0  0  0
   -4.2288    1.6972   -6.3365 C   0  0  0  0  0  0  0  0  0  0  0  0
   -5.4701    2.2184   -6.0983 N   0  0  0  0  0  0  0  0  0  0  0  0
   -6.2367    1.3270   -5.3524 C   0  0  2  0  0  0  0  0  0  0  0  0
   -5.8678   -0.1344   -5.8216 C   0  0  0  0  0  0  0  0  0  0  0  0
   -7.5634    1.9719   -5.6922 C   0  0  0  0  0  0  0  0  0  0  0  0
   -7.3105    3.4185   -6.1854 C   0  0  0  0  0  0  0  0  0  0  0  0
   -5.8822    3.5336   -5.9623 C   0  0  0  0  0  0  0  0  0  0  0  0
   -5.3077    4.6409   -5.8856 O   0  0  0  0  0  0  0  0  0  0  0  0
   -4.5060    2.6094   -9.9383 F   0  0  0  0  0  0  0  0  0  0  0  0
   -0.6384    0.1537   -8.3878 H   0  0  0  0  0  0  0  0  0  0  0  0
    0.3459    1.6260   -8.6795 H   0  0  0  0  0  0  0  0  0  0  0  0
    0.1857    1.0344   -7.0849 H   0  0  0  0  0  0  0  0  0  0  0  0
   -2.2875    1.3308   -9.8071 H   0  0  0  0  0  0  0  0  0  0  0  0
   -4.6974    4.1806   -8.0273 H   0  0  0  0  0  0  0  0  0  0  0  0
   -3.2178    4.1898   -5.9010 H   0  0  0  0  0  0  0  0  0  0  0  0
   -1.5090    2.5417   -4.3310 H   0  0  0  0  0  0  0  0  0  0  0  0
   -3.7816    1.4741   -3.7258 H   0  0  0  0  0  0  0  0  0  0  0  0
   -2.4354    0.6114   -3.0947 H   0  0  0  0  0  0  0  0  0  0  0  0
   -4.0153   -1.1178   -3.7703 H   0  0  0  0  0  0  0  0  0  0  0  0
   -1.7295   -1.7416   -3.9315 H   0  0  0  0  0  0  0  0  0  0  0  0
   -2.4349   -2.3018   -5.4416 H   0  0  0  0  0  0  0  0  0  0  0  0
   -0.4063   -1.4371   -5.7847 H   0  0  0  0  0  0  0  0  0  0  0  0
   -1.4205   -0.5299   -6.6771 H   0  0  0  0  0  0  0  0  0  0  0  0
    2.6006   -0.5050   -6.6073 H   0  0  0  0  0  0  0  0  0  0  0  0
    2.2297   -1.5310   -5.1607 H   0  0  0  0  0  0  0  0  0  0  0  0
    1.0521   -1.0546   -6.3419 H   0  0  0  0  0  0  0  0  0  0  0  0
    3.6435    1.0793   -5.3407 H   0  0  0  0  0  0  0  0  0  0  0  0
    2.7977   -0.7531   -3.1334 H   0  0  0  0  0  0  0  0  0  0  0  0
    4.2094   -0.8107   -4.2122 H   0  0  0  0  0  0  0  0  0  0  0  0
    4.2643    0.1442   -2.7870 H   0  0  0  0  0  0  0  0  0  0  0  0
    3.8394    1.7047   -1.9471 H   0  0  0  0  0  0  0  0  0  0  0  0
    3.0234    5.8510   -2.1000 H   0  0  0  0  0  0  0  0  0  0  0  0
    2.0208    3.3783   -5.4784 H   0  0  0  0  0  0  0  0  0  0  0  0
   -2.7995    0.3734   -6.5009 H   0  0  0  0  0  0  0  0  0  0  0  0
   -3.7833   -0.0302   -7.7187 H   0  0  0  0  0  0  0  0  0  0  0  0
   -3.7305    2.1438   -5.5049 H   0  0  0  0  0  0  0  0  0  0  0  0
   -4.0593    2.0105   -7.2991 H   0  0  0  0  0  0  0  0  0  0  0  0
   -5.9405    1.4622   -4.3045 H   0  0  0  0  0  0  0  0  0  0  0  0
   -6.0704   -0.1179   -6.9189 H   0  0  0  0  0  0  0  0  0  0  0  0
   -6.5448   -0.8781   -5.4282 H   0  0  0  0  0  0  0  0  0  0  0  0
   -8.0369    1.4237   -6.5028 H   0  0  0  0  0  0  0  0  0  0  0  0
   -8.1548    2.0229   -4.7863 H   0  0  0  0  0  0  0  0  0  0  0  0
   -7.4302    3.5293   -7.2759 H   0  0  0  0  0  0  0  0  0  0  0  0
   -7.8380    4.2133   -5.6606 H   0  0  0  0  0  0  0  0  0  0  0  0
  1  2  1  0  0  0  0
  1 45  1  0  0  0  0
  1 46  1  0  0  0  0
  1 47  1  0  0  0  0
  2  3  2  0  0  0  0
  2  7  1  0  0  0  0
  3  4  1  0  0  0  0
  3 48  1  0  0  0  0
  4  5  2  0  0  0  0
  4 44  1  0  0  0  0
  5  6  1  0  0  0  0
  5 49  1  0  0  0  0
  6  7  2  0  0  0  0
  6 50  1  0  0  0  0
  8  9  1  0  0  0  0
  8 13  1  0  0  0  0
  8 51  1  1  0  0  0
  8  7  1  0  0  0  0
  9 10  1  0  0  0  0
  9 52  1  0  0  0  0
  9 53  1  0  0  0  0
 10 11  1  0  0  0  0
 10 54  1  1  0  0  0
 10 34  1  0  0  0  0
 11 12  1  0  0  0  0
 11 55  1  0  0  0  0
 11 56  1  0  0  0  0
 12 13  1  0  0  0  0
 12 57  1  0  0  0  0
 12 58  1  0  0  0  0
 13 14  1  0  0  0  0
 14 15  2  0  0  0  0
 14 16  1  0  0  0  0
 16 17  1  0  0  0  0
 17 59  1  0  0  0  0
 17 60  1  0  0  0  0
 17 61  1  0  0  0  0
 18 20  1  0  0  0  0
 18 62  1  6  0  0  0
 18 19  1  0  0  0  0
 18 16  1  0  0  0  0
 19 63  1  0  0  0  0
 19 64  1  0  0  0  0
 19 65  1  0  0  0  0
 20 21  2  0  0  0  0
 20 25  1  0  0  0  0
 21 22  1  0  0  0  0
 21 66  1  0  0  0  0
 22 23  2  0  0  0  0
 22 30  1  0  0  0  0
 23 24  1  0  0  0  0
 23 67  1  0  0  0  0
 24 25  2  0  0  0  0
 24 26  1  0  0  0  0
 25 68  1  0  0  0  0
 26 27  1  0  0  0  0
 26 28  1  0  0  0  0
 26 29  1  0  0  0  0
 30 31  1  0  0  0  0
 30 32  1  0  0  0  0
 30 33  1  0  0  0  0
 34 35  1  0  0  0  0
 34 39  1  0  0  0  0
 35 36  1  0  0  0  0
 35 69  1  0  0  0  0
 35 70  1  0  0  0  0
 36 37  1  0  0  0  0
 36 71  1  0  0  0  0
 36 72  1  0  0  0  0
 37 42  1  0  0  0  0
 38 37  1  0  0  0  0
 38 39  1  0  0  0  0
 38 40  1  0  0  0  0
 38 73  1  1  0  0  0
 39 74  1  0  0  0  0
 39 75  1  0  0  0  0
 40 41  1  0  0  0  0
 40 76  1  0  0  0  0
 40 77  1  0  0  0  0
 41 42  1  0  0  0  0
 41 78  1  0  0  0  0
 41 79  1  0  0  0  0
 42 43  2  0  0  0  0
M  END
>  <DRUGBANK_ID>
DB12427

>  <COMMON_NAME>
Orvepitant

>  <CAS_NUMBER>
579475-18-6

>  <UNII>
IIU6V0W3JD

>  <SYNONYMS>
Orvepitant

$$$$
