
 OpenBabel10282417233D

 76 81  0  0  1  0  0  0  0  0999 V2000
    1.1181    0.4981   -0.1559 C   0  0  0  0  0  0  0  0  0  0  0  0
    0.6156    0.6914    1.2776 C   0  0  1  0  0  0  0  0  0  0  0  0
    0.8542    2.1154    1.4881 N   0  0  0  0  0  0  0  0  0  0  0  0
    0.0648    3.2006    1.1791 C   0  0  0  0  0  0  0  0  0  0  0  0
    0.6769    4.2815    1.2513 O   0  0  0  0  0  0  0  0  0  0  0  0
   -1.4943    3.1758    0.8297 C   0  0  0  0  0  0  0  0  0  0  0  0
   -1.8269    2.5323   -0.4849 C   0  0  0  0  0  0  0  0  0  0  0  0
   -2.3386    2.5154    1.6792 F   0  0  0  0  0  0  0  0  0  0  0  0
   -1.9962    4.4440    0.8618 F   0  0  0  0  0  0  0  0  0  0  0  0
   -0.8358    0.1979    1.6610 C   0  0  1  0  0  0  0  0  0  0  0  0
   -1.1088   -1.2713    1.4439 O   0  0  0  0  0  0  0  0  0  0  0  0
   -1.0065   -1.8222    0.1615 C   0  0  0  0  0  0  0  0  0  0  0  0
    0.2539   -2.1659   -0.3143 C   0  0  0  0  0  0  0  0  0  0  0  0
    0.4856   -2.4094   -1.6865 C   0  0  0  0  0  0  0  0  0  0  0  0
   -0.5816   -2.8216   -2.4793 C   0  0  0  0  0  0  0  0  0  0  0  0
   -0.6590   -3.2976   -3.7986 N   0  0  0  0  0  0  0  0  0  0  0  0
   -1.9338   -3.6222   -4.1200 N   0  0  0  0  0  0  0  0  0  0  0  0
   -2.6395   -3.3331   -3.0149 C   0  0  0  0  0  0  0  0  0  0  0  0
   -1.8754   -2.7528   -1.9702 C   0  0  0  0  0  0  0  0  0  0  0  0
   -2.0991   -2.1695   -0.6648 C   0  0  0  0  0  0  0  0  0  0  0  0
    0.4336   -3.5839   -4.6876 C   0  0  0  0  0  0  0  0  0  0  0  0
    1.5483   -4.2508   -4.1766 C   0  0  0  0  0  0  0  0  0  0  0  0
    2.7582   -4.4402   -4.8677 C   0  0  0  0  0  0  0  0  0  0  0  0
    2.7850   -3.9832   -6.1876 C   0  0  0  0  0  0  0  0  0  0  0  0
    1.6325   -3.4148   -6.7671 C   0  0  0  0  0  0  0  0  0  0  0  0
    0.4569   -3.2058   -6.0195 C   0  0  0  0  0  0  0  0  0  0  0  0
    4.0405   -5.0429   -4.2968 C   0  0  0  0  0  0  0  0  0  0  0  0
    5.0710   -5.0041   -4.9451 O   0  0  0  0  0  0  0  0  0  0  0  0
    4.0932   -5.6268   -3.0330 N   0  0  0  0  0  0  0  0  0  0  0  0
    3.0071   -5.7612   -2.1002 C   0  0  2  0  0  0  0  0  0  0  0  0
    2.8231   -4.4754   -1.3293 C   0  0  0  0  0  0  0  0  0  0  0  0
    3.5828   -4.6981   -0.0536 C   0  0  0  0  0  0  0  0  0  0  0  0
    3.5882   -6.1073    0.1811 O   0  0  0  0  0  0  0  0  0  0  0  0
    3.0922   -6.7711   -0.9846 C   0  0  0  0  0  0  0  0  0  0  0  0
   -1.2779    0.7722    3.1019 C   0  0  0  0  0  0  0  0  0  0  0  0
   -1.9871   -0.0068    3.9793 C   0  0  0  0  0  0  0  0  0  0  0  0
   -2.1400    0.4507    5.3159 C   0  0  0  0  0  0  0  0  0  0  0  0
   -1.8078    1.7631    5.6901 C   0  0  0  0  0  0  0  0  0  0  0  0
   -2.0733    2.3766    6.8830 O   0  0  0  0  0  0  0  0  0  0  0  0
   -3.4837    2.3341    7.0339 C   0  0  0  0  0  0  0  0  0  0  0  0
   -4.2201    2.4096    5.6663 C   0  0  0  0  0  0  0  0  0  0  0  0
   -3.3874    2.8853    4.5152 O   0  0  0  0  0  0  0  0  0  0  0  0
   -1.9697    2.5935    4.6567 C   0  0  0  0  0  0  0  0  0  0  0  0
   -1.2063    2.1288    3.5852 C   0  0  0  0  0  0  0  0  0  0  0  0
    1.1780    1.4135   -0.7492 H   0  0  0  0  0  0  0  0  0  0  0  0
    0.4248   -0.0632   -0.7494 H   0  0  0  0  0  0  0  0  0  0  0  0
    2.1199    0.0442   -0.1651 H   0  0  0  0  0  0  0  0  0  0  0  0
    1.3070    0.1483    1.9459 H   0  0  0  0  0  0  0  0  0  0  0  0
    1.8331    2.3735    1.6052 H   0  0  0  0  0  0  0  0  0  0  0  0
   -1.2158    1.6565   -0.6978 H   0  0  0  0  0  0  0  0  0  0  0  0
   -2.8626    2.1635   -0.4359 H   0  0  0  0  0  0  0  0  0  0  0  0
   -1.7227    3.2448   -1.2908 H   0  0  0  0  0  0  0  0  0  0  0  0
   -1.5523    0.6366    0.9858 H   0  0  0  0  0  0  0  0  0  0  0  0
    1.1169   -2.0411    0.3335 H   0  0  0  0  0  0  0  0  0  0  0  0
    1.4817   -2.3035   -2.1028 H   0  0  0  0  0  0  0  0  0  0  0  0
   -3.6986   -3.5561   -3.0132 H   0  0  0  0  0  0  0  0  0  0  0  0
   -3.1222   -2.0301   -0.3280 H   0  0  0  0  0  0  0  0  0  0  0  0
    1.3519   -4.6461   -3.2048 H   0  0  0  0  0  0  0  0  0  0  0  0
    3.6966   -4.0694   -6.7806 H   0  0  0  0  0  0  0  0  0  0  0  0
    1.6670   -3.1121   -7.8121 H   0  0  0  0  0  0  0  0  0  0  0  0
   -0.3914   -2.6991   -6.4683 H   0  0  0  0  0  0  0  0  0  0  0  0
    5.0296   -5.8884   -2.7379 H   0  0  0  0  0  0  0  0  0  0  0  0
    2.1782   -6.1298   -2.7028 H   0  0  0  0  0  0  0  0  0  0  0  0
    1.7673   -4.3847   -1.0737 H   0  0  0  0  0  0  0  0  0  0  0  0
    3.1626   -3.5650   -1.8389 H   0  0  0  0  0  0  0  0  0  0  0  0
    4.6173   -4.3600   -0.1494 H   0  0  0  0  0  0  0  0  0  0  0  0
    3.1151   -4.1713    0.7853 H   0  0  0  0  0  0  0  0  0  0  0  0
    2.0670   -7.1000   -0.7564 H   0  0  0  0  0  0  0  0  0  0  0  0
    3.6927   -7.6421   -1.2418 H   0  0  0  0  0  0  0  0  0  0  0  0
   -2.4245   -0.9345    3.6403 H   0  0  0  0  0  0  0  0  0  0  0  0
   -2.7400   -0.1444    5.9882 H   0  0  0  0  0  0  0  0  0  0  0  0
   -3.6476    1.3735    7.5350 H   0  0  0  0  0  0  0  0  0  0  0  0
   -3.8295    3.0950    7.7437 H   0  0  0  0  0  0  0  0  0  0  0  0
   -4.5709    1.3871    5.4463 H   0  0  0  0  0  0  0  0  0  0  0  0
   -5.1569    2.9790    5.7385 H   0  0  0  0  0  0  0  0  0  0  0  0
   -0.4145    2.8270    3.3294 H   0  0  0  0  0  0  0  0  0  0  0  0
  1 45  1  0  0  0  0
  1 46  1  0  0  0  0
  1 47  1  0  0  0  0
  2  1  1  0  0  0  0
  2  3  1  0  0  0  0
  2 10  1  0  0  0  0
  2 48  1  1  0  0  0
  3  4  1  0  0  0  0
  3 49  1  0  0  0  0
  4  5  2  0  0  0  0
  4  6  1  0  0  0  0
  6  7  1  0  0  0  0
  6  8  1  0  0  0  0
  6  9  1  0  0  0  0
  7 50  1  0  0  0  0
  7 51  1  0  0  0  0
  7 52  1  0  0  0  0
 10 11  1  0  0  0  0
 10 35  1  0  0  0  0
 10 53  1  6  0  0  0
 11 12  1  0  0  0  0
 12 13  2  0  0  0  0
 12 20  1  0  0  0  0
 13 14  1  0  0  0  0
 13 54  1  0  0  0  0
 14 15  2  0  0  0  0
 14 55  1  0  0  0  0
 15 16  1  0  0  0  0
 15 19  1  0  0  0  0
 16 17  1  0  0  0  0
 16 21  1  0  0  0  0
 17 18  2  0  0  0  0
 18 19  1  0  0  0  0
 18 56  1  0  0  0  0
 19 20  2  0  0  0  0
 20 57  1  0  0  0  0
 21 22  2  0  0  0  0
 21 26  1  0  0  0  0
 22 23  1  0  0  0  0
 22 58  1  0  0  0  0
 23 24  2  0  0  0  0
 23 27  1  0  0  0  0
 24 25  1  0  0  0  0
 24 59  1  0  0  0  0
 25 26  2  0  0  0  0
 25 60  1  0  0  0  0
 26 61  1  0  0  0  0
 27 28  2  0  0  0  0
 27 29  1  0  0  0  0
 29 62  1  0  0  0  0
 30 29  1  0  0  0  0
 30 31  1  0  0  0  0
 30 34  1  0  0  0  0
 30 63  1  6  0  0  0
 31 32  1  0  0  0  0
 31 64  1  0  0  0  0
 31 65  1  0  0  0  0
 32 33  1  0  0  0  0
 32 66  1  0  0  0  0
 32 67  1  0  0  0  0
 33 34  1  0  0  0  0
 34 68  1  0  0  0  0
 34 69  1  0  0  0  0
 35 36  2  0  0  0  0
 35 44  1  0  0  0  0
 36 37  1  0  0  0  0
 36 70  1  0  0  0  0
 37 38  2  0  0  0  0
 37 71  1  0  0  0  0
 38 39  1  0  0  0  0
 38 43  1  0  0  0  0
 39 40  1  0  0  0  0
 40 41  1  0  0  0  0
 40 72  1  0  0  0  0
 40 73  1  0  0  0  0
 41 42  1  0  0  0  0
 41 74  1  0  0  0  0
 41 75  1  0  0  0  0
 42 43  1  0  0  0  0
 43 44  2  0  0  0  0
 44 76  1  0  0  0  0
M  END
>  <DRUGBANK_ID>
DB16347

>  <COMMON_NAME>
Velsecorat

>  <CAS_NUMBER>
1196509-60-0

>  <UNII>
P30N0911C2

>  <SYNONYMS>
Velsecorat

$$$$
