
 OpenBabel10282417203D

 34 34  0  0  0  0  0  0  0  0999 V2000
    0.9874   -0.0606   -0.1235 C   0  0  0  0  0  0  0  0  0  0  0  0
    0.4876   -1.2761    0.6497 C   0  0  0  0  0  0  0  0  0  0  0  0
    0.9521   -1.2954    2.1144 C   0  0  0  0  0  0  0  0  0  0  0  0
   -1.8189    3.7090    0.6226 C   0  0  0  0  0  0  0  0  0  0  0  0
   -1.9490    1.3324    0.5863 C   0  0  0  0  0  0  0  0  0  0  0  0
   -2.2548    3.7283   -0.7132 C   0  0  0  0  0  0  0  0  0  0  0  0
   -2.3352    1.3322   -0.7462 C   0  0  0  0  0  0  0  0  0  0  0  0
    0.5052   -0.0954    2.9579 C   0  0  0  0  0  0  0  0  0  0  0  0
   -1.4904    1.1923    3.5799 C   0  0  0  0  0  0  0  0  0  0  0  0
   -1.6641    2.4956    1.3108 C   0  0  0  0  0  0  0  0  0  0  0  0
   -2.4969    2.5391   -1.3903 C   0  0  0  0  0  0  0  0  0  0  0  0
   -1.1286    2.4615    2.7388 C   0  0  3  0  0  0  0  0  0  0  0  0
   -0.9264   -0.1181    3.2251 N   0  0  0  0  0  0  0  0  0  0  0  0
   -2.8955    2.4798   -2.6875 O   0  0  0  0  0  0  0  0  0  0  0  0
   -1.5975    3.6077    3.4666 O   0  0  0  0  0  0  0  0  0  0  0  0
    0.6612    0.8814    0.3208 H   0  0  0  0  0  0  0  0  0  0  0  0
    0.6132   -0.0780   -1.1519 H   0  0  0  0  0  0  0  0  0  0  0  0
    2.0798   -0.0405   -0.1510 H   0  0  0  0  0  0  0  0  0  0  0  0
   -0.6031   -1.3428    0.5903 H   0  0  0  0  0  0  0  0  0  0  0  0
    0.8603   -2.1776    0.1500 H   0  0  0  0  0  0  0  0  0  0  0  0
    0.6063   -2.2221    2.5873 H   0  0  0  0  0  0  0  0  0  0  0  0
    2.0478   -1.3246    2.1246 H   0  0  0  0  0  0  0  0  0  0  0  0
   -1.5990    4.6485    1.1261 H   0  0  0  0  0  0  0  0  0  0  0  0
   -1.8437    0.3506    1.0053 H   0  0  0  0  0  0  0  0  0  0  0  0
   -2.3907    4.6856   -1.2073 H   0  0  0  0  0  0  0  0  0  0  0  0
   -2.4935    0.3927   -1.2644 H   0  0  0  0  0  0  0  0  0  0  0  0
    1.0229   -0.1036    3.9211 H   0  0  0  0  0  0  0  0  0  0  0  0
    0.8329    0.8050    2.4384 H   0  0  0  0  0  0  0  0  0  0  0  0
   -2.5856    1.0966    3.5864 H   0  0  0  0  0  0  0  0  0  0  0  0
   -1.2262    1.3786    4.6279 H   0  0  0  0  0  0  0  0  0  0  0  0
   -0.0411    2.5862    2.7059 H   0  0  0  0  0  0  0  0  0  0  0  0
   -1.4429   -0.5596    2.4740 H   0  0  0  0  0  0  0  0  0  0  0  0
   -2.9798    3.3839   -3.0289 H   0  0  0  0  0  0  0  0  0  0  0  0
   -2.5673    3.5928    3.4184 H   0  0  0  0  0  0  0  0  0  0  0  0
  1 16  1  0  0  0  0
  1 17  1  0  0  0  0
  1 18  1  0  0  0  0
  2  1  1  0  0  0  0
  2 19  1  0  0  0  0
  2 20  1  0  0  0  0
  3  2  1  0  0  0  0
  3 21  1  0  0  0  0
  3 22  1  0  0  0  0
  4 23  1  0  0  0  0
  5 24  1  0  0  0  0
  6  4  1  0  0  0  0
  6 25  1  0  0  0  0
  7  5  2  0  0  0  0
  7 26  1  0  0  0  0
  8  3  1  0  0  0  0
  8 27  1  0  0  0  0
  8 28  1  0  0  0  0
  9 29  1  0  0  0  0
  9 30  1  0  0  0  0
 10  4  2  0  0  0  0
 10  5  1  0  0  0  0
 11  6  2  0  0  0  0
 11  7  1  0  0  0  0
 12  9  1  0  0  0  0
 12 10  1  0  0  0  0
 12 31  1  0  0  0  0
 13  8  1  0  0  0  0
 13  9  1  0  0  0  0
 13 32  1  0  0  0  0
 14 11  1  0  0  0  0
 14 33  1  0  0  0  0
 15 12  1  0  0  0  0
 15 34  1  0  0  0  0
M  END
>  <DRUGBANK_ID>
DB13206

>  <COMMON_NAME>
Bamethan

>  <CAS_NUMBER>
3703-79-5

>  <UNII>
Y08ZFJ9TFK

>  <SYNONYMS>
1-(4-Hydroxyphenyl)-1-hydroxy-2-butylaminoethane; 1-(p-Hydroxyphenyl)-2-butylaminoethanol; 2-Butylamino-1-p-hydroxyphenylethanol; Bametano; Bamethan; Bamethane; Bamethanum; N-Butylnorsynephrine

$$$$
