
 OpenBabel10282417133D

 34 34  0  0  0  0  0  0  0  0999 V2000
   -1.8062   -0.0191   -0.1006 C   0  0  0  0  0  0  0  0  0  0  0  0
   -1.1391   -1.2393   -0.0134 C   0  0  0  0  0  0  0  0  0  0  0  0
   -1.0322    1.1499   -0.2208 C   0  0  0  0  0  0  0  0  0  0  0  0
   -3.3168    0.0278   -0.0272 C   0  0  0  0  0  0  0  0  0  0  0  0
    0.2595   -1.2804    0.0123 C   0  0  0  0  0  0  0  0  0  0  0  0
    0.3502    1.1240   -0.1009 C   0  0  0  0  0  0  0  0  0  0  0  0
   -3.8362    0.7663    1.2199 C   0  0  0  0  0  0  0  0  0  0  0  0
    0.9877   -0.0909   -0.0049 C   0  0  0  0  0  0  0  0  0  0  0  0
   -3.4424    2.2462    1.2761 C   0  0  0  0  0  0  0  0  0  0  0  0
    2.3485   -0.0740    0.0475 O   0  0  0  0  0  0  0  0  0  0  0  0
   -3.8719    2.9994    0.0049 C   0  0  0  0  0  0  0  0  0  0  0  0
   -5.3915    3.1146   -0.0873 C   0  0  0  0  0  0  0  0  0  0  0  0
   -5.9731    3.8512    1.1172 C   0  0  0  0  0  0  0  0  0  0  0  0
   -5.4065    5.2592    1.2196 C   0  0  0  0  0  0  0  0  0  0  0  0
   -1.7039   -2.1682    0.0370 H   0  0  0  0  0  0  0  0  0  0  0  0
   -1.4763    2.1240   -0.3694 H   0  0  0  0  0  0  0  0  0  0  0  0
   -3.7146    0.4608   -0.9516 H   0  0  0  0  0  0  0  0  0  0  0  0
   -3.7262   -0.9906   -0.0038 H   0  0  0  0  0  0  0  0  0  0  0  0
    0.7554   -2.2404    0.0624 H   0  0  0  0  0  0  0  0  0  0  0  0
    0.9100    2.0561   -0.0913 H   0  0  0  0  0  0  0  0  0  0  0  0
   -4.9306    0.6867    1.2480 H   0  0  0  0  0  0  0  0  0  0  0  0
   -3.4806    0.2678    2.1292 H   0  0  0  0  0  0  0  0  0  0  0  0
   -3.8587    2.7051    2.1765 H   0  0  0  0  0  0  0  0  0  0  0  0
   -2.3699    2.3548    1.4539 H   0  0  0  0  0  0  0  0  0  0  0  0
    2.6660   -0.9866   -0.0064 H   0  0  0  0  0  0  0  0  0  0  0  0
   -3.3931    3.9836   -0.0202 H   0  0  0  0  0  0  0  0  0  0  0  0
   -3.5147    2.5172   -0.9104 H   0  0  0  0  0  0  0  0  0  0  0  0
   -5.6606    3.6341   -1.0137 H   0  0  0  0  0  0  0  0  0  0  0  0
   -5.8397    2.1166   -0.1635 H   0  0  0  0  0  0  0  0  0  0  0  0
   -7.0622    3.8857    1.0318 H   0  0  0  0  0  0  0  0  0  0  0  0
   -5.7714    3.3045    2.0449 H   0  0  0  0  0  0  0  0  0  0  0  0
   -5.6519    5.8268    0.3172 H   0  0  0  0  0  0  0  0  0  0  0  0
   -5.8129    5.7746    2.0908 H   0  0  0  0  0  0  0  0  0  0  0  0
   -4.3171    5.2620    1.3317 H   0  0  0  0  0  0  0  0  0  0  0  0
  1  2  2  0  0  0  0
  1  3  1  0  0  0  0
  1  4  1  0  0  0  0
  2  5  1  0  0  0  0
  2 15  1  0  0  0  0
  3  6  2  0  0  0  0
  3 16  1  0  0  0  0
  4  7  1  0  0  0  0
  4 17  1  0  0  0  0
  4 18  1  0  0  0  0
  5  8  2  0  0  0  0
  5 19  1  0  0  0  0
  6  8  1  0  0  0  0
  6 20  1  0  0  0  0
  7  9  1  0  0  0  0
  7 21  1  0  0  0  0
  7 22  1  0  0  0  0
  8 10  1  0  0  0  0
  9 11  1  0  0  0  0
  9 23  1  0  0  0  0
  9 24  1  0  0  0  0
 10 25  1  0  0  0  0
 11 12  1  0  0  0  0
 11 26  1  0  0  0  0
 11 27  1  0  0  0  0
 12 13  1  0  0  0  0
 12 28  1  0  0  0  0
 12 29  1  0  0  0  0
 13 14  1  0  0  0  0
 13 30  1  0  0  0  0
 13 31  1  0  0  0  0
 14 32  1  0  0  0  0
 14 33  1  0  0  0  0
 14 34  1  0  0  0  0
M  END
>  <DRUGBANK_ID>
DB03941

>  <SECONDARY_ACCESSION_NUMBERS>
EXPT01353

>  <COMMON_NAME>
p-Heptylphenol

>  <CAS_NUMBER>
1987-50-4

>  <UNII>
I743Z35DVB

>  <SYNONYMS>
4-Heptylphenol; 4-n-Heptylphenol; p-Hydroxyheptylbenzene

$$$$
