
 OpenBabel10282417143D

 38 40  0  0  0  0  0  0  0  0999 V2000
   -0.0658    3.1845   -0.0097 O   0  0  0  0  0  0  0  0  0  0  0  0
   -3.3235    0.1440    1.1402 O   0  0  0  0  0  0  0  0  0  0  0  0
   -1.8086    1.6866    0.2525 N   0  0  0  0  0  0  0  0  0  0  0  0
   -4.3222    1.3044   -1.6460 N   0  0  0  0  0  0  0  0  0  0  0  0
    4.1587    0.4752   -0.1402 N   0  0  0  0  0  0  0  0  0  0  0  0
    0.0723   -0.4032    0.1699 C   0  0  0  0  0  0  0  0  0  0  0  0
   -2.8341    2.7085   -0.0403 C   0  0  0  0  0  0  0  0  0  0  0  0
    0.5119    0.9199    0.1093 C   0  0  0  0  0  0  0  0  0  0  0  0
   -1.2714   -0.7033    0.3751 C   0  0  0  0  0  0  0  0  0  0  0  0
   -0.4664    2.0389    0.1093 C   0  0  0  0  0  0  0  0  0  0  0  0
    1.0000   -1.4600    0.0424 C   0  0  0  0  0  0  0  0  0  0  0  0
   -2.2149    0.4151    0.6753 C   0  0  0  0  0  0  0  0  0  0  0  0
   -3.5800    2.5631   -1.4257 C   0  0  0  0  0  0  0  0  0  0  0  0
    1.8737    1.2071   -0.0006 C   0  0  0  0  0  0  0  0  0  0  0  0
   -1.7357   -2.0220    0.2342 C   0  0  0  0  0  0  0  0  0  0  0  0
    2.3671   -1.1478   -0.0375 C   0  0  0  0  0  0  0  0  0  0  0  0
    2.8127    0.1781   -0.0213 C   0  0  0  0  0  0  0  0  0  0  0  0
    0.5376   -2.7892    0.0287 C   0  0  0  0  0  0  0  0  0  0  0  0
   -0.8285   -3.0672    0.0750 C   0  0  0  0  0  0  0  0  0  0  0  0
   -5.2208    1.3353   -2.7964 C   0  0  0  0  0  0  0  0  0  0  0  0
   -3.4327    0.1863   -1.9213 C   0  0  0  0  0  0  0  0  0  0  0  0
    4.4658    1.4338   -0.0228 H   0  0  0  0  0  0  0  0  0  0  0  0
    4.8520   -0.2526   -0.0283 H   0  0  0  0  0  0  0  0  0  0  0  0
   -3.5648    2.7148    0.7745 H   0  0  0  0  0  0  0  0  0  0  0  0
   -2.3600    3.6992   -0.0549 H   0  0  0  0  0  0  0  0  0  0  0  0
   -4.2919    3.4022   -1.4680 H   0  0  0  0  0  0  0  0  0  0  0  0
   -2.8725    2.7241   -2.2490 H   0  0  0  0  0  0  0  0  0  0  0  0
    2.2003    2.2436   -0.0386 H   0  0  0  0  0  0  0  0  0  0  0  0
   -2.8039   -2.2363    0.2418 H   0  0  0  0  0  0  0  0  0  0  0  0
    3.0974   -1.9527   -0.0855 H   0  0  0  0  0  0  0  0  0  0  0  0
    1.2411   -3.6191   -0.0172 H   0  0  0  0  0  0  0  0  0  0  0  0
   -1.1798   -4.0964    0.0262 H   0  0  0  0  0  0  0  0  0  0  0  0
   -4.6491    1.4006   -3.7300 H   0  0  0  0  0  0  0  0  0  0  0  0
   -5.7885    0.3946   -2.8183 H   0  0  0  0  0  0  0  0  0  0  0  0
   -5.9418    2.1524   -2.7620 H   0  0  0  0  0  0  0  0  0  0  0  0
   -3.0565    0.1358   -2.9430 H   0  0  0  0  0  0  0  0  0  0  0  0
   -2.5071    0.2977   -1.4102 H   0  0  0  0  0  0  0  0  0  0  0  0
   -3.8974   -0.7551   -1.6122 H   0  0  0  0  0  0  0  0  0  0  0  0
  1 10  2  0  0  0  0
  2 12  2  0  0  0  0
  3  7  1  0  0  0  0
  3 10  1  0  0  0  0
  3 12  1  0  0  0  0
  4 13  1  0  0  0  0
  4 20  1  0  0  0  0
  4 21  1  0  0  0  0
  5 17  1  0  0  0  0
  5 22  1  0  0  0  0
  5 23  1  0  0  0  0
  6  8  2  0  0  0  0
  6  9  1  0  0  0  0
  6 11  1  0  0  0  0
  7 13  1  0  0  0  0
  7 24  1  0  0  0  0
  7 25  1  0  0  0  0
  8 10  1  0  0  0  0
  8 14  1  0  0  0  0
  9 12  1  0  0  0  0
  9 15  2  0  0  0  0
 11 16  2  0  0  0  0
 11 18  1  0  0  0  0
 13 26  1  0  0  0  0
 13 27  1  0  0  0  0
 14 17  2  0  0  0  0
 14 28  1  0  0  0  0
 15 19  1  0  0  0  0
 15 29  1  0  0  0  0
 16 17  1  0  0  0  0
 16 30  1  0  0  0  0
 18 19  2  0  0  0  0
 18 31  1  0  0  0  0
 19 32  1  0  0  0  0
 20 33  1  0  0  0  0
 20 34  1  0  0  0  0
 20 35  1  0  0  0  0
 21 36  1  0  0  0  0
 21 37  1  0  0  0  0
 21 38  1  0  0  0  0
M  END
>  <DRUGBANK_ID>
DB05022

>  <COMMON_NAME>
Amonafide

>  <CAS_NUMBER>
69408-81-7

>  <UNII>
1Q8D39N37L

>  <SYNONYMS>
Amonafide

$$$$
