
 OpenBabel10282417193D

 26 27  0  0  0  0  0  0  0  0999 V2000
    2.5078   -0.1193    0.0052 C   0  0  0  0  0  0  0  0  0  0  0  0
    1.0178   -0.0055    0.0063 C   0  0  0  0  0  0  0  0  0  0  0  0
    0.3801    1.2318    0.0121 C   0  0  0  0  0  0  0  0  0  0  0  0
   -1.0104    1.2840    0.0173 C   0  0  0  0  0  0  0  0  0  0  0  0
   -1.7394    0.0940    0.0089 C   0  0  0  0  0  0  0  0  0  0  0  0
   -1.1351   -1.1211    0.0004 N   0  0  0  0  0  0  0  0  0  0  0  0
    0.2170   -1.1424    0.0076 C   0  0  0  0  0  0  0  0  0  0  0  0
   -3.2084    0.1204   -0.0629 C   0  0  0  0  0  0  0  0  0  0  0  0
   -3.8532    0.7573   -1.1242 C   0  0  0  0  0  0  0  0  0  0  0  0
   -5.2425    0.8323   -1.1317 C   0  0  0  0  0  0  0  0  0  0  0  0
   -5.9635    0.2645   -0.0849 C   0  0  0  0  0  0  0  0  0  0  0  0
   -5.2439   -0.3592    0.9284 C   0  0  0  0  0  0  0  0  0  0  0  0
   -3.8944   -0.4362    0.9673 N   0  0  0  0  0  0  0  0  0  0  0  0
   -7.4566    0.3122   -0.0452 C   0  0  0  0  0  0  0  0  0  0  0  0
    2.8461   -0.6421    0.9050 H   0  0  0  0  0  0  0  0  0  0  0  0
    2.8448   -0.6665   -0.8808 H   0  0  0  0  0  0  0  0  0  0  0  0
    2.9829    0.8674   -0.0097 H   0  0  0  0  0  0  0  0  0  0  0  0
    0.9499    2.1567    0.0130 H   0  0  0  0  0  0  0  0  0  0  0  0
   -1.5198    2.2421    0.0276 H   0  0  0  0  0  0  0  0  0  0  0  0
    0.6532   -2.1379    0.0099 H   0  0  0  0  0  0  0  0  0  0  0  0
   -3.2796    1.1908   -1.9370 H   0  0  0  0  0  0  0  0  0  0  0  0
   -5.7467    1.3322   -1.9538 H   0  0  0  0  0  0  0  0  0  0  0  0
   -5.7476   -0.8273    1.7701 H   0  0  0  0  0  0  0  0  0  0  0  0
   -7.8661   -0.7025   -0.0585 H   0  0  0  0  0  0  0  0  0  0  0  0
   -7.7947    0.8282    0.8589 H   0  0  0  0  0  0  0  0  0  0  0  0
   -7.8613    0.8500   -0.9090 H   0  0  0  0  0  0  0  0  0  0  0  0
  1  2  1  0  0  0  0
  1 15  1  0  0  0  0
  1 16  1  0  0  0  0
  1 17  1  0  0  0  0
  2  3  2  0  0  0  0
  2  7  1  0  0  0  0
  3  4  1  0  0  0  0
  3 18  1  0  0  0  0
  4  5  2  0  0  0  0
  4 19  1  0  0  0  0
  5  6  1  0  0  0  0
  5  8  1  0  0  0  0
  6  7  2  0  0  0  0
  7 20  1  0  0  0  0
  8  9  2  0  0  0  0
  8 13  1  0  0  0  0
  9 10  1  0  0  0  0
  9 21  1  0  0  0  0
 10 11  2  0  0  0  0
 10 22  1  0  0  0  0
 11 12  1  0  0  0  0
 11 14  1  0  0  0  0
 12 13  2  0  0  0  0
 12 23  1  0  0  0  0
 14 24  1  0  0  0  0
 14 25  1  0  0  0  0
 14 26  1  0  0  0  0
M  END
>  <DRUGBANK_ID>
DB11932

>  <COMMON_NAME>
Abametapir

>  <CAS_NUMBER>
1762-34-1

>  <UNII>
6UO390AMFB

>  <SYNONYMS>
5,5'-Dimethyl-2,2'-bipyridine; 5,5'-Dimethyl-2,2'-dipyridyl; Abametapir

$$$$
