
 OpenBabel10282417193D

 54 56  0  0  0  0  0  0  0  0999 V2000
    1.0649   -0.0075    0.0170 C   0  0  0  0  0  0  0  0  0  0  0  0
    0.5968    1.1901    0.6722 N   0  0  0  0  0  0  0  0  0  0  0  0
   -0.1718    2.1173   -0.1673 C   0  0  0  0  0  0  0  0  0  0  0  0
    1.0068    1.4564    1.9690 C   0  0  0  0  0  0  0  0  0  0  0  0
    1.7487    0.6929    2.7037 N   0  0  0  0  0  0  0  0  0  0  0  0
    0.5419    2.6620    2.6491 C   0  0  0  0  0  0  0  0  0  0  0  0
   -0.7798    3.0243    2.4825 C   0  0  0  0  0  0  0  0  0  0  0  0
   -1.2638    4.0929    3.1468 C   0  0  0  0  0  0  0  0  0  0  0  0
   -0.6823    4.3776    4.3398 C   0  0  0  0  0  0  0  0  0  0  0  0
    0.6947    4.0797    4.5012 C   0  0  0  0  0  0  0  0  0  0  0  0
    1.3523    3.3132    3.5594 C   0  0  0  0  0  0  0  0  0  0  0  0
   -1.4739    4.9630    5.4623 C   0  0  0  0  0  0  0  0  0  0  0  0
   -0.9615    4.7390    6.5287 O   0  0  0  0  0  0  0  0  0  0  0  0
   -2.6134    5.8251    5.2384 N   0  0  0  0  0  0  0  0  0  0  0  0
   -3.5931    5.6086    4.2673 C   0  0  0  0  0  0  0  0  0  0  0  0
   -3.8950    4.2445    4.3034 C   0  0  0  0  0  0  0  0  0  0  0  0
   -4.5220    3.6312    3.2668 C   0  0  0  0  0  0  0  0  0  0  0  0
   -5.1270    4.3964    2.2942 C   0  0  0  0  0  0  0  0  0  0  0  0
   -5.0191    5.8090    2.3511 C   0  0  0  0  0  0  0  0  0  0  0  0
   -4.1579    6.4722    3.2884 C   0  0  0  0  0  0  0  0  0  0  0  0
   -3.8913    7.9596    2.9542 C   0  0  0  0  0  0  0  0  0  0  0  0
   -4.5222    8.4817    2.0304 O   0  0  0  0  0  0  0  0  0  0  0  0
   -3.0062    8.7982    3.6073 N   0  0  0  0  0  0  0  0  0  0  0  0
   -2.0183    8.5223    4.5247 C   0  0  0  0  0  0  0  0  0  0  0  0
   -0.9977    7.6596    4.1943 C   0  0  0  0  0  0  0  0  0  0  0  0
   -0.1478    7.2522    5.2494 C   0  0  0  0  0  0  0  0  0  0  0  0
   -0.4771    7.5600    6.5916 C   0  0  0  0  0  0  0  0  0  0  0  0
   -1.4559    8.5007    6.7756 C   0  0  0  0  0  0  0  0  0  0  0  0
   -2.1945    9.0244    5.7675 N   0  0  0  0  0  0  0  0  0  0  0  0
   -0.0667    6.6928    8.0529 Cl  0  0  0  0  0  0  0  0  0  0  0  0
   -5.8015    3.8082    1.2553 O   0  0  0  0  0  0  0  0  0  0  0  0
   -5.7399    2.3702    1.2427 C   0  0  0  0  0  0  0  0  0  0  0  0
    0.7101   -0.0758   -1.0115 H   0  0  0  0  0  0  0  0  0  0  0  0
    0.7039   -0.8828    0.5645 H   0  0  0  0  0  0  0  0  0  0  0  0
    2.1586   -0.0090    0.0067 H   0  0  0  0  0  0  0  0  0  0  0  0
   -1.2204    2.1696    0.1369 H   0  0  0  0  0  0  0  0  0  0  0  0
    0.2569    3.1261   -0.1505 H   0  0  0  0  0  0  0  0  0  0  0  0
   -0.2492    1.7913   -1.2043 H   0  0  0  0  0  0  0  0  0  0  0  0
    2.0064   -0.1650    2.2301 H   0  0  0  0  0  0  0  0  0  0  0  0
   -1.4997    2.4843    1.8942 H   0  0  0  0  0  0  0  0  0  0  0  0
   -2.1840    4.4941    2.7898 H   0  0  0  0  0  0  0  0  0  0  0  0
    1.2738    4.4395    5.3481 H   0  0  0  0  0  0  0  0  0  0  0  0
    2.4165    3.1061    3.6284 H   0  0  0  0  0  0  0  0  0  0  0  0
   -2.7530    6.6398    5.8290 H   0  0  0  0  0  0  0  0  0  0  0  0
   -3.4008    3.6045    5.0335 H   0  0  0  0  0  0  0  0  0  0  0  0
   -4.4217    2.5544    3.2505 H   0  0  0  0  0  0  0  0  0  0  0  0
   -5.5824    6.3844    1.6117 H   0  0  0  0  0  0  0  0  0  0  0  0
   -3.0748    9.7827    3.3709 H   0  0  0  0  0  0  0  0  0  0  0  0
   -1.0276    7.1367    3.2285 H   0  0  0  0  0  0  0  0  0  0  0  0
    0.5725    6.4898    4.9829 H   0  0  0  0  0  0  0  0  0  0  0  0
   -1.7287    8.7737    7.7914 H   0  0  0  0  0  0  0  0  0  0  0  0
   -4.7113    2.0242    1.0642 H   0  0  0  0  0  0  0  0  0  0  0  0
   -6.1277    1.9354    2.1754 H   0  0  0  0  0  0  0  0  0  0  0  0
   -6.3645    1.9957    0.4320 H   0  0  0  0  0  0  0  0  0  0  0  0
  1  2  1  0  0  0  0
  1 33  1  0  0  0  0
  1 34  1  0  0  0  0
  1 35  1  0  0  0  0
  2  3  1  0  0  0  0
  2  4  1  0  0  0  0
  3 36  1  0  0  0  0
  3 37  1  0  0  0  0
  3 38  1  0  0  0  0
  4  5  2  0  0  0  0
  4  6  1  0  0  0  0
  5 39  1  0  0  0  0
  6  7  2  0  0  0  0
  6 11  1  0  0  0  0
  7  8  1  0  0  0  0
  7 40  1  0  0  0  0
  8  9  2  0  0  0  0
  8 41  1  0  0  0  0
  9 10  1  0  0  0  0
  9 12  1  0  0  0  0
 10 11  2  0  0  0  0
 10 42  1  0  0  0  0
 11 43  1  0  0  0  0
 12 13  2  0  0  0  0
 12 14  1  0  0  0  0
 14 15  1  0  0  0  0
 14 44  1  0  0  0  0
 15 16  2  0  0  0  0
 15 20  1  0  0  0  0
 16 17  1  0  0  0  0
 16 45  1  0  0  0  0
 17 18  2  0  0  0  0
 17 46  1  0  0  0  0
 18 19  1  0  0  0  0
 18 31  1  0  0  0  0
 19 20  2  0  0  0  0
 19 47  1  0  0  0  0
 20 21  1  0  0  0  0
 21 22  2  0  0  0  0
 21 23  1  0  0  0  0
 23 24  1  0  0  0  0
 23 48  1  0  0  0  0
 24 25  2  0  0  0  0
 24 29  1  0  0  0  0
 25 26  1  0  0  0  0
 25 49  1  0  0  0  0
 26 27  2  0  0  0  0
 26 50  1  0  0  0  0
 27 28  1  0  0  0  0
 27 30  1  0  0  0  0
 28 29  2  0  0  0  0
 28 51  1  0  0  0  0
 31 32  1  0  0  0  0
 32 52  1  0  0  0  0
 32 53  1  0  0  0  0
 32 54  1  0  0  0  0
M  END
>  <DRUGBANK_ID>
DB12364

>  <SECONDARY_ACCESSION_NUMBERS>
DB06601

>  <COMMON_NAME>
Betrixaban

>  <CAS_NUMBER>
330942-05-7

>  <UNII>
74RWP7W0J9

>  <SYNONYMS>
Betrixaban; N-(5-chloropyridin-2-yl)-2-(4-(N,N-dimethylcarbamimidoyl)benzamido)-5-methoxybenzamide; N-(5-chloropyridin-2-yl)-2-[[4-(N,N-dimethylcarbamimidoyl)benzoyl]amino]-5-methoxybenzamide

$$$$
