5B2
 OpenBabel10282417163D

 27 29  0  0  0  0  0  0  0  0999 V2000
    0.1345    0.4513    0.0140 C   0  0  0  0  0  0  0  0  0  0  0  0
   -0.8081    1.4971    0.0291 C   0  0  0  0  0  0  0  0  0  0  0  0
    1.5503    0.3423   -0.0014 C   0  0  0  0  0  0  0  0  0  0  0  0
    2.3932    1.3763   -0.0103 N   0  0  0  0  0  0  0  0  0  0  0  0
   -2.1810    1.1884    0.0420 C   0  0  0  0  0  0  0  0  0  0  0  0
   -2.5870   -0.1575    0.0229 C   0  0  0  0  0  0  0  0  0  0  0  0
   -1.6692   -1.2101    0.0070 C   0  0  0  0  0  0  0  0  0  0  0  0
   -0.3191   -0.8618    0.0074 C   0  0  0  0  0  0  0  0  0  0  0  0
    0.8139   -1.6275   -0.0012 N   0  0  0  0  0  0  0  0  0  0  0  0
    1.9576   -0.9258   -0.0072 N   0  0  0  0  0  0  0  0  0  0  0  0
   -3.1927    2.2484    0.0303 C   0  0  0  0  0  0  0  0  0  0  0  0
   -3.2394    3.1734   -1.0228 C   0  0  0  0  0  0  0  0  0  0  0  0
   -4.2609    4.1195   -1.0939 C   0  0  0  0  0  0  0  0  0  0  0  0
   -5.2563    4.1426   -0.1192 C   0  0  0  0  0  0  0  0  0  0  0  0
   -5.2233    3.2324    0.9350 C   0  0  0  0  0  0  0  0  0  0  0  0
   -4.1794    2.3124    1.0267 C   0  0  0  0  0  0  0  0  0  0  0  0
   -0.4746    2.5306    0.0326 H   0  0  0  0  0  0  0  0  0  0  0  0
    2.1000    2.3436    0.0117 H   0  0  0  0  0  0  0  0  0  0  0  0
    3.3905    1.2034   -0.0015 H   0  0  0  0  0  0  0  0  0  0  0  0
   -3.6503   -0.3959   -0.0006 H   0  0  0  0  0  0  0  0  0  0  0  0
   -2.0013   -2.2422   -0.0126 H   0  0  0  0  0  0  0  0  0  0  0  0
    0.8693   -2.6386   -0.0021 H   0  0  0  0  0  0  0  0  0  0  0  0
   -2.4907    3.1379   -1.8117 H   0  0  0  0  0  0  0  0  0  0  0  0
   -4.2900    4.8201   -1.9235 H   0  0  0  0  0  0  0  0  0  0  0  0
   -6.0608    4.8696   -0.1830 H   0  0  0  0  0  0  0  0  0  0  0  0
   -6.0155    3.2277    1.6787 H   0  0  0  0  0  0  0  0  0  0  0  0
   -4.1438    1.6308    1.8748 H   0  0  0  0  0  0  0  0  0  0  0  0
  1  2  2  0  0  0  0
  1  3  1  0  0  0  0
  1  8  1  0  0  0  0
  2  5  1  0  0  0  0
  2 17  1  0  0  0  0
  3  4  1  0  0  0  0
  3 10  2  0  0  0  0
  4 18  1  0  0  0  0
  4 19  1  0  0  0  0
  5  6  2  0  0  0  0
  5 11  1  0  0  0  0
  6  7  1  0  0  0  0
  6 20  1  0  0  0  0
  7  8  2  0  0  0  0
  7 21  1  0  0  0  0
  8  9  1  0  0  0  0
  9 10  1  0  0  0  0
  9 22  1  0  0  0  0
 11 12  2  0  0  0  0
 11 16  1  0  0  0  0
 12 13  1  0  0  0  0
 12 23  1  0  0  0  0
 13 14  2  0  0  0  0
 13 24  1  0  0  0  0
 14 15  1  0  0  0  0
 14 25  1  0  0  0  0
 15 16  2  0  0  0  0
 15 26  1  0  0  0  0
 16 27  1  0  0  0  0
M  END
>  <DRUGBANK_ID>
DB07161

>  <COMMON_NAME>
5-phenyl-1H-indazol-3-amine

$$$$
