
 OpenBabel10282417233D

 12 11  0  0  0  0  0  0  0  0999 V2000
    0.8718   -0.0085    0.1145 C   0  0  0  0  0  0  0  0  0  0  0  0
    0.0660   -0.7169    0.9922 N   0  0  0  0  0  0  0  0  0  0  0  0
    0.1905    0.7345   -0.8061 N   0  0  0  0  0  0  0  0  0  0  0  0
    2.1021    0.0167    0.0833 O   0  0  0  0  0  0  0  0  0  0  0  0
    0.7612   -1.3738    1.8061 N   0  0  0  0  0  0  0  0  0  0  0  0
    0.0954   -2.1326    2.7463 C   0  0  0  0  0  0  0  0  0  0  0  0
   -1.2713   -2.1444    2.7610 N   0  0  0  0  0  0  0  0  0  0  0  0
    0.6715   -2.8149    3.5917 O   0  0  0  0  0  0  0  0  0  0  0  0
    0.7346    1.2701   -1.4697 H   0  0  0  0  0  0  0  0  0  0  0  0
   -0.8147    0.7646   -0.8434 H   0  0  0  0  0  0  0  0  0  0  0  0
   -1.7194   -2.7137    3.4663 H   0  0  0  0  0  0  0  0  0  0  0  0
   -1.8157   -1.6139    2.1036 H   0  0  0  0  0  0  0  0  0  0  0  0
  1  2  1  0  0  0  0
  1  3  1  0  0  0  0
  1  4  2  0  0  0  0
  2  5  2  0  0  0  0
  3  9  1  0  0  0  0
  3 10  1  0  0  0  0
  5  6  1  0  0  0  0
  6  7  1  0  0  0  0
  6  8  2  0  0  0  0
  7 11  1  0  0  0  0
  7 12  1  0  0  0  0
M  END
>  <DRUGBANK_ID>
DB16861

>  <COMMON_NAME>
Azodicarbonamide

>  <CAS_NUMBER>
123-77-3

>  <UNII>
56Z28B9C8O

>  <SYNONYMS>
1,1'-Azobis(formamide); 1,1'-Azobisformamide; Azobiscarboxamide; Azodicarboxylic acid diamide

$$$$
