
 OpenBabel10282417203D

 27 27  0  0  0  0  0  0  0  0999 V2000
    0.6757   -0.0050    0.1464 C   0  0  0  0  0  0  0  0  0  0  0  0
    0.2923    2.0575   -4.2461 C   0  0  0  0  0  0  0  0  0  0  0  0
    0.4691    1.1401   -0.8237 C   0  0  0  0  0  0  0  0  0  0  0  0
    0.1723    0.8754   -3.2901 C   0  0  0  0  0  0  0  0  0  0  0  0
    4.4347    0.3249    0.7880 C   0  0  0  0  0  0  0  0  0  0  0  0
    3.6245    0.0566   -0.3138 C   0  0  0  0  0  0  0  0  0  0  0  0
    5.3554    1.3437    0.6712 C   0  0  0  0  0  0  0  0  0  0  0  0
    4.5290    1.9246   -1.4134 C   0  0  0  0  0  0  0  0  0  0  0  0
    3.5254    0.9704   -1.3537 C   0  0  0  0  0  0  0  0  0  0  0  0
    2.4948    0.8829   -2.4265 C   0  0  0  0  0  0  0  0  0  0  0  0
    5.4583    2.1171   -0.4314 N   0  0  0  0  0  0  0  0  0  0  0  0
    1.1005    0.9280   -2.1418 N   0  0  0  0  0  0  0  0  0  0  0  0
    2.9300    0.7974   -3.5649 O   0  0  0  0  0  0  0  0  0  0  0  0
    0.6472   -0.9823   -0.3490 H   0  0  0  0  0  0  0  0  0  0  0  0
    0.0070    0.0002    1.0075 H   0  0  0  0  0  0  0  0  0  0  0  0
    1.6286    0.1452    0.6274 H   0  0  0  0  0  0  0  0  0  0  0  0
    1.2753    2.0998   -4.7210 H   0  0  0  0  0  0  0  0  0  0  0  0
   -0.4490    1.9759   -5.0490 H   0  0  0  0  0  0  0  0  0  0  0  0
    0.1305    3.0056   -3.7245 H   0  0  0  0  0  0  0  0  0  0  0  0
   -0.6141    1.2667   -0.9474 H   0  0  0  0  0  0  0  0  0  0  0  0
    0.8593    2.0713   -0.4046 H   0  0  0  0  0  0  0  0  0  0  0  0
    0.3410   -0.0641   -3.8264 H   0  0  0  0  0  0  0  0  0  0  0  0
   -0.8640    0.8442   -2.9278 H   0  0  0  0  0  0  0  0  0  0  0  0
    4.3386   -0.2483    1.7046 H   0  0  0  0  0  0  0  0  0  0  0  0
    3.0271   -0.8487   -0.3190 H   0  0  0  0  0  0  0  0  0  0  0  0
    6.0655    1.5451    1.4689 H   0  0  0  0  0  0  0  0  0  0  0  0
    4.6414    2.5746   -2.2764 H   0  0  0  0  0  0  0  0  0  0  0  0
  1 14  1  0  0  0  0
  1 15  1  0  0  0  0
  1 16  1  0  0  0  0
  2 17  1  0  0  0  0
  2 18  1  0  0  0  0
  2 19  1  0  0  0  0
  3  1  1  0  0  0  0
  3 20  1  0  0  0  0
  3 21  1  0  0  0  0
  4  2  1  0  0  0  0
  4 22  1  0  0  0  0
  4 23  1  0  0  0  0
  5 24  1  0  0  0  0
  6  5  2  0  0  0  0
  6 25  1  0  0  0  0
  7  5  1  0  0  0  0
  7 26  1  0  0  0  0
  8 27  1  0  0  0  0
  9  6  1  0  0  0  0
  9  8  2  0  0  0  0
 10  9  1  0  0  0  0
 11  7  2  0  0  0  0
 11  8  1  0  0  0  0
 12  3  1  0  0  0  0
 12  4  1  0  0  0  0
 12 10  1  0  0  0  0
 13 10  2  0  0  0  0
M  END
>  <DRUGBANK_ID>
DB13655

>  <COMMON_NAME>
Nikethamide

>  <CAS_NUMBER>
59-26-7

>  <UNII>
368IVD6M32

>  <SYNONYMS>
Nikethamide

$$$$
