1620
 OpenBabel10282417123D

 38 39  0  0  1  0  0  0  0  0999 V2000
    1.1412    0.0473   -0.0275 N   0  0  0  0  0  0  0  0  0  0  0  0
    0.7236   -4.6478    2.7262 N   0  0  0  0  0  0  0  0  0  0  0  0
    0.3679   -2.3003    2.0797 C   0  0  3  0  0  0  0  0  0  0  0  0
    0.9094   -2.4467    0.6460 C   0  0  0  0  0  0  0  0  0  0  0  0
    0.5467   -1.2776   -0.2917 C   0  0  0  0  0  0  0  0  0  0  0  0
   -1.1619   -2.2487    2.1451 C   0  0  0  0  0  0  0  0  0  0  0  0
    0.9702   -3.3466    3.0114 C   0  0  0  0  0  0  0  0  0  0  0  0
   -1.9050   -3.4220    2.0322 C   0  0  0  0  0  0  0  0  0  0  0  0
   -1.8822   -1.0486    2.3192 C   0  0  0  0  0  0  0  0  0  0  0  0
    1.6290   -2.9464    4.1719 C   0  0  0  0  0  0  0  0  0  0  0  0
    0.6238    0.7630    1.1246 C   0  0  0  0  0  0  0  0  0  0  0  0
    2.5936    0.0174    0.0047 C   0  0  0  0  0  0  0  0  0  0  0  0
   -3.2899   -3.4297    2.1547 C   0  0  0  0  0  0  0  0  0  0  0  0
   -3.2788   -1.0387    2.3518 C   0  0  0  0  0  0  0  0  0  0  0  0
    1.9679   -3.9118    5.1123 C   0  0  0  0  0  0  0  0  0  0  0  0
   -3.9818   -2.2272    2.2929 C   0  0  0  0  0  0  0  0  0  0  0  0
    1.0038   -5.5518    3.6797 C   0  0  0  0  0  0  0  0  0  0  0  0
    1.6154   -5.2363    4.8736 C   0  0  0  0  0  0  0  0  0  0  0  0
    0.7510   -1.3848    2.5060 H   0  0  0  0  0  0  0  0  0  0  0  0
    0.5368   -3.3789    0.1980 H   0  0  0  0  0  0  0  0  0  0  0  0
    2.0005   -2.5742    0.6635 H   0  0  0  0  0  0  0  0  0  0  0  0
   -0.5450   -1.1943   -0.3724 H   0  0  0  0  0  0  0  0  0  0  0  0
    0.8589   -1.5713   -1.3051 H   0  0  0  0  0  0  0  0  0  0  0  0
   -1.4042   -4.3764    1.8784 H   0  0  0  0  0  0  0  0  0  0  0  0
   -1.3938   -0.0973    2.4477 H   0  0  0  0  0  0  0  0  0  0  0  0
    1.8433   -1.8993    4.3710 H   0  0  0  0  0  0  0  0  0  0  0  0
    0.9036    0.3265    2.0814 H   0  0  0  0  0  0  0  0  0  0  0  0
    1.0092    1.7825    1.1961 H   0  0  0  0  0  0  0  0  0  0  0  0
   -0.4569    0.8627    1.0371 H   0  0  0  0  0  0  0  0  0  0  0  0
    2.9820   -0.2696   -0.9759 H   0  0  0  0  0  0  0  0  0  0  0  0
    2.9878    1.0134    0.2309 H   0  0  0  0  0  0  0  0  0  0  0  0
    2.9827   -0.6660    0.7648 H   0  0  0  0  0  0  0  0  0  0  0  0
   -3.8142   -4.3749    2.1471 H   0  0  0  0  0  0  0  0  0  0  0  0
   -3.8097   -0.0910    2.4517 H   0  0  0  0  0  0  0  0  0  0  0  0
    2.4605   -3.6271    6.0343 H   0  0  0  0  0  0  0  0  0  0  0  0
   -5.0638   -2.2329    2.3634 H   0  0  0  0  0  0  0  0  0  0  0  0
    0.6752   -6.5616    3.4506 H   0  0  0  0  0  0  0  0  0  0  0  0
    1.8053   -6.0061    5.6115 H   0  0  0  0  0  0  0  0  0  0  0  0
  1  5  1  0  0  0  0
  1 11  1  0  0  0  0
  1 12  1  0  0  0  0
  2  7  1  0  0  0  0
  2 17  2  0  0  0  0
  3  4  1  0  0  0  0
  3  6  1  0  0  0  0
  3  7  1  0  0  0  0
  3 19  1  0  0  0  0
  4  5  1  0  0  0  0
  4 20  1  0  0  0  0
  4 21  1  0  0  0  0
  5 22  1  0  0  0  0
  5 23  1  0  0  0  0
  6  8  2  0  0  0  0
  6  9  1  0  0  0  0
  7 10  2  0  0  0  0
  8 13  1  0  0  0  0
  8 24  1  0  0  0  0
  9 14  2  0  0  0  0
  9 25  1  0  0  0  0
 10 15  1  0  0  0  0
 10 26  1  0  0  0  0
 11 27  1  0  0  0  0
 11 28  1  0  0  0  0
 11 29  1  0  0  0  0
 12 30  1  0  0  0  0
 12 31  1  0  0  0  0
 12 32  1  0  0  0  0
 13 16  2  0  0  0  0
 13 33  1  0  0  0  0
 14 16  1  0  0  0  0
 14 34  1  0  0  0  0
 15 18  2  0  0  0  0
 15 35  1  0  0  0  0
 16 36  1  0  0  0  0
 17 18  1  0  0  0  0
 17 37  1  0  0  0  0
 18 38  1  0  0  0  0
M  END
>  <DRUGBANK_ID>
DB01620

>  <COMMON_NAME>
Pheniramine

>  <CAS_NUMBER>
86-21-5

>  <UNII>
134FM9ZZ6M

>  <SYNONYMS>
Feniramina; Pheniramine; Pheniraminum

$$$$
