
 OpenBabel10282417193D

 60 63  0  0  0  0  0  0  0  0999 V2000
    1.0276    0.1553   -0.0475 C   0  0  0  0  0  0  0  0  0  0  0  0
    0.8285    0.1210   -1.5683 C   0  0  0  0  0  0  0  0  0  0  0  0
    0.9916   -1.2792   -2.1325 C   0  0  0  0  0  0  0  0  0  0  0  0
    0.2404   -2.3742   -1.3406 C   0  0  0  0  0  0  0  0  0  0  0  0
   -1.2037   -2.3202   -1.3314 O   0  0  0  0  0  0  0  0  0  0  0  0
   -1.8312   -1.3427   -0.5669 C   0  0  0  0  0  0  0  0  0  0  0  0
   -1.6873   -0.0723   -0.9363 N   0  0  0  0  0  0  0  0  0  0  0  0
   -2.3402    0.9128   -0.3222 C   0  0  0  0  0  0  0  0  0  0  0  0
   -3.3652    0.6090    0.5192 C   0  0  0  0  0  0  0  0  0  0  0  0
   -3.6054   -0.7578    0.7347 C   0  0  0  0  0  0  0  0  0  0  0  0
   -2.7795   -1.7288    0.2771 N   0  0  0  0  0  0  0  0  0  0  0  0
   -4.7724   -1.1223    1.3940 N   0  0  0  0  0  0  0  0  0  0  0  0
   -5.4214   -0.0861    2.1799 C   0  0  0  0  0  0  0  0  0  0  0  0
   -5.4884    1.2340    1.4151 C   0  0  0  0  0  0  0  0  0  0  0  0
   -6.4805    1.9044    1.2431 O   0  0  0  0  0  0  0  0  0  0  0  0
   -4.2333    1.6217    0.9891 N   0  0  0  0  0  0  0  0  0  0  0  0
   -5.3821   -2.4149    1.1900 C   0  0  0  0  0  0  0  0  0  0  0  0
   -5.8911   -2.6127   -0.2301 C   0  0  0  0  0  0  0  0  0  0  0  0
   -5.0339   -2.8257   -1.3143 C   0  0  0  0  0  0  0  0  0  0  0  0
   -5.4993   -3.1200   -2.5895 C   0  0  0  0  0  0  0  0  0  0  0  0
   -6.8465   -3.3658   -2.7767 C   0  0  0  0  0  0  0  0  0  0  0  0
   -7.7321   -3.2296   -1.7019 C   0  0  0  0  0  0  0  0  0  0  0  0
   -7.2585   -2.7220   -0.4783 C   0  0  0  0  0  0  0  0  0  0  0  0
   -9.1512   -3.7431   -1.8179 C   0  0  0  0  0  0  0  0  0  0  0  0
   -9.4623   -4.9845   -1.0734 N   0  0  0  0  0  0  0  0  0  0  0  0
   -9.3308   -4.8959    0.3855 C   0  0  0  0  0  0  0  0  0  0  0  0
   -7.9527   -5.4474    0.7193 C   0  0  0  0  0  0  0  0  0  0  0  0
   -7.7428   -6.5190   -0.3248 C   0  0  0  0  0  0  0  0  0  0  0  0
   -8.6452   -6.1322   -1.4953 C   0  0  0  0  0  0  0  0  0  0  0  0
   -1.8785    2.2090   -0.4999 N   0  0  0  0  0  0  0  0  0  0  0  0
    0.5658   -0.6719    0.5051 H   0  0  0  0  0  0  0  0  0  0  0  0
    0.6222    1.0633    0.4038 H   0  0  0  0  0  0  0  0  0  0  0  0
    2.0962    0.0982    0.1655 H   0  0  0  0  0  0  0  0  0  0  0  0
   -0.1259    0.4553   -1.9558 H   0  0  0  0  0  0  0  0  0  0  0  0
    1.4522    0.8831   -2.0358 H   0  0  0  0  0  0  0  0  0  0  0  0
    0.6276   -1.2838   -3.1678 H   0  0  0  0  0  0  0  0  0  0  0  0
    2.0667   -1.4934   -2.1683 H   0  0  0  0  0  0  0  0  0  0  0  0
    0.5028   -3.3204   -1.8394 H   0  0  0  0  0  0  0  0  0  0  0  0
    0.6371   -2.5075   -0.3272 H   0  0  0  0  0  0  0  0  0  0  0  0
   -4.7901    0.1099    3.0578 H   0  0  0  0  0  0  0  0  0  0  0  0
   -6.4139   -0.3579    2.5422 H   0  0  0  0  0  0  0  0  0  0  0  0
   -4.1193    2.5691    0.6677 H   0  0  0  0  0  0  0  0  0  0  0  0
   -4.6948   -3.2237    1.4706 H   0  0  0  0  0  0  0  0  0  0  0  0
   -6.2241   -2.5238    1.8899 H   0  0  0  0  0  0  0  0  0  0  0  0
   -3.9639   -2.7985   -1.1993 H   0  0  0  0  0  0  0  0  0  0  0  0
   -4.7876   -3.2148   -3.4036 H   0  0  0  0  0  0  0  0  0  0  0  0
   -7.1893   -3.7086   -3.7484 H   0  0  0  0  0  0  0  0  0  0  0  0
   -7.9477   -2.5995    0.3527 H   0  0  0  0  0  0  0  0  0  0  0  0
   -9.8372   -2.9396   -1.5258 H   0  0  0  0  0  0  0  0  0  0  0  0
   -9.3728   -3.9292   -2.8786 H   0  0  0  0  0  0  0  0  0  0  0  0
  -10.0777   -5.5548    0.8447 H   0  0  0  0  0  0  0  0  0  0  0  0
   -9.5412   -3.8992    0.7864 H   0  0  0  0  0  0  0  0  0  0  0  0
   -7.1408   -4.7384    0.6099 H   0  0  0  0  0  0  0  0  0  0  0  0
   -7.8658   -5.7934    1.7512 H   0  0  0  0  0  0  0  0  0  0  0  0
   -6.6924   -6.5730   -0.6320 H   0  0  0  0  0  0  0  0  0  0  0  0
   -8.0362   -7.4859    0.0918 H   0  0  0  0  0  0  0  0  0  0  0  0
   -8.0594   -5.9347   -2.3995 H   0  0  0  0  0  0  0  0  0  0  0  0
   -9.3005   -6.9753   -1.7402 H   0  0  0  0  0  0  0  0  0  0  0  0
   -1.1456    2.3174   -1.1904 H   0  0  0  0  0  0  0  0  0  0  0  0
   -2.4711    3.0054   -0.3416 H   0  0  0  0  0  0  0  0  0  0  0  0
  1  2  1  0  0  0  0
  1 31  1  0  0  0  0
  1 32  1  0  0  0  0
  1 33  1  0  0  0  0
  2  3  1  0  0  0  0
  2 34  1  0  0  0  0
  2 35  1  0  0  0  0
  3  4  1  0  0  0  0
  3 36  1  0  0  0  0
  3 37  1  0  0  0  0
  4  5  1  0  0  0  0
  4 38  1  0  0  0  0
  4 39  1  0  0  0  0
  5  6  1  0  0  0  0
  6  7  2  0  0  0  0
  6 11  1  0  0  0  0
  7  8  1  0  0  0  0
  8  9  2  0  0  0  0
  8 30  1  0  0  0  0
  9 10  1  0  0  0  0
  9 16  1  0  0  0  0
 10 11  2  0  0  0  0
 10 12  1  0  0  0  0
 12 13  1  0  0  0  0
 12 17  1  0  0  0  0
 13 14  1  0  0  0  0
 13 40  1  0  0  0  0
 13 41  1  0  0  0  0
 14 15  2  0  0  0  0
 14 16  1  0  0  0  0
 16 42  1  0  0  0  0
 17 18  1  0  0  0  0
 17 43  1  0  0  0  0
 17 44  1  0  0  0  0
 18 19  2  0  0  0  0
 18 23  1  0  0  0  0
 19 20  1  0  0  0  0
 19 45  1  0  0  0  0
 20 21  2  0  0  0  0
 20 46  1  0  0  0  0
 21 22  1  0  0  0  0
 21 47  1  0  0  0  0
 22 23  2  0  0  0  0
 22 24  1  0  0  0  0
 23 48  1  0  0  0  0
 24 25  1  0  0  0  0
 24 49  1  0  0  0  0
 24 50  1  0  0  0  0
 25 26  1  0  0  0  0
 25 29  1  0  0  0  0
 26 27  1  0  0  0  0
 26 51  1  0  0  0  0
 26 52  1  0  0  0  0
 27 28  1  0  0  0  0
 27 53  1  0  0  0  0
 27 54  1  0  0  0  0
 28 29  1  0  0  0  0
 28 55  1  0  0  0  0
 28 56  1  0  0  0  0
 29 57  1  0  0  0  0
 29 58  1  0  0  0  0
 30 59  1  0  0  0  0
 30 60  1  0  0  0  0
M  END
>  <DRUGBANK_ID>
DB12687

>  <COMMON_NAME>
Vesatolimod

>  <CAS_NUMBER>
1228585-88-3

>  <UNII>
O8M467C50G

>  <SYNONYMS>
Vesatolimod

$$$$
