
 OpenBabel10282417233D

189193  0  0  1  0  0  0  0  0999 V2000
    1.0187    0.0830    0.0526 Lu  0  1  0  0  0  0  0  0  0  0  0  0
    0.9857   -0.0195   -0.0970 C   0  0  0  0  0  0  0  0  0  0  0  0
    0.4790   -1.4140   -0.4273 C   0  0  1  0  0  0  0  0  0  0  0  0
    0.9524   -2.3325    0.5466 O   0  0  0  0  0  0  0  0  0  0  0  0
   -1.0410   -1.4140   -0.4273 C   0  0  1  0  0  0  0  0  0  0  0  0
   -1.5476   -0.4307   -1.4698 C   0  0  0  0  0  0  0  0  0  0  0  0
   -1.0743   -0.8149   -2.7523 O   0  0  0  0  0  0  0  0  0  0  0  0
   -1.5310   -2.7626   -0.7467 N   0  0  0  0  0  0  0  0  0  0  0  0
   -2.3761   -3.4845    0.2153 C   0  0  0  0  0  0  0  0  0  0  0  0
   -2.7997   -4.6505   -0.0608 O   0  0  0  0  0  0  0  0  0  0  0  0
   -2.7433   -2.8365    1.5403 C   0  0  0  0  0  0  0  0  0  0  0  0
  -19.7836   -2.0077    6.9768 C   0  0  0  0  0  0  0  0  0  0  0  0
  -18.7430   -0.8772    6.0201 S   0  0  0  0  0  0  0  0  0  0  0  0
  -19.7930    0.9055    5.6603 S   0  0  0  0  0  0  0  0  0  0  0  0
  -18.7524    2.0360    4.7037 C   0  0  0  0  0  0  0  0  0  0  0  0
  -17.4858    2.3431    5.4858 C   0  0  2  0  0  0  0  0  0  0  0  0
  -16.6406    3.2613    4.7088 N   0  0  0  0  0  0  0  0  0  0  0  0
  -16.8753    3.7078    3.3281 C   0  0  0  0  0  0  0  0  0  0  0  0
  -16.0026    4.4130    2.7313 O   0  0  0  0  0  0  0  0  0  0  0  0
  -18.1618    3.3259    2.6142 C   0  0  1  0  0  0  0  0  0  0  0  0
  -18.2660    1.8117    2.5331 C   0  0  0  0  0  0  0  0  0  0  0  0
  -18.2732    1.2285    3.9368 C   0  0  0  0  0  0  0  0  0  0  0  0
  -17.6855    0.0442    4.0601 C   0  0  0  0  0  0  0  0  0  0  0  0
  -17.5559   -0.5473    5.2935 C   0  0  0  0  0  0  0  0  0  0  0  0
  -18.1068    0.0222    6.4078 C   0  0  0  0  0  0  0  0  0  0  0  0
  -18.6162    1.2315    6.2587 C   0  0  0  0  0  0  0  0  0  0  0  0
  -18.9074    1.8312    5.0106 C   0  0  0  0  0  0  0  0  0  0  0  0
  -19.3121    3.8571    3.3595 N   0  0  0  0  0  0  0  0  0  0  0  0
  -20.2330    4.8034    2.7135 C   0  0  0  0  0  0  0  0  0  0  0  0
  -21.2275    5.2626    3.3579 O   0  0  0  0  0  0  0  0  0  0  0  0
  -19.9958    5.2326    1.2748 C   0  0  0  0  0  0  0  0  0  0  0  0
  -18.6832    5.8858    1.1684 N   0  0  0  0  0  0  0  0  0  0  0  0
  -18.1361    6.1004    2.5158 C   0  0  0  0  0  0  0  0  0  0  0  0
  -17.4464    4.9042    3.1283 C   0  0  0  0  0  0  0  0  0  0  0  0
  -16.0535    4.7625    2.7219 N   0  0  0  0  0  0  0  0  0  0  0  0
  -15.3889    3.8279    3.6415 C   0  0  0  0  0  0  0  0  0  0  0  0
  -16.0365    2.4576    3.5268 C   0  0  0  0  0  0  0  0  0  0  0  0
  -15.2602    1.3363    3.1312 O   0  5  0  0  0  0  0  0  0  0  0  0
  -17.2727    2.3153    3.7850 O   0  0  0  0  0  0  0  0  0  0  0  0
  -15.9090    4.2546    1.3511 C   0  0  0  0  0  0  0  0  0  0  0  0
  -14.6129    4.7218    0.7168 C   0  0  0  0  0  0  0  0  0  0  0  0
  -14.7652    6.0054    0.0230 N   0  0  0  0  0  0  0  0  0  0  0  0
  -13.4528    6.6588   -0.0838 C   0  0  0  0  0  0  0  0  0  0  0  0
  -12.5092    5.7730   -0.8808 C   0  0  0  0  0  0  0  0  0  0  0  0
  -11.9322    6.2537   -2.0860 O   0  5  0  0  0  0  0  0  0  0  0  0
  -12.2365    4.6021   -0.4686 O   0  0  0  0  0  0  0  0  0  0  0  0
  -15.3123    5.7907   -1.3244 C   0  0  0  0  0  0  0  0  0  0  0  0
  -16.0020    6.9869   -1.9369 C   0  0  0  0  0  0  0  0  0  0  0  0
  -17.3953    7.1279   -1.5310 N   0  0  0  0  0  0  0  0  0  0  0  0
  -18.0445    5.8116   -1.6145 C   0  0  0  0  0  0  0  0  0  0  0  0
  -17.3807    4.8562   -0.6363 C   0  0  0  0  0  0  0  0  0  0  0  0
  -18.1449    4.2557    0.3990 O   0  5  0  0  0  0  0  0  0  0  0  0
  -16.1417    4.5949   -0.7449 O   0  0  0  0  0  0  0  0  0  0  0  0
  -17.5394    7.6366   -0.1597 C   0  0  0  0  0  0  0  0  0  0  0  0
  -18.8355    7.1693    0.4746 C   0  0  0  0  0  0  0  0  0  0  0  0
  -16.7258    1.0528    5.7462 C   0  0  0  0  0  0  0  0  0  0  0  0
  -17.2738    0.1145    6.4054 O   0  0  0  0  0  0  0  0  0  0  0  0
  -15.3569    0.8901    5.2356 N   0  0  0  0  0  0  0  0  0  0  0  0
  -14.6219   -0.3578    5.4875 C   0  0  0  0  0  0  0  0  0  0  0  0
  -15.4958   -1.3072    6.2908 C   0  0  0  0  0  0  0  0  0  0  0  0
  -14.7358   -2.5975    6.5513 C   0  0  0  0  0  0  0  0  0  0  0  0
  -13.5786   -2.5672    7.2018 C   0  0  0  0  0  0  0  0  0  0  0  0
  -12.9629   -3.7331    7.5884 C   0  0  0  0  0  0  0  0  0  0  0  0
  -13.4763   -4.9501    7.2352 C   0  0  0  0  0  0  0  0  0  0  0  0
  -12.7717   -6.1587    7.4786 O   0  0  0  0  0  0  0  0  0  0  0  0
  -14.6629   -4.9411    6.6555 C   0  0  0  0  0  0  0  0  0  0  0  0
  -15.2795   -3.7916    6.1073 C   0  0  0  0  0  0  0  0  0  0  0  0
  -14.2547   -1.0058    4.1625 C   0  0  0  0  0  0  0  0  0  0  0  0
  -15.1680   -1.3466    3.3471 O   0  0  0  0  0  0  0  0  0  0  0  0
  -12.8432   -1.2382    3.8242 N   0  0  0  0  0  0  0  0  0  0  0  0
  -12.4881   -1.8649    2.5427 C   0  0  2  0  0  0  0  0  0  0  0  0
  -11.7281   -3.1553    2.8032 C   0  0  0  0  0  0  0  0  0  0  0  0
  -12.7749   -3.9200    3.5967 C   0  0  0  0  0  0  0  0  0  0  0  0
  -13.6806    0.1689    4.1038 C   0  0  0  0  0  0  0  0  0  0  0  0
  -13.3123   -1.1705    4.0029 N   0  0  0  0  0  0  0  0  0  0  0  0
  -13.6731   -2.0693    5.0038 C   0  0  0  0  0  0  0  0  0  0  0  0
  -13.3155   -3.3435    4.8950 C   0  0  0  0  0  0  0  0  0  0  0  0
  -13.5210   -4.2188    5.9340 C   0  0  0  0  0  0  0  0  0  0  0  0
  -14.1787   -3.8244    7.0661 C   0  0  0  0  0  0  0  0  0  0  0  0
  -14.4516   -2.5364    7.1682 C   0  0  0  0  0  0  0  0  0  0  0  0
  -14.3983   -1.6171    6.0939 C   0  0  0  0  0  0  0  0  0  0  0  0
  -11.6142   -0.9155    1.7394 C   0  0  0  0  0  0  0  0  0  0  0  0
  -12.0563    0.2293    1.4092 O   0  0  0  0  0  0  0  0  0  0  0  0
  -10.2577   -1.3216    1.3444 N   0  0  0  0  0  0  0  0  0  0  0  0
   -9.4126   -0.4034    0.5675 C   0  0  1  0  0  0  0  0  0  0  0  0
  -10.1726    0.8869    0.3070 C   0  0  0  0  0  0  0  0  0  0  0  0
   -9.2987    1.8363   -0.4963 C   0  0  0  0  0  0  0  0  0  0  0  0
   -8.9315    1.1883   -1.8214 C   0  0  0  0  0  0  0  0  0  0  0  0
  -10.1982    0.8813   -2.6034 C   0  0  0  0  0  0  0  0  0  0  0  0
  -10.9332    2.1292   -2.8553 N   0  0  0  0  0  0  0  0  0  0  0  0
   -8.1459   -0.0963    1.3495 C   0  0  0  0  0  0  0  0  0  0  0  0
   -8.2227    0.4511    2.4939 O   0  0  0  0  0  0  0  0  0  0  0  0
   -6.8321   -0.4326    0.7822 N   0  0  0  0  0  0  0  0  0  0  0  0
   -5.6071   -0.1356    1.5386 C   0  0  0  0  0  0  0  0  0  0  0  0
   -5.9743    0.5124    2.8636 C   0  0  1  0  0  0  0  0  0  0  0  0
   -4.7077    0.8194    3.6457 C   0  0  0  0  0  0  0  0  0  0  0  0
   -6.6843    1.7178    2.6203 O   0  0  0  0  0  0  0  0  0  0  0  0
   -4.8471   -1.4260    1.7990 C   0  0  0  0  0  0  0  0  0  0  0  0
   -5.3951   -2.3642    2.4583 O   0  0  0  0  0  0  0  0  0  0  0  0
   -3.4783   -1.5886    1.2884 N   0  0  0  0  0  0  0  0  0  0  0  0
    0.6290    0.2700    0.8693 H   0  0  0  0  0  0  0  0  0  0  0  0
    0.6290    0.6727   -0.8309 H   0  0  0  0  0  0  0  0  0  0  0  0
    2.0557   -0.0195   -0.0970 H   0  0  0  0  0  0  0  0  0  0  0  0
    0.8357   -1.7034   -1.3937 H   0  0  0  0  0  0  0  0  0  0  0  0
    1.9524   -2.3325    0.5466 H   0  0  0  0  0  0  0  0  0  0  0  0
   -1.3976   -1.1245    0.5391 H   0  0  0  0  0  0  0  0  0  0  0  0
   -2.6176   -0.4307   -1.4698 H   0  0  0  0  0  0  0  0  0  0  0  0
   -1.1910    0.5510   -1.2373 H   0  0  0  0  0  0  0  0  0  0  0  0
   -0.0743   -0.8149   -2.7523 H   0  0  0  0  0  0  0  0  0  0  0  0
   -1.2846   -3.1974   -1.6359 H   0  0  0  0  0  0  0  0  0  0  0  0
   -3.3585   -3.5048    2.1058 H   0  0  0  0  0  0  0  0  0  0  0  0
  -20.6753   -2.2239    6.4262 H   0  0  0  0  0  0  0  0  0  0  0  0
  -19.2486   -2.9161    7.1601 H   0  0  0  0  0  0  0  0  0  0  0  0
  -19.2874    2.9444    4.5203 H   0  0  0  0  0  0  0  0  0  0  0  0
  -18.4939    1.5799    3.7709 H   0  0  0  0  0  0  0  0  0  0  0  0
  -17.7443    2.7993    6.4185 H   0  0  0  0  0  0  0  0  0  0  0  0
  -15.7774    3.5175    5.1879 H   0  0  0  0  0  0  0  0  0  0  0  0
  -18.1567    3.7365    1.6261 H   0  0  0  0  0  0  0  0  0  0  0  0
  -19.1716    1.5429    2.0306 H   0  0  0  0  0  0  0  0  0  0  0  0
  -17.4287    1.4250    1.9906 H   0  0  0  0  0  0  0  0  0  0  0  0
  -17.3095   -0.4541    3.1911 H   0  0  0  0  0  0  0  0  0  0  0  0
  -17.0160   -1.4667    5.3833 H   0  0  0  0  0  0  0  0  0  0  0  0
  -18.1242   -0.4846    7.3500 H   0  0  0  0  0  0  0  0  0  0  0  0
  -18.8232    1.7970    7.1431 H   0  0  0  0  0  0  0  0  0  0  0  0
  -19.5583    2.6739    4.9059 H   0  0  0  0  0  0  0  0  0  0  0  0
  -19.4712    3.5690    4.3250 H   0  0  0  0  0  0  0  0  0  0  0  0
  -20.0193    4.3733    0.6377 H   0  0  0  0  0  0  0  0  0  0  0  0
  -20.7608    5.9187    0.9766 H   0  0  0  0  0  0  0  0  0  0  0  0
  -17.3854    6.8561    2.4145 H   0  0  0  0  0  0  0  0  0  0  0  0
  -18.9429    6.3828    3.1595 H   0  0  0  0  0  0  0  0  0  0  0  0
  -17.4510    5.0482    4.1886 H   0  0  0  0  0  0  0  0  0  0  0  0
  -17.9758    4.0218    2.8353 H   0  0  0  0  0  0  0  0  0  0  0  0
  -14.3519    3.7547    3.3878 H   0  0  0  0  0  0  0  0  0  0  0  0
  -15.4861    4.1854    4.6453 H   0  0  0  0  0  0  0  0  0  0  0  0
  -15.8966    3.1853    1.3897 H   0  0  0  0  0  0  0  0  0  0  0  0
  -16.7304    4.6059    0.7621 H   0  0  0  0  0  0  0  0  0  0  0  0
  -13.8945    4.8548    1.4985 H   0  0  0  0  0  0  0  0  0  0  0  0
  -14.2897    3.9853    0.0111 H   0  0  0  0  0  0  0  0  0  0  0  0
  -13.5625    7.6004   -0.5800 H   0  0  0  0  0  0  0  0  0  0  0  0
  -13.0520    6.8164    0.8958 H   0  0  0  0  0  0  0  0  0  0  0  0
  -14.4743    5.5765   -1.9543 H   0  0  0  0  0  0  0  0  0  0  0  0
  -16.0218    4.9916   -1.2701 H   0  0  0  0  0  0  0  0  0  0  0  0
  -15.4848    7.8580   -1.5924 H   0  0  0  0  0  0  0  0  0  0  0  0
  -15.9681    6.8884   -3.0018 H   0  0  0  0  0  0  0  0  0  0  0  0
  -19.0815    5.9093   -1.3697 H   0  0  0  0  0  0  0  0  0  0  0  0
  -17.9474    5.4285   -2.6088 H   0  0  0  0  0  0  0  0  0  0  0  0
  -16.7257    7.2605    0.4246 H   0  0  0  0  0  0  0  0  0  0  0  0
  -17.5299    8.7063   -0.1831 H   0  0  0  0  0  0  0  0  0  0  0  0
  -19.5539    7.0364   -0.3071 H   0  0  0  0  0  0  0  0  0  0  0  0
  -19.1587    7.9059    1.1803 H   0  0  0  0  0  0  0  0  0  0  0  0
  -14.9171    1.6431    4.7065 H   0  0  0  0  0  0  0  0  0  0  0  0
  -13.7303   -0.1416    6.0380 H   0  0  0  0  0  0  0  0  0  0  0  0
  -15.7543   -0.8510    7.2236 H   0  0  0  0  0  0  0  0  0  0  0  0
  -16.3875   -1.5233    5.7403 H   0  0  0  0  0  0  0  0  0  0  0  0
  -13.1215   -1.6264    7.4270 H   0  0  0  0  0  0  0  0  0  0  0  0
  -12.0686   -3.6880    8.1743 H   0  0  0  0  0  0  0  0  0  0  0  0
  -11.8745   -6.1342    7.9196 H   0  0  0  0  0  0  0  0  0  0  0  0
  -15.1949   -5.8676    6.5961 H   0  0  0  0  0  0  0  0  0  0  0  0
  -16.0920   -3.8404    5.4129 H   0  0  0  0  0  0  0  0  0  0  0  0
  -12.1102   -0.9647    4.4786 H   0  0  0  0  0  0  0  0  0  0  0  0
  -13.3797   -2.0811    1.9922 H   0  0  0  0  0  0  0  0  0  0  0  0
  -11.4693   -3.7107    1.9260 H   0  0  0  0  0  0  0  0  0  0  0  0
  -10.8557   -3.0145    3.4065 H   0  0  0  0  0  0  0  0  0  0  0  0
  -14.2408    0.5075    4.9502 H   0  0  0  0  0  0  0  0  0  0  0  0
  -12.7783   -1.4932    3.1960 H   0  0  0  0  0  0  0  0  0  0  0  0
  -13.1613   -5.2234    5.8561 H   0  0  0  0  0  0  0  0  0  0  0  0
  -14.4572   -4.5219    7.8282 H   0  0  0  0  0  0  0  0  0  0  0  0
  -14.7326   -2.1618    8.1303 H   0  0  0  0  0  0  0  0  0  0  0  0
  -14.8750   -0.6596    6.1210 H   0  0  0  0  0  0  0  0  0  0  0  0
   -9.9029   -2.2404    1.6094 H   0  0  0  0  0  0  0  0  0  0  0  0
   -9.1541   -0.8596   -0.3653 H   0  0  0  0  0  0  0  0  0  0  0  0
  -11.0642    0.6708   -0.2435 H   0  0  0  0  0  0  0  0  0  0  0  0
  -10.4311    1.3431    1.2398 H   0  0  0  0  0  0  0  0  0  0  0  0
   -9.8337    2.7447   -0.6797 H   0  0  0  0  0  0  0  0  0  0  0  0
   -8.4070    2.0525    0.0542 H   0  0  0  0  0  0  0  0  0  0  0  0
   -8.3163    1.8567   -2.3869 H   0  0  0  0  0  0  0  0  0  0  0  0
   -8.3965    0.2800   -1.6380 H   0  0  0  0  0  0  0  0  0  0  0  0
   -9.9397    0.4251   -3.5362 H   0  0  0  0  0  0  0  0  0  0  0  0
  -10.8133    0.2129   -2.0379 H   0  0  0  0  0  0  0  0  0  0  0  0
  -11.7832    1.9231   -3.3801 H   0  0  0  0  0  0  0  0  0  0  0  0
  -11.1796    2.5640   -1.9662 H   0  0  0  0  0  0  0  0  0  0  0  0
   -6.7705   -0.8720   -0.1362 H   0  0  0  0  0  0  0  0  0  0  0  0
   -4.9920    0.5327    0.9731 H   0  0  0  0  0  0  0  0  0  0  0  0
   -6.5895   -0.1559    3.4291 H   0  0  0  0  0  0  0  0  0  0  0  0
   -4.0925    1.4878    3.0802 H   0  0  0  0  0  0  0  0  0  0  0  0
   -4.9662    1.2756    4.5785 H   0  0  0  0  0  0  0  0  0  0  0  0
   -4.1727   -0.0889    3.8290 H   0  0  0  0  0  0  0  0  0  0  0  0
   -6.1094    2.3424    2.0918 H   0  0  0  0  0  0  0  0  0  0  0  0
   -3.0385   -0.8356    0.7594 H   0  0  0  0  0  0  0  0  0  0  0  0
  2101  1  0  0  0  0
  2102  1  0  0  0  0
  2103  1  0  0  0  0
  3  2  1  0  0  0  0
  3  4  1  0  0  0  0
  3  5  1  0  0  0  0
  3104  1  6  0  0  0
  4105  1  0  0  0  0
  5  6  1  0  0  0  0
  5  8  1  0  0  0  0
  5106  1  1  0  0  0
  6  7  1  0  0  0  0
  6107  1  0  0  0  0
  6108  1  0  0  0  0
  7109  1  0  0  0  0
  8  9  1  0  0  0  0
  8110  1  0  0  0  0
  9 10  2  0  0  0  0
 11  9  1  0  0  0  0
 11 12  1  0  0  0  0
 11100  1  0  0  0  0
 11111  1  0  0  0  0
 12 13  1  0  0  0  0
 12112  1  0  0  0  0
 12113  1  0  0  0  0
 13 14  1  0  0  0  0
 14 15  1  0  0  0  0
 15114  1  0  0  0  0
 15115  1  0  0  0  0
 16 15  1  0  0  0  0
 16 56  1  0  0  0  0
 16116  1  1  0  0  0
 16 17  1  0  0  0  0
 17 18  1  0  0  0  0
 17117  1  0  0  0  0
 18 19  2  0  0  0  0
 20 18  1  0  0  0  0
 20 21  1  0  0  0  0
 20 28  1  0  0  0  0
 20118  1  6  0  0  0
 21 22  1  0  0  0  0
 21119  1  0  0  0  0
 21120  1  0  0  0  0
 22 23  2  0  0  0  0
 22 27  1  0  0  0  0
 23 24  1  0  0  0  0
 23121  1  0  0  0  0
 24 25  2  0  0  0  0
 24122  1  0  0  0  0
 25 26  1  0  0  0  0
 25123  1  0  0  0  0
 26 27  2  0  0  0  0
 26124  1  0  0  0  0
 27125  1  0  0  0  0
 28 29  1  0  0  0  0
 28126  1  0  0  0  0
 29 30  2  0  0  0  0
 29 31  1  0  0  0  0
 31 32  1  0  0  0  0
 31127  1  0  0  0  0
 31128  1  0  0  0  0
 32 33  1  0  0  0  0
 32 55  1  0  0  0  0
 33 34  1  0  0  0  0
 33129  1  0  0  0  0
 33130  1  0  0  0  0
 34 35  1  0  0  0  0
 34131  1  0  0  0  0
 34132  1  0  0  0  0
 35 36  1  0  0  0  0
 35 40  1  0  0  0  0
 36 37  1  0  0  0  0
 36133  1  0  0  0  0
 36134  1  0  0  0  0
 37 38  1  0  0  0  0
 37 39  2  0  0  0  0
 40 41  1  0  0  0  0
 40135  1  0  0  0  0
 40136  1  0  0  0  0
 41 42  1  0  0  0  0
 41137  1  0  0  0  0
 41138  1  0  0  0  0
 42 43  1  0  0  0  0
 42 47  1  0  0  0  0
 43 44  1  0  0  0  0
 43139  1  0  0  0  0
 43140  1  0  0  0  0
 44 45  1  0  0  0  0
 44 46  2  0  0  0  0
 47 48  1  0  0  0  0
 47141  1  0  0  0  0
 47142  1  0  0  0  0
 48 49  1  0  0  0  0
 48143  1  0  0  0  0
 48144  1  0  0  0  0
 49 50  1  0  0  0  0
 49 54  1  0  0  0  0
 50 51  1  0  0  0  0
 50145  1  0  0  0  0
 50146  1  0  0  0  0
 51 52  1  0  0  0  0
 51 53  2  0  0  0  0
 54 55  1  0  0  0  0
 54147  1  0  0  0  0
 54148  1  0  0  0  0
 55149  1  0  0  0  0
 55150  1  0  0  0  0
 56 57  2  0  0  0  0
 56 58  1  0  0  0  0
 58151  1  0  0  0  0
 59 58  1  0  0  0  0
 59 60  1  0  0  0  0
 59 68  1  0  0  0  0
 59152  1  0  0  0  0
 60 61  1  0  0  0  0
 60153  1  0  0  0  0
 60154  1  0  0  0  0
 61 62  2  0  0  0  0
 61 67  1  0  0  0  0
 62 63  1  0  0  0  0
 62155  1  0  0  0  0
 63 64  2  0  0  0  0
 63156  1  0  0  0  0
 64 65  1  0  0  0  0
 64 66  1  0  0  0  0
 65157  1  0  0  0  0
 66 67  2  0  0  0  0
 66158  1  0  0  0  0
 67159  1  0  0  0  0
 68 69  2  0  0  0  0
 68 70  1  0  0  0  0
 70160  1  0  0  0  0
 71 70  1  0  0  0  0
 71 82  1  0  0  0  0
 71161  1  6  0  0  0
 71 72  1  0  0  0  0
 72 73  1  0  0  0  0
 72162  1  0  0  0  0
 72163  1  0  0  0  0
 73 74  2  0  0  0  0
 73 77  1  0  0  0  0
 74 75  1  0  0  0  0
 74164  1  0  0  0  0
 75 76  1  0  0  0  0
 75165  1  0  0  0  0
 76 77  2  0  0  0  0
 76 81  1  0  0  0  0
 77 78  1  0  0  0  0
 78 79  2  0  0  0  0
 78166  1  0  0  0  0
 79 80  1  0  0  0  0
 79167  1  0  0  0  0
 80 81  2  0  0  0  0
 80168  1  0  0  0  0
 81169  1  0  0  0  0
 82 83  2  0  0  0  0
 82 84  1  0  0  0  0
 84170  1  0  0  0  0
 85 84  1  0  0  0  0
 85 86  1  0  0  0  0
 85 91  1  0  0  0  0
 85171  1  6  0  0  0
 86 87  1  0  0  0  0
 86172  1  0  0  0  0
 86173  1  0  0  0  0
 87 88  1  0  0  0  0
 87174  1  0  0  0  0
 87175  1  0  0  0  0
 88 89  1  0  0  0  0
 88176  1  0  0  0  0
 88177  1  0  0  0  0
 89 90  1  0  0  0  0
 89178  1  0  0  0  0
 89179  1  0  0  0  0
 90180  1  0  0  0  0
 90181  1  0  0  0  0
 91 92  2  0  0  0  0
 91 93  1  0  0  0  0
 93182  1  0  0  0  0
 94 93  1  0  0  0  0
 94 95  1  0  0  0  0
 94 98  1  0  0  0  0
 94183  1  0  0  0  0
 95 96  1  0  0  0  0
 95 97  1  0  0  0  0
 95184  1  1  0  0  0
 96185  1  0  0  0  0
 96186  1  0  0  0  0
 96187  1  0  0  0  0
 97188  1  0  0  0  0
 98 99  2  0  0  0  0
 98100  1  0  0  0  0
100189  1  0  0  0  0
M  ISO  1   1 177
M  CHG  4   1   3  38  -1  45  -1  52  -1
M  END
>  <DRUGBANK_ID>
DB17278

>  <COMMON_NAME>
Lutetium Lu177 Edotreotide

>  <CAS_NUMBER>
321835-55-6

>  <UNII>
RGO812Q0C8

>  <SYNONYMS>
(177ludota)-toc; Dotatoc Lu-177; Edotreotide lutetium Lu-177; Lutetium (177lu) edotreotide; Lutetium (177Lu)-edotreotide; Lutetium lu 177-edotreotide; Lutetium Lu-177 dota-tyr3-octreotide; Lutetium Lu-177-edotreotide

$$$$
