1618
 OpenBabel10282417123D

 44 46  0  0  1  0  0  0  0  0999 V2000
    0.8371   -0.0173    1.3686 O   0  0  0  0  0  0  0  0  0  0  0  0
   -0.0037    2.2437   -2.7590 O   0  0  0  0  0  0  0  0  0  0  0  0
   -1.6689    0.0479   -0.1561 N   0  0  0  0  0  0  0  0  0  0  0  0
    3.5478    0.5280   -0.4868 N   0  0  0  0  0  0  0  0  0  0  0  0
   -0.1070   -0.0986   -2.5309 C   0  0  3  0  0  0  0  0  0  0  0  0
    0.7530   -1.3869   -2.3389 C   0  0  0  0  0  0  0  0  0  0  0  0
   -1.4709    0.0169   -1.6582 C   0  0  0  0  0  0  0  0  0  0  0  0
    2.1846   -1.2793   -1.6590 C   0  0  0  0  0  0  0  0  0  0  0  0
    1.9970    1.2757   -1.9108 C   0  0  0  0  0  0  0  0  0  0  0  0
    2.6439    0.1364   -1.4698 C   0  0  0  0  0  0  0  0  0  0  0  0
    0.6341    1.2445   -2.5196 C   0  0  0  0  0  0  0  0  0  0  0  0
    2.6222    2.3977   -1.2524 C   0  0  0  0  0  0  0  0  0  0  0  0
   -1.1075    1.2475    0.5319 C   0  0  0  0  0  0  0  0  0  0  0  0
   -1.2137   -1.1554    0.5830 C   0  0  0  0  0  0  0  0  0  0  0  0
    3.6132    1.9045   -0.4207 C   0  0  0  0  0  0  0  0  0  0  0  0
    0.3934    1.1490    0.6598 C   0  0  0  0  0  0  0  0  0  0  0  0
    0.2888   -1.1551    0.7069 C   0  0  0  0  0  0  0  0  0  0  0  0
    2.1870    3.8233   -1.3386 C   0  0  0  0  0  0  0  0  0  0  0  0
    4.5445    2.6648    0.4663 C   0  0  0  0  0  0  0  0  0  0  0  0
    2.1930    4.2241   -2.7976 C   0  0  0  0  0  0  0  0  0  0  0  0
    3.9724   -0.0874    0.1983 H   0  0  0  0  0  0  0  0  0  0  0  0
   -0.4497   -0.1532   -3.5809 H   0  0  0  0  0  0  0  0  0  0  0  0
    0.1143   -2.1178   -1.8164 H   0  0  0  0  0  0  0  0  0  0  0  0
    0.8877   -1.8861   -3.3045 H   0  0  0  0  0  0  0  0  0  0  0  0
   -2.1047   -0.8098   -2.0127 H   0  0  0  0  0  0  0  0  0  0  0  0
   -2.0082    0.9072   -2.0274 H   0  0  0  0  0  0  0  0  0  0  0  0
    2.2048   -1.7425   -0.6614 H   0  0  0  0  0  0  0  0  0  0  0  0
    2.8997   -1.9041   -2.1935 H   0  0  0  0  0  0  0  0  0  0  0  0
   -1.4772    1.3189    1.5580 H   0  0  0  0  0  0  0  0  0  0  0  0
   -1.3868    2.1594   -0.0057 H   0  0  0  0  0  0  0  0  0  0  0  0
   -1.6008   -1.1663    1.6050 H   0  0  0  0  0  0  0  0  0  0  0  0
   -1.5557   -2.0613    0.0719 H   0  0  0  0  0  0  0  0  0  0  0  0
    0.6458    1.0017   -0.3501 H   0  0  0  0  0  0  0  0  0  0  0  0
    0.9206    2.0562    0.9570 H   0  0  0  0  0  0  0  0  0  0  0  0
    0.7600   -2.1061    0.9708 H   0  0  0  0  0  0  0  0  0  0  0  0
    0.5463   -1.0017   -0.2981 H   0  0  0  0  0  0  0  0  0  0  0  0
    1.2011    3.9570   -0.8700 H   0  0  0  0  0  0  0  0  0  0  0  0
    2.8727    4.4743   -0.7814 H   0  0  0  0  0  0  0  0  0  0  0  0
    5.1459    3.3254   -0.1689 H   0  0  0  0  0  0  0  0  0  0  0  0
    4.0088    3.3069    1.1787 H   0  0  0  0  0  0  0  0  0  0  0  0
    5.2278    2.0250    1.0303 H   0  0  0  0  0  0  0  0  0  0  0  0
    1.4483    3.6819   -3.3755 H   0  0  0  0  0  0  0  0  0  0  0  0
    1.9830    5.2821   -2.9276 H   0  0  0  0  0  0  0  0  0  0  0  0
    3.1562    3.9569   -3.2417 H   0  0  0  0  0  0  0  0  0  0  0  0
  1 16  1  0  0  0  0
  1 17  1  0  0  0  0
  2 11  2  0  0  0  0
  3  7  1  0  0  0  0
  3 13  1  0  0  0  0
  3 14  1  0  0  0  0
  4 10  1  0  0  0  0
  4 15  1  0  0  0  0
  4 21  1  0  0  0  0
  5  6  1  0  0  0  0
  5  7  1  0  0  0  0
  5 11  1  0  0  0  0
  5 22  1  0  0  0  0
  6  8  1  0  0  0  0
  6 23  1  0  0  0  0
  6 24  1  0  0  0  0
  7 25  1  0  0  0  0
  7 26  1  0  0  0  0
  8 10  1  0  0  0  0
  8 27  1  0  0  0  0
  8 28  1  0  0  0  0
  9 10  2  0  0  0  0
  9 11  1  0  0  0  0
  9 12  1  0  0  0  0
 12 15  2  0  0  0  0
 12 18  1  0  0  0  0
 13 16  1  0  0  0  0
 13 29  1  0  0  0  0
 13 30  1  0  0  0  0
 14 17  1  0  0  0  0
 14 31  1  0  0  0  0
 14 32  1  0  0  0  0
 15 19  1  0  0  0  0
 16 33  1  0  0  0  0
 16 34  1  0  0  0  0
 17 35  1  0  0  0  0
 17 36  1  0  0  0  0
 18 20  1  0  0  0  0
 18 37  1  0  0  0  0
 18 38  1  0  0  0  0
 19 39  1  0  0  0  0
 19 40  1  0  0  0  0
 19 41  1  0  0  0  0
 20 42  1  0  0  0  0
 20 43  1  0  0  0  0
 20 44  1  0  0  0  0
M  END
>  <DRUGBANK_ID>
DB01618

>  <COMMON_NAME>
Molindone

>  <CAS_NUMBER>
7416-34-4

>  <UNII>
RT3Y3QMF8N

>  <SYNONYMS>
(+/-)-molindone; Molindona; Molindone; Molindonum

$$$$
