
 OpenBabel10282417123D

 45 44  0  0  0  0  0  0  0  0999 V2000
   -0.9344    3.4019   -1.4841 C   0  0  0  0  0  0  0  0  0  0  0  0
   -3.5704    7.2888   -1.7350 C   0  0  0  0  0  0  0  0  0  0  0  0
   -1.5241    4.3811   -2.4867 C   0  0  0  0  0  0  0  0  0  0  0  0
   -3.1110    6.2240   -0.7501 C   0  0  0  0  0  0  0  0  0  0  0  0
   -3.0580    4.3794   -2.4827 C   0  0  0  0  0  0  0  0  0  0  0  0
   -3.7170    4.8856   -1.1953 C   0  0  0  0  0  0  0  0  0  0  0  0
   -1.2860    3.7410   -0.0511 C   0  0  0  0  0  0  0  0  0  0  0  0
   -0.8530    2.7479    0.9552 C   0  0  0  0  0  0  0  0  0  0  0  0
   -5.1001    7.3626   -1.7371 C   0  0  0  0  0  0  0  0  0  0  0  0
   -5.6382    7.6732   -0.3386 C   0  0  0  0  0  0  0  0  0  0  0  0
    0.6416    2.7016    1.0934 C   0  0  2  0  0  0  0  0  0  0  0  0
    1.0456    1.6024    2.0581 C   0  0  0  0  0  0  0  0  0  0  0  0
   -5.1228    9.0273    0.1139 C   0  0  0  0  0  0  0  0  0  0  0  0
   -0.0987    1.2299    2.9857 C   0  0  0  0  0  0  0  0  0  0  0  0
   -0.6394    0.0120    2.7391 O   0  0  0  0  0  0  0  0  0  0  0  0
   -0.5728    1.9901    3.8034 O   0  0  0  0  0  0  0  0  0  0  0  0
    1.1316    3.9719    1.5180 O   0  0  0  0  0  0  0  0  0  0  0  0
    0.1514    3.4046   -1.6060 H   0  0  0  0  0  0  0  0  0  0  0  0
   -1.2904    2.3924   -1.7187 H   0  0  0  0  0  0  0  0  0  0  0  0
   -3.1127    8.2503   -1.4880 H   0  0  0  0  0  0  0  0  0  0  0  0
   -3.2006    7.0610   -2.7403 H   0  0  0  0  0  0  0  0  0  0  0  0
   -1.1130    5.3826   -2.3109 H   0  0  0  0  0  0  0  0  0  0  0  0
   -1.1723    4.1087   -3.4879 H   0  0  0  0  0  0  0  0  0  0  0  0
   -3.3855    6.4473    0.2869 H   0  0  0  0  0  0  0  0  0  0  0  0
   -2.0187    6.2458   -0.7164 H   0  0  0  0  0  0  0  0  0  0  0  0
   -3.3950    5.0101   -3.3133 H   0  0  0  0  0  0  0  0  0  0  0  0
   -3.4265    3.3738   -2.7037 H   0  0  0  0  0  0  0  0  0  0  0  0
   -4.7934    4.9294   -1.3413 H   0  0  0  0  0  0  0  0  0  0  0  0
   -3.7682    4.1630   -0.3908 H   0  0  0  0  0  0  0  0  0  0  0  0
   -0.9954    4.7530    0.2395 H   0  0  0  0  0  0  0  0  0  0  0  0
   -2.3310    3.6182    0.1236 H   0  0  0  0  0  0  0  0  0  0  0  0
   -1.3313    3.0903    1.8838 H   0  0  0  0  0  0  0  0  0  0  0  0
   -1.2804    1.7701    0.6986 H   0  0  0  0  0  0  0  0  0  0  0  0
   -5.4302    8.1044   -2.4649 H   0  0  0  0  0  0  0  0  0  0  0  0
   -5.5480    6.4303   -2.0961 H   0  0  0  0  0  0  0  0  0  0  0  0
   -6.7304    7.6583   -0.3556 H   0  0  0  0  0  0  0  0  0  0  0  0
   -5.3540    6.9067    0.3944 H   0  0  0  0  0  0  0  0  0  0  0  0
    1.1022    2.5111    0.1181 H   0  0  0  0  0  0  0  0  0  0  0  0
    1.3500    0.7288    1.4742 H   0  0  0  0  0  0  0  0  0  0  0  0
    1.8901    1.9207    2.6707 H   0  0  0  0  0  0  0  0  0  0  0  0
   -5.4242    9.7899   -0.6096 H   0  0  0  0  0  0  0  0  0  0  0  0
   -5.5113    9.2828    1.0992 H   0  0  0  0  0  0  0  0  0  0  0  0
   -4.0302    9.0480    0.1885 H   0  0  0  0  0  0  0  0  0  0  0  0
   -0.2095   -0.5176    2.0440 H   0  0  0  0  0  0  0  0  0  0  0  0
    0.6495    4.2271    2.3266 H   0  0  0  0  0  0  0  0  0  0  0  0
  1 18  1  0  0  0  0
  1 19  1  0  0  0  0
  2 20  1  0  0  0  0
  2 21  1  0  0  0  0
  3  1  1  0  0  0  0
  3 22  1  0  0  0  0
  3 23  1  0  0  0  0
  4  2  1  0  0  0  0
  4 24  1  0  0  0  0
  4 25  1  0  0  0  0
  5  3  1  0  0  0  0
  5 26  1  0  0  0  0
  5 27  1  0  0  0  0
  6  4  1  0  0  0  0
  6  5  1  0  0  0  0
  6 28  1  0  0  0  0
  6 29  1  0  0  0  0
  7  1  1  0  0  0  0
  7 30  1  0  0  0  0
  7 31  1  0  0  0  0
  8  7  1  0  0  0  0
  8 32  1  0  0  0  0
  8 33  1  0  0  0  0
  9  2  1  0  0  0  0
  9 34  1  0  0  0  0
  9 35  1  0  0  0  0
 10  9  1  0  0  0  0
 10 36  1  0  0  0  0
 10 37  1  0  0  0  0
 11 17  1  0  0  0  0
 11 38  1  6  0  0  0
 11 12  1  0  0  0  0
 11  8  1  0  0  0  0
 12 14  1  0  0  0  0
 12 39  1  0  0  0  0
 12 40  1  0  0  0  0
 13 10  1  0  0  0  0
 13 41  1  0  0  0  0
 13 42  1  0  0  0  0
 13 43  1  0  0  0  0
 14 15  1  0  0  0  0
 14 16  2  0  0  0  0
 15 44  1  0  0  0  0
 17 45  1  0  0  0  0
M  END
>  <DRUGBANK_ID>
DB02767

>  <SECONDARY_ACCESSION_NUMBERS>
EXPT01506

>  <COMMON_NAME>
(R)-3-hydroxytetradecanoic acid

>  <CAS_NUMBER>
28715-21-1

>  <UNII>
R7C245Y68X

>  <SYNONYMS>
(−)-3-hydroxymyristic acid; (3R)-hydroxymyristic acid; (R)-(-)-3-Hydroxytetradecanoic acid; (R)-(−)-3-hydroxytetradecanoic acid; (R)-3-Hydroxymyristic acid; (R)-3-Hydroxytetradecanoic acid; D-(-)-beta-Hydroxymyristic acid; D-(−)-β-hydroxymyristic acid; β-hydroxymyristic acid; β-hydroxytetradecanoic acid

$$$$
