
 OpenBabel10282417133D

 63 65  0  0  1  0  0  0  0  0999 V2000
   -5.0130   -6.9804    1.5988 C   0  0  0  0  0  0  0  0  0  0  0  0
   -4.5660   -6.9476    0.2593 C   0  0  0  0  0  0  0  0  0  0  0  0
   -3.4254    2.0787    1.4424 C   0  0  0  0  0  0  0  0  0  0  0  0
   -2.5107    1.4430    0.7268 C   0  0  0  0  0  0  0  0  0  0  0  0
   -2.7874    4.4004    1.3182 C   0  0  0  0  0  0  0  0  0  0  0  0
   -2.5664    5.6138    1.9386 C   0  0  0  0  0  0  0  0  0  0  0  0
   -5.1867   -5.7203    2.1227 C   0  0  0  0  0  0  0  0  0  0  0  0
   -3.8945    4.8699    3.8536 C   0  0  0  0  0  0  0  0  0  0  0  0
   -3.9931   -5.3251   -1.5795 C   0  0  0  0  0  0  0  0  0  0  0  0
   -0.9365   -5.5208   -3.5840 C   0  0  0  0  0  0  0  0  0  0  0  0
   -1.4286   -0.4155   -0.2510 C   0  0  0  0  0  0  0  0  0  0  0  0
   -3.4836    3.3953    2.0020 C   0  0  0  0  0  0  0  0  0  0  0  0
   -2.7755    0.1150    0.1940 C   0  0  0  0  0  0  0  0  0  0  0  0
   -3.0857    5.8212    3.2211 C   0  0  0  0  0  0  0  0  0  0  0  0
   -4.4870   -5.6658   -0.2195 C   0  0  0  0  0  0  0  0  0  0  0  0
   -1.2065   -5.7021   -5.0612 C   0  0  1  0  0  0  0  0  0  0  0  0
   -4.1754    3.6769    3.1968 C   0  0  0  0  0  0  0  0  0  0  0  0
   -4.8906   -4.3743   -2.3958 C   0  0  0  0  0  0  0  0  0  0  0  0
   -3.9598   -0.5586    0.0738 C   0  0  0  0  0  0  0  0  0  0  0  0
   -3.0783   -2.6650   -2.5422 C   0  0  1  0  0  0  0  0  0  0  0  0
   -2.8269   -2.5365   -1.0394 C   0  0  2  0  0  0  0  0  0  0  0  0
   -1.1330   -4.3401   -5.8629 C   0  0  0  0  0  0  0  0  0  0  0  0
   -5.4297   -0.2168    0.4468 C   0  0  0  0  0  0  0  0  0  0  0  0
   -1.8817   -3.3608   -3.1675 C   0  0  0  0  0  0  0  0  0  0  0  0
   -0.1909   -6.6542   -5.6283 N   0  0  0  0  0  0  0  0  0  0  0  0
   -4.4194   -3.2348   -2.8242 N   0  0  0  0  0  0  0  0  0  0  0  0
   -3.8987   -1.8477   -0.3821 N   0  0  0  0  0  0  0  0  0  0  0  0
   -2.8276    7.0880    3.8945 N   0  0  0  0  0  0  0  0  0  0  0  0
   -5.2633    2.8344    3.7761 N   0  0  0  0  0  0  0  0  0  0  0  0
   -6.0354   -4.7760   -2.6406 O   0  5  0  0  0  0  0  0  0  0  0  0
   -0.0330   -4.1534   -6.4743 O   0  0  0  0  0  0  0  0  0  0  0  0
   -2.1905   -3.6522   -5.8977 O   0  5  0  0  0  0  0  0  0  0  0  0
   -6.2972   -1.0631    0.6661 O   0  0  0  0  0  0  0  0  0  0  0  0
   -5.7643    1.0782    0.5680 O   0  0  0  0  0  0  0  0  0  0  0  0
   -0.8616   -2.7691   -3.5161 O   0  0  0  0  0  0  0  0  0  0  0  0
   -3.3204    7.2501    5.0187 O   0  0  0  0  0  0  0  0  0  0  0  0
   -2.1367    7.9236    3.2979 O   0  0  0  0  0  0  0  0  0  0  0  0
   -5.7090    1.8643    3.1530 O   0  0  0  0  0  0  0  0  0  0  0  0
   -5.7506    3.2147    4.8510 O   0  0  0  0  0  0  0  0  0  0  0  0
   -1.9638   -4.7054   -3.0540 O   0  0  0  0  0  0  0  0  0  0  0  0
   -4.8533   -4.5110    0.9817 S   0  0  0  0  0  0  0  0  0  0  0  0
   -1.1856   -2.1249   -0.4894 S   0  0  0  0  0  0  0  0  0  0  0  0
   -4.2479    1.4807    1.7117 H   0  0  0  0  0  0  0  0  0  0  0  0
   -1.5175    1.8655    0.5709 H   0  0  0  0  0  0  0  0  0  0  0  0
   -2.2138   -6.1144   -5.1973 H   0  0  0  0  0  0  0  0  0  0  0  0
   -3.1024   -1.6620   -2.9905 H   0  0  0  0  0  0  0  0  0  0  0  0
   -2.8268   -3.4790   -0.5331 H   0  0  0  0  0  0  0  0  0  0  0  0
   -5.2016   -7.8892    2.1410 H   0  0  0  0  0  0  0  0  0  0  0  0
   -4.3267   -7.7889   -0.3770 H   0  0  0  0  0  0  0  0  0  0  0  0
   -2.4070    4.2278    0.3089 H   0  0  0  0  0  0  0  0  0  0  0  0
   -1.9650    6.3588    1.4246 H   0  0  0  0  0  0  0  0  0  0  0  0
   -5.5130   -5.4333    3.1081 H   0  0  0  0  0  0  0  0  0  0  0  0
   -4.3063    5.0525    4.8436 H   0  0  0  0  0  0  0  0  0  0  0  0
   -2.9992   -4.9743   -1.3694 H   0  0  0  0  0  0  0  0  0  0  0  0
   -3.8071   -6.2167   -2.1899 H   0  0  0  0  0  0  0  0  0  0  0  0
    0.0598   -5.1503   -3.3161 H   0  0  0  0  0  0  0  0  0  0  0  0
   -1.0380   -6.4958   -3.0784 H   0  0  0  0  0  0  0  0  0  0  0  0
   -0.7145   -0.2709    0.5645 H   0  0  0  0  0  0  0  0  0  0  0  0
   -1.0665    0.1410   -1.1228 H   0  0  0  0  0  0  0  0  0  0  0  0
   -0.3305   -6.5352   -6.6376 H   0  0  0  0  0  0  0  0  0  0  0  0
    0.6867   -6.1291   -5.5130 H   0  0  0  0  0  0  0  0  0  0  0  0
   -4.8143   -2.2838   -0.5855 H   0  0  0  0  0  0  0  0  0  0  0  0
   -6.3785    1.1022    1.3422 H   0  0  0  0  0  0  0  0  0  0  0  0
  1 48  1  0  0  0  0
  2  1  1  0  0  0  0
  2 49  1  0  0  0  0
  4  3  2  0  0  0  0
  5 50  1  0  0  0  0
  6  5  2  0  0  0  0
  6 51  1  0  0  0  0
  7  1  2  0  0  0  0
  7 52  1  0  0  0  0
  8 53  1  0  0  0  0
  9 54  1  0  0  0  0
  9 55  1  0  0  0  0
 10 56  1  0  0  0  0
 10 57  1  0  0  0  0
 11 58  1  0  0  0  0
 11 59  1  0  0  0  0
 12  3  1  0  0  0  0
 12  5  1  0  0  0  0
 13  4  1  0  0  0  0
 13 11  1  0  0  0  0
 14  6  1  0  0  0  0
 14  8  2  0  0  0  0
 15  2  2  0  0  0  0
 15  9  1  0  0  0  0
 16 10  1  0  0  0  0
 16 25  1  0  0  0  0
 16 45  1  6  0  0  0
 17  8  1  0  0  0  0
 17 12  2  0  0  0  0
 18  9  1  0  0  0  0
 18 30  1  0  0  0  0
 19 13  2  0  0  0  0
 20 26  1  0  0  0  0
 20 46  1  6  0  0  0
 21 47  1  1  0  0  0
 21 20  1  0  0  0  0
 22 16  1  0  0  0  0
 23 19  1  0  0  0  0
 24 20  1  0  0  0  0
 25 60  1  0  0  0  0
 25 61  1  0  0  0  0
 26 18  2  3  0  0  0
 27 19  1  0  0  0  0
 27 21  1  0  0  0  0
 27 62  1  0  0  0  0
 28 14  1  0  0  0  0
 29 17  1  0  0  0  0
 31 22  2  0  0  0  0
 32 22  1  0  0  0  0
 33 23  2  0  0  0  0
 34 23  1  0  0  0  0
 34 63  1  0  0  0  0
 35 24  2  0  0  0  0
 36 28  2  0  0  0  0
 37 28  2  0  0  0  0
 38 29  2  0  0  0  0
 39 29  2  0  0  0  0
 40 10  1  0  0  0  0
 40 24  1  0  0  0  0
 41  7  1  0  0  0  0
 41 15  1  0  0  0  0
 42 11  1  0  0  0  0
 42 21  1  0  0  0  0
 43  3  1  0  0  0  0
 44  4  1  0  0  0  0
M  CHG  2  30  -1  32  -1
M  END
>  <DRUGBANK_ID>
DB04041

>  <SECONDARY_ACCESSION_NUMBERS>
EXPT02306

>  <COMMON_NAME>
Nitrocefin Acyl-Serine

$$$$
