
 OpenBabel10282417103D

 33 33  0  0  0  0  0  0  0  0999 V2000
    5.5264   -4.4251    0.2109 N   0  0  0  0  0  0  0  0  0  0  0  0
    6.5804   -4.3260   -0.6342 C   0  0  0  0  0  0  0  0  0  0  0  0
    6.4571   -3.3066   -1.4576 N   0  0  0  0  0  0  0  0  0  0  0  0
    4.6582   -3.4539   -0.1605 C   0  0  0  0  0  0  0  0  0  0  0  0
    5.2601   -2.7052   -1.1466 C   0  0  0  0  0  0  0  0  0  0  0  0
    4.7620   -1.4784   -1.8493 C   0  0  0  0  0  0  0  0  0  0  0  0
    5.8708   -0.0399   -1.7408 S   0  0  0  0  0  0  0  0  0  0  0  0
    5.9994    0.2127    0.0605 C   0  0  0  0  0  0  0  0  0  0  0  0
    4.7061    0.7202    0.7031 C   0  0  0  0  0  0  0  0  0  0  0  0
    3.6496   -0.2737    0.9546 N   0  0  0  0  0  0  0  0  0  0  0  0
    3.1402   -0.7291    2.1623 C   0  0  0  0  0  0  0  0  0  0  0  0
    2.0333   -1.5735    2.0445 N   0  0  0  0  0  0  0  0  0  0  0  0
    1.6413   -2.5412    3.0769 C   0  0  0  0  0  0  0  0  0  0  0  0
    3.5428   -0.4877    3.3684 N   0  0  0  0  0  0  0  0  0  0  0  0
    4.4999    0.4061    3.6280 C   0  0  0  0  0  0  0  0  0  0  0  0
    5.2911    1.2151    3.8420 N   0  0  0  0  0  0  0  0  0  0  0  0
    3.4179   -3.3094    0.5460 C   0  0  0  0  0  0  0  0  0  0  0  0
    5.3824   -5.0840    0.9669 H   0  0  0  0  0  0  0  0  0  0  0  0
    7.3966   -5.0260   -0.5932 H   0  0  0  0  0  0  0  0  0  0  0  0
    4.6234   -1.7012   -2.9096 H   0  0  0  0  0  0  0  0  0  0  0  0
    3.7580   -1.1821   -1.5346 H   0  0  0  0  0  0  0  0  0  0  0  0
    6.4253   -0.6545    0.5773 H   0  0  0  0  0  0  0  0  0  0  0  0
    6.7505    1.0113    0.1882 H   0  0  0  0  0  0  0  0  0  0  0  0
    5.0480    1.1774    1.6112 H   0  0  0  0  0  0  0  0  0  0  0  0
    4.2905    1.5687    0.1493 H   0  0  0  0  0  0  0  0  0  0  0  0
    3.1720   -0.5364    0.1083 H   0  0  0  0  0  0  0  0  0  0  0  0
    1.6569   -1.8337    1.1425 H   0  0  0  0  0  0  0  0  0  0  0  0
    0.5510   -2.6028    3.1144 H   0  0  0  0  0  0  0  0  0  0  0  0
    1.9913   -3.5664    2.8719 H   0  0  0  0  0  0  0  0  0  0  0  0
    2.0239   -2.2656    4.0595 H   0  0  0  0  0  0  0  0  0  0  0  0
    2.7206   -4.1429    0.5166 H   0  0  0  0  0  0  0  0  0  0  0  0
    3.6994   -3.1246    1.5882 H   0  0  0  0  0  0  0  0  0  0  0  0
    2.9160   -2.4843    0.0545 H   0  0  0  0  0  0  0  0  0  0  0  0
  1 18  1  0  0  0  0
  2  1  1  0  0  0  0
  2 19  1  0  0  0  0
  3  2  2  0  0  0  0
  4  1  1  0  0  0  0
  5  3  1  0  0  0  0
  5  4  2  0  0  0  0
  6  5  1  0  0  0  0
  6 20  1  0  0  0  0
  6 21  1  0  0  0  0
  7  6  1  0  0  0  0
  8  7  1  0  0  0  0
  8 22  1  0  0  0  0
  8 23  1  0  0  0  0
  9  8  1  0  0  0  0
  9 24  1  0  0  0  0
  9 25  1  0  0  0  0
 10  9  1  0  0  0  0
 10 26  1  0  0  0  0
 11 10  1  0  0  0  0
 12 11  1  0  0  0  0
 12 27  1  0  0  0  0
 13 12  1  0  0  0  0
 13 28  1  0  0  0  0
 13 29  1  0  0  0  0
 13 30  1  0  0  0  0
 14 11  2  0  0  0  0
 14 15  1  0  0  0  0
 16 15  3  0  0  0  0
 17  4  1  0  0  0  0
 17 31  1  0  0  0  0
 17 32  1  0  0  0  0
 17 33  1  0  0  0  0
M  END
>  <DRUGBANK_ID>
DB00501

>  <SECONDARY_ACCESSION_NUMBERS>
APRD00568

>  <COMMON_NAME>
Cimetidine

>  <CAS_NUMBER>
51481-61-9

>  <UNII>
80061L1WGD

>  <SYNONYMS>
1-Cyano-2-methyl-3-(2-(((5-methyl-4-imidazolyl)methyl)thio)ethyl)guanidine; 2-cyano-1-methyl-3-(2-(((5-methylimidazol-4-yl)methyl)thio)ethyl)guanidine; Cimetidin; Cimetidina; Cim√©tidine; Cimetidine; Cimetidinum; N-cyano-N'-methyl-N''-(2-([(5-methyl-1H-imidazol-4-yl)methyl]sulfanyl)ethyl)guanidine; N''-cyano-N-methyl-N'-(2-{[(5-methyl-1H-imidazol-4-yl)methyl]thio}ethyl)guanidine

$$$$
