
 OpenBabel10282417133D

 79 81  0  0  1  0  0  0  0  0999 V2000
   -5.0053    3.0966    1.6240 C   0  0  0  0  0  0  0  0  0  0  0  0
   -3.5183    3.1789    1.4745 C   0  0  0  0  0  0  0  0  0  0  0  0
   -9.4785    4.2835   -0.5346 C   0  0  0  0  0  0  0  0  0  0  0  0
   -5.5613    1.6727    1.4212 C   0  0  0  0  0  0  0  0  0  0  0  0
   -8.0392    4.2356   -0.9822 C   0  0  0  0  0  0  0  0  0  0  0  0
  -10.0348    2.8746   -0.3241 C   0  0  0  0  0  0  0  0  0  0  0  0
   -2.8934    2.5377    2.6767 C   0  0  0  0  0  0  0  0  0  0  0  0
   -7.0473    1.4845    1.5503 C   0  0  0  0  0  0  0  0  0  0  0  0
   -7.2596    3.4215   -0.0069 C   0  0  0  0  0  0  0  0  0  0  0  0
   -9.2624    2.0987    0.7263 C   0  0  0  0  0  0  0  0  0  0  0  0
   -3.0136    0.9920    2.7404 C   0  0  0  0  0  0  0  0  0  0  0  0
    0.5996    4.1531    1.4508 C   0  0  0  0  0  0  0  0  0  0  0  0
   -0.0081    2.4286   -1.8199 C   0  0  0  0  0  0  0  0  0  0  0  0
   -7.7942    2.0485    0.3609 C   0  0  0  0  0  0  0  0  0  0  0  0
    1.4551    2.8670    1.5216 C   0  0  2  0  0  0  0  0  0  0  0  0
   -0.3352    1.4052   -0.7219 C   0  0  2  0  0  0  0  0  0  0  0  0
    1.2472    2.0524    2.8173 C   0  0  2  0  0  0  0  0  0  0  0  0
    1.7721    0.6184    2.7481 C   0  0  1  0  0  0  0  0  0  0  0  0
    0.4977   -0.8678    0.2357 C   0  0  2  0  0  0  0  0  0  0  0  0
    3.0753    0.5106    1.9585 C   0  0  2  0  0  0  0  0  0  0  0  0
   -0.9564   -0.9780    0.8360 C   0  0  2  0  0  0  0  0  0  0  0  0
    0.8203    0.3421   -0.6541 C   0  0  2  0  0  0  0  0  0  0  0  0
   -1.7940    0.3328    0.7341 C   0  0  2  0  0  0  0  0  0  0  0  0
    2.9894    1.3553    0.6419 C   0  0  2  0  0  0  0  0  0  0  0  0
    0.8541    5.0120    0.3542 O   0  0  0  0  0  0  0  0  0  0  0  0
   -0.7462    3.6405   -1.7255 O   0  0  0  0  0  0  0  0  0  0  0  0
   -0.1391    1.8997    3.0742 O   0  0  0  0  0  0  0  0  0  0  0  0
    1.6362   -0.2007    3.8974 O   0  0  0  0  0  0  0  0  0  0  0  0
    1.1387   -2.0717   -0.1933 O   0  0  0  0  0  0  0  0  0  0  0  0
    3.5244   -0.8250    1.7369 O   0  0  0  0  0  0  0  0  0  0  0  0
   -0.9566   -1.5400    2.1614 O   0  0  0  0  0  0  0  0  0  0  0  0
   -3.0564    0.3094    1.4268 O   0  0  0  0  0  0  0  0  0  0  0  0
    2.7673    2.7688    1.0066 O   0  0  0  0  0  0  0  0  0  0  0  0
   -1.6767    0.8306   -0.6376 O   0  0  0  0  0  0  0  0  0  0  0  0
    2.2074    0.8518   -0.5077 O   0  0  0  0  0  0  0  0  0  0  0  0
    1.0349    2.3881    0.6937 H   0  0  0  0  0  0  0  0  0  0  0  0
   -0.3996    2.0411    0.1358 H   0  0  0  0  0  0  0  0  0  0  0  0
    1.6415    2.5705    3.6762 H   0  0  0  0  0  0  0  0  0  0  0  0
    0.9764    0.1500    2.2393 H   0  0  0  0  0  0  0  0  0  0  0  0
    1.1967   -0.7610    1.0091 H   0  0  0  0  0  0  0  0  0  0  0  0
    3.8152    0.9642    2.6258 H   0  0  0  0  0  0  0  0  0  0  0  0
   -1.4773   -1.7238    0.2361 H   0  0  0  0  0  0  0  0  0  0  0  0
    0.8336   -0.0819   -1.6692 H   0  0  0  0  0  0  0  0  0  0  0  0
   -1.3758    1.1472    1.2662 H   0  0  0  0  0  0  0  0  0  0  0  0
    4.0130    1.3628    0.2470 H   0  0  0  0  0  0  0  0  0  0  0  0
   -5.2840    3.8369    0.8873 H   0  0  0  0  0  0  0  0  0  0  0  0
   -5.3477    3.5064    2.5797 H   0  0  0  0  0  0  0  0  0  0  0  0
   -3.1889    2.7465    0.5234 H   0  0  0  0  0  0  0  0  0  0  0  0
   -3.2277    4.2392    1.4213 H   0  0  0  0  0  0  0  0  0  0  0  0
   -9.5437    4.8523    0.4027 H   0  0  0  0  0  0  0  0  0  0  0  0
  -10.0549    4.8143   -1.2927 H   0  0  0  0  0  0  0  0  0  0  0  0
   -5.1881    1.2175    0.4966 H   0  0  0  0  0  0  0  0  0  0  0  0
   -5.2554    1.0435    2.2381 H   0  0  0  0  0  0  0  0  0  0  0  0
   -7.9269    3.7892   -1.9738 H   0  0  0  0  0  0  0  0  0  0  0  0
   -7.5944    5.2389   -1.0181 H   0  0  0  0  0  0  0  0  0  0  0  0
  -11.0793    2.9342   -0.0165 H   0  0  0  0  0  0  0  0  0  0  0  0
   -9.9806    2.3215   -1.2684 H   0  0  0  0  0  0  0  0  0  0  0  0
   -1.8716    2.8757    2.6363 H   0  0  0  0  0  0  0  0  0  0  0  0
   -3.2845    2.9989    3.5943 H   0  0  0  0  0  0  0  0  0  0  0  0
   -7.2609    0.4080    1.6361 H   0  0  0  0  0  0  0  0  0  0  0  0
   -7.3712    1.9293    2.5004 H   0  0  0  0  0  0  0  0  0  0  0  0
   -6.2912    3.2796   -0.4969 H   0  0  0  0  0  0  0  0  0  0  0  0
   -7.1947    4.0185    0.9158 H   0  0  0  0  0  0  0  0  0  0  0  0
   -9.6449    1.0752    0.8232 H   0  0  0  0  0  0  0  0  0  0  0  0
   -9.3858    2.5753    1.7084 H   0  0  0  0  0  0  0  0  0  0  0  0
   -2.2388    0.5596    3.3752 H   0  0  0  0  0  0  0  0  0  0  0  0
   -3.9102    0.7452    3.3229 H   0  0  0  0  0  0  0  0  0  0  0  0
   -0.4517    3.8472    1.3185 H   0  0  0  0  0  0  0  0  0  0  0  0
    0.6238    4.7211    2.3767 H   0  0  0  0  0  0  0  0  0  0  0  0
    1.0459    2.7298   -1.7233 H   0  0  0  0  0  0  0  0  0  0  0  0
   -0.1549    2.0061   -2.8086 H   0  0  0  0  0  0  0  0  0  0  0  0
   -7.6364    1.3828   -0.4983 H   0  0  0  0  0  0  0  0  0  0  0  0
    1.6057    4.6791   -0.1627 H   0  0  0  0  0  0  0  0  0  0  0  0
   -1.4648    3.5559   -1.0786 H   0  0  0  0  0  0  0  0  0  0  0  0
   -0.4228    1.1589    2.5663 H   0  0  0  0  0  0  0  0  0  0  0  0
    1.9150    0.2795    4.7124 H   0  0  0  0  0  0  0  0  0  0  0  0
    0.4745   -2.7280   -0.4880 H   0  0  0  0  0  0  0  0  0  0  0  0
    3.1352   -1.1908    0.9195 H   0  0  0  0  0  0  0  0  0  0  0  0
   -0.5635   -0.9736    2.8459 H   0  0  0  0  0  0  0  0  0  0  0  0
  1 46  1  0  0  0  0
  1 47  1  0  0  0  0
  2  1  1  0  0  0  0
  2 48  1  0  0  0  0
  2 49  1  0  0  0  0
  3 50  1  0  0  0  0
  3 51  1  0  0  0  0
  4  1  1  0  0  0  0
  4 52  1  0  0  0  0
  4 53  1  0  0  0  0
  5  3  1  0  0  0  0
  5 54  1  0  0  0  0
  5 55  1  0  0  0  0
  6  3  1  0  0  0  0
  6 56  1  0  0  0  0
  6 57  1  0  0  0  0
  7  2  1  0  0  0  0
  7 58  1  0  0  0  0
  7 59  1  0  0  0  0
  8  4  1  0  0  0  0
  8 60  1  0  0  0  0
  8 61  1  0  0  0  0
  9  5  1  0  0  0  0
  9 62  1  0  0  0  0
  9 63  1  0  0  0  0
 10  6  1  0  0  0  0
 10 64  1  0  0  0  0
 10 65  1  0  0  0  0
 11  7  1  0  0  0  0
 11 66  1  0  0  0  0
 11 67  1  0  0  0  0
 12 68  1  0  0  0  0
 12 69  1  0  0  0  0
 13 70  1  0  0  0  0
 13 71  1  0  0  0  0
 14  8  1  0  0  0  0
 14  9  1  0  0  0  0
 14 10  1  0  0  0  0
 14 72  1  0  0  0  0
 15 12  1  0  0  0  0
 15 36  1  6  0  0  0
 16 13  1  0  0  0  0
 16 37  1  1  0  0  0
 17 15  1  0  0  0  0
 17 27  1  0  0  0  0
 17 38  1  1  0  0  0
 18 17  1  0  0  0  0
 18 28  1  0  0  0  0
 18 39  1  6  0  0  0
 19 29  1  0  0  0  0
 19 40  1  1  0  0  0
 20 18  1  0  0  0  0
 20 30  1  0  0  0  0
 20 41  1  1  0  0  0
 21 19  1  0  0  0  0
 21 31  1  0  0  0  0
 21 42  1  6  0  0  0
 22 16  1  0  0  0  0
 22 19  1  0  0  0  0
 22 35  1  0  0  0  0
 22 43  1  6  0  0  0
 23 21  1  0  0  0  0
 23 44  1  1  0  0  0
 23 32  1  0  0  0  0
 24 20  1  0  0  0  0
 24 35  1  0  0  0  0
 24 45  1  6  0  0  0
 25 12  1  0  0  0  0
 25 73  1  0  0  0  0
 26 13  1  0  0  0  0
 26 74  1  0  0  0  0
 27 75  1  0  0  0  0
 28 76  1  0  0  0  0
 29 77  1  0  0  0  0
 30 78  1  0  0  0  0
 31 79  1  0  0  0  0
 32 11  1  0  0  0  0
 33 15  1  0  0  0  0
 33 24  1  0  0  0  0
 34 16  1  0  0  0  0
 34 23  1  0  0  0  0
M  END
>  <DRUGBANK_ID>
DB03472

>  <SECONDARY_ACCESSION_NUMBERS>
EXPT02102

>  <COMMON_NAME>
Cyclohexyl-Hexyl-Beta-D-Maltoside

$$$$
