
 OpenBabel10282417193D

221225  0  0  1  0  0  0  0  0999 V2000
   -9.1573   -0.2422  -17.0800 C   0  0  0  0  0  0  0  0  0  0  0  0
   -9.0962    3.0531  -16.0921 C   0  0  1  0  0  0  0  0  0  0  0  0
   -8.5937    5.6711  -15.0421 C   0  0  0  0  0  0  0  0  0  0  0  0
   -7.7693    7.8446  -14.4428 O   0  0  0  0  0  0  0  0  0  0  0  0
   -9.4362    5.6226  -15.7605 N   0  0  0  0  0  0  0  0  0  0  0  0
   -9.4420    7.7875  -15.3894 C   0  0  0  0  0  0  0  0  0  0  0  0
   -9.7759    7.6077  -13.9055 O   0  0  0  0  0  0  0  0  0  0  0  0
  -10.7148    7.2731  -16.1169 C   0  0  0  0  0  0  0  0  0  0  0  0
   -9.2556    6.6468  -17.2037 N   0  0  0  0  0  0  0  0  0  0  0  0
   -9.6403    4.8602  -17.1606 C   0  0  0  0  0  0  0  0  0  0  0  0
  -10.5996    4.5412  -15.8885 O   0  0  0  0  0  0  0  0  0  0  0  0
   -8.2124    4.4911  -17.1883 C   0  0  2  0  0  0  0  0  0  0  0  0
   -9.0701    3.5182  -18.0773 C   0  0  0  0  0  0  0  0  0  0  0  0
   -9.8779    2.1795  -17.3853 C   0  0  0  0  0  0  0  0  0  0  0  0
  -11.0278    2.2249  -17.1258 O   0  0  0  0  0  0  0  0  0  0  0  0
   -9.1871    1.4879  -16.1046 O   0  0  0  0  0  0  0  0  0  0  0  0
   -7.4260    3.7866  -16.1470 N   0  0  0  0  0  0  0  0  0  0  0  0
   -7.3520    2.3243  -16.2038 C   0  0  0  0  0  0  0  0  0  0  0  0
   -7.8460    1.6878  -17.2265 O   0  0  0  0  0  0  0  0  0  0  0  0
   -6.6799    1.5553  -15.1146 C   0  0  1  0  0  0  0  0  0  0  0  0
   -5.9423    2.5285  -14.2461 C   0  0  0  0  0  0  0  0  0  0  0  0
   -7.5538    0.6753  -14.3004 N   0  0  0  0  0  0  0  0  0  0  0  0
   -7.3430   -0.7403  -14.3077 C   0  0  0  0  0  0  0  0  0  0  0  0
   -6.4613   -1.2609  -15.0013 O   0  0  0  0  0  0  0  0  0  0  0  0
   -8.2545   -1.6350  -13.4413 C   0  0  2  0  0  0  0  0  0  0  0  0
   -7.4031   -2.3892  -12.4459 C   0  0  0  0  0  0  0  0  0  0  0  0
   -6.2049   -3.0435  -13.1668 C   0  0  0  0  0  0  0  0  0  0  0  0
   -5.0597   -2.7732  -12.8239 O   0  0  0  0  0  0  0  0  0  0  0  0
   -6.4450   -3.9190  -14.2333 O   0  0  0  0  0  0  0  0  0  0  0  0
   -8.9845   -2.6037  -14.2919 N   0  0  0  0  0  0  0  0  0  0  0  0
   -8.8015   -4.0209  -14.0902 C   0  0  0  0  0  0  0  0  0  0  0  0
   -8.0916   -4.4982  -13.1869 O   0  0  0  0  0  0  0  0  0  0  0  0
   -9.5380   -5.0180  -14.9879 C   0  0  2  0  0  0  0  0  0  0  0  0
  -10.4486   -5.8704  -14.1167 C   0  0  0  0  0  0  0  0  0  0  0  0
  -11.2152   -5.0191  -13.1509 C   0  0  0  0  0  0  0  0  0  0  0  0
  -12.0646   -4.0267  -13.9124 C   0  0  0  0  0  0  0  0  0  0  0  0
  -13.0077   -4.7348  -14.7674 N   0  0  0  0  0  0  0  0  0  0  0  0
   -8.5726   -5.8869  -15.7011 N   0  0  0  0  0  0  0  0  0  0  0  0
   -8.5996   -7.2997  -15.4966 C   0  0  0  0  0  0  0  0  0  0  0  0
   -9.4114   -7.8685  -14.7623 O   0  0  0  0  0  0  0  0  0  0  0  0
   -7.5577   -8.1445  -16.2121 C   0  0  0  0  0  0  0  0  0  0  0  0
   -6.7411   -8.9338  -15.2804 N   0  0  0  0  0  0  0  0  0  0  0  0
   -6.5451  -10.3250  -15.2874 C   0  0  0  0  0  0  0  0  0  0  0  0
   -7.0274  -11.1567  -16.0177 O   0  0  0  0  0  0  0  0  0  0  0  0
   -5.8894  -11.1340  -14.2551 C   0  0  1  0  0  0  0  0  0  0  0  0
   -5.1676  -10.1975  -13.4176 N   0  0  0  0  0  0  0  0  0  0  0  0
   -3.7408  -10.2276  -13.4081 C   0  0  0  0  0  0  0  0  0  0  0  0
   -2.9909   -9.2252  -12.5061 C   0  0  1  0  0  0  0  0  0  0  0  0
   -2.1697   -9.9582  -11.5261 N   0  0  0  0  0  0  0  0  0  0  0  0
   -0.8406   -9.7370  -11.5011 C   0  0  0  0  0  0  0  0  0  0  0  0
   -0.0942  -10.6970  -10.6127 C   0  0  2  0  0  0  0  0  0  0  0  0
    0.5235   -9.6945   -9.0559 N   0  0  0  0  0  0  0  0  0  0  0  0
    2.3172   -9.9531   -9.3067 C   0  0  0  0  0  0  0  0  0  0  0  0
    3.7617   -8.9195   -8.4110 C   0  0  1  0  0  0  0  0  0  0  0  0
    3.8568   -9.5981   -7.4142 N   0  0  0  0  0  0  0  0  0  0  0  0
    5.1533   -9.6055   -7.2810 C   0  0  0  0  0  0  0  0  0  0  0  0
    5.7763  -10.1453   -6.4341 O   0  0  0  0  0  0  0  0  0  0  0  0
    5.6434   -8.9081   -8.2257 C   0  0  0  0  0  0  0  0  0  0  0  0
    4.4333   -7.9741   -9.5555 C   0  0  0  0  0  0  0  0  0  0  0  0
    6.2938   -7.2524  -10.6312 C   0  0  0  0  0  0  0  0  0  0  0  0
    7.4721   -8.0384  -10.9264 C   0  0  0  0  0  0  0  0  0  0  0  0
    8.2568   -7.4970  -11.8937 C   0  0  0  0  0  0  0  0  0  0  0  0
    8.0210   -6.2455  -12.3856 C   0  0  0  0  0  0  0  0  0  0  0  0
    8.9517   -5.5617  -13.3409 C   0  0  0  0  0  0  0  0  0  0  0  0
    8.2370   -5.2382  -14.6337 C   0  0  0  0  0  0  0  0  0  0  0  0
    7.0783   -4.3033  -14.3770 C   0  0  0  0  0  0  0  0  0  0  0  0
    7.5709   -3.0208  -13.7415 C   0  0  0  0  0  0  0  0  0  0  0  0
    8.5250   -2.3388  -14.6846 C   0  0  0  0  0  0  0  0  0  0  0  0
    6.8829   -5.6403  -11.9337 C   0  0  0  0  0  0  0  0  0  0  0  0
    6.1370   -6.0278  -10.8892 C   0  0  0  0  0  0  0  0  0  0  0  0
    2.6349   -7.2173  -10.2740 C   0  0  0  0  0  0  0  0  0  0  0  0
    5.7456   -8.1657   -9.5218 C   0  0  0  0  0  0  0  0  0  0  0  0
    3.8758   -7.5271  -10.8786 C   0  0  0  0  0  0  0  0  0  0  0  0
    2.1743   -8.3137   -9.5433 C   0  0  0  0  0  0  0  0  0  0  0  0
    1.3799   -8.9998  -10.5173 N   0  0  0  0  0  0  0  0  0  0  0  0
    1.8259   -9.0232  -11.6410 C   0  0  0  0  0  0  0  0  0  0  0  0
    1.2342   -9.7263  -12.5405 C   0  0  0  0  0  0  0  0  0  0  0  0
    1.3919   -9.4541  -13.7623 C   0  0  0  0  0  0  0  0  0  0  0  0
    2.2649   -8.4973  -14.0612 C   0  0  0  0  0  0  0  0  0  0  0  0
    2.8065   -7.7531  -13.1052 C   0  0  0  0  0  0  0  0  0  0  0  0
    2.8170   -8.2142  -11.9186 C   0  0  0  0  0  0  0  0  0  0  0  0
    2.9814  -10.4848  -10.3656 O   0  0  0  0  0  0  0  0  0  0  0  0
    1.1690  -11.5311  -11.1903 C   0  0  0  0  0  0  0  0  0  0  0  0
    2.0245  -12.2473  -10.2393 C   0  0  0  0  0  0  0  0  0  0  0  0
    2.0289  -13.4482  -10.2891 O   0  0  0  0  0  0  0  0  0  0  0  0
    2.7650  -11.7436   -9.1097 N   0  0  0  0  0  0  0  0  0  0  0  0
   -0.3735   -8.8834  -12.2609 O   0  0  0  0  0  0  0  0  0  0  0  0
   -2.1296   -8.3433  -13.3879 C   0  0  0  0  0  0  0  0  0  0  0  0
   -2.9484   -7.5611  -14.3816 C   0  0  0  0  0  0  0  0  0  0  0  0
   -2.9498   -6.3321  -14.3697 O   0  0  0  0  0  0  0  0  0  0  0  0
   -3.7207   -8.2832  -15.2940 O   0  0  0  0  0  0  0  0  0  0  0  0
   -3.0953  -11.0298  -14.0947 O   0  0  0  0  0  0  0  0  0  0  0  0
   -6.8222  -12.0241  -13.4335 C   0  0  1  0  0  0  0  0  0  0  0  0
   -7.8101  -11.1752  -12.6716 C   0  0  0  0  0  0  0  0  0  0  0  0
   -7.5147  -12.9643  -14.2557 O   0  0  0  0  0  0  0  0  0  0  0  0
   -8.4193  -12.5749  -15.1678 C   0  0  0  0  0  0  0  0  0  0  0  0
   -8.9851  -13.3548  -15.9447 O   0  0  0  0  0  0  0  0  0  0  0  0
   -8.7723  -10.8438  -15.2361 C   0  0  2  0  0  0  0  0  0  0  0  0
  -10.0933  -10.6149  -15.2756 C   0  0  0  0  0  0  0  0  0  0  0  0
  -10.8594  -11.7127  -15.9745 C   0  0  0  0  0  0  0  0  0  0  0  0
  -11.6446  -12.3978  -15.3172 O   0  0  0  0  0  0  0  0  0  0  0  0
  -10.6882  -11.9746  -17.4567 C   0  0  0  0  0  0  0  0  0  0  0  0
   -9.4244  -12.0481  -17.9906 C   0  0  0  0  0  0  0  0  0  0  0  0
   -8.3048  -12.0540  -17.2954 N   0  0  0  0  0  0  0  0  0  0  0  0
   -9.1845  -12.3633  -19.2754 C   0  0  0  0  0  0  0  0  0  0  0  0
  -10.2096  -12.5909  -20.1207 C   0  0  0  0  0  0  0  0  0  0  0  0
  -11.4604  -12.6059  -19.5832 C   0  0  0  0  0  0  0  0  0  0  0  0
  -11.7481  -12.1265  -18.3073 C   0  0  0  0  0  0  0  0  0  0  0  0
   -8.2850  -10.1859  -16.9919 N   0  0  0  0  0  0  0  0  0  0  0  0
   -8.9778   -8.6189  -18.0270 C   0  0  0  0  0  0  0  0  0  0  0  0
  -10.2450   -9.6996  -17.4932 O   0  0  0  0  0  0  0  0  0  0  0  0
   -8.8332   -5.9349  -18.2010 C   0  0  2  0  0  0  0  0  0  0  0  0
   -8.6506   -7.8416  -19.5443 C   0  0  2  0  0  0  0  0  0  0  0  0
  -10.0155   -7.5394  -18.4070 C   0  0  0  0  0  0  0  0  0  0  0  0
   -9.2697   -7.8627  -20.8547 C   0  0  0  0  0  0  0  0  0  0  0  0
  -10.9046   -8.2036  -20.9457 C   0  0  0  0  0  0  0  0  0  0  0  0
  -11.6230   -7.3115  -21.3758 O   0  0  0  0  0  0  0  0  0  0  0  0
  -11.2021   -9.5281  -20.7515 O   0  0  0  0  0  0  0  0  0  0  0  0
   -9.0785   -2.9533  -17.7247 N   0  0  0  0  0  0  0  0  0  0  0  0
   -9.5463   -1.6395  -18.0655 O   0  0  0  0  0  0  0  0  0  0  0  0
   -9.2190    4.7789  -15.5861 H   0  0  0  0  0  0  0  0  0  0  0  0
   -8.3279    7.5713  -14.2654 H   0  0  0  0  0  0  0  0  0  0  0  0
   -8.4393    7.5139  -14.0882 H   0  0  0  0  0  0  0  0  0  0  0  0
   -7.4209    9.0944  -14.8293 H   0  0  0  0  0  0  0  0  0  0  0  0
   -9.5355    7.5092  -15.7582 H   0  0  0  0  0  0  0  0  0  0  0  0
  -10.9498    8.2281  -16.5703 H   0  0  0  0  0  0  0  0  0  0  0  0
  -11.0409    7.0561  -15.1691 H   0  0  0  0  0  0  0  0  0  0  0  0
   -8.5794    7.3136  -17.2047 H   0  0  0  0  0  0  0  0  0  0  0  0
   -7.6858    5.1660  -17.7337 H   0  0  0  0  0  0  0  0  0  0  0  0
   -9.9012    3.9979  -18.6043 H   0  0  0  0  0  0  0  0  0  0  0  0
   -8.3925    3.0916  -18.7160 H   0  0  0  0  0  0  0  0  0  0  0  0
   -9.2790    0.8183  -15.6404 H   0  0  0  0  0  0  0  0  0  0  0  0
   -6.9618    4.3026  -15.4473 H   0  0  0  0  0  0  0  0  0  0  0  0
   -5.9731    0.9373  -15.6579 H   0  0  0  0  0  0  0  0  0  0  0  0
   -5.3389    1.9977  -13.5314 H   0  0  0  0  0  0  0  0  0  0  0  0
   -5.3027    3.1605  -14.8508 H   0  0  0  0  0  0  0  0  0  0  0  0
   -6.6498    3.1555  -13.7165 H   0  0  0  0  0  0  0  0  0  0  0  0
   -8.2825    1.1223  -13.7363 H   0  0  0  0  0  0  0  0  0  0  0  0
   -8.9720   -1.0161  -12.9138 H   0  0  0  0  0  0  0  0  0  0  0  0
   -7.0340   -1.7406  -11.6617 H   0  0  0  0  0  0  0  0  0  0  0  0
   -8.0164   -3.1425  -11.9631 H   0  0  0  0  0  0  0  0  0  0  0  0
   -5.7110   -4.3559  -14.6952 H   0  0  0  0  0  0  0  0  0  0  0  0
   -9.5927   -2.2491  -15.0306 H   0  0  0  0  0  0  0  0  0  0  0  0
  -10.1416   -4.4761  -15.7005 H   0  0  0  0  0  0  0  0  0  0  0  0
  -11.1373   -6.4247  -14.7525 H   0  0  0  0  0  0  0  0  0  0  0  0
   -9.8520   -6.5831  -13.5578 H   0  0  0  0  0  0  0  0  0  0  0  0
  -11.8457   -5.6393  -12.5319 H   0  0  0  0  0  0  0  0  0  0  0  0
  -10.5174   -4.4924  -12.5090 H   0  0  0  0  0  0  0  0  0  0  0  0
  -12.5998   -3.3987  -13.2168 H   0  0  0  0  0  0  0  0  0  0  0  0
  -11.4270   -3.3964  -14.5204 H   0  0  0  0  0  0  0  0  0  0  0  0
  -13.5749   -4.0694  -15.2890 H   0  0  0  0  0  0  0  0  0  0  0  0
  -12.5007   -5.3217  -15.4327 H   0  0  0  0  0  0  0  0  0  0  0  0
   -7.8971   -5.4268  -16.3172 H   0  0  0  0  0  0  0  0  0  0  0  0
   -6.9467   -7.5600  -16.8610 H   0  0  0  0  0  0  0  0  0  0  0  0
   -8.0543   -8.7451  -16.8270 H   0  0  0  0  0  0  0  0  0  0  0  0
   -6.2026   -8.4155  -14.6062 H   0  0  0  0  0  0  0  0  0  0  0  0
   -5.2079  -11.7734  -14.8099 H   0  0  0  0  0  0  0  0  0  0  0  0
   -5.7145   -9.5405  -12.8560 H   0  0  0  0  0  0  0  0  0  0  0  0
   -3.7007   -8.6087  -11.9763 H   0  0  0  0  0  0  0  0  0  0  0  0
   -2.6096  -10.6014  -10.8775 H   0  0  0  0  0  0  0  0  0  0  0  0
   -0.5031  -11.1928   -9.8789 H   0  0  0  0  0  0  0  0  0  0  0  0
    0.3449   -8.6885   -9.2000 H   0  0  0  0  0  0  0  0  0  0  0  0
    2.6072   -8.0232   -7.8357 H   0  0  0  0  0  0  0  0  0  0  0  0
    3.1832  -10.0095   -6.8604 H   0  0  0  0  0  0  0  0  0  0  0  0
    7.1287   -8.8025   -8.2923 H   0  0  0  0  0  0  0  0  0  0  0  0
    7.7020   -8.9956  -10.4968 H   0  0  0  0  0  0  0  0  0  0  0  0
    9.0646   -8.0685  -12.2915 H   0  0  0  0  0  0  0  0  0  0  0  0
    9.3288   -4.6445  -12.8944 H   0  0  0  0  0  0  0  0  0  0  0  0
    9.7978   -6.2033  -13.5413 H   0  0  0  0  0  0  0  0  0  0  0  0
    8.9200   -4.7606  -15.3229 H   0  0  0  0  0  0  0  0  0  0  0  0
    7.8797   -6.1516  -15.0837 H   0  0  0  0  0  0  0  0  0  0  0  0
    6.5501   -4.0912  -15.2808 H   0  0  0  0  0  0  0  0  0  0  0  0
    6.3585   -4.7947  -13.7746 H   0  0  0  0  0  0  0  0  0  0  0  0
    6.7365   -2.3710  -13.5278 H   0  0  0  0  0  0  0  0  0  0  0  0
    8.0789   -3.2378  -12.8080 H   0  0  0  0  0  0  0  0  0  0  0  0
    8.0194   -2.1154  -15.6135 H   0  0  0  0  0  0  0  0  0  0  0  0
    8.8903   -1.4242  -14.2489 H   0  0  0  0  0  0  0  0  0  0  0  0
    9.3674   -2.9840  -14.8926 H   0  0  0  0  0  0  0  0  0  0  0  0
    6.5579   -4.7727  -12.4053 H   0  0  0  0  0  0  0  0  0  0  0  0
    5.3932   -5.4502  -10.3852 H   0  0  0  0  0  0  0  0  0  0  0  0
    3.4571   -8.8649  -10.0498 H   0  0  0  0  0  0  0  0  0  0  0  0
    3.5838   -7.2669   -8.8956 H   0  0  0  0  0  0  0  0  0  0  0  0
    4.0339   -8.0451   -9.6516 H   0  0  0  0  0  0  0  0  0  0  0  0
    4.9683   -7.1932   -8.5330 H   0  0  0  0  0  0  0  0  0  0  0  0
    5.0428   -9.3271   -9.9949 H   0  0  0  0  0  0  0  0  0  0  0  0
    2.6108   -7.8433   -8.9892 H   0  0  0  0  0  0  0  0  0  0  0  0
    0.9334  -10.0450   -9.9601 H   0  0  0  0  0  0  0  0  0  0  0  0
    0.4776  -10.5217  -12.3103 H   0  0  0  0  0  0  0  0  0  0  0  0
    0.8147   -9.9721  -14.4653 H   0  0  0  0  0  0  0  0  0  0  0  0
    2.5408   -8.3114  -15.0650 H   0  0  0  0  0  0  0  0  0  0  0  0
    3.3122   -6.8688  -13.3013 H   0  0  0  0  0  0  0  0  0  0  0  0
    0.6218  -12.1391  -11.8888 H   0  0  0  0  0  0  0  0  0  0  0  0
    1.8840  -10.9900  -11.8321 H   0  0  0  0  0  0  0  0  0  0  0  0
    3.2684  -10.8514   -9.1808 H   0  0  0  0  0  0  0  0  0  0  0  0
    3.5152  -11.9872   -8.6234 H   0  0  0  0  0  0  0  0  0  0  0  0
   -1.5811   -7.6333  -12.7439 H   0  0  0  0  0  0  0  0  0  0  0  0
   -1.3917   -8.9574  -13.9051 H   0  0  0  0  0  0  0  0  0  0  0  0
   -4.2728   -7.7842  -15.9585 H   0  0  0  0  0  0  0  0  0  0  0  0
   -6.2175  -12.5774  -12.7168 H   0  0  0  0  0  0  0  0  0  0  0  0
   -8.4578  -11.7873  -12.0772 H   0  0  0  0  0  0  0  0  0  0  0  0
   -7.2963  -10.4652  -12.0526 H   0  0  0  0  0  0  0  0  0  0  0  0
   -8.4316  -10.6231  -13.3321 H   0  0  0  0  0  0  0  0  0  0  0  0
   -8.0695  -10.3973  -14.6949 H   0  0  0  0  0  0  0  0  0  0  0  0
  -10.2886  -10.5869  -14.2429 H   0  0  0  0  0  0  0  0  0  0  0  0
  -10.2534   -9.6632  -15.7090 H   0  0  0  0  0  0  0  0  0  0  0  0
   -7.3659  -11.8249  -17.4884 H   0  0  0  0  0  0  0  0  0  0  0  0
   -8.4105  -11.5348  -16.4609 H   0  0  0  0  0  0  0  0  0  0  0  0
   -8.1703  -12.4551  -19.6071 H   0  0  0  0  0  0  0  0  0  0  0  0
  -10.0556  -12.7519  -21.1681 H   0  0  0  0  0  0  0  0  0  0  0  0
  -12.2343  -13.0243  -20.1825 H   0  0  0  0  0  0  0  0  0  0  0  0
  -12.7570  -11.8985  -17.9949 H   0  0  0  0  0  0  0  0  0  0  0  0
   -7.2064  -10.6360  -17.1507 H   0  0  0  0  0  0  0  0  0  0  0  0
   -8.4379   -7.9740  -18.7284 H   0  0  0  0  0  0  0  0  0  0  0  0
   -7.6808   -7.4743  -19.2751 H   0  0  0  0  0  0  0  0  0  0  0  0
   -9.7480   -7.8357  -17.3355 H   0  0  0  0  0  0  0  0  0  0  0  0
  -10.2234   -6.5659  -18.3017 H   0  0  0  0  0  0  0  0  0  0  0  0
  -10.8509   -8.0367  -18.7346 H   0  0  0  0  0  0  0  0  0  0  0  0
   -9.1271   -6.8258  -21.0695 H   0  0  0  0  0  0  0  0  0  0  0  0
   -8.6876   -8.4836  -21.5002 H   0  0  0  0  0  0  0  0  0  0  0  0
  -12.1562   -9.7699  -20.8669 H   0  0  0  0  0  0  0  0  0  0  0  0
   -9.3613   -4.6857  -18.5583 H   0  0  0  0  0  0  0  0  0  0  0  0
  1  2  1  0  0  0  0
  1119  1  0  0  0  0
  1120  2  0  0  0  0
  2  5  1  0  0  0  0
  2121  1  1  0  0  0
  2  3  1  0  0  0  0
  3  4  1  0  0  0  0
  3122  1  0  0  0  0
  3123  1  0  0  0  0
  4124  1  0  0  0  0
  5  6  1  0  0  0  0
  5125  1  0  0  0  0
  6  7  2  0  0  0  0
  6  8  1  0  0  0  0
  8  9  1  0  0  0  0
  8126  1  0  0  0  0
  8127  1  0  0  0  0
  9 10  1  0  0  0  0
  9128  1  0  0  0  0
 10 11  2  0  0  0  0
 10 12  1  0  0  0  0
 12 17  1  0  0  0  0
 12129  1  6  0  0  0
 12 13  1  0  0  0  0
 13 14  1  0  0  0  0
 13130  1  0  0  0  0
 13131  1  0  0  0  0
 14 15  2  0  0  0  0
 14 16  1  0  0  0  0
 16132  1  0  0  0  0
 17 18  1  0  0  0  0
 17133  1  0  0  0  0
 18 19  2  0  0  0  0
 18 20  1  0  0  0  0
 20 21  1  0  0  0  0
 20 22  1  0  0  0  0
 20134  1  6  0  0  0
 21135  1  0  0  0  0
 21136  1  0  0  0  0
 21137  1  0  0  0  0
 22 23  1  0  0  0  0
 22138  1  0  0  0  0
 23 24  2  0  0  0  0
 23 25  1  0  0  0  0
 25 30  1  0  0  0  0
 25139  1  1  0  0  0
 25 26  1  0  0  0  0
 26 27  1  0  0  0  0
 26140  1  0  0  0  0
 26141  1  0  0  0  0
 27 28  2  0  0  0  0
 27 29  1  0  0  0  0
 29142  1  0  0  0  0
 30 31  1  0  0  0  0
 30143  1  0  0  0  0
 31 32  2  0  0  0  0
 31 33  1  0  0  0  0
 33 38  1  0  0  0  0
 33144  1  6  0  0  0
 33 34  1  0  0  0  0
 34 35  1  0  0  0  0
 34145  1  0  0  0  0
 34146  1  0  0  0  0
 35 36  1  0  0  0  0
 35147  1  0  0  0  0
 35148  1  0  0  0  0
 36 37  1  0  0  0  0
 36149  1  0  0  0  0
 36150  1  0  0  0  0
 37151  1  0  0  0  0
 37152  1  0  0  0  0
 38 39  1  0  0  0  0
 38153  1  0  0  0  0
 39 40  2  0  0  0  0
 39 41  1  0  0  0  0
 41 42  1  0  0  0  0
 41154  1  0  0  0  0
 41155  1  0  0  0  0
 42 43  1  0  0  0  0
 42156  1  0  0  0  0
 43 44  2  0  0  0  0
 43 45  1  0  0  0  0
 45 46  1  0  0  0  0
 45 93  1  0  0  0  0
 45157  1  6  0  0  0
 46 47  1  0  0  0  0
 46158  1  0  0  0  0
 47 48  1  0  0  0  0
 47 92  2  0  0  0  0
 48 49  1  0  0  0  0
 48 88  1  0  0  0  0
 48159  1  1  0  0  0
 49 50  1  0  0  0  0
 49160  1  0  0  0  0
 50 87  2  0  0  0  0
 51 83  1  0  0  0  0
 51161  1  1  0  0  0
 51 52  1  0  0  0  0
 51 50  1  0  0  0  0
 52 53  1  0  0  0  0
 52162  1  0  0  0  0
 53 54  1  0  0  0  0
 53 82  2  0  0  0  0
 54 55  1  0  0  0  0
 54 72  1  0  0  0  0
 54163  1  1  0  0  0
 55 56  1  0  0  0  0
 55164  1  0  0  0  0
 56 57  2  0  0  0  0
 56 58  1  0  0  0  0
 58 59  2  0  0  0  0
 58165  1  0  0  0  0
 59 60  1  0  0  0  0
 59 71  1  0  0  0  0
 60 61  1  0  0  0  0
 60 70  2  0  0  0  0
 61 62  2  0  0  0  0
 61166  1  0  0  0  0
 62 63  1  0  0  0  0
 62167  1  0  0  0  0
 63 64  1  0  0  0  0
 63 69  2  0  0  0  0
 64 65  1  0  0  0  0
 64168  1  0  0  0  0
 64169  1  0  0  0  0
 65 66  1  0  0  0  0
 65170  1  0  0  0  0
 65171  1  0  0  0  0
 66 67  1  0  0  0  0
 66172  1  0  0  0  0
 66173  1  0  0  0  0
 67 68  1  0  0  0  0
 67174  1  0  0  0  0
 67175  1  0  0  0  0
 68176  1  0  0  0  0
 68177  1  0  0  0  0
 68178  1  0  0  0  0
 69 70  1  0  0  0  0
 69179  1  0  0  0  0
 70180  1  0  0  0  0
 71181  1  0  0  0  0
 71182  1  0  0  0  0
 71183  1  0  0  0  0
 72 73  1  0  0  0  0
 72184  1  0  0  0  0
 72185  1  0  0  0  0
 73 74  2  0  0  0  0
 73 81  1  0  0  0  0
 74 75  1  0  0  0  0
 74186  1  0  0  0  0
 75 76  1  0  0  0  0
 75187  1  0  0  0  0
 76 77  2  0  0  0  0
 76 81  1  0  0  0  0
 77 78  1  0  0  0  0
 77188  1  0  0  0  0
 78 79  2  0  0  0  0
 78189  1  0  0  0  0
 79 80  1  0  0  0  0
 79190  1  0  0  0  0
 80 81  2  0  0  0  0
 80191  1  0  0  0  0
 83 84  1  0  0  0  0
 83192  1  0  0  0  0
 83193  1  0  0  0  0
 84 85  2  0  0  0  0
 84 86  1  0  0  0  0
 86194  1  0  0  0  0
 86195  1  0  0  0  0
 88 89  1  0  0  0  0
 88196  1  0  0  0  0
 88197  1  0  0  0  0
 89 90  2  0  0  0  0
 89 91  1  0  0  0  0
 91198  1  0  0  0  0
 93 94  1  0  0  0  0
 93 95  1  0  0  0  0
 93199  1  1  0  0  0
 94200  1  0  0  0  0
 94201  1  0  0  0  0
 94202  1  0  0  0  0
 95 96  1  0  0  0  0
 96 97  2  0  0  0  0
 96 98  1  0  0  0  0
 98109  1  0  0  0  0
 98203  1  1  0  0  0
 98 99  1  0  0  0  0
 99100  1  0  0  0  0
 99204  1  0  0  0  0
 99205  1  0  0  0  0
100101  2  0  0  0  0
100102  1  0  0  0  0
102108  1  0  0  0  0
103102  2  0  0  0  0
103104  1  0  0  0  0
104206  1  0  0  0  0
104207  1  0  0  0  0
105103  1  0  0  0  0
105208  1  0  0  0  0
106105  2  0  0  0  0
106209  1  0  0  0  0
107106  1  0  0  0  0
107210  1  0  0  0  0
108107  2  0  0  0  0
108211  1  0  0  0  0
109110  1  0  0  0  0
109212  1  0  0  0  0
110111  2  0  0  0  0
110112  1  0  0  0  0
112119  1  0  0  0  0
112213  1  6  0  0  0
112113  1  0  0  0  0
113214  1  6  0  0  0
113115  1  0  0  0  0
113114  1  0  0  0  0
114215  1  0  0  0  0
114216  1  0  0  0  0
114217  1  0  0  0  0
115116  1  0  0  0  0
115218  1  0  0  0  0
115219  1  0  0  0  0
116117  2  0  0  0  0
116118  1  0  0  0  0
118220  1  0  0  0  0
119221  1  0  0  0  0
M  END
>  <DRUGBANK_ID>
DB12076

>  <COMMON_NAME>
Surotomycin

>  <CAS_NUMBER>
1233389-51-9

>  <UNII>
ON0N776N05

>  <SYNONYMS>
Surotomycin

$$$$
