
 OpenBabel10282417123D

 48 49  0  0  1  0  0  0  0  0999 V2000
   -5.8737   -6.3481   -3.8153 C   0  0  0  0  0  0  0  0  0  0  0  0
   -3.5239   -6.9495    0.1647 C   0  0  0  0  0  0  0  0  0  0  0  0
   -4.5464   -3.7639   -0.7342 C   0  0  0  0  0  0  0  0  0  0  0  0
   -3.4274   -7.2366   -1.5468 C   0  0  2  0  0  0  0  0  0  0  0  0
   -3.0210   -3.8512   -1.4370 C   0  0  2  0  0  0  0  0  0  0  0  0
   -2.2829   -5.2488   -1.6999 C   0  0  2  0  0  0  0  0  0  0  0  0
   -1.8363   -7.7216   -2.5421 C   0  0  2  0  0  0  0  0  0  0  0  0
   -0.8425   -5.6850   -1.2533 C   0  0  1  0  0  0  0  0  0  0  0  0
   -1.3426   -6.7057   -4.1084 C   0  0  1  0  0  0  0  0  0  0  0  0
   -0.0644   -4.6034   -0.6903 C   0  0  1  0  0  0  0  0  0  0  0  0
   -2.0488   -4.9486   -4.2402 C   0  0  1  0  0  0  0  0  0  0  0  0
   -3.9217   -4.9291   -3.7751 C   0  0  1  0  0  0  0  0  0  0  0  0
   -0.7210   -3.3845   -1.3457 C   0  0  2  0  0  0  0  0  0  0  0  0
   -2.6262   -7.8146    0.8086 O   0  0  0  0  0  0  0  0  0  0  0  0
   -5.7589   -4.3182   -1.2885 O   0  0  0  0  0  0  0  0  0  0  0  0
   -2.6444   -6.1209   -2.8708 O   0  0  0  0  0  0  0  0  0  0  0  0
   -1.8118   -9.1555   -2.6496 O   0  0  0  0  0  0  0  0  0  0  0  0
   -0.4835   -6.8771   -0.5147 O   0  0  0  0  0  0  0  0  0  0  0  0
    0.0710   -6.6133   -4.3812 O   0  0  0  0  0  0  0  0  0  0  0  0
   -0.0963   -4.7204    0.7315 O   0  0  0  0  0  0  0  0  0  0  0  0
   -4.7322   -5.8157   -4.5581 O   0  0  0  0  0  0  0  0  0  0  0  0
   -4.3392   -5.7481   -2.1878 O   0  0  0  0  0  0  0  0  0  0  0  0
   -2.0272   -3.1284   -0.7311 O   0  0  0  0  0  0  0  0  0  0  0  0
   -0.7968   -3.4234   -3.4177 S   0  0  0  0  0  0  0  0  0  0  0  0
   -4.2090   -7.9850   -1.7293 H   0  0  0  0  0  0  0  0  0  0  0  0
   -3.1794   -3.2774   -2.3429 H   0  0  0  0  0  0  0  0  0  0  0  0
   -2.6548   -5.5956   -0.8299 H   0  0  0  0  0  0  0  0  0  0  0  0
   -0.7853   -7.6606   -2.1582 H   0  0  0  0  0  0  0  0  0  0  0  0
   -0.3586   -5.8183   -2.1977 H   0  0  0  0  0  0  0  0  0  0  0  0
   -1.8280   -7.2593   -4.9149 H   0  0  0  0  0  0  0  0  0  0  0  0
    0.9532   -4.8415   -1.0201 H   0  0  0  0  0  0  0  0  0  0  0  0
   -1.9871   -4.7137   -5.2933 H   0  0  0  0  0  0  0  0  0  0  0  0
   -4.2665   -3.8887   -3.7841 H   0  0  0  0  0  0  0  0  0  0  0  0
   -0.0986   -2.5456   -1.0618 H   0  0  0  0  0  0  0  0  0  0  0  0
   -6.6082   -5.5717   -3.5867 H   0  0  0  0  0  0  0  0  0  0  0  0
   -5.6529   -6.8425   -2.8576 H   0  0  0  0  0  0  0  0  0  0  0  0
   -6.2637   -7.2175   -4.3244 H   0  0  0  0  0  0  0  0  0  0  0  0
   -3.2843   -5.9368    0.6009 H   0  0  0  0  0  0  0  0  0  0  0  0
   -4.5554   -7.0132    0.5148 H   0  0  0  0  0  0  0  0  0  0  0  0
   -4.5498   -4.1068    0.3011 H   0  0  0  0  0  0  0  0  0  0  0  0
   -4.8149   -2.7145   -0.7957 H   0  0  0  0  0  0  0  0  0  0  0  0
   -2.5498   -8.5719    0.2105 H   0  0  0  0  0  0  0  0  0  0  0  0
   -5.5334   -4.6088   -2.1821 H   0  0  0  0  0  0  0  0  0  0  0  0
   -3.5607   -6.5598   -3.2456 H   0  0  0  0  0  0  0  0  0  0  0  0
   -2.7187   -9.3130   -2.9019 H   0  0  0  0  0  0  0  0  0  0  0  0
   -1.1373   -7.2822    0.0806 H   0  0  0  0  0  0  0  0  0  0  0  0
    0.4477   -5.9208   -3.8094 H   0  0  0  0  0  0  0  0  0  0  0  0
   -0.8418   -4.2149    1.0841 H   0  0  0  0  0  0  0  0  0  0  0  0
  1 35  1  0  0  0  0
  1 36  1  0  0  0  0
  1 37  1  0  0  0  0
  2 38  1  0  0  0  0
  2 39  1  0  0  0  0
  3 40  1  0  0  0  0
  3 41  1  0  0  0  0
  4 25  1  6  0  0  0
  4  2  1  0  0  0  0
  5 26  1  6  0  0  0
  5  3  1  0  0  0  0
  6  5  1  0  0  0  0
  6 16  1  0  0  0  0
  6 27  1  1  0  0  0
  7  4  1  0  0  0  0
  7 17  1  0  0  0  0
  7 28  1  1  0  0  0
  8  6  1  0  0  0  0
  8 18  1  0  0  0  0
  8 29  1  6  0  0  0
  9  7  1  0  0  0  0
  9 19  1  0  0  0  0
  9 30  1  6  0  0  0
 10  8  1  0  0  0  0
 10 31  1  6  0  0  0
 10 20  1  0  0  0  0
 11  9  1  0  0  0  0
 11 32  1  6  0  0  0
 11 24  1  0  0  0  0
 12 11  1  0  0  0  0
 12 33  1  6  0  0  0
 12 21  1  0  0  0  0
 13 10  1  0  0  0  0
 13 34  1  1  0  0  0
 13 24  1  0  0  0  0
 14  2  1  0  0  0  0
 14 42  1  0  0  0  0
 15  3  1  0  0  0  0
 15 43  1  0  0  0  0
 16 44  1  0  0  0  0
 17 45  1  0  0  0  0
 18 46  1  0  0  0  0
 19 47  1  0  0  0  0
 20 48  1  0  0  0  0
 21  1  1  0  0  0  0
 22  4  1  0  0  0  0
 22 12  1  0  0  0  0
 23  5  1  0  0  0  0
 23 13  1  0  0  0  0
M  END
>  <DRUGBANK_ID>
DB02422

>  <SECONDARY_ACCESSION_NUMBERS>
EXPT02920

>  <COMMON_NAME>
Methyl-2-S-(Alpha-D-Mannopyranosyl)-2-Thio-Alpha-D-Mannopyranoside

$$$$
