
 OpenBabel10282417233D

 93 98  0  0  1  0  0  0  0  0999 V2000
   -2.7469    0.5671   -0.0135 C   0  0  0  0  0  0  0  0  0  0  0  0
   -1.3999   -0.0395    0.0209 C   0  0  0  0  0  0  0  0  0  0  0  0
   -1.2323   -1.4255   -0.0190 C   0  0  0  0  0  0  0  0  0  0  0  0
    0.0328   -1.9578    0.1324 C   0  0  0  0  0  0  0  0  0  0  0  0
    0.2897   -3.4235   -0.0007 C   0  0  0  0  0  0  0  0  0  0  0  0
    1.1520   -3.9295   -1.1678 C   0  0  1  0  0  0  0  0  0  0  0  0
    2.5304   -3.4189   -1.1370 O   0  0  0  0  0  0  0  0  0  0  0  0
    2.8292   -2.1585   -1.5686 C   0  0  0  0  0  0  0  0  0  0  0  0
    2.0234   -1.4362   -2.1786 O   0  0  0  0  0  0  0  0  0  0  0  0
    4.1071   -1.7789   -1.1478 N   0  0  0  0  0  0  0  0  0  0  0  0
    4.4526   -0.6635   -0.2696 C   0  0  0  0  0  0  0  0  0  0  0  0
    4.7395    0.6747   -1.0305 C   0  0  0  0  0  0  0  0  0  0  0  0
    5.8985    0.4902   -1.9833 C   0  0  3  0  0  0  0  0  0  0  0  0
    5.5879   -0.7597   -2.8486 C   0  0  0  0  0  0  0  0  0  0  0  0
    5.1839   -2.0162   -2.0601 C   0  0  0  0  0  0  0  0  0  0  0  0
    6.2433    1.7095   -2.7641 N   0  0  0  0  0  0  0  0  0  0  0  0
    6.5567    2.9933   -2.1141 C   0  0  0  0  0  0  0  0  0  0  0  0
    7.9534    3.5292   -2.4840 C   0  0  0  0  0  0  0  0  0  0  0  0
    7.9668    4.1526   -3.8699 C   0  0  0  0  0  0  0  0  0  0  0  0
    7.6809    3.3542   -4.9846 C   0  0  0  0  0  0  0  0  0  0  0  0
    7.3074    2.0337   -4.7599 N   0  0  0  0  0  0  0  0  0  0  0  0
    6.1024    1.7659   -4.1438 C   0  0  0  0  0  0  0  0  0  0  0  0
    5.0974    1.4451   -4.7646 O   0  0  0  0  0  0  0  0  0  0  0  0
    7.6777    3.8654   -6.2828 C   0  0  0  0  0  0  0  0  0  0  0  0
    7.9059    5.2245   -6.4776 C   0  0  0  0  0  0  0  0  0  0  0  0
    8.1920    6.0411   -5.3823 C   0  0  0  0  0  0  0  0  0  0  0  0
    8.2417    5.5067   -4.0866 C   0  0  0  0  0  0  0  0  0  0  0  0
    1.2988   -5.4754   -1.0397 C   0  0  0  0  0  0  0  0  0  0  0  0
    0.9208   -6.2274   -1.9456 O   0  0  0  0  0  0  0  0  0  0  0  0
    2.0332   -5.9482    0.0660 N   0  0  0  0  0  0  0  0  0  0  0  0
    2.9539   -7.0328   -0.1448 C   0  0  0  0  0  0  0  0  0  0  0  0
    2.4000   -8.2041    0.5711 C   0  0  0  0  0  0  0  0  0  0  0  0
    1.9307   -8.2690    2.0103 C   0  0  3  0  0  0  0  0  0  0  0  0
    1.0887   -7.0002    2.2070 C   0  0  0  0  0  0  0  0  0  0  0  0
    1.6982   -5.7840    1.4913 C   0  0  0  0  0  0  0  0  0  0  0  0
    1.0691   -9.4858    2.2452 N   0  0  0  0  0  0  0  0  0  0  0  0
    1.7754  -10.7861    2.4126 C   0  0  0  0  0  0  0  0  0  0  0  0
    2.4921  -11.2826    1.1498 C   0  0  0  0  0  0  0  0  0  0  0  0
    1.5826  -11.4226    0.0354 O   0  0  0  0  0  0  0  0  0  0  0  0
    0.8022  -10.2521   -0.2188 C   0  0  0  0  0  0  0  0  0  0  0  0
    0.1324   -9.7097    1.0947 C   0  0  0  0  0  0  0  0  0  0  0  0
    1.0888   -1.0982    0.4550 C   0  0  0  0  0  0  0  0  0  0  0  0
    0.9494    0.2796    0.2838 C   0  0  0  0  0  0  0  0  0  0  0  0
    2.0309    1.2810    0.1570 C   0  0  0  0  0  0  0  0  0  0  0  0
   -0.3008    0.7962    0.1027 C   0  0  0  0  0  0  0  0  0  0  0  0
   -0.3584    2.1585    0.0268 O   0  0  0  0  0  0  0  0  0  0  0  0
   -2.8577    1.1611    0.8994 H   0  0  0  0  0  0  0  0  0  0  0  0
   -2.8241    1.2065   -0.8958 H   0  0  0  0  0  0  0  0  0  0  0  0
   -3.5191   -0.1983   -0.0385 H   0  0  0  0  0  0  0  0  0  0  0  0
   -2.0840   -2.0862   -0.1455 H   0  0  0  0  0  0  0  0  0  0  0  0
    0.8307   -3.5745    0.9181 H   0  0  0  0  0  0  0  0  0  0  0  0
   -0.6469   -4.0003    0.0459 H   0  0  0  0  0  0  0  0  0  0  0  0
    0.6787   -3.7164   -2.1378 H   0  0  0  0  0  0  0  0  0  0  0  0
    5.3629   -0.9402    0.2726 H   0  0  0  0  0  0  0  0  0  0  0  0
    3.7537   -0.6242    0.5653 H   0  0  0  0  0  0  0  0  0  0  0  0
    4.9449    1.4725   -0.3015 H   0  0  0  0  0  0  0  0  0  0  0  0
    3.8988    1.0176   -1.6503 H   0  0  0  0  0  0  0  0  0  0  0  0
    6.7903    0.2949   -1.3752 H   0  0  0  0  0  0  0  0  0  0  0  0
    4.7599   -0.5246   -3.5269 H   0  0  0  0  0  0  0  0  0  0  0  0
    6.4685   -0.9992   -3.4463 H   0  0  0  0  0  0  0  0  0  0  0  0
    4.9077   -2.8288   -2.7331 H   0  0  0  0  0  0  0  0  0  0  0  0
    6.0138   -2.3380   -1.4253 H   0  0  0  0  0  0  0  0  0  0  0  0
    5.7928    3.7214   -2.4298 H   0  0  0  0  0  0  0  0  0  0  0  0
    6.4702    2.8832   -1.0310 H   0  0  0  0  0  0  0  0  0  0  0  0
    8.2839    4.2620   -1.7395 H   0  0  0  0  0  0  0  0  0  0  0  0
    8.6795    2.7047   -2.4459 H   0  0  0  0  0  0  0  0  0  0  0  0
    7.7883    1.2761   -5.2184 H   0  0  0  0  0  0  0  0  0  0  0  0
    7.4033    3.2384   -7.1268 H   0  0  0  0  0  0  0  0  0  0  0  0
    7.8294    5.6513   -7.4752 H   0  0  0  0  0  0  0  0  0  0  0  0
    8.3587    7.1043   -5.5399 H   0  0  0  0  0  0  0  0  0  0  0  0
    8.4664    6.1679   -3.2542 H   0  0  0  0  0  0  0  0  0  0  0  0
    3.9453   -6.7810    0.2225 H   0  0  0  0  0  0  0  0  0  0  0  0
    3.0222   -7.3154   -1.2089 H   0  0  0  0  0  0  0  0  0  0  0  0
    3.0480   -9.0221    0.3147 H   0  0  0  0  0  0  0  0  0  0  0  0
    1.4417   -8.1717    0.0609 H   0  0  0  0  0  0  0  0  0  0  0  0
    2.7714   -8.2456    2.7181 H   0  0  0  0  0  0  0  0  0  0  0  0
    0.0727   -7.1157    1.8091 H   0  0  0  0  0  0  0  0  0  0  0  0
    0.9457   -6.7789    3.2723 H   0  0  0  0  0  0  0  0  0  0  0  0
    0.9190   -5.0686    1.6448 H   0  0  0  0  0  0  0  0  0  0  0  0
    2.6268   -5.4833    1.9756 H   0  0  0  0  0  0  0  0  0  0  0  0
    1.0139  -11.5477    2.6452 H   0  0  0  0  0  0  0  0  0  0  0  0
    2.4475  -10.7788    3.2785 H   0  0  0  0  0  0  0  0  0  0  0  0
    3.3685  -10.6605    0.9460 H   0  0  0  0  0  0  0  0  0  0  0  0
    2.9297  -12.2702    1.3049 H   0  0  0  0  0  0  0  0  0  0  0  0
    0.0169  -10.3686   -0.9705 H   0  0  0  0  0  0  0  0  0  0  0  0
    1.4765   -9.6294   -0.8130 H   0  0  0  0  0  0  0  0  0  0  0  0
   -0.6179  -10.4416    1.4142 H   0  0  0  0  0  0  0  0  0  0  0  0
   -0.4525   -8.8026    0.9097 H   0  0  0  0  0  0  0  0  0  0  0  0
    2.0379   -1.5629    0.7016 H   0  0  0  0  0  0  0  0  0  0  0  0
    1.9471    1.8789   -0.7616 H   0  0  0  0  0  0  0  0  0  0  0  0
    2.2311    1.8788    1.0405 H   0  0  0  0  0  0  0  0  0  0  0  0
    2.8952    0.7362   -0.0191 H   0  0  0  0  0  0  0  0  0  0  0  0
   -1.2724    2.4473   -0.0437 H   0  0  0  0  0  0  0  0  0  0  0  0
  1  2  1  0  0  0  0
  1 47  1  0  0  0  0
  1 48  1  0  0  0  0
  1 49  1  0  0  0  0
  2  3  2  0  0  0  0
  2 45  1  0  0  0  0
  3  4  1  0  0  0  0
  3 50  1  0  0  0  0
  4  5  1  0  0  0  0
  4 42  2  0  0  0  0
  5 51  1  0  0  0  0
  5 52  1  0  0  0  0
  6  5  1  0  0  0  0
  6  7  1  0  0  0  0
  6 28  1  0  0  0  0
  6 53  1  6  0  0  0
  7  8  1  0  0  0  0
  8  9  2  0  0  0  0
  8 10  1  0  0  0  0
 10 11  1  0  0  0  0
 10 15  1  0  0  0  0
 11 12  1  0  0  0  0
 11 54  1  0  0  0  0
 11 55  1  0  0  0  0
 12 13  1  0  0  0  0
 12 56  1  0  0  0  0
 12 57  1  0  0  0  0
 13 14  1  0  0  0  0
 13 16  1  0  0  0  0
 13 58  1  0  0  0  0
 14 15  1  0  0  0  0
 14 59  1  0  0  0  0
 14 60  1  0  0  0  0
 15 61  1  0  0  0  0
 15 62  1  0  0  0  0
 16 17  1  0  0  0  0
 16 22  1  0  0  0  0
 17 18  1  0  0  0  0
 17 63  1  0  0  0  0
 17 64  1  0  0  0  0
 18 19  1  0  0  0  0
 18 65  1  0  0  0  0
 18 66  1  0  0  0  0
 19 20  2  0  0  0  0
 19 27  1  0  0  0  0
 20 21  1  0  0  0  0
 20 24  1  0  0  0  0
 21 22  1  0  0  0  0
 21 67  1  0  0  0  0
 22 23  2  0  0  0  0
 24 25  2  0  0  0  0
 24 68  1  0  0  0  0
 25 26  1  0  0  0  0
 25 69  1  0  0  0  0
 26 27  2  0  0  0  0
 26 70  1  0  0  0  0
 27 71  1  0  0  0  0
 28 29  2  0  0  0  0
 28 30  1  0  0  0  0
 30 31  1  0  0  0  0
 30 35  1  0  0  0  0
 31 32  1  0  0  0  0
 31 72  1  0  0  0  0
 31 73  1  0  0  0  0
 32 33  1  0  0  0  0
 32 74  1  0  0  0  0
 32 75  1  0  0  0  0
 33 34  1  0  0  0  0
 33 36  1  0  0  0  0
 33 76  1  0  0  0  0
 34 35  1  0  0  0  0
 34 77  1  0  0  0  0
 34 78  1  0  0  0  0
 35 79  1  0  0  0  0
 35 80  1  0  0  0  0
 36 37  1  0  0  0  0
 36 41  1  0  0  0  0
 37 38  1  0  0  0  0
 37 81  1  0  0  0  0
 37 82  1  0  0  0  0
 38 39  1  0  0  0  0
 38 83  1  0  0  0  0
 38 84  1  0  0  0  0
 39 40  1  0  0  0  0
 40 41  1  0  0  0  0
 40 85  1  0  0  0  0
 40 86  1  0  0  0  0
 41 87  1  0  0  0  0
 41 88  1  0  0  0  0
 42 43  1  0  0  0  0
 42 89  1  0  0  0  0
 43 44  1  0  0  0  0
 43 45  2  0  0  0  0
 44 90  1  0  0  0  0
 44 91  1  0  0  0  0
 44 92  1  0  0  0  0
 45 46  1  0  0  0  0
 46 93  1  0  0  0  0
M  END
>  <DRUGBANK_ID>
DB16037

>  <COMMON_NAME>
BI 44370 TA

>  <CAS_NUMBER>
866086-05-7

>  <UNII>
7L3WOA232W

$$$$
