
 OpenBabel10282417133D

120122  0  0  0  0  0  0  0  0999 V2000
    1.4427  -13.4866    4.2888 C   0  0  2  0  0  0  0  0  0  0  0  0
    1.7809  -14.0137    5.6486 O   0  0  0  0  0  0  0  0  0  0  0  0
    2.1288  -12.0614    4.1634 C   0  0  2  0  0  0  0  0  0  0  0  0
    2.7191  -13.0985    6.3940 C   0  0  1  0  0  0  0  0  0  0  0  0
    3.2048  -12.1210    5.2841 C   0  0  2  0  0  0  0  0  0  0  0  0
    3.5238  -13.7658    6.7218 H   0  0  0  0  0  0  0  0  0  0  0  0
    1.9762  -14.1456    3.5833 H   0  0  0  0  0  0  0  0  0  0  0  0
    1.3732  -10.8274    4.2316 O   0  0  0  0  0  0  0  0  0  0  0  0
    3.6966  -10.8688    5.7317 O   0  0  0  0  0  0  0  0  0  0  0  0
    0.6550  -10.7210    8.9015 C   0  0  0  0  0  0  0  0  0  0  0  0
    1.7191  -11.2303    8.0279 C   0  0  0  0  0  0  0  0  0  0  0  0
    2.1288  -12.5093    7.7940 C   0  0  0  0  0  0  0  0  0  0  0  0
    0.2147   -9.4668    8.7025 C   0  0  0  0  0  0  0  0  0  0  0  0
   -0.7712   -8.8263    9.4997 C   0  0  0  0  0  0  0  0  0  0  0  0
   -1.1619   -7.5475    9.3449 C   0  0  0  0  0  0  0  0  0  0  0  0
   -2.2123   -7.3519   10.4171 C   0  0  0  0  0  0  0  0  0  0  0  0
   -2.6643   -8.2219   11.1597 O   0  0  0  0  0  0  0  0  0  0  0  0
   -2.8567   -6.1118   10.5465 C   0  0  0  0  0  0  0  0  0  0  0  0
   -3.5962   -5.8296    9.5200 C   0  0  0  0  0  0  0  0  0  0  0  0
   -3.1025   -5.7505    8.2426 O   0  0  0  0  0  0  0  0  0  0  0  0
   -0.7490   -6.6674    8.1093 C   0  0  0  0  0  0  0  0  0  0  0  0
   -2.0444   -5.5375   12.6593 O   0  0  0  0  0  0  0  0  0  0  0  0
   -2.7535   -5.2632   11.8005 C   0  0  0  0  0  0  0  0  0  0  0  0
   -3.3521   -4.0158   11.6620 N   0  0  0  0  0  0  0  0  0  0  0  0
   -4.4237   -4.7624    9.7223 C   0  0  0  0  0  0  0  0  0  0  0  0
   -4.0303   -3.8127   10.5955 C   0  0  0  0  0  0  0  0  0  0  0  0
   -3.3415   -2.7993   12.4933 C   0  0  0  0  0  0  0  0  0  0  0  0
   -4.2421   -3.8703    6.7971 C   0  0  2  0  0  0  0  0  0  0  0  0
   -4.8522   -7.0023    7.3180 C   0  0  0  0  0  0  0  0  0  0  0  0
   -5.4163   -7.4066    8.3425 O   0  0  0  0  0  0  0  0  0  0  0  0
   -5.0263   -5.5679    6.6390 C   0  0  1  0  0  0  0  0  0  0  0  0
   -3.8398   -7.7386    6.7936 N   0  0  0  0  0  0  0  0  0  0  0  0
   -3.2097   -8.6657    7.6590 C   0  0  0  0  0  0  0  0  0  0  0  0
   -3.3168   -9.9815    7.1462 C   0  0  0  0  0  0  0  0  0  0  0  0
   -2.1851  -10.5736    6.8255 C   0  0  0  0  0  0  0  0  0  0  0  0
   -2.2846  -11.9065    6.3898 C   0  0  0  0  0  0  0  0  0  0  0  0
   -1.2511  -12.5861    5.9182 C   0  0  0  0  0  0  0  0  0  0  0  0
   -0.0189  -12.1933    6.4389 C   0  0  0  0  0  0  0  0  0  0  0  0
   -1.1242  -13.8100    5.1135 C   0  0  2  0  0  0  0  0  0  0  0  0
   -0.1134  -13.6450    3.9032 C   0  0  1  0  0  0  0  0  0  0  0  0
   -0.4946  -12.5375    2.8963 C   0  0  0  0  0  0  0  0  0  0  0  0
   -2.4627  -14.1433    4.7610 O   0  0  0  0  0  0  0  0  0  0  0  0
   -6.4625   -5.6679    6.9629 C   0  0  0  0  0  0  0  0  0  0  0  0
   -7.0355   -4.8375    5.9343 C   0  0  0  0  0  0  0  0  0  0  0  0
   -3.1531  -13.1252    4.0353 C   0  0  0  0  0  0  0  0  0  0  0  0
   -3.6651   -3.0959    8.1442 C   0  0  1  0  0  0  0  0  0  0  0  0
   -5.2655   -2.5960    9.0574 C   0  0  1  0  0  0  0  0  0  0  0  0
   -5.0759   -2.6979    6.3016 O   0  0  0  0  0  0  0  0  0  0  0  0
   -5.7792   -1.3880    8.4468 C   0  0  0  0  0  0  0  0  0  0  0  0
   -6.1346   -1.9199    7.0695 C   0  0  2  0  0  0  0  0  0  0  0  0
   -6.9624   -1.0104    9.4169 C   0  0  0  0  0  0  0  0  0  0  0  0
   -4.6058   -0.4172    8.5582 C   0  0  0  0  0  0  0  0  0  0  0  0
   -6.3625   -3.4944    9.5844 O   0  0  0  0  0  0  0  0  0  0  0  0
   -2.3211   -3.5802    8.6468 O   0  0  0  0  0  0  0  0  0  0  0  0
   -3.1136   -4.0229    5.8562 O   0  0  0  0  0  0  0  0  0  0  0  0
   -8.6554   -2.7091    6.8808 C   0  0  0  0  0  0  0  0  0  0  0  0
   -9.5703   -3.9013    7.0674 C   0  0  0  0  0  0  0  0  0  0  0  0
  -10.6720   -4.0341    6.3356 C   0  0  0  0  0  0  0  0  0  0  0  0
  -11.1544   -2.8351    5.6400 C   0  0  0  0  0  0  0  0  0  0  0  0
   -7.4096   -2.6936    7.3323 C   0  0  0  0  0  0  0  0  0  0  0  0
    2.5767  -11.9852    3.1697 H   0  0  0  0  0  0  0  0  0  0  0  0
    4.0689  -12.6042    4.8301 H   0  0  0  0  0  0  0  0  0  0  0  0
    0.4845  -10.9086    4.6136 H   0  0  0  0  0  0  0  0  0  0  0  0
    2.9569  -10.3387    6.0542 H   0  0  0  0  0  0  0  0  0  0  0  0
    0.0586  -11.3851    9.5231 H   0  0  0  0  0  0  0  0  0  0  0  0
    1.8208  -10.5027    7.2381 H   0  0  0  0  0  0  0  0  0  0  0  0
    1.7151  -13.2652    8.4725 H   0  0  0  0  0  0  0  0  0  0  0  0
    0.5509   -8.9112    7.8333 H   0  0  0  0  0  0  0  0  0  0  0  0
   -1.2697   -9.4794   10.2215 H   0  0  0  0  0  0  0  0  0  0  0  0
   -3.0387   -6.6301    7.8654 H   0  0  0  0  0  0  0  0  0  0  0  0
   -1.4805   -6.4719    7.3146 H   0  0  0  0  0  0  0  0  0  0  0  0
   -0.3745   -5.6753    8.3439 H   0  0  0  0  0  0  0  0  0  0  0  0
   -0.1131   -7.2036    7.4030 H   0  0  0  0  0  0  0  0  0  0  0  0
   -4.8765   -4.6167    8.7579 H   0  0  0  0  0  0  0  0  0  0  0  0
   -3.8696   -2.7466   10.4203 H   0  0  0  0  0  0  0  0  0  0  0  0
   -2.9438   -1.9218   11.9335 H   0  0  0  0  0  0  0  0  0  0  0  0
   -4.3981   -2.5262   12.6887 H   0  0  0  0  0  0  0  0  0  0  0  0
   -2.7685   -2.9854   13.3733 H   0  0  0  0  0  0  0  0  0  0  0  0
   -4.9430   -5.7923    5.5601 H   0  0  0  0  0  0  0  0  0  0  0  0
   -3.3059   -7.3352    6.0351 H   0  0  0  0  0  0  0  0  0  0  0  0
   -3.5098   -8.6363    8.7096 H   0  0  0  0  0  0  0  0  0  0  0  0
   -2.1795   -8.3801    7.5413 H   0  0  0  0  0  0  0  0  0  0  0  0
   -4.2829  -10.4349    7.0926 H   0  0  0  0  0  0  0  0  0  0  0  0
   -1.2674   -9.9879    6.8186 H   0  0  0  0  0  0  0  0  0  0  0  0
   -3.2872  -12.2756    6.3083 H   0  0  0  0  0  0  0  0  0  0  0  0
    0.1439  -12.9582    7.1861 H   0  0  0  0  0  0  0  0  0  0  0  0
    0.7770  -12.1697    5.7731 H   0  0  0  0  0  0  0  0  0  0  0  0
    0.0095  -11.1568    6.6640 H   0  0  0  0  0  0  0  0  0  0  0  0
   -0.7263  -14.6068    5.7676 H   0  0  0  0  0  0  0  0  0  0  0  0
   -0.2138  -14.5981    3.3617 H   0  0  0  0  0  0  0  0  0  0  0  0
    0.2753  -12.3937    2.1379 H   0  0  0  0  0  0  0  0  0  0  0  0
   -1.3784  -12.7381    2.3047 H   0  0  0  0  0  0  0  0  0  0  0  0
   -0.7081  -11.5911    3.3970 H   0  0  0  0  0  0  0  0  0  0  0  0
   -7.0182   -6.6204    6.9238 H   0  0  0  0  0  0  0  0  0  0  0  0
   -6.6311   -5.4773    8.0244 H   0  0  0  0  0  0  0  0  0  0  0  0
   -7.4470   -5.1724    5.0110 H   0  0  0  0  0  0  0  0  0  0  0  0
   -7.8482   -4.7156    6.5516 H   0  0  0  0  0  0  0  0  0  0  0  0
   -6.5156   -3.9260    5.7352 H   0  0  0  0  0  0  0  0  0  0  0  0
   -2.8916  -12.0770    4.2568 H   0  0  0  0  0  0  0  0  0  0  0  0
   -2.9353  -13.2736    2.9992 H   0  0  0  0  0  0  0  0  0  0  0  0
   -4.2216  -13.2276    4.1886 H   0  0  0  0  0  0  0  0  0  0  0  0
   -3.1061   -2.1927    7.9054 H   0  0  0  0  0  0  0  0  0  0  0  0
   -5.2381   -2.1866   10.0725 H   0  0  0  0  0  0  0  0  0  0  0  0
   -6.3456   -1.0562    6.4395 H   0  0  0  0  0  0  0  0  0  0  0  0
   -6.6135   -0.8652   10.4551 H   0  0  0  0  0  0  0  0  0  0  0  0
   -7.5015   -0.1562    9.0500 H   0  0  0  0  0  0  0  0  0  0  0  0
   -7.6971   -1.8252    9.5521 H   0  0  0  0  0  0  0  0  0  0  0  0
   -3.7516   -0.6919    7.9559 H   0  0  0  0  0  0  0  0  0  0  0  0
   -4.8619    0.5479    8.1633 H   0  0  0  0  0  0  0  0  0  0  0  0
   -4.2224   -0.3580    9.5936 H   0  0  0  0  0  0  0  0  0  0  0  0
   -6.4587   -4.3822    9.2176 H   0  0  0  0  0  0  0  0  0  0  0  0
   -2.2734   -4.0099    9.5199 H   0  0  0  0  0  0  0  0  0  0  0  0
   -2.2977   -3.6907    6.2801 H   0  0  0  0  0  0  0  0  0  0  0  0
   -8.7573   -1.9735    6.1083 H   0  0  0  0  0  0  0  0  0  0  0  0
   -9.2771   -4.8690    7.5270 H   0  0  0  0  0  0  0  0  0  0  0  0
  -11.2120   -4.9830    6.2958 H   0  0  0  0  0  0  0  0  0  0  0  0
  -11.3720   -3.0475    4.6027 H   0  0  0  0  0  0  0  0  0  0  0  0
  -11.9612   -2.4334    6.2434 H   0  0  0  0  0  0  0  0  0  0  0  0
  -10.4266   -2.0332    5.5963 H   0  0  0  0  0  0  0  0  0  0  0  0
   -7.3430   -3.5028    8.0066 H   0  0  0  0  0  0  0  0  0  0  0  0
  1  2  1  0  0  0  0
  1  3  1  0  0  0  0
  1 40  1  0  0  0  0
  1  7  1  6  0  0  0
  2  4  1  0  0  0  0
  3  5  1  0  0  0  0
  3  8  1  0  0  0  0
  3 61  1  6  0  0  0
  4  5  1  0  0  0  0
  4 12  1  0  0  0  0
  4  6  1  1  0  0  0
  5  9  1  0  0  0  0
  5 62  1  6  0  0  0
  8 63  1  0  0  0  0
  9 64  1  0  0  0  0
 10 11  1  0  0  0  0
 10 13  2  0  0  0  0
 10 65  1  0  0  0  0
 11 12  2  0  0  0  0
 11 66  1  0  0  0  0
 12 67  1  0  0  0  0
 13 14  1  0  0  0  0
 13 68  1  0  0  0  0
 14 15  2  0  0  0  0
 14 69  1  0  0  0  0
 15 21  1  0  0  0  0
 15 16  1  0  0  0  0
 16 17  2  0  0  0  0
 16 18  1  0  0  0  0
 18 23  1  0  0  0  0
 18 19  2  0  0  0  0
 19 20  1  0  0  0  0
 19 25  1  0  0  0  0
 20 70  1  0  0  0  0
 21 71  1  0  0  0  0
 21 72  1  0  0  0  0
 21 73  1  0  0  0  0
 22 23  2  0  0  0  0
 23 24  1  0  0  0  0
 24 26  1  0  0  0  0
 24 27  1  0  0  0  0
 25 26  2  0  0  0  0
 25 74  1  0  0  0  0
 26 75  1  0  0  0  0
 27 76  1  0  0  0  0
 27 77  1  0  0  0  0
 27 78  1  0  0  0  0
 28 46  1  0  0  0  0
 28 48  1  0  0  0  0
 28 55  1  6  0  0  0
 29 32  1  0  0  0  0
 29 30  2  0  0  0  0
 31 43  1  0  0  0  0
 31 79  1  6  0  0  0
 31 29  1  0  0  0  0
 31 28  1  0  0  0  0
 32 33  1  0  0  0  0
 32 80  1  0  0  0  0
 33 34  1  0  0  0  0
 33 81  1  0  0  0  0
 33 82  1  0  0  0  0
 34 35  2  0  0  0  0
 34 83  1  0  0  0  0
 35 36  1  0  0  0  0
 35 84  1  0  0  0  0
 36 37  2  0  0  0  0
 36 85  1  0  0  0  0
 37 39  1  0  0  0  0
 37 38  1  0  0  0  0
 38 86  1  0  0  0  0
 38 87  1  0  0  0  0
 38 88  1  0  0  0  0
 39 40  1  0  0  0  0
 39 42  1  0  0  0  0
 39 89  1  1  0  0  0
 40 41  1  0  0  0  0
 40 90  1  6  0  0  0
 41 91  1  0  0  0  0
 41 92  1  0  0  0  0
 41 93  1  0  0  0  0
 42 45  1  0  0  0  0
 43 44  1  0  0  0  0
 43 94  1  0  0  0  0
 43 95  1  0  0  0  0
 44 96  1  0  0  0  0
 44 97  1  0  0  0  0
 44 98  1  0  0  0  0
 45 99  1  0  0  0  0
 45100  1  0  0  0  0
 45101  1  0  0  0  0
 46 47  1  0  0  0  0
 46 54  1  0  0  0  0
 46102  1  6  0  0  0
 47 49  1  0  0  0  0
 47 53  1  0  0  0  0
 47103  1  1  0  0  0
 48 50  1  0  0  0  0
 49 50  1  0  0  0  0
 49 51  1  0  0  0  0
 49 52  1  0  0  0  0
 50 60  1  0  0  0  0
 50104  1  6  0  0  0
 51105  1  0  0  0  0
 51106  1  0  0  0  0
 51107  1  0  0  0  0
 52108  1  0  0  0  0
 52109  1  0  0  0  0
 52110  1  0  0  0  0
 53111  1  0  0  0  0
 54112  1  0  0  0  0
 55113  1  0  0  0  0
 56 57  1  0  0  0  0
 56 60  2  0  0  0  0
 56114  1  0  0  0  0
 57 58  2  0  0  0  0
 57115  1  0  0  0  0
 58 59  1  0  0  0  0
 58116  1  0  0  0  0
 59117  1  0  0  0  0
 59118  1  0  0  0  0
 59119  1  0  0  0  0
 60120  1  0  0  0  0
M  END
>  <DRUGBANK_ID>
DB04124

>  <SECONDARY_ACCESSION_NUMBERS>
EXPT02115

>  <COMMON_NAME>
Aurodox

>  <CAS_NUMBER>
12704-90-4

>  <UNII>
PGP5RZH64G

>  <SYNONYMS>
1-methylmocimycin; Goldinodox; Goldinomycin

$$$$
