
 OpenBabel10282417233D

 48 51  0  0  0  0  0  0  0  0999 V2000
   -1.2112   -1.4428    0.0013 C   0  0  0  0  0  0  0  0  0  0  0  0
    1.2220   -1.4615    0.0778 C   0  0  0  0  0  0  0  0  0  0  0  0
    0.6381   -8.9686    0.1578 C   0  0  0  0  0  0  0  0  0  0  0  0
    2.6613   -9.7739   -0.8227 C   0  0  0  0  0  0  0  0  0  0  0  0
    0.6371  -10.7411   -1.4109 C   0  0  0  0  0  0  0  0  0  0  0  0
   -0.5764   -4.2405   -1.0830 C   0  0  0  0  0  0  0  0  0  0  0  0
    0.0452   -8.3611   -4.8617 C   0  0  0  0  0  0  0  0  0  0  0  0
    0.0014   -2.1424    0.0468 C   0  0  0  0  0  0  0  0  0  0  0  0
    2.0262   -8.8613   -0.0078 C   0  0  0  0  0  0  0  0  0  0  0  0
   -0.1132   -9.8334   -0.6653 C   0  0  0  0  0  0  0  0  0  0  0  0
   -1.1967   -0.0667   -0.0040 C   0  0  0  0  0  0  0  0  0  0  0  0
    1.2102   -0.0804    0.0454 C   0  0  0  0  0  0  0  0  0  0  0  0
   -0.0264   -3.5554   -0.0206 C   0  0  0  0  0  0  0  0  0  0  0  0
   -0.5445   -8.2153   -3.4556 C   0  0  3  0  0  0  0  0  0  0  0  0
    0.0098    0.6284    0.0123 C   0  0  0  0  0  0  0  0  0  0  0  0
   -0.8116   -6.6888   -1.4404 C   0  0  3  0  0  0  0  0  0  0  0  0
   -0.0947   -6.9037   -2.7800 C   0  0  3  0  0  0  0  0  0  0  0  0
   -2.3042   -6.9422   -1.4740 C   0  0  3  0  0  0  0  0  0  0  0  0
   -2.4840   -8.3494   -2.0704 C   0  0  3  0  0  0  0  0  0  0  0  0
    3.0015   -7.3707    0.6306 Br  0  0  0  0  0  0  0  0  0  0  0  0
   -2.3613    0.5968   -0.0377 F   0  0  0  0  0  0  0  0  0  0  0  0
    2.3774    0.5816    0.0273 F   0  0  0  0  0  0  0  0  0  0  0  0
    0.0133    1.9616   -0.0104 F   0  0  0  0  0  0  0  0  0  0  0  0
    1.9950  -10.7315   -1.5028 N   0  0  0  0  0  0  0  0  0  0  0  0
    0.4216   -4.4152    0.9312 N   0  0  0  0  0  0  0  0  0  0  0  0
    0.1287   -5.6373    0.5174 N   0  0  0  0  0  0  0  0  0  0  0  0
   -0.4200   -5.5211   -0.7094 N   0  0  0  0  0  0  0  0  0  0  0  0
    1.4681   -8.4725   -4.7951 O   0  0  0  0  0  0  0  0  0  0  0  0
    1.3309   -6.9298   -2.6162 O   0  0  0  0  0  0  0  0  0  0  0  0
   -2.9071   -6.8758   -0.1763 O   0  0  0  0  0  0  0  0  0  0  0  0
   -1.9485   -8.4119   -3.4049 O   0  0  0  0  0  0  0  0  0  0  0  0
   -1.9260   -9.7972   -0.8646 S   0  0  0  0  0  0  0  0  0  0  0  0
   -2.1605   -1.9773   -0.0351 H   0  0  0  0  0  0  0  0  0  0  0  0
    2.1648   -2.0048    0.0958 H   0  0  0  0  0  0  0  0  0  0  0  0
    0.1511   -8.2621    0.8299 H   0  0  0  0  0  0  0  0  0  0  0  0
    3.7360   -9.7392   -0.9843 H   0  0  0  0  0  0  0  0  0  0  0  0
    0.1580  -11.4849   -2.0421 H   0  0  0  0  0  0  0  0  0  0  0  0
   -1.0374   -3.9395   -2.0027 H   0  0  0  0  0  0  0  0  0  0  0  0
   -0.3330   -9.2726   -5.3348 H   0  0  0  0  0  0  0  0  0  0  0  0
   -0.2150   -7.5150   -5.5011 H   0  0  0  0  0  0  0  0  0  0  0  0
   -0.1041   -9.0571   -2.9470 H   0  0  0  0  0  0  0  0  0  0  0  0
   -0.4629   -7.4439   -0.7944 H   0  0  0  0  0  0  0  0  0  0  0  0
   -0.3142   -6.0586   -3.4376 H   0  0  0  0  0  0  0  0  0  0  0  0
   -2.7851   -6.1695   -2.0888 H   0  0  0  0  0  0  0  0  0  0  0  0
   -3.5667   -8.5029   -2.1766 H   0  0  0  0  0  0  0  0  0  0  0  0
    1.8117   -7.6920   -4.3141 H   0  0  0  0  0  0  0  0  0  0  0  0
    1.5973   -7.8049   -2.2695 H   0  0  0  0  0  0  0  0  0  0  0  0
   -2.6084   -7.6444    0.3493 H   0  0  0  0  0  0  0  0  0  0  0  0
  1 33  1  0  0  0  0
  2 34  1  0  0  0  0
  3 35  1  0  0  0  0
  4 36  1  0  0  0  0
  5 37  1  0  0  0  0
  6 38  1  0  0  0  0
  7 39  1  0  0  0  0
  7 40  1  0  0  0  0
  8  1  2  0  0  0  0
  8  2  1  0  0  0  0
  9  3  2  0  0  0  0
  9  4  1  0  0  0  0
 10  3  1  0  0  0  0
 10  5  2  0  0  0  0
 11  1  1  0  0  0  0
 12  2  2  0  0  0  0
 13  6  2  0  0  0  0
 13  8  1  0  0  0  0
 14  7  1  0  0  0  0
 14 41  1  0  0  0  0
 15 11  2  0  0  0  0
 15 12  1  0  0  0  0
 16 42  1  0  0  0  0
 17 14  1  0  0  0  0
 17 16  1  0  0  0  0
 17 43  1  0  0  0  0
 18 16  1  0  0  0  0
 18 44  1  0  0  0  0
 19 18  1  0  0  0  0
 19 45  1  0  0  0  0
 20  9  1  0  0  0  0
 21 11  1  0  0  0  0
 22 12  1  0  0  0  0
 23 15  1  0  0  0  0
 24  4  2  0  0  0  0
 24  5  1  0  0  0  0
 25 13  1  0  0  0  0
 26 25  2  0  0  0  0
 27  6  1  0  0  0  0
 27 16  1  0  0  0  0
 27 26  1  0  0  0  0
 28  7  1  0  0  0  0
 28 46  1  0  0  0  0
 29 17  1  0  0  0  0
 29 47  1  0  0  0  0
 30 18  1  0  0  0  0
 30 48  1  0  0  0  0
 31 14  1  0  0  0  0
 31 19  1  0  0  0  0
 32 10  1  0  0  0  0
 32 19  1  0  0  0  0
M  END
>  <DRUGBANK_ID>
DB17499

>  <COMMON_NAME>
GB1211

>  <CAS_NUMBER>
1978336-95-6

>  <UNII>
94EN2E6BLW

$$$$
