
 OpenBabel10282417153D

 83 86  0  0  0  0  0  0  0  0999 V2000
   -1.3870    0.6470    0.0033 C   0  0  0  0  0  0  0  0  0  0  0  0
   -1.5236   -0.7643    0.0033 C   0  0  0  0  0  0  0  0  0  0  0  0
   -0.2456   -1.2484    0.0245 C   0  0  0  0  0  0  0  0  0  0  0  0
    0.6511   -0.1981    0.0461 N   0  0  0  0  0  0  0  0  0  0  0  0
   -0.0322    1.0341    0.0598 C   0  0  0  0  0  0  0  0  0  0  0  0
   -2.6497   -1.5884   -0.0175 N   0  0  0  0  0  0  0  0  0  0  0  0
   -3.9578   -1.1087   -0.0718 C   0  0  0  0  0  0  0  0  0  0  0  0
   -5.0439   -2.0992   -0.1494 C   0  0  0  0  0  0  0  0  0  0  0  0
   -4.2226    0.0833   -0.0970 O   0  0  0  0  0  0  0  0  0  0  0  0
   -5.2685   -3.2507    0.5804 N   0  0  0  0  0  0  0  0  0  0  0  0
   -6.5149   -3.7823    0.2577 C   0  0  0  0  0  0  0  0  0  0  0  0
   -7.1120   -2.9959   -0.7136 C   0  0  0  0  0  0  0  0  0  0  0  0
   -6.1850   -1.9432   -0.9386 C   0  0  0  0  0  0  0  0  0  0  0  0
   -8.3708   -3.2247   -1.3140 N   0  0  0  0  0  0  0  0  0  0  0  0
   -8.9027   -2.4224   -2.3412 C   0  0  0  0  0  0  0  0  0  0  0  0
  -10.1881   -2.8142   -2.9636 C   0  0  0  0  0  0  0  0  0  0  0  0
   -8.3179   -1.4361   -2.7708 O   0  0  0  0  0  0  0  0  0  0  0  0
  -10.4703   -2.6999   -4.3307 C   0  0  0  0  0  0  0  0  0  0  0  0
  -11.8248   -3.0364   -4.6125 C   0  0  0  0  0  0  0  0  0  0  0  0
  -12.3722   -3.3198   -3.3731 C   0  0  0  0  0  0  0  0  0  0  0  0
  -11.3889   -3.1952   -2.3932 N   0  0  0  0  0  0  0  0  0  0  0  0
  -12.5060   -3.0787   -5.8516 N   0  0  0  0  0  0  0  0  0  0  0  0
  -11.8868   -2.8375   -7.0911 C   0  0  0  0  0  0  0  0  0  0  0  0
  -12.6762   -3.0094   -8.3307 C   0  0  0  0  0  0  0  0  0  0  0  0
  -10.7017   -2.5430   -7.1844 O   0  0  0  0  0  0  0  0  0  0  0  0
  -12.1699   -3.5686   -9.5071 C   0  0  0  0  0  0  0  0  0  0  0  0
  -13.1183   -3.4956  -10.5622 C   0  0  0  0  0  0  0  0  0  0  0  0
  -14.1999   -2.8318  -10.0177 C   0  0  0  0  0  0  0  0  0  0  0  0
  -13.9367   -2.5581   -8.6782 N   0  0  0  0  0  0  0  0  0  0  0  0
  -13.0107   -3.9688  -11.8809 N   0  0  0  0  0  0  0  0  0  0  0  0
  -11.8922   -4.6497  -12.3543 C   0  0  0  0  0  0  0  0  0  0  0  0
  -11.9138   -5.1371  -13.7916 C   0  0  0  0  0  0  0  0  0  0  0  0
  -10.8911   -4.8907  -11.6791 O   0  0  0  0  0  0  0  0  0  0  0  0
  -10.8292   -5.7950  -14.2461 C   0  0  0  0  0  0  0  0  0  0  0  0
  -13.3845   -4.8532  -14.8997 Br  0  0  0  0  0  0  0  0  0  0  0  0
  -14.8463   -1.8483   -7.8038 C   0  0  0  0  0  0  0  0  0  0  0  0
  -11.6249   -3.3823   -0.9757 C   0  0  0  0  0  0  0  0  0  0  0  0
   -4.3805   -3.8030    1.5854 C   0  0  0  0  0  0  0  0  0  0  0  0
    2.0614   -0.5525   -0.0001 C   0  0  0  0  0  0  0  0  0  0  0  0
    0.3431    2.4831    0.1223 C   0  0  0  0  0  0  0  0  0  0  0  0
   -0.5000    3.3811    0.0081 O   0  0  0  0  0  0  0  0  0  0  0  0
    1.6280    2.9702    0.3046 N   0  0  0  0  0  0  0  0  0  0  0  0
    2.8562    2.2575    0.1650 C   0  0  0  0  0  0  0  0  0  0  0  0
    3.6716    2.2730   -1.1310 C   0  0  0  0  0  0  0  0  0  0  0  0
    4.3789    3.5273   -1.1937 N   0  0  0  0  0  0  0  0  0  0  0  0
    3.6327    4.5566   -1.3628 C   0  0  0  0  0  0  0  0  0  0  0  0
    2.3125    4.6314   -1.6477 N   0  0  0  0  0  0  0  0  0  0  0  0
    4.1909    5.7521   -1.1822 N   0  0  0  0  0  0  0  0  0  0  0  0
   -2.2065    1.3592   -0.0215 H   0  0  0  0  0  0  0  0  0  0  0  0
    0.1424   -2.2569    0.0195 H   0  0  0  0  0  0  0  0  0  0  0  0
   -2.4755   -2.5778   -0.0905 H   0  0  0  0  0  0  0  0  0  0  0  0
   -6.8602   -4.6754    0.7633 H   0  0  0  0  0  0  0  0  0  0  0  0
   -6.3143   -1.1081   -1.6155 H   0  0  0  0  0  0  0  0  0  0  0  0
   -8.8462   -4.0760   -1.0602 H   0  0  0  0  0  0  0  0  0  0  0  0
   -9.7307   -2.3844   -5.0560 H   0  0  0  0  0  0  0  0  0  0  0  0
  -13.3804   -3.5934   -3.0866 H   0  0  0  0  0  0  0  0  0  0  0  0
  -13.4572   -3.4120   -5.8381 H   0  0  0  0  0  0  0  0  0  0  0  0
  -11.1731   -3.9851   -9.5759 H   0  0  0  0  0  0  0  0  0  0  0  0
  -15.1392   -2.5197  -10.4590 H   0  0  0  0  0  0  0  0  0  0  0  0
  -13.7974   -3.8198  -12.5021 H   0  0  0  0  0  0  0  0  0  0  0  0
  -10.7531   -6.1833  -15.2571 H   0  0  0  0  0  0  0  0  0  0  0  0
   -9.9626   -5.9707  -13.6105 H   0  0  0  0  0  0  0  0  0  0  0  0
  -15.1326   -2.5266   -6.9974 H   0  0  0  0  0  0  0  0  0  0  0  0
  -14.3466   -0.9606   -7.4076 H   0  0  0  0  0  0  0  0  0  0  0  0
  -15.7412   -1.5525   -8.3583 H   0  0  0  0  0  0  0  0  0  0  0  0
  -11.0125   -4.2218   -0.6391 H   0  0  0  0  0  0  0  0  0  0  0  0
  -11.3564   -2.4680   -0.4394 H   0  0  0  0  0  0  0  0  0  0  0  0
  -12.6787   -3.6159   -0.8001 H   0  0  0  0  0  0  0  0  0  0  0  0
   -3.4589   -4.1190    1.0909 H   0  0  0  0  0  0  0  0  0  0  0  0
   -4.1699   -3.0425    2.3427 H   0  0  0  0  0  0  0  0  0  0  0  0
   -4.8457   -4.6726    2.0577 H   0  0  0  0  0  0  0  0  0  0  0  0
    2.4651   -0.1822   -0.9533 H   0  0  0  0  0  0  0  0  0  0  0  0
    2.5494   -0.1702    0.9078 H   0  0  0  0  0  0  0  0  0  0  0  0
    2.2391   -1.6233    0.0049 H   0  0  0  0  0  0  0  0  0  0  0  0
    1.6975    3.9779    0.3950 H   0  0  0  0  0  0  0  0  0  0  0  0
    3.4289    2.2189    1.0923 H   0  0  0  0  0  0  0  0  0  0  0  0
    2.4065    1.3489    0.0375 H   0  0  0  0  0  0  0  0  0  0  0  0
    4.3923    1.4417   -1.0866 H   0  0  0  0  0  0  0  0  0  0  0  0
    3.0630    2.0686   -2.0241 H   0  0  0  0  0  0  0  0  0  0  0  0
    1.7720    5.3868   -1.2500 H   0  0  0  0  0  0  0  0  0  0  0  0
    1.7885    3.7602   -1.5935 H   0  0  0  0  0  0  0  0  0  0  0  0
    5.1998    5.7607   -1.1179 H   0  0  0  0  0  0  0  0  0  0  0  0
    3.6838    6.6095   -1.2955 H   0  0  0  0  0  0  0  0  0  0  0  0
  1  2  1  0  0  0  0
  1 49  1  0  0  0  0
  2  6  1  0  0  0  0
  2  3  2  0  0  0  0
  3  4  1  0  0  0  0
  3 50  1  0  0  0  0
  4 39  1  0  0  0  0
  4  5  1  0  0  0  0
  5 40  1  0  0  0  0
  5  1  2  0  0  0  0
  6  7  1  0  0  0  0
  6 51  1  0  0  0  0
  7  8  1  0  0  0  0
  7  9  2  0  0  0  0
  8 10  1  0  0  0  0
 10 11  1  0  0  0  0
 10 38  1  0  0  0  0
 11 12  2  0  0  0  0
 11 52  1  0  0  0  0
 12 13  1  0  0  0  0
 12 14  1  0  0  0  0
 13  8  2  0  0  0  0
 13 53  1  0  0  0  0
 14 15  1  0  0  0  0
 14 54  1  0  0  0  0
 15 16  1  0  0  0  0
 15 17  2  0  0  0  0
 16 18  2  0  0  0  0
 18 19  1  0  0  0  0
 18 55  1  0  0  0  0
 19 20  2  0  0  0  0
 19 22  1  0  0  0  0
 20 21  1  0  0  0  0
 20 56  1  0  0  0  0
 21 37  1  0  0  0  0
 21 16  1  0  0  0  0
 22 23  1  0  0  0  0
 22 57  1  0  0  0  0
 23 24  1  0  0  0  0
 23 25  2  0  0  0  0
 24 26  2  0  0  0  0
 26 27  1  0  0  0  0
 26 58  1  0  0  0  0
 27 28  2  0  0  0  0
 27 30  1  0  0  0  0
 28 29  1  0  0  0  0
 28 59  1  0  0  0  0
 29 24  1  0  0  0  0
 29 36  1  0  0  0  0
 30 31  1  0  0  0  0
 30 60  1  0  0  0  0
 31 32  1  0  0  0  0
 31 33  2  0  0  0  0
 32 34  2  0  0  0  0
 32 35  1  0  0  0  0
 34 61  1  0  0  0  0
 34 62  1  0  0  0  0
 36 63  1  0  0  0  0
 36 64  1  0  0  0  0
 36 65  1  0  0  0  0
 37 66  1  0  0  0  0
 37 67  1  0  0  0  0
 37 68  1  0  0  0  0
 38 69  1  0  0  0  0
 38 70  1  0  0  0  0
 38 71  1  0  0  0  0
 39 72  1  0  0  0  0
 39 73  1  0  0  0  0
 39 74  1  0  0  0  0
 40 41  2  0  0  0  0
 40 42  1  0  0  0  0
 42 43  1  0  0  0  0
 42 75  1  0  0  0  0
 43 44  1  0  0  0  0
 43 76  1  0  0  0  0
 43 77  1  0  0  0  0
 44 45  1  0  0  0  0
 44 78  1  0  0  0  0
 44 79  1  0  0  0  0
 45 46  2  0  0  0  0
 46 47  1  0  0  0  0
 46 48  1  0  0  0  0
 47 80  1  0  0  0  0
 47 81  1  0  0  0  0
 48 82  1  0  0  0  0
 48 83  1  0  0  0  0
M  END
>  <DRUGBANK_ID>
DB06598

>  <COMMON_NAME>
Brostallicin

>  <CAS_NUMBER>
203258-60-0

>  <UNII>
RPC6R41K4I

>  <SYNONYMS>
Brostalicina; Brostallicin; Brostallicine; Brostallicinum

$$$$
