
 OpenBabel10282417113D

 65 67  0  0  0  0  0  0  0  0999 V2000
    0.7112    0.2169    0.9365 C   0  0  0  0  0  0  0  0  0  0  0  0
    0.7542    1.7802   -1.2368 C   0  0  0  0  0  0  0  0  0  0  0  0
   -1.0990   -0.6961   -0.5977 C   0  0  0  0  0  0  0  0  0  0  0  0
    0.1358   -0.8077    0.1231 O   0  0  0  0  0  0  0  0  0  0  0  0
   -0.7209    1.6180   -1.0419 O   0  0  0  0  0  0  0  0  0  0  0  0
   -1.6393    0.5308   -0.8819 C   0  0  0  0  0  0  0  0  0  0  0  0
   -1.7970   -1.8385   -0.9524 C   0  0  0  0  0  0  0  0  0  0  0  0
   -3.1401   -1.7419   -1.3743 C   0  0  0  0  0  0  0  0  0  0  0  0
    0.1266    0.7678    2.0697 C   0  0  0  0  0  0  0  0  0  0  0  0
    1.8130    0.4259   -1.4253 C   0  0  0  0  0  0  0  0  0  0  0  0
   -1.8112   -3.6135   -3.3482 N   0  0  0  0  0  0  0  0  0  0  0  0
    1.5456    1.0300    0.7048 O   0  0  0  0  0  0  0  0  0  0  0  0
    1.1608    2.9343   -1.0906 O   0  0  0  0  0  0  0  0  0  0  0  0
   -3.0333    0.6451   -1.0156 C   0  0  0  0  0  0  0  0  0  0  0  0
   -3.7951   -0.5150   -1.2296 C   0  0  0  0  0  0  0  0  0  0  0  0
   -1.2162   -3.9203   -4.6543 C   0  0  0  0  0  0  0  0  0  0  0  0
   -3.2389   -3.2139   -3.4174 C   0  0  0  0  0  0  0  0  0  0  0  0
   -3.8553   -2.9018   -2.0329 C   0  0  3  0  0  0  0  0  0  0  0  0
    0.5937    2.1241    2.2882 C   0  0  0  0  0  0  0  0  0  0  0  0
    1.3316   -0.4541   -2.3374 C   0  0  0  0  0  0  0  0  0  0  0  0
    2.8933   -0.1874   -0.3974 C   0  0  0  0  0  0  0  0  0  0  0  0
   -1.0875    0.2093    2.2590 C   0  0  0  0  0  0  0  0  0  0  0  0
    3.3624   -1.4636   -0.3222 C   0  0  0  0  0  0  0  0  0  0  0  0
   -2.0011    1.1394    2.5678 C   0  0  0  0  0  0  0  0  0  0  0  0
   -0.3405    3.0293    2.5569 C   0  0  0  0  0  0  0  0  0  0  0  0
    1.8728   -1.7377   -2.2454 C   0  0  0  0  0  0  0  0  0  0  0  0
    2.8464   -2.2260   -1.3097 C   0  0  0  0  0  0  0  0  0  0  0  0
   -1.5817    2.4763    2.8144 C   0  0  0  0  0  0  0  0  0  0  0  0
   -3.7928   -4.0407   -1.1875 O   0  0  0  0  0  0  0  0  0  0  0  0
   -1.2433   -2.6713   -5.5484 C   0  0  0  0  0  0  0  0  0  0  0  0
    0.2392   -4.3345   -4.4251 C   0  0  0  0  0  0  0  0  0  0  0  0
   -1.9309   -5.1027   -5.2864 C   0  0  0  0  0  0  0  0  0  0  0  0
   -2.4126    3.2556    3.7327 C   0  0  0  0  0  0  0  0  0  0  0  0
    3.4629   -3.5621   -1.4163 C   0  0  0  0  0  0  0  0  0  0  0  0
   -1.2748   -2.7911   -0.9501 H   0  0  0  0  0  0  0  0  0  0  0  0
   -1.2856   -2.8145   -2.9940 H   0  0  0  0  0  0  0  0  0  0  0  0
   -3.5505    1.5987   -0.9407 H   0  0  0  0  0  0  0  0  0  0  0  0
   -4.8813   -0.4689   -1.3347 H   0  0  0  0  0  0  0  0  0  0  0  0
   -3.8283   -4.0242   -3.8543 H   0  0  0  0  0  0  0  0  0  0  0  0
   -3.3553   -2.3221   -4.0424 H   0  0  0  0  0  0  0  0  0  0  0  0
   -4.9153   -2.6660   -2.1998 H   0  0  0  0  0  0  0  0  0  0  0  0
    1.5435    2.5527    1.9112 H   0  0  0  0  0  0  0  0  0  0  0  0
    0.4446   -0.2328   -2.9286 H   0  0  0  0  0  0  0  0  0  0  0  0
    3.0821    0.1162    0.6694 H   0  0  0  0  0  0  0  0  0  0  0  0
   -1.3250   -0.7933    1.9106 H   0  0  0  0  0  0  0  0  0  0  0  0
    4.0287   -1.8021    0.4831 H   0  0  0  0  0  0  0  0  0  0  0  0
   -3.0267    0.8158    2.6223 H   0  0  0  0  0  0  0  0  0  0  0  0
   -0.0506    4.0715    2.5885 H   0  0  0  0  0  0  0  0  0  0  0  0
    1.4908   -2.4382   -2.9399 H   0  0  0  0  0  0  0  0  0  0  0  0
   -2.8608   -4.3225   -1.2158 H   0  0  0  0  0  0  0  0  0  0  0  0
   -0.7323   -1.8240   -5.0700 H   0  0  0  0  0  0  0  0  0  0  0  0
   -0.7555   -2.8668   -6.5055 H   0  0  0  0  0  0  0  0  0  0  0  0
   -2.2648   -2.3523   -5.7745 H   0  0  0  0  0  0  0  0  0  0  0  0
    0.3435   -5.1689   -3.7232 H   0  0  0  0  0  0  0  0  0  0  0  0
    0.7476   -4.5809   -5.3600 H   0  0  0  0  0  0  0  0  0  0  0  0
    0.7966   -3.5108   -4.0271 H   0  0  0  0  0  0  0  0  0  0  0  0
   -1.8960   -5.9699   -4.6151 H   0  0  0  0  0  0  0  0  0  0  0  0
   -2.9769   -4.8778   -5.5020 H   0  0  0  0  0  0  0  0  0  0  0  0
   -1.4567   -5.3723   -6.2319 H   0  0  0  0  0  0  0  0  0  0  0  0
   -3.3726    3.3945    3.2591 H   0  0  0  0  0  0  0  0  0  0  0  0
   -2.4431    2.6471    4.6423 H   0  0  0  0  0  0  0  0  0  0  0  0
   -1.8987    4.1911    3.9548 H   0  0  0  0  0  0  0  0  0  0  0  0
    4.5326   -3.3682   -1.5598 H   0  0  0  0  0  0  0  0  0  0  0  0
    3.3089   -4.1306   -0.4941 H   0  0  0  0  0  0  0  0  0  0  0  0
    3.0461   -4.0717   -2.2769 H   0  0  0  0  0  0  0  0  0  0  0  0
  2  5  1  0  0  0  0
  3  4  1  0  0  0  0
  4  1  1  0  0  0  0
  5  6  1  0  0  0  0
  6  3  2  0  0  0  0
  7  3  1  0  0  0  0
  7 35  1  0  0  0  0
  8  7  2  0  0  0  0
  9  1  1  0  0  0  0
 10  2  1  0  0  0  0
 11 17  1  0  0  0  0
 11 36  1  0  0  0  0
 12  1  2  0  0  0  0
 13  2  2  0  0  0  0
 14  6  1  0  0  0  0
 14 15  2  0  0  0  0
 14 37  1  0  0  0  0
 15  8  1  0  0  0  0
 15 38  1  0  0  0  0
 16 11  1  0  0  0  0
 17 18  1  0  0  0  0
 17 39  1  0  0  0  0
 17 40  1  0  0  0  0
 18  8  1  0  0  0  0
 18 41  1  0  0  0  0
 19  9  2  0  0  0  0
 19 42  1  0  0  0  0
 20 10  2  0  0  0  0
 20 43  1  0  0  0  0
 21 10  1  0  0  0  0
 21 44  1  0  0  0  0
 22  9  1  0  0  0  0
 22 45  1  0  0  0  0
 23 21  2  0  0  0  0
 23 46  1  0  0  0  0
 24 22  2  0  0  0  0
 24 28  1  0  0  0  0
 24 47  1  0  0  0  0
 25 19  1  0  0  0  0
 25 48  1  0  0  0  0
 26 20  1  0  0  0  0
 26 27  2  0  0  0  0
 26 49  1  0  0  0  0
 27 23  1  0  0  0  0
 28 25  2  0  0  0  0
 29 18  1  0  0  0  0
 29 50  1  0  0  0  0
 30 16  1  0  0  0  0
 30 51  1  0  0  0  0
 30 52  1  0  0  0  0
 30 53  1  0  0  0  0
 31 16  1  0  0  0  0
 31 54  1  0  0  0  0
 31 55  1  0  0  0  0
 31 56  1  0  0  0  0
 32 16  1  0  0  0  0
 32 57  1  0  0  0  0
 32 58  1  0  0  0  0
 32 59  1  0  0  0  0
 33 28  1  0  0  0  0
 33 60  1  0  0  0  0
 33 61  1  0  0  0  0
 33 62  1  0  0  0  0
 34 27  1  0  0  0  0
 34 63  1  0  0  0  0
 34 64  1  0  0  0  0
 34 65  1  0  0  0  0
M  END
>  <DRUGBANK_ID>
DB00901

>  <SECONDARY_ACCESSION_NUMBERS>
APRD00827

>  <COMMON_NAME>
Bitolterol

>  <CAS_NUMBER>
30392-40-6

>  <UNII>
9KY0QXD6LI

>  <SYNONYMS>
4-(2-(tert-butylamino)-1-hydroxyethyl)-o-phenylene di-p-toluate; 4-[2-(tert-butylamino)-1-hydroxyethyl]-o-phenylene di-p-toluate; bis(4-methylbenzoic acid) 4-[2-(tert-butylamino)-1-hydroxyethyl]-1,2-phenylene ester; Bitolterol; Bitolt√©rol; Bitolterolum

$$$$
