
 OpenBabel10282417163D

 64 65  0  0  0  0  0  0  0  0999 V2000
    2.6373    2.7874   -0.0183 O   0  0  0  0  0  0  0  0  0  0  0  0
    3.3032    0.8607   -3.6553 O   0  0  0  0  0  0  0  0  0  0  0  0
   -0.1413   -1.9984    0.2176 O   0  0  0  0  0  0  0  0  0  0  0  0
   -1.5143   -0.1250    1.3818 O   0  0  0  0  0  0  0  0  0  0  0  0
    0.8759    3.7411    0.7995 O   0  0  0  0  0  0  0  0  0  0  0  0
    3.8412    0.5182   -1.3668 N   0  0  0  0  0  0  0  0  0  0  0  0
    1.3158    1.2271    1.1913 N   0  0  0  0  0  0  0  0  0  0  0  0
    1.8231    2.6304   -1.0749 N   0  0  0  0  0  0  0  0  0  0  0  0
   -1.6145   -1.3300    5.0483 N   0  0  0  0  0  0  0  0  0  0  0  0
    3.5541    0.5497    0.0792 C   0  0  1  0  0  0  0  0  0  0  0  0
    4.8883    0.9395    0.6528 C   0  0  0  0  0  0  0  0  0  0  0  0
    5.8878    0.0593   -0.1566 C   0  0  0  0  0  0  0  0  0  0  0  0
    5.2412   -0.0252   -1.5417 C   0  0  0  0  0  0  0  0  0  0  0  0
    2.4981    1.5951    0.3991 C   0  0  0  0  0  0  0  0  0  0  0  0
    2.9318    0.9387   -2.4424 C   0  0  0  0  0  0  0  0  0  0  0  0
    1.5981    1.5527   -2.0490 C   0  0  1  0  0  0  0  0  0  0  0  0
    1.1547   -0.1520    1.6742 C   0  0  1  0  0  0  0  0  0  0  0  0
    0.7124    0.4850   -1.4279 C   0  0  0  0  0  0  0  0  0  0  0  0
    1.0858   -0.1524    3.1926 C   0  0  0  0  0  0  0  0  0  0  0  0
   -0.0990    0.6848    3.6462 C   0  0  0  0  0  0  0  0  0  0  0  0
   -0.6213    1.0990   -1.0345 C   0  0  0  0  0  0  0  0  0  0  0  0
   -1.3813    0.0964    3.0806 C   0  0  0  0  0  0  0  0  0  0  0  0
    0.7828    2.8008   -0.0504 C   0  0  0  0  0  0  0  0  0  0  0  0
   -1.5478   -1.3296    3.5799 C   0  0  0  0  0  0  0  0  0  0  0  0
   -1.6244    0.3145   -0.6582 C   0  0  0  0  0  0  0  0  0  0  0  0
   -0.7604    2.4767   -1.0685 C   0  0  0  0  0  0  0  0  0  0  0  0
   -0.4043    1.8524   -0.0077 C   0  0  0  0  0  0  0  0  0  0  0  0
   -2.7792    0.8536   -0.1448 C   0  0  0  0  0  0  0  0  0  0  0  0
   -1.9161    2.9528   -0.4055 C   0  0  0  0  0  0  0  0  0  0  0  0
   -2.9609    2.2078   -0.0934 C   0  0  0  0  0  0  0  0  0  0  0  0
   -0.1951   -0.7714    1.0788 B   0  0  0  0  0  0  0  0  0  0  0  0
    0.8086   -2.2949    0.1189 H   0  0  0  0  0  0  0  0  0  0  0  0
   -2.2472   -0.6373    0.9341 H   0  0  0  0  0  0  0  0  0  0  0  0
    0.6071    1.9286    1.4060 H   0  0  0  0  0  0  0  0  0  0  0  0
    2.6197    3.2668   -1.1036 H   0  0  0  0  0  0  0  0  0  0  0  0
   -1.7262   -2.2869    5.3834 H   0  0  0  0  0  0  0  0  0  0  0  0
   -0.7540   -0.9352    5.4279 H   0  0  0  0  0  0  0  0  0  0  0  0
    3.1690   -0.3707    0.4658 H   0  0  0  0  0  0  0  0  0  0  0  0
    5.0908    1.9873    0.5756 H   0  0  0  0  0  0  0  0  0  0  0  0
    4.9378    0.7158    1.6979 H   0  0  0  0  0  0  0  0  0  0  0  0
    6.8779    0.4645   -0.1808 H   0  0  0  0  0  0  0  0  0  0  0  0
    5.9845   -0.9122    0.2812 H   0  0  0  0  0  0  0  0  0  0  0  0
    5.7936    0.5277   -2.2724 H   0  0  0  0  0  0  0  0  0  0  0  0
    5.2090   -1.0404   -1.8782 H   0  0  0  0  0  0  0  0  0  0  0  0
    1.1191    1.9521   -2.9184 H   0  0  0  0  0  0  0  0  0  0  0  0
    1.9888   -0.7414    1.3548 H   0  0  0  0  0  0  0  0  0  0  0  0
    0.5486   -0.2994   -2.1369 H   0  0  0  0  0  0  0  0  0  0  0  0
    1.1915    0.0856   -0.5585 H   0  0  0  0  0  0  0  0  0  0  0  0
    0.9686   -1.1562    3.5440 H   0  0  0  0  0  0  0  0  0  0  0  0
    1.9885    0.2618    3.5907 H   0  0  0  0  0  0  0  0  0  0  0  0
   -0.1476    0.6845    4.7151 H   0  0  0  0  0  0  0  0  0  0  0  0
    0.0182    1.6886    3.2948 H   0  0  0  0  0  0  0  0  0  0  0  0
   -2.2154    0.6858    3.3999 H   0  0  0  0  0  0  0  0  0  0  0  0
   -1.3328    0.0967    2.0117 H   0  0  0  0  0  0  0  0  0  0  0  0
   -2.4505   -1.7438    3.1817 H   0  0  0  0  0  0  0  0  0  0  0  0
   -0.7138   -1.9189    3.2605 H   0  0  0  0  0  0  0  0  0  0  0  0
   -1.5325   -0.7471   -0.7557 H   0  0  0  0  0  0  0  0  0  0  0  0
   -0.0576    3.1224   -1.5524 H   0  0  0  0  0  0  0  0  0  0  0  0
   -0.9400    1.9096   -0.9321 H   0  0  0  0  0  0  0  0  0  0  0  0
   -0.0561    0.8517    0.1414 H   0  0  0  0  0  0  0  0  0  0  0  0
   -1.0524    2.1283    0.7978 H   0  0  0  0  0  0  0  0  0  0  0  0
   -3.5475    0.2043    0.2201 H   0  0  0  0  0  0  0  0  0  0  0  0
   -1.9456    3.9885   -0.1383 H   0  0  0  0  0  0  0  0  0  0  0  0
   -3.8991    2.6406    0.1847 H   0  0  0  0  0  0  0  0  0  0  0  0
  1 14  2  0  0  0  0
  2 15  2  0  0  0  0
  3 31  1  0  0  0  0
  3 32  1  0  0  0  0
  4 31  1  0  0  0  0
  4 33  1  0  0  0  0
  5 23  2  0  0  0  0
  6 10  1  0  0  0  0
  6 13  1  0  0  0  0
  6 15  1  0  0  0  0
  7 14  1  0  0  0  0
  7 34  1  0  0  0  0
  8 23  1  0  0  0  0
  8 35  1  0  0  0  0
  9 24  1  0  0  0  0
  9 36  1  0  0  0  0
  9 37  1  0  0  0  0
 10 11  1  0  0  0  0
 10 14  1  0  0  0  0
 10 38  1  1  0  0  0
 11 12  1  0  0  0  0
 11 39  1  0  0  0  0
 11 40  1  0  0  0  0
 12 13  1  0  0  0  0
 12 41  1  0  0  0  0
 12 42  1  0  0  0  0
 13 43  1  0  0  0  0
 13 44  1  0  0  0  0
 16 18  1  0  0  0  0
 16 45  1  6  0  0  0
 16 15  1  0  0  0  0
 16  8  1  0  0  0  0
 17  7  1  0  0  0  0
 17 19  1  0  0  0  0
 17 31  1  0  0  0  0
 17 46  1  6  0  0  0
 18 21  1  0  0  0  0
 18 47  1  0  0  0  0
 18 48  1  0  0  0  0
 19 20  1  0  0  0  0
 19 49  1  0  0  0  0
 19 50  1  0  0  0  0
 20 22  1  0  0  0  0
 20 51  1  0  0  0  0
 20 52  1  0  0  0  0
 21 25  2  0  0  0  0
 21 26  1  0  0  0  0
 22 24  1  0  0  0  0
 22 53  1  0  0  0  0
 22 54  1  0  0  0  0
 23 27  1  0  0  0  0
 24 55  1  0  0  0  0
 24 56  1  0  0  0  0
 25 28  1  0  0  0  0
 25 57  1  0  0  0  0
 26 29  2  0  0  0  0
 26 58  1  0  0  0  0
 27 59  1  0  0  0  0
 27 60  1  0  0  0  0
 27 61  1  0  0  0  0
 28 30  2  0  0  0  0
 28 62  1  0  0  0  0
 29 30  1  0  0  0  0
 29 63  1  0  0  0  0
 30 64  1  0  0  0  0
M  END
>  <DRUGBANK_ID>
DB07658

>  <COMMON_NAME>
AC-(D)Phe-pro-borolys-OH

$$$$
