
 OpenBabel10282417103D

 20 19  0  0  1  0  0  0  0  0999 V2000
    0.8771    0.1902    0.0374 N   0  0  0  0  0  0  0  0  0  0  0  0
    0.1935    0.9020    0.9772 C   0  0  0  0  0  0  0  0  0  0  0  0
    3.9486    1.0983    1.2632 C   0  0  0  0  0  0  0  0  0  0  0  0
    3.3014    1.8116    0.3182 O   0  0  0  0  0  0  0  0  0  0  0  0
    3.0287    0.1527    2.0668 C   0  0  2  0  0  0  0  0  0  0  0  0
    1.9469    0.9106    2.8467 C   0  0  0  0  0  0  0  0  0  0  0  0
    0.9924    1.7336    1.9707 C   0  0  0  0  0  0  0  0  0  0  0  0
    5.1604    1.2190    1.3963 O   0  0  0  0  0  0  0  0  0  0  0  0
    3.8283   -0.6930    2.9748 N   0  0  0  0  0  0  0  0  0  0  0  0
   -1.0322    0.8566    0.9984 O   0  0  0  0  0  0  0  0  0  0  0  0
    0.3497   -0.4073   -0.5851 H   0  0  0  0  0  0  0  0  0  0  0  0
    1.8528    0.3396   -0.1861 H   0  0  0  0  0  0  0  0  0  0  0  0
    3.9391    2.4812   -0.0145 H   0  0  0  0  0  0  0  0  0  0  0  0
    2.5850   -0.5763    1.3917 H   0  0  0  0  0  0  0  0  0  0  0  0
    2.4212    1.5815    3.5769 H   0  0  0  0  0  0  0  0  0  0  0  0
    1.3467    0.1974    3.4291 H   0  0  0  0  0  0  0  0  0  0  0  0
    1.5049    2.5488    1.4538 H   0  0  0  0  0  0  0  0  0  0  0  0
    0.2743    2.2419    2.6267 H   0  0  0  0  0  0  0  0  0  0  0  0
    4.5073   -1.1977    2.3996 H   0  0  0  0  0  0  0  0  0  0  0  0
    4.3896   -0.0938    3.5786 H   0  0  0  0  0  0  0  0  0  0  0  0
  1  2  1  0  0  0  0
  1 11  1  0  0  0  0
  1 12  1  0  0  0  0
  3  8  2  0  0  0  0
  4  3  1  0  0  0  0
  4 13  1  0  0  0  0
  5  3  1  0  0  0  0
  5  9  1  0  0  0  0
  5 14  1  6  0  0  0
  6  5  1  0  0  0  0
  6 15  1  0  0  0  0
  6 16  1  0  0  0  0
  7  2  1  0  0  0  0
  7  6  1  0  0  0  0
  7 17  1  0  0  0  0
  7 18  1  0  0  0  0
  9 19  1  0  0  0  0
  9 20  1  0  0  0  0
 10  2  2  0  0  0  0
M  END
>  <DRUGBANK_ID>
DB00130

>  <SECONDARY_ACCESSION_NUMBERS>
NUTR00026

>  <COMMON_NAME>
L-Glutamine

>  <CAS_NUMBER>
56-85-9

>  <UNII>
0RH81L854J

>  <SYNONYMS>
(2S)-2-amino-4-carbamoylbutanoic acid; (2S)-2,5-diamino-5-oxopentanoic acid; (S)-2,5-diamino-5-oxopentanoic acid; Glutamic acid 5-amide; Glutamic acid amide; Glutamina; Glutamine; L-(+)-glutamine; L-2-aminoglutaramic acid; L-glutamic acid γ-amide; L-Glutamin; L-Glutamine; L-Glutaminsäure-5-amid; Levoglutamide; Q

$$$$
