
 OpenBabel10282417123D

 17 16  0  0  1  0  0  0  0  0999 V2000
    0.9211    0.0484   -0.0378 N   0  0  0  0  0  0  0  0  0  0  0  0
    0.4311    1.1311    0.8273 C   0  0  1  0  0  0  0  0  0  0  0  0
    0.9377    2.4656    0.3051 C   0  0  0  0  0  0  0  0  0  0  0  0
    0.3344    2.7216   -1.3821 S   0  0  0  0  0  0  0  0  0  0  0  0
    1.0811    1.0718   -2.7004 As  0  0  0  0  0  0  0  0  0  0  0  0
    0.4644   -0.5525   -2.0648 O   0  0  0  0  0  0  0  0  0  0  0  0
   -1.0889    1.1311    0.8273 C   0  0  0  0  0  0  0  0  0  0  0  0
   -1.7989    0.9466    2.0432 O   0  0  0  0  0  0  0  0  0  0  0  0
   -1.7244    1.2962   -0.2608 O   0  0  0  0  0  0  0  0  0  0  0  0
    0.5811    0.1926   -0.9886 H   0  0  0  0  0  0  0  0  0  0  0  0
    1.9411    0.0484   -0.0378 H   0  0  0  0  0  0  0  0  0  0  0  0
    0.7877    0.9797    1.8247 H   0  0  0  0  0  0  0  0  0  0  0  0
    0.5811    3.2537    0.9349 H   0  0  0  0  0  0  0  0  0  0  0  0
    2.0077    2.4656    0.3051 H   0  0  0  0  0  0  0  0  0  0  0  0
    0.5811    1.2839   -4.0986 H   0  0  0  0  0  0  0  0  0  0  0  0
    0.7977   -0.6939   -1.1327 H   0  0  0  0  0  0  0  0  0  0  0  0
   -1.2989    0.8167    2.8994 H   0  0  0  0  0  0  0  0  0  0  0  0
  1 10  1  0  0  0  0
  1 11  1  0  0  0  0
  2  1  1  0  0  0  0
  2  3  1  0  0  0  0
  2  7  1  0  0  0  0
  2 12  1  1  0  0  0
  3  4  1  0  0  0  0
  3 13  1  0  0  0  0
  3 14  1  0  0  0  0
  4  5  1  0  0  0  0
  5  6  1  0  0  0  0
  5 15  1  0  0  0  0
  6 16  1  0  0  0  0
  7  8  1  0  0  0  0
  7  9  2  0  0  0  0
  8 17  1  0  0  0  0
M  END
>  <DRUGBANK_ID>
DB01808

>  <SECONDARY_ACCESSION_NUMBERS>
EXPT01089

>  <COMMON_NAME>
Thiarsahydroxy-Cysteine

$$$$
