PF8
 OpenBabel10282417173D

 47 51  0  0  0  0  0  0  0  0999 V2000
    1.3639   -0.2103    0.0256 C   0  0  0  0  0  0  0  0  0  0  0  0
    2.1371   -4.4927    0.5279 C   0  0  0  0  0  0  0  0  0  0  0  0
   -1.3683    0.1983   -0.0316 C   0  0  0  0  0  0  0  0  0  0  0  0
   -3.0901    2.4038   -0.8320 C   0  0  0  0  0  0  0  0  0  0  0  0
   -0.8611   -1.0746   -0.0097 C   0  0  0  0  0  0  0  0  0  0  0  0
   -0.5090    1.2694    0.0745 C   0  0  0  0  0  0  0  0  0  0  0  0
   -2.4226    2.6711    0.5168 C   0  0  0  0  0  0  0  0  0  0  0  0
   -0.5775    5.7539   -3.7559 C   0  0  0  0  0  0  0  0  0  0  0  0
   -1.8524    4.8102   -5.5480 C   0  0  0  0  0  0  0  0  0  0  0  0
   -0.8295    5.6927   -5.4185 C   0  0  0  0  0  0  0  0  0  0  0  0
   -1.3601    4.6317   -2.4730 C   0  0  0  0  0  0  0  0  0  0  0  0
   -2.4558    3.2164   -1.4561 N   0  0  0  0  0  0  0  0  0  0  0  0
   -2.2387    4.0705   -4.5122 C   0  0  0  0  0  0  0  0  0  0  0  0
   -1.6708    4.7029   -3.5572 C   0  0  0  0  0  0  0  0  0  0  0  0
   -1.7768    4.2702   -2.4368 C   0  0  0  0  0  0  0  0  0  0  0  0
   -2.9484    2.8778   -2.0394 C   0  0  0  0  0  0  0  0  0  0  0  0
   -0.9756    2.5155    0.3766 O   0  0  0  0  0  0  0  0  0  0  0  0
    0.8654    1.0822   -0.0553 C   0  0  0  0  0  0  0  0  0  0  0  0
    0.5031   -1.2995   -0.0118 C   0  0  0  0  0  0  0  0  0  0  0  0
    1.0391   -2.6561   -0.0445 C   0  0  0  0  0  0  0  0  0  0  0  0
    1.8883   -3.2083    0.9514 C   0  0  0  0  0  0  0  0  0  0  0  0
    1.4814   -4.6560   -0.6587 N   0  0  0  0  0  0  0  0  0  0  0  0
    0.8031   -3.5425   -1.0375 N   0  0  0  0  0  0  0  0  0  0  0  0
    2.3763   -2.6229    2.1984 C   0  0  0  0  0  0  0  0  0  0  0  0
    3.7297   -2.4357    2.4668 C   0  0  0  0  0  0  0  0  0  0  0  0
    4.1149   -1.9439    3.7060 C   0  0  0  0  0  0  0  0  0  0  0  0
    3.2454   -1.6358    4.6889 N   0  0  0  0  0  0  0  0  0  0  0  0
    1.9391   -1.8165    4.4061 C   0  0  0  0  0  0  0  0  0  0  0  0
    1.4686   -2.2755    3.1899 C   0  0  0  0  0  0  0  0  0  0  0  0
    2.4193   -0.4005    0.1345 H   0  0  0  0  0  0  0  0  0  0  0  0
    2.7244   -5.2623    0.9993 H   0  0  0  0  0  0  0  0  0  0  0  0
   -2.4284    0.3542   -0.1426 H   0  0  0  0  0  0  0  0  0  0  0  0
   -1.5368   -1.9038    0.0313 H   0  0  0  0  0  0  0  0  0  0  0  0
   -2.7860    2.0789    1.3506 H   0  0  0  0  0  0  0  0  0  0  0  0
   -2.6168    3.7345    0.7529 H   0  0  0  0  0  0  0  0  0  0  0  0
    0.1683    6.8320   -4.1283 H   0  0  0  0  0  0  0  0  0  0  0  0
   -2.4414    4.6040   -6.3760 H   0  0  0  0  0  0  0  0  0  0  0  0
   -0.4070    6.0939   -6.4312 H   0  0  0  0  0  0  0  0  0  0  0  0
   -2.7987    3.2349   -4.3868 H   0  0  0  0  0  0  0  0  0  0  0  0
   -1.2834    4.3408   -0.9333 H   0  0  0  0  0  0  0  0  0  0  0  0
   -3.4534    2.6046   -2.9969 H   0  0  0  0  0  0  0  0  0  0  0  0
    1.5420    1.9163   -0.2197 H   0  0  0  0  0  0  0  0  0  0  0  0
    1.4691   -5.5009   -1.2345 H   0  0  0  0  0  0  0  0  0  0  0  0
    4.4853   -2.6772    1.7366 H   0  0  0  0  0  0  0  0  0  0  0  0
    5.1694   -1.7988    3.9249 H   0  0  0  0  0  0  0  0  0  0  0  0
    1.2317   -1.5901    5.1957 H   0  0  0  0  0  0  0  0  0  0  0  0
    0.4060   -2.3815    3.0343 H   0  0  0  0  0  0  0  0  0  0  0  0
  1 19  1  0  0  0  0
  1 30  1  0  0  0  0
  2 22  1  0  0  0  0
  2 31  1  0  0  0  0
  3  5  1  0  0  0  0
  3 32  1  0  0  0  0
  4  7  1  0  0  0  0
  5 19  2  0  0  0  0
  5 33  1  0  0  0  0
  6  3  2  0  0  0  0
  6 18  1  0  0  0  0
  7 17  1  0  0  0  0
  7 34  1  0  0  0  0
  7 35  1  0  0  0  0
  8 11  1  0  0  0  0
  8 36  1  0  0  0  0
  9 13  2  0  0  0  0
  9 10  1  0  0  0  0
  9 37  1  0  0  0  0
 10  8  2  0  0  0  0
 10 38  1  0  0  0  0
 11 12  2  0  0  0  0
 12  4  1  0  0  0  0
 13 14  1  0  0  0  0
 13 39  1  0  0  0  0
 14 11  1  0  0  0  0
 14 15  2  0  0  0  0
 15 16  1  0  0  0  0
 15 40  1  0  0  0  0
 16  4  2  0  0  0  0
 16 41  1  0  0  0  0
 17  6  1  0  0  0  0
 18  1  2  0  0  0  0
 18 42  1  0  0  0  0
 19 20  1  0  0  0  0
 20 21  1  0  0  0  0
 20 23  2  0  0  0  0
 21  2  2  0  0  0  0
 22 43  1  0  0  0  0
 23 22  1  0  0  0  0
 24 21  1  0  0  0  0
 24 29  1  0  0  0  0
 25 24  2  0  0  0  0
 25 44  1  0  0  0  0
 26 25  1  0  0  0  0
 26 27  2  0  0  0  0
 26 45  1  0  0  0  0
 27 28  1  0  0  0  0
 28 29  2  0  0  0  0
 28 46  1  0  0  0  0
 29 47  1  0  0  0  0
M  END
>  <DRUGBANK_ID>
DB08386

>  <COMMON_NAME>
2-{[4-(4-pyridin-4-yl-1H-pyrazol-3-yl)phenoxy]methyl}quinoline

$$$$
