
 OpenBabel10282417213D

  6  4  0  0  0  0  0  0  0  0999 V2000
    0.9366   -0.0679    0.0369 O   0  5  0  0  0  0  0  0  0  0  0  0
    2.6466   -0.0679    0.0369 S   0  0  0  0  0  0  0  0  0  0  0  0
    3.1567    1.2255   -0.6027 O   0  0  0  0  0  0  0  0  0  0  0  0
    3.1567   -0.1607    1.4769 O   0  0  0  0  0  0  0  0  0  0  0  0
    3.2165   -1.4094   -0.8573 O   0  5  0  0  0  0  0  0  0  0  0  0
    1.0499    0.0402   -0.0767 Cr  0  2  0  0  0  0  0  0  0  0  0  0
  1  2  1  0  0  0  0
  2  3  2  0  0  0  0
  2  4  2  0  0  0  0
  2  5  1  0  0  0  0
M  CHG  3   1  -1   5  -1   6   2
M  END
>  <DRUGBANK_ID>
DB14530

>  <SECONDARY_ACCESSION_NUMBERS>
DBSALT002355

>  <COMMON_NAME>
Chromous sulfate

>  <CAS_NUMBER>
13825-86-0

>  <UNII>
TR64E2WM7Z

$$$$
