I15
 OpenBabel10282417173D

 31 33  0  0  0  0  0  0  0  0999 V2000
   -0.2189   -0.7459    0.0054 C   0  0  0  0  0  0  0  0  0  0  0  0
    1.0250   -1.4298   -0.0015 C   0  0  0  0  0  0  0  0  0  0  0  0
   -0.2406    0.6496    0.0034 C   0  0  0  0  0  0  0  0  0  0  0  0
   -1.5973   -1.1159    0.0051 C   0  0  0  0  0  0  0  0  0  0  0  0
    1.0160   -2.8144   -0.0063 O   0  0  0  0  0  0  0  0  0  0  0  0
    2.1787   -0.6256   -0.0373 C   0  0  0  0  0  0  0  0  0  0  0  0
   -1.5657    0.9990    0.0016 N   0  0  0  0  0  0  0  0  0  0  0  0
    0.9137    1.4364    0.0041 C   0  0  0  0  0  0  0  0  0  0  0  0
   -2.4078   -0.0471    0.0020 N   0  0  0  0  0  0  0  0  0  0  0  0
   -2.1715   -2.4864    0.0028 C   0  0  0  0  0  0  0  0  0  0  0  0
    2.2032   -3.5070    0.0234 C   0  0  0  0  0  0  0  0  0  0  0  0
    2.1291    0.7618   -0.0099 C   0  0  0  0  0  0  0  0  0  0  0  0
    3.1002   -3.3977    1.0917 C   0  0  0  0  0  0  0  0  0  0  0  0
    2.4766   -4.3675   -1.0415 C   0  0  0  0  0  0  0  0  0  0  0  0
    4.3285   -4.0637    1.0408 C   0  0  0  0  0  0  0  0  0  0  0  0
    3.6876   -5.0673   -1.0755 C   0  0  0  0  0  0  0  0  0  0  0  0
    4.6193   -4.9020   -0.0421 C   0  0  0  0  0  0  0  0  0  0  0  0
    5.2968   -3.8711    2.0800 C   0  0  0  0  0  0  0  0  0  0  0  0
    3.9791   -5.9484   -2.1667 C   0  0  0  0  0  0  0  0  0  0  0  0
    4.2179   -6.6711   -3.0455 N   0  0  0  0  0  0  0  0  0  0  0  0
    3.4061   -1.1580   -0.1091 F   0  0  0  0  0  0  0  0  0  0  0  0
    6.0888   -3.7222    2.9171 N   0  0  0  0  0  0  0  0  0  0  0  0
   -1.9559    1.9362   -0.0007 H   0  0  0  0  0  0  0  0  0  0  0  0
    0.8831    2.5208    0.0036 H   0  0  0  0  0  0  0  0  0  0  0  0
   -2.7848   -2.6574    0.8929 H   0  0  0  0  0  0  0  0  0  0  0  0
   -2.7850   -2.6563   -0.8876 H   0  0  0  0  0  0  0  0  0  0  0  0
   -1.3856   -3.2447    0.0020 H   0  0  0  0  0  0  0  0  0  0  0  0
    3.0687    1.3065   -0.0094 H   0  0  0  0  0  0  0  0  0  0  0  0
    2.8767   -2.7243    1.9174 H   0  0  0  0  0  0  0  0  0  0  0  0
    1.7551   -4.4761   -1.8495 H   0  0  0  0  0  0  0  0  0  0  0  0
    5.5730   -5.4284   -0.0807 H   0  0  0  0  0  0  0  0  0  0  0  0
  1  2  1  0  0  0  0
  1  3  2  0  0  0  0
  1  4  1  0  0  0  0
  2  5  1  0  0  0  0
  2  6  2  0  0  0  0
  3  7  1  0  0  0  0
  3  8  1  0  0  0  0
  4  9  2  0  0  0  0
  4 10  1  0  0  0  0
  5 11  1  0  0  0  0
  6 12  1  0  0  0  0
  6 21  1  0  0  0  0
  7  9  1  0  0  0  0
  7 23  1  0  0  0  0
  8 12  2  0  0  0  0
  8 24  1  0  0  0  0
 10 25  1  0  0  0  0
 10 26  1  0  0  0  0
 10 27  1  0  0  0  0
 11 13  1  0  0  0  0
 11 14  2  0  0  0  0
 12 28  1  0  0  0  0
 13 15  2  0  0  0  0
 13 29  1  0  0  0  0
 14 16  1  0  0  0  0
 14 30  1  0  0  0  0
 15 17  1  0  0  0  0
 15 18  1  0  0  0  0
 16 17  2  0  0  0  0
 16 19  1  0  0  0  0
 17 31  1  0  0  0  0
 18 22  3  0  0  0  0
 19 20  3  0  0  0  0
M  END
>  <DRUGBANK_ID>
DB07935

>  <COMMON_NAME>
5-[(5-fluoro-3-methyl-1H-indazol-4-yl)oxy]benzene-1,3-dicarbonitrile

$$$$
