4575
 OpenBabel10282417143D

 59 63  0  0  1  0  0  0  0  0999 V2000
    1.1161   -0.0941   -0.2033 O   0  0  0  0  0  0  0  0  0  0  0  0
   -3.9710   -7.9750    5.0592 O   0  0  0  0  0  0  0  0  0  0  0  0
   -0.4537   -0.5072    2.0212 C   0  0  1  0  0  0  0  0  0  0  0  0
   -0.4206   -1.8299    2.6051 C   0  0  2  0  0  0  0  0  0  0  0  0
   -1.2776   -2.9390    3.0066 C   0  0  1  0  0  0  0  0  0  0  0  0
    0.5708   -1.3547    0.2179 C   0  0  2  0  0  0  0  0  0  0  0  0
   -2.8222   -2.7684    3.2246 C   0  0  2  0  0  0  0  0  0  0  0  0
   -2.2308   -0.2884    2.8826 C   0  0  0  0  0  0  0  0  0  0  0  0
    1.0590   -1.6467    2.6179 C   0  0  0  0  0  0  0  0  0  0  0  0
   -2.9679   -1.5134    4.0045 C   0  0  0  0  0  0  0  0  0  0  0  0
    1.4888   -2.0952    1.2853 C   0  0  0  0  0  0  0  0  0  0  0  0
   -1.2029   -3.8391    1.7998 C   0  0  0  0  0  0  0  0  0  0  0  0
   -0.2052   -0.2061    3.9252 C   0  0  0  0  0  0  0  0  0  0  0  0
   -3.2340   -4.1154    3.7339 C   0  0  0  0  0  0  0  0  0  0  0  0
   -1.2247   -5.1461    2.4163 C   0  0  0  0  0  0  0  0  0  0  0  0
   -2.4254   -5.1892    3.3184 C   0  0  0  0  0  0  0  0  0  0  0  0
   -0.9492   -1.3547    0.2179 C   0  0  0  0  0  0  0  0  0  0  0  0
   -4.3228   -4.3636    4.5660 C   0  0  0  0  0  0  0  0  0  0  0  0
   -2.6282   -6.4134    3.8433 C   0  0  0  0  0  0  0  0  0  0  0  0
   -4.5679   -5.6722    5.0011 C   0  0  0  0  0  0  0  0  0  0  0  0
   -3.7108   -6.7053    4.6360 C   0  0  0  0  0  0  0  0  0  0  0  0
   -2.2531   -1.3547    0.2179 C   0  0  0  0  0  0  0  0  0  0  0  0
   -3.1420   -9.0213    4.5293 C   0  0  0  0  0  0  0  0  0  0  0  0
   -1.6671   -8.9762    4.9871 C   0  0  0  0  0  0  0  0  0  0  0  0
   -3.1299   -9.1253    2.9904 C   0  0  0  0  0  0  0  0  0  0  0  0
   -0.8434   -9.4465    3.7845 C   0  0  0  0  0  0  0  0  0  0  0  0
   -1.8319   -9.8485    2.6860 C   0  0  0  0  0  0  0  0  0  0  0  0
   -1.2955   -1.7202    2.0228 H   0  0  0  0  0  0  0  0  0  0  0  0
   -0.8498   -3.2493    3.9629 H   0  0  0  0  0  0  0  0  0  0  0  0
   -3.4414   -2.5779    2.3328 H   0  0  0  0  0  0  0  0  0  0  0  0
    2.0447   -0.0598    0.0779 H   0  0  0  0  0  0  0  0  0  0  0  0
   -2.3012    0.5191    3.6785 H   0  0  0  0  0  0  0  0  0  0  0  0
   -3.0739    0.0488    2.2732 H   0  0  0  0  0  0  0  0  0  0  0  0
    1.4252   -2.0237    3.5684 H   0  0  0  0  0  0  0  0  0  0  0  0
    1.4336   -0.5649    2.6636 H   0  0  0  0  0  0  0  0  0  0  0  0
   -2.5436   -1.6574    5.0280 H   0  0  0  0  0  0  0  0  0  0  0  0
   -4.0417   -1.3355    4.2500 H   0  0  0  0  0  0  0  0  0  0  0  0
    1.3784   -3.1631    1.3839 H   0  0  0  0  0  0  0  0  0  0  0  0
    2.5427   -1.8364    1.2543 H   0  0  0  0  0  0  0  0  0  0  0  0
   -2.0151   -3.6784    1.0771 H   0  0  0  0  0  0  0  0  0  0  0  0
   -0.3094   -3.7356    1.2138 H   0  0  0  0  0  0  0  0  0  0  0  0
   -0.5783   -1.1107    4.5288 H   0  0  0  0  0  0  0  0  0  0  0  0
    0.7752   -0.0715    4.3766 H   0  0  0  0  0  0  0  0  0  0  0  0
   -0.8318    0.5041    4.5296 H   0  0  0  0  0  0  0  0  0  0  0  0
   -1.2469   -5.8616    1.5996 H   0  0  0  0  0  0  0  0  0  0  0  0
   -0.2944   -5.2469    2.9943 H   0  0  0  0  0  0  0  0  0  0  0  0
   -4.9771   -3.5590    4.8854 H   0  0  0  0  0  0  0  0  0  0  0  0
   -1.8763   -7.1125    3.5242 H   0  0  0  0  0  0  0  0  0  0  0  0
   -5.4217   -5.8769    5.6363 H   0  0  0  0  0  0  0  0  0  0  0  0
   -3.3188   -1.3483    0.2020 H   0  0  0  0  0  0  0  0  0  0  0  0
   -3.5625   -9.9521    4.9262 H   0  0  0  0  0  0  0  0  0  0  0  0
   -1.3395   -7.9841    5.3237 H   0  0  0  0  0  0  0  0  0  0  0  0
   -1.4988   -9.6173    5.8563 H   0  0  0  0  0  0  0  0  0  0  0  0
   -4.0276   -9.6059    2.5964 H   0  0  0  0  0  0  0  0  0  0  0  0
   -3.1311   -8.1729    2.4557 H   0  0  0  0  0  0  0  0  0  0  0  0
   -0.1830   -8.6395    3.4375 H   0  0  0  0  0  0  0  0  0  0  0  0
   -0.1959  -10.2857    4.0526 H   0  0  0  0  0  0  0  0  0  0  0  0
   -1.4499   -9.5862    1.6924 H   0  0  0  0  0  0  0  0  0  0  0  0
   -2.0051  -10.9261    2.7124 H   0  0  0  0  0  0  0  0  0  0  0  0
  1 31  1  0  0  0  0
  2 21  1  0  0  0  0
  2 23  1  0  0  0  0
  3  4  1  0  0  0  0
  3  6  1  0  0  0  0
  3  8  1  0  0  0  0
  3 13  1  1  0  0  0
  4  5  1  0  0  0  0
  4  9  1  0  0  0  0
  4 28  1  6  0  0  0
  5  7  1  0  0  0  0
  5 12  1  0  0  0  0
  5 29  1  1  0  0  0
  6  1  1  0  0  0  0
  6 11  1  0  0  0  0
  6 17  1  6  0  0  0
  7 10  1  0  0  0  0
  7 14  1  0  0  0  0
  7 30  1  6  0  0  0
  8 10  1  0  0  0  0
  8 32  1  0  0  0  0
  8 33  1  0  0  0  0
  9 11  1  0  0  0  0
  9 34  1  0  0  0  0
  9 35  1  0  0  0  0
 10 36  1  0  0  0  0
 10 37  1  0  0  0  0
 11 38  1  0  0  0  0
 11 39  1  0  0  0  0
 12 15  1  0  0  0  0
 12 40  1  0  0  0  0
 12 41  1  0  0  0  0
 13 42  1  0  0  0  0
 13 43  1  0  0  0  0
 13 44  1  0  0  0  0
 14 16  2  0  0  0  0
 14 18  1  0  0  0  0
 15 16  1  0  0  0  0
 15 45  1  0  0  0  0
 15 46  1  0  0  0  0
 16 19  1  0  0  0  0
 17 22  3  0  0  0  0
 18 20  2  0  0  0  0
 18 47  1  0  0  0  0
 19 21  2  0  0  0  0
 19 48  1  0  0  0  0
 20 21  1  0  0  0  0
 20 49  1  0  0  0  0
 22 50  1  0  0  0  0
 23 24  1  0  0  0  0
 23 25  1  0  0  0  0
 23 51  1  0  0  0  0
 24 26  1  0  0  0  0
 24 52  1  0  0  0  0
 24 53  1  0  0  0  0
 25 27  1  0  0  0  0
 25 54  1  0  0  0  0
 25 55  1  0  0  0  0
 26 27  1  0  0  0  0
 26 56  1  0  0  0  0
 26 57  1  0  0  0  0
 27 58  1  0  0  0  0
 27 59  1  0  0  0  0
M  END
>  <DRUGBANK_ID>
DB04575

>  <COMMON_NAME>
Quinestrol

>  <CAS_NUMBER>
152-43-2

>  <UNII>
JR0N7XD5GZ

>  <SYNONYMS>
17-alpha-Ethinylestradiol 3-cyclopentyl ether; 17alpha-Ethynylestradiol 3-cyclopentyl ether; Estradiol-17-beta 3-cyclopentyl ether; Quinestrol; Quinestrolo; Quinestrolum

$$$$
