
 OpenBabel10282417113D

 63 68  0  0  1  0  0  0  0  0999 V2000
   -4.2108   -0.5304   -4.9789 O   0  0  0  0  0  0  0  0  0  0  0  0
   -3.7068   -0.0439   -8.1340 O   0  0  0  0  0  0  0  0  0  0  0  0
   -3.5034   -0.4068  -11.2782 O   0  0  0  0  0  0  0  0  0  0  0  0
   -4.8000    2.2574   -4.8879 O   0  0  0  0  0  0  0  0  0  0  0  0
   -7.5173   -4.8601   -5.4227 N   0  0  0  0  0  0  0  0  0  0  0  0
   -5.9830   -2.2429   -5.7255 C   0  0  1  0  0  0  0  0  0  0  0  0
   -6.5483   -2.7011   -7.4534 C   0  0  1  0  0  0  0  0  0  0  0  0
   -4.2502   -1.7052   -5.8396 C   0  0  3  0  0  0  0  0  0  0  0  0
   -3.5382   -1.3649   -7.5805 C   0  0  3  0  0  0  0  0  0  0  0  0
   -7.6587   -3.7464   -6.8178 C   0  0  1  0  0  0  0  0  0  0  0  0
   -5.9432   -2.1773   -9.2498 C   0  0  0  0  0  0  0  0  0  0  0  0
   -4.0022   -2.0049   -9.2387 C   0  0  3  0  0  0  0  0  0  0  0  0
   -6.7690   -2.9050   -4.3762 C   0  0  0  0  0  0  0  0  0  0  0  0
   -6.4966   -0.8987   -5.4891 C   0  0  0  0  0  0  0  0  0  0  0  0
   -5.2218   -3.1396   -7.5915 C   0  0  0  0  0  0  0  0  0  0  0  0
   -8.5327   -2.1320   -6.3926 C   0  0  0  0  0  0  0  0  0  0  0  0
   -4.7888   -1.8301   -7.5279 C   0  0  0  0  0  0  0  0  0  0  0  0
   -6.6822   -4.3727   -4.3040 C   0  0  0  0  0  0  0  0  0  0  0  0
   -2.9614   -1.4702  -10.4844 C   0  0  3  0  0  0  0  0  0  0  0  0
   -7.7790   -0.6882   -5.9362 C   0  0  0  0  0  0  0  0  0  0  0  0
   -5.4915   -0.0105   -5.0809 C   0  0  0  0  0  0  0  0  0  0  0  0
   -1.5939   -0.9505   -9.8755 C   0  0  0  0  0  0  0  0  0  0  0  0
   -7.0593   -6.3375   -5.4918 C   0  0  0  0  0  0  0  0  0  0  0  0
   -8.0546    0.6994   -5.9448 C   0  0  0  0  0  0  0  0  0  0  0  0
   -2.5360   -2.5669  -11.5326 C   0  0  0  0  0  0  0  0  0  0  0  0
   -5.7691    1.3206   -5.0896 C   0  0  0  0  0  0  0  0  0  0  0  0
   -7.0429    1.6885   -5.5322 C   0  0  0  0  0  0  0  0  0  0  0  0
   -3.2772    1.1561   -7.6154 C   0  0  0  0  0  0  0  0  0  0  0  0
   -0.9493   -1.9066   -8.8567 C   0  0  0  0  0  0  0  0  0  0  0  0
   -0.3155   -3.1468   -9.4417 C   0  0  0  0  0  0  0  0  0  0  0  0
   -6.7074   -4.2620   -6.8148 H   0  0  0  0  0  0  0  0  0  0  0  0
   -3.9288   -0.7917  -12.0658 H   0  0  0  0  0  0  0  0  0  0  0  0
   -3.9579    1.8368   -5.1496 H   0  0  0  0  0  0  0  0  0  0  0  0
   -3.7281   -2.5617   -5.3649 H   0  0  0  0  0  0  0  0  0  0  0  0
   -6.3358   -1.1874   -9.5673 H   0  0  0  0  0  0  0  0  0  0  0  0
   -6.0995   -2.9116  -10.0479 H   0  0  0  0  0  0  0  0  0  0  0  0
   -3.6738   -3.0584   -9.2836 H   0  0  0  0  0  0  0  0  0  0  0  0
   -6.6775   -2.4529   -3.3742 H   0  0  0  0  0  0  0  0  0  0  0  0
   -7.8647   -2.7664   -4.4288 H   0  0  0  0  0  0  0  0  0  0  0  0
   -4.7951   -4.0230   -7.9994 H   0  0  0  0  0  0  0  0  0  0  0  0
   -9.3205   -2.3184   -5.6447 H   0  0  0  0  0  0  0  0  0  0  0  0
   -9.0666   -1.8742   -7.3168 H   0  0  0  0  0  0  0  0  0  0  0  0
   -5.4641   -0.9177   -7.4824 H   0  0  0  0  0  0  0  0  0  0  0  0
   -7.1098   -4.7832   -3.3623 H   0  0  0  0  0  0  0  0  0  0  0  0
   -5.6275   -4.6813   -4.2740 H   0  0  0  0  0  0  0  0  0  0  0  0
   -0.8556   -0.6884  -10.6531 H   0  0  0  0  0  0  0  0  0  0  0  0
   -1.7527    0.0272   -9.4101 H   0  0  0  0  0  0  0  0  0  0  0  0
   -6.7719   -6.7042   -4.4656 H   0  0  0  0  0  0  0  0  0  0  0  0
   -7.8586   -7.0519   -5.7205 H   0  0  0  0  0  0  0  0  0  0  0  0
   -6.1395   -6.5879   -6.0501 H   0  0  0  0  0  0  0  0  0  0  0  0
   -8.9865    1.1366   -6.2968 H   0  0  0  0  0  0  0  0  0  0  0  0
   -2.3411   -3.5385  -11.0911 H   0  0  0  0  0  0  0  0  0  0  0  0
   -3.2756   -2.7501  -12.3135 H   0  0  0  0  0  0  0  0  0  0  0  0
   -1.6140   -2.2718  -12.0738 H   0  0  0  0  0  0  0  0  0  0  0  0
   -7.2154    2.7628   -5.6378 H   0  0  0  0  0  0  0  0  0  0  0  0
   -4.1821    1.6546   -7.2840 H   0  0  0  0  0  0  0  0  0  0  0  0
   -2.5072    1.0417   -6.8612 H   0  0  0  0  0  0  0  0  0  0  0  0
   -2.9043    1.7704   -8.4457 H   0  0  0  0  0  0  0  0  0  0  0  0
   -0.2219   -1.3583   -8.2499 H   0  0  0  0  0  0  0  0  0  0  0  0
   -1.6766   -2.2897   -8.1515 H   0  0  0  0  0  0  0  0  0  0  0  0
    0.3848   -2.8939  -10.2380 H   0  0  0  0  0  0  0  0  0  0  0  0
    0.1816   -3.7204   -8.6579 H   0  0  0  0  0  0  0  0  0  0  0  0
   -1.0658   -3.8374   -9.8174 H   0  0  0  0  0  0  0  0  0  0  0  0
  1  8  1  0  0  0  0
  1 21  1  0  0  0  0
  2 28  1  0  0  0  0
  2  9  1  0  0  0  0
  3 19  1  0  0  0  0
  3 32  1  0  0  0  0
  4 33  1  0  0  0  0
  4 26  1  0  0  0  0
  5 10  1  0  0  0  0
  5 18  1  0  0  0  0
  5 23  1  0  0  0  0
  6  7  1  0  0  0  0
  6  8  1  0  0  0  0
  6 13  1  0  0  0  0
  6 14  1  6  0  0  0
  7 10  1  0  0  0  0
  7 11  1  0  0  0  0
  7 15  1  6  0  0  0
  8  9  1  0  0  0  0
  8 34  1  0  0  0  0
  9 12  1  0  0  0  0
  9 17  1  0  0  0  0
 10 16  1  0  0  0  0
 10 31  1  1  0  0  0
 11 12  1  0  0  0  0
 11 35  1  0  0  0  0
 11 36  1  0  0  0  0
 12 19  1  0  0  0  0
 12 37  1  0  0  0  0
 13 18  1  0  0  0  0
 13 38  1  0  0  0  0
 13 39  1  0  0  0  0
 14 20  2  0  0  0  0
 14 21  1  0  0  0  0
 15 17  2  0  0  0  0
 15 40  1  0  0  0  0
 16 20  1  0  0  0  0
 16 41  1  0  0  0  0
 16 42  1  0  0  0  0
 17 43  1  0  0  0  0
 18 44  1  0  0  0  0
 18 45  1  0  0  0  0
 19 22  1  0  0  0  0
 19 25  1  0  0  0  0
 20 24  1  0  0  0  0
 21 26  2  0  0  0  0
 22 29  1  0  0  0  0
 22 46  1  0  0  0  0
 22 47  1  0  0  0  0
 23 48  1  0  0  0  0
 23 49  1  0  0  0  0
 23 50  1  0  0  0  0
 24 27  2  0  0  0  0
 24 51  1  0  0  0  0
 25 52  1  0  0  0  0
 25 53  1  0  0  0  0
 25 54  1  0  0  0  0
 26 27  1  0  0  0  0
 27 55  1  0  0  0  0
 28 56  1  0  0  0  0
 28 57  1  0  0  0  0
 28 58  1  0  0  0  0
 29 30  1  0  0  0  0
 29 59  1  0  0  0  0
 29 60  1  0  0  0  0
 30 61  1  0  0  0  0
 30 62  1  0  0  0  0
 30 63  1  0  0  0  0
M  END
>  <DRUGBANK_ID>
DB01497

>  <COMMON_NAME>
Etorphine

>  <CAS_NUMBER>
14521-96-1

>  <UNII>
42M2Y6NU9O

>  <SYNONYMS>
etorfina; Etorphine; Etorphinum

$$$$
