4OX
 OpenBabel10282417123D

 31 30  0  0  0  0  0  0  0  0999 V2000
    1.0557    0.0579    0.0564 C   0  0  0  0  0  0  0  0  0  0  0  0
    0.5328    0.6128    1.3755 C   0  0  0  0  0  0  0  0  0  0  0  0
    1.0245    2.0250    1.7219 C   0  0  0  0  0  0  0  0  0  0  0  0
    0.5909    3.2275    0.8713 C   0  0  0  0  0  0  0  0  0  0  0  0
   -0.4213    3.9560    1.3736 O   0  0  0  0  0  0  0  0  0  0  0  0
    1.1338    3.6049   -0.1606 O   0  0  0  0  0  0  0  0  0  0  0  0
   -0.0667   -4.3287   -4.6172 O   0  0  0  0  0  0  0  0  0  0  0  0
    0.6043   -3.3571   -4.3556 C   0  0  0  0  0  0  0  0  0  0  0  0
    1.6220   -3.4256   -3.4725 O   0  0  0  0  0  0  0  0  0  0  0  0
    0.4086   -1.9703   -4.9398 C   0  0  0  0  0  0  0  0  0  0  0  0
   -0.3117   -1.0005   -4.0237 C   0  0  0  0  0  0  0  0  0  0  0  0
    0.4971   -0.8097   -2.7867 C   0  0  0  0  0  0  0  0  0  0  0  0
    1.0524    0.5355   -2.4945 C   0  0  0  0  0  0  0  0  0  0  0  0
    0.5765    0.9017   -1.1167 C   0  0  0  0  0  0  0  0  0  0  0  0
    0.6507   -1.7430   -1.9997 O   0  0  0  0  0  0  0  0  0  0  0  0
    0.7036   -0.9767    0.0059 H   0  0  0  0  0  0  0  0  0  0  0  0
    2.1509    0.0162    0.0546 H   0  0  0  0  0  0  0  0  0  0  0  0
   -0.5622    0.5528    1.3882 H   0  0  0  0  0  0  0  0  0  0  0  0
    0.8806   -0.0827    2.1558 H   0  0  0  0  0  0  0  0  0  0  0  0
    0.7206    2.2253    2.7536 H   0  0  0  0  0  0  0  0  0  0  0  0
    2.1203    2.0152    1.7281 H   0  0  0  0  0  0  0  0  0  0  0  0
   -0.5786    3.8213    2.3221 H   0  0  0  0  0  0  0  0  0  0  0  0
    1.4052   -4.1576   -2.8555 H   0  0  0  0  0  0  0  0  0  0  0  0
   -0.1930   -2.0846   -5.8455 H   0  0  0  0  0  0  0  0  0  0  0  0
    1.3823   -1.5709   -5.2421 H   0  0  0  0  0  0  0  0  0  0  0  0
   -1.2951   -1.3580   -3.6999 H   0  0  0  0  0  0  0  0  0  0  0  0
   -0.4688   -0.0358   -4.5211 H   0  0  0  0  0  0  0  0  0  0  0  0
    0.6911    1.2937   -3.2027 H   0  0  0  0  0  0  0  0  0  0  0  0
    2.1454    0.5355   -2.5486 H   0  0  0  0  0  0  0  0  0  0  0  0
   -0.5114    1.0447   -1.0843 H   0  0  0  0  0  0  0  0  0  0  0  0
    1.0661    1.8428   -1.0195 H   0  0  0  0  0  0  0  0  0  0  0  0
  1  2  1  0  0  0  0
  1 14  1  0  0  0  0
  1 16  1  0  0  0  0
  1 17  1  0  0  0  0
  2  3  1  0  0  0  0
  2 18  1  0  0  0  0
  2 19  1  0  0  0  0
  3  4  1  0  0  0  0
  3 20  1  0  0  0  0
  3 21  1  0  0  0  0
  4  5  1  0  0  0  0
  4  6  2  0  0  0  0
  5 22  1  0  0  0  0
  7  8  2  0  0  0  0
  8  9  1  0  0  0  0
  8 10  1  0  0  0  0
  9 23  1  0  0  0  0
 10 11  1  0  0  0  0
 10 24  1  0  0  0  0
 10 25  1  0  0  0  0
 11 12  1  0  0  0  0
 11 26  1  0  0  0  0
 11 27  1  0  0  0  0
 12 13  1  0  0  0  0
 12 15  2  0  0  0  0
 13 14  1  0  0  0  0
 13 28  1  0  0  0  0
 13 29  1  0  0  0  0
 14 30  1  0  0  0  0
 14 31  1  0  0  0  0
M  END
>  <DRUGBANK_ID>
DB02260

>  <SECONDARY_ACCESSION_NUMBERS>
EXPT00224

>  <COMMON_NAME>
4-Oxosebacic Acid

$$$$
