LJ4
 OpenBabel10282417173D

 24 25  0  0  0  0  0  0  0  0999 V2000
   -1.2586   -1.8910    0.0723 C   0  0  0  0  0  0  0  0  0  0  0  0
   -1.2263   -0.4985    0.0278 C   0  0  0  0  0  0  0  0  0  0  0  0
   -2.8739    0.4393   -0.0017 Br  0  0  0  0  0  0  0  0  0  0  0  0
   -0.0086    0.1814    0.0171 C   0  0  0  0  0  0  0  0  0  0  0  0
    0.0239    1.5506    0.0327 O   0  0  0  0  0  0  0  0  0  0  0  0
    1.1825   -0.5474    0.0088 C   0  0  0  0  0  0  0  0  0  0  0  0
    2.8661    0.3294   -0.0128 Br  0  0  0  0  0  0  0  0  0  0  0  0
    1.1532   -1.9489    0.0325 C   0  0  0  0  0  0  0  0  0  0  0  0
   -0.0726   -2.6280    0.0773 C   0  0  0  0  0  0  0  0  0  0  0  0
   -0.0024   -4.0054    0.1797 O   0  0  0  0  0  0  0  0  0  0  0  0
   -1.1604   -4.7512    0.1178 C   0  0  0  0  0  0  0  0  0  0  0  0
   -2.0179   -4.7034   -0.9833 C   0  0  0  0  0  0  0  0  0  0  0  0
   -3.1792   -5.4772   -1.0040 C   0  0  0  0  0  0  0  0  0  0  0  0
   -3.4438   -6.3625    0.0420 C   0  0  0  0  0  0  0  0  0  0  0  0
   -2.5541   -6.4628    1.1100 C   0  0  0  0  0  0  0  0  0  0  0  0
   -1.4229   -5.6421    1.1634 C   0  0  0  0  0  0  0  0  0  0  0  0
   -2.2241   -2.3838    0.1140 H   0  0  0  0  0  0  0  0  0  0  0  0
   -0.8953    1.8700    0.0880 H   0  0  0  0  0  0  0  0  0  0  0  0
    2.0840   -2.5121    0.0343 H   0  0  0  0  0  0  0  0  0  0  0  0
   -1.8035   -4.0414   -1.8187 H   0  0  0  0  0  0  0  0  0  0  0  0
   -3.8704   -5.3983   -1.8377 H   0  0  0  0  0  0  0  0  0  0  0  0
   -4.3394   -6.9791    0.0163 H   0  0  0  0  0  0  0  0  0  0  0  0
   -2.7416   -7.1854    1.9023 H   0  0  0  0  0  0  0  0  0  0  0  0
   -0.7548   -5.7007    2.0169 H   0  0  0  0  0  0  0  0  0  0  0  0
  1  2  2  0  0  0  0
  1  9  1  0  0  0  0
  1 17  1  0  0  0  0
  2  3  1  0  0  0  0
  2  4  1  0  0  0  0
  4  5  1  0  0  0  0
  4  6  2  0  0  0  0
  5 18  1  0  0  0  0
  6  7  1  0  0  0  0
  6  8  1  0  0  0  0
  8  9  2  0  0  0  0
  8 19  1  0  0  0  0
  9 10  1  0  0  0  0
 10 11  1  0  0  0  0
 11 12  2  0  0  0  0
 11 16  1  0  0  0  0
 12 13  1  0  0  0  0
 12 20  1  0  0  0  0
 13 14  2  0  0  0  0
 13 21  1  0  0  0  0
 14 15  1  0  0  0  0
 14 22  1  0  0  0  0
 15 16  2  0  0  0  0
 15 23  1  0  0  0  0
 16 24  1  0  0  0  0
M  END
>  <DRUGBANK_ID>
DB08103

>  <COMMON_NAME>
2,6-dibromo-4-phenoxyphenol

$$$$
