
 OpenBabel10282417213D

 27 30  0  0  0  0  0  0  0  0999 V2000
   -0.6084   -1.2266   -0.0761 N   0  0  0  0  0  0  0  0  0  0  0  0
   -1.3374   -0.0988   -0.0844 C   0  0  0  0  0  0  0  0  0  0  0  0
   -0.7508    1.1021   -0.0245 N   0  0  0  0  0  0  0  0  0  0  0  0
    0.5715    1.1938    0.0448 C   0  0  0  0  0  0  0  0  0  0  0  0
    1.3606    0.1047    0.0553 N   0  0  0  0  0  0  0  0  0  0  0  0
    0.7389   -1.0774   -0.0158 C   0  0  0  0  0  0  0  0  0  0  0  0
   -2.7169    0.0221    0.0845 N   0  0  0  0  0  0  0  0  0  0  0  0
   -3.8432   -0.7182    0.5278 C   0  0  0  0  0  0  0  0  0  0  0  0
   -3.8090   -0.0109   -0.8494 C   0  0  0  0  0  0  0  0  0  0  0  0
    1.1080    2.4616    0.1022 N   0  0  0  0  0  0  0  0  0  0  0  0
    1.2281    3.6053    0.9035 C   0  0  0  0  0  0  0  0  0  0  0  0
    1.9216    3.4005   -0.5358 C   0  0  0  0  0  0  0  0  0  0  0  0
    1.4584   -2.2752    0.1386 N   0  0  0  0  0  0  0  0  0  0  0  0
    1.9378   -3.3519   -0.6195 C   0  0  0  0  0  0  0  0  0  0  0  0
    2.5321   -2.8859    0.7808 C   0  0  0  0  0  0  0  0  0  0  0  0
   -3.9616   -1.7895    0.4944 H   0  0  0  0  0  0  0  0  0  0  0  0
   -4.3210   -0.1976    1.3504 H   0  0  0  0  0  0  0  0  0  0  0  0
   -4.2927    0.9542   -0.9426 H   0  0  0  0  0  0  0  0  0  0  0  0
   -3.9033   -0.6837   -1.6925 H   0  0  0  0  0  0  0  0  0  0  0  0
    0.4098    4.3091    0.9382 H   0  0  0  0  0  0  0  0  0  0  0  0
    1.9051    3.5673    1.7456 H   0  0  0  0  0  0  0  0  0  0  0  0
    2.9906    3.2687   -0.5292 H   0  0  0  0  0  0  0  0  0  0  0  0
    1.4779    3.9738   -1.3393 H   0  0  0  0  0  0  0  0  0  0  0  0
    1.3095   -4.2350   -0.6111 H   0  0  0  0  0  0  0  0  0  0  0  0
    2.6182   -3.2309   -1.4550 H   0  0  0  0  0  0  0  0  0  0  0  0
    3.5469   -2.5128    0.7632 H   0  0  0  0  0  0  0  0  0  0  0  0
    2.2313   -3.4728    1.6440 H   0  0  0  0  0  0  0  0  0  0  0  0
  2  1  2  0  0  0  0
  3  2  1  0  0  0  0
  4  3  2  0  0  0  0
  5  4  1  0  0  0  0
  6  1  1  0  0  0  0
  6  5  2  0  0  0  0
  7  2  1  0  0  0  0
  8  7  1  0  0  0  0
  8 16  1  0  0  0  0
  8 17  1  0  0  0  0
  9  7  1  0  0  0  0
  9  8  1  0  0  0  0
  9 18  1  0  0  0  0
  9 19  1  0  0  0  0
 10  4  1  0  0  0  0
 11 10  1  0  0  0  0
 11 20  1  0  0  0  0
 11 21  1  0  0  0  0
 12 10  1  0  0  0  0
 12 11  1  0  0  0  0
 12 22  1  0  0  0  0
 12 23  1  0  0  0  0
 13  6  1  0  0  0  0
 14 13  1  0  0  0  0
 14 24  1  0  0  0  0
 14 25  1  0  0  0  0
 15 13  1  0  0  0  0
 15 14  1  0  0  0  0
 15 26  1  0  0  0  0
 15 27  1  0  0  0  0
M  END
>  <DRUGBANK_ID>
DB14031

>  <COMMON_NAME>
Tretamine

>  <CAS_NUMBER>
51-18-3

>  <UNII>
F7IY6HZG9D

>  <SYNONYMS>
2,4,6-tri(1-aziridinyl)-1,3,5-triazine; 2,4,6-tris(1-aziridinyl)-1,3,5-triazine; 2,4,6-tris(1-aziridinyl)-s-triazine; 2,4,6-tris(aziridin-1-yl)-1,3,5-triazine; TEM; Tretamina; Tretamine; Tretaminum; Triaethylenmelamin; Triethylenemelamine; Trisaziridinyltriazine

$$$$
