BI5
 OpenBabel10282417163D

 39 41  0  0  0  0  0  0  0  0999 V2000
   -1.3573   -0.0596   -0.0336 N   0  0  0  0  0  0  0  0  0  0  0  0
   -0.7132    1.1360   -0.0373 C   0  0  0  0  0  0  0  0  0  0  0  0
    0.6787    1.2234   -0.0111 C   0  0  0  0  0  0  0  0  0  0  0  0
    1.4308    0.0501   -0.0050 C   0  0  0  0  0  0  0  0  0  0  0  0
    0.7800   -1.1768   -0.0038 C   0  0  0  0  0  0  0  0  0  0  0  0
   -0.6034   -1.1801   -0.0062 C   0  0  0  0  0  0  0  0  0  0  0  0
   -1.5610    2.3922   -0.0444 C   0  0  0  0  0  0  0  0  0  0  0  0
   -2.4334    2.4740   -1.2059 N   0  0  0  0  0  0  0  0  0  0  0  0
   -3.7983    2.5866   -1.0694 C   0  0  0  0  0  0  0  0  0  0  0  0
   -4.6097    2.5740   -2.3127 C   0  0  0  0  0  0  0  0  0  0  0  0
   -4.3196    1.6746   -3.3370 C   0  0  0  0  0  0  0  0  0  0  0  0
   -5.1504    1.6032   -4.4571 C   0  0  0  0  0  0  0  0  0  0  0  0
   -6.2937    2.4028   -4.5631 C   0  0  0  0  0  0  0  0  0  0  0  0
   -6.6080    3.2738   -3.5136 C   0  0  0  0  0  0  0  0  0  0  0  0
   -5.7488    3.3867   -2.4097 C   0  0  0  0  0  0  0  0  0  0  0  0
   -7.1407    2.4255   -5.6569 O   0  0  0  0  0  0  0  0  0  0  0  0
   -6.8172    1.6550   -6.7527 C   0  0  0  0  0  0  0  0  0  0  0  0
   -6.8792    0.2601   -6.6919 C   0  0  0  0  0  0  0  0  0  0  0  0
   -6.5184   -0.5035   -7.8020 C   0  0  0  0  0  0  0  0  0  0  0  0
   -6.1779    0.1258   -8.9986 C   0  0  0  0  0  0  0  0  0  0  0  0
   -6.1987    1.5190   -9.0846 C   0  0  0  0  0  0  0  0  0  0  0  0
   -6.4847    2.2877   -7.9520 C   0  0  0  0  0  0  0  0  0  0  0  0
   -4.3734    2.7036    0.0129 O   0  0  0  0  0  0  0  0  0  0  0  0
    1.1795    2.1861    0.0046 H   0  0  0  0  0  0  0  0  0  0  0  0
    2.5165    0.0937    0.0025 H   0  0  0  0  0  0  0  0  0  0  0  0
    1.3354   -2.1078    0.0023 H   0  0  0  0  0  0  0  0  0  0  0  0
   -1.1615   -2.1118    0.0140 H   0  0  0  0  0  0  0  0  0  0  0  0
   -2.1390    2.4326    0.8846 H   0  0  0  0  0  0  0  0  0  0  0  0
   -0.9205    3.2809   -0.0722 H   0  0  0  0  0  0  0  0  0  0  0  0
   -2.0111    2.4025   -2.1211 H   0  0  0  0  0  0  0  0  0  0  0  0
   -3.4766    0.9944   -3.2664 H   0  0  0  0  0  0  0  0  0  0  0  0
   -4.8856    0.8878   -5.2271 H   0  0  0  0  0  0  0  0  0  0  0  0
   -7.5224    3.8639   -3.5437 H   0  0  0  0  0  0  0  0  0  0  0  0
   -5.9717    4.1033   -1.6207 H   0  0  0  0  0  0  0  0  0  0  0  0
   -7.1598   -0.2309   -5.7645 H   0  0  0  0  0  0  0  0  0  0  0  0
   -6.5091   -1.5879   -7.7334 H   0  0  0  0  0  0  0  0  0  0  0  0
   -5.9006   -0.4699   -9.8651 H   0  0  0  0  0  0  0  0  0  0  0  0
   -5.9911    2.0026  -10.0362 H   0  0  0  0  0  0  0  0  0  0  0  0
   -6.4379    3.3716   -8.0093 H   0  0  0  0  0  0  0  0  0  0  0  0
  1  2  2  0  0  0  0
  1  6  1  0  0  0  0
  2  3  1  0  0  0  0
  2  7  1  0  0  0  0
  3  4  2  0  0  0  0
  3 24  1  0  0  0  0
  4  5  1  0  0  0  0
  4 25  1  0  0  0  0
  5  6  2  0  0  0  0
  5 26  1  0  0  0  0
  6 27  1  0  0  0  0
  7  8  1  0  0  0  0
  7 28  1  0  0  0  0
  7 29  1  0  0  0  0
  8  9  1  0  0  0  0
  8 30  1  0  0  0  0
  9 10  1  0  0  0  0
  9 23  2  0  0  0  0
 10 11  2  0  0  0  0
 10 15  1  0  0  0  0
 11 12  1  0  0  0  0
 11 31  1  0  0  0  0
 12 13  2  0  0  0  0
 12 32  1  0  0  0  0
 13 14  1  0  0  0  0
 13 16  1  0  0  0  0
 14 15  2  0  0  0  0
 14 33  1  0  0  0  0
 15 34  1  0  0  0  0
 16 17  1  0  0  0  0
 17 18  2  0  0  0  0
 17 22  1  0  0  0  0
 18 19  1  0  0  0  0
 18 35  1  0  0  0  0
 19 20  2  0  0  0  0
 19 36  1  0  0  0  0
 20 21  1  0  0  0  0
 20 37  1  0  0  0  0
 21 22  2  0  0  0  0
 21 38  1  0  0  0  0
 22 39  1  0  0  0  0
M  END
>  <DRUGBANK_ID>
DB07459

>  <COMMON_NAME>
4-PHENOXY-N-(PYRIDIN-2-YLMETHYL)BENZAMIDE

>  <UNII>
6J2NXX77VH

$$$$
