NDT
 OpenBabel10282417173D

 34 36  0  0  0  0  0  0  0  0999 V2000
    0.0030   -0.6900    0.0610 C   0  0  0  0  0  0  0  0  0  0  0  0
    0.0150    0.7190    0.0820 C   0  0  0  0  0  0  0  0  0  0  0  0
   -1.2080    1.3750    0.1640 C   0  0  0  0  0  0  0  0  0  0  0  0
   -2.3300    0.6260   -0.2650 C   0  0  0  0  0  0  0  0  0  0  0  0
   -2.3180   -0.7290   -0.0250 C   0  0  0  0  0  0  0  0  0  0  0  0
   -1.1880   -1.3590    0.1280 C   0  0  0  0  0  0  0  0  0  0  0  0
    1.2210   -1.3550   -0.0280 C   0  0  0  0  0  0  0  0  0  0  0  0
    2.3340   -0.6320   -0.0850 N   0  0  0  0  0  0  0  0  0  0  0  0
    2.3010    0.6850   -0.0590 N   0  0  0  0  0  0  0  0  0  0  0  0
    1.1670    1.3600    0.0230 B   0  0  0  0  0  0  0  0  0  0  0  0
    1.1901    2.8596    0.0491 O   0  0  0  0  0  0  0  0  0  0  0  0
    3.8172    1.5755   -0.1360 S   0  0  0  0  0  0  0  0  0  0  0  0
    3.8163    2.4784   -1.3717 O   0  0  0  0  0  0  0  0  0  0  0  0
    3.9696    2.4330    1.1224 O   0  0  0  0  0  0  0  0  0  0  0  0
    5.1972    0.4091   -0.2421 C   0  0  0  0  0  0  0  0  0  0  0  0
    5.2852   -0.5044   -1.3293 C   0  0  0  0  0  0  0  0  0  0  0  0
    6.1765   -1.5868   -1.2493 C   0  0  0  0  0  0  0  0  0  0  0  0
    7.0978   -1.6046   -0.3315 C   0  0  0  0  0  0  0  0  0  0  0  0
    7.2097   -0.5396    0.5722 C   0  0  0  0  0  0  0  0  0  0  0  0
    6.1480    0.3896    0.6936 C   0  0  0  0  0  0  0  0  0  0  0  0
    8.0544   -2.7822   -0.2390 C   0  0  0  0  0  0  0  0  0  0  0  0
   -1.2953    2.3779    0.5267 H   0  0  0  0  0  0  0  0  0  0  0  0
   -3.1560    1.0955   -0.7571 H   0  0  0  0  0  0  0  0  0  0  0  0
   -3.2407   -1.2674    0.0362 H   0  0  0  0  0  0  0  0  0  0  0  0
   -1.1917   -2.4137    0.3084 H   0  0  0  0  0  0  0  0  0  0  0  0
    1.2608   -2.4240   -0.0501 H   0  0  0  0  0  0  0  0  0  0  0  0
    2.1361    3.1794   -0.0032 H   0  0  0  0  0  0  0  0  0  0  0  0
    4.6779   -0.3680   -2.1997 H   0  0  0  0  0  0  0  0  0  0  0  0
    6.0976   -2.3970   -1.9437 H   0  0  0  0  0  0  0  0  0  0  0  0
    8.0922   -0.4291    1.1672 H   0  0  0  0  0  0  0  0  0  0  0  0
    6.1090    1.0653    1.5223 H   0  0  0  0  0  0  0  0  0  0  0  0
    7.4990   -3.6802   -0.0658 H   0  0  0  0  0  0  0  0  0  0  0  0
    8.5999   -2.8714   -1.1552 H   0  0  0  0  0  0  0  0  0  0  0  0
    8.7378   -2.6241    0.5690 H   0  0  0  0  0  0  0  0  0  0  0  0
  1  2  2  0  0  0  0
  1  6  1  0  0  0  0
  1  7  1  0  0  0  0
  2  3  1  0  0  0  0
  2 10  1  0  0  0  0
  3  4  2  0  0  0  0
  3 22  1  0  0  0  0
  4  5  1  0  0  0  0
  4 23  1  0  0  0  0
  5  6  2  0  0  0  0
  5 24  1  0  0  0  0
  6 25  1  0  0  0  0
  7  8  2  0  0  0  0
  7 26  1  0  0  0  0
  8  9  1  0  0  0  0
  9 10  1  0  0  0  0
  9 12  1  0  0  0  0
 10 11  1  0  0  0  0
 11 27  1  0  0  0  0
 12 13  2  0  0  0  0
 12 14  2  0  0  0  0
 12 15  1  0  0  0  0
 15 16  2  0  0  0  0
 15 20  1  0  0  0  0
 16 17  1  0  0  0  0
 16 28  1  0  0  0  0
 17 18  2  0  0  0  0
 17 29  1  0  0  0  0
 18 19  1  0  0  0  0
 18 21  1  0  0  0  0
 19 20  2  0  0  0  0
 19 30  1  0  0  0  0
 20 31  1  0  0  0  0
 21 32  1  0  0  0  0
 21 33  1  0  0  0  0
 21 34  1  0  0  0  0
M  END
>  <DRUGBANK_ID>
DB08265

>  <COMMON_NAME>
2-(TOLUENE-4-SULFONYL)-2H-BENZO[D][1,2,3]DIAZABORININ-1-OL

>  <UNII>
YEB3W2L5P3

$$$$
