DMA
 OpenBabel10282417123D

 26 25  0  0  0  0  0  0  0  0999 V2000
    1.0472   -0.0291   -0.0968 C   0  0  0  0  0  0  0  0  0  0  0  0
    0.5436    1.1835    0.4436 O   0  0  0  0  0  0  0  0  0  0  0  0
    0.4772   -0.2328   -1.4618 C   0  0  0  0  0  0  0  0  0  0  0  0
   -0.2837   -1.2745   -1.8238 C   0  0  0  0  0  0  0  0  0  0  0  0
   -0.7799   -1.4432   -3.2322 C   0  0  0  0  0  0  0  0  0  0  0  0
   -0.6859   -2.3409   -0.8409 C   0  0  0  0  0  0  0  0  0  0  0  0
    1.1203    1.3718    2.0638 P   0  0  1  0  0  0  0  0  0  0  0  0
    2.5154    1.7231    1.5365 O   0  0  0  0  0  0  0  0  0  0  0  0
    0.2853    2.7900    2.0650 O   0  0  0  0  0  0  0  0  0  0  0  0
    1.6969    1.5601    3.6839 O   0  0  0  0  0  0  0  0  0  0  0  0
    0.5162    2.4087    4.6213 P   0  0  0  0  0  0  0  0  0  0  0  0
   -0.5646    1.3975    4.2179 O   0  0  0  0  0  0  0  0  0  0  0  0
    1.2449    1.8173    5.9495 O   0  0  0  0  0  0  0  0  0  0  0  0
   -0.6645    3.2572    5.5587 O   0  0  0  0  0  0  0  0  0  0  0  0
    0.7838   -0.8362    0.5927 H   0  0  0  0  0  0  0  0  0  0  0  0
    2.1385    0.0040   -0.1663 H   0  0  0  0  0  0  0  0  0  0  0  0
    0.7564    0.5258   -2.1949 H   0  0  0  0  0  0  0  0  0  0  0  0
   -0.4173   -2.3876   -3.6505 H   0  0  0  0  0  0  0  0  0  0  0  0
   -1.8737   -1.4478   -3.2504 H   0  0  0  0  0  0  0  0  0  0  0  0
   -0.4368   -0.6361   -3.8886 H   0  0  0  0  0  0  0  0  0  0  0  0
    0.2017   -2.8383   -0.4338 H   0  0  0  0  0  0  0  0  0  0  0  0
   -1.2538   -1.8967   -0.0155 H   0  0  0  0  0  0  0  0  0  0  0  0
   -1.3138   -3.1075   -1.3001 H   0  0  0  0  0  0  0  0  0  0  0  0
   -0.6392    2.5676    1.8214 H   0  0  0  0  0  0  0  0  0  0  0  0
    1.2099    0.8426    5.8967 H   0  0  0  0  0  0  0  0  0  0  0  0
   -0.9720    4.0403    5.0704 H   0  0  0  0  0  0  0  0  0  0  0  0
  1  2  1  0  0  0  0
  1  3  1  0  0  0  0
  1 15  1  0  0  0  0
  1 16  1  0  0  0  0
  3  4  2  0  0  0  0
  3 17  1  0  0  0  0
  4  5  1  0  0  0  0
  4  6  1  0  0  0  0
  5 18  1  0  0  0  0
  5 19  1  0  0  0  0
  5 20  1  0  0  0  0
  6 21  1  0  0  0  0
  6 22  1  0  0  0  0
  6 23  1  0  0  0  0
  7  2  1  0  0  0  0
  7  8  2  6  0  0  0
  7  9  1  0  0  0  0
  7 10  1  0  0  0  0
  9 24  1  0  0  0  0
 10 11  1  0  0  0  0
 11 12  2  0  0  0  0
 11 13  1  0  0  0  0
 11 14  1  0  0  0  0
 13 25  1  0  0  0  0
 14 26  1  0  0  0  0
M  END
>  <DRUGBANK_ID>
DB01785

>  <SECONDARY_ACCESSION_NUMBERS>
EXPT01221

>  <COMMON_NAME>
Dimethylallyl Diphosphate

>  <CAS_NUMBER>
358-72-5

$$$$
