
 OpenBabel10282417173D

  4  0  0  0  0  0  0  0  0  0999 V2000
    1.0255   -0.0903    0.0346 Cl  0  5  0  0  0  0  0  0  0  0  0  0
    0.9385   -0.0429    0.0662 Cl  0  5  0  0  0  0  0  0  0  0  0  0
    1.0131   -0.0745    0.0654 Cl  0  5  0  0  0  0  0  0  0  0  0  0
    0.9929    0.0318    0.0945 Cr  0  1  0  0  0  0  0  0  0  0  0  0
M  CHG  4   1  -1   2  -1   3  -1   4   3
M  END
>  <DRUGBANK_ID>
DB09129

>  <COMMON_NAME>
Chromic chloride

>  <CAS_NUMBER>
10025-73-7

>  <UNII>
Z310X5O5RP

>  <SYNONYMS>
anhydrous chromium(III) chloride; Chromium chloride; Chromium trichloride; chromium(3+) trichloride; Chromium(III) chloride; Puratronic chromium chloride; Trichlorochromium

$$$$
