
 OpenBabel10282417183D

 55 58  0  0  1  0  0  0  0  0999 V2000
   -2.5623   -2.3909  -22.4491 C   0  0  0  0  0  0  0  0  0  0  0  0
    0.6129    0.0167  -17.2977 C   0  0  0  0  0  0  0  0  0  0  0  0
    0.3339   -0.0066  -24.0309 C   0  0  0  0  0  0  0  0  0  0  0  0
   -0.1684   -3.8642  -18.8398 C   0  0  0  0  0  0  0  0  0  0  0  0
    0.3809   -3.5497  -20.1804 C   0  0  0  0  0  0  0  0  0  0  0  0
    0.0342   -1.8445  -15.4697 C   0  0  0  0  0  0  0  0  0  0  0  0
   -0.6735   -1.6248  -16.6433 C   0  0  0  0  0  0  0  0  0  0  0  0
    0.8067   -1.1999  -22.0088 C   0  0  0  0  0  0  0  0  0  0  0  0
    1.3789   -3.2770  -16.9877 C   0  0  0  0  0  0  0  0  0  0  0  0
    0.4918    0.9039  -21.2768 C   0  0  0  0  0  0  0  0  0  0  0  0
   -3.6367    1.9518  -23.0606 C   0  0  0  0  0  0  0  0  0  0  0  0
   -1.2575   -1.0816  -22.2979 C   0  0  1  0  0  0  0  0  0  0  0  0
    0.5692   -2.8513  -17.9621 C   0  0  0  0  0  0  0  0  0  0  0  0
    1.5013   -2.1650  -16.0689 C   0  0  0  0  0  0  0  0  0  0  0  0
   -0.2120   -2.1642  -20.3795 C   0  0  1  0  0  0  0  0  0  0  0  0
   -0.2432   -2.0061  -21.9245 C   0  0  1  0  0  0  0  0  0  0  0  0
   -0.2231    0.3396  -19.9989 C   0  0  0  0  0  0  0  0  0  0  0  0
   -3.0675    0.5224  -23.1247 C   0  0  0  0  0  0  0  0  0  0  0  0
    0.3140   -1.0093  -19.4496 C   0  0  2  0  0  0  0  0  0  0  0  0
    0.1006   -1.3450  -17.9320 C   0  0  2  0  0  0  0  0  0  0  0  0
   -0.2455   -0.1288  -22.5529 C   0  0  2  0  0  0  0  0  0  0  0  0
   -1.6590    0.3264  -22.6019 C   0  0  2  0  0  0  0  0  0  0  0  0
   -3.9815    2.2774  -24.3990 O   0  0  0  0  0  0  0  0  0  0  0  0
    2.5182   -1.5051  -15.9212 O   0  0  0  0  0  0  0  0  0  0  0  0
   -1.3384    0.7339  -19.6473 O   0  0  0  0  0  0  0  0  0  0  0  0
   -3.7846   -0.3363  -23.6254 O   0  0  0  0  0  0  0  0  0  0  0  0
   -1.3834    1.6485  -22.2882 O   0  0  0  0  0  0  0  0  0  0  0  0
   -1.8000   -0.9376  -21.3295 H   0  0  0  0  0  0  0  0  0  0  0  0
   -1.2661   -2.1767  -20.1098 H   0  0  0  0  0  0  0  0  0  0  0  0
   -0.0352   -2.8027  -22.6582 H   0  0  0  0  0  0  0  0  0  0  0  0
    1.4160   -0.9030  -19.5555 H   0  0  0  0  0  0  0  0  0  0  0  0
   -3.5632   -2.0857  -22.7902 H   0  0  0  0  0  0  0  0  0  0  0  0
   -2.8892   -2.7078  -21.4319 H   0  0  0  0  0  0  0  0  0  0  0  0
   -2.3547   -3.2699  -23.0660 H   0  0  0  0  0  0  0  0  0  0  0  0
    1.6873    0.0014  -17.3484 H   0  0  0  0  0  0  0  0  0  0  0  0
    0.2543    0.9281  -17.7734 H   0  0  0  0  0  0  0  0  0  0  0  0
    0.2845    0.2467  -16.2611 H   0  0  0  0  0  0  0  0  0  0  0  0
    0.7287    0.9865  -24.2066 H   0  0  0  0  0  0  0  0  0  0  0  0
    1.1240   -0.7309  -24.2698 H   0  0  0  0  0  0  0  0  0  0  0  0
   -0.4644   -0.3158  -24.7011 H   0  0  0  0  0  0  0  0  0  0  0  0
    0.0016   -4.8827  -18.5049 H   0  0  0  0  0  0  0  0  0  0  0  0
   -1.2658   -3.7664  -18.9214 H   0  0  0  0  0  0  0  0  0  0  0  0
    1.4668   -3.7374  -20.2190 H   0  0  0  0  0  0  0  0  0  0  0  0
    0.0300   -4.1224  -21.0394 H   0  0  0  0  0  0  0  0  0  0  0  0
    0.6664   -2.0330  -14.5971 H   0  0  0  0  0  0  0  0  0  0  0  0
   -1.7378   -1.4828  -16.7945 H   0  0  0  0  0  0  0  0  0  0  0  0
    1.4678   -1.9836  -21.5763 H   0  0  0  0  0  0  0  0  0  0  0  0
    1.6312   -1.0948  -22.7508 H   0  0  0  0  0  0  0  0  0  0  0  0
    1.3763   -4.2863  -16.6212 H   0  0  0  0  0  0  0  0  0  0  0  0
    1.5866    0.9334  -21.2253 H   0  0  0  0  0  0  0  0  0  0  0  0
    0.3137    1.9701  -21.4627 H   0  0  0  0  0  0  0  0  0  0  0  0
   -4.4828    1.9825  -22.3712 H   0  0  0  0  0  0  0  0  0  0  0  0
   -2.9667    2.7489  -22.7337 H   0  0  0  0  0  0  0  0  0  0  0  0
   -3.2066    2.0307  -24.9365 H   0  0  0  0  0  0  0  0  0  0  0  0
   -1.0096    2.0646  -23.0867 H   0  0  0  0  0  0  0  0  0  0  0  0
  1 32  1  0  0  0  0
  1 33  1  0  0  0  0
  1 34  1  0  0  0  0
  2 35  1  0  0  0  0
  2 36  1  0  0  0  0
  2 37  1  0  0  0  0
  3 38  1  0  0  0  0
  3 39  1  0  0  0  0
  3 40  1  0  0  0  0
  4 41  1  0  0  0  0
  4 42  1  0  0  0  0
  5  4  1  0  0  0  0
  5 43  1  0  0  0  0
  5 44  1  0  0  0  0
  6 45  1  0  0  0  0
  7  6  2  0  0  0  0
  7 46  1  0  0  0  0
  8 47  1  0  0  0  0
  8 48  1  0  0  0  0
  9 49  1  0  0  0  0
 10 50  1  0  0  0  0
 10 51  1  0  0  0  0
 11 52  1  0  0  0  0
 11 53  1  0  0  0  0
 12  8  1  0  0  0  0
 12  1  1  0  0  0  0
 12 28  1  1  0  0  0
 13  4  1  0  0  0  0
 13  9  2  0  0  0  0
 14  6  1  0  0  0  0
 14  9  1  0  0  0  0
 15  5  1  0  0  0  0
 15 29  1  6  0  0  0
 16  8  1  0  0  0  0
 16 15  1  0  0  0  0
 16 30  1  6  0  0  0
 17 10  1  0  0  0  0
 18 11  1  0  0  0  0
 19 15  1  0  0  0  0
 19 17  1  0  0  0  0
 19 31  1  1  0  0  0
 20  7  1  0  0  0  0
 20 13  1  0  0  0  0
 20 19  1  0  0  0  0
 20  2  1  1  0  0  0
 21 10  1  0  0  0  0
 21 16  1  0  0  0  0
 21  3  1  6  0  0  0
 22 12  1  0  0  0  0
 22 21  1  0  0  0  0
 22 27  1  1  0  0  0
 22 18  1  0  0  0  0
 23 11  1  0  0  0  0
 23 54  1  0  0  0  0
 24 14  2  0  0  0  0
 25 17  2  0  0  0  0
 26 18  2  0  0  0  0
 27 55  1  0  0  0  0
M  END
>  <DRUGBANK_ID>
DB09383

>  <COMMON_NAME>
Meprednisone

>  <CAS_NUMBER>
1247-42-3

>  <UNII>
67U96J8P35

>  <SYNONYMS>
Meprednisone

$$$$
