
 OpenBabel10282417193D

 31 30  0  0  0  0  0  0  0  0999 V2000
    0.5441    0.5800    0.2917 C   0  0  0  0  0  0  0  0  0  0  0  0
   -0.1729    0.5345    1.5914 C   0  0  1  0  0  0  0  0  0  0  0  0
   -1.0481    1.7030    1.4499 N   0  0  0  0  0  0  0  0  0  0  0  0
   -0.7848   -0.8540    1.7621 C   0  0  0  0  0  0  0  0  0  0  0  0
    0.1965   -2.0389    1.8998 C   0  0  0  0  0  0  0  0  0  0  0  0
    1.5098   -1.9206    3.1661 S   0  0  0  0  0  0  0  0  0  0  0  0
    2.6983   -0.6530    2.5529 C   0  0  0  0  0  0  0  0  0  0  0  0
    3.5195   -0.9344    1.2642 C   0  0  0  0  0  0  0  0  0  0  0  0
    2.7811   -1.1078   -0.0140 N   0  0  0  0  0  0  0  0  0  0  0  0
    2.8432   -0.3297   -1.1656 C   0  0  0  0  0  0  0  0  0  0  0  0
    1.8506   -0.4963   -2.3375 C   0  0  0  0  0  0  0  0  0  0  0  0
    3.5681    0.7480   -1.1332 N   0  0  0  0  0  0  0  0  0  0  0  0
    0.0711    0.1006   -0.7140 O   0  0  0  0  0  0  0  0  0  0  0  0
    1.5568    1.4890    0.3966 O   0  0  0  0  0  0  0  0  0  0  0  0
    0.4945    0.7448    2.4169 H   0  0  0  0  0  0  0  0  0  0  0  0
   -1.3103    2.0493    2.3594 H   0  0  0  0  0  0  0  0  0  0  0  0
   -0.4262    2.4317    1.0524 H   0  0  0  0  0  0  0  0  0  0  0  0
   -1.4201   -0.8303    2.6491 H   0  0  0  0  0  0  0  0  0  0  0  0
   -1.4379   -1.0917    0.9100 H   0  0  0  0  0  0  0  0  0  0  0  0
   -0.4060   -2.9090    2.1993 H   0  0  0  0  0  0  0  0  0  0  0  0
    0.6185   -2.3665    0.9493 H   0  0  0  0  0  0  0  0  0  0  0  0
    2.2875    0.3556    2.5683 H   0  0  0  0  0  0  0  0  0  0  0  0
    3.4113   -0.5811    3.3898 H   0  0  0  0  0  0  0  0  0  0  0  0
    4.2352   -0.1067    1.1792 H   0  0  0  0  0  0  0  0  0  0  0  0
    4.1068   -1.8358    1.4585 H   0  0  0  0  0  0  0  0  0  0  0  0
    2.0700   -1.8241   -0.0125 H   0  0  0  0  0  0  0  0  0  0  0  0
    1.2802    0.4445   -2.4525 H   0  0  0  0  0  0  0  0  0  0  0  0
    2.3221   -0.6307   -3.3065 H   0  0  0  0  0  0  0  0  0  0  0  0
    1.1408   -1.3120   -2.1577 H   0  0  0  0  0  0  0  0  0  0  0  0
    3.3547    1.3218   -1.9660 H   0  0  0  0  0  0  0  0  0  0  0  0
    2.4438    1.0972    0.1948 H   0  0  0  0  0  0  0  0  0  0  0  0
  1  2  1  0  0  0  0
  1 13  2  0  0  0  0
  1 14  1  0  0  0  0
  2  3  1  0  0  0  0
  2  4  1  0  0  0  0
  2 15  1  1  0  0  0
  3 16  1  0  0  0  0
  3 17  1  0  0  0  0
  4  5  1  0  0  0  0
  4 18  1  0  0  0  0
  4 19  1  0  0  0  0
  5  6  1  0  0  0  0
  5 20  1  0  0  0  0
  5 21  1  0  0  0  0
  6  7  1  0  0  0  0
  7  8  1  0  0  0  0
  7 22  1  0  0  0  0
  7 23  1  0  0  0  0
  8  9  1  0  0  0  0
  8 24  1  0  0  0  0
  8 25  1  0  0  0  0
  9 10  1  0  0  0  0
  9 26  1  0  0  0  0
 10 11  1  0  0  0  0
 10 12  2  0  0  0  0
 11 27  1  0  0  0  0
 11 28  1  0  0  0  0
 11 29  1  0  0  0  0
 12 30  1  0  0  0  0
 14 31  1  0  0  0  0
M  END
>  <DRUGBANK_ID>
DB12237

>  <COMMON_NAME>
GW-274150

>  <CAS_NUMBER>
210354-22-6

>  <UNII>
0ZZF1V8G63

$$$$
