22F
 OpenBabel10282417163D

 23 24  0  0  0  0  0  0  0  0999 V2000
    2.1640   -0.0421   -0.0043 F   0  0  0  0  0  0  0  0  0  0  0  0
    0.8255   -0.0168   -0.0041 C   0  0  0  0  0  0  0  0  0  0  0  0
    0.1119   -1.2096   -0.0055 C   0  0  0  0  0  0  0  0  0  0  0  0
   -1.2873   -1.1790   -0.0132 C   0  0  0  0  0  0  0  0  0  0  0  0
    0.1692    1.2058    0.0052 C   0  0  0  0  0  0  0  0  0  0  0  0
   -1.2255    1.2397    0.0215 C   0  0  0  0  0  0  0  0  0  0  0  0
   -1.9686    0.0496   -0.0072 C   0  0  0  0  0  0  0  0  0  0  0  0
   -3.4639    0.0543    0.0037 C   0  0  0  0  0  0  0  0  0  0  0  0
   -4.0944   -0.9990    0.0652 O   0  0  0  0  0  0  0  0  0  0  0  0
   -4.2234    1.3234   -0.0202 C   0  0  0  0  0  0  0  0  0  0  0  0
   -4.0711    2.2249   -1.0729 C   0  0  0  0  0  0  0  0  0  0  0  0
   -4.7705    3.4148   -1.0045 C   0  0  0  0  0  0  0  0  0  0  0  0
   -5.5937    3.7402    0.0147 N   0  0  0  0  0  0  0  0  0  0  0  0
   -5.7449    2.8298    1.0027 C   0  0  0  0  0  0  0  0  0  0  0  0
   -5.0913    1.6117    1.0305 C   0  0  0  0  0  0  0  0  0  0  0  0
    0.6491   -2.1534    0.0006 H   0  0  0  0  0  0  0  0  0  0  0  0
   -1.8400   -2.1177   -0.0153 H   0  0  0  0  0  0  0  0  0  0  0  0
    0.7420    2.1278    0.0078 H   0  0  0  0  0  0  0  0  0  0  0  0
   -1.7030    2.2129    0.0640 H   0  0  0  0  0  0  0  0  0  0  0  0
   -3.4178    2.0196   -1.9130 H   0  0  0  0  0  0  0  0  0  0  0  0
   -4.6810    4.1646   -1.7858 H   0  0  0  0  0  0  0  0  0  0  0  0
   -6.4242    3.1229    1.7989 H   0  0  0  0  0  0  0  0  0  0  0  0
   -5.2440    0.9175    1.8496 H   0  0  0  0  0  0  0  0  0  0  0  0
  2  1  1  0  0  0  0
  2  5  1  0  0  0  0
  3  2  2  0  0  0  0
  3 16  1  0  0  0  0
  4  3  1  0  0  0  0
  4  7  2  0  0  0  0
  4 17  1  0  0  0  0
  5 18  1  0  0  0  0
  6  5  2  0  0  0  0
  6 19  1  0  0  0  0
  7  6  1  0  0  0  0
  8  7  1  0  0  0  0
  8  9  2  0  0  0  0
 10  8  1  0  0  0  0
 11 10  1  0  0  0  0
 11 20  1  0  0  0  0
 12 11  2  0  0  0  0
 12 21  1  0  0  0  0
 13 12  1  0  0  0  0
 14 13  2  0  0  0  0
 14 15  1  0  0  0  0
 14 22  1  0  0  0  0
 15 10  2  0  0  0  0
 15 23  1  0  0  0  0
M  END
>  <DRUGBANK_ID>
DB06917

>  <COMMON_NAME>
(4-fluorophenyl)(pyridin-4-yl)methanone

>  <UNII>
J88AAY34QE

$$$$
