F1L
 OpenBabel10282417163D

 52 53  0  0  0  0  0  0  0  0999 V2000
    1.0767   -0.0853   -0.0186 C   0  0  0  0  0  0  0  0  0  0  0  0
   -1.7922   -1.3254   -1.8225 C   0  0  0  0  0  0  0  0  0  0  0  0
   -0.0686   -0.5557   -3.2987 C   0  0  0  0  0  0  0  0  0  0  0  0
    0.9422   -0.5670   -2.3115 C   0  0  0  0  0  0  0  0  0  0  0  0
    2.2668   -0.2477   -2.6343 C   0  0  0  0  0  0  0  0  0  0  0  0
   -1.3968   -0.8505   -3.1037 O   0  0  0  0  0  0  0  0  0  0  0  0
    1.6423    0.0007   -4.9272 C   0  0  0  0  0  0  0  0  0  0  0  0
    0.9325    9.2410   -4.8995 C   0  0  0  0  0  0  0  0  0  0  0  0
   -0.1600    9.0173   -5.9520 C   0  0  0  0  0  0  0  0  0  0  0  0
    0.1810    7.9849   -7.0317 C   0  0  0  0  0  0  0  0  0  0  0  0
    0.4930    6.6322   -6.4278 C   0  0  0  0  0  0  0  0  0  0  0  0
   -1.2547    2.3389   -5.0890 C   0  0  0  0  0  0  0  0  0  0  0  0
   -1.4153    3.7767   -5.5790 C   0  0  0  0  0  0  0  0  0  0  0  0
   -0.1505    4.2657   -6.2811 C   0  0  0  0  0  0  0  0  0  0  0  0
    0.3532    1.9132   -6.8425 C   0  0  0  0  0  0  0  0  0  0  0  0
    0.2590    3.3168   -7.4008 C   0  0  0  0  0  0  0  0  0  0  0  0
    4.3745    0.5568   -4.3722 Br  0  0  0  0  0  0  0  0  0  0  0  0
    2.6079    0.0512   -3.9375 C   0  0  0  0  0  0  0  0  0  0  0  0
    0.6703   -0.9932   -1.0376 O   0  0  0  0  0  0  0  0  0  0  0  0
    0.2806   -0.2063   -4.6215 C   0  0  0  0  0  0  0  0  0  0  0  0
   -0.7612    0.0340   -5.7128 C   0  0  0  0  0  0  0  0  0  0  0  0
   -0.8729    1.4427   -6.1897 N   0  0  0  0  0  0  0  0  0  0  0  0
   -0.3346    5.6097   -6.8038 N   0  0  0  0  0  0  0  0  0  0  0  0
    1.4287    6.4684   -5.6425 O   0  0  0  0  0  0  0  0  0  0  0  0
    2.4783    9.8917   -5.6126 S   0  0  0  0  0  0  0  0  0  0  0  0
    0.6727   -0.4623    0.9251 H   0  0  0  0  0  0  0  0  0  0  0  0
    0.6692    0.9172   -0.1886 H   0  0  0  0  0  0  0  0  0  0  0  0
    2.1646   -0.0555    0.0790 H   0  0  0  0  0  0  0  0  0  0  0  0
   -1.2644   -2.2498   -1.5623 H   0  0  0  0  0  0  0  0  0  0  0  0
   -1.6633   -0.5440   -1.0666 H   0  0  0  0  0  0  0  0  0  0  0  0
   -2.8583   -1.5657   -1.8491 H   0  0  0  0  0  0  0  0  0  0  0  0
    3.0441   -0.2803   -1.8806 H   0  0  0  0  0  0  0  0  0  0  0  0
    1.9549    0.1878   -5.9502 H   0  0  0  0  0  0  0  0  0  0  0  0
    0.5811    9.9642   -4.1580 H   0  0  0  0  0  0  0  0  0  0  0  0
    1.1424    8.3267   -4.3387 H   0  0  0  0  0  0  0  0  0  0  0  0
   -0.3987    9.9757   -6.4319 H   0  0  0  0  0  0  0  0  0  0  0  0
   -1.0772    8.7001   -5.4378 H   0  0  0  0  0  0  0  0  0  0  0  0
    1.0510    8.2953   -7.6182 H   0  0  0  0  0  0  0  0  0  0  0  0
   -0.6490    7.9105   -7.7436 H   0  0  0  0  0  0  0  0  0  0  0  0
   -0.5006    2.3243   -4.2919 H   0  0  0  0  0  0  0  0  0  0  0  0
   -2.2027    2.0110   -4.6461 H   0  0  0  0  0  0  0  0  0  0  0  0
   -1.6353    4.4246   -4.7219 H   0  0  0  0  0  0  0  0  0  0  0  0
   -2.2698    3.8448   -6.2620 H   0  0  0  0  0  0  0  0  0  0  0  0
    0.6571    4.2792   -5.5343 H   0  0  0  0  0  0  0  0  0  0  0  0
    0.6551    1.2219   -7.6373 H   0  0  0  0  0  0  0  0  0  0  0  0
    1.1620    1.9930   -6.1153 H   0  0  0  0  0  0  0  0  0  0  0  0
   -0.4386    3.3552   -8.2424 H   0  0  0  0  0  0  0  0  0  0  0  0
    1.2489    3.6029   -7.7827 H   0  0  0  0  0  0  0  0  0  0  0  0
   -0.5396   -0.6214   -6.5660 H   0  0  0  0  0  0  0  0  0  0  0  0
   -1.7593   -0.2836   -5.3838 H   0  0  0  0  0  0  0  0  0  0  0  0
   -1.0196    5.7478   -7.5359 H   0  0  0  0  0  0  0  0  0  0  0  0
    2.7296    8.8685   -6.4471 H   0  0  0  0  0  0  0  0  0  0  0  0
  1 19  1  0  0  0  0
  1 26  1  0  0  0  0
  1 27  1  0  0  0  0
  1 28  1  0  0  0  0
  2  6  1  0  0  0  0
  2 29  1  0  0  0  0
  2 30  1  0  0  0  0
  2 31  1  0  0  0  0
  3  4  2  0  0  0  0
  3  6  1  0  0  0  0
  3 20  1  0  0  0  0
  4  5  1  0  0  0  0
  4 19  1  0  0  0  0
  5 18  2  0  0  0  0
  5 32  1  0  0  0  0
  7 18  1  0  0  0  0
  7 20  2  0  0  0  0
  7 33  1  0  0  0  0
  8  9  1  0  0  0  0
  8 25  1  0  0  0  0
  8 34  1  0  0  0  0
  8 35  1  0  0  0  0
  9 10  1  0  0  0  0
  9 36  1  0  0  0  0
  9 37  1  0  0  0  0
 10 11  1  0  0  0  0
 10 38  1  0  0  0  0
 10 39  1  0  0  0  0
 11 23  1  0  0  0  0
 11 24  2  0  0  0  0
 12 13  1  0  0  0  0
 12 22  1  0  0  0  0
 12 40  1  0  0  0  0
 12 41  1  0  0  0  0
 13 14  1  0  0  0  0
 13 42  1  0  0  0  0
 13 43  1  0  0  0  0
 14 16  1  0  0  0  0
 14 23  1  0  0  0  0
 14 44  1  0  0  0  0
 15 16  1  0  0  0  0
 15 22  1  0  0  0  0
 15 45  1  0  0  0  0
 15 46  1  0  0  0  0
 16 47  1  0  0  0  0
 16 48  1  0  0  0  0
 17 18  1  0  0  0  0
 20 21  1  0  0  0  0
 21 22  1  0  0  0  0
 21 49  1  0  0  0  0
 21 50  1  0  0  0  0
 23 51  1  0  0  0  0
 25 52  1  0  0  0  0
M  END
>  <DRUGBANK_ID>
DB07738

>  <COMMON_NAME>
N-[1-(5-bromo-2,3-dimethoxybenzyl)piperidin-4-yl]-4-sulfanylbutanamide

$$$$
