
 OpenBabel10282417183D

 87 91  0  0  0  0  0  0  0  0999 V2000
    1.0455   -0.0646    0.0476 C   0  0  0  0  0  0  0  0  0  0  0  0
    0.6510    1.2513    0.3510 N   0  0  0  0  0  0  0  0  0  0  0  0
   -0.2896    1.9513   -0.7723 C   0  0  0  0  0  0  0  0  0  0  0  0
   -1.7308    2.4522   -0.3369 C   0  0  0  0  0  0  0  0  0  0  0  0
   -1.5954    3.7220    0.3541 N   0  0  0  0  0  0  0  0  0  0  0  0
   -0.2100    3.9983    0.8825 C   0  0  0  0  0  0  0  0  0  0  0  0
    0.1634    4.4101    2.8283 C   0  0  0  0  0  0  0  0  0  0  0  0
   -0.5332    5.1455    1.7018 C   0  0  0  0  0  0  0  0  0  0  0  0
   -2.3768    5.8222    1.3590 C   0  0  0  0  0  0  0  0  0  0  0  0
   -2.4640    4.8561    0.2352 C   0  0  0  0  0  0  0  0  0  0  0  0
   -0.1715    5.2806    3.7398 O   0  0  0  0  0  0  0  0  0  0  0  0
   -0.8255    5.2291    4.9637 C   0  0  0  0  0  0  0  0  0  0  0  0
   -1.5253    4.2639    5.3247 O   0  0  0  0  0  0  0  0  0  0  0  0
   -0.7724    6.3497    5.8199 N   0  0  0  0  0  0  0  0  0  0  0  0
   -0.8076    8.2954    6.2488 C   0  0  0  0  0  0  0  0  0  0  0  0
   -1.3040    9.3980    5.4878 C   0  0  0  0  0  0  0  0  0  0  0  0
   -0.5770   10.5589    5.5201 C   0  0  0  0  0  0  0  0  0  0  0  0
    0.3019   10.8945    6.5815 C   0  0  0  0  0  0  0  0  0  0  0  0
    0.6240   10.1150    7.6829 C   0  0  0  0  0  0  0  0  0  0  0  0
    0.3132    8.8165    7.5362 C   0  0  0  0  0  0  0  0  0  0  0  0
    1.3780    7.7034    8.4770 C   0  0  0  0  0  0  0  0  0  0  0  0
    1.9399    6.3668    7.9930 C   0  0  0  0  0  0  0  0  0  0  0  0
    2.4061    5.3616    8.7866 C   0  0  0  0  0  0  0  0  0  0  0  0
    2.2700    5.5689   10.1308 C   0  0  0  0  0  0  0  0  0  0  0  0
    1.6993    6.7257   10.6591 C   0  0  0  0  0  0  0  0  0  0  0  0
    1.2509    7.7571    9.8601 C   0  0  0  0  0  0  0  0  0  0  0  0
    1.2333    1.6234    1.6184 C   0  0  0  0  0  0  0  0  0  0  0  0
    1.9350    0.9729    2.3882 O   0  0  0  0  0  0  0  0  0  0  0  0
    0.8730    2.8321    2.2667 C   0  0  0  0  0  0  0  0  0  0  0  0
   -1.0190    2.9443    2.6536 C   0  0  0  0  0  0  0  0  0  0  0  0
   -1.8337    4.6555    2.9704 C   0  0  0  0  0  0  0  0  0  0  0  0
   -0.8738    6.4658    2.7440 C   0  0  0  0  0  0  0  0  0  0  0  0
    1.0602    6.1739    2.3507 C   0  0  0  0  0  0  0  0  0  0  0  0
    1.8511    4.4606    1.9547 C   0  0  0  0  0  0  0  0  0  0  0  0
   -1.3140    7.7922    2.8240 C   0  0  0  0  0  0  0  0  0  0  0  0
   -1.1769    7.6171    4.1687 N   0  0  0  0  0  0  0  0  0  0  0  0
   -2.5731    7.0389    5.1001 C   0  0  0  0  0  0  0  0  0  0  0  0
   -2.4070    7.1002    6.9159 C   0  0  0  0  0  0  0  0  0  0  0  0
   -0.5158    6.8556    7.5612 C   0  0  0  0  0  0  0  0  0  0  0  0
    0.9429    7.4455    6.1150 C   0  0  0  0  0  0  0  0  0  0  0  0
    0.5073    7.5116    4.5966 C   0  0  0  0  0  0  0  0  0  0  0  0
   -1.1027    7.3081    8.9232 C   0  0  0  0  0  0  0  0  0  0  0  0
   -1.1332    6.4209    9.7755 O   0  0  0  0  0  0  0  0  0  0  0  0
   -1.5138    8.6642    9.1158 N   0  0  0  0  0  0  0  0  0  0  0  0
    0.6516   -0.3521   -0.9198 H   0  0  0  0  0  0  0  0  0  0  0  0
    0.6508   -0.6958    0.8453 H   0  0  0  0  0  0  0  0  0  0  0  0
    2.1355   -0.0564    0.0483 H   0  0  0  0  0  0  0  0  0  0  0  0
    0.2570    2.8314   -1.1481 H   0  0  0  0  0  0  0  0  0  0  0  0
   -0.4178    1.2895   -1.6181 H   0  0  0  0  0  0  0  0  0  0  0  0
   -2.4037    2.6911   -1.1530 H   0  0  0  0  0  0  0  0  0  0  0  0
   -2.1981    1.6422    0.2525 H   0  0  0  0  0  0  0  0  0  0  0  0
    0.5664    4.3368    0.1434 H   0  0  0  0  0  0  0  0  0  0  0  0
   -0.0948    2.9917    0.7984 H   0  0  0  0  0  0  0  0  0  0  0  0
    1.2582    4.4352    3.5607 H   0  0  0  0  0  0  0  0  0  0  0  0
   -0.0330    3.6085    3.8315 H   0  0  0  0  0  0  0  0  0  0  0  0
   -0.0573    6.0372    0.9781 H   0  0  0  0  0  0  0  0  0  0  0  0
   -3.0968    5.9392    2.3708 H   0  0  0  0  0  0  0  0  0  0  0  0
   -2.6975    6.8526    1.0934 H   0  0  0  0  0  0  0  0  0  0  0  0
   -3.4699    4.4815    0.2143 H   0  0  0  0  0  0  0  0  0  0  0  0
   -1.9317    5.4061   -0.5286 H   0  0  0  0  0  0  0  0  0  0  0  0
   -1.3045    5.7197    6.4571 H   0  0  0  0  0  0  0  0  0  0  0  0
   -1.9472    9.3432    4.6046 H   0  0  0  0  0  0  0  0  0  0  0  0
   -0.6854   11.1676    4.6235 H   0  0  0  0  0  0  0  0  0  0  0  0
    0.8063   11.8387    6.5151 H   0  0  0  0  0  0  0  0  0  0  0  0
    1.1906   10.3574    8.5583 H   0  0  0  0  0  0  0  0  0  0  0  0
    1.8074    5.9122    6.9768 H   0  0  0  0  0  0  0  0  0  0  0  0
    2.8411    4.4798    8.3263 H   0  0  0  0  0  0  0  0  0  0  0  0
    2.6125    4.8142   10.8101 H   0  0  0  0  0  0  0  0  0  0  0  0
    1.4865    6.8349   11.7131 H   0  0  0  0  0  0  0  0  0  0  0  0
    0.4153    8.2521   10.3511 H   0  0  0  0  0  0  0  0  0  0  0  0
   -1.6578    2.2094    2.1602 H   0  0  0  0  0  0  0  0  0  0  0  0
   -2.8559    4.3491    2.6225 H   0  0  0  0  0  0  0  0  0  0  0  0
    1.7736    6.4568    3.1652 H   0  0  0  0  0  0  0  0  0  0  0  0
    2.8638    4.3258    2.4103 H   0  0  0  0  0  0  0  0  0  0  0  0
   -0.5850    8.4365    2.3071 H   0  0  0  0  0  0  0  0  0  0  0  0
   -2.3395    7.9986    2.5869 H   0  0  0  0  0  0  0  0  0  0  0  0
   -2.7275    5.9539    5.1387 H   0  0  0  0  0  0  0  0  0  0  0  0
   -3.4865    7.1161    4.5221 H   0  0  0  0  0  0  0  0  0  0  0  0
   -2.9774    6.3035    7.3882 H   0  0  0  0  0  0  0  0  0  0  0  0
   -2.7838    8.1130    7.1426 H   0  0  0  0  0  0  0  0  0  0  0  0
   -0.2473    5.7669    7.6817 H   0  0  0  0  0  0  0  0  0  0  0  0
    1.1259    8.5669    5.8733 H   0  0  0  0  0  0  0  0  0  0  0  0
    2.0355    7.5478    6.3110 H   0  0  0  0  0  0  0  0  0  0  0  0
    1.0699    8.2518    4.0038 H   0  0  0  0  0  0  0  0  0  0  0  0
    0.9696    6.5400    4.5908 H   0  0  0  0  0  0  0  0  0  0  0  0
   -1.5065    9.3256    8.3284 H   0  0  0  0  0  0  0  0  0  0  0  0
   -0.9948    9.2032    9.8081 H   0  0  0  0  0  0  0  0  0  0  0  0
  1  2  1  0  0  0  0
  1 45  1  0  0  0  0
  1 46  1  0  0  0  0
  1 47  1  0  0  0  0
  2  3  1  0  0  0  0
  2 27  1  0  0  0  0
  3  4  1  0  0  0  0
  3 48  1  0  0  0  0
  3 49  1  0  0  0  0
  4  5  1  0  0  0  0
  4 50  1  0  0  0  0
  4 51  1  0  0  0  0
  5  6  1  0  0  0  0
  5 10  1  0  0  0  0
  6  7  1  0  0  0  0
  6 52  1  0  0  0  0
  6 53  1  0  0  0  0
  7  8  1  0  0  0  0
  7 54  1  0  0  0  0
  7 55  1  0  0  0  0
  8  9  1  0  0  0  0
  8 11  1  0  0  0  0
  8 56  1  0  0  0  0
  9 10  1  0  0  0  0
  9 57  1  0  0  0  0
  9 58  1  0  0  0  0
 10 59  1  0  0  0  0
 10 60  1  0  0  0  0
 11 12  1  0  0  0  0
 12 13  2  0  0  0  0
 12 14  1  0  0  0  0
 14 15  1  0  0  0  0
 14 61  1  0  0  0  0
 15 16  2  0  0  0  0
 15 20  1  0  0  0  0
 16 17  1  0  0  0  0
 16 62  1  0  0  0  0
 17 18  2  0  0  0  0
 17 63  1  0  0  0  0
 18 19  1  0  0  0  0
 18 64  1  0  0  0  0
 19 20  2  0  0  0  0
 19 65  1  0  0  0  0
 20 21  1  0  0  0  0
 21 22  2  0  0  0  0
 21 26  1  0  0  0  0
 22 23  1  0  0  0  0
 22 66  1  0  0  0  0
 23 24  2  0  0  0  0
 23 67  1  0  0  0  0
 24 25  1  0  0  0  0
 24 68  1  0  0  0  0
 25 26  2  0  0  0  0
 25 69  1  0  0  0  0
 26 70  1  0  0  0  0
 27 28  2  0  0  0  0
 27 29  1  0  0  0  0
 29 30  2  0  0  0  0
 29 34  1  0  0  0  0
 30 31  1  0  0  0  0
 30 71  1  0  0  0  0
 31 32  2  0  0  0  0
 31 72  1  0  0  0  0
 32 33  1  0  0  0  0
 32 35  1  0  0  0  0
 33 34  2  0  0  0  0
 33 73  1  0  0  0  0
 34 74  1  0  0  0  0
 35 36  1  0  0  0  0
 35 75  1  0  0  0  0
 35 76  1  0  0  0  0
 36 37  1  0  0  0  0
 36 41  1  0  0  0  0
 37 38  1  0  0  0  0
 37 77  1  0  0  0  0
 37 78  1  0  0  0  0
 38 39  1  0  0  0  0
 38 79  1  0  0  0  0
 38 80  1  0  0  0  0
 39 40  1  0  0  0  0
 39 42  1  0  0  0  0
 39 81  1  0  0  0  0
 40 41  1  0  0  0  0
 40 82  1  0  0  0  0
 40 83  1  0  0  0  0
 41 84  1  0  0  0  0
 41 85  1  0  0  0  0
 42 43  2  0  0  0  0
 42 44  1  0  0  0  0
 44 86  1  0  0  0  0
 44 87  1  0  0  0  0
M  END
>  <DRUGBANK_ID>
DB11855

>  <COMMON_NAME>
Revefenacin

>  <CAS_NUMBER>
864750-70-9

>  <UNII>
G2AE2VE07O

>  <SYNONYMS>
Revefenacin

$$$$
