
 OpenBabel10282417203D

 33 33  0  0  0  0  0  0  0  0999 V2000
    1.2150   -0.0060    0.0080 C   0  0  0  0  0  0  0  0  0  0  0  0
    1.2428   -1.4037   -0.0249 C   0  0  0  0  0  0  0  0  0  0  0  0
    0.0180   -2.0893   -0.0081 C   0  0  0  0  0  0  0  0  0  0  0  0
   -1.1914   -1.3858    0.0098 C   0  0  0  0  0  0  0  0  0  0  0  0
   -1.1966    0.0094    0.0060 C   0  0  0  0  0  0  0  0  0  0  0  0
    0.0100    0.7054    0.0074 C   0  0  0  0  0  0  0  0  0  0  0  0
   -2.4285    0.5962    0.0087 O   0  0  0  0  0  0  0  0  0  0  0  0
    0.1246    2.0705    0.0137 O   0  0  0  0  0  0  0  0  0  0  0  0
    2.3967    0.6886    0.0544 O   0  0  0  0  0  0  0  0  0  0  0  0
    2.5468   -2.1608   -0.0573 C   0  0  0  0  0  0  0  0  0  0  0  0
    3.3417   -1.8494   -1.2518 N   0  0  0  0  0  0  0  0  0  0  0  0
    4.5241   -2.6195   -1.2886 N   0  0  0  0  0  0  0  0  0  0  0  0
    4.7638   -3.4138   -2.4027 C   0  0  0  0  0  0  0  0  0  0  0  0
    6.1258   -4.1305   -2.3971 C   0  0  3  0  0  0  0  0  0  0  0  0
    3.9397   -3.5263   -3.3151 O   0  0  0  0  0  0  0  0  0  0  0  0
    5.9105   -5.5893   -2.3796 N   0  0  0  0  0  0  0  0  0  0  0  0
    6.8993   -3.7107   -3.6541 C   0  0  0  0  0  0  0  0  0  0  0  0
    7.2009   -2.3164   -3.6238 O   0  0  0  0  0  0  0  0  0  0  0  0
   -0.0062   -3.1775   -0.0079 H   0  0  0  0  0  0  0  0  0  0  0  0
   -2.1324   -1.9318    0.0217 H   0  0  0  0  0  0  0  0  0  0  0  0
   -2.3601    1.5568   -0.0397 H   0  0  0  0  0  0  0  0  0  0  0  0
   -0.7480    2.4840    0.0225 H   0  0  0  0  0  0  0  0  0  0  0  0
    2.1483    1.6299   -0.0050 H   0  0  0  0  0  0  0  0  0  0  0  0
    3.1133   -1.9114    0.8483 H   0  0  0  0  0  0  0  0  0  0  0  0
    2.3504   -3.2399   -0.0252 H   0  0  0  0  0  0  0  0  0  0  0  0
    2.7835   -2.0756   -2.0862 H   0  0  0  0  0  0  0  0  0  0  0  0
    5.2616   -2.3922   -0.6248 H   0  0  0  0  0  0  0  0  0  0  0  0
    6.6925   -3.8365   -1.5052 H   0  0  0  0  0  0  0  0  0  0  0  0
    6.8025   -6.0785   -2.3809 H   0  0  0  0  0  0  0  0  0  0  0  0
    5.4051   -5.8616   -1.5394 H   0  0  0  0  0  0  0  0  0  0  0  0
    7.8573   -4.2417   -3.6990 H   0  0  0  0  0  0  0  0  0  0  0  0
    6.3512   -3.9387   -4.5754 H   0  0  0  0  0  0  0  0  0  0  0  0
    6.3586   -1.8392   -3.7509 H   0  0  0  0  0  0  0  0  0  0  0  0
  1  9  1  0  0  0  0
  1  2  2  0  0  0  0
  2 10  1  0  0  0  0
  2  3  1  0  0  0  0
  3  4  2  0  0  0  0
  3 19  1  0  0  0  0
  4  5  1  0  0  0  0
  4 20  1  0  0  0  0
  5  6  2  0  0  0  0
  5  7  1  0  0  0  0
  6  1  1  0  0  0  0
  6  8  1  0  0  0  0
  7 21  1  0  0  0  0
  8 22  1  0  0  0  0
  9 23  1  0  0  0  0
 10 11  1  0  0  0  0
 10 24  1  0  0  0  0
 10 25  1  0  0  0  0
 11 12  1  0  0  0  0
 11 26  1  0  0  0  0
 12 13  1  0  0  0  0
 12 27  1  0  0  0  0
 13 14  1  0  0  0  0
 13 15  2  0  0  0  0
 14 16  1  0  0  0  0
 14 17  1  0  0  0  0
 14 28  1  0  0  0  0
 16 29  1  0  0  0  0
 16 30  1  0  0  0  0
 17 18  1  0  0  0  0
 17 31  1  0  0  0  0
 17 32  1  0  0  0  0
 18 33  1  0  0  0  0
M  END
>  <DRUGBANK_ID>
DB12783

>  <COMMON_NAME>
Benserazide

>  <CAS_NUMBER>
322-35-0

>  <UNII>
762OS3ZEJU

>  <SYNONYMS>
benserazida; Benserazide; benserazidum

$$$$
