
 OpenBabel10282417153D

111113  0  0  0  0  0  0  0  0999 V2000
    0.3188    0.1515   -0.1658 C   0  0  0  0  0  0  0  0  0  0  0  0
   -2.9031    0.1363    2.6575 C   0  0  0  0  0  0  0  0  0  0  0  0
   -1.3922   -3.2404    0.6874 C   0  0  0  0  0  0  0  0  0  0  0  0
    0.2960   -1.6939   -1.1482 C   0  0  3  0  0  0  0  0  0  0  0  0
   -1.6011    1.2209    2.1082 C   0  0  3  0  0  0  0  0  0  0  0  0
   -0.5817   -1.6499    1.9839 C   0  0  3  0  0  0  0  0  0  0  0  0
    0.0220   -0.1033    2.2944 C   0  0  3  0  0  0  0  0  0  0  0  0
   -1.6131   -0.8801   -0.1810 C   0  0  3  0  0  0  0  0  0  0  0  0
    1.0907   -1.1391    0.4686 C   0  0  3  0  0  0  0  0  0  0  0  0
    2.1337   -0.5217    1.1638 C   0  0  3  0  0  0  0  0  0  0  0  0
    1.7883    0.3051    2.4058 C   0  0  3  0  0  0  0  0  0  0  0  0
   -1.7018   -1.2535    1.1675 C   0  0  3  0  0  0  0  0  0  0  0  0
    0.9714    1.9350    2.6622 C   0  0  3  0  0  0  0  0  0  0  0  0
    2.0278    0.9959   -0.7491 C   0  0  3  0  0  0  0  0  0  0  0  0
   -0.3007   -3.1743    1.8805 C   0  0  3  0  0  0  0  0  0  0  0  0
    0.5749    2.1483    0.4161 C   0  0  3  0  0  0  0  0  0  0  0  0
    1.5857   -3.4304    0.9478 C   0  0  3  0  0  0  0  0  0  0  0  0
   -0.0599    1.4390    3.5827 C   0  0  3  0  0  0  0  0  0  0  0  0
    1.1436   -0.7598    3.3464 O   0  0  0  0  0  0  0  0  0  0  0  0
    0.2739   -2.7186    0.4287 O   0  0  0  0  0  0  0  0  0  0  0  0
    1.6727   -2.8582    2.5843 O   0  0  0  0  0  0  0  0  0  0  0  0
   -2.0139   -3.3281    3.2066 O   0  0  0  0  0  0  0  0  0  0  0  0
   -0.2031   -1.9022    3.4583 O   0  0  0  0  0  0  0  0  0  0  0  0
   -1.4904   -2.8973    5.4717 O   0  0  0  0  0  0  0  0  0  0  0  0
    1.9817   -2.9027   -2.4906 O   0  0  0  0  0  0  0  0  0  0  0  0
    3.3325   -2.5197   -0.5760 O   0  0  0  0  0  0  0  0  0  0  0  0
    2.9265   -4.9927   -0.4311 O   0  0  0  0  0  0  0  0  0  0  0  0
   -2.9291   -0.3321   -1.2639 O   0  0  0  0  0  0  0  0  0  0  0  0
   -0.7447   -0.6138   -2.5900 O   0  0  0  0  0  0  0  0  0  0  0  0
   -1.9988   -2.5711   -2.4054 O   0  0  0  0  0  0  0  0  0  0  0  0
    0.1782   -3.9141   -2.0233 O   0  0  0  0  0  0  0  0  0  0  0  0
   -1.4922   -5.0744    0.0071 O   0  0  0  0  0  0  0  0  0  0  0  0
   -2.0598   -4.8979   -2.2517 O   0  0  0  0  0  0  0  0  0  0  0  0
   -2.3921    1.2200    0.0008 O   0  0  0  0  0  0  0  0  0  0  0  0
   -0.3522    3.1526   -0.7382 O   0  0  0  0  0  0  0  0  0  0  0  0
   -0.6923    1.6265   -2.6336 O   0  0  0  0  0  0  0  0  0  0  0  0
   -0.4689    1.1625    5.5279 O   0  0  0  0  0  0  0  0  0  0  0  0
    0.1449   -1.3206    6.4302 O   0  0  0  0  0  0  0  0  0  0  0  0
    1.5061    0.0721    7.0866 O   0  0  0  0  0  0  0  0  0  0  0  0
    3.7012   -0.6357    1.1981 O   0  0  0  0  0  0  0  0  0  0  0  0
    3.0219   -0.1486   -0.3016 O   0  0  0  0  0  0  0  0  0  0  0  0
    2.7950    1.9043    2.1585 O   0  0  0  0  0  0  0  0  0  0  0  0
    2.7212    3.2341    0.5560 O   0  0  0  0  0  0  0  0  0  0  0  0
    4.5761    1.3688    1.4646 O   0  0  0  0  0  0  0  0  0  0  0  0
    5.1056    2.4654   -0.4857 O   0  0  0  0  0  0  0  0  0  0  0  0
    3.2933   -2.7079    3.5494 O   0  0  0  0  0  0  0  0  0  0  0  0
    0.5430   -1.9408    4.9619 O   0  0  0  0  0  0  0  0  0  0  0  0
    1.6029   -3.7510    5.9883 O   0  0  0  0  0  0  0  0  0  0  0  0
    0.4157   -3.1221    4.1111 O   0  0  0  0  0  0  0  0  0  0  0  0
    3.3069   -0.8278    3.7432 O   0  0  0  0  0  0  0  0  0  0  0  0
    2.5461   -1.5279    5.8579 O   0  0  0  0  0  0  0  0  0  0  0  0
    0.5799   -0.0640    1.2629 O   0  0  0  0  0  0  0  0  0  0  0  0
   -2.6863   -0.7616    4.1338 O   0  0  0  0  0  0  0  0  0  0  0  0
    0.2930   -4.2568   -0.1107 O   0  0  0  0  0  0  0  0  0  0  0  0
    1.4155   -2.3451   -0.7379 O   0  0  0  0  0  0  0  0  0  0  0  0
   -0.9601    2.2577    0.9790 O   0  0  0  0  0  0  0  0  0  0  0  0
   -1.2605   -0.0982    3.3313 O   0  0  0  0  0  0  0  0  0  0  0  0
    2.8242   -2.5242    1.2641 O   0  0  0  0  0  0  0  0  0  0  0  0
    0.8671    2.7595    1.5601 O   0  0  0  0  0  0  0  0  0  0  0  0
   -0.3883   -1.2543    0.4585 O   0  0  0  0  0  0  0  0  0  0  0  0
   -2.7165   -2.3934   -0.5927 O   0  0  0  0  0  0  0  0  0  0  0  0
    0.6215   -0.2150   -1.5045 O   0  0  0  0  0  0  0  0  0  0  0  0
    2.3523    0.6814    4.4047 O   0  0  0  0  0  0  0  0  0  0  0  0
   -0.5271    0.6270    0.9388 O   0  0  0  0  0  0  0  0  0  0  0  0
    3.2243    1.6199   -0.9392 O   0  0  0  0  0  0  0  0  0  0  0  0
    0.6115   -4.3490    3.0298 O   0  0  0  0  0  0  0  0  0  0  0  0
    0.8074    0.6337    4.2651 O   0  0  0  0  0  0  0  0  0  0  0  0
    1.1566   -1.5385    1.9602 P   0  0  0  0  0  0  0  0  0  0  0  0
   -1.7268   -2.1956    4.2740 S   0  0  0  0  0  0  0  0  0  0  0  0
    2.3534   -3.8330   -0.9769 S   0  0  0  0  0  0  0  0  0  0  0  0
   -1.4229   -1.4721   -1.7620 S   0  0  0  0  0  0  0  0  0  0  0  0
   -1.5542   -4.1838   -1.1795 S   0  0  0  0  0  0  0  0  0  0  0  0
   -0.8559    1.5962   -1.2698 S   0  0  0  0  0  0  0  0  0  0  0  0
    0.7536    0.0428    5.9507 S   0  0  0  0  0  0  0  0  0  0  0  0
    2.0183    1.0704    0.9224 S   0  0  0  0  0  0  0  0  0  0  0  0
    4.0634    2.1606    0.3340 S   0  0  0  0  0  0  0  0  0  0  0  0
    1.8426   -3.4616    4.6409 S   0  0  0  0  0  0  0  0  0  0  0  0
    2.0627   -1.3476    4.5551 S   0  0  0  0  0  0  0  0  0  0  0  0
    0.5527    0.9993   -0.9497 H   0  0  0  0  0  0  0  0  0  0  0  0
    1.3168   -0.0584   -0.2459 H   0  0  0  0  0  0  0  0  0  0  0  0
   -3.1576    1.1052    2.7446 H   0  0  0  0  0  0  0  0  0  0  0  0
   -3.2353   -0.5336    1.9619 H   0  0  0  0  0  0  0  0  0  0  0  0
   -2.1238   -3.2205    1.4710 H   0  0  0  0  0  0  0  0  0  0  0  0
   -1.5100   -2.5255    0.1591 H   0  0  0  0  0  0  0  0  0  0  0  0
    0.9650   -1.3421   -2.3777 H   0  0  0  0  0  0  0  0  0  0  0  0
   -0.6894    1.2341    2.3128 H   0  0  0  0  0  0  0  0  0  0  0  0
   -1.3766   -1.4535    2.7545 H   0  0  0  0  0  0  0  0  0  0  0  0
   -0.1287   -0.6623    2.9268 H   0  0  0  0  0  0  0  0  0  0  0  0
   -1.3870   -0.0210   -0.7087 H   0  0  0  0  0  0  0  0  0  0  0  0
    1.9096   -1.8279    0.4778 H   0  0  0  0  0  0  0  0  0  0  0  0
    2.6811   -0.8110    2.2135 H   0  0  0  0  0  0  0  0  0  0  0  0
    3.2327    0.4544    2.0530 H   0  0  0  0  0  0  0  0  0  0  0  0
   -2.4946   -1.6482    1.7134 H   0  0  0  0  0  0  0  0  0  0  0  0
    1.6214    2.6201    3.1265 H   0  0  0  0  0  0  0  0  0  0  0  0
    1.6793    0.5793   -2.1001 H   0  0  0  0  0  0  0  0  0  0  0  0
   -0.5842   -4.2147    1.6019 H   0  0  0  0  0  0  0  0  0  0  0  0
    0.9749    2.2956   -0.8580 H   0  0  0  0  0  0  0  0  0  0  0  0
    1.9462   -4.3729    1.1142 H   0  0  0  0  0  0  0  0  0  0  0  0
   -0.7164    2.3807    3.3155 H   0  0  0  0  0  0  0  0  0  0  0  0
    1.6348    0.1135    3.8466 H   0  0  0  0  0  0  0  0  0  0  0  0
   -0.2883   -2.2397   -0.0168 H   0  0  0  0  0  0  0  0  0  0  0  0
   -2.9082   -3.5563    3.1601 H   0  0  0  0  0  0  0  0  0  0  0  0
    1.0962   -2.8645   -2.0536 H   0  0  0  0  0  0  0  0  0  0  0  0
   -3.1464   -0.3347   -0.2055 H   0  0  0  0  0  0  0  0  0  0  0  0
    0.3489   -3.5501   -2.9715 H   0  0  0  0  0  0  0  0  0  0  0  0
   -2.0695    0.5019    0.5990 H   0  0  0  0  0  0  0  0  0  0  0  0
    0.3602    1.6778    5.1175 H   0  0  0  0  0  0  0  0  0  0  0  0
    3.2632   -1.8236    1.9063 H   0  0  0  0  0  0  0  0  0  0  0  0
    2.0834    3.4204   -0.2066 H   0  0  0  0  0  0  0  0  0  0  0  0
    3.5276   -3.1729    2.7154 H   0  0  0  0  0  0  0  0  0  0  0  0
   -0.1800   -2.5326    4.1461 H   0  0  0  0  0  0  0  0  0  0  0  0
  1 79  1  0  0  0  0
  1 80  1  0  0  0  0
  2 81  1  0  0  0  0
  2 82  1  0  0  0  0
  3 83  1  0  0  0  0
  3 84  1  0  0  0  0
  4  1  1  0  0  0  0
  4 85  1  0  0  0  0
  5  2  1  0  0  0  0
  5 86  1  0  0  0  0
  6  3  1  0  0  0  0
  6 87  1  0  0  0  0
  7  5  1  0  0  0  0
  7 88  1  0  0  0  0
  8  4  1  0  0  0  0
  8 89  1  0  0  0  0
  9  6  1  0  0  0  0
  9 90  1  0  0  0  0
 10  7  1  0  0  0  0
 10 91  1  0  0  0  0
 11  9  1  0  0  0  0
 11 92  1  0  0  0  0
 12  8  1  0  0  0  0
 12 93  1  0  0  0  0
 13 11  1  0  0  0  0
 13 94  1  0  0  0  0
 14 10  1  0  0  0  0
 14 95  1  0  0  0  0
 15 12  1  0  0  0  0
 15 96  1  0  0  0  0
 16 14  1  0  0  0  0
 16 97  1  0  0  0  0
 17 15  1  0  0  0  0
 17 98  1  0  0  0  0
 18 13  1  0  0  0  0
 18 99  1  0  0  0  0
 19100  1  0  0  0  0
 20101  1  0  0  0  0
 22102  1  0  0  0  0
 25103  1  0  0  0  0
 28104  1  0  0  0  0
 31105  1  0  0  0  0
 34106  1  0  0  0  0
 37107  1  0  0  0  0
 40108  1  0  0  0  0
 43109  1  0  0  0  0
 46110  1  0  0  0  0
 49111  1  0  0  0  0
 52  1  1  0  0  0  0
 53  2  1  0  0  0  0
 54  3  1  0  0  0  0
 55  4  1  0  0  0  0
 55 17  1  0  0  0  0
 56  5  1  0  0  0  0
 56 16  1  0  0  0  0
 57  6  1  0  0  0  0
 57 18  1  0  0  0  0
 58 10  1  0  0  0  0
 58 17  1  0  0  0  0
 59 13  1  0  0  0  0
 59 16  1  0  0  0  0
 60  7  1  0  0  0  0
 61  8  1  0  0  0  0
 62  9  1  0  0  0  0
 63 11  1  0  0  0  0
 64 12  1  0  0  0  0
 65 14  1  0  0  0  0
 66 15  1  0  0  0  0
 67 18  1  0  0  0  0
 68 19  1  0  0  0  0
 68 20  1  0  0  0  0
 68 21  2  0  0  0  0
 68 52  1  0  0  0  0
 69 22  1  0  0  0  0
 69 23  2  0  0  0  0
 69 24  2  0  0  0  0
 69 53  1  0  0  0  0
 70 25  1  0  0  0  0
 70 26  2  0  0  0  0
 70 27  2  0  0  0  0
 70 54  1  0  0  0  0
 71 28  1  0  0  0  0
 71 29  2  0  0  0  0
 71 30  2  0  0  0  0
 71 60  1  0  0  0  0
 72 31  1  0  0  0  0
 72 32  2  0  0  0  0
 72 33  2  0  0  0  0
 72 61  1  0  0  0  0
 73 34  1  0  0  0  0
 73 35  2  0  0  0  0
 73 36  2  0  0  0  0
 73 62  1  0  0  0  0
 74 37  1  0  0  0  0
 74 38  2  0  0  0  0
 74 39  2  0  0  0  0
 74 63  1  0  0  0  0
 75 40  1  0  0  0  0
 75 41  2  0  0  0  0
 75 42  2  0  0  0  0
 75 64  1  0  0  0  0
 76 43  1  0  0  0  0
 76 44  2  0  0  0  0
 76 45  2  0  0  0  0
 76 65  1  0  0  0  0
 77 46  1  0  0  0  0
 77 47  2  0  0  0  0
 77 48  2  0  0  0  0
 77 66  1  0  0  0  0
 78 49  1  0  0  0  0
 78 50  2  0  0  0  0
 78 51  2  0  0  0  0
 78 67  1  0  0  0  0
M  END
>  <DRUGBANK_ID>
DB05808

>  <COMMON_NAME>
Muparfostat

>  <CAS_NUMBER>
1020105-89-8

>  <UNII>
P2BKS6T40H

>  <SYNONYMS>
.ALPHA.-D-MANNAN, (1->3)-, 6-(DIHYDROGEN PHOSPHATE) TRIS(HYDROGEN SULFATE); Heparanase inhibitor PI-88; Mannopentaose phosphate sulfate; Phosphomannopentaose sulfate; Sulfated mannopentaose phosphate

$$$$
