
 OpenBabel10282417203D

 45 47  0  0  0  0  0  0  0  0999 V2000
   -2.4302    0.0175   -0.1333 C   0  0  0  0  0  0  0  0  0  0  0  0
    6.8194    3.5185   -0.5342 C   0  0  0  0  0  0  0  0  0  0  0  0
    4.3334   -0.1616    4.3619 C   0  0  0  0  0  0  0  0  0  0  0  0
    7.4046    2.2528   -0.5127 C   0  0  0  0  0  0  0  0  0  0  0  0
    5.4380    3.6448   -0.6400 C   0  0  0  0  0  0  0  0  0  0  0  0
    3.5448   -1.1583    3.8154 C   0  0  0  0  0  0  0  0  0  0  0  0
    4.7457    0.8942    3.5614 C   0  0  0  0  0  0  0  0  0  0  0  0
    6.6093    1.1070   -0.5928 C   0  0  0  0  0  0  0  0  0  0  0  0
    4.6457    2.5024   -0.7249 C   0  0  0  0  0  0  0  0  0  0  0  0
    3.2149   -1.1321    2.4543 C   0  0  0  0  0  0  0  0  0  0  0  0
    4.3196    0.9550    2.2337 C   0  0  0  0  0  0  0  0  0  0  0  0
    1.0693   -1.2651    0.1934 C   0  0  0  0  0  0  0  0  0  0  0  0
    1.1129    1.2436    0.2417 C   0  0  0  0  0  0  0  0  0  0  0  0
   -0.3754   -1.2110   -0.2721 C   0  0  0  0  0  0  0  0  0  0  0  0
   -0.3425    1.2122   -0.2139 C   0  0  0  0  0  0  0  0  0  0  0  0
    4.3396   -0.0173   -0.7223 C   0  0  0  0  0  0  0  0  0  0  0  0
    5.2151    1.2192   -0.6926 C   0  0  0  0  0  0  0  0  0  0  0  0
    3.5803   -0.0631    1.6251 C   0  0  0  0  0  0  0  0  0  0  0  0
    1.8527   -0.0173   -0.2096 C   0  0  0  0  0  0  0  0  0  0  0  0
   -1.0228   -0.0017    0.2482 N   0  0  0  0  0  0  0  0  0  0  0  0
    3.2514   -0.0119    0.2737 N   0  0  0  0  0  0  0  0  0  0  0  0
   -2.9317    0.8952    0.2871 H   0  0  0  0  0  0  0  0  0  0  0  0
   -2.5521    0.0302   -1.2215 H   0  0  0  0  0  0  0  0  0  0  0  0
   -2.9440   -0.8639    0.2653 H   0  0  0  0  0  0  0  0  0  0  0  0
    7.4379    4.4077   -0.4539 H   0  0  0  0  0  0  0  0  0  0  0  0
    4.6307   -0.1988    5.4047 H   0  0  0  0  0  0  0  0  0  0  0  0
    8.4832    2.1574   -0.4188 H   0  0  0  0  0  0  0  0  0  0  0  0
    4.9704    4.6251   -0.6316 H   0  0  0  0  0  0  0  0  0  0  0  0
    3.1950   -1.9828    4.4324 H   0  0  0  0  0  0  0  0  0  0  0  0
    5.3847    1.6765    3.9512 H   0  0  0  0  0  0  0  0  0  0  0  0
    7.0809    0.1282   -0.5421 H   0  0  0  0  0  0  0  0  0  0  0  0
    3.5673    2.6129   -0.7253 H   0  0  0  0  0  0  0  0  0  0  0  0
    2.6873   -1.9901    2.0631 H   0  0  0  0  0  0  0  0  0  0  0  0
    4.5808    1.8549    1.6901 H   0  0  0  0  0  0  0  0  0  0  0  0
    1.0068   -1.3423    1.2800 H   0  0  0  0  0  0  0  0  0  0  0  0
    1.5628   -2.1682   -0.1838 H   0  0  0  0  0  0  0  0  0  0  0  0
    1.1596    1.3469    1.3323 H   0  0  0  0  0  0  0  0  0  0  0  0
    1.5861    2.1369   -0.1764 H   0  0  0  0  0  0  0  0  0  0  0  0
   -0.8820   -2.0977    0.1304 H   0  0  0  0  0  0  0  0  0  0  0  0
   -0.4306   -1.2634   -1.3654 H   0  0  0  0  0  0  0  0  0  0  0  0
   -0.3867    1.2859   -1.3083 H   0  0  0  0  0  0  0  0  0  0  0  0
   -0.8398    2.1007    0.1931 H   0  0  0  0  0  0  0  0  0  0  0  0
    4.9416   -0.9253   -0.5880 H   0  0  0  0  0  0  0  0  0  0  0  0
    3.9364   -0.0845   -1.7416 H   0  0  0  0  0  0  0  0  0  0  0  0
    1.8649    0.0026   -1.3098 H   0  0  0  0  0  0  0  0  0  0  0  0
  1 22  1  0  0  0  0
  1 23  1  0  0  0  0
  1 24  1  0  0  0  0
  2 25  1  0  0  0  0
  3 26  1  0  0  0  0
  4  2  2  0  0  0  0
  4 27  1  0  0  0  0
  5  2  1  0  0  0  0
  5 28  1  0  0  0  0
  6  3  2  0  0  0  0
  6 29  1  0  0  0  0
  7  3  1  0  0  0  0
  7 30  1  0  0  0  0
  8  4  1  0  0  0  0
  8 31  1  0  0  0  0
  9  5  2  0  0  0  0
  9 32  1  0  0  0  0
 10  6  1  0  0  0  0
 10 33  1  0  0  0  0
 11  7  2  0  0  0  0
 11 34  1  0  0  0  0
 12 35  1  0  0  0  0
 12 36  1  0  0  0  0
 13 37  1  0  0  0  0
 13 38  1  0  0  0  0
 14 12  1  0  0  0  0
 14 39  1  0  0  0  0
 14 40  1  0  0  0  0
 15 13  1  0  0  0  0
 15 41  1  0  0  0  0
 15 42  1  0  0  0  0
 16 43  1  0  0  0  0
 16 44  1  0  0  0  0
 17  8  2  0  0  0  0
 17  9  1  0  0  0  0
 17 16  1  0  0  0  0
 18 10  2  0  0  0  0
 18 11  1  0  0  0  0
 19 12  1  0  0  0  0
 19 13  1  0  0  0  0
 19 45  1  0  0  0  0
 20  1  1  0  0  0  0
 20 14  1  0  0  0  0
 20 15  1  0  0  0  0
 21 16  1  0  0  0  0
 21 18  1  0  0  0  0
 21 19  1  0  0  0  0
M  END
>  <DRUGBANK_ID>
DB13489

>  <COMMON_NAME>
Bamipine

>  <CAS_NUMBER>
4945-47-5

>  <UNII>
Y6BHZ28O92

>  <SYNONYMS>
Bamipine

$$$$
