TFL
 OpenBabel10282417173D

 37 39  0  0  0  0  0  0  0  0999 V2000
    1.2659   -0.2025    0.0285 C   0  0  0  0  0  0  0  0  0  0  0  0
    0.3810   -1.2757   -0.0106 C   0  0  0  0  0  0  0  0  0  0  0  0
   -1.0264   -1.1362   -0.1206 C   0  0  0  0  0  0  0  0  0  0  0  0
   -1.7272    0.0848   -0.2159 C   0  0  0  0  0  0  0  0  0  0  0  0
   -0.8594    1.1931   -0.1149 C   0  0  0  0  0  0  0  0  0  0  0  0
    0.5996    1.0383   -0.0348 C   0  0  0  0  0  0  0  0  0  0  0  0
   -3.2686    0.0043   -0.3408 C   0  0  0  0  0  0  0  0  0  0  0  0
   -4.2176    0.6004   -1.1096 N   0  3  0  0  0  0  0  0  0  0  0  0
   -5.5830    0.1586   -0.9245 C   0  0  0  0  0  0  0  0  0  0  0  0
   -4.0103   -1.3527    0.4220 S   0  0  0  0  0  0  0  0  0  0  0  0
   -5.5814   -0.9221   -0.0356 C   0  0  0  0  0  0  0  0  0  0  0  0
   -6.7180   -1.5894    0.4114 C   0  0  0  0  0  0  0  0  0  0  0  0
   -7.9632   -1.1748    0.0042 C   0  0  0  0  0  0  0  0  0  0  0  0
   -8.0740   -0.1318   -0.9111 C   0  0  0  0  0  0  0  0  0  0  0  0
   -6.8927    0.5188   -1.4246 C   0  0  0  0  0  0  0  0  0  0  0  0
   -9.0616   -1.8010    0.4968 O   0  0  0  0  0  0  0  0  0  0  0  0
    2.6394   -0.4061    0.1236 N   0  0  0  0  0  0  0  0  0  0  0  0
    3.6519    0.6483    0.2246 C   0  0  0  0  0  0  0  0  0  0  0  0
    3.2049   -1.7640    0.2802 C   0  0  0  0  0  0  0  0  0  0  0  0
   -3.8538    1.5225   -2.1748 C   0  0  0  0  0  0  0  0  0  0  0  0
    0.7539   -2.2956    0.0364 H   0  0  0  0  0  0  0  0  0  0  0  0
   -1.5564   -2.0852   -0.1093 H   0  0  0  0  0  0  0  0  0  0  0  0
   -1.2168    2.2207   -0.0407 H   0  0  0  0  0  0  0  0  0  0  0  0
    1.2003    1.9493   -0.0221 H   0  0  0  0  0  0  0  0  0  0  0  0
   -6.6021   -2.4175    1.1080 H   0  0  0  0  0  0  0  0  0  0  0  0
   -9.0875    0.1580   -1.2102 H   0  0  0  0  0  0  0  0  0  0  0  0
   -7.0968    1.2862   -2.1832 H   0  0  0  0  0  0  0  0  0  0  0  0
   -8.7761   -2.5466    1.0683 H   0  0  0  0  0  0  0  0  0  0  0  0
    4.1865    0.5705    1.1814 H   0  0  0  0  0  0  0  0  0  0  0  0
    4.4026    0.5218   -0.5680 H   0  0  0  0  0  0  0  0  0  0  0  0
    3.2632    1.6623    0.1450 H   0  0  0  0  0  0  0  0  0  0  0  0
    2.8114   -2.2599    1.1752 H   0  0  0  0  0  0  0  0  0  0  0  0
    3.0034   -2.3835   -0.6011 H   0  0  0  0  0  0  0  0  0  0  0  0
    4.2986   -1.7456    0.3977 H   0  0  0  0  0  0  0  0  0  0  0  0
   -3.4918    2.2253   -1.4005 H   0  0  0  0  0  0  0  0  0  0  0  0
   -3.2634    0.7130   -2.6622 H   0  0  0  0  0  0  0  0  0  0  0  0
   -3.1264    2.1303   -2.7384 H   0  0  0  0  0  0  0  0  0  0  0  0
  1  2  1  0  0  0  0
  1  6  2  0  0  0  0
  1 17  1  0  0  0  0
  2  3  2  0  0  0  0
  2 21  1  0  0  0  0
  3  4  1  0  0  0  0
  3 22  1  0  0  0  0
  4  5  2  0  0  0  0
  4  7  1  0  0  0  0
  5  6  1  0  0  0  0
  5 23  1  0  0  0  0
  6 24  1  0  0  0  0
  7  8  2  0  0  0  0
  7 10  1  0  0  0  0
  8  9  1  0  0  0  0
  8 20  1  0  0  0  0
  9 11  1  0  0  0  0
  9 15  2  0  0  0  0
 10 11  1  0  0  0  0
 11 12  2  0  0  0  0
 12 13  1  0  0  0  0
 12 25  1  0  0  0  0
 13 14  2  0  0  0  0
 13 16  1  0  0  0  0
 14 15  1  0  0  0  0
 14 26  1  0  0  0  0
 15 27  1  0  0  0  0
 16 28  1  0  0  0  0
 17 18  1  0  0  0  0
 17 19  1  0  0  0  0
 18 29  1  0  0  0  0
 18 30  1  0  0  0  0
 18 31  1  0  0  0  0
 19 32  1  0  0  0  0
 19 33  1  0  0  0  0
 19 34  1  0  0  0  0
 20 35  1  0  0  0  0
 20 36  1  0  0  0  0
 20 37  1  0  0  0  0
M  CHG  1   8   1
M  END
>  <DRUGBANK_ID>
DB08615

>  <COMMON_NAME>
2-[4-(DIMETHYLAMINO)PHENYL]-6-HYDROXY-3-METHYL-1,3-BENZOTHIAZOL-3-IUM

$$$$
