
 OpenBabel10282417233D

 58 61  0  0  0  0  0  0  0  0999 V2000
    0.6888   -0.1024   -0.0759 C   0  0  0  0  0  0  0  0  0  0  0  0
    0.3419    0.3406   -1.3848 O   0  0  0  0  0  0  0  0  0  0  0  0
    0.8397    1.5265   -1.8598 C   0  0  0  0  0  0  0  0  0  0  0  0
    2.1418    2.0241   -1.7953 C   0  0  0  0  0  0  0  0  0  0  0  0
    2.5122    3.1765   -2.5452 C   0  0  0  0  0  0  0  0  0  0  0  0
    1.5807    3.8854   -3.3182 C   0  0  0  0  0  0  0  0  0  0  0  0
    1.9687    5.0758   -4.1878 C   0  0  0  0  0  0  0  0  0  0  0  0
    1.8111    4.7938   -5.7099 C   0  0  0  0  0  0  0  0  0  0  0  0
    0.4280    4.8966   -6.2346 N   0  0  0  0  0  0  0  0  0  0  0  0
    0.4022    4.7462   -7.6959 C   0  0  0  0  0  0  0  0  0  0  0  0
   -0.4788    3.8889   -5.6506 C   0  0  0  0  0  0  0  0  0  0  0  0
   -0.7650    4.1345   -4.1675 C   0  0  0  0  0  0  0  0  0  0  0  0
    0.2610    3.4262   -3.3220 C   0  0  0  0  0  0  0  0  0  0  0  0
   -0.0848    2.2464   -2.6300 C   0  0  0  0  0  0  0  0  0  0  0  0
    3.3591    1.1805   -0.8285 S   0  0  0  0  0  0  0  0  0  0  0  0
    3.0152    1.3238    0.5673 O   0  0  0  0  0  0  0  0  0  0  0  0
    3.5284   -0.1325   -1.4499 O   0  0  0  0  0  0  0  0  0  0  0  0
    4.9024    1.9725   -0.9466 C   0  0  0  0  0  0  0  0  0  0  0  0
    5.0585    3.2924   -0.5151 C   0  0  0  0  0  0  0  0  0  0  0  0
    6.2506    3.9610   -0.7898 C   0  0  0  0  0  0  0  0  0  0  0  0
    7.3073    3.2690   -1.3737 C   0  0  0  0  0  0  0  0  0  0  0  0
    8.4761    3.9520   -1.5719 O   0  0  0  0  0  0  0  0  0  0  0  0
    9.5915    3.2450   -2.1560 C   0  0  0  0  0  0  0  0  0  0  0  0
   10.2016    2.2084   -1.2257 C   0  0  0  0  0  0  0  0  0  0  0  0
   10.9423    2.5701   -0.0999 C   0  0  0  0  0  0  0  0  0  0  0  0
   11.4023    1.5751    0.7714 C   0  0  0  0  0  0  0  0  0  0  0  0
   10.9490    0.2625    0.6372 C   0  0  0  0  0  0  0  0  0  0  0  0
   11.4839   -0.9708    1.7054 Cl  0  0  0  0  0  0  0  0  0  0  0  0
   10.1200   -0.0814   -0.4117 C   0  0  0  0  0  0  0  0  0  0  0  0
    9.9306    0.8438   -1.4249 C   0  0  0  0  0  0  0  0  0  0  0  0
    7.1135    1.9286   -1.6889 C   0  0  0  0  0  0  0  0  0  0  0  0
    5.9382    1.2574   -1.4836 C   0  0  0  0  0  0  0  0  0  0  0  0
    0.1071   -0.9946    0.1669 H   0  0  0  0  0  0  0  0  0  0  0  0
    0.4873    0.6706    0.6713 H   0  0  0  0  0  0  0  0  0  0  0  0
    1.7064   -0.4756   -0.0140 H   0  0  0  0  0  0  0  0  0  0  0  0
    3.5405    3.5242   -2.5668 H   0  0  0  0  0  0  0  0  0  0  0  0
    3.0066    5.3709   -3.9808 H   0  0  0  0  0  0  0  0  0  0  0  0
    1.3729    5.9555   -3.9041 H   0  0  0  0  0  0  0  0  0  0  0  0
    2.2433    3.8139   -5.9497 H   0  0  0  0  0  0  0  0  0  0  0  0
    2.4178    5.5423   -6.2394 H   0  0  0  0  0  0  0  0  0  0  0  0
    0.7223    3.7474   -8.0150 H   0  0  0  0  0  0  0  0  0  0  0  0
   -0.6158    4.9093   -8.0737 H   0  0  0  0  0  0  0  0  0  0  0  0
    1.0337    5.4921   -8.1888 H   0  0  0  0  0  0  0  0  0  0  0  0
   -1.4443    3.9466   -6.1677 H   0  0  0  0  0  0  0  0  0  0  0  0
   -0.0904    2.8745   -5.8208 H   0  0  0  0  0  0  0  0  0  0  0  0
   -1.7687    3.7761   -3.9165 H   0  0  0  0  0  0  0  0  0  0  0  0
   -0.7759    5.2083   -3.9358 H   0  0  0  0  0  0  0  0  0  0  0  0
   -1.1015    1.8648   -2.7118 H   0  0  0  0  0  0  0  0  0  0  0  0
    4.2447    3.7950    0.0011 H   0  0  0  0  0  0  0  0  0  0  0  0
    6.3431    5.0157   -0.5498 H   0  0  0  0  0  0  0  0  0  0  0  0
    9.2990    2.8080   -3.1210 H   0  0  0  0  0  0  0  0  0  0  0  0
   10.3521    3.9965   -2.3970 H   0  0  0  0  0  0  0  0  0  0  0  0
   11.1775    3.6133    0.0978 H   0  0  0  0  0  0  0  0  0  0  0  0
   12.0928    1.8296    1.5685 H   0  0  0  0  0  0  0  0  0  0  0  0
    9.6431   -1.0558   -0.4718 H   0  0  0  0  0  0  0  0  0  0  0  0
    9.4688    0.4891   -2.3427 H   0  0  0  0  0  0  0  0  0  0  0  0
    7.8573    1.3163   -2.1291 H   0  0  0  0  0  0  0  0  0  0  0  0
    5.8642    0.2061   -1.7551 H   0  0  0  0  0  0  0  0  0  0  0  0
  1  2  1  0  0  0  0
  1 33  1  0  0  0  0
  1 34  1  0  0  0  0
  1 35  1  0  0  0  0
  2  3  1  0  0  0  0
  3  4  2  0  0  0  0
  3 14  1  0  0  0  0
  4  5  1  0  0  0  0
  4 15  1  0  0  0  0
  5  6  2  0  0  0  0
  5 36  1  0  0  0  0
  6  7  1  0  0  0  0
  6 13  1  0  0  0  0
  7  8  1  0  0  0  0
  7 37  1  0  0  0  0
  7 38  1  0  0  0  0
  8  9  1  0  0  0  0
  8 39  1  0  0  0  0
  8 40  1  0  0  0  0
  9 10  1  0  0  0  0
  9 11  1  0  0  0  0
 10 41  1  0  0  0  0
 10 42  1  0  0  0  0
 10 43  1  0  0  0  0
 11 12  1  0  0  0  0
 11 44  1  0  0  0  0
 11 45  1  0  0  0  0
 12 13  1  0  0  0  0
 12 46  1  0  0  0  0
 12 47  1  0  0  0  0
 13 14  2  0  0  0  0
 14 48  1  0  0  0  0
 15 16  2  0  0  0  0
 15 17  2  0  0  0  0
 15 18  1  0  0  0  0
 18 19  2  0  0  0  0
 18 32  1  0  0  0  0
 19 20  1  0  0  0  0
 19 49  1  0  0  0  0
 20 21  2  0  0  0  0
 20 50  1  0  0  0  0
 21 22  1  0  0  0  0
 21 31  1  0  0  0  0
 22 23  1  0  0  0  0
 23 24  1  0  0  0  0
 23 51  1  0  0  0  0
 23 52  1  0  0  0  0
 24 25  2  0  0  0  0
 24 30  1  0  0  0  0
 25 26  1  0  0  0  0
 25 53  1  0  0  0  0
 26 27  2  0  0  0  0
 26 54  1  0  0  0  0
 27 28  1  0  0  0  0
 27 29  1  0  0  0  0
 29 30  2  0  0  0  0
 29 55  1  0  0  0  0
 30 56  1  0  0  0  0
 31 32  2  0  0  0  0
 31 57  1  0  0  0  0
 32 58  1  0  0  0  0
M  END
>  <DRUGBANK_ID>
DB16042

>  <COMMON_NAME>
SB-773812

>  <CAS_NUMBER>
630407-66-8

>  <UNII>
ZNP5SNF9FY

$$$$
