
 OpenBabel10282417103D

 71 72  0  0  1  0  0  0  0  0999 V2000
   -1.5603   -2.6170   -3.7806 C   0  0  2  0  0  0  0  0  0  0  0  0
   -1.6229   -1.1295   -4.1738 C   0  0  1  0  0  0  0  0  0  0  0  0
   -0.5566   -0.8482   -5.2744 C   0  0  2  0  0  0  0  0  0  0  0  0
   -0.9819   -3.2879   -4.9887 C   0  0  0  0  0  0  0  0  0  0  0  0
   -0.0284   -2.2986   -5.5991 C   0  0  1  0  0  0  0  0  0  0  0  0
    0.3368    0.4096   -4.8654 C   0  0  0  0  0  0  0  0  0  0  0  0
   -3.8999   -0.7408   -3.5174 C   0  0  0  0  0  0  0  0  0  0  0  0
   -2.9709   -0.7163   -4.6802 C   0  0  0  0  0  0  0  0  0  0  0  0
   -2.7731   -3.2826   -3.4948 O   0  0  0  0  0  0  0  0  0  0  0  0
    0.1336   -2.6052   -6.9798 O   0  0  0  0  0  0  0  0  0  0  0  0
   -5.6559    2.1102   -4.0853 C   0  0  0  0  0  0  0  0  0  0  0  0
   -4.3045    1.7000   -3.5612 C   0  0  0  0  0  0  0  0  0  0  0  0
   -6.3003    3.1407   -1.8844 C   0  0  0  0  0  0  0  0  0  0  0  0
   -6.6780    2.1354   -2.9681 C   0  0  0  0  0  0  0  0  0  0  0  0
   -8.3346    4.4456   -2.3937 C   0  0  0  0  0  0  0  0  0  0  0  0
   -7.0854    4.2305   -1.7254 O   0  0  0  0  0  0  0  0  0  0  0  0
   -8.1186    4.7347   -3.8785 C   0  0  0  0  0  0  0  0  0  0  0  0
   -5.3288    3.0013   -1.1801 O   0  0  0  0  0  0  0  0  0  0  0  0
   -9.3496    3.3577   -2.0362 C   0  0  0  0  0  0  0  0  0  0  0  0
    0.6094    0.6152   -3.3472 C   0  0  0  0  0  0  0  0  0  0  0  0
    0.9934   -0.5823   -2.3958 C   0  0  1  0  0  0  0  0  0  0  0  0
    0.7194   -1.9014   -2.8061 O   0  0  0  0  0  0  0  0  0  0  0  0
    3.4300   -1.5680   -2.5417 C   0  0  0  0  0  0  0  0  0  0  0  0
    3.7209   -1.4363   -4.0305 C   0  0  0  0  0  0  0  0  0  0  0  0
    4.9448   -1.5365   -4.6396 C   0  0  0  0  0  0  0  0  0  0  0  0
    5.0674   -1.4872   -6.0607 C   0  0  0  0  0  0  0  0  0  0  0  0
    3.9793   -1.3573   -6.9209 C   0  0  0  0  0  0  0  0  0  0  0  0
    2.7681   -1.2311   -6.3413 C   0  0  0  0  0  0  0  0  0  0  0  0
    2.4400   -0.5434   -1.9070 C   0  0  0  0  0  0  0  0  0  0  0  0
   -4.4410    0.3398   -2.9743 C   0  0  0  0  0  0  0  0  0  0  0  0
    2.7129   -1.2652   -4.9447 C   0  0  0  0  0  0  0  0  0  0  0  0
   -1.0107   -2.7648   -2.8567 H   0  0  0  0  0  0  0  0  0  0  0  0
   -1.4393   -0.5351   -3.2753 H   0  0  0  0  0  0  0  0  0  0  0  0
   -1.0219   -0.4987   -6.2086 H   0  0  0  0  0  0  0  0  0  0  0  0
   -0.4525   -4.2011   -4.6913 H   0  0  0  0  0  0  0  0  0  0  0  0
   -1.7628   -3.5736   -5.6928 H   0  0  0  0  0  0  0  0  0  0  0  0
    0.9016   -2.6051   -5.1512 H   0  0  0  0  0  0  0  0  0  0  0  0
    1.2794    0.5154   -5.4131 H   0  0  0  0  0  0  0  0  0  0  0  0
   -0.1391    1.3299   -5.2457 H   0  0  0  0  0  0  0  0  0  0  0  0
   -4.0826   -1.6751   -2.9963 H   0  0  0  0  0  0  0  0  0  0  0  0
   -2.8449    0.2759   -5.1151 H   0  0  0  0  0  0  0  0  0  0  0  0
   -3.3075   -1.3642   -5.4870 H   0  0  0  0  0  0  0  0  0  0  0  0
   -2.5419   -4.2247   -3.4554 H   0  0  0  0  0  0  0  0  0  0  0  0
   -0.5797   -2.2056   -7.4974 H   0  0  0  0  0  0  0  0  0  0  0  0
   -5.5656    3.0873   -4.5704 H   0  0  0  0  0  0  0  0  0  0  0  0
   -5.9968    1.4091   -4.8639 H   0  0  0  0  0  0  0  0  0  0  0  0
   -3.8947    2.3792   -2.8165 H   0  0  0  0  0  0  0  0  0  0  0  0
   -3.6115    1.7791   -4.3943 H   0  0  0  0  0  0  0  0  0  0  0  0
   -7.6204    2.2947   -3.4683 H   0  0  0  0  0  0  0  0  0  0  0  0
   -6.8334    1.1707   -2.4764 H   0  0  0  0  0  0  0  0  0  0  0  0
   -8.7182    5.3741   -1.9562 H   0  0  0  0  0  0  0  0  0  0  0  0
   -7.6361    3.9346   -4.4360 H   0  0  0  0  0  0  0  0  0  0  0  0
   -9.0643    4.9353   -4.3811 H   0  0  0  0  0  0  0  0  0  0  0  0
   -7.4408    5.5874   -3.9983 H   0  0  0  0  0  0  0  0  0  0  0  0
   -9.4947    3.3282   -0.9511 H   0  0  0  0  0  0  0  0  0  0  0  0
  -10.3016    3.5335   -2.5367 H   0  0  0  0  0  0  0  0  0  0  0  0
   -9.0475    2.3385   -2.2789 H   0  0  0  0  0  0  0  0  0  0  0  0
    1.3451    1.4210   -3.2167 H   0  0  0  0  0  0  0  0  0  0  0  0
   -0.2999    1.0887   -2.9456 H   0  0  0  0  0  0  0  0  0  0  0  0
    0.3143   -0.4708   -1.5410 H   0  0  0  0  0  0  0  0  0  0  0  0
    1.4460   -2.3791   -3.2334 H   0  0  0  0  0  0  0  0  0  0  0  0
    4.3625   -1.5089   -1.9781 H   0  0  0  0  0  0  0  0  0  0  0  0
    3.0637   -2.5894   -2.3350 H   0  0  0  0  0  0  0  0  0  0  0  0
    5.8244   -1.6353   -4.0209 H   0  0  0  0  0  0  0  0  0  0  0  0
    6.0466   -1.5450   -6.5102 H   0  0  0  0  0  0  0  0  0  0  0  0
    4.0342   -1.3255   -8.0026 H   0  0  0  0  0  0  0  0  0  0  0  0
    1.8715   -1.0942   -6.9431 H   0  0  0  0  0  0  0  0  0  0  0  0
    2.8371    0.4684   -1.9961 H   0  0  0  0  0  0  0  0  0  0  0  0
    2.3800   -0.7593   -0.8297 H   0  0  0  0  0  0  0  0  0  0  0  0
   -5.0441    0.1851   -2.0808 H   0  0  0  0  0  0  0  0  0  0  0  0
    1.7588   -1.1303   -4.5290 H   0  0  0  0  0  0  0  0  0  0  0  0
  1  4  1  0  0  0  0
  1 32  1  1  0  0  0
  1  9  1  0  0  0  0
  2  1  1  0  0  0  0
  2  8  1  0  0  0  0
  2 33  1  1  0  0  0
  3  2  1  0  0  0  0
  3  5  1  0  0  0  0
  3 34  1  6  0  0  0
  3  6  1  0  0  0  0
  4  5  1  0  0  0  0
  4 35  1  0  0  0  0
  4 36  1  0  0  0  0
  5 10  1  0  0  0  0
  5 37  1  1  0  0  0
  6 20  1  0  0  0  0
  6 38  1  0  0  0  0
  6 39  1  0  0  0  0
  7  8  1  0  0  0  0
  7 30  2  0  0  0  0
  7 40  1  0  0  0  0
  8 41  1  0  0  0  0
  8 42  1  0  0  0  0
  9 43  1  0  0  0  0
 10 44  1  0  0  0  0
 11 12  1  0  0  0  0
 11 14  1  0  0  0  0
 11 45  1  0  0  0  0
 11 46  1  0  0  0  0
 12 47  1  0  0  0  0
 12 48  1  0  0  0  0
 13 14  1  0  0  0  0
 13 16  1  0  0  0  0
 13 18  2  0  0  0  0
 14 49  1  0  0  0  0
 14 50  1  0  0  0  0
 15 16  1  0  0  0  0
 15 17  1  0  0  0  0
 15 19  1  0  0  0  0
 15 51  1  0  0  0  0
 17 52  1  0  0  0  0
 17 53  1  0  0  0  0
 17 54  1  0  0  0  0
 19 55  1  0  0  0  0
 19 56  1  0  0  0  0
 19 57  1  0  0  0  0
 20 58  1  0  0  0  0
 20 59  1  0  0  0  0
 21 22  1  0  0  0  0
 21 60  1  1  0  0  0
 21 29  1  0  0  0  0
 21 20  1  0  0  0  0
 22 61  1  0  0  0  0
 23 24  1  0  0  0  0
 23 62  1  0  0  0  0
 23 63  1  0  0  0  0
 24 25  2  0  0  0  0
 24 31  1  0  0  0  0
 25 26  1  0  0  0  0
 25 64  1  0  0  0  0
 26 27  2  0  0  0  0
 26 65  1  0  0  0  0
 27 28  1  0  0  0  0
 27 66  1  0  0  0  0
 28 31  2  0  0  0  0
 28 67  1  0  0  0  0
 29 23  1  0  0  0  0
 29 68  1  0  0  0  0
 29 69  1  0  0  0  0
 30 12  1  0  0  0  0
 30 70  1  0  0  0  0
 31 71  1  0  0  0  0
M  END
>  <DRUGBANK_ID>
DB00654

>  <SECONDARY_ACCESSION_NUMBERS>
APRD01065

>  <COMMON_NAME>
Latanoprost

>  <CAS_NUMBER>
130209-82-4

>  <UNII>
6Z5B6HVF6O

>  <SYNONYMS>
isopropyl (Z)-7-((1R,2R,3R,5S)-3,5-dihydroxy-2-((3R)-3-hydroxy-5-phenylpentyl)cyclopentyl)-5-heptenoate; Latanoprost; Latanoprostum; propan-2-yl (5Z)-7-{(1R,2R,3R,5S)-3,5-dihydroxy-2-[(3R)-3-hydroxy-5-phenylpentyl]cyclopentyl}hept-5-enoate

$$$$
