
 OpenBabel10282417153D

 14 13  0  0  0  0  0  0  0  0999 V2000
    1.0297   -0.1625   -0.2097 Cl  0  0  0  0  0  0  0  0  0  0  0  0
    2.7938   -0.0453   -0.1251 N   0  0  0  0  0  0  0  0  0  0  0  0
    3.2800    1.3315   -0.2530 C   0  0  0  0  0  0  0  0  0  0  0  0
    2.8343    2.2687    0.8633 C   0  0  0  0  0  0  0  0  0  0  0  0
    3.3711    1.7164    2.4735 S   0  0  0  0  0  0  0  0  0  0  0  0
    4.9638    1.8524    2.2323 O   0  0  0  0  0  0  0  0  0  0  0  0
    2.9753    2.6915    3.4662 O   0  0  0  0  0  0  0  0  0  0  0  0
    3.1030    0.3056    2.6213 O   0  0  0  0  0  0  0  0  0  0  0  0
    3.0872   -0.4387    0.7791 H   0  0  0  0  0  0  0  0  0  0  0  0
    4.3759    1.3048   -0.3006 H   0  0  0  0  0  0  0  0  0  0  0  0
    2.9555    1.7337   -1.2208 H   0  0  0  0  0  0  0  0  0  0  0  0
    3.2362    3.2760    0.7100 H   0  0  0  0  0  0  0  0  0  0  0  0
    1.7449    2.3533    0.9002 H   0  0  0  0  0  0  0  0  0  0  0  0
    5.3225    1.0214    1.8540 H   0  0  0  0  0  0  0  0  0  0  0  0
  1  2  1  0  0  0  0
  2  3  1  0  0  0  0
  2  9  1  0  0  0  0
  3  4  1  0  0  0  0
  3 10  1  0  0  0  0
  3 11  1  0  0  0  0
  4  5  1  0  0  0  0
  4 12  1  0  0  0  0
  4 13  1  0  0  0  0
  5  6  1  0  0  0  0
  5  7  2  0  0  0  0
  5  8  2  0  0  0  0
  6 14  1  0  0  0  0
M  END
>  <DRUGBANK_ID>
DB06633

>  <COMMON_NAME>
N-chlorotaurine

>  <CAS_NUMBER>
51036-13-6

>  <SYNONYMS>
N-chlorotaurine; N-monochlorotaurine; NCT; Taurine chloramine; Taurine monochloramine; Taurochloramine

$$$$
