TSC
 OpenBabel10282417173D

 25 26  0  0  0  0  0  0  0  0999 V2000
    1.0665   -1.7241   -1.8921 O   0  0  0  0  0  0  0  0  0  0  0  0
    0.5828   -1.3101   -0.6312 C   0  0  2  0  0  0  0  0  0  0  0  0
    1.0593    0.0340   -0.5064 N   0  0  0  0  0  0  0  0  0  0  0  0
    1.0829   -2.2404    0.5084 C   0  0  0  0  0  0  0  0  0  0  0  0
    0.6216   -1.9001    1.9124 C   0  0  0  0  0  0  0  0  0  0  0  0
    0.1117   -2.8016    2.8385 C   0  0  0  0  0  0  0  0  0  0  0  0
   -0.1682   -2.1247    3.9970 N   0  0  0  0  0  0  0  0  0  0  0  0
    0.0818   -0.7842    3.8505 C   0  0  0  0  0  0  0  0  0  0  0  0
    0.6309   -0.6184    2.5766 C   0  0  0  0  0  0  0  0  0  0  0  0
   -0.1036    0.2963    4.7309 C   0  0  0  0  0  0  0  0  0  0  0  0
    0.2036    1.5887    4.2851 C   0  0  0  0  0  0  0  0  0  0  0  0
    0.7613    1.7876    3.0392 C   0  0  0  0  0  0  0  0  0  0  0  0
    1.0429    0.6879    2.2416 C   0  0  0  0  0  0  0  0  0  0  0  0
   -0.5124   -1.3107   -0.6487 H   0  0  0  0  0  0  0  0  0  0  0  0
    0.8322   -2.6552   -2.0166 H   0  0  0  0  0  0  0  0  0  0  0  0
    0.6430    0.6579   -1.1821 H   0  0  0  0  0  0  0  0  0  0  0  0
    2.0691    0.0418   -0.6093 H   0  0  0  0  0  0  0  0  0  0  0  0
    0.7539   -3.2628    0.2637 H   0  0  0  0  0  0  0  0  0  0  0  0
    2.1794   -2.2937    0.4979 H   0  0  0  0  0  0  0  0  0  0  0  0
   -0.0649   -3.8674    2.7763 H   0  0  0  0  0  0  0  0  0  0  0  0
   -0.5298   -2.5485    4.8471 H   0  0  0  0  0  0  0  0  0  0  0  0
   -0.4949    0.1504    5.7317 H   0  0  0  0  0  0  0  0  0  0  0  0
    0.0338    2.4520    4.9202 H   0  0  0  0  0  0  0  0  0  0  0  0
    1.0062    2.7779    2.6666 H   0  0  0  0  0  0  0  0  0  0  0  0
    1.5861    0.9056    1.3384 H   0  0  0  0  0  0  0  0  0  0  0  0
  1 15  1  0  0  0  0
  2  4  1  0  0  0  0
  2 14  1  6  0  0  0
  2  3  1  0  0  0  0
  2  1  1  0  0  0  0
  3 16  1  0  0  0  0
  3 17  1  0  0  0  0
  4  5  1  0  0  0  0
  4 18  1  0  0  0  0
  4 19  1  0  0  0  0
  5  6  2  0  0  0  0
  5  9  1  0  0  0  0
  6  7  1  0  0  0  0
  6 20  1  0  0  0  0
  7  8  1  0  0  0  0
  7 21  1  0  0  0  0
  8  9  1  0  0  0  0
  8 10  2  0  0  0  0
  9 13  2  0  0  0  0
 10 11  1  0  0  0  0
 10 22  1  0  0  0  0
 11 12  2  0  0  0  0
 11 23  1  0  0  0  0
 12 13  1  0  0  0  0
 12 24  1  0  0  0  0
 13 25  1  0  0  0  0
M  END
>  <DRUGBANK_ID>
DB08649

>  <COMMON_NAME>
(1S)-1-AMINO-2-(1H-INDOL-3-YL)ETHANOL

$$$$
