
 OpenBabel10282417113D

 80 83  0  0  1  0  0  0  0  0999 V2000
   -4.3235   -2.9961   -3.7192 C   0  0  0  0  0  0  0  0  0  0  0  0
   -5.3698   -3.7577   -4.0917 C   0  0  0  0  0  0  0  0  0  0  0  0
   -4.3342   -2.4277   -2.4628 C   0  0  0  0  0  0  0  0  0  0  0  0
   -3.3027   -2.6385   -4.6220 O   0  0  0  0  0  0  0  0  0  0  0  0
   -5.3342   -4.3481   -5.3911 C   0  0  0  0  0  0  0  0  0  0  0  0
   -6.3922   -4.0552   -3.1808 C   0  0  0  0  0  0  0  0  0  0  0  0
   -5.4061   -2.6935   -1.5155 C   0  0  0  0  0  0  0  0  0  0  0  0
   -3.2547   -1.4269   -2.4539 C   0  0  0  0  0  0  0  0  0  0  0  0
   -3.2076   -3.2129   -5.8703 C   0  0  0  0  0  0  0  0  0  0  0  0
   -4.3016   -4.1727   -6.2430 C   0  0  0  0  0  0  0  0  0  0  0  0
   -6.4277   -5.1472   -5.5157 O   0  0  0  0  0  0  0  0  0  0  0  0
   -6.3278   -3.6608   -1.8597 C   0  0  0  0  0  0  0  0  0  0  0  0
   -5.8566   -1.9919   -0.3513 O   0  0  0  0  0  0  0  0  0  0  0  0
   -2.2733   -2.9607   -6.6280 O   0  0  0  0  0  0  0  0  0  0  0  0
   -4.1469   -4.8140   -7.4645 N   0  0  0  0  0  0  0  0  0  0  0  0
   -5.1876   -0.7207   -0.1661 C   0  0  1  0  0  0  0  0  0  0  0  0
   -5.0083   -5.7499   -7.9840 C   0  0  0  0  0  0  0  0  0  0  0  0
   -5.5441    0.2445   -1.3103 C   0  0  1  0  0  0  0  0  0  0  0  0
   -5.0112    0.0314    1.1674 O   0  0  0  0  0  0  0  0  0  0  0  0
   -4.7863   -6.2670   -9.2994 C   0  0  0  0  0  0  0  0  0  0  0  0
   -6.0104   -6.2319   -7.4706 O   0  0  0  0  0  0  0  0  0  0  0  0
   -4.4910    1.3644   -1.3109 C   0  0  1  0  0  0  0  0  0  0  0  0
   -5.9193   -0.1699   -2.6354 O   0  0  0  0  0  0  0  0  0  0  0  0
   -4.4026    1.4338    1.2052 C   0  0  0  0  0  0  0  0  0  0  0  0
   -3.5756   -6.8456   -9.6137 C   0  0  0  0  0  0  0  0  0  0  0  0
   -5.8995   -6.3306  -10.1413 C   0  0  0  0  0  0  0  0  0  0  0  0
   -4.7810    2.2183   -0.0568 C   0  0  2  0  0  0  0  0  0  0  0  0
   -2.9461    0.9843   -1.4873 O   0  0  0  0  0  0  0  0  0  0  0  0
   -2.8771    1.5986    1.3330 C   0  0  0  0  0  0  0  0  0  0  0  0
   -4.6892    2.1585    2.5148 C   0  0  0  0  0  0  0  0  0  0  0  0
   -3.4835   -7.5152  -10.8258 C   0  0  0  0  0  0  0  0  0  0  0  0
   -5.7177   -6.7383  -11.4367 C   0  0  0  0  0  0  0  0  0  0  0  0
   -6.1754    2.5278    0.0456 O   0  0  0  0  0  0  0  0  0  0  0  0
   -1.9481    0.1636   -0.8312 C   0  0  0  0  0  0  0  0  0  0  0  0
   -4.5336   -7.3767  -11.7569 C   0  0  0  0  0  0  0  0  0  0  0  0
   -2.2582   -8.3462  -11.0548 C   0  0  0  0  0  0  0  0  0  0  0  0
   -6.4062    3.9185   -0.0500 C   0  0  0  0  0  0  0  0  0  0  0  0
   -2.3207   -0.6788    0.2128 N   0  0  0  0  0  0  0  0  0  0  0  0
   -0.7401    0.2444   -1.1275 O   0  0  0  0  0  0  0  0  0  0  0  0
   -4.5074   -7.8873  -13.0172 O   0  0  0  0  0  0  0  0  0  0  0  0
   -2.6074   -9.7783  -11.3467 C   0  0  0  0  0  0  0  0  0  0  0  0
   -2.3368  -10.3797  -12.5197 C   0  0  0  0  0  0  0  0  0  0  0  0
   -2.7626  -11.7927  -12.7858 C   0  0  0  0  0  0  0  0  0  0  0  0
   -1.6082   -9.6573  -13.6242 C   0  0  0  0  0  0  0  0  0  0  0  0
   -7.2640   -4.6123   -3.5122 H   0  0  0  0  0  0  0  0  0  0  0  0
   -2.2299   -1.7867   -2.3925 H   0  0  0  0  0  0  0  0  0  0  0  0
   -3.3237   -0.6348   -3.2176 H   0  0  0  0  0  0  0  0  0  0  0  0
   -3.5034   -0.9406   -1.5798 H   0  0  0  0  0  0  0  0  0  0  0  0
   -6.3483   -5.6983   -6.3063 H   0  0  0  0  0  0  0  0  0  0  0  0
   -7.0600   -4.0343   -1.1555 H   0  0  0  0  0  0  0  0  0  0  0  0
   -3.3226   -4.5278   -7.9968 H   0  0  0  0  0  0  0  0  0  0  0  0
   -4.2758   -1.2480   -0.1360 H   0  0  0  0  0  0  0  0  0  0  0  0
   -6.5269    0.6111   -1.0084 H   0  0  0  0  0  0  0  0  0  0  0  0
   -4.6984    1.9766   -2.2013 H   0  0  0  0  0  0  0  0  0  0  0  0
   -5.1801   -0.4371   -3.1938 H   0  0  0  0  0  0  0  0  0  0  0  0
   -2.7674   -6.8621   -8.8868 H   0  0  0  0  0  0  0  0  0  0  0  0
   -6.8947   -6.0753   -9.7834 H   0  0  0  0  0  0  0  0  0  0  0  0
   -4.1906    3.1384   -0.1358 H   0  0  0  0  0  0  0  0  0  0  0  0
   -2.3516    2.5572    1.2134 H   0  0  0  0  0  0  0  0  0  0  0  0
   -2.3387    0.9058    1.9792 H   0  0  0  0  0  0  0  0  0  0  0  0
   -2.6745    1.3927    0.3549 H   0  0  0  0  0  0  0  0  0  0  0  0
   -5.7396    2.3173    2.7144 H   0  0  0  0  0  0  0  0  0  0  0  0
   -4.2367    1.5927    3.3420 H   0  0  0  0  0  0  0  0  0  0  0  0
   -4.1786    3.1397    2.4974 H   0  0  0  0  0  0  0  0  0  0  0  0
   -6.5011   -6.6084  -12.1737 H   0  0  0  0  0  0  0  0  0  0  0  0
   -1.7010   -7.8602  -11.8569 H   0  0  0  0  0  0  0  0  0  0  0  0
   -1.6014   -8.3357  -10.1756 H   0  0  0  0  0  0  0  0  0  0  0  0
   -5.8274    4.4416    0.7166 H   0  0  0  0  0  0  0  0  0  0  0  0
   -6.1165    4.2542   -1.0477 H   0  0  0  0  0  0  0  0  0  0  0  0
   -7.4683    4.1064    0.1124 H   0  0  0  0  0  0  0  0  0  0  0  0
   -1.6557   -1.0812    0.8562 H   0  0  0  0  0  0  0  0  0  0  0  0
   -3.1678   -0.5008    0.7436 H   0  0  0  0  0  0  0  0  0  0  0  0
   -3.8279   -8.5722  -13.0372 H   0  0  0  0  0  0  0  0  0  0  0  0
   -3.1486  -10.3180  -10.5661 H   0  0  0  0  0  0  0  0  0  0  0  0
   -3.4404  -11.8318  -13.6446 H   0  0  0  0  0  0  0  0  0  0  0  0
   -1.8856  -12.4110  -12.9948 H   0  0  0  0  0  0  0  0  0  0  0  0
   -3.2877  -12.2339  -11.9309 H   0  0  0  0  0  0  0  0  0  0  0  0
   -2.1552   -8.7712  -13.9644 H   0  0  0  0  0  0  0  0  0  0  0  0
   -0.6282   -9.3225  -13.2697 H   0  0  0  0  0  0  0  0  0  0  0  0
   -1.4654  -10.2900  -14.5004 H   0  0  0  0  0  0  0  0  0  0  0  0
  1  2  2  0  0  0  0
  1  3  1  0  0  0  0
  1  4  1  0  0  0  0
  2  5  1  0  0  0  0
  2  6  1  0  0  0  0
  3  7  2  0  0  0  0
  3  8  1  0  0  0  0
  4  9  1  0  0  0  0
  5 10  2  0  0  0  0
  5 11  1  0  0  0  0
  6 12  2  0  0  0  0
  6 45  1  0  0  0  0
  7 13  1  0  0  0  0
  7 12  1  0  0  0  0
  8 46  1  0  0  0  0
  8 47  1  0  0  0  0
  8 48  1  0  0  0  0
  9 14  2  0  0  0  0
  9 10  1  0  0  0  0
 10 15  1  0  0  0  0
 11 49  1  0  0  0  0
 12 50  1  0  0  0  0
 15 17  1  0  0  0  0
 15 51  1  0  0  0  0
 16 18  1  0  0  0  0
 16 19  1  0  0  0  0
 16 52  1  6  0  0  0
 16 13  1  0  0  0  0
 17 20  1  0  0  0  0
 17 21  2  0  0  0  0
 18 22  1  0  0  0  0
 18 23  1  0  0  0  0
 18 53  1  1  0  0  0
 19 24  1  0  0  0  0
 20 25  1  0  0  0  0
 20 26  2  0  0  0  0
 22 27  1  0  0  0  0
 22 28  1  0  0  0  0
 22 54  1  6  0  0  0
 23 55  1  0  0  0  0
 24 29  1  0  0  0  0
 24 30  1  0  0  0  0
 24 27  1  0  0  0  0
 25 31  2  0  0  0  0
 25 56  1  0  0  0  0
 26 32  1  0  0  0  0
 26 57  1  0  0  0  0
 27 58  1  6  0  0  0
 27 33  1  0  0  0  0
 28 34  1  0  0  0  0
 29 59  1  0  0  0  0
 29 60  1  0  0  0  0
 29 61  1  0  0  0  0
 30 62  1  0  0  0  0
 30 63  1  0  0  0  0
 30 64  1  0  0  0  0
 31 35  1  0  0  0  0
 31 36  1  0  0  0  0
 32 35  2  0  0  0  0
 32 65  1  0  0  0  0
 33 37  1  0  0  0  0
 34 38  1  0  0  0  0
 34 39  2  0  0  0  0
 35 40  1  0  0  0  0
 36 41  1  0  0  0  0
 36 66  1  0  0  0  0
 36 67  1  0  0  0  0
 37 68  1  0  0  0  0
 37 69  1  0  0  0  0
 37 70  1  0  0  0  0
 38 71  1  0  0  0  0
 38 72  1  0  0  0  0
 40 73  1  0  0  0  0
 41 42  2  0  0  0  0
 41 74  1  0  0  0  0
 42 43  1  0  0  0  0
 42 44  1  0  0  0  0
 43 75  1  0  0  0  0
 43 76  1  0  0  0  0
 43 77  1  0  0  0  0
 44 78  1  0  0  0  0
 44 79  1  0  0  0  0
 44 80  1  0  0  0  0
M  END
>  <DRUGBANK_ID>
DB01051

>  <SECONDARY_ACCESSION_NUMBERS>
APRD00694

>  <COMMON_NAME>
Novobiocin

>  <CAS_NUMBER>
303-81-1

>  <UNII>
17EC19951N

>  <SYNONYMS>
Albamycin; N-{7-[(3-O-carbamoyl-6-deoxy-5-methyl-4-O-methyl-Î²-D-gulopyranosyl)oxy]-4-hydroxy-8-methyl-2-oxo-2H-chromen-3-yl}-4-hydroxy-3-(3-methylbut-2-en-1-yl)benzamide; Novobiocin; Novobiocina; Novobiocine; Novobiocinum

$$$$
