
 OpenBabel10282417133D

 57 59  0  0  0  0  0  0  0  0999 V2000
    1.0084    0.3538   -0.2406 O   0  0  0  0  0  0  0  0  0  0  0  0
    0.0529   -1.5511    1.0329 O   0  0  0  0  0  0  0  0  0  0  0  0
   -1.5467   -4.6716    6.2815 O   0  0  0  0  0  0  0  0  0  0  0  0
   -3.4566   -1.9376    2.0390 O   0  0  0  0  0  0  0  0  0  0  0  0
   -4.1346   -1.4082    4.1082 O   0  0  0  0  0  0  0  0  0  0  0  0
   -7.8698   -3.1429    3.2223 O   0  0  0  0  0  0  0  0  0  0  0  0
   -6.4293   -2.3122    4.7057 O   0  0  0  0  0  0  0  0  0  0  0  0
    2.1056   -2.3322    0.0860 N   0  0  0  0  0  0  0  0  0  0  0  0
    4.9149   -2.3746    0.0958 N   0  0  0  0  0  0  0  0  0  0  0  0
    2.1954   -5.5358    1.1488 N   0  0  0  0  0  0  0  0  0  0  0  0
    4.9164    0.0307   -0.0131 N   0  0  0  0  0  0  0  0  0  0  0  0
    2.9900    1.3559    0.0893 N   0  0  0  0  0  0  0  0  0  0  0  0
   -3.1611   -4.1412    4.8362 N   0  0  0  0  0  0  0  0  0  0  0  0
    5.0228    2.3340    0.0415 N   0  0  0  0  0  0  0  0  0  0  0  0
    2.8598   -3.5984   -0.2987 C   0  0  1  0  0  0  0  0  0  0  0  0
    4.2117   -3.6076    0.4562 C   0  0  0  0  0  0  0  0  0  0  0  0
    2.0806   -4.9351   -0.1826 C   0  0  0  0  0  0  0  0  0  0  0  0
    2.8698   -1.1392    0.0982 C   0  0  0  0  0  0  0  0  0  0  0  0
    4.2354   -1.1621    0.0570 C   0  0  0  0  0  0  0  0  0  0  0  0
    2.2023    0.2340    0.0074 C   0  0  0  0  0  0  0  0  0  0  0  0
    0.7544   -2.3363    0.4098 C   0  0  0  0  0  0  0  0  0  0  0  0
    1.1871   -5.3706    2.0823 C   0  0  0  0  0  0  0  0  0  0  0  0
    4.2691    1.2193    0.0510 C   0  0  0  0  0  0  0  0  0  0  0  0
   -0.0990   -5.0907    1.7151 C   0  0  0  0  0  0  0  0  0  0  0  0
    1.4424   -5.4632    3.4508 C   0  0  0  0  0  0  0  0  0  0  0  0
   -3.8202   -3.7862    3.5881 C   0  0  1  0  0  0  0  0  0  0  0  0
   -4.9467   -4.7481    3.2227 C   0  0  0  0  0  0  0  0  0  0  0  0
   -0.8372   -4.7997    4.0284 C   0  0  0  0  0  0  0  0  0  0  0  0
   -1.0416   -4.7446    2.6546 C   0  0  0  0  0  0  0  0  0  0  0  0
    0.4473   -5.1916    4.4162 C   0  0  0  0  0  0  0  0  0  0  0  0
   -1.8629   -4.5214    5.0998 C   0  0  0  0  0  0  0  0  0  0  0  0
   -6.1668   -4.6105    4.0999 C   0  0  0  0  0  0  0  0  0  0  0  0
   -3.8529   -2.2685    3.2980 C   0  0  0  0  0  0  0  0  0  0  0  0
   -6.8080   -3.2449    4.0454 C   0  0  0  0  0  0  0  0  0  0  0  0
    5.9110   -2.4006   -0.0858 H   0  0  0  0  0  0  0  0  0  0  0  0
    2.5939   -6.4719    1.1897 H   0  0  0  0  0  0  0  0  0  0  0  0
    5.9180   -0.0038    0.0779 H   0  0  0  0  0  0  0  0  0  0  0  0
   -3.6765   -3.9125    5.6830 H   0  0  0  0  0  0  0  0  0  0  0  0
    4.5101    3.2103    0.0752 H   0  0  0  0  0  0  0  0  0  0  0  0
    6.0260    2.3708    0.0766 H   0  0  0  0  0  0  0  0  0  0  0  0
   -2.5425   -2.2127    1.8103 H   0  0  0  0  0  0  0  0  0  0  0  0
   -8.3565   -3.9737    3.1005 H   0  0  0  0  0  0  0  0  0  0  0  0
    3.0817   -3.4821   -1.3714 H   0  0  0  0  0  0  0  0  0  0  0  0
    4.0417   -3.5950    1.5413 H   0  0  0  0  0  0  0  0  0  0  0  0
    4.8224   -4.4885    0.2258 H   0  0  0  0  0  0  0  0  0  0  0  0
    1.0571   -4.7546   -0.4960 H   0  0  0  0  0  0  0  0  0  0  0  0
    2.3858   -5.6642   -0.9428 H   0  0  0  0  0  0  0  0  0  0  0  0
    0.2447   -3.2191    0.0476 H   0  0  0  0  0  0  0  0  0  0  0  0
   -0.4542   -5.0660    0.6903 H   0  0  0  0  0  0  0  0  0  0  0  0
    2.4435   -5.7129    3.7850 H   0  0  0  0  0  0  0  0  0  0  0  0
   -3.1886   -4.0999    2.8231 H   0  0  0  0  0  0  0  0  0  0  0  0
   -5.1885   -4.6662    2.1540 H   0  0  0  0  0  0  0  0  0  0  0  0
   -4.5572   -5.7796    3.3393 H   0  0  0  0  0  0  0  0  0  0  0  0
   -1.8836   -4.4332    2.0897 H   0  0  0  0  0  0  0  0  0  0  0  0
    0.7033   -5.2699    5.4721 H   0  0  0  0  0  0  0  0  0  0  0  0
   -6.8919   -5.3882    3.8510 H   0  0  0  0  0  0  0  0  0  0  0  0
   -5.8674   -4.7808    5.1384 H   0  0  0  0  0  0  0  0  0  0  0  0
  1 20  2  0  0  0  0
  2 21  2  0  0  0  0
  3 31  2  0  0  0  0
  4 33  1  0  0  0  0
  4 41  1  0  0  0  0
  5 33  2  0  0  0  0
  6 34  1  0  0  0  0
  6 42  1  0  0  0  0
  7 34  2  0  0  0  0
  8 15  1  0  0  0  0
  8 18  1  0  0  0  0
  8 21  1  0  0  0  0
  9 16  1  0  0  0  0
  9 19  1  0  0  0  0
  9 35  1  0  0  0  0
 10 17  1  0  0  0  0
 10 22  1  0  0  0  0
 10 36  1  0  0  0  0
 11 19  1  0  0  0  0
 11 23  1  0  0  0  0
 11 37  1  0  0  0  0
 12 20  1  0  0  0  0
 12 23  2  0  0  0  0
 13 31  1  0  0  0  0
 13 38  1  0  0  0  0
 14 23  1  0  0  0  0
 14 39  1  0  0  0  0
 14 40  1  0  0  0  0
 15 16  1  0  0  0  0
 15 43  1  6  0  0  0
 15 17  1  0  0  0  0
 16 44  1  0  0  0  0
 16 45  1  0  0  0  0
 17 46  1  0  0  0  0
 17 47  1  0  0  0  0
 18 19  2  0  0  0  0
 18 20  1  0  0  0  0
 21 48  1  0  0  0  0
 22 24  2  0  0  0  0
 22 25  1  0  0  0  0
 24 29  1  0  0  0  0
 24 49  1  0  0  0  0
 25 30  2  0  0  0  0
 25 50  1  0  0  0  0
 26 13  1  0  0  0  0
 26 27  1  0  0  0  0
 26 33  1  0  0  0  0
 26 51  1  6  0  0  0
 27 32  1  0  0  0  0
 27 52  1  0  0  0  0
 27 53  1  0  0  0  0
 28 29  2  0  0  0  0
 28 30  1  0  0  0  0
 28 31  1  0  0  0  0
 29 54  1  0  0  0  0
 30 55  1  0  0  0  0
 32 34  1  0  0  0  0
 32 56  1  0  0  0  0
 32 57  1  0  0  0  0
M  END
>  <DRUGBANK_ID>
DB03256

>  <SECONDARY_ACCESSION_NUMBERS>
EXPT01470

>  <COMMON_NAME>
(6R)-Folinic acid

>  <CAS_NUMBER>
73951-54-9

>  <SYNONYMS>
(6R,2'S)-Folinic acid; (6R)-Leucovorin; [6R]-5-formyl-5,6,7,8-tetrahydrofolate ; 6R-Leucovorin; Dextrofolinic acid; L-Glutamic acid, N-[4-[[[(6R)-2-amino-5-formyl-3,4,5,6,7,8-hexahydro-4-oxo-6-pteridinyl]methyl]amino]benzoyl]-; N-{[4-({[(6R)-2-amino-5-formyl-4-oxo-1,4,5,6,7,8-hexahydropteridin-6-yl]methyl}amino)phenyl]carbonyl}-L-glutamic acid

$$$$
