HMDB02269.mol
 OpenBabel10282417183D

 47 48  0  0  0  0  0  0  0  0999 V2000
    0.1600   -1.2361    0.0095 C   0  0  0  0  0  0  0  0  0  0  0  0
    0.9341   -0.0756    0.0116 C   0  0  0  0  0  0  0  0  0  0  0  0
    0.3165    1.1767    0.0178 C   0  0  0  0  0  0  0  0  0  0  0  0
   -1.0870    1.2408    0.0033 C   0  0  0  0  0  0  0  0  0  0  0  0
   -1.8916    0.0892   -0.0113 C   0  0  0  0  0  0  0  0  0  0  0  0
   -1.2412   -1.1540   -0.0017 C   0  0  0  0  0  0  0  0  0  0  0  0
    2.2963   -0.1890    0.0066 O   0  0  0  0  0  0  0  0  0  0  0  0
    0.9203    2.4092    0.0379 O   0  0  0  0  0  0  0  0  0  0  0  0
   -3.3733    0.1484   -0.0379 C   0  0  0  0  0  0  0  0  0  0  0  0
   -4.0986    1.2817   -0.0589 C   0  0  0  0  0  0  0  0  0  0  0  0
   -5.5923    1.2762   -0.0959 C   0  0  0  0  0  0  0  0  0  0  0  0
   -6.2978    2.6120   -0.1481 C   0  0  0  0  0  0  0  0  0  0  0  0
   -6.2287    0.2208   -0.0599 O   0  0  0  0  0  0  0  0  0  0  0  0
   -7.1265    2.7603   -1.4015 C   0  0  0  0  0  0  0  0  0  0  0  0
   -8.6015    2.9504   -1.2511 C   0  0  0  0  0  0  0  0  0  0  0  0
   -6.5963    2.7525   -2.5139 O   0  0  0  0  0  0  0  0  0  0  0  0
   -9.3995    3.0521   -2.3285 C   0  0  0  0  0  0  0  0  0  0  0  0
  -10.8596    3.2285   -2.2373 C   0  0  0  0  0  0  0  0  0  0  0  0
  -11.4243    4.1645   -1.3555 C   0  0  0  0  0  0  0  0  0  0  0  0
  -12.8118    4.3300   -1.2685 C   0  0  0  0  0  0  0  0  0  0  0  0
  -13.6361    3.5444   -2.0796 C   0  0  0  0  0  0  0  0  0  0  0  0
  -13.0971    2.6309   -2.9772 C   0  0  0  0  0  0  0  0  0  0  0  0
  -11.7090    2.4822   -3.0647 C   0  0  0  0  0  0  0  0  0  0  0  0
  -13.4560    5.2135   -0.4384 O   0  0  0  0  0  0  0  0  0  0  0  0
  -14.9994    3.6495   -2.0172 O   0  0  0  0  0  0  0  0  0  0  0  0
    2.3424    2.4300    0.0646 C   0  0  0  0  0  0  0  0  0  0  0  0
  -12.6154    6.0350    0.3682 C   0  0  0  0  0  0  0  0  0  0  0  0
    0.6334   -2.2138    0.0167 H   0  0  0  0  0  0  0  0  0  0  0  0
   -1.5329    2.2305    0.0012 H   0  0  0  0  0  0  0  0  0  0  0  0
   -1.8121   -2.0811   -0.0059 H   0  0  0  0  0  0  0  0  0  0  0  0
    2.5635   -1.1193   -0.0278 H   0  0  0  0  0  0  0  0  0  0  0  0
   -3.8912   -0.8115   -0.0504 H   0  0  0  0  0  0  0  0  0  0  0  0
   -3.6407    2.2611   -0.0592 H   0  0  0  0  0  0  0  0  0  0  0  0
   -6.9129    2.7089    0.7534 H   0  0  0  0  0  0  0  0  0  0  0  0
   -5.5819    3.4424   -0.1189 H   0  0  0  0  0  0  0  0  0  0  0  0
   -8.9967    2.9811   -0.2428 H   0  0  0  0  0  0  0  0  0  0  0  0
   -8.9862    2.9830   -3.3340 H   0  0  0  0  0  0  0  0  0  0  0  0
  -10.7556    4.7622   -0.7467 H   0  0  0  0  0  0  0  0  0  0  0  0
  -13.7561    2.0346   -3.6020 H   0  0  0  0  0  0  0  0  0  0  0  0
  -11.3024    1.7639   -3.7732 H   0  0  0  0  0  0  0  0  0  0  0  0
  -15.1852    4.3243   -1.3371 H   0  0  0  0  0  0  0  0  0  0  0  0
    2.7264    1.9481    0.9706 H   0  0  0  0  0  0  0  0  0  0  0  0
    2.7567    1.9888   -0.8485 H   0  0  0  0  0  0  0  0  0  0  0  0
    2.6737    3.4712    0.0939 H   0  0  0  0  0  0  0  0  0  0  0  0
  -12.0203    5.4275    1.0592 H   0  0  0  0  0  0  0  0  0  0  0  0
  -11.9719    6.6703   -0.2510 H   0  0  0  0  0  0  0  0  0  0  0  0
  -13.2525    6.6912    0.9674 H   0  0  0  0  0  0  0  0  0  0  0  0
  1  2  2  0  0  0  0
  1  6  1  0  0  0  0
  1 28  1  0  0  0  0
  2  3  1  0  0  0  0
  2  7  1  0  0  0  0
  3  4  2  0  0  0  0
  3  8  1  0  0  0  0
  4  5  1  0  0  0  0
  4 29  1  0  0  0  0
  5  6  2  0  0  0  0
  5  9  1  0  0  0  0
  6 30  1  0  0  0  0
  7 31  1  0  0  0  0
  8 26  1  0  0  0  0
  9 10  2  0  0  0  0
  9 32  1  0  0  0  0
 10 11  1  0  0  0  0
 10 33  1  0  0  0  0
 11 12  1  0  0  0  0
 11 13  2  0  0  0  0
 12 14  1  0  0  0  0
 12 34  1  0  0  0  0
 12 35  1  0  0  0  0
 14 15  1  0  0  0  0
 14 16  2  0  0  0  0
 15 17  2  0  0  0  0
 15 36  1  0  0  0  0
 17 18  1  0  0  0  0
 17 37  1  0  0  0  0
 18 19  2  0  0  0  0
 18 23  1  0  0  0  0
 19 20  1  0  0  0  0
 19 38  1  0  0  0  0
 20 21  2  0  0  0  0
 20 24  1  0  0  0  0
 21 22  1  0  0  0  0
 21 25  1  0  0  0  0
 22 23  2  0  0  0  0
 22 39  1  0  0  0  0
 23 40  1  0  0  0  0
 24 27  1  0  0  0  0
 25 41  1  0  0  0  0
 26 42  1  0  0  0  0
 26 43  1  0  0  0  0
 26 44  1  0  0  0  0
 27 45  1  0  0  0  0
 27 46  1  0  0  0  0
 27 47  1  0  0  0  0
M  END
>  <DRUGBANK_ID>
DB11672

>  <COMMON_NAME>
Curcumin

>  <CAS_NUMBER>
458-37-7

>  <UNII>
IT942ZTH98

>  <SYNONYMS>
Curcumin; Diferuloylmethane

$$$$
