
 OpenBabel10282417223D

 49 52  0  0  1  0  0  0  0  0999 V2000
   -4.0257   -0.5504   -0.7811 C   0  0  0  0  0  0  0  0  0  0  0  0
   -4.2606   -1.7145    0.3046 C   0  0  1  0  0  0  0  0  0  0  0  0
   -3.4451   -3.0926    0.3598 C   0  0  0  0  0  0  0  0  0  0  0  0
   -2.3656   -2.8254   -0.6044 C   0  0  1  0  0  0  0  0  0  0  0  0
   -2.0370   -3.7896   -1.8647 C   0  0  0  0  0  0  0  0  0  0  0  0
   -1.2374   -2.6880   -3.1260 S   0  0  0  0  0  0  0  0  0  0  0  0
   -0.4376   -1.8704   -1.7885 C   0  0  0  0  0  0  0  0  0  0  0  0
    0.4322   -2.7376   -1.1524 N   0  0  0  0  0  0  0  0  0  0  0  0
   -1.1390   -0.9050   -1.2567 N   0  0  0  0  0  0  0  0  0  0  0  0
   -1.4511   -1.3856    0.1493 C   0  0  1  0  0  0  0  0  0  0  0  0
   -2.5022   -0.5562    1.2542 C   0  0  0  0  0  0  0  0  0  0  0  0
   -3.8138   -1.0982    1.4908 O   0  0  0  0  0  0  0  0  0  0  0  0
   -0.0748   -0.7761    0.8689 C   0  0  0  0  0  0  0  0  0  0  0  0
    0.5455    0.4017    0.5387 N   0  0  0  0  0  0  0  0  0  0  0  0
    1.4859    0.8597    1.5168 C   0  0  0  0  0  0  0  0  0  0  0  0
    2.3585    1.9787    1.3762 N   0  0  0  0  0  0  0  0  0  0  0  0
    3.5187    2.3899    2.1258 C   0  0  0  0  0  0  0  0  0  0  0  0
    4.0906    3.4163    1.8659 O   0  0  0  0  0  0  0  0  0  0  0  0
    4.1214    1.4993    3.1980 C   0  0  0  0  0  0  0  0  0  0  0  0
    4.4319    2.0549    4.4032 N   0  0  0  0  0  0  0  0  0  0  0  0
    4.8111    1.1960    5.3977 C   0  0  0  0  0  0  0  0  0  0  0  0
    4.8212   -0.1916    5.2773 C   0  0  0  0  0  0  0  0  0  0  0  0
    5.1217   -0.9289    6.3864 O   0  0  0  0  0  0  0  0  0  0  0  0
    5.0829   -2.3512    6.2621 C   0  0  0  0  0  0  0  0  0  0  0  0
    3.8208   -2.7458    5.9588 F   0  0  0  0  0  0  0  0  0  0  0  0
    5.9000   -2.7562    5.2583 F   0  0  0  0  0  0  0  0  0  0  0  0
    4.5188   -0.7066    4.0236 C   0  0  0  0  0  0  0  0  0  0  0  0
    4.2694    0.1491    2.9522 C   0  0  0  0  0  0  0  0  0  0  0  0
    1.3992    0.0669    2.6362 C   0  0  0  0  0  0  0  0  0  0  0  0
    0.4542   -1.3517    2.3973 S   0  0  0  0  0  0  0  0  0  0  0  0
   -3.0318   -0.1311   -0.7470 H   0  0  0  0  0  0  0  0  0  0  0  0
   -4.5132    0.3912   -0.5127 H   0  0  0  0  0  0  0  0  0  0  0  0
   -4.0242   -0.8087   -1.8362 H   0  0  0  0  0  0  0  0  0  0  0  0
   -5.3310   -1.9360    0.3234 H   0  0  0  0  0  0  0  0  0  0  0  0
   -4.0439   -3.9991    0.2017 H   0  0  0  0  0  0  0  0  0  0  0  0
   -2.8747   -3.2695    1.2830 H   0  0  0  0  0  0  0  0  0  0  0  0
   -3.0910   -2.3951   -1.3301 H   0  0  0  0  0  0  0  0  0  0  0  0
   -2.9141   -4.2778   -2.3460 H   0  0  0  0  0  0  0  0  0  0  0  0
   -1.3550   -4.6117   -1.6496 H   0  0  0  0  0  0  0  0  0  0  0  0
   -0.0279   -3.5500   -0.7432 H   0  0  0  0  0  0  0  0  0  0  0  0
    0.9008   -2.2926   -0.3810 H   0  0  0  0  0  0  0  0  0  0  0  0
   -2.3028   -0.0827    2.2338 H   0  0  0  0  0  0  0  0  0  0  0  0
   -2.4599    0.4292    0.8072 H   0  0  0  0  0  0  0  0  0  0  0  0
    2.1697    2.6350    0.6186 H   0  0  0  0  0  0  0  0  0  0  0  0
    5.0898    1.6706    6.3386 H   0  0  0  0  0  0  0  0  0  0  0  0
    5.3984   -2.8312    7.1915 H   0  0  0  0  0  0  0  0  0  0  0  0
    4.4173   -1.7712    3.8439 H   0  0  0  0  0  0  0  0  0  0  0  0
    4.0426   -0.2605    1.9744 H   0  0  0  0  0  0  0  0  0  0  0  0
    1.8945    0.2102    3.5778 H   0  0  0  0  0  0  0  0  0  0  0  0
  1 31  1  0  0  0  0
  1 32  1  0  0  0  0
  1 33  1  0  0  0  0
  2  3  1  0  0  0  0
  2 12  1  0  0  0  0
  2 34  1  1  0  0  0
  2  1  1  0  0  0  0
  3 35  1  0  0  0  0
  3 36  1  0  0  0  0
  4  3  1  0  0  0  0
  4  5  1  0  0  0  0
  4 10  1  0  0  0  0
  4 37  1  1  0  0  0
  5  6  1  0  0  0  0
  5 38  1  0  0  0  0
  5 39  1  0  0  0  0
  6  7  1  0  0  0  0
  7  9  2  0  0  0  0
  7  8  1  0  0  0  0
  8 40  1  0  0  0  0
  8 41  1  0  0  0  0
 10  9  1  0  0  0  0
 10 11  1  0  0  0  0
 10 13  1  1  0  0  0
 11 12  1  0  0  0  0
 11 42  1  0  0  0  0
 11 43  1  0  0  0  0
 13 14  2  0  0  0  0
 13 30  1  0  0  0  0
 14 15  1  0  0  0  0
 15 16  1  0  0  0  0
 15 29  2  0  0  0  0
 16 17  1  0  0  0  0
 16 44  1  0  0  0  0
 17 18  2  0  0  0  0
 17 19  1  0  0  0  0
 19 20  2  0  0  0  0
 19 28  1  0  0  0  0
 20 21  1  0  0  0  0
 21 22  2  0  0  0  0
 21 45  1  0  0  0  0
 22 23  1  0  0  0  0
 22 27  1  0  0  0  0
 23 24  1  0  0  0  0
 24 25  1  0  0  0  0
 24 26  1  0  0  0  0
 24 46  1  0  0  0  0
 27 28  2  0  0  0  0
 27 47  1  0  0  0  0
 28 48  1  0  0  0  0
 29 30  1  0  0  0  0
 29 49  1  0  0  0  0
M  END
>  <DRUGBANK_ID>
DB15105

>  <COMMON_NAME>
PF-06751979

>  <CAS_NUMBER>
1818339-66-0

>  <UNII>
1Y0Y126GUG

$$$$
