
 OpenBabel10282417123D

 21 21  0  0  1  0  0  0  0  0999 V2000
    0.9624    0.0585   -0.1091 C   0  0  0  0  0  0  0  0  0  0  0  0
    0.4399    0.2841    1.3094 C   0  0  0  0  0  0  0  0  0  0  0  0
   -1.0674   -0.0110    1.3460 C   0  0  0  0  0  0  0  0  0  0  0  0
    0.7248    1.6440    1.7930 N   0  0  0  0  0  0  0  0  0  0  0  0
    1.1355    1.6312    3.2248 C   0  0  1  0  0  0  0  0  0  0  0  0
    1.0865    0.2200    3.8145 C   0  0  0  0  0  0  0  0  0  0  0  0
    1.2683   -0.8839    2.4139 S   0  0  0  0  0  0  0  0  0  0  0  0
    2.5607    2.1998    3.3919 C   0  0  0  0  0  0  0  0  0  0  0  0
    2.6591    3.2550    4.2406 O   0  0  0  0  0  0  0  0  0  0  0  0
    3.5649    1.7416    2.8570 O   0  0  0  0  0  0  0  0  0  0  0  0
    0.5764    0.8119   -0.8049 H   0  0  0  0  0  0  0  0  0  0  0  0
    0.6371   -0.9197   -0.4886 H   0  0  0  0  0  0  0  0  0  0  0  0
    2.0568    0.0858   -0.1608 H   0  0  0  0  0  0  0  0  0  0  0  0
   -1.6130    0.6258    0.6401 H   0  0  0  0  0  0  0  0  0  0  0  0
   -1.2714   -1.0515    1.0617 H   0  0  0  0  0  0  0  0  0  0  0  0
   -1.5035    0.1510    2.3385 H   0  0  0  0  0  0  0  0  0  0  0  0
   -0.0721    2.2579    1.6419 H   0  0  0  0  0  0  0  0  0  0  0  0
    0.4494    2.2740    3.7919 H   0  0  0  0  0  0  0  0  0  0  0  0
    1.8605    0.0165    4.5569 H   0  0  0  0  0  0  0  0  0  0  0  0
    0.1032    0.0190    4.2502 H   0  0  0  0  0  0  0  0  0  0  0  0
    1.8346    3.6007    4.6263 H   0  0  0  0  0  0  0  0  0  0  0  0
  1  2  1  0  0  0  0
  1 11  1  0  0  0  0
  1 12  1  0  0  0  0
  1 13  1  0  0  0  0
  2  3  1  0  0  0  0
  2  4  1  0  0  0  0
  2  7  1  0  0  0  0
  3 14  1  0  0  0  0
  3 15  1  0  0  0  0
  3 16  1  0  0  0  0
  4  5  1  0  0  0  0
  4 17  1  0  0  0  0
  5  6  1  0  0  0  0
  5  8  1  0  0  0  0
  5 18  1  1  0  0  0
  6  7  1  0  0  0  0
  6 19  1  0  0  0  0
  6 20  1  0  0  0  0
  8  9  1  0  0  0  0
  8 10  2  0  0  0  0
  9 21  1  0  0  0  0
M  END
>  <DRUGBANK_ID>
DB01635

>  <SECONDARY_ACCESSION_NUMBERS>
EXPT00133

>  <COMMON_NAME>
2,2-Dimethylthiazolidine-4-Carboxylic Acid;(Dmt)Thiazolidine

$$$$
