
 OpenBabel10282417213D

 32 32  0  0  0  0  0  0  0  0999 V2000
   -2.3810   -1.1073   -0.1658 O   0  0  0  0  0  0  0  0  0  0  0  0
    2.4590   -1.0119    0.0845 O   0  0  0  0  0  0  0  0  0  0  0  0
   -0.0200    2.6821   -0.0031 O   0  0  0  0  0  0  0  0  0  0  0  0
   -1.1443    0.7272    0.0041 N   0  0  0  0  0  0  0  0  0  0  0  0
    1.1573    0.7664   -0.0103 N   0  0  0  0  0  0  0  0  0  0  0  0
    0.0520   -1.4579   -0.1383 C   0  0  0  0  0  0  0  0  0  0  0  0
    1.3063   -0.5816    0.0215 C   0  0  0  0  0  0  0  0  0  0  0  0
   -1.2489   -0.6282   -0.0869 C   0  0  0  0  0  0  0  0  0  0  0  0
    0.0159   -2.4975    1.0585 C   0  0  3  0  0  0  0  0  0  0  0  0
    0.1090   -2.0457   -1.5583 C   0  0  0  0  0  0  0  0  0  0  0  0
   -0.0041    1.4483   -0.0083 C   0  0  0  0  0  0  0  0  0  0  0  0
   -1.2012   -3.4755    1.0796 C   0  0  0  0  0  0  0  0  0  0  0  0
    1.3375   -3.2712    1.2491 C   0  0  0  0  0  0  0  0  0  0  0  0
    1.1316   -2.0625   -2.4259 C   0  0  0  0  0  0  0  0  0  0  0  0
   -1.3923   -4.4021   -0.1258 C   0  0  0  0  0  0  0  0  0  0  0  0
   -0.2143   -5.3153   -0.4112 C   0  0  0  0  0  0  0  0  0  0  0  0
   -2.0144    1.2404   -0.0009 H   0  0  0  0  0  0  0  0  0  0  0  0
    2.0169    1.2941    0.0082 H   0  0  0  0  0  0  0  0  0  0  0  0
   -0.0881   -1.9019    1.9820 H   0  0  0  0  0  0  0  0  0  0  0  0
   -0.8036   -2.4839   -1.9518 H   0  0  0  0  0  0  0  0  0  0  0  0
   -1.1544   -4.0900    1.9889 H   0  0  0  0  0  0  0  0  0  0  0  0
   -2.1268   -2.9030    1.2155 H   0  0  0  0  0  0  0  0  0  0  0  0
    2.1377   -2.6418    1.6439 H   0  0  0  0  0  0  0  0  0  0  0  0
    1.2264   -4.0977    1.9573 H   0  0  0  0  0  0  0  0  0  0  0  0
    1.7281   -3.6521    0.3077 H   0  0  0  0  0  0  0  0  0  0  0  0
    1.0305   -2.5696   -3.3808 H   0  0  0  0  0  0  0  0  0  0  0  0
    2.0943   -1.6087   -2.2202 H   0  0  0  0  0  0  0  0  0  0  0  0
   -2.2855   -5.0151    0.0271 H   0  0  0  0  0  0  0  0  0  0  0  0
   -1.6472   -3.8281   -1.0109 H   0  0  0  0  0  0  0  0  0  0  0  0
    0.0282   -5.9074    0.4760 H   0  0  0  0  0  0  0  0  0  0  0  0
   -0.4224   -5.9811   -1.2494 H   0  0  0  0  0  0  0  0  0  0  0  0
    0.6730   -4.7728   -0.7279 H   0  0  0  0  0  0  0  0  0  0  0  0
  1  8  2  0  0  0  0
  2  7  2  0  0  0  0
  3 11  2  0  0  0  0
  4  8  1  0  0  0  0
  4 11  1  0  0  0  0
  4 17  1  0  0  0  0
  5  7  1  0  0  0  0
  5 11  1  0  0  0  0
  5 18  1  0  0  0  0
  6  7  1  0  0  0  0
  6  8  1  0  0  0  0
  6  9  1  0  0  0  0
  6 10  1  0  0  0  0
  9 12  1  0  0  0  0
  9 13  1  0  0  0  0
  9 19  1  0  0  0  0
 10 14  2  0  0  0  0
 10 20  1  0  0  0  0
 12 15  1  0  0  0  0
 12 21  1  0  0  0  0
 12 22  1  0  0  0  0
 13 23  1  0  0  0  0
 13 24  1  0  0  0  0
 13 25  1  0  0  0  0
 14 26  1  0  0  0  0
 14 27  1  0  0  0  0
 15 16  1  0  0  0  0
 15 28  1  0  0  0  0
 15 29  1  0  0  0  0
 16 30  1  0  0  0  0
 16 31  1  0  0  0  0
 16 32  1  0  0  0  0
M  END
>  <DRUGBANK_ID>
DB13770

>  <COMMON_NAME>
Vinylbital

>  <CAS_NUMBER>
2430-49-1

>  <UNII>
3W58ITX06Q

>  <SYNONYMS>
Vinilbital; Vinylbital; Vinylbitalum

$$$$
