
 OpenBabel10282417143D

 17 16  0  0  0  0  0  0  0  0999 V2000
    1.1408   -0.1564   -0.0907 C   0  0  0  0  0  0  0  0  0  0  0  0
    0.5286   -1.0695    0.8198 N   0  0  0  0  0  0  0  0  0  0  0  0
   -0.2729   -0.9438    1.9485 C   0  0  0  0  0  0  0  0  0  0  0  0
   -0.6983   -2.0548    2.6041 C   0  0  0  0  0  0  0  0  0  0  0  0
   -0.4201   -3.4970    2.2791 C   0  0  0  0  0  0  0  0  0  0  0  0
   -0.7697    0.3556    2.5898 C   0  0  0  0  0  0  0  0  0  0  0  0
   -0.4432    1.5506    2.0704 O   0  0  0  0  0  0  0  0  0  0  0  0
   -1.4805    0.3522    3.5963 O   0  0  0  0  0  0  0  0  0  0  0  0
    0.9593    0.8821    0.1166 H   0  0  0  0  0  0  0  0  0  0  0  0
    0.7661   -0.3373   -1.1008 H   0  0  0  0  0  0  0  0  0  0  0  0
    2.2251   -0.2880   -0.0703 H   0  0  0  0  0  0  0  0  0  0  0  0
    0.7338   -2.0355    0.5755 H   0  0  0  0  0  0  0  0  0  0  0  0
   -1.3279   -1.9451    3.4901 H   0  0  0  0  0  0  0  0  0  0  0  0
    0.0900   -3.9825    3.1178 H   0  0  0  0  0  0  0  0  0  0  0  0
   -1.3580   -4.0314    2.0950 H   0  0  0  0  0  0  0  0  0  0  0  0
    0.2069   -3.6442    1.3985 H   0  0  0  0  0  0  0  0  0  0  0  0
    0.1070    1.6227    1.2878 H   0  0  0  0  0  0  0  0  0  0  0  0
  1  2  1  0  0  0  0
  1  9  1  0  0  0  0
  1 10  1  0  0  0  0
  1 11  1  0  0  0  0
  2  3  1  0  0  0  0
  2 12  1  0  0  0  0
  3  4  2  0  0  0  0
  3  6  1  0  0  0  0
  4  5  1  0  0  0  0
  4 13  1  0  0  0  0
  5 14  1  0  0  0  0
  5 15  1  0  0  0  0
  5 16  1  0  0  0  0
  6  7  1  0  0  0  0
  6  8  2  0  0  0  0
  7 17  1  0  0  0  0
M  END
>  <DRUGBANK_ID>
DB04225

>  <SECONDARY_ACCESSION_NUMBERS>
EXPT02144

>  <COMMON_NAME>
N-Methyldehydrobutyrine

$$$$
