
 OpenBabel10282417223D

105111  0  0  0  0  0  0  0  0999 V2000
   -6.8527    5.7721   -1.9296 C   0  0  0  0  0  0  0  0  0  0  0  0
   -7.5711    4.6211   -2.5664 C   0  0  0  0  0  0  0  0  0  0  0  0
   -7.2502    4.7839   -4.0326 C   0  0  0  0  0  0  0  0  0  0  0  0
   -7.1081    3.2877   -1.9884 C   0  0  0  0  0  0  0  0  0  0  0  0
   -7.3343    3.0708   -0.4752 N   0  0  0  0  0  0  0  0  0  0  0  0
   -7.0058    1.5843   -0.2071 C   0  0  0  0  0  0  0  0  0  0  0  0
   -5.5244    1.2742   -0.4047 C   0  0  1  0  0  0  0  0  0  0  0  0
   -4.7917    2.0564    0.5268 O   0  0  0  0  0  0  0  0  0  0  0  0
   -5.0911   -0.1545   -0.0938 C   0  0  2  0  0  0  0  0  0  0  0  0
   -3.5217   -0.1498   -0.2073 C   0  0  0  0  0  0  0  0  0  0  0  0
   -2.9211   -0.6205   -1.5033 C   0  0  0  0  0  0  0  0  0  0  0  0
   -1.5923   -1.0323   -1.5132 C   0  0  0  0  0  0  0  0  0  0  0  0
   -1.0772   -1.6510   -2.6477 C   0  0  0  0  0  0  0  0  0  0  0  0
   -1.9104   -1.9421   -3.7288 C   0  0  0  0  0  0  0  0  0  0  0  0
   -3.2229   -1.5107   -3.7258 C   0  0  0  0  0  0  0  0  0  0  0  0
   -3.6375   -0.6863   -2.6995 C   0  0  0  0  0  0  0  0  0  0  0  0
   -5.7858   -1.1374   -0.9334 N   0  0  0  0  0  0  0  0  0  0  0  0
   -6.4257   -2.2585   -0.6096 C   0  0  0  0  0  0  0  0  0  0  0  0
   -6.8308   -3.0243   -1.5073 O   0  0  0  0  0  0  0  0  0  0  0  0
   -6.6432   -2.3914    0.6897 O   0  0  0  0  0  0  0  0  0  0  0  0
   -7.5270   -3.4425    1.0569 C   0  0  2  0  0  0  0  0  0  0  0  0
   -8.3907   -2.9985    2.2035 C   0  0  1  0  0  0  0  0  0  0  0  0
   -8.6628   -4.2411    3.0112 C   0  0  1  0  0  0  0  0  0  0  0  0
   -7.8545   -5.2702    2.4427 O   0  0  0  0  0  0  0  0  0  0  0  0
   -6.8237   -4.6177    1.6884 C   0  0  0  0  0  0  0  0  0  0  0  0
   -8.2456   -4.0333    4.3636 O   0  0  0  0  0  0  0  0  0  0  0  0
   -7.9206   -2.6732    4.5331 C   0  0  0  0  0  0  0  0  0  0  0  0
   -7.6462   -2.1480    3.1731 C   0  0  0  0  0  0  0  0  0  0  0  0
   -9.7244   -4.5055    2.9995 H   0  0  0  0  0  0  0  0  0  0  0  0
   -9.2913   -2.4817    1.8391 H   0  0  0  0  0  0  0  0  0  0  0  0
   -6.5693    4.2910    0.6265 S   0  0  0  0  0  0  0  0  0  0  0  0
   -5.1558    4.3584    0.3163 O   0  0  0  0  0  0  0  0  0  0  0  0
   -7.3472    5.5078    0.7323 O   0  0  0  0  0  0  0  0  0  0  0  0
   -6.8262    3.8471    2.2792 C   0  0  0  0  0  0  0  0  0  0  0  0
   -5.8992    4.2569    3.2729 C   0  0  0  0  0  0  0  0  0  0  0  0
   -6.3691    4.3288    4.6031 C   0  0  0  0  0  0  0  0  0  0  0  0
   -7.7328    4.2004    4.8362 C   0  0  0  0  0  0  0  0  0  0  0  0
   -8.6265    3.8443    3.7980 C   0  0  0  0  0  0  0  0  0  0  0  0
   -8.1737    3.6312    2.5233 C   0  0  0  0  0  0  0  0  0  0  0  0
   -8.1131    4.3072    6.1463 N   0  0  0  0  0  0  0  0  0  0  0  0
   -7.1404    4.1438    6.9933 C   0  0  0  0  0  0  0  0  0  0  0  0
   -7.3815    3.7874    8.3024 N   0  0  0  0  0  0  0  0  0  0  0  0
   -8.6217    3.0558    8.7883 C   0  0  3  0  0  0  0  0  0  0  0  0
   -8.3937    1.5453    8.9820 C   0  0  0  0  0  0  0  0  0  0  0  0
   -8.2207    0.8858    7.6333 C   0  0  0  0  0  0  0  0  0  0  0  0
   -9.4341    1.0003    6.7953 N   0  0  3  0  0  0  0  0  0  0  0  0
   -9.9441    2.3707    6.7233 C   0  0  0  0  0  0  0  0  0  0  0  0
   -9.9115    3.2219    7.9799 C   0  0  0  0  0  0  0  0  0  0  0  0
   -9.1125    0.5088    5.4361 C   0  0  0  0  0  0  0  0  0  0  0  0
   -7.7485    0.9165    4.8576 C   0  0  0  0  0  0  0  0  0  0  0  0
   -7.8683    0.8621    3.3593 C   0  0  0  0  0  0  0  0  0  0  0  0
   -9.3692    0.7129    3.0151 C   0  0  0  0  0  0  0  0  0  0  0  0
  -10.1358    0.8093    4.3294 C   0  0  0  0  0  0  0  0  0  0  0  0
   -5.6260    4.5540    6.1950 S   0  0  0  0  0  0  0  0  0  0  0  0
   -5.7816    5.5889   -1.7812 H   0  0  0  0  0  0  0  0  0  0  0  0
   -7.4081    5.8348   -1.0434 H   0  0  0  0  0  0  0  0  0  0  0  0
   -7.0350    6.7827   -2.2775 H   0  0  0  0  0  0  0  0  0  0  0  0
   -8.6501    4.7113   -2.3891 H   0  0  0  0  0  0  0  0  0  0  0  0
   -6.1694    4.6915   -4.1915 H   0  0  0  0  0  0  0  0  0  0  0  0
   -7.7770    4.0572   -4.6469 H   0  0  0  0  0  0  0  0  0  0  0  0
   -7.5446    5.7953   -4.3385 H   0  0  0  0  0  0  0  0  0  0  0  0
   -7.6420    2.4852   -2.5281 H   0  0  0  0  0  0  0  0  0  0  0  0
   -6.0481    3.1451   -2.2177 H   0  0  0  0  0  0  0  0  0  0  0  0
   -7.3238    1.3235    0.7981 H   0  0  0  0  0  0  0  0  0  0  0  0
   -7.6131    0.9524   -0.8762 H   0  0  0  0  0  0  0  0  0  0  0  0
   -5.2063    1.5146   -1.4252 H   0  0  0  0  0  0  0  0  0  0  0  0
   -4.5975    2.9123    0.0830 H   0  0  0  0  0  0  0  0  0  0  0  0
   -5.3369   -0.3507    0.9566 H   0  0  0  0  0  0  0  0  0  0  0  0
   -3.0871    0.8469   -0.0371 H   0  0  0  0  0  0  0  0  0  0  0  0
   -3.1379   -0.7518    0.6267 H   0  0  0  0  0  0  0  0  0  0  0  0
   -0.9603   -0.8628   -0.6436 H   0  0  0  0  0  0  0  0  0  0  0  0
   -0.0334   -1.9413   -2.6732 H   0  0  0  0  0  0  0  0  0  0  0  0
   -1.5303   -2.4635   -4.5989 H   0  0  0  0  0  0  0  0  0  0  0  0
   -3.9166   -1.7827   -4.5162 H   0  0  0  0  0  0  0  0  0  0  0  0
   -4.5621   -0.1444   -2.8480 H   0  0  0  0  0  0  0  0  0  0  0  0
   -5.6939   -1.1294   -1.9328 H   0  0  0  0  0  0  0  0  0  0  0  0
   -8.1702   -3.7703    0.2312 H   0  0  0  0  0  0  0  0  0  0  0  0
   -6.0130   -4.3004    2.3595 H   0  0  0  0  0  0  0  0  0  0  0  0
   -6.4114   -5.3032    0.9504 H   0  0  0  0  0  0  0  0  0  0  0  0
   -7.0762   -2.4989    5.2074 H   0  0  0  0  0  0  0  0  0  0  0  0
   -8.8056   -2.2108    4.9539 H   0  0  0  0  0  0  0  0  0  0  0  0
   -8.1415   -1.2267    3.0947 H   0  0  0  0  0  0  0  0  0  0  0  0
   -6.5791   -1.9915    2.9859 H   0  0  0  0  0  0  0  0  0  0  0  0
   -4.9072    4.5808    2.9743 H   0  0  0  0  0  0  0  0  0  0  0  0
   -9.6425    3.5606    4.0332 H   0  0  0  0  0  0  0  0  0  0  0  0
   -8.8259    3.2397    1.7387 H   0  0  0  0  0  0  0  0  0  0  0  0
   -6.6932    3.9663    9.0274 H   0  0  0  0  0  0  0  0  0  0  0  0
   -8.8469    3.4560    9.7864 H   0  0  0  0  0  0  0  0  0  0  0  0
   -7.5225    1.3524    9.6152 H   0  0  0  0  0  0  0  0  0  0  0  0
   -9.2553    1.0717    9.4788 H   0  0  0  0  0  0  0  0  0  0  0  0
   -7.3358    1.3499    7.1863 H   0  0  0  0  0  0  0  0  0  0  0  0
   -7.9730   -0.1751    7.7554 H   0  0  0  0  0  0  0  0  0  0  0  0
  -10.9417    2.4609    6.2782 H   0  0  0  0  0  0  0  0  0  0  0  0
   -9.3418    2.8131    5.9760 H   0  0  0  0  0  0  0  0  0  0  0  0
  -10.7771    2.8981    8.5745 H   0  0  0  0  0  0  0  0  0  0  0  0
  -10.0837    4.2784    7.7442 H   0  0  0  0  0  0  0  0  0  0  0  0
   -9.0888   -0.5590    5.5647 H   0  0  0  0  0  0  0  0  0  0  0  0
   -7.5136    1.9236    5.1559 H   0  0  0  0  0  0  0  0  0  0  0  0
   -6.8901    0.3416    5.2182 H   0  0  0  0  0  0  0  0  0  0  0  0
   -7.3673    1.7033    2.9387 H   0  0  0  0  0  0  0  0  0  0  0  0
   -7.1725    0.1651    2.8977 H   0  0  0  0  0  0  0  0  0  0  0  0
   -9.7506    1.4443    2.2984 H   0  0  0  0  0  0  0  0  0  0  0  0
   -9.6120   -0.2392    2.5429 H   0  0  0  0  0  0  0  0  0  0  0  0
  -10.9877    0.1238    4.3734 H   0  0  0  0  0  0  0  0  0  0  0  0
  -10.5816    1.8020    4.3820 H   0  0  0  0  0  0  0  0  0  0  0  0
  1  2  1  0  0  0  0
  1 55  1  0  0  0  0
  1 56  1  0  0  0  0
  1 57  1  0  0  0  0
  2  3  1  0  0  0  0
  2  4  1  0  0  0  0
  2 58  1  0  0  0  0
  3 59  1  0  0  0  0
  3 60  1  0  0  0  0
  3 61  1  0  0  0  0
  4  5  1  0  0  0  0
  4 62  1  0  0  0  0
  4 63  1  0  0  0  0
  5  6  1  0  0  0  0
  5 31  1  0  0  0  0
  6  7  1  0  0  0  0
  6 64  1  0  0  0  0
  6 65  1  0  0  0  0
  7  8  1  0  0  0  0
  7 66  1  6  0  0  0
  8 67  1  0  0  0  0
  9 17  1  0  0  0  0
  9 68  1  1  0  0  0
  9 10  1  0  0  0  0
  9  7  1  0  0  0  0
 10 11  1  0  0  0  0
 10 69  1  0  0  0  0
 10 70  1  0  0  0  0
 11 12  1  0  0  0  0
 11 16  2  0  0  0  0
 12 71  1  0  0  0  0
 13 12  2  0  0  0  0
 13 72  1  0  0  0  0
 14 13  1  0  0  0  0
 14 73  1  0  0  0  0
 15 14  2  0  0  0  0
 15 74  1  0  0  0  0
 16 15  1  0  0  0  0
 16 75  1  0  0  0  0
 17 18  1  0  0  0  0
 17 76  1  0  0  0  0
 18 19  2  0  0  0  0
 18 20  1  0  0  0  0
 21 20  1  0  0  0  0
 21 22  1  0  0  0  0
 21 25  1  0  0  0  0
 21 77  1  6  0  0  0
 22 30  1  6  0  0  0
 23 22  1  0  0  0  0
 23 26  1  0  0  0  0
 23 29  1  6  0  0  0
 24 23  1  0  0  0  0
 25 24  1  0  0  0  0
 25 78  1  0  0  0  0
 25 79  1  0  0  0  0
 26 27  1  0  0  0  0
 27 28  1  0  0  0  0
 27 80  1  0  0  0  0
 27 81  1  0  0  0  0
 28 22  1  0  0  0  0
 28 82  1  0  0  0  0
 28 83  1  0  0  0  0
 31 32  2  0  0  0  0
 31 33  2  0  0  0  0
 31 34  1  0  0  0  0
 34 35  1  0  0  0  0
 34 39  2  0  0  0  0
 35 84  1  0  0  0  0
 36 35  2  0  0  0  0
 37 36  1  0  0  0  0
 37 40  1  0  0  0  0
 38 37  2  0  0  0  0
 38 85  1  0  0  0  0
 39 38  1  0  0  0  0
 39 86  1  0  0  0  0
 40 41  2  0  0  0  0
 41 42  1  0  0  0  0
 41 54  1  0  0  0  0
 42 43  1  0  0  0  0
 42 87  1  0  0  0  0
 43 44  1  0  0  0  0
 43 48  1  0  0  0  0
 43 88  1  0  0  0  0
 44 89  1  0  0  0  0
 44 90  1  0  0  0  0
 45 44  1  0  0  0  0
 45 91  1  0  0  0  0
 45 92  1  0  0  0  0
 46 45  1  0  0  0  0
 46 49  1  0  0  0  0
 47 46  1  0  0  0  0
 47 93  1  0  0  0  0
 47 94  1  0  0  0  0
 48 47  1  0  0  0  0
 48 95  1  0  0  0  0
 48 96  1  0  0  0  0
 49 50  1  0  0  0  0
 49 53  1  0  0  0  0
 49 97  1  0  0  0  0
 50 98  1  0  0  0  0
 50 99  1  0  0  0  0
 51 50  1  0  0  0  0
 51100  1  0  0  0  0
 51101  1  0  0  0  0
 52 51  1  0  0  0  0
 52102  1  0  0  0  0
 52103  1  0  0  0  0
 53 52  1  0  0  0  0
 53104  1  0  0  0  0
 53105  1  0  0  0  0
 54 36  1  0  0  0  0
M  END
>  <DRUGBANK_ID>
DB15623

>  <COMMON_NAME>
TMC-310911

>  <CAS_NUMBER>
1000287-05-7

>  <UNII>
0151W500HP

$$$$
