
 OpenBabel10282417153D

 54 56  0  0  1  0  0  0  0  0999 V2000
    3.5800   -0.9973    1.7854 C   0  0  0  0  0  0  0  0  0  0  0  0
    2.5161   -1.0972    2.8711 C   0  0  0  0  0  0  0  0  0  0  0  0
    1.0801   -0.6580    2.4440 C   0  0  2  0  0  0  0  0  0  0  0  0
    1.0529    0.8480    2.2722 C   0  0  0  0  0  0  0  0  0  0  0  0
    1.8210    1.3242    1.1704 C   0  0  0  0  0  0  0  0  0  0  0  0
    2.2764    2.6328    1.0413 C   0  0  0  0  0  0  0  0  0  0  0  0
    1.7829    3.5749    1.9299 C   0  0  0  0  0  0  0  0  0  0  0  0
    0.9241    3.1451    2.9541 C   0  0  0  0  0  0  0  0  0  0  0  0
    0.5305    1.7902    3.1465 C   0  0  0  0  0  0  0  0  0  0  0  0
   -0.4036    1.4662    4.2646 C   0  0  0  0  0  0  0  0  0  0  0  0
   -0.8442    0.3293    4.6959 N   0  0  0  0  0  0  0  0  0  0  0  0
   -0.6577   -0.9346    4.2731 N   0  0  0  0  0  0  0  0  0  0  0  0
    0.1197   -1.3793    3.3471 C   0  0  0  0  0  0  0  0  0  0  0  0
    0.0570   -2.9061    3.1952 C   0  0  0  0  0  0  0  0  0  0  0  0
   -0.9483    2.5993    5.0833 C   0  0  0  0  0  0  0  0  0  0  0  0
   -1.7052    3.6275    4.5213 C   0  0  0  0  0  0  0  0  0  0  0  0
   -2.1067    4.6986    5.3195 C   0  0  0  0  0  0  0  0  0  0  0  0
   -1.6995    4.7796    6.6591 C   0  0  0  0  0  0  0  0  0  0  0  0
   -0.9687    3.7157    7.2297 C   0  0  0  0  0  0  0  0  0  0  0  0
   -0.6559    2.6027    6.4476 C   0  0  0  0  0  0  0  0  0  0  0  0
   -0.5786    3.8489    8.5413 O   0  0  0  0  0  0  0  0  0  0  0  0
    0.2093    2.7906    9.0802 C   0  0  0  0  0  0  0  0  0  0  0  0
   -1.9617    5.8549    7.4730 O   0  0  0  0  0  0  0  0  0  0  0  0
   -2.6646    6.9476    6.8934 C   0  0  0  0  0  0  0  0  0  0  0  0
    2.0152    4.9285    1.9294 O   0  0  0  0  0  0  0  0  0  0  0  0
    2.8690    5.4377    0.9096 C   0  0  0  0  0  0  0  0  0  0  0  0
    3.1961    3.0193    0.1136 O   0  0  0  0  0  0  0  0  0  0  0  0
    3.8640    2.0566   -0.6822 C   0  0  0  0  0  0  0  0  0  0  0  0
    3.2403   -1.4703    0.8573 H   0  0  0  0  0  0  0  0  0  0  0  0
    4.5082   -1.4744    2.1033 H   0  0  0  0  0  0  0  0  0  0  0  0
    3.8505    0.0393    1.5903 H   0  0  0  0  0  0  0  0  0  0  0  0
    2.5380   -2.1397    3.1914 H   0  0  0  0  0  0  0  0  0  0  0  0
    2.8272   -0.5156    3.7467 H   0  0  0  0  0  0  0  0  0  0  0  0
    0.8484   -1.0734    1.4499 H   0  0  0  0  0  0  0  0  0  0  0  0
    2.1461    0.5975    0.4335 H   0  0  0  0  0  0  0  0  0  0  0  0
    0.5913    3.9334    3.6245 H   0  0  0  0  0  0  0  0  0  0  0  0
   -0.2653   -3.1666    2.1851 H   0  0  0  0  0  0  0  0  0  0  0  0
    1.0286   -3.3684    3.3816 H   0  0  0  0  0  0  0  0  0  0  0  0
   -0.6358   -3.3424    3.9214 H   0  0  0  0  0  0  0  0  0  0  0  0
   -1.9498    3.6255    3.4624 H   0  0  0  0  0  0  0  0  0  0  0  0
   -2.7186    5.4665    4.8586 H   0  0  0  0  0  0  0  0  0  0  0  0
   -0.1627    1.7286    6.8601 H   0  0  0  0  0  0  0  0  0  0  0  0
   -0.3701    1.8620    9.1242 H   0  0  0  0  0  0  0  0  0  0  0  0
    1.1370    2.6481    8.5125 H   0  0  0  0  0  0  0  0  0  0  0  0
    0.4887    3.0570   10.1030 H   0  0  0  0  0  0  0  0  0  0  0  0
   -2.1184    7.3707    6.0425 H   0  0  0  0  0  0  0  0  0  0  0  0
   -3.6762    6.6466    6.6016 H   0  0  0  0  0  0  0  0  0  0  0  0
   -2.7568    7.7334    7.6488 H   0  0  0  0  0  0  0  0  0  0  0  0
    3.8918    5.0726    1.0557 H   0  0  0  0  0  0  0  0  0  0  0  0
    2.4834    5.2044   -0.0902 H   0  0  0  0  0  0  0  0  0  0  0  0
    2.9014    6.5266    0.9848 H   0  0  0  0  0  0  0  0  0  0  0  0
    4.4915    1.3974   -0.0756 H   0  0  0  0  0  0  0  0  0  0  0  0
    3.1529    1.4947   -1.2913 H   0  0  0  0  0  0  0  0  0  0  0  0
    4.5255    2.6019   -1.3624 H   0  0  0  0  0  0  0  0  0  0  0  0
  1  2  1  0  0  0  0
  1 29  1  0  0  0  0
  1 30  1  0  0  0  0
  1 31  1  0  0  0  0
  2 32  1  0  0  0  0
  2 33  1  0  0  0  0
  3  4  1  0  0  0  0
  3 13  1  0  0  0  0
  3 34  1  6  0  0  0
  3  2  1  0  0  0  0
  4  5  2  0  0  0  0
  4  9  1  0  0  0  0
  5  6  1  0  0  0  0
  5 35  1  0  0  0  0
  6  7  2  0  0  0  0
  6 27  1  0  0  0  0
  7  8  1  0  0  0  0
  7 25  1  0  0  0  0
  8  9  2  0  0  0  0
  8 36  1  0  0  0  0
  9 10  1  0  0  0  0
 10 11  2  0  0  0  0
 10 15  1  0  0  0  0
 11 12  1  0  0  0  0
 12 13  2  0  0  0  0
 13 14  1  0  0  0  0
 14 37  1  0  0  0  0
 14 38  1  0  0  0  0
 14 39  1  0  0  0  0
 15 16  2  0  0  0  0
 15 20  1  0  0  0  0
 16 17  1  0  0  0  0
 16 40  1  0  0  0  0
 17 18  2  0  0  0  0
 17 41  1  0  0  0  0
 18 19  1  0  0  0  0
 18 23  1  0  0  0  0
 19 20  2  0  0  0  0
 19 21  1  0  0  0  0
 20 42  1  0  0  0  0
 21 22  1  0  0  0  0
 22 43  1  0  0  0  0
 22 44  1  0  0  0  0
 22 45  1  0  0  0  0
 23 24  1  0  0  0  0
 24 46  1  0  0  0  0
 24 47  1  0  0  0  0
 24 48  1  0  0  0  0
 25 26  1  0  0  0  0
 26 49  1  0  0  0  0
 26 50  1  0  0  0  0
 26 51  1  0  0  0  0
 27 28  1  0  0  0  0
 28 52  1  0  0  0  0
 28 53  1  0  0  0  0
 28 54  1  0  0  0  0
M  END
>  <DRUGBANK_ID>
DB06582

>  <COMMON_NAME>
Dextofisopam

>  <CAS_NUMBER>
82059-50-5

>  <UNII>
EZ15I5D6C1

>  <SYNONYMS>
Dextofisopam; R-tofisopam

$$$$
