689
 OpenBabel10282417163D

 45 47  0  0  0  0  0  0  0  0999 V2000
   -1.1827   -0.8526   -0.1158 C   0  0  0  0  0  0  0  0  0  0  0  0
    0.2967   -0.3553   -0.3984 C   0  0  1  0  0  0  0  0  0  0  0  0
    1.7606    0.5658    0.5426 C   0  0  1  0  0  0  0  0  0  0  0  0
    3.2621   -0.1893    0.8402 C   0  0  0  0  0  0  0  0  0  0  0  0
    4.7307    0.1007    0.4101 C   0  0  0  0  0  0  0  0  0  0  0  0
    3.0795   -1.4463    0.9130 C   0  0  0  0  0  0  0  0  0  0  0  0
    1.6572   -1.7075    0.7834 C   0  0  2  0  0  0  0  0  0  0  0  0
    1.3364   -2.6754    1.8895 C   0  0  0  0  0  0  0  0  0  0  0  0
    1.3671   -1.2109   -0.7980 C   0  0  1  0  0  0  0  0  0  0  0  0
    1.5198   -2.3509   -1.7453 C   0  0  0  0  0  0  0  0  0  0  0  0
    2.8979   -2.4007   -2.1302 O   0  0  0  0  0  0  0  0  0  0  0  0
    1.7910    0.3825   -1.6833 C   0  0  0  0  0  0  0  0  0  0  0  0
    1.0812    1.8504   -0.9511 O   0  0  0  0  0  0  0  0  0  0  0  0
    1.0051    1.7751    0.6175 C   0  0  2  0  0  0  0  0  0  0  0  0
    1.4831    2.6016    1.8308 C   0  0  0  0  0  0  0  0  0  0  0  0
    2.2000    3.7952    1.8073 C   0  0  0  0  0  0  0  0  0  0  0  0
    2.3278    4.5829    2.9826 C   0  0  0  0  0  0  0  0  0  0  0  0
    1.7736    4.1640    4.1934 C   0  0  0  0  0  0  0  0  0  0  0  0
    1.7701    4.9347    5.3199 O   0  0  0  0  0  0  0  0  0  0  0  0
    1.1839    2.9193    4.2803 C   0  0  0  0  0  0  0  0  0  0  0  0
    1.0715    2.1377    3.1218 C   0  0  0  0  0  0  0  0  0  0  0  0
   -0.0404   -0.0064   -1.3928 H   0  0  0  0  0  0  0  0  0  0  0  0
    2.5189    1.1608   -0.0323 H   0  0  0  0  0  0  0  0  0  0  0  0
    1.0526   -0.9930    1.3812 H   0  0  0  0  0  0  0  0  0  0  0  0
   -0.0185    1.4866    0.9012 H   0  0  0  0  0  0  0  0  0  0  0  0
   -1.7884   -0.6134   -1.0356 H   0  0  0  0  0  0  0  0  0  0  0  0
   -1.7924   -0.3380    0.6343 H   0  0  0  0  0  0  0  0  0  0  0  0
   -1.3351   -1.9401   -0.0910 H   0  0  0  0  0  0  0  0  0  0  0  0
    5.3992   -0.4152    1.1265 H   0  0  0  0  0  0  0  0  0  0  0  0
    4.9790   -0.3939   -0.5520 H   0  0  0  0  0  0  0  0  0  0  0  0
    5.0814    1.1278    0.3522 H   0  0  0  0  0  0  0  0  0  0  0  0
    3.8240   -2.2533    0.7922 H   0  0  0  0  0  0  0  0  0  0  0  0
    1.4227   -2.0761    2.8384 H   0  0  0  0  0  0  0  0  0  0  0  0
    0.3135   -3.0335    1.8877 H   0  0  0  0  0  0  0  0  0  0  0  0
    2.0934   -3.4442    2.0287 H   0  0  0  0  0  0  0  0  0  0  0  0
    1.2886   -3.3058   -1.2636 H   0  0  0  0  0  0  0  0  0  0  0  0
    0.9177   -2.2455   -2.6458 H   0  0  0  0  0  0  0  0  0  0  0  0
    3.1855   -1.5040   -2.3757 H   0  0  0  0  0  0  0  0  0  0  0  0
    1.3322    0.4188   -2.6848 H   0  0  0  0  0  0  0  0  0  0  0  0
    2.8596    0.5829   -1.7652 H   0  0  0  0  0  0  0  0  0  0  0  0
    2.6461    4.1483    0.8836 H   0  0  0  0  0  0  0  0  0  0  0  0
    2.8352    5.5421    2.9259 H   0  0  0  0  0  0  0  0  0  0  0  0
    2.1489    5.8060    5.1225 H   0  0  0  0  0  0  0  0  0  0  0  0
    0.7734    2.5768    5.2289 H   0  0  0  0  0  0  0  0  0  0  0  0
    0.6014    1.1608    3.2390 H   0  0  0  0  0  0  0  0  0  0  0  0
  1 26  1  0  0  0  0
  1 27  1  0  0  0  0
  1 28  1  0  0  0  0
  2  3  1  0  0  0  0
  2  9  1  0  0  0  0
  2 22  1  6  0  0  0
  2  1  1  0  0  0  0
  3  4  1  0  0  0  0
  3 14  1  0  0  0  0
  3 23  1  1  0  0  0
  4  6  2  0  0  0  0
  4  5  1  0  0  0  0
  5 29  1  0  0  0  0
  5 30  1  0  0  0  0
  5 31  1  0  0  0  0
  6  7  1  0  0  0  0
  6 32  1  0  0  0  0
  7  9  1  0  0  0  0
  7  8  1  0  0  0  0
  7 24  1  1  0  0  0
  8 33  1  0  0  0  0
  8 34  1  0  0  0  0
  8 35  1  0  0  0  0
  9 12  1  0  0  0  0
  9 10  1  6  0  0  0
 10 11  1  0  0  0  0
 10 36  1  0  0  0  0
 10 37  1  0  0  0  0
 11 38  1  0  0  0  0
 12 13  1  0  0  0  0
 12 39  1  0  0  0  0
 12 40  1  0  0  0  0
 13 14  1  0  0  0  0
 14 15  1  0  0  0  0
 14 25  1  1  0  0  0
 15 16  1  0  0  0  0
 15 21  2  0  0  0  0
 16 17  2  0  0  0  0
 16 41  1  0  0  0  0
 17 18  1  0  0  0  0
 17 42  1  0  0  0  0
 18 19  1  0  0  0  0
 18 20  2  0  0  0  0
 19 43  1  0  0  0  0
 20 21  1  0  0  0  0
 20 44  1  0  0  0  0
 21 45  1  0  0  0  0
M  END
>  <DRUGBANK_ID>
DB07195

>  <COMMON_NAME>
4-[(1S,2S,5S)-5-(HYDROXYMETHYL)-6,8,9-TRIMETHYL-3-OXABICYCLO[3.3.1]NON-7-EN-2-YL]PHENOL

$$$$
