H20
 OpenBabel10282417163D

 44 46  0  0  0  0  0  0  0  0999 V2000
   -1.3196    0.3413   -0.2721 C   0  0  0  0  0  0  0  0  0  0  0  0
   -0.9277   -0.9075    0.5215 C   0  0  0  0  0  0  0  0  0  0  0  0
    0.5563   -1.2123    0.3306 C   0  0  0  0  0  0  0  0  0  0  0  0
    1.5382   -0.1060    0.6031 C   0  0  0  0  0  0  0  0  0  0  0  0
    1.0851    1.1970   -0.0489 C   0  0  0  0  0  0  0  0  0  0  0  0
   -0.3949    1.4817    0.1906 C   0  0  0  0  0  0  0  0  0  0  0  0
    1.8644   -0.5850   -4.0763 N   0  0  0  0  0  0  0  0  0  0  0  0
    1.2447    0.6258   -4.2339 C   0  0  0  0  0  0  0  0  0  0  0  0
    1.7245    1.4450   -4.9882 O   0  0  0  0  0  0  0  0  0  0  0  0
    0.0274    0.8935   -3.3785 C   0  0  0  0  0  0  0  0  0  0  0  0
   -0.4750   -0.1033   -2.6104 C   0  0  0  0  0  0  0  0  0  0  0  0
   -1.5105    0.1173   -1.7061 O   0  0  0  0  0  0  0  0  0  0  0  0
    1.3541   -1.6299   -3.3184 C   0  0  0  0  0  0  0  0  0  0  0  0
    0.0804   -1.4974   -2.7443 C   0  0  0  0  0  0  0  0  0  0  0  0
   -0.4280   -2.6131   -2.0496 C   0  0  0  0  0  0  0  0  0  0  0  0
    0.4329   -3.6659   -1.6824 C   0  0  0  0  0  0  0  0  0  0  0  0
    1.7249   -3.7388   -2.1942 C   0  0  0  0  0  0  0  0  0  0  0  0
    2.1573   -2.7550   -3.0819 C   0  0  0  0  0  0  0  0  0  0  0  0
   -0.0045   -4.7146   -0.3767 Cl  0  0  0  0  0  0  0  0  0  0  0  0
   -0.5343    2.3099   -3.4325 C   0  0  0  0  0  0  0  0  0  0  0  0
    0.4573    3.4216   -3.0537 C   0  0  0  0  0  0  0  0  0  0  0  0
   -1.1195    2.5690   -4.8236 C   0  0  0  0  0  0  0  0  0  0  0  0
   -2.3301    0.6135    0.0702 H   0  0  0  0  0  0  0  0  0  0  0  0
   -1.1062   -0.7700    1.5937 H   0  0  0  0  0  0  0  0  0  0  0  0
   -1.5897   -1.7300    0.2340 H   0  0  0  0  0  0  0  0  0  0  0  0
    0.8458   -2.1674    0.7657 H   0  0  0  0  0  0  0  0  0  0  0  0
    0.7639   -1.3024   -0.7069 H   0  0  0  0  0  0  0  0  0  0  0  0
    1.6859   -0.0168    1.6768 H   0  0  0  0  0  0  0  0  0  0  0  0
    2.4974   -0.3964    0.1471 H   0  0  0  0  0  0  0  0  0  0  0  0
    1.7086    2.0168    0.3146 H   0  0  0  0  0  0  0  0  0  0  0  0
    1.2730    1.1459   -1.1223 H   0  0  0  0  0  0  0  0  0  0  0  0
   -0.6893    2.4315   -0.2594 H   0  0  0  0  0  0  0  0  0  0  0  0
   -0.5190    1.5933    1.2798 H   0  0  0  0  0  0  0  0  0  0  0  0
    2.7279   -0.6908   -4.5915 H   0  0  0  0  0  0  0  0  0  0  0  0
   -1.3913   -2.5413   -1.5586 H   0  0  0  0  0  0  0  0  0  0  0  0
    2.4046   -4.5261   -1.8738 H   0  0  0  0  0  0  0  0  0  0  0  0
    3.1583   -2.8240   -3.4987 H   0  0  0  0  0  0  0  0  0  0  0  0
   -1.3673    2.3959   -2.7224 H   0  0  0  0  0  0  0  0  0  0  0  0
    1.3154    3.4717   -3.7295 H   0  0  0  0  0  0  0  0  0  0  0  0
   -0.0332    4.4017   -3.0925 H   0  0  0  0  0  0  0  0  0  0  0  0
    0.8416    3.2930   -2.0382 H   0  0  0  0  0  0  0  0  0  0  0  0
   -1.8491    1.7945   -5.0830 H   0  0  0  0  0  0  0  0  0  0  0  0
   -1.6223    3.5397   -4.8641 H   0  0  0  0  0  0  0  0  0  0  0  0
   -0.3467    2.5720   -5.5986 H   0  0  0  0  0  0  0  0  0  0  0  0
  1  2  1  0  0  0  0
  1  6  1  0  0  0  0
  1 12  1  0  0  0  0
  1 23  1  0  0  0  0
  2  3  1  0  0  0  0
  2 24  1  0  0  0  0
  2 25  1  0  0  0  0
  3  4  1  0  0  0  0
  3 26  1  0  0  0  0
  3 27  1  0  0  0  0
  4  5  1  0  0  0  0
  4 28  1  0  0  0  0
  4 29  1  0  0  0  0
  5  6  1  0  0  0  0
  5 30  1  0  0  0  0
  5 31  1  0  0  0  0
  6 32  1  0  0  0  0
  6 33  1  0  0  0  0
  7  8  1  0  0  0  0
  7 13  1  0  0  0  0
  7 34  1  0  0  0  0
  8  9  2  0  0  0  0
  8 10  1  0  0  0  0
 10 11  2  0  0  0  0
 10 20  1  0  0  0  0
 11 12  1  0  0  0  0
 11 14  1  0  0  0  0
 13 14  1  0  0  0  0
 13 18  2  0  0  0  0
 14 15  2  0  0  0  0
 15 16  1  0  0  0  0
 15 35  1  0  0  0  0
 16 17  2  0  0  0  0
 16 19  1  0  0  0  0
 17 18  1  0  0  0  0
 17 36  1  0  0  0  0
 18 37  1  0  0  0  0
 20 21  1  0  0  0  0
 20 22  1  0  0  0  0
 20 38  1  0  0  0  0
 21 39  1  0  0  0  0
 21 40  1  0  0  0  0
 21 41  1  0  0  0  0
 22 42  1  0  0  0  0
 22 43  1  0  0  0  0
 22 44  1  0  0  0  0
M  END
>  <DRUGBANK_ID>
DB07871

>  <COMMON_NAME>
6-CHLORO-4-(CYCLOHEXYLOXY)-3-ISOPROPYLQUINOLIN-2(1H)-ONE

$$$$
