
 OpenBabel10282417233D

 57 59  0  0  0  0  0  0  0  0999 V2000
    1.1075    0.0842    0.0234 C   0  0  0  0  0  0  0  0  0  0  0  0
    0.5830    1.5007    0.2755 C   0  0  0  0  0  0  0  0  0  0  0  0
    1.0716    2.4509   -0.8024 C   0  0  0  0  0  0  0  0  0  0  0  0
   -0.9453    1.5435    0.3197 C   0  0  0  0  0  0  0  0  0  0  0  0
   -1.4889    0.6467    1.4047 C   0  0  0  0  0  0  0  0  0  0  0  0
   -1.0212    1.0366    2.7297 N   0  0  0  0  0  0  0  0  0  0  0  0
   -1.9322    1.3684    3.7049 C   0  0  0  0  0  0  0  0  0  0  0  0
   -1.7018    2.4986    4.4164 N   0  0  0  0  0  0  0  0  0  0  0  0
   -2.6221    2.8848    5.3433 C   0  0  0  0  0  0  0  0  0  0  0  0
   -3.7595    2.1812    5.6494 C   0  0  0  0  0  0  0  0  0  0  0  0
   -3.9376    1.0035    4.9739 C   0  0  0  0  0  0  0  0  0  0  0  0
   -3.0430    0.5901    3.9701 C   0  0  0  0  0  0  0  0  0  0  0  0
   -3.2063   -0.7637    3.3900 C   0  0  0  0  0  0  0  0  0  0  0  0
   -2.3781   -1.4010    2.7288 O   0  0  0  0  0  0  0  0  0  0  0  0
   -4.3138   -1.3822    3.8648 N   0  0  0  0  0  0  0  0  0  0  0  0
   -5.6456   -0.9799    3.3974 C   0  0  0  0  0  0  0  0  0  0  0  0
   -6.6466   -1.4531    4.4528 C   0  0  0  0  0  0  0  0  0  0  0  0
   -6.5795   -2.9090    4.7139 N   0  0  0  0  0  0  0  0  0  0  0  0
   -7.1942   -3.7485    3.6491 C   0  0  0  0  0  0  0  0  0  0  0  0
   -6.5575   -3.8277    2.2598 C   0  0  0  0  0  0  0  0  0  0  0  0
   -5.3430   -4.5054    2.0559 C   0  0  0  0  0  0  0  0  0  0  0  0
   -4.4955   -4.1109    1.0060 C   0  0  0  0  0  0  0  0  0  0  0  0
   -4.9953   -3.3472   -0.0353 C   0  0  0  0  0  0  0  0  0  0  0  0
   -6.3280   -2.9481    0.0010 C   0  0  0  0  0  0  0  0  0  0  0  0
   -7.0764   -3.1029    1.1769 C   0  0  0  0  0  0  0  0  0  0  0  0
   -5.1958   -3.2949    5.0833 C   0  0  0  0  0  0  0  0  0  0  0  0
   -4.1547   -2.7790    4.1041 C   0  0  0  0  0  0  0  0  0  0  0  0
    0.7261   -0.3082   -0.9252 H   0  0  0  0  0  0  0  0  0  0  0  0
    0.8170   -0.6151    0.8145 H   0  0  0  0  0  0  0  0  0  0  0  0
    2.1994    0.0764   -0.0051 H   0  0  0  0  0  0  0  0  0  0  0  0
    0.9839    1.8532    1.2322 H   0  0  0  0  0  0  0  0  0  0  0  0
    0.7113    2.1382   -1.7871 H   0  0  0  0  0  0  0  0  0  0  0  0
    0.7087    3.4658   -0.6089 H   0  0  0  0  0  0  0  0  0  0  0  0
    2.1639    2.4732   -0.8166 H   0  0  0  0  0  0  0  0  0  0  0  0
   -1.3090    2.5656    0.4793 H   0  0  0  0  0  0  0  0  0  0  0  0
   -1.3581    1.2062   -0.6418 H   0  0  0  0  0  0  0  0  0  0  0  0
   -2.5823    0.6691    1.3125 H   0  0  0  0  0  0  0  0  0  0  0  0
   -1.1750   -0.3784    1.1941 H   0  0  0  0  0  0  0  0  0  0  0  0
   -0.0800    1.3649    2.8743 H   0  0  0  0  0  0  0  0  0  0  0  0
   -2.4159    3.8140    5.8614 H   0  0  0  0  0  0  0  0  0  0  0  0
   -4.4771    2.4884    6.3992 H   0  0  0  0  0  0  0  0  0  0  0  0
   -4.7744    0.3938    5.2778 H   0  0  0  0  0  0  0  0  0  0  0  0
   -5.7005    0.0965    3.2009 H   0  0  0  0  0  0  0  0  0  0  0  0
   -5.8230   -1.4137    2.4183 H   0  0  0  0  0  0  0  0  0  0  0  0
   -6.3840   -0.9519    5.3971 H   0  0  0  0  0  0  0  0  0  0  0  0
   -7.6622   -1.1205    4.2275 H   0  0  0  0  0  0  0  0  0  0  0  0
   -7.2709   -4.7691    4.0370 H   0  0  0  0  0  0  0  0  0  0  0  0
   -8.2289   -3.4005    3.5415 H   0  0  0  0  0  0  0  0  0  0  0  0
   -4.8987   -5.0741    2.8744 H   0  0  0  0  0  0  0  0  0  0  0  0
   -3.4191   -4.2839    1.0822 H   0  0  0  0  0  0  0  0  0  0  0  0
   -4.3422   -3.0488   -0.8512 H   0  0  0  0  0  0  0  0  0  0  0  0
   -6.7558   -2.4417   -0.8578 H   0  0  0  0  0  0  0  0  0  0  0  0
   -8.0186   -2.5679    1.2701 H   0  0  0  0  0  0  0  0  0  0  0  0
   -4.9497   -2.8570    6.0635 H   0  0  0  0  0  0  0  0  0  0  0  0
   -5.1159   -4.3779    5.2151 H   0  0  0  0  0  0  0  0  0  0  0  0
   -4.2864   -3.1175    3.1157 H   0  0  0  0  0  0  0  0  0  0  0  0
   -3.1329   -3.1105    4.3228 H   0  0  0  0  0  0  0  0  0  0  0  0
  1  2  1  0  0  0  0
  1 28  1  0  0  0  0
  1 29  1  0  0  0  0
  1 30  1  0  0  0  0
  2  3  1  0  0  0  0
  2  4  1  0  0  0  0
  2 31  1  0  0  0  0
  3 32  1  0  0  0  0
  3 33  1  0  0  0  0
  3 34  1  0  0  0  0
  4  5  1  0  0  0  0
  4 35  1  0  0  0  0
  4 36  1  0  0  0  0
  5  6  1  0  0  0  0
  5 37  1  0  0  0  0
  5 38  1  0  0  0  0
  6  7  1  0  0  0  0
  6 39  1  0  0  0  0
  7  8  2  0  0  0  0
  7 12  1  0  0  0  0
  8  9  1  0  0  0  0
  9 10  2  0  0  0  0
  9 40  1  0  0  0  0
 10 11  1  0  0  0  0
 10 41  1  0  0  0  0
 11 12  2  0  0  0  0
 11 42  1  0  0  0  0
 12 13  1  0  0  0  0
 13 14  2  0  0  0  0
 13 15  1  0  0  0  0
 15 16  1  0  0  0  0
 15 27  1  0  0  0  0
 16 17  1  0  0  0  0
 16 43  1  0  0  0  0
 16 44  1  0  0  0  0
 17 18  1  0  0  0  0
 17 45  1  0  0  0  0
 17 46  1  0  0  0  0
 18 19  1  0  0  0  0
 18 26  1  0  0  0  0
 19 20  1  0  0  0  0
 19 47  1  0  0  0  0
 19 48  1  0  0  0  0
 20 21  2  0  0  0  0
 20 25  1  0  0  0  0
 21 22  1  0  0  0  0
 21 49  1  0  0  0  0
 22 23  2  0  0  0  0
 22 50  1  0  0  0  0
 23 24  1  0  0  0  0
 23 51  1  0  0  0  0
 24 25  2  0  0  0  0
 24 52  1  0  0  0  0
 25 53  1  0  0  0  0
 26 27  1  0  0  0  0
 26 54  1  0  0  0  0
 26 55  1  0  0  0  0
 27 56  1  0  0  0  0
 27 57  1  0  0  0  0
M  END
>  <DRUGBANK_ID>
DB16230

>  <COMMON_NAME>
NSI-189

>  <CAS_NUMBER>
1270138-40-3

>  <UNII>
YVE9U408ZL

$$$$
