
 OpenBabel10282417203D

 70 72  0  0  1  0  0  0  0  0999 V2000
    1.0042    1.3470   -0.3872 C   0  0  0  0  0  0  0  0  0  0  0  0
    2.9284   -1.7235    4.2878 C   0  0  0  0  0  0  0  0  0  0  0  0
   -5.1023    3.8659    0.3773 C   0  0  0  0  0  0  0  0  0  0  0  0
    1.6994    0.0881    0.0513 C   0  0  1  0  0  0  0  0  0  0  0  0
   -0.3918    1.4047    0.1995 C   0  0  2  0  0  0  0  0  0  0  0  0
    1.6029   -1.1530    3.7538 C   0  0  2  0  0  0  0  0  0  0  0  0
   -3.7866    3.5294   -0.3102 C   0  0  2  0  0  0  0  0  0  0  0  0
   -4.3365    2.2123   -2.4637 C   0  0  1  0  0  0  0  0  0  0  0  0
    0.0175   -3.2575    2.3185 C   0  0  2  0  0  0  0  0  0  0  0  0
   -3.8120    3.5404   -1.8507 C   0  0  2  0  0  0  0  0  0  0  0  0
    0.3424   -1.7630    4.3712 C   0  0  2  0  0  0  0  0  0  0  0  0
    0.1162   -3.2104    3.8595 C   0  0  2  0  0  0  0  0  0  0  0  0
   -3.5443    1.0303   -1.9347 C   0  0  2  0  0  0  0  0  0  0  0  0
   -0.5448   -1.0662    0.0290 C   0  0  1  0  0  0  0  0  0  0  0  0
    0.9146   -1.2023   -0.3208 C   0  0  2  0  0  0  0  0  0  0  0  0
   -1.2151    0.2214   -0.3395 C   0  0  1  0  0  0  0  0  0  0  0  0
    1.2971   -2.5085    1.7349 C   0  0  2  0  0  0  0  0  0  0  0  0
   -3.4751    1.0789   -0.3711 C   0  0  2  0  0  0  0  0  0  0  0  0
    4.0866   -1.2949    3.5005 N   0  0  0  0  0  0  0  0  0  0  0  0
    3.0678    0.0368   -0.4517 N   0  0  0  0  0  0  0  0  0  0  0  0
   -0.7959    2.7044   -0.2843 N   0  0  0  0  0  0  0  0  0  0  0  0
   -5.7668    1.9399   -2.2609 N   0  0  0  0  0  0  0  0  0  0  0  0
   -1.3912   -2.8596    2.0629 N   0  0  0  0  0  0  0  0  0  0  0  0
   -6.1582    3.0041   -0.0069 O   0  0  0  0  0  0  0  0  0  0  0  0
   -2.4860    3.8568   -2.3088 O   0  0  0  0  0  0  0  0  0  0  0  0
   -0.7614   -0.9055    4.0080 O   0  0  0  0  0  0  0  0  0  0  0  0
    1.0844   -4.1214    4.3704 O   0  0  0  0  0  0  0  0  0  0  0  0
   -2.3429    1.0616   -2.7148 O   0  0  0  0  0  0  0  0  0  0  0  0
   -1.2896   -2.2097   -0.4306 O   0  0  0  0  0  0  0  0  0  0  0  0
    1.5310   -1.2604    2.3385 O   0  0  0  0  0  0  0  0  0  0  0  0
   -3.2308    2.3314    0.2519 O   0  0  0  0  0  0  0  0  0  0  0  0
    1.4262   -2.4098    0.2990 O   0  0  0  0  0  0  0  0  0  0  0  0
   -2.5592    0.1170    0.1452 O   0  0  0  0  0  0  0  0  0  0  0  0
    1.7827    0.2543    1.1169 H   0  0  0  0  0  0  0  0  0  0  0  0
   -0.4355    1.3985    1.2991 H   0  0  0  0  0  0  0  0  0  0  0  0
    1.6037   -0.0703    3.9483 H   0  0  0  0  0  0  0  0  0  0  0  0
   -3.0886    4.3157    0.0190 H   0  0  0  0  0  0  0  0  0  0  0  0
   -4.1643    2.2702   -3.5459 H   0  0  0  0  0  0  0  0  0  0  0  0
    0.0797   -4.2802    1.9357 H   0  0  0  0  0  0  0  0  0  0  0  0
   -4.4120    4.3810   -2.2023 H   0  0  0  0  0  0  0  0  0  0  0  0
    0.4147   -1.7445    5.4614 H   0  0  0  0  0  0  0  0  0  0  0  0
   -0.8382   -3.5592    4.2731 H   0  0  0  0  0  0  0  0  0  0  0  0
   -4.0077    0.0694   -2.1940 H   0  0  0  0  0  0  0  0  0  0  0  0
   -0.5618   -1.0137    1.1042 H   0  0  0  0  0  0  0  0  0  0  0  0
    0.9943   -1.3679   -1.4069 H   0  0  0  0  0  0  0  0  0  0  0  0
   -1.1623    0.1702   -1.4062 H   0  0  0  0  0  0  0  0  0  0  0  0
    2.1564   -3.1384    1.9855 H   0  0  0  0  0  0  0  0  0  0  0  0
   -4.4525    0.7618    0.0172 H   0  0  0  0  0  0  0  0  0  0  0  0
    1.5684    2.2210   -0.0373 H   0  0  0  0  0  0  0  0  0  0  0  0
    0.9463    1.3964   -1.4827 H   0  0  0  0  0  0  0  0  0  0  0  0
    3.0596   -1.4363    5.3349 H   0  0  0  0  0  0  0  0  0  0  0  0
    2.9379   -2.8072    4.2441 H   0  0  0  0  0  0  0  0  0  0  0  0
   -4.9867    3.7749    1.4614 H   0  0  0  0  0  0  0  0  0  0  0  0
   -5.3957    4.8916    0.1375 H   0  0  0  0  0  0  0  0  0  0  0  0
    4.8786   -1.9028    3.7017 H   0  0  0  0  0  0  0  0  0  0  0  0
    3.8717   -1.4072    2.5069 H   0  0  0  0  0  0  0  0  0  0  0  0
    3.4716   -0.8289   -0.0969 H   0  0  0  0  0  0  0  0  0  0  0  0
    3.0488   -0.0410   -1.4647 H   0  0  0  0  0  0  0  0  0  0  0  0
   -0.5627    3.4315    0.3835 H   0  0  0  0  0  0  0  0  0  0  0  0
   -1.8072    2.6940   -0.2910 H   0  0  0  0  0  0  0  0  0  0  0  0
   -6.0127    1.1071   -2.8019 H   0  0  0  0  0  0  0  0  0  0  0  0
   -5.8934    1.6059   -1.2901 H   0  0  0  0  0  0  0  0  0  0  0  0
   -1.5730   -2.9302    1.0501 H   0  0  0  0  0  0  0  0  0  0  0  0
   -1.5080   -1.8556    2.2252 H   0  0  0  0  0  0  0  0  0  0  0  0
   -6.3458    3.2225   -0.9470 H   0  0  0  0  0  0  0  0  0  0  0  0
   -2.4000    3.6610   -3.2574 H   0  0  0  0  0  0  0  0  0  0  0  0
   -1.5635   -1.4571    3.9564 H   0  0  0  0  0  0  0  0  0  0  0  0
    1.7518   -4.3098    3.6850 H   0  0  0  0  0  0  0  0  0  0  0  0
   -2.1245    0.1454   -2.9598 H   0  0  0  0  0  0  0  0  0  0  0  0
   -1.3213   -2.2048   -1.4176 H   0  0  0  0  0  0  0  0  0  0  0  0
  1 49  1  0  0  0  0
  1 50  1  0  0  0  0
  2 51  1  0  0  0  0
  2 52  1  0  0  0  0
  3 53  1  0  0  0  0
  3 54  1  0  0  0  0
  4  1  1  0  0  0  0
  4 20  1  0  0  0  0
  4 34  1  1  0  0  0
  5  1  1  0  0  0  0
  5 35  1  1  0  0  0
  5 21  1  0  0  0  0
  6 36  1  1  0  0  0
  6  2  1  0  0  0  0
  7 37  1  1  0  0  0
  7  3  1  0  0  0  0
  8 22  1  0  0  0  0
  8 38  1  6  0  0  0
  9 39  1  6  0  0  0
  9 23  1  0  0  0  0
 10  7  1  0  0  0  0
 10  8  1  0  0  0  0
 10 40  1  6  0  0  0
 10 25  1  0  0  0  0
 11  6  1  0  0  0  0
 11 41  1  1  0  0  0
 11 26  1  0  0  0  0
 12  9  1  0  0  0  0
 12 11  1  0  0  0  0
 12 27  1  0  0  0  0
 12 42  1  1  0  0  0
 13  8  1  0  0  0  0
 13 43  1  6  0  0  0
 13 28  1  0  0  0  0
 14 29  1  0  0  0  0
 14 44  1  1  0  0  0
 15  4  1  0  0  0  0
 15 14  1  0  0  0  0
 15 45  1  6  0  0  0
 15 32  1  0  0  0  0
 16  5  1  0  0  0  0
 16 14  1  0  0  0  0
 16 46  1  6  0  0  0
 16 33  1  0  0  0  0
 17  9  1  0  0  0  0
 17 32  1  0  0  0  0
 17 47  1  1  0  0  0
 18 13  1  0  0  0  0
 18 33  1  0  0  0  0
 18 48  1  1  0  0  0
 19  2  1  0  0  0  0
 19 55  1  0  0  0  0
 19 56  1  0  0  0  0
 20 57  1  0  0  0  0
 20 58  1  0  0  0  0
 21 59  1  0  0  0  0
 21 60  1  0  0  0  0
 22 61  1  0  0  0  0
 22 62  1  0  0  0  0
 23 63  1  0  0  0  0
 23 64  1  0  0  0  0
 24  3  1  0  0  0  0
 24 65  1  0  0  0  0
 25 66  1  0  0  0  0
 26 67  1  0  0  0  0
 27 68  1  0  0  0  0
 28 69  1  0  0  0  0
 29 70  1  0  0  0  0
 30  6  1  0  0  0  0
 30 17  1  0  0  0  0
 31  7  1  0  0  0  0
 31 18  1  0  0  0  0
M  END
>  <DRUGBANK_ID>
DB13673

>  <COMMON_NAME>
Bekanamycin

>  <CAS_NUMBER>
4696-76-8

>  <UNII>
15JT14C3GI

>  <SYNONYMS>
Bekanamycin

$$$$
