
 OpenBabel10282417153D

 39 40  0  0  0  0  0  0  0  0999 V2000
    2.2469    0.0905    0.0016 F   0  0  0  0  0  0  0  0  0  0  0  0
   -3.1563   -8.1632   -3.2563 O   0  0  0  0  0  0  0  0  0  0  0  0
   -3.7144   -6.3602   -4.3215 O   0  0  0  0  0  0  0  0  0  0  0  0
   -4.0579   -0.7048   -1.0673 N   0  0  0  0  0  0  0  0  0  0  0  0
   -4.1879   -2.5153   -2.4615 N   0  0  0  0  0  0  0  0  0  0  0  0
   -3.2438   -6.1455   -2.0360 N   0  0  0  0  0  0  0  0  0  0  0  0
   -4.5820   -4.1987   -3.9049 N   0  0  0  0  0  0  0  0  0  0  0  0
   -3.4335    0.0264    0.0127 C   0  0  0  0  0  0  0  0  0  0  0  0
   -1.9102    0.0435   -0.0209 C   0  0  0  0  0  0  0  0  0  0  0  0
   -3.9477   -2.0624   -1.2322 C   0  0  0  0  0  0  0  0  0  0  0  0
   -3.4986   -4.7543   -1.7909 C   0  0  0  0  0  0  0  0  0  0  0  0
   -3.5853   -2.9359   -0.2157 C   0  0  0  0  0  0  0  0  0  0  0  0
   -4.0397   -3.8340   -2.7107 C   0  0  0  0  0  0  0  0  0  0  0  0
   -1.2139    1.2563   -0.0061 C   0  0  0  0  0  0  0  0  0  0  0  0
   -1.1286   -1.1284   -0.0013 C   0  0  0  0  0  0  0  0  0  0  0  0
   -3.2404   -4.2565   -0.5131 C   0  0  0  0  0  0  0  0  0  0  0  0
    0.1896    1.2682   -0.0027 C   0  0  0  0  0  0  0  0  0  0  0  0
    0.2576   -1.1301    0.0073 C   0  0  0  0  0  0  0  0  0  0  0  0
    0.9097    0.0771    0.0021 C   0  0  0  0  0  0  0  0  0  0  0  0
   -3.3768   -6.8299   -3.2354 C   0  0  0  0  0  0  0  0  0  0  0  0
   -2.5251   -8.9260   -2.2393 C   0  0  0  0  0  0  0  0  0  0  0  0
   -1.1306   -8.4071   -1.9696 C   0  0  0  0  0  0  0  0  0  0  0  0
   -4.2448   -0.2232   -1.9416 H   0  0  0  0  0  0  0  0  0  0  0  0
   -2.9265   -6.6618   -1.2292 H   0  0  0  0  0  0  0  0  0  0  0  0
   -4.8687   -3.5091   -4.5702 H   0  0  0  0  0  0  0  0  0  0  0  0
   -4.5604   -5.1693   -4.1879 H   0  0  0  0  0  0  0  0  0  0  0  0
   -3.7824   -0.3700    0.9727 H   0  0  0  0  0  0  0  0  0  0  0  0
   -3.8176    1.0547   -0.0246 H   0  0  0  0  0  0  0  0  0  0  0  0
   -3.4193   -2.5600    0.7901 H   0  0  0  0  0  0  0  0  0  0  0  0
   -1.7519    2.2018   -0.0007 H   0  0  0  0  0  0  0  0  0  0  0  0
   -1.5411   -2.1166   -0.0078 H   0  0  0  0  0  0  0  0  0  0  0  0
   -2.7712   -4.8413    0.2748 H   0  0  0  0  0  0  0  0  0  0  0  0
    0.7325    2.2055   -0.0088 H   0  0  0  0  0  0  0  0  0  0  0  0
    0.7950   -2.0726    0.0073 H   0  0  0  0  0  0  0  0  0  0  0  0
   -3.1780   -8.9536   -1.3651 H   0  0  0  0  0  0  0  0  0  0  0  0
   -2.4585   -9.9428   -2.6436 H   0  0  0  0  0  0  0  0  0  0  0  0
   -1.1250   -7.3733   -1.6196 H   0  0  0  0  0  0  0  0  0  0  0  0
   -0.6458   -9.0196   -1.2109 H   0  0  0  0  0  0  0  0  0  0  0  0
   -0.5401   -8.4034   -2.8916 H   0  0  0  0  0  0  0  0  0  0  0  0
  1 19  1  0  0  0  0
  2 20  1  0  0  0  0
  2 21  1  0  0  0  0
  3 20  2  0  0  0  0
  4  8  1  0  0  0  0
  4 10  1  0  0  0  0
  4 23  1  0  0  0  0
  5 10  2  0  0  0  0
  5 13  1  0  0  0  0
  6 11  1  0  0  0  0
  6 20  1  0  0  0  0
  6 24  1  0  0  0  0
  7 13  1  0  0  0  0
  7 25  1  0  0  0  0
  7 26  1  0  0  0  0
  8  9  1  0  0  0  0
  8 27  1  0  0  0  0
  8 28  1  0  0  0  0
  9 14  2  0  0  0  0
  9 15  1  0  0  0  0
 10 12  1  0  0  0  0
 11 13  2  0  0  0  0
 11 16  1  0  0  0  0
 12 16  2  0  0  0  0
 12 29  1  0  0  0  0
 14 17  1  0  0  0  0
 14 30  1  0  0  0  0
 15 18  2  0  0  0  0
 15 31  1  0  0  0  0
 16 32  1  0  0  0  0
 17 19  2  0  0  0  0
 17 33  1  0  0  0  0
 18 19  1  0  0  0  0
 18 34  1  0  0  0  0
 21 22  1  0  0  0  0
 21 35  1  0  0  0  0
 21 36  1  0  0  0  0
 22 37  1  0  0  0  0
 22 38  1  0  0  0  0
 22 39  1  0  0  0  0
M  END
>  <DRUGBANK_ID>
DB06623

>  <COMMON_NAME>
Flupirtine

>  <CAS_NUMBER>
56995-20-1

>  <UNII>
MOH3ET196H

>  <SYNONYMS>
Flupirtine; Flupirtino; Flupirtinum

$$$$
