
 OpenBabel10282417243D

123123  0  0  0  0  0  0  0  0999 V2000
    0.9684    0.1369   -0.0034 C   0  0  0  0  0  0  0  0  0  0  0  0
    0.5161   -1.1353   -0.7010 C   0  0  0  0  0  0  0  0  0  0  0  0
    1.0165   -2.3620    0.0622 C   0  0  0  0  0  0  0  0  0  0  0  0
    0.4682   -2.3792    1.4930 C   0  0  0  0  0  0  0  0  0  0  0  0
   -1.0646   -2.3880    1.4771 C   0  0  0  0  0  0  0  0  0  0  0  0
   -1.5675   -3.6413    0.7570 C   0  0  0  0  0  0  0  0  0  0  0  0
   -1.0511   -4.8778    1.4889 C   0  0  0  0  0  0  0  0  0  0  0  0
   -1.5488   -4.8359    2.9382 C   0  0  0  0  0  0  0  0  0  0  0  0
   -3.0831   -4.8497    2.9464 C   0  0  0  0  0  0  0  0  0  0  0  0
   -3.5403   -6.1236    2.2538 C   0  0  0  0  0  0  0  0  0  0  0  0
   -2.7886   -7.3049    2.8989 C   0  0  0  0  0  0  0  0  0  0  0  0
   -2.8633   -7.3575    4.4500 C   0  0  0  0  0  0  0  0  0  0  0  0
   -4.2455   -7.5760    4.8806 C   0  0  0  0  0  0  0  0  0  0  0  0
   -4.4864   -9.0446    4.4558 C   0  0  0  0  0  0  0  0  0  0  0  0
   -4.7454  -10.3039    5.1466 C   0  0  0  0  0  0  0  0  0  0  0  0
   -5.9900  -10.8685    5.3431 C   0  0  0  0  0  0  0  0  0  0  0  0
   -7.3434  -10.5115    5.1246 O   0  0  0  0  0  0  0  0  0  0  0  0
   -8.1519   -9.5382    4.3162 C   0  0  0  0  0  0  0  0  0  0  0  0
   -8.0726   -8.0775    4.6967 C   0  0  3  0  0  0  0  0  0  0  0  0
   -6.6829   -7.7745    4.6761 C   0  0  0  0  0  0  0  0  0  0  0  0
   -6.1721   -8.0334    3.0930 O   0  0  0  0  0  0  0  0  0  0  0  0
   -6.0742   -9.4987    2.1624 P   0  0  3  0  0  0  0  0  0  0  0  0
   -6.1449  -10.8551    2.8019 O   0  0  0  0  0  0  0  0  0  0  0  0
   -4.6756   -9.5753    1.2795 N   0  0  0  0  0  0  0  0  0  0  0  0
   -5.0457  -10.2558    0.0314 C   0  0  0  0  0  0  0  0  0  0  0  0
   -6.5593  -10.5528    0.0624 C   0  0  0  0  0  0  0  0  0  0  0  0
   -7.1029   -9.5588    0.9216 O   0  0  0  0  0  0  0  0  0  0  0  0
   -8.3740   -6.9623    3.8355 O   0  0  0  0  0  0  0  0  0  0  0  0
   -7.9990   -6.7291    2.5569 C   0  0  0  0  0  0  0  0  0  0  0  0
   -7.8382   -7.5846    1.6545 O   0  0  0  0  0  0  0  0  0  0  0  0
   -8.1586   -5.3650    2.1046 C   0  0  0  0  0  0  0  0  0  0  0  0
   -9.6612   -5.4614    2.0079 C   0  0  0  0  0  0  0  0  0  0  0  0
  -10.2795   -5.4440    3.3886 C   0  0  0  0  0  0  0  0  0  0  0  0
  -10.9397   -4.4189    3.8867 C   0  0  0  0  0  0  0  0  0  0  0  0
  -11.2489   -3.3030    2.9996 C   0  0  0  0  0  0  0  0  0  0  0  0
  -12.7171   -3.2263    2.8510 C   0  0  0  0  0  0  0  0  0  0  0  0
  -13.3680   -2.1163    3.1790 C   0  0  0  0  0  0  0  0  0  0  0  0
  -12.6403   -0.9438    3.7223 C   0  0  0  0  0  0  0  0  0  0  0  0
  -12.8612    0.2557    2.8804 C   0  0  0  0  0  0  0  0  0  0  0  0
  -13.3630    1.3773    3.3941 C   0  0  0  0  0  0  0  0  0  0  0  0
  -13.7656    1.4638    4.8211 C   0  0  0  0  0  0  0  0  0  0  0  0
  -13.0632    2.5706    5.5187 C   0  0  0  0  0  0  0  0  0  0  0  0
  -13.7345    3.5382    6.1433 C   0  0  0  0  0  0  0  0  0  0  0  0
  -15.2199    3.5899    6.1312 C   0  0  0  0  0  0  0  0  0  0  0  0
  -15.7785    3.6091    7.5075 C   0  0  0  0  0  0  0  0  0  0  0  0
  -16.5881    4.5851    7.9228 C   0  0  0  0  0  0  0  0  0  0  0  0
  -16.9420    5.7437    7.0561 C   0  0  0  0  0  0  0  0  0  0  0  0
  -18.4142    5.8904    6.9113 C   0  0  0  0  0  0  0  0  0  0  0  0
  -19.0672    7.0080    7.2481 C   0  0  0  0  0  0  0  0  0  0  0  0
  -18.3970    8.2195    7.8272 C   0  0  0  0  0  0  0  0  0  0  0  0
  -18.5449    9.4115    6.9098 C   0  0  0  0  0  0  0  0  0  0  0  0
    0.5785    0.2097    1.0173 H   0  0  0  0  0  0  0  0  0  0  0  0
    0.6136    1.0185   -0.5368 H   0  0  0  0  0  0  0  0  0  0  0  0
    2.0606    0.1579    0.0530 H   0  0  0  0  0  0  0  0  0  0  0  0
   -0.5771   -1.1391   -0.7884 H   0  0  0  0  0  0  0  0  0  0  0  0
    0.8891   -1.1626   -1.7279 H   0  0  0  0  0  0  0  0  0  0  0  0
    0.7293   -3.2713   -0.4803 H   0  0  0  0  0  0  0  0  0  0  0  0
    2.1096   -2.3799    0.0871 H   0  0  0  0  0  0  0  0  0  0  0  0
    0.8769   -3.2408    2.0318 H   0  0  0  0  0  0  0  0  0  0  0  0
    0.8259   -1.5277    2.0755 H   0  0  0  0  0  0  0  0  0  0  0  0
   -1.4425   -2.3211    2.5023 H   0  0  0  0  0  0  0  0  0  0  0  0
   -1.4836   -1.4979    1.0038 H   0  0  0  0  0  0  0  0  0  0  0  0
   -2.6602   -3.6227    0.6976 H   0  0  0  0  0  0  0  0  0  0  0  0
   -1.2604   -3.6757   -0.2906 H   0  0  0  0  0  0  0  0  0  0  0  0
   -1.3618   -5.7789    0.9501 H   0  0  0  0  0  0  0  0  0  0  0  0
    0.0384   -4.9582    1.4772 H   0  0  0  0  0  0  0  0  0  0  0  0
   -1.1068   -5.6708    3.4876 H   0  0  0  0  0  0  0  0  0  0  0  0
   -1.1814   -3.9825    3.5070 H   0  0  0  0  0  0  0  0  0  0  0  0
   -3.4623   -4.7988    3.9705 H   0  0  0  0  0  0  0  0  0  0  0  0
   -3.5212   -3.9722    2.4627 H   0  0  0  0  0  0  0  0  0  0  0  0
   -4.6336   -6.1924    2.2754 H   0  0  0  0  0  0  0  0  0  0  0  0
   -3.3229   -6.1144    1.1770 H   0  0  0  0  0  0  0  0  0  0  0  0
   -3.1101   -8.1867    2.3619 H   0  0  0  0  0  0  0  0  0  0  0  0
   -1.7264   -7.3244    2.6642 H   0  0  0  0  0  0  0  0  0  0  0  0
   -2.3291   -8.2084    4.8636 H   0  0  0  0  0  0  0  0  0  0  0  0
   -2.5430   -6.4452    4.9492 H   0  0  0  0  0  0  0  0  0  0  0  0
   -4.4398   -7.3875    5.9371 H   0  0  0  0  0  0  0  0  0  0  0  0
   -4.7807   -6.7604    4.3418 H   0  0  0  0  0  0  0  0  0  0  0  0
   -5.4803   -9.1739    4.2053 H   0  0  0  0  0  0  0  0  0  0  0  0
   -4.0596   -9.1960    3.4860 H   0  0  0  0  0  0  0  0  0  0  0  0
   -3.8165  -10.8617    5.1298 H   0  0  0  0  0  0  0  0  0  0  0  0
   -5.9865  -11.9166    5.6257 H   0  0  0  0  0  0  0  0  0  0  0  0
   -8.0365   -9.6559    3.2483 H   0  0  0  0  0  0  0  0  0  0  0  0
   -9.2074   -9.8056    4.4099 H   0  0  0  0  0  0  0  0  0  0  0  0
   -8.4185   -7.9123    5.7319 H   0  0  0  0  0  0  0  0  0  0  0  0
   -6.5122   -6.7176    4.9824 H   0  0  0  0  0  0  0  0  0  0  0  0
   -6.2653   -8.3490    5.5276 H   0  0  0  0  0  0  0  0  0  0  0  0
   -4.0814  -10.2221    1.7990 H   0  0  0  0  0  0  0  0  0  0  0  0
   -4.8174   -9.5413   -0.7551 H   0  0  0  0  0  0  0  0  0  0  0  0
   -4.4623  -11.1727   -0.1038 H   0  0  0  0  0  0  0  0  0  0  0  0
   -7.0353  -10.4622   -0.9093 H   0  0  0  0  0  0  0  0  0  0  0  0
   -6.7789  -11.5403    0.4944 H   0  0  0  0  0  0  0  0  0  0  0  0
   -7.7004   -4.5986    2.7399 H   0  0  0  0  0  0  0  0  0  0  0  0
   -7.6943   -5.2780    1.1083 H   0  0  0  0  0  0  0  0  0  0  0  0
   -9.9567   -4.6922    1.3120 H   0  0  0  0  0  0  0  0  0  0  0  0
   -9.9822   -6.3973    1.5277 H   0  0  0  0  0  0  0  0  0  0  0  0
  -10.1723   -6.2560    4.1004 H   0  0  0  0  0  0  0  0  0  0  0  0
  -11.2618   -4.4366    4.9239 H   0  0  0  0  0  0  0  0  0  0  0  0
  -10.6926   -2.4749    3.4205 H   0  0  0  0  0  0  0  0  0  0  0  0
  -10.8733   -3.3442    1.9836 H   0  0  0  0  0  0  0  0  0  0  0  0
  -13.2487   -4.0964    2.4701 H   0  0  0  0  0  0  0  0  0  0  0  0
  -14.4479   -2.0775    3.0899 H   0  0  0  0  0  0  0  0  0  0  0  0
  -12.9445   -0.9046    4.7638 H   0  0  0  0  0  0  0  0  0  0  0  0
  -11.5586   -1.0040    3.8060 H   0  0  0  0  0  0  0  0  0  0  0  0
  -12.5687    0.2133    1.8342 H   0  0  0  0  0  0  0  0  0  0  0  0
  -13.5278    2.2399    2.7550 H   0  0  0  0  0  0  0  0  0  0  0  0
  -14.8507    1.4987    4.7870 H   0  0  0  0  0  0  0  0  0  0  0  0
  -13.5803    0.5977    5.4505 H   0  0  0  0  0  0  0  0  0  0  0  0
  -11.9765    2.5545    5.5474 H   0  0  0  0  0  0  0  0  0  0  0  0
  -13.1949    4.3400    6.6405 H   0  0  0  0  0  0  0  0  0  0  0  0
  -15.4516    4.4341    5.4879 H   0  0  0  0  0  0  0  0  0  0  0  0
  -15.7437    2.7714    5.6446 H   0  0  0  0  0  0  0  0  0  0  0  0
  -15.5452    2.7757    8.1669 H   0  0  0  0  0  0  0  0  0  0  0  0
  -16.9772    4.5676    8.9376 H   0  0  0  0  0  0  0  0  0  0  0  0
  -16.4124    6.5892    7.4865 H   0  0  0  0  0  0  0  0  0  0  0  0
  -16.5696    5.7173    6.0343 H   0  0  0  0  0  0  0  0  0  0  0  0
  -18.9526    5.0560    6.4602 H   0  0  0  0  0  0  0  0  0  0  0  0
  -20.1412    7.0513    7.0845 H   0  0  0  0  0  0  0  0  0  0  0  0
  -18.8083    8.4128    8.8201 H   0  0  0  0  0  0  0  0  0  0  0  0
  -17.3259    8.0937    7.9863 H   0  0  0  0  0  0  0  0  0  0  0  0
  -19.5949    9.6954    6.8142 H   0  0  0  0  0  0  0  0  0  0  0  0
  -17.9836   10.2558    7.3198 H   0  0  0  0  0  0  0  0  0  0  0  0
  -18.1448    9.1958    5.9117 H   0  0  0  0  0  0  0  0  0  0  0  0
  1  2  1  0  0  0  0
  1 52  1  0  0  0  0
  1 53  1  0  0  0  0
  1 54  1  0  0  0  0
  2  3  1  0  0  0  0
  2 55  1  0  0  0  0
  2 56  1  0  0  0  0
  3  4  1  0  0  0  0
  3 57  1  0  0  0  0
  3 58  1  0  0  0  0
  4  5  1  0  0  0  0
  4 59  1  0  0  0  0
  4 60  1  0  0  0  0
  5  6  1  0  0  0  0
  5 61  1  0  0  0  0
  5 62  1  0  0  0  0
  6  7  1  0  0  0  0
  6 63  1  0  0  0  0
  6 64  1  0  0  0  0
  7  8  1  0  0  0  0
  7 65  1  0  0  0  0
  7 66  1  0  0  0  0
  8  9  1  0  0  0  0
  8 67  1  0  0  0  0
  8 68  1  0  0  0  0
  9 10  1  0  0  0  0
  9 69  1  0  0  0  0
  9 70  1  0  0  0  0
 10 11  1  0  0  0  0
 10 71  1  0  0  0  0
 10 72  1  0  0  0  0
 11 12  1  0  0  0  0
 11 73  1  0  0  0  0
 11 74  1  0  0  0  0
 12 13  1  0  0  0  0
 12 75  1  0  0  0  0
 12 76  1  0  0  0  0
 13 14  1  0  0  0  0
 13 77  1  0  0  0  0
 13 78  1  0  0  0  0
 14 15  1  0  0  0  0
 14 79  1  0  0  0  0
 14 80  1  0  0  0  0
 15 16  2  0  0  0  0
 15 81  1  0  0  0  0
 16 17  1  0  0  0  0
 16 82  1  0  0  0  0
 17 18  1  0  0  0  0
 18 19  1  0  0  0  0
 18 83  1  0  0  0  0
 18 84  1  0  0  0  0
 19 20  1  0  0  0  0
 19 28  1  0  0  0  0
 19 85  1  0  0  0  0
 20 21  1  0  0  0  0
 20 86  1  0  0  0  0
 20 87  1  0  0  0  0
 21 22  1  0  0  0  0
 22 23  2  0  0  0  0
 22 24  1  0  0  0  0
 22 27  1  0  0  0  0
 24 25  1  0  0  0  0
 24 88  1  0  0  0  0
 25 26  1  0  0  0  0
 25 89  1  0  0  0  0
 25 90  1  0  0  0  0
 26 27  1  0  0  0  0
 26 91  1  0  0  0  0
 26 92  1  0  0  0  0
 28 29  1  0  0  0  0
 29 30  2  0  0  0  0
 29 31  1  0  0  0  0
 31 32  1  0  0  0  0
 31 93  1  0  0  0  0
 31 94  1  0  0  0  0
 32 33  1  0  0  0  0
 32 95  1  0  0  0  0
 32 96  1  0  0  0  0
 33 34  2  0  0  0  0
 33 97  1  0  0  0  0
 34 35  1  0  0  0  0
 34 98  1  0  0  0  0
 35 36  1  0  0  0  0
 35 99  1  0  0  0  0
 35100  1  0  0  0  0
 36 37  2  0  0  0  0
 36101  1  0  0  0  0
 37 38  1  0  0  0  0
 37102  1  0  0  0  0
 38 39  1  0  0  0  0
 38103  1  0  0  0  0
 38104  1  0  0  0  0
 39 40  2  0  0  0  0
 39105  1  0  0  0  0
 40 41  1  0  0  0  0
 40106  1  0  0  0  0
 41 42  1  0  0  0  0
 41107  1  0  0  0  0
 41108  1  0  0  0  0
 42 43  2  0  0  0  0
 42109  1  0  0  0  0
 43 44  1  0  0  0  0
 43110  1  0  0  0  0
 44 45  1  0  0  0  0
 44111  1  0  0  0  0
 44112  1  0  0  0  0
 45 46  2  0  0  0  0
 45113  1  0  0  0  0
 46 47  1  0  0  0  0
 46114  1  0  0  0  0
 47 48  1  0  0  0  0
 47115  1  0  0  0  0
 47116  1  0  0  0  0
 48 49  2  0  0  0  0
 48117  1  0  0  0  0
 49 50  1  0  0  0  0
 49118  1  0  0  0  0
 50 51  1  0  0  0  0
 50119  1  0  0  0  0
 50120  1  0  0  0  0
 51121  1  0  0  0  0
 51122  1  0  0  0  0
 51123  1  0  0  0  0
M  END
>  <DRUGBANK_ID>
DB17620

>  <COMMON_NAME>
PPI-1040

>  <CAS_NUMBER>
1436673-69-6

>  <UNII>
5J560A5O35

>  <SYNONYMS>
1-(((z)-hexadec-1-en-1-yl)oxy)-3-((2-oxido-1,3,2-oxazaphospholidin-2-yl)oxy)propan-2-yl (4z,7z,10z,13z,16z,19z)-docosa-4,7,10,13,16,19-hexaenoate; 4,7,10,13,16,19-docosahexaenoic acid, 2-((1z)-1-hexadecen-1-yloxy)-1-(((2-oxido-1,3,2-oxazaphospholidin-2-yl)oxy)methyl)ethyl ester, (4z,7z,10z,13z,16z,19z)-

$$$$
