327
 OpenBabel10282417103D

 40 44  0  0  1  0  0  0  0  0999 V2000
   -1.7226    0.2206    2.2904 O   0  0  0  0  0  0  0  0  0  0  0  0
   -1.1748    3.4709    2.2978 O   0  0  0  0  0  0  0  0  0  0  0  0
   -1.7116   -2.8107    1.3571 O   0  0  0  0  0  0  0  0  0  0  0  0
   -5.9142    1.1551    0.5692 N   0  0  0  0  0  0  0  0  0  0  0  0
   -3.7647    1.3137    2.2818 C   0  0  1  0  0  0  0  0  0  0  0  0
   -4.9941    2.0636    2.7270 C   0  0  2  0  0  0  0  0  0  0  0  0
   -6.2058    1.2397    2.0856 C   0  0  1  0  0  0  0  0  0  0  0  0
   -2.3911    1.3968    2.9284 C   0  0  2  0  0  0  0  0  0  0  0  0
   -3.5861    1.8745    0.8261 C   0  0  0  0  0  0  0  0  0  0  0  0
   -3.9367   -0.1669    2.4533 C   0  0  0  0  0  0  0  0  0  0  0  0
   -4.6579    3.1045    3.8003 C   0  0  0  0  0  0  0  0  0  0  0  0
   -6.4321   -0.1710    2.6299 C   0  0  0  0  0  0  0  0  0  0  0  0
   -4.8936    2.0459    0.0760 C   0  0  0  0  0  0  0  0  0  0  0  0
   -5.1283   -0.8891    2.6157 C   0  0  0  0  0  0  0  0  0  0  0  0
   -3.3627    3.8866    3.3040 C   0  0  0  0  0  0  0  0  0  0  0  0
   -2.1369    2.9752    2.8468 C   0  0  0  0  0  0  0  0  0  0  0  0
   -2.7271   -0.7679    2.2263 C   0  0  0  0  0  0  0  0  0  0  0  0
   -6.2130    0.1176   -0.4016 C   0  0  0  0  0  0  0  0  0  0  0  0
   -5.1452   -2.2655    2.4440 C   0  0  0  0  0  0  0  0  0  0  0  0
   -2.7751   -2.1260    1.8729 C   0  0  0  0  0  0  0  0  0  0  0  0
   -3.9901   -2.8653    1.9731 C   0  0  0  0  0  0  0  0  0  0  0  0
   -5.1821    2.9175    2.0758 H   0  0  0  0  0  0  0  0  0  0  0  0
   -7.1186    1.8058    2.2817 H   0  0  0  0  0  0  0  0  0  0  0  0
   -2.2928    1.1991    4.0065 H   0  0  0  0  0  0  0  0  0  0  0  0
   -1.9821   -3.7455    1.2784 H   0  0  0  0  0  0  0  0  0  0  0  0
   -3.2633    2.9214    0.8798 H   0  0  0  0  0  0  0  0  0  0  0  0
   -2.7822    1.3752    0.2823 H   0  0  0  0  0  0  0  0  0  0  0  0
   -5.4775    3.8401    3.8664 H   0  0  0  0  0  0  0  0  0  0  0  0
   -4.5005    2.6895    4.7939 H   0  0  0  0  0  0  0  0  0  0  0  0
   -6.9562   -0.2299    3.5919 H   0  0  0  0  0  0  0  0  0  0  0  0
   -7.0862   -0.6958    1.9207 H   0  0  0  0  0  0  0  0  0  0  0  0
   -5.3617    3.0224    0.2334 H   0  0  0  0  0  0  0  0  0  0  0  0
   -4.6656    2.1005   -0.9919 H   0  0  0  0  0  0  0  0  0  0  0  0
   -3.0723    4.6695    4.0137 H   0  0  0  0  0  0  0  0  0  0  0  0
   -3.6312    4.4550    2.3919 H   0  0  0  0  0  0  0  0  0  0  0  0
   -7.2807    0.0978   -0.6169 H   0  0  0  0  0  0  0  0  0  0  0  0
   -5.7478    0.3790   -1.3693 H   0  0  0  0  0  0  0  0  0  0  0  0
   -5.8325   -0.8959   -0.2215 H   0  0  0  0  0  0  0  0  0  0  0  0
   -6.0873   -2.8132    2.4829 H   0  0  0  0  0  0  0  0  0  0  0  0
   -4.0863   -3.8958    1.6301 H   0  0  0  0  0  0  0  0  0  0  0  0
  1  8  1  0  0  0  0
  1 17  1  0  0  0  0
  2 16  2  0  0  0  0
  3 25  1  0  0  0  0
  3 20  1  0  0  0  0
  4  7  1  0  0  0  0
  4 13  1  0  0  0  0
  4 18  1  0  0  0  0
  5  6  1  0  0  0  0
  5  8  1  0  0  0  0
  5  9  1  0  0  0  0
  5 10  1  1  0  0  0
  6  7  1  0  0  0  0
  6 11  1  0  0  0  0
  6 22  1  1  0  0  0
  7 12  1  0  0  0  0
  7 23  1  6  0  0  0
  8 16  1  0  0  0  0
  8 24  1  1  0  0  0
  9 13  1  0  0  0  0
  9 26  1  0  0  0  0
  9 27  1  0  0  0  0
 10 14  2  0  0  0  0
 10 17  1  0  0  0  0
 11 15  1  0  0  0  0
 11 28  1  0  0  0  0
 11 29  1  0  0  0  0
 12 14  1  0  0  0  0
 12 30  1  0  0  0  0
 12 31  1  0  0  0  0
 13 32  1  0  0  0  0
 13 33  1  0  0  0  0
 14 19  1  0  0  0  0
 15 16  1  0  0  0  0
 15 34  1  0  0  0  0
 15 35  1  0  0  0  0
 17 20  2  0  0  0  0
 18 36  1  0  0  0  0
 18 37  1  0  0  0  0
 18 38  1  0  0  0  0
 19 21  2  0  0  0  0
 19 39  1  0  0  0  0
 20 21  1  0  0  0  0
 21 40  1  0  0  0  0
M  END
>  <DRUGBANK_ID>
DB00327

>  <SECONDARY_ACCESSION_NUMBERS>
APRD01021

>  <COMMON_NAME>
Hydromorphone

>  <CAS_NUMBER>
466-99-9

>  <UNII>
Q812464R06

>  <SYNONYMS>
(-)-(5R)-4,5-Epoxy-3-hydroxy-9Î±-methylmorphinan-6-one; 4,5-Epoxy-3-hydroxy-17-methylmorphinan-6-one; 4,5alpha-Epoxy-3-hydroxy-17-methyl-6-morphinanone; 6-Deoxy-7,8-dihydro-6-oxomorphine; 7,8-Dihydromorphinone; Dihydromorfinon; Dihydromorphinone; Dimorphone; Hidromorfona; Hydromorfona; Hydromorphone; Hydromorphonum; Idromorfone

$$$$
