
 OpenBabel10282417233D

 43 45  0  0  1  0  0  0  0  0999 V2000
   -0.7878   -1.2019    0.2661 C   0  0  0  0  0  0  0  0  0  0  0  0
    2.3770   -0.4930   -6.6747 C   0  0  0  0  0  0  0  0  0  0  0  0
    2.4278    0.8648   -6.5764 N   0  0  0  0  0  0  0  0  0  0  0  0
    0.6864    1.1579   -0.3014 C   0  0  1  0  0  0  0  0  0  0  0  0
    1.3685   -0.0326    0.1622 O   0  0  0  0  0  0  0  0  0  0  0  0
    4.5148    0.5608   -5.5036 C   0  0  0  0  0  0  0  0  0  0  0  0
    4.4315   -0.8068   -5.5162 N   0  0  0  0  0  0  0  0  0  0  0  0
    0.6990    1.2030   -1.8424 C   0  0  0  0  0  0  0  0  0  0  0  0
    0.0212    2.3638   -2.4033 N   0  0  0  0  0  0  0  0  0  0  0  0
   -1.5267    0.0085   -0.1466 N   0  0  0  0  0  0  0  0  0  0  0  0
    3.3180   -1.3205   -6.0931 C   0  0  0  0  0  0  0  0  0  0  0  0
    2.6321    4.7712   -4.5703 N   0  0  0  0  0  0  0  0  0  0  0  0
    2.5429    3.4455   -4.8172 C   0  0  0  0  0  0  0  0  0  0  0  0
    3.4859    2.7823   -5.6340 N   0  0  0  0  0  0  0  0  0  0  0  0
   -0.7454    1.1917    0.2649 C   0  0  0  0  0  0  0  0  0  0  0  0
    1.7475    5.3161   -3.6725 C   0  0  0  0  0  0  0  0  0  0  0  0
    0.6676   -1.2240   -0.2261 C   0  0  0  0  0  0  0  0  0  0  0  0
    3.1251   -2.7394   -6.0482 C   0  0  0  0  0  0  0  0  0  0  0  0
    3.5007    1.4133   -5.9529 C   0  0  0  0  0  0  0  0  0  0  0  0
    0.8511    4.5862   -2.9033 C   0  0  0  0  0  0  0  0  0  0  0  0
    0.7647    3.2329   -3.1778 C   0  0  0  0  0  0  0  0  0  0  0  0
    1.5582    2.7021   -4.1916 C   0  0  0  0  0  0  0  0  0  0  0  0
    0.0473    5.1963   -1.8011 C   0  0  0  0  0  0  0  0  0  0  0  0
    2.9051   -3.8868   -6.0121 N   0  0  0  0  0  0  0  0  0  0  0  0
   -1.2955    5.0081   -1.9629 F   0  0  0  0  0  0  0  0  0  0  0  0
    0.2195    6.5383   -1.6585 F   0  0  0  0  0  0  0  0  0  0  0  0
    0.3359    4.6586   -0.5775 F   0  0  0  0  0  0  0  0  0  0  0  0
   -0.8010   -1.2535    1.3601 H   0  0  0  0  0  0  0  0  0  0  0  0
   -1.3128   -2.0830   -0.1150 H   0  0  0  0  0  0  0  0  0  0  0  0
    1.5419   -0.8862   -7.2461 H   0  0  0  0  0  0  0  0  0  0  0  0
    1.2474    2.0137    0.0975 H   0  0  0  0  0  0  0  0  0  0  0  0
    5.4320    0.9484   -5.0731 H   0  0  0  0  0  0  0  0  0  0  0  0
    1.7454    1.1026   -2.1633 H   0  0  0  0  0  0  0  0  0  0  0  0
    0.1917    0.3385   -2.2734 H   0  0  0  0  0  0  0  0  0  0  0  0
   -0.8708    2.6534   -2.0165 H   0  0  0  0  0  0  0  0  0  0  0  0
   -1.6059    0.0072   -1.1647 H   0  0  0  0  0  0  0  0  0  0  0  0
    4.2607    3.3603   -5.9191 H   0  0  0  0  0  0  0  0  0  0  0  0
   -0.7183    1.2353    1.3600 H   0  0  0  0  0  0  0  0  0  0  0  0
   -1.2648    2.0978   -0.0639 H   0  0  0  0  0  0  0  0  0  0  0  0
    1.7909    6.4016   -3.5821 H   0  0  0  0  0  0  0  0  0  0  0  0
    1.2016   -2.0857    0.1836 H   0  0  0  0  0  0  0  0  0  0  0  0
    0.7135   -1.3368   -1.3140 H   0  0  0  0  0  0  0  0  0  0  0  0
    1.4128    1.6617   -4.4527 H   0  0  0  0  0  0  0  0  0  0  0  0
  1 17  1  0  0  0  0
  1 10  1  0  0  0  0
  1 28  1  0  0  0  0
  1 29  1  0  0  0  0
  2  3  2  0  0  0  0
  2 11  1  0  0  0  0
  2 30  1  0  0  0  0
  3 19  1  0  0  0  0
  4  5  1  0  0  0  0
  4  8  1  0  0  0  0
  4 15  1  0  0  0  0
  4 31  1  1  0  0  0
  5 17  1  0  0  0  0
  6 19  2  0  0  0  0
  6  7  1  0  0  0  0
  6 32  1  0  0  0  0
  7 11  2  0  0  0  0
  8  9  1  0  0  0  0
  8 33  1  0  0  0  0
  8 34  1  0  0  0  0
  9 21  1  0  0  0  0
  9 35  1  0  0  0  0
 10 15  1  0  0  0  0
 10 36  1  0  0  0  0
 11 18  1  0  0  0  0
 12 16  1  0  0  0  0
 12 13  2  0  0  0  0
 13 14  1  0  0  0  0
 13 22  1  0  0  0  0
 14 19  1  0  0  0  0
 14 37  1  0  0  0  0
 15 38  1  0  0  0  0
 15 39  1  0  0  0  0
 16 20  2  0  0  0  0
 16 40  1  0  0  0  0
 17 41  1  0  0  0  0
 17 42  1  0  0  0  0
 18 24  3  0  0  0  0
 20 23  1  0  0  0  0
 20 21  1  0  0  0  0
 21 22  2  0  0  0  0
 22 43  1  0  0  0  0
 23 25  1  0  0  0  0
 23 27  1  0  0  0  0
 23 26  1  0  0  0  0
M  END
>  <DRUGBANK_ID>
DB16876

>  <COMMON_NAME>
SRA-737

>  <CAS_NUMBER>
1489389-18-5

>  <UNII>
QB6LNL4NF6

$$$$
