
 OpenBabel10282417123D

 12 12  0  0  0  0  0  0  0  0999 V2000
   -1.2567   -0.0392    0.0222 I   0  0  0  0  0  0  0  0  0  0  0  0
    0.8220   -0.0136    0.0206 C   0  0  0  0  0  0  0  0  0  0  0  0
    1.4994    1.2058    0.0165 C   0  0  0  0  0  0  0  0  0  0  0  0
    2.8950    1.2222   -0.0034 C   0  0  0  0  0  0  0  0  0  0  0  0
    3.6077    0.0228   -0.0178 C   0  0  0  0  0  0  0  0  0  0  0  0
    2.9267   -1.1945   -0.0038 C   0  0  0  0  0  0  0  0  0  0  0  0
    1.5310   -1.2155    0.0158 C   0  0  0  0  0  0  0  0  0  0  0  0
    0.9568    2.1476    0.0260 H   0  0  0  0  0  0  0  0  0  0  0  0
    3.4267    2.1702   -0.0099 H   0  0  0  0  0  0  0  0  0  0  0  0
    4.6946    0.0373   -0.0400 H   0  0  0  0  0  0  0  0  0  0  0  0
    3.4836   -2.1283   -0.0104 H   0  0  0  0  0  0  0  0  0  0  0  0
    1.0136   -2.1710    0.0245 H   0  0  0  0  0  0  0  0  0  0  0  0
  1  2  1  0  0  0  0
  2  3  2  0  0  0  0
  2  7  1  0  0  0  0
  3  4  1  0  0  0  0
  3  8  1  0  0  0  0
  4  5  2  0  0  0  0
  4  9  1  0  0  0  0
  5  6  1  0  0  0  0
  5 10  1  0  0  0  0
  6  7  2  0  0  0  0
  6 11  1  0  0  0  0
  7 12  1  0  0  0  0
M  END
>  <DRUGBANK_ID>
DB02252

>  <SECONDARY_ACCESSION_NUMBERS>
EXPT02599

>  <COMMON_NAME>
Iodobenzene

>  <CAS_NUMBER>
591-50-4

>  <UNII>
9HK5L7YBBR

>  <SYNONYMS>
Benzene iodide; Iodinebenzol; Iodo-benzene; Phenyl iodide

$$$$
