NHL
 OpenBabel10282417173D

 38 39  0  0  0  0  0  0  0  0999 V2000
    2.1264    5.6610   -2.1228 C   0  0  0  0  0  0  0  0  0  0  0  0
    2.2033    7.0540   -2.0135 C   0  0  0  0  0  0  0  0  0  0  0  0
    2.8693    7.6543   -0.9347 C   0  0  0  0  0  0  0  0  0  0  0  0
    2.9900    9.0511   -0.8213 C   0  0  0  0  0  0  0  0  0  0  0  0
    3.6837    9.6234    0.2470 C   0  0  0  0  0  0  0  0  0  0  0  0
    4.2546    8.8088    1.2199 C   0  0  0  0  0  0  0  0  0  0  0  0
    4.1272    7.4217    1.1300 C   0  0  0  0  0  0  0  0  0  0  0  0
    3.4359    6.8291    0.0611 C   0  0  0  0  0  0  0  0  0  0  0  0
    3.3001    5.4316   -0.0360 C   0  0  0  0  0  0  0  0  0  0  0  0
    2.6818    4.8300   -1.1407 C   0  0  0  0  0  0  0  0  0  0  0  0
    2.5139    3.3278   -1.2375 C   0  0  0  0  0  0  0  0  0  0  0  0
    3.7527    2.3868   -1.2086 C   0  0  2  0  0  0  0  0  0  0  0  0
    3.6908    1.4733    0.0139 C   0  0  0  0  0  0  0  0  0  0  0  0
    4.6369    0.5152    0.0289 O   0  0  0  0  0  0  0  0  0  0  0  0
    2.8733    1.5039    0.9219 O   0  0  0  0  0  0  0  0  0  0  0  0
    5.1108    3.1050   -1.3518 C   0  0  0  0  0  0  0  0  0  0  0  0
    6.3222    2.1755   -1.5007 C   0  0  1  0  0  0  0  0  0  0  0  0
    6.1976    1.3065   -2.6872 N   0  0  0  0  0  0  0  0  0  0  0  0
    7.6224    2.9696   -1.5148 C   0  0  0  0  0  0  0  0  0  0  0  0
    7.7556    3.8034   -2.5611 O   0  0  0  0  0  0  0  0  0  0  0  0
    8.5027    2.8813   -0.6693 O   0  0  0  0  0  0  0  0  0  0  0  0
    3.6145    1.7174   -2.0699 H   0  0  0  0  0  0  0  0  0  0  0  0
    6.4273    1.5471   -0.6149 H   0  0  0  0  0  0  0  0  0  0  0  0
    1.6089    5.2332   -2.9792 H   0  0  0  0  0  0  0  0  0  0  0  0
    1.7401    7.6672   -2.7836 H   0  0  0  0  0  0  0  0  0  0  0  0
    2.5497    9.7054   -1.5705 H   0  0  0  0  0  0  0  0  0  0  0  0
    3.7823   10.7037    0.3163 H   0  0  0  0  0  0  0  0  0  0  0  0
    4.7997    9.2504    2.0500 H   0  0  0  0  0  0  0  0  0  0  0  0
    4.5857    6.8016    1.8966 H   0  0  0  0  0  0  0  0  0  0  0  0
    3.6869    4.8060    0.7658 H   0  0  0  0  0  0  0  0  0  0  0  0
    1.7961    3.0530   -0.4574 H   0  0  0  0  0  0  0  0  0  0  0  0
    1.9876    3.1103   -2.1777 H   0  0  0  0  0  0  0  0  0  0  0  0
    4.5559    0.0768    0.9036 H   0  0  0  0  0  0  0  0  0  0  0  0
    5.0720    3.7797   -2.2191 H   0  0  0  0  0  0  0  0  0  0  0  0
    5.2912    3.7344   -0.4740 H   0  0  0  0  0  0  0  0  0  0  0  0
    6.9611    0.6313   -2.6736 H   0  0  0  0  0  0  0  0  0  0  0  0
    5.3536    0.7422   -2.5944 H   0  0  0  0  0  0  0  0  0  0  0  0
    8.6372    4.2092   -2.4433 H   0  0  0  0  0  0  0  0  0  0  0  0
  1  2  2  0  0  0  0
  1 10  1  0  0  0  0
  1 24  1  0  0  0  0
  2  3  1  0  0  0  0
  2 25  1  0  0  0  0
  3  4  2  0  0  0  0
  3  8  1  0  0  0  0
  4  5  1  0  0  0  0
  4 26  1  0  0  0  0
  5  6  2  0  0  0  0
  5 27  1  0  0  0  0
  6  7  1  0  0  0  0
  6 28  1  0  0  0  0
  7  8  2  0  0  0  0
  7 29  1  0  0  0  0
  8  9  1  0  0  0  0
  9 10  2  0  0  0  0
  9 30  1  0  0  0  0
 10 11  1  0  0  0  0
 11 31  1  0  0  0  0
 11 32  1  0  0  0  0
 12 16  1  0  0  0  0
 12 22  1  6  0  0  0
 12 13  1  0  0  0  0
 12 11  1  0  0  0  0
 13 15  2  0  0  0  0
 13 14  1  0  0  0  0
 14 33  1  0  0  0  0
 16 17  1  0  0  0  0
 16 34  1  0  0  0  0
 16 35  1  0  0  0  0
 17 18  1  0  0  0  0
 17 19  1  0  0  0  0
 17 23  1  1  0  0  0
 18 36  1  0  0  0  0
 18 37  1  0  0  0  0
 19 21  2  0  0  0  0
 19 20  1  0  0  0  0
 20 38  1  0  0  0  0
M  END
>  <DRUGBANK_ID>
DB08272

>  <COMMON_NAME>
(4S)-4-(2-NAPHTHYLMETHYL)-D-GLUTAMIC ACID

$$$$
