7CP
 OpenBabel10282417163D

 43 46  0  0  0  0  0  0  0  0999 V2000
    0.8411    0.5476   -0.0249 C   0  0  0  0  0  0  0  0  0  0  0  0
   -0.8309    1.7246    0.0191 C   0  0  0  0  0  0  0  0  0  0  0  0
   -1.6937    0.9557    0.9895 N   0  0  0  0  0  0  0  0  0  0  0  0
   -0.3071    1.1893    1.4053 C   0  0  0  0  0  0  0  0  0  0  0  0
   -1.8145   -0.3535    1.6542 C   0  0  0  0  0  0  0  0  0  0  0  0
   -1.0807   -1.4910    0.9112 C   0  0  0  0  0  0  0  0  0  0  0  0
    0.5428   -1.2013    0.8103 C   0  0  0  0  0  0  0  0  0  0  0  0
    1.0261   -1.2617    2.2563 N   0  0  0  0  0  0  0  0  0  0  0  0
    0.6240   -2.3308    3.0762 C   0  0  0  0  0  0  0  0  0  0  0  0
    0.2137   -2.1691    4.2176 O   0  0  0  0  0  0  0  0  0  0  0  0
    0.7362   -3.6084    2.3875 C   0  0  0  0  0  0  0  0  0  0  0  0
    0.6271   -4.9063    2.8732 N   0  0  0  0  0  0  0  0  0  0  0  0
    0.3413   -5.2247    4.2583 C   0  0  0  0  0  0  0  0  0  0  0  0
    0.8747   -5.8206    1.8436 C   0  0  0  0  0  0  0  0  0  0  0  0
    0.9273   -7.2383    1.7547 C   0  0  0  0  0  0  0  0  0  0  0  0
    0.6657   -8.2766    3.1111 Cl  0  0  0  0  0  0  0  0  0  0  0  0
    1.2121   -7.8215    0.4998 C   0  0  0  0  0  0  0  0  0  0  0  0
    1.3045   -9.5381    0.2861 Cl  0  0  0  0  0  0  0  0  0  0  0  0
    1.4385   -7.0485   -0.6296 C   0  0  0  0  0  0  0  0  0  0  0  0
    1.3969   -5.6709   -0.5395 C   0  0  0  0  0  0  0  0  0  0  0  0
    1.1147   -5.0558    0.6914 C   0  0  0  0  0  0  0  0  0  0  0  0
    1.0055   -3.6970    1.0325 C   0  0  0  0  0  0  0  0  0  0  0  0
    1.1470   -2.5079    0.1261 C   0  0  1  0  0  0  0  0  0  0  0  0
    0.4532   -2.7648   -1.2017 C   0  0  0  0  0  0  0  0  0  0  0  0
   -0.1223   -2.9779   -2.3032 N   0  0  0  0  0  0  0  0  0  0  0  0
    2.2147   -2.3308   -0.0553 H   0  0  0  0  0  0  0  0  0  0  0  0
    1.5770    1.0087    0.7488 H   0  0  0  0  0  0  0  0  0  0  0  0
    1.9237    0.3512   -0.3716 H   0  0  0  0  0  0  0  0  0  0  0  0
   -0.7719    2.9305    0.1718 H   0  0  0  0  0  0  0  0  0  0  0  0
   -1.6083    2.2900    1.1051 H   0  0  0  0  0  0  0  0  0  0  0  0
    0.2357    0.9191    2.2738 H   0  0  0  0  0  0  0  0  0  0  0  0
   -0.5674    0.2224    0.4854 H   0  0  0  0  0  0  0  0  0  0  0  0
    0.5566    2.2068    0.9134 H   0  0  0  0  0  0  0  0  0  0  0  0
   -2.8728   -0.5359    1.7359 H   0  0  0  0  0  0  0  0  0  0  0  0
   -1.4086   -0.1959    2.6685 H   0  0  0  0  0  0  0  0  0  0  0  0
   -1.4608   -1.5524   -0.1135 H   0  0  0  0  0  0  0  0  0  0  0  0
   -1.3358   -2.4238    1.4071 H   0  0  0  0  0  0  0  0  0  0  0  0
    1.5372   -0.5078    2.6999 H   0  0  0  0  0  0  0  0  0  0  0  0
    1.1208   -4.7986    4.8925 H   0  0  0  0  0  0  0  0  0  0  0  0
   -0.6506   -4.8511    4.5187 H   0  0  0  0  0  0  0  0  0  0  0  0
    0.3379   -6.2924    4.4307 H   0  0  0  0  0  0  0  0  0  0  0  0
    1.6501   -7.4970   -1.5952 H   0  0  0  0  0  0  0  0  0  0  0  0
    1.5762   -5.0805   -1.4347 H   0  0  0  0  0  0  0  0  0  0  0  0
  1  2  1  0  0  0  0
  1  7  1  0  0  0  0
  1 27  1  0  0  0  0
  1 28  1  0  0  0  0
  2  3  1  0  0  0  0
  2 29  1  0  0  0  0
  2 30  1  0  0  0  0
  3  4  1  0  0  0  0
  3  5  1  0  0  0  0
  4 31  1  0  0  0  0
  4 32  1  0  0  0  0
  4 33  1  0  0  0  0
  5  6  1  0  0  0  0
  5 34  1  0  0  0  0
  5 35  1  0  0  0  0
  6  7  1  0  0  0  0
  6 36  1  0  0  0  0
  6 37  1  0  0  0  0
  7  8  1  0  0  0  0
  7 23  1  0  0  0  0
  8  9  1  0  0  0  0
  8 38  1  0  0  0  0
  9 10  2  0  0  0  0
  9 11  1  0  0  0  0
 11 12  1  0  0  0  0
 11 22  2  0  0  0  0
 12 13  1  0  0  0  0
 12 14  1  0  0  0  0
 13 39  1  0  0  0  0
 13 40  1  0  0  0  0
 13 41  1  0  0  0  0
 14 15  2  0  0  0  0
 14 21  1  0  0  0  0
 15 16  1  0  0  0  0
 15 17  1  0  0  0  0
 17 18  1  0  0  0  0
 17 19  2  0  0  0  0
 19 20  1  0  0  0  0
 19 42  1  0  0  0  0
 20 21  2  0  0  0  0
 20 43  1  0  0  0  0
 21 22  1  0  0  0  0
 22 23  1  0  0  0  0
 23 24  1  0  0  0  0
 23 26  1  6  0  0  0
 24 25  3  0  0  0  0
M  END
>  <DRUGBANK_ID>
DB07242

>  <COMMON_NAME>
(4R)-7,8-dichloro-1',9-dimethyl-1-oxo-1,2,4,9-tetrahydrospiro[beta-carboline-3,4'-piperidine]-4-carbonitrile

$$$$
