
 OpenBabel10282417113D

 93 99  0  0  0  0  0  0  0  0999 V2000
    0.0166   13.6924   -0.4628 C   0  0  0  0  0  0  0  0  0  0  0  0
   -2.1423   11.1619   -1.8824 N   0  0  0  0  0  0  0  0  0  0  0  0
   -2.8247   11.7246   -0.8628 C   0  0  0  0  0  0  0  0  0  0  0  0
   -2.1816   12.6762   -0.1725 N   0  0  0  0  0  0  0  0  0  0  0  0
   -1.0237   12.7628   -0.8596 N   0  0  0  0  0  0  0  0  0  0  0  0
   -1.0523   11.8689   -1.8765 C   0  0  0  0  0  0  0  0  0  0  0  0
    1.2603   13.8066   -1.4022 C   0  0  2  0  0  0  0  0  0  0  0  0
    0.7835    9.6535    8.9829 C   0  0  0  0  0  0  0  0  0  0  0  0
    1.3517   10.3040    7.8793 C   0  0  0  0  0  0  0  0  0  0  0  0
    0.6104   11.1794    7.0706 C   0  0  0  0  0  0  0  0  0  0  0  0
   -0.7413   11.3539    7.3887 C   0  0  0  0  0  0  0  0  0  0  0  0
   -1.3439   10.6287    8.4302 C   0  0  0  0  0  0  0  0  0  0  0  0
   -0.5625    9.8401    9.2773 C   0  0  0  0  0  0  0  0  0  0  0  0
    1.1835   11.7742    5.9721 N   0  0  0  0  0  0  0  0  0  0  0  0
    1.6809   10.9755    4.8404 C   0  0  0  0  0  0  0  0  0  0  0  0
    3.1606   11.3346    4.5353 C   0  0  0  0  0  0  0  0  0  0  0  0
    3.3794   12.8011    4.4282 N   0  0  0  0  0  0  0  0  0  0  0  0
    2.8175   13.5870    5.5384 C   0  0  0  0  0  0  0  0  0  0  0  0
    1.3195   13.2246    5.7891 C   0  0  0  0  0  0  0  0  0  0  0  0
    4.0064   13.4267    3.3773 C   0  0  0  0  0  0  0  0  0  0  0  0
    3.6727   13.1340    2.0835 C   0  0  0  0  0  0  0  0  0  0  0  0
    4.3923   13.7020    1.0184 C   0  0  0  0  0  0  0  0  0  0  0  0
    5.0483   14.8946    1.1203 C   0  0  0  0  0  0  0  0  0  0  0  0
    5.5062   15.1565    2.3926 C   0  0  0  0  0  0  0  0  0  0  0  0
    5.0385   14.3692    3.4955 C   0  0  0  0  0  0  0  0  0  0  0  0
    5.3998   15.5670   -0.0170 O   0  0  0  0  0  0  0  0  0  0  0  0
    4.3298   16.0423   -0.9086 C   0  0  0  0  0  0  0  0  0  0  0  0
    3.3297   15.0369   -1.5486 C   0  0  1  0  0  0  0  0  0  0  0  0
    2.3399   14.4310   -0.5847 C   0  0  0  0  0  0  0  0  0  0  0  0
    1.1105   14.7654   -2.4672 O   0  0  0  0  0  0  0  0  0  0  0  0
    2.2950   15.6244   -2.5105 C   0  0  0  0  0  0  0  0  0  0  0  0
   -1.1262    9.2462   10.4059 N   0  0  0  0  0  0  0  0  0  0  0  0
   -2.1503    8.3474   10.4029 C   0  0  0  0  0  0  0  0  0  0  0  0
   -2.3583    8.0155   11.7462 N   0  0  0  0  0  0  0  0  0  0  0  0
   -1.4513    8.6859   12.5480 N   0  0  0  0  0  0  0  0  0  0  0  0
   -0.7658    9.3906   11.7006 C   0  0  0  0  0  0  0  0  0  0  0  0
   -3.2411    6.9646   12.2309 C   0  0  2  0  0  0  0  0  0  0  0  0
   -2.7068    5.5475   11.8759 C   0  0  1  0  0  0  0  0  0  0  0  0
   -2.6715    5.2696   10.4767 O   0  0  0  0  0  0  0  0  0  0  0  0
   -4.6568    7.2159   11.6826 C   0  0  0  0  0  0  0  0  0  0  0  0
   -5.6655    6.1894   12.1519 C   0  0  0  0  0  0  0  0  0  0  0  0
   -1.3084    5.3206   12.4269 C   0  0  0  0  0  0  0  0  0  0  0  0
   -2.7527    7.8961    9.4226 O   0  0  0  0  0  0  0  0  0  0  0  0
    1.7880   12.4179   -1.8867 C   0  0  0  0  0  0  0  0  0  0  0  0
    1.9542   11.3411   -0.9699 C   0  0  0  0  0  0  0  0  0  0  0  0
    2.0398   10.0192   -1.3723 C   0  0  0  0  0  0  0  0  0  0  0  0
    1.8976    9.7450   -2.7167 C   0  0  0  0  0  0  0  0  0  0  0  0
    1.7421   10.7730   -3.6495 C   0  0  0  0  0  0  0  0  0  0  0  0
    1.7930   12.1174   -3.2566 C   0  0  0  0  0  0  0  0  0  0  0  0
    1.8319    8.4709   -3.1191 F   0  0  0  0  0  0  0  0  0  0  0  0
    1.8415   11.5476    0.3454 F   0  0  0  0  0  0  0  0  0  0  0  0
    0.3354   13.3758    0.5473 H   0  0  0  0  0  0  0  0  0  0  0  0
   -0.4505   14.6774   -0.3358 H   0  0  0  0  0  0  0  0  0  0  0  0
   -3.8347   11.4199   -0.6496 H   0  0  0  0  0  0  0  0  0  0  0  0
   -0.3009   11.7383   -2.6085 H   0  0  0  0  0  0  0  0  0  0  0  0
    1.3784    8.9427    9.5516 H   0  0  0  0  0  0  0  0  0  0  0  0
    2.4027   10.1347    7.6627 H   0  0  0  0  0  0  0  0  0  0  0  0
   -1.3573   12.0265    6.7975 H   0  0  0  0  0  0  0  0  0  0  0  0
   -2.4189   10.7044    8.5815 H   0  0  0  0  0  0  0  0  0  0  0  0
    1.5773    9.8987    5.0250 H   0  0  0  0  0  0  0  0  0  0  0  0
    1.0637   11.2064    3.9622 H   0  0  0  0  0  0  0  0  0  0  0  0
    3.7642   10.9837    5.3825 H   0  0  0  0  0  0  0  0  0  0  0  0
    3.5020   10.7846    3.6511 H   0  0  0  0  0  0  0  0  0  0  0  0
    3.4007   13.3530    6.4350 H   0  0  0  0  0  0  0  0  0  0  0  0
    2.8969   14.6612    5.3440 H   0  0  0  0  0  0  0  0  0  0  0  0
    0.7246   13.5196    4.9141 H   0  0  0  0  0  0  0  0  0  0  0  0
    0.9473   13.7853    6.6522 H   0  0  0  0  0  0  0  0  0  0  0  0
    2.8369   12.4696    1.9008 H   0  0  0  0  0  0  0  0  0  0  0  0
    4.3677   13.2677    0.0278 H   0  0  0  0  0  0  0  0  0  0  0  0
    6.2705   15.9104    2.5481 H   0  0  0  0  0  0  0  0  0  0  0  0
    5.5353   14.4637    4.4550 H   0  0  0  0  0  0  0  0  0  0  0  0
    4.8615   16.5225   -1.7453 H   0  0  0  0  0  0  0  0  0  0  0  0
    3.7919   16.8511   -0.4015 H   0  0  0  0  0  0  0  0  0  0  0  0
    3.9028   14.2618   -2.0770 H   0  0  0  0  0  0  0  0  0  0  0  0
    2.0127   15.1567    0.1652 H   0  0  0  0  0  0  0  0  0  0  0  0
    2.6455   13.5634   -0.0633 H   0  0  0  0  0  0  0  0  0  0  0  0
    1.9850   16.6305   -2.2069 H   0  0  0  0  0  0  0  0  0  0  0  0
    2.6452   15.6596   -3.5458 H   0  0  0  0  0  0  0  0  0  0  0  0
    0.0352   10.0973   11.9607 H   0  0  0  0  0  0  0  0  0  0  0  0
   -3.2760    7.0510   13.3269 H   0  0  0  0  0  0  0  0  0  0  0  0
   -3.3551    4.7861   12.3211 H   0  0  0  0  0  0  0  0  0  0  0  0
   -3.4931    5.5876   10.0620 H   0  0  0  0  0  0  0  0  0  0  0  0
   -4.9838    8.2229   11.9711 H   0  0  0  0  0  0  0  0  0  0  0  0
   -4.6628    7.2090   10.5890 H   0  0  0  0  0  0  0  0  0  0  0  0
   -5.7481    6.2040   13.2411 H   0  0  0  0  0  0  0  0  0  0  0  0
   -6.6427    6.4041   11.7131 H   0  0  0  0  0  0  0  0  0  0  0  0
   -5.3877    5.1808   11.8335 H   0  0  0  0  0  0  0  0  0  0  0  0
   -1.3069    5.4091   13.5168 H   0  0  0  0  0  0  0  0  0  0  0  0
   -0.9457    4.3272   12.1464 H   0  0  0  0  0  0  0  0  0  0  0  0
   -0.5959    6.0391   12.0106 H   0  0  0  0  0  0  0  0  0  0  0  0
    2.0842    9.2241   -0.6349 H   0  0  0  0  0  0  0  0  0  0  0  0
    1.4224   10.5191   -4.6569 H   0  0  0  0  0  0  0  0  0  0  0  0
    1.5680   12.8956   -3.9849 H   0  0  0  0  0  0  0  0  0  0  0  0
  1  5  1  0  0  0  0
  1 52  1  0  0  0  0
  1 53  1  0  0  0  0
  2  3  1  0  0  0  0
  2  6  2  0  0  0  0
  3  4  2  0  0  0  0
  3 54  1  0  0  0  0
  4  5  1  0  0  0  0
  5  6  1  0  0  0  0
  6 55  1  0  0  0  0
  7  1  1  1  0  0  0
  7 30  1  0  0  0  0
  7 44  1  0  0  0  0
  8  9  1  0  0  0  0
  8 13  2  0  0  0  0
  8 56  1  0  0  0  0
  9 10  2  0  0  0  0
  9 57  1  0  0  0  0
 10 11  1  0  0  0  0
 10 14  1  0  0  0  0
 11 12  2  0  0  0  0
 11 58  1  0  0  0  0
 12 13  1  0  0  0  0
 12 59  1  0  0  0  0
 13 32  1  0  0  0  0
 14 15  1  0  0  0  0
 14 19  1  0  0  0  0
 15 16  1  0  0  0  0
 15 60  1  0  0  0  0
 15 61  1  0  0  0  0
 16 17  1  0  0  0  0
 16 62  1  0  0  0  0
 16 63  1  0  0  0  0
 17 18  1  0  0  0  0
 17 20  1  0  0  0  0
 18 19  1  0  0  0  0
 18 64  1  0  0  0  0
 18 65  1  0  0  0  0
 19 66  1  0  0  0  0
 19 67  1  0  0  0  0
 20 21  2  0  0  0  0
 20 25  1  0  0  0  0
 21 22  1  0  0  0  0
 21 68  1  0  0  0  0
 22 23  2  0  0  0  0
 22 69  1  0  0  0  0
 23 24  1  0  0  0  0
 23 26  1  0  0  0  0
 24 25  2  0  0  0  0
 24 70  1  0  0  0  0
 25 71  1  0  0  0  0
 26 27  1  0  0  0  0
 27 72  1  0  0  0  0
 27 73  1  0  0  0  0
 28 27  1  0  0  0  0
 28 29  1  0  0  0  0
 28 31  1  0  0  0  0
 28 74  1  6  0  0  0
 29  7  1  0  0  0  0
 29 75  1  0  0  0  0
 29 76  1  0  0  0  0
 30 31  1  0  0  0  0
 31 77  1  0  0  0  0
 31 78  1  0  0  0  0
 32 33  1  0  0  0  0
 32 36  1  0  0  0  0
 33 34  1  0  0  0  0
 33 43  2  0  0  0  0
 34 35  1  0  0  0  0
 35 36  2  0  0  0  0
 36 79  1  0  0  0  0
 37 40  1  0  0  0  0
 37 80  1  1  0  0  0
 37 38  1  0  0  0  0
 37 34  1  0  0  0  0
 38 39  1  0  0  0  0
 38 42  1  0  0  0  0
 38 81  1  1  0  0  0
 39 82  1  0  0  0  0
 40 41  1  0  0  0  0
 40 83  1  0  0  0  0
 40 84  1  0  0  0  0
 41 85  1  0  0  0  0
 41 86  1  0  0  0  0
 41 87  1  0  0  0  0
 42 88  1  0  0  0  0
 42 89  1  0  0  0  0
 42 90  1  0  0  0  0
 44 45  2  0  0  0  0
 44 49  1  0  0  0  0
 45 46  1  0  0  0  0
 45 51  1  0  0  0  0
 46 47  2  0  0  0  0
 46 91  1  0  0  0  0
 47 48  1  0  0  0  0
 47 50  1  0  0  0  0
 48 49  2  0  0  0  0
 48 92  1  0  0  0  0
 49 93  1  0  0  0  0
M  END
>  <DRUGBANK_ID>
DB01263

>  <COMMON_NAME>
Posaconazole

>  <CAS_NUMBER>
171228-49-2

>  <UNII>
6TK1G07BHZ

>  <SYNONYMS>
Posaconazole

$$$$
