
 OpenBabel10282417103D

 81 84  0  0  0  0  0  0  0  0999 V2000
  -19.2260   -8.0372   -8.0735 C   0  0  0  0  0  0  0  0  0  0  0  0
  -19.4262   -7.3669   -9.2699 C   0  0  0  0  0  0  0  0  0  0  0  0
  -19.9458   -6.0564   -9.2647 C   0  0  0  0  0  0  0  0  0  0  0  0
  -20.3280   -5.4148   -8.0631 C   0  0  0  0  0  0  0  0  0  0  0  0
  -20.1889   -6.1179   -6.8674 C   0  0  0  0  0  0  0  0  0  0  0  0
  -19.5663   -7.3995   -6.8880 C   0  0  0  0  0  0  0  0  0  0  0  0
  -20.9441   -4.0473   -7.9530 C   0  0  0  0  0  0  0  0  0  0  0  0
  -20.5904   -3.1261   -6.7009 C   0  0  0  0  0  0  0  0  0  0  0  0
  -20.1886   -3.9479   -5.4873 C   0  0  1  0  0  0  0  0  0  0  0  0
  -20.6867   -5.4650   -5.5950 C   0  0  1  0  0  0  0  0  0  0  0  0
  -20.8883   -1.7819   -6.6074 C   0  0  0  0  0  0  0  0  0  0  0  0
  -21.1119   -0.8319   -5.1735 C   0  0  1  0  0  0  0  0  0  0  0  0
  -21.0273   -1.8572   -4.0654 C   0  0  1  0  0  0  0  0  0  0  0  0
  -20.8658   -3.3421   -4.2440 C   0  0  0  0  0  0  0  0  0  0  0  0
  -20.4655    0.5022   -3.9067 C   0  0  0  0  0  0  0  0  0  0  0  0
  -20.8918    0.4316   -2.2965 C   0  0  0  0  0  0  0  0  0  0  0  0
  -22.0440    0.0464   -2.7484 C   0  0  0  0  0  0  0  0  0  0  0  0
  -22.1513   -1.4865   -2.9712 C   0  0  1  0  0  0  0  0  0  0  0  0
  -19.9280   -5.4102  -10.4715 O   0  0  0  0  0  0  0  0  0  0  0  0
  -21.8616   -3.7621   -8.7233 O   0  0  0  0  0  0  0  0  0  0  0  0
  -21.6481   -1.2645   -7.7157 O   0  0  0  0  0  0  0  0  0  0  0  0
  -20.3443    1.7105   -4.1849 O   0  0  0  0  0  0  0  0  0  0  0  0
  -22.7164    0.9895   -3.7003 O   0  0  0  0  0  0  0  0  0  0  0  0
  -20.3087   -0.3396   -1.0570 C   0  0  0  0  0  0  0  0  0  0  0  0
  -20.6332    0.1206    0.2735 N   0  0  0  0  0  0  0  0  0  0  0  0
  -19.6346   -1.3051   -1.2249 O   0  0  0  0  0  0  0  0  0  0  0  0
  -20.2098   -0.6378    1.4463 C   0  0  0  0  0  0  0  0  0  0  0  0
  -19.3813    0.2060    2.3080 N   0  0  0  0  0  0  0  0  0  0  0  0
  -18.8048   -0.6133    3.3821 C   0  0  0  0  0  0  0  0  0  0  0  0
  -18.0102   -1.7797    2.8081 C   0  0  0  0  0  0  0  0  0  0  0  0
  -16.7708   -1.3558    2.0023 C   0  0  0  0  0  0  0  0  0  0  0  0
  -15.7690   -0.5685    2.8444 C   0  0  0  0  0  0  0  0  0  0  0  0
  -15.0349   -1.4016    3.9221 C   0  0  2  0  0  0  0  0  0  0  0  0
  -13.8249   -2.0030    3.3335 N   0  0  0  0  0  0  0  0  0  0  0  0
  -15.8487   -2.5332    4.5919 C   0  0  0  0  0  0  0  0  0  0  0  0
  -16.4370   -2.4630    5.6613 O   0  0  0  0  0  0  0  0  0  0  0  0
  -16.0463   -3.6004    3.7599 O   0  0  0  0  0  0  0  0  0  0  0  0
  -22.2193   -5.3863   -5.3965 C   0  0  0  0  0  0  0  0  0  0  0  0
  -20.2320   -6.3034   -4.5288 O   0  0  0  0  0  0  0  0  0  0  0  0
  -19.0957   -3.9009   -5.4093 H   0  0  0  0  0  0  0  0  0  0  0  0
  -19.9880   -1.6560   -3.7498 H   0  0  0  0  0  0  0  0  0  0  0  0
  -23.6058   -1.7748   -2.9754 N   0  0  0  0  0  0  0  0  0  0  0  0
  -23.9964   -2.8826   -3.7995 C   0  0  0  0  0  0  0  0  0  0  0  0
  -24.4433   -0.6354   -3.3827 C   0  0  0  0  0  0  0  0  0  0  0  0
  -22.4907   -0.5000   -5.5707 O   0  0  0  0  0  0  0  0  0  0  0  0
  -18.7888   -9.0354   -8.0394 H   0  0  0  0  0  0  0  0  0  0  0  0
  -19.1250   -7.8598  -10.1926 H   0  0  0  0  0  0  0  0  0  0  0  0
  -19.3058   -7.9422   -5.9794 H   0  0  0  0  0  0  0  0  0  0  0  0
  -20.5044   -3.8519   -3.3435 H   0  0  0  0  0  0  0  0  0  0  0  0
  -21.8922   -3.5937   -4.2411 H   0  0  0  0  0  0  0  0  0  0  0  0
  -21.7685   -2.0708   -2.1122 H   0  0  0  0  0  0  0  0  0  0  0  0
  -20.8104   -5.4815  -10.8778 H   0  0  0  0  0  0  0  0  0  0  0  0
  -21.7117   -1.9286   -8.4506 H   0  0  0  0  0  0  0  0  0  0  0  0
  -22.3334    1.0689   -4.6164 H   0  0  0  0  0  0  0  0  0  0  0  0
  -21.2176    0.9101    0.5006 H   0  0  0  0  0  0  0  0  0  0  0  0
  -21.0638   -0.9871    2.0438 H   0  0  0  0  0  0  0  0  0  0  0  0
  -19.6823   -1.5118    1.0828 H   0  0  0  0  0  0  0  0  0  0  0  0
  -18.6075    0.5610    1.7497 H   0  0  0  0  0  0  0  0  0  0  0  0
  -18.1536   -0.0181    4.0414 H   0  0  0  0  0  0  0  0  0  0  0  0
  -19.5708   -1.0079    4.0623 H   0  0  0  0  0  0  0  0  0  0  0  0
  -17.8273   -2.3686    3.6870 H   0  0  0  0  0  0  0  0  0  0  0  0
  -18.5893   -2.4960    2.2210 H   0  0  0  0  0  0  0  0  0  0  0  0
  -16.2726   -2.2245    1.5562 H   0  0  0  0  0  0  0  0  0  0  0  0
  -17.0819   -0.7445    1.1442 H   0  0  0  0  0  0  0  0  0  0  0  0
  -15.0361   -0.1056    2.1654 H   0  0  0  0  0  0  0  0  0  0  0  0
  -16.2559    0.3015    3.3008 H   0  0  0  0  0  0  0  0  0  0  0  0
  -14.7303   -0.7182    4.7210 H   0  0  0  0  0  0  0  0  0  0  0  0
  -13.3638   -1.3182    2.7398 H   0  0  0  0  0  0  0  0  0  0  0  0
  -14.1293   -2.7652    2.7226 H   0  0  0  0  0  0  0  0  0  0  0  0
  -16.8586   -4.0518    4.0832 H   0  0  0  0  0  0  0  0  0  0  0  0
  -22.5899   -4.4201   -5.7623 H   0  0  0  0  0  0  0  0  0  0  0  0
  -22.8815   -6.0956   -5.8713 H   0  0  0  0  0  0  0  0  0  0  0  0
  -22.3997   -5.4449   -4.3087 H   0  0  0  0  0  0  0  0  0  0  0  0
  -20.6017   -7.1903   -4.7274 H   0  0  0  0  0  0  0  0  0  0  0  0
  -25.0815   -2.9624   -3.8109 H   0  0  0  0  0  0  0  0  0  0  0  0
  -23.6649   -2.7405   -4.8334 H   0  0  0  0  0  0  0  0  0  0  0  0
  -23.6173   -3.8070   -3.3648 H   0  0  0  0  0  0  0  0  0  0  0  0
  -25.5107   -0.7773   -3.3295 H   0  0  0  0  0  0  0  0  0  0  0  0
  -24.3030    0.2243   -2.7133 H   0  0  0  0  0  0  0  0  0  0  0  0
  -24.2622   -0.3894   -4.4307 H   0  0  0  0  0  0  0  0  0  0  0  0
  -22.7439   -0.9594   -6.4138 H   0  0  0  0  0  0  0  0  0  0  0  0
  1  2  2  0  0  0  0
  1  6  1  0  0  0  0
  1 46  1  0  0  0  0
  2  3  1  0  0  0  0
  2 47  1  0  0  0  0
  3  4  2  0  0  0  0
  3 19  1  0  0  0  0
  4  5  1  0  0  0  0
  4  7  1  0  0  0  0
  5  6  2  0  0  0  0
  5 10  1  0  0  0  0
  6 48  1  0  0  0  0
  7  8  1  0  0  0  0
  7 20  2  0  0  0  0
  8  9  1  0  0  0  0
  8 11  2  0  0  0  0
  9 10  1  0  0  0  0
  9 14  1  0  0  0  0
  9 40  1  6  0  0  0
 10 39  1  1  0  0  0
 10 38  1  0  0  0  0
 11 12  1  0  0  0  0
 11 21  1  0  0  0  0
 12 13  1  0  0  0  0
 12 15  1  0  0  0  0
 12 45  1  6  0  0  0
 13 14  1  0  0  0  0
 13 18  1  0  0  0  0
 13 41  1  6  0  0  0
 14 49  1  0  0  0  0
 14 50  1  0  0  0  0
 15 16  1  0  0  0  0
 15 22  2  0  0  0  0
 16 17  2  0  0  0  0
 16 24  1  0  0  0  0
 17 18  1  0  0  0  0
 17 23  1  0  0  0  0
 18 51  1  1  0  0  0
 18 42  1  0  0  0  0
 19 52  1  0  0  0  0
 21 53  1  0  0  0  0
 23 54  1  0  0  0  0
 24 25  1  0  0  0  0
 24 26  2  0  0  0  0
 25 27  1  0  0  0  0
 25 55  1  0  0  0  0
 27 28  1  0  0  0  0
 27 56  1  0  0  0  0
 27 57  1  0  0  0  0
 28 29  1  0  0  0  0
 28 58  1  0  0  0  0
 29 30  1  0  0  0  0
 29 59  1  0  0  0  0
 29 60  1  0  0  0  0
 30 31  1  0  0  0  0
 30 61  1  0  0  0  0
 30 62  1  0  0  0  0
 31 32  1  0  0  0  0
 31 63  1  0  0  0  0
 31 64  1  0  0  0  0
 32 65  1  0  0  0  0
 32 66  1  0  0  0  0
 33 35  1  0  0  0  0
 33 67  1  1  0  0  0
 33 34  1  0  0  0  0
 33 32  1  0  0  0  0
 34 68  1  0  0  0  0
 34 69  1  0  0  0  0
 35 36  2  0  0  0  0
 35 37  1  0  0  0  0
 37 70  1  0  0  0  0
 38 71  1  0  0  0  0
 38 72  1  0  0  0  0
 38 73  1  0  0  0  0
 39 74  1  0  0  0  0
 42 43  1  0  0  0  0
 42 44  1  0  0  0  0
 43 75  1  0  0  0  0
 43 76  1  0  0  0  0
 43 77  1  0  0  0  0
 44 78  1  0  0  0  0
 44 79  1  0  0  0  0
 44 80  1  0  0  0  0
 45 81  1  0  0  0  0
M  END
>  <DRUGBANK_ID>
DB00256

>  <SECONDARY_ACCESSION_NUMBERS>
APRD00565; EXPT01049

>  <COMMON_NAME>
Lymecycline

>  <CAS_NUMBER>
992-21-2

>  <UNII>
7D6EM3S13P

>  <SYNONYMS>
(+)-N-(5-Amino-5-carboxypentylaminomethyl)-4-dimethylamino-1,4,4a,5,5a,6,11,12a-octahydro-3,6,10,12,12a-pentahydroxy-6-methyl-1,11-dioxonaphthacene-2-carboxamide; Limeciclina; Lymecycline; Lymecyclinum; N-Lysinomethyltetracycline; N2-(((+)-5-Amino-5-carboxypentylamino)methyl)tetracycline; N6-((4-(Dimethylamino)-1,4,4a,5,5a,6,11,12a-octahydro-3,6,10,12,12a-pentahydroxy-6-methyl-1,11-dioxo-2-naphthacenecarboxamido)methyl)lysine; Tetracycline-L-methylene lysine; Tetracycline-L-methylenelysine

$$$$
