
 OpenBabel10282417183D

 70 74  0  0  0  0  0  0  0  0999 V2000
    2.5062   -0.1633   -0.0256 C   0  0  0  0  0  0  0  0  0  0  0  0
    1.0147   -0.1948    0.0302 C   0  0  0  0  0  0  0  0  0  0  0  0
    0.2192   -1.3497   -0.0156 C   0  0  0  0  0  0  0  0  0  0  0  0
   -1.1928   -1.1674   -0.0196 C   0  0  0  0  0  0  0  0  0  0  0  0
   -1.7485    0.0991    0.1239 C   0  0  0  0  0  0  0  0  0  0  0  0
   -0.8352    1.1009    0.3813 C   0  0  0  0  0  0  0  0  0  0  0  0
    0.4960    1.0236    0.2399 N   0  0  0  0  0  0  0  0  0  0  0  0
   -3.1488    0.3108    0.0312 N   0  0  0  0  0  0  0  0  0  0  0  0
   -3.8666    1.4982   -0.0323 C   0  0  0  0  0  0  0  0  0  0  0  0
   -5.1027    1.4845    0.0376 O   0  0  0  0  0  0  0  0  0  0  0  0
   -3.1925    2.8123   -0.1908 C   0  0  0  0  0  0  0  0  0  0  0  0
   -2.2104    2.9957   -1.1701 C   0  0  0  0  0  0  0  0  0  0  0  0
   -1.3547    4.0944   -1.0839 C   0  0  0  0  0  0  0  0  0  0  0  0
   -1.6088    5.1378   -0.1763 C   0  0  0  0  0  0  0  0  0  0  0  0
   -2.7687    5.0734    0.6210 C   0  0  0  0  0  0  0  0  0  0  0  0
   -3.4722    3.8511    0.7028 C   0  0  0  0  0  0  0  0  0  0  0  0
   -3.3894    6.2831    1.2874 C   0  0  0  0  0  0  0  0  0  0  0  0
   -4.6907    6.4303    0.9043 F   0  0  0  0  0  0  0  0  0  0  0  0
   -3.3993    6.1999    2.6428 F   0  0  0  0  0  0  0  0  0  0  0  0
   -2.8183    7.4822    0.9925 F   0  0  0  0  0  0  0  0  0  0  0  0
   -0.6511    6.3113   -0.1417 C   0  0  0  0  0  0  0  0  0  0  0  0
   -0.5622    7.0021   -1.4230 N   0  0  0  0  0  0  0  0  0  0  0  0
   -1.8665    7.4367   -1.9587 C   0  0  0  0  0  0  0  0  0  0  0  0
   -1.6792    8.0775   -3.3489 C   0  0  0  0  0  0  0  0  0  0  0  0
   -0.7570    9.2342   -3.3587 N   0  0  0  0  0  0  0  0  0  0  0  0
    0.5009    8.8713   -2.6662 C   0  0  0  0  0  0  0  0  0  0  0  0
    0.3056    8.1873   -1.2966 C   0  0  0  0  0  0  0  0  0  0  0  0
   -1.3845   10.3872   -2.7138 C   0  0  0  0  0  0  0  0  0  0  0  0
    0.8105   -2.6284   -0.1269 N   0  0  0  0  0  0  0  0  0  0  0  0
    0.1055   -3.8238   -0.0462 C   0  0  0  0  0  0  0  0  0  0  0  0
    0.2899   -4.6244    1.0144 N   0  0  0  0  0  0  0  0  0  0  0  0
   -0.4928   -5.7194    1.0794 C   0  0  0  0  0  0  0  0  0  0  0  0
   -1.4013   -6.0580    0.1077 C   0  0  0  0  0  0  0  0  0  0  0  0
   -1.4812   -5.2001   -0.9648 C   0  0  0  0  0  0  0  0  0  0  0  0
   -0.7481   -4.0833   -1.0424 N   0  0  0  0  0  0  0  0  0  0  0  0
   -2.3656   -5.4437   -2.0942 C   0  0  0  0  0  0  0  0  0  0  0  0
   -3.7463   -5.5893   -1.9287 C   0  0  0  0  0  0  0  0  0  0  0  0
   -4.5511   -5.8811   -3.0249 C   0  0  0  0  0  0  0  0  0  0  0  0
   -3.9490   -6.0120   -4.2649 C   0  0  0  0  0  0  0  0  0  0  0  0
   -2.6242   -5.8653   -4.4748 N   0  0  0  0  0  0  0  0  0  0  0  0
   -1.8671   -5.5734   -3.3897 C   0  0  0  0  0  0  0  0  0  0  0  0
    2.8353    0.3889   -0.9124 H   0  0  0  0  0  0  0  0  0  0  0  0
    2.8682    0.3718    0.8606 H   0  0  0  0  0  0  0  0  0  0  0  0
    2.9677   -1.1486   -0.0347 H   0  0  0  0  0  0  0  0  0  0  0  0
   -1.8557   -2.0255   -0.0965 H   0  0  0  0  0  0  0  0  0  0  0  0
   -1.1275    2.0688    0.7495 H   0  0  0  0  0  0  0  0  0  0  0  0
   -3.7458   -0.5094   -0.0233 H   0  0  0  0  0  0  0  0  0  0  0  0
   -1.9781    2.2022   -1.8776 H   0  0  0  0  0  0  0  0  0  0  0  0
   -0.4719    4.1302   -1.7237 H   0  0  0  0  0  0  0  0  0  0  0  0
   -4.2485    3.7231    1.4582 H   0  0  0  0  0  0  0  0  0  0  0  0
    0.3391    5.9132    0.1229 H   0  0  0  0  0  0  0  0  0  0  0  0
   -0.8738    7.0062    0.6700 H   0  0  0  0  0  0  0  0  0  0  0  0
   -2.5578    6.5959   -2.0791 H   0  0  0  0  0  0  0  0  0  0  0  0
   -2.3515    8.1461   -1.2773 H   0  0  0  0  0  0  0  0  0  0  0  0
   -1.2967    7.3131   -4.0395 H   0  0  0  0  0  0  0  0  0  0  0  0
   -2.6580    8.3709   -3.7482 H   0  0  0  0  0  0  0  0  0  0  0  0
    1.0731    8.1935   -3.3138 H   0  0  0  0  0  0  0  0  0  0  0  0
    1.1286    9.7615   -2.5385 H   0  0  0  0  0  0  0  0  0  0  0  0
   -0.1291    8.9009   -0.5829 H   0  0  0  0  0  0  0  0  0  0  0  0
    1.2864    7.9027   -0.8987 H   0  0  0  0  0  0  0  0  0  0  0  0
   -1.6161   10.2204   -1.6571 H   0  0  0  0  0  0  0  0  0  0  0  0
   -0.7274   11.2594   -2.7797 H   0  0  0  0  0  0  0  0  0  0  0  0
   -2.3177   10.6467   -3.2239 H   0  0  0  0  0  0  0  0  0  0  0  0
    1.7008   -2.7216    0.3408 H   0  0  0  0  0  0  0  0  0  0  0  0
   -0.3687   -6.3418    1.9615 H   0  0  0  0  0  0  0  0  0  0  0  0
   -1.9997   -6.9562    0.1658 H   0  0  0  0  0  0  0  0  0  0  0  0
   -4.1981   -5.4723   -0.9468 H   0  0  0  0  0  0  0  0  0  0  0  0
   -5.6215   -6.0067   -2.9118 H   0  0  0  0  0  0  0  0  0  0  0  0
   -4.5353   -6.2439   -5.1489 H   0  0  0  0  0  0  0  0  0  0  0  0
   -0.8033   -5.4658   -3.5940 H   0  0  0  0  0  0  0  0  0  0  0  0
  1  2  1  0  0  0  0
  1 42  1  0  0  0  0
  1 43  1  0  0  0  0
  1 44  1  0  0  0  0
  2  3  2  0  0  0  0
  2  7  1  0  0  0  0
  3  4  1  0  0  0  0
  3 29  1  0  0  0  0
  4  5  2  0  0  0  0
  4 45  1  0  0  0  0
  5  6  1  0  0  0  0
  5  8  1  0  0  0  0
  6  7  2  0  0  0  0
  6 46  1  0  0  0  0
  8  9  1  0  0  0  0
  8 47  1  0  0  0  0
  9 10  2  0  0  0  0
  9 11  1  0  0  0  0
 11 12  2  0  0  0  0
 11 16  1  0  0  0  0
 12 13  1  0  0  0  0
 12 48  1  0  0  0  0
 13 14  2  0  0  0  0
 13 49  1  0  0  0  0
 14 15  1  0  0  0  0
 14 21  1  0  0  0  0
 15 16  2  0  0  0  0
 15 17  1  0  0  0  0
 16 50  1  0  0  0  0
 17 18  1  0  0  0  0
 17 19  1  0  0  0  0
 17 20  1  0  0  0  0
 21 22  1  0  0  0  0
 21 51  1  0  0  0  0
 21 52  1  0  0  0  0
 22 23  1  0  0  0  0
 22 27  1  0  0  0  0
 23 24  1  0  0  0  0
 23 53  1  0  0  0  0
 23 54  1  0  0  0  0
 24 25  1  0  0  0  0
 24 55  1  0  0  0  0
 24 56  1  0  0  0  0
 25 26  1  0  0  0  0
 25 28  1  0  0  0  0
 26 27  1  0  0  0  0
 26 57  1  0  0  0  0
 26 58  1  0  0  0  0
 27 59  1  0  0  0  0
 27 60  1  0  0  0  0
 28 61  1  0  0  0  0
 28 62  1  0  0  0  0
 28 63  1  0  0  0  0
 29 30  1  0  0  0  0
 29 64  1  0  0  0  0
 30 31  2  0  0  0  0
 30 35  1  0  0  0  0
 31 32  1  0  0  0  0
 32 33  2  0  0  0  0
 32 65  1  0  0  0  0
 33 34  1  0  0  0  0
 33 66  1  0  0  0  0
 34 35  2  0  0  0  0
 34 36  1  0  0  0  0
 36 37  2  0  0  0  0
 36 41  1  0  0  0  0
 37 38  1  0  0  0  0
 37 67  1  0  0  0  0
 38 39  2  0  0  0  0
 38 68  1  0  0  0  0
 39 40  1  0  0  0  0
 39 69  1  0  0  0  0
 40 41  2  0  0  0  0
 41 70  1  0  0  0  0
M  END
>  <DRUGBANK_ID>
DB11904

>  <COMMON_NAME>
Flumatinib

>  <CAS_NUMBER>
895519-90-1

>  <UNII>
R4009Y24AI

$$$$
