
 OpenBabel10282417203D

  5  4  0  0  0  0  0  0  0  0999 V2000
    1.0007    0.0476    0.0880 B   0  0  0  0  0  0  0  0  0  0  0  0
    0.3295   -0.7048    0.9743 O   0  0  0  0  0  0  0  0  0  0  0  0
    2.9407    0.8529   -0.8608 O   0  0  0  0  0  0  0  0  0  0  0  0
    2.5007    0.0476    0.0880 O   0  0  0  0  0  0  0  0  0  0  0  0
    3.9407    0.8529   -0.8608 H   0  0  0  0  0  0  0  0  0  0  0  0
  2  1  2  0  0  0  0
  3  5  1  0  0  0  0
  4  1  1  0  0  0  0
  4  3  1  0  0  0  0
M  END
>  <DRUGBANK_ID>
DB13235

>  <COMMON_NAME>
Perboric acid

>  <CAS_NUMBER>
14034-78-7

>  <UNII>
HC4C3M1FO2

$$$$
