IPE
 OpenBabel10282417143D

 26 25  0  0  0  0  0  0  0  0999 V2000
    0.9428    0.1969    0.0898 C   0  0  0  0  0  0  0  0  0  0  0  0
    0.5353   -0.2799    1.3662 O   0  0  0  0  0  0  0  0  0  0  0  0
    0.4840    1.5927   -0.2805 C   0  0  0  0  0  0  0  0  0  0  0  0
    0.9729    1.9173   -1.6862 C   0  0  0  0  0  0  0  0  0  0  0  0
    0.1067    2.1299   -2.6900 C   0  0  0  0  0  0  0  0  0  0  0  0
    2.4606    1.9446   -1.9354 C   0  0  0  0  0  0  0  0  0  0  0  0
    1.1120   -1.8557    1.7872 P   0  0  1  0  0  0  0  0  0  0  0  0
   -0.3161   -2.2758    2.1374 O   0  0  0  0  0  0  0  0  0  0  0  0
    1.3341   -2.2686    0.2146 O   0  0  0  0  0  0  0  0  0  0  0  0
    1.6886   -3.4315    2.2082 O   0  0  0  0  0  0  0  0  0  0  0  0
    3.1990   -3.9060    2.1835 P   0  0  0  0  0  0  0  0  0  0  0  0
    3.3340   -4.6883    3.5680 O   0  0  0  0  0  0  0  0  0  0  0  0
    3.7323   -4.6332    0.9932 O   0  0  0  0  0  0  0  0  0  0  0  0
    4.1554   -2.7045    2.6290 O   0  0  0  0  0  0  0  0  0  0  0  0
    0.5228   -0.4639   -0.6774 H   0  0  0  0  0  0  0  0  0  0  0  0
    2.0358    0.1562    0.0718 H   0  0  0  0  0  0  0  0  0  0  0  0
   -0.6117    1.6259   -0.2258 H   0  0  0  0  0  0  0  0  0  0  0  0
    0.8517    2.3281    0.4409 H   0  0  0  0  0  0  0  0  0  0  0  0
    0.4451    2.3442   -3.6996 H   0  0  0  0  0  0  0  0  0  0  0  0
   -0.9667    2.0809   -2.5329 H   0  0  0  0  0  0  0  0  0  0  0  0
    2.9475    2.6671   -1.2748 H   0  0  0  0  0  0  0  0  0  0  0  0
    2.9115    0.9600   -1.7673 H   0  0  0  0  0  0  0  0  0  0  0  0
    2.6979    2.2191   -2.9691 H   0  0  0  0  0  0  0  0  0  0  0  0
    2.1317   -1.9280   -0.2289 H   0  0  0  0  0  0  0  0  0  0  0  0
    3.1693   -4.0806    4.3142 H   0  0  0  0  0  0  0  0  0  0  0  0
    5.0282   -3.1130    2.8416 H   0  0  0  0  0  0  0  0  0  0  0  0
  1  2  1  0  0  0  0
  1  3  1  0  0  0  0
  1 15  1  0  0  0  0
  1 16  1  0  0  0  0
  3  4  1  0  0  0  0
  3 17  1  0  0  0  0
  3 18  1  0  0  0  0
  4  5  2  0  0  0  0
  4  6  1  0  0  0  0
  5 19  1  0  0  0  0
  5 20  1  0  0  0  0
  6 21  1  0  0  0  0
  6 22  1  0  0  0  0
  6 23  1  0  0  0  0
  7  2  1  0  0  0  0
  7  8  2  6  0  0  0
  7  9  1  0  0  0  0
  7 10  1  0  0  0  0
  9 24  1  0  0  0  0
 10 11  1  0  0  0  0
 11 12  1  0  0  0  0
 11 13  2  0  0  0  0
 11 14  1  0  0  0  0
 12 25  1  0  0  0  0
 14 26  1  0  0  0  0
M  END
>  <DRUGBANK_ID>
DB04714

>  <COMMON_NAME>
ISOPENTENYL PYROPHOSPHATE

>  <UNII>
LSC8849M7B

$$$$
