
 OpenBabel10282417133D

 16 16  0  0  0  0  0  0  0  0999 V2000
    2.2811    0.0071    0.0122 O   0  0  0  0  0  0  0  0  0  0  0  0
    0.9183   -0.0197    0.0129 C   0  0  0  0  0  0  0  0  0  0  0  0
    0.2117   -1.2184    0.0106 C   0  0  0  0  0  0  0  0  0  0  0  0
   -1.1862   -1.1911   -0.0017 C   0  0  0  0  0  0  0  0  0  0  0  0
   -1.8780    0.0313   -0.0120 C   0  0  0  0  0  0  0  0  0  0  0  0
   -1.1423    1.2276    0.0003 C   0  0  0  0  0  0  0  0  0  0  0  0
    0.2526    1.1996    0.0133 C   0  0  0  0  0  0  0  0  0  0  0  0
   -3.3860    0.0795   -0.0404 C   0  0  0  0  0  0  0  0  0  0  0  0
   -3.9079    0.7296    1.0364 F   0  0  0  0  0  0  0  0  0  0  0  0
   -3.8654    0.7290   -1.1375 F   0  0  0  0  0  0  0  0  0  0  0  0
   -3.9709   -1.1511   -0.0520 F   0  0  0  0  0  0  0  0  0  0  0  0
    2.6147   -0.9042   -0.0182 H   0  0  0  0  0  0  0  0  0  0  0  0
    0.7244   -2.1753    0.0177 H   0  0  0  0  0  0  0  0  0  0  0  0
   -1.7366   -2.1313   -0.0055 H   0  0  0  0  0  0  0  0  0  0  0  0
   -1.6561    2.1875   -0.0030 H   0  0  0  0  0  0  0  0  0  0  0  0
    0.8194    2.1269    0.0209 H   0  0  0  0  0  0  0  0  0  0  0  0
  1  2  1  0  0  0  0
  1 12  1  0  0  0  0
  2  3  1  0  0  0  0
  2  7  2  0  0  0  0
  3  4  2  0  0  0  0
  3 13  1  0  0  0  0
  4  5  1  0  0  0  0
  4 14  1  0  0  0  0
  5  6  2  0  0  0  0
  5  8  1  0  0  0  0
  6  7  1  0  0  0  0
  6 15  1  0  0  0  0
  7 16  1  0  0  0  0
  8  9  1  0  0  0  0
  8 10  1  0  0  0  0
  8 11  1  0  0  0  0
M  END
>  <DRUGBANK_ID>
DB03610

>  <SECONDARY_ACCESSION_NUMBERS>
EXPT01405

>  <COMMON_NAME>
4-(trifluoromethyl)phenol

>  <CAS_NUMBER>
402-45-9

>  <UNII>
G8PMO13PO4

>  <SYNONYMS>
4-hydroxybenzotrifluoride; 4-trifluoromethylphenol; α,α,α-trifluoro-p-cresol

$$$$
