
 OpenBabel10282417163D

 35 34  0  0  0  0  0  0  0  0999 V2000
    0.9300   -0.0528    0.0985 O   0  0  0  0  0  0  0  0  0  0  0  0
    2.1461    0.0510    0.2230 C   0  0  0  0  0  0  0  0  0  0  0  0
    2.9023   -0.7832    0.9675 O   0  0  0  0  0  0  0  0  0  0  0  0
    4.3455   -0.7482    0.9112 C   0  0  0  0  0  0  0  0  0  0  0  0
    4.8767   -1.3090   -0.4097 C   0  0  0  0  0  0  0  0  0  0  0  0
    4.4909   -0.4286   -1.5977 C   0  0  0  0  0  0  0  0  0  0  0  0
    4.9948    1.0107   -1.3858 C   0  0  0  0  0  0  0  0  0  0  0  0
    6.5206    1.0365   -1.3789 C   0  0  0  0  0  0  0  0  0  0  0  0
    7.0449    0.5145   -2.7154 C   0  0  0  0  0  0  0  0  0  0  0  0
    6.5255    1.3873   -3.8652 C   0  0  0  0  0  0  0  0  0  0  0  0
    7.0250    2.8289   -3.7201 C   0  0  0  0  0  0  0  0  0  0  0  0
    8.5530    2.8845   -3.6968 C   0  0  0  0  0  0  0  0  0  0  0  0
    9.1231    2.3138   -4.9853 C   0  0  0  0  0  0  0  0  0  0  0  0
    2.7024    0.8327   -0.2995 H   0  0  0  0  0  0  0  0  0  0  0  0
    4.7231    0.2536    1.1466 H   0  0  0  0  0  0  0  0  0  0  0  0
    4.7077   -1.3857    1.7240 H   0  0  0  0  0  0  0  0  0  0  0  0
    5.9688   -1.4107   -0.3561 H   0  0  0  0  0  0  0  0  0  0  0  0
    4.4912   -2.3194   -0.5747 H   0  0  0  0  0  0  0  0  0  0  0  0
    4.8739   -0.8644   -2.5247 H   0  0  0  0  0  0  0  0  0  0  0  0
    3.4142   -0.4548   -1.7731 H   0  0  0  0  0  0  0  0  0  0  0  0
    4.5669    1.6688   -2.1481 H   0  0  0  0  0  0  0  0  0  0  0  0
    4.6501    1.4642   -0.4537 H   0  0  0  0  0  0  0  0  0  0  0  0
    6.8712    2.0519   -1.1675 H   0  0  0  0  0  0  0  0  0  0  0  0
    6.9268    0.4415   -0.5549 H   0  0  0  0  0  0  0  0  0  0  0  0
    8.1356    0.4656   -2.6887 H   0  0  0  0  0  0  0  0  0  0  0  0
    6.7562   -0.5264   -2.8851 H   0  0  0  0  0  0  0  0  0  0  0  0
    6.8246    0.9506   -4.8209 H   0  0  0  0  0  0  0  0  0  0  0  0
    5.4315    1.3851   -3.9196 H   0  0  0  0  0  0  0  0  0  0  0  0
    6.6327    3.4376   -4.5405 H   0  0  0  0  0  0  0  0  0  0  0  0
    6.6293    3.2903   -2.8066 H   0  0  0  0  0  0  0  0  0  0  0  0
    8.8818    3.9177   -3.5586 H   0  0  0  0  0  0  0  0  0  0  0  0
    8.9566    2.3335   -2.8389 H   0  0  0  0  0  0  0  0  0  0  0  0
    8.7501    2.8858   -5.8398 H   0  0  0  0  0  0  0  0  0  0  0  0
   10.2127    2.3462   -4.9746 H   0  0  0  0  0  0  0  0  0  0  0  0
    8.8407    1.2662   -5.1338 H   0  0  0  0  0  0  0  0  0  0  0  0
  1  2  2  0  0  0  0
  2  3  1  0  0  0  0
  2 14  1  0  0  0  0
  3  4  1  0  0  0  0
  4  5  1  0  0  0  0
  4 15  1  0  0  0  0
  4 16  1  0  0  0  0
  5  6  1  0  0  0  0
  5 17  1  0  0  0  0
  5 18  1  0  0  0  0
  6  7  1  0  0  0  0
  6 19  1  0  0  0  0
  6 20  1  0  0  0  0
  7  8  1  0  0  0  0
  7 21  1  0  0  0  0
  7 22  1  0  0  0  0
  8  9  1  0  0  0  0
  8 23  1  0  0  0  0
  8 24  1  0  0  0  0
  9 10  1  0  0  0  0
  9 25  1  0  0  0  0
  9 26  1  0  0  0  0
 10 11  1  0  0  0  0
 10 27  1  0  0  0  0
 10 28  1  0  0  0  0
 11 12  1  0  0  0  0
 11 29  1  0  0  0  0
 11 30  1  0  0  0  0
 12 13  1  0  0  0  0
 12 31  1  0  0  0  0
 12 32  1  0  0  0  0
 13 33  1  0  0  0  0
 13 34  1  0  0  0  0
 13 35  1  0  0  0  0
M  END
>  <DRUGBANK_ID>
DB07650

>  <COMMON_NAME>
Decyl formate

>  <CAS_NUMBER>
5451-52-5

>  <UNII>
I3X2P7V6YF

>  <SYNONYMS>
n-Decyl methanoate

$$$$
