
 OpenBabel10282417153D

144145  0  0  0  0  0  0  0  0999 V2000
    0.9387   -0.0667    0.0423 Lu  0  1  0  0  0  0  0  0  0  0  0  0
    5.4097   -9.1372  -12.1458 O   0  0  0  0  0  0  0  0  0  0  0  0
    4.2439   -8.3319  -12.0524 C   0  0  0  0  0  0  0  0  0  0  0  0
    3.0101   -9.2178  -12.1107 C   0  0  0  0  0  0  0  0  0  0  0  0
    3.0390  -10.2034  -10.9540 C   0  0  0  0  0  0  0  0  0  0  0  0
    3.0538   -9.4412   -9.6390 C   0  0  0  0  0  0  0  0  0  0  0  0
    3.7419   -9.7130   -8.5428 C   0  0  0  0  0  0  0  0  0  0  0  0
    3.4361   -8.6160   -7.5882 C   0  0  0  0  0  0  0  0  0  0  0  0
    3.9709   -8.4565   -6.1743 C   0  0  0  0  0  0  0  0  0  0  0  0
    3.6058   -7.4238   -5.4455 N   0  0  0  0  0  0  0  0  0  0  0  0
    2.6808   -6.4241   -5.9985 C   0  0  0  0  0  0  0  0  0  0  0  0
    1.5235   -6.8577   -6.7034 C   0  0  0  0  0  0  0  0  0  0  0  0
    0.8353   -5.9486   -7.5234 C   0  0  0  0  0  0  0  0  0  0  0  0
   -0.1271   -6.4207   -8.4547 O   0  0  0  0  0  0  0  0  0  0  0  0
   -0.3935   -7.8117   -8.5568 C   0  0  0  0  0  0  0  0  0  0  0  0
    0.8810   -8.5448   -8.9424 C   0  0  0  0  0  0  0  0  0  0  0  0
    1.8725   -8.3244   -7.9501 O   0  0  0  0  0  0  0  0  0  0  0  0
    2.1389   -6.9334   -7.8480 C   0  0  0  0  0  0  0  0  0  0  0  0
    2.6373   -6.4134   -9.1865 C   0  0  0  0  0  0  0  0  0  0  0  0
    1.6458   -6.6338  -10.1788 O   0  0  0  0  0  0  0  0  0  0  0  0
    1.3793   -8.0248  -10.2809 C   0  0  0  0  0  0  0  0  0  0  0  0
    2.6538   -8.7579  -10.6665 C   0  0  0  0  0  0  0  0  0  0  0  0
    3.6454   -8.5375   -9.6742 O   0  0  0  0  0  0  0  0  0  0  0  0
    3.9118   -7.1465   -9.5721 C   0  0  0  0  0  0  0  0  0  0  0  0
    1.0793   -4.6745   -7.4301 C   0  0  0  0  0  0  0  0  0  0  0  0
    0.3905   -3.7575   -8.2674 O   0  0  0  0  0  0  0  0  0  0  0  0
    0.6561   -2.3662   -8.1663 C   0  0  0  0  0  0  0  0  0  0  0  0
    0.3357   -1.8903   -6.7587 C   0  0  0  0  0  0  0  0  0  0  0  0
    1.1416   -2.5950   -5.8258 O   0  0  0  0  0  0  0  0  0  0  0  0
    0.8760   -3.9863   -5.9270 C   0  0  0  0  0  0  0  0  0  0  0  0
   -0.5913   -4.2452   -5.6263 C   0  0  0  0  0  0  0  0  0  0  0  0
   -1.3972   -3.5404   -6.5591 O   0  0  0  0  0  0  0  0  0  0  0  0
   -1.1316   -2.1491   -6.4580 C   0  0  0  0  0  0  0  0  0  0  0  0
   -1.4519   -1.6732   -5.0504 C   0  0  0  0  0  0  0  0  0  0  0  0
   -0.6461   -2.3780   -4.1176 O   0  0  0  0  0  0  0  0  0  0  0  0
   -0.9117   -3.7692   -4.2187 C   0  0  0  0  0  0  0  0  0  0  0  0
    2.0208   -4.2056   -6.5044 C   0  0  0  0  0  0  0  0  0  0  0  0
    2.9229   -5.1158   -5.9017 C   0  0  0  0  0  0  0  0  0  0  0  0
    4.1070   -4.6267   -5.1808 N   0  0  0  0  0  0  0  0  0  0  0  0
    4.9383   -5.4816   -4.6248 C   0  0  0  0  0  0  0  0  0  0  0  0
    4.6742   -6.9750   -4.7277 C   0  0  0  0  0  0  0  0  0  0  0  0
    4.3118   -7.7031   -5.7706 N   0  0  0  0  0  0  0  0  0  0  0  0
    4.2655   -8.9932   -5.4008 C   0  0  0  0  0  0  0  0  0  0  0  0
    3.9333  -10.0224   -6.2260 C   0  0  0  0  0  0  0  0  0  0  0  0
    3.9145  -11.4466   -5.6951 C   0  0  0  0  0  0  0  0  0  0  0  0
    3.1635  -11.9306   -4.6971 N   0  5  0  0  0  0  0  0  0  0  0  0
    3.4824  -13.2752   -4.5614 C   0  0  0  0  0  0  0  0  0  0  0  0
    1.5489   -7.7287  -10.3687 C   0  0  0  0  0  0  0  0  0  0  0  0
    2.3687   -8.3023   -9.4471 C   0  0  0  0  0  0  0  0  0  0  0  0
    2.6033   -7.8069   -8.2212 N   0  0  0  0  0  0  0  0  0  0  0  0
    4.3782  -13.5186   -5.4557 C   0  0  0  0  0  0  0  0  0  0  0  0
    5.0357  -14.8706   -5.6794 C   0  0  0  0  0  0  0  0  0  0  0  0
    5.7545  -15.3005   -4.4110 C   0  0  0  0  0  0  0  0  0  0  0  0
    4.6366  -12.4575   -6.1308 C   0  0  0  0  0  0  0  0  0  0  0  0
    5.6363  -12.3793   -7.2731 C   0  0  0  0  0  0  0  0  0  0  0  0
    7.0183  -12.7546   -6.7635 C   0  0  0  0  0  0  0  0  0  0  0  0
    4.5919   -9.1288   -4.1053 C   0  0  0  0  0  0  0  0  0  0  0  0
    4.6386  -10.4391   -3.3363 C   0  0  0  0  0  0  0  0  0  0  0  0
    3.2638  -11.0871   -3.3555 C   0  0  0  0  0  0  0  0  0  0  0  0
    2.8513  -11.3578   -4.7931 C   0  0  0  0  0  0  0  0  0  0  0  0
    3.7939  -12.2294   -5.3999 O   0  0  0  0  0  0  0  0  0  0  0  0
    4.8660   -7.9340   -3.6089 C   0  0  0  0  0  0  0  0  0  0  0  0
    5.2902   -7.6085   -2.1861 C   0  0  0  0  0  0  0  0  0  0  0  0
    4.6576  -10.9032   -8.3077 C   0  0  0  0  0  0  0  0  0  0  0  0
    1.0807   -0.0369    0.0461 C   0  0  0  0  0  0  0  0  0  0  0  0
    0.5740    0.2803   -1.3514 C   0  0  0  0  0  0  0  0  0  0  0  0
   -0.1566   -0.5573   -1.9677 O   0  0  0  0  0  0  0  0  0  0  0  0
    0.9171    1.5124   -1.9684 O   0  5  0  0  0  0  0  0  0  0  0  0
    0.9538    0.0170   -0.0871 C   0  0  0  0  0  0  0  0  0  0  0  0
    0.4472   -1.4062   -0.2551 C   0  0  0  0  0  0  0  0  0  0  0  0
   -0.2835   -1.9308    0.6428 O   0  0  0  0  0  0  0  0  0  0  0  0
    0.7902   -2.1497   -1.4152 O   0  5  0  0  0  0  0  0  0  0  0  0
    5.4287   -9.7857  -11.3848 H   0  0  0  0  0  0  0  0  0  0  0  0
    4.2543   -7.7953  -11.1268 H   0  0  0  0  0  0  0  0  0  0  0  0
    4.2235   -7.6380  -12.8667 H   0  0  0  0  0  0  0  0  0  0  0  0
    2.1316   -8.6109  -12.0403 H   0  0  0  0  0  0  0  0  0  0  0  0
    2.9997   -9.7544  -13.0364 H   0  0  0  0  0  0  0  0  0  0  0  0
    2.1705  -10.8271  -10.9950 H   0  0  0  0  0  0  0  0  0  0  0  0
    3.9175  -10.8103  -11.0244 H   0  0  0  0  0  0  0  0  0  0  0  0
    4.6442   -9.1842   -5.7717 H   0  0  0  0  0  0  0  0  0  0  0  0
    1.1807   -7.8670   -6.6096 H   0  0  0  0  0  0  0  0  0  0  0  0
   -0.7444   -8.1778   -7.6146 H   0  0  0  0  0  0  0  0  0  0  0  0
   -1.1407   -7.9778   -9.3046 H   0  0  0  0  0  0  0  0  0  0  0  0
    0.6802   -9.5930   -9.0193 H   0  0  0  0  0  0  0  0  0  0  0  0
    1.2318   -8.1788   -9.8846 H   0  0  0  0  0  0  0  0  0  0  0  0
    1.2418   -6.4173   -7.5766 H   0  0  0  0  0  0  0  0  0  0  0  0
    2.8861   -6.7673   -7.1002 H   0  0  0  0  0  0  0  0  0  0  0  0
    2.8381   -5.3652   -9.1096 H   0  0  0  0  0  0  0  0  0  0  0  0
    3.5345   -6.9294   -9.4579 H   0  0  0  0  0  0  0  0  0  0  0  0
    1.0285   -8.3909   -9.3387 H   0  0  0  0  0  0  0  0  0  0  0  0
    0.6322   -8.1909  -11.0287 H   0  0  0  0  0  0  0  0  0  0  0  0
    2.4530   -9.8061  -10.7434 H   0  0  0  0  0  0  0  0  0  0  0  0
    3.0047   -8.3919  -11.6087 H   0  0  0  0  0  0  0  0  0  0  0  0
    4.2627   -6.7804  -10.5143 H   0  0  0  0  0  0  0  0  0  0  0  0
    3.0147   -6.6304   -9.3007 H   0  0  0  0  0  0  0  0  0  0  0  0
    4.6590   -6.9804   -8.8243 H   0  0  0  0  0  0  0  0  0  0  0  0
    1.6890   -2.1840   -8.3780 H   0  0  0  0  0  0  0  0  0  0  0  0
    0.0489   -1.8352   -8.8692 H   0  0  0  0  0  0  0  0  0  0  0  0
    0.5359   -0.8419   -6.6825 H   0  0  0  0  0  0  0  0  0  0  0  0
   -0.6972   -2.0725   -6.5470 H   0  0  0  0  0  0  0  0  0  0  0  0
    1.1015   -4.3214   -6.9178 H   0  0  0  0  0  0  0  0  0  0  0  0
    1.4832   -4.5174   -5.2240 H   0  0  0  0  0  0  0  0  0  0  0  0
   -0.7914   -5.2935   -5.7025 H   0  0  0  0  0  0  0  0  0  0  0  0
   -0.8168   -3.9101   -4.6354 H   0  0  0  0  0  0  0  0  0  0  0  0
   -0.0987   -1.9669   -6.6697 H   0  0  0  0  0  0  0  0  0  0  0  0
   -1.7388   -1.6181   -7.1609 H   0  0  0  0  0  0  0  0  0  0  0  0
   -1.2518   -0.6248   -4.9742 H   0  0  0  0  0  0  0  0  0  0  0  0
   -2.4848   -1.8554   -4.8388 H   0  0  0  0  0  0  0  0  0  0  0  0
   -1.9446   -3.9515   -4.0070 H   0  0  0  0  0  0  0  0  0  0  0  0
   -0.6861   -4.1043   -5.2095 H   0  0  0  0  0  0  0  0  0  0  0  0
   -0.3044   -4.3003   -3.5157 H   0  0  0  0  0  0  0  0  0  0  0  0
    2.0580   -3.1659   -6.2543 H   0  0  0  0  0  0  0  0  0  0  0  0
    5.8002   -5.1257   -4.1001 H   0  0  0  0  0  0  0  0  0  0  0  0
    3.6852   -9.8294   -7.2488 H   0  0  0  0  0  0  0  0  0  0  0  0
    1.4153   -8.1884  -11.3257 H   0  0  0  0  0  0  0  0  0  0  0  0
    4.2877  -15.5942   -5.9281 H   0  0  0  0  0  0  0  0  0  0  0  0
    5.7405  -14.7962   -6.4810 H   0  0  0  0  0  0  0  0  0  0  0  0
    5.0497  -15.3749   -3.6093 H   0  0  0  0  0  0  0  0  0  0  0  0
    6.2173  -16.2523   -4.5684 H   0  0  0  0  0  0  0  0  0  0  0  0
    6.5025  -14.5770   -4.1622 H   0  0  0  0  0  0  0  0  0  0  0  0
    5.3458  -13.0573   -8.0483 H   0  0  0  0  0  0  0  0  0  0  0  0
    5.6577  -11.3823   -7.6607 H   0  0  0  0  0  0  0  0  0  0  0  0
    6.9969  -13.7517   -6.3758 H   0  0  0  0  0  0  0  0  0  0  0  0
    7.7220  -12.6996   -7.5676 H   0  0  0  0  0  0  0  0  0  0  0  0
    7.3088  -12.0767   -5.9883 H   0  0  0  0  0  0  0  0  0  0  0  0
    5.3489  -11.0958   -3.7935 H   0  0  0  0  0  0  0  0  0  0  0  0
    4.9290  -10.2485   -2.3242 H   0  0  0  0  0  0  0  0  0  0  0  0
    3.2967  -12.0095   -2.8141 H   0  0  0  0  0  0  0  0  0  0  0  0
    2.5535  -10.4303   -2.8982 H   0  0  0  0  0  0  0  0  0  0  0  0
    1.8835  -11.8140   -4.8066 H   0  0  0  0  0  0  0  0  0  0  0  0
    2.8184  -10.4354   -5.3345 H   0  0  0  0  0  0  0  0  0  0  0  0
    4.6983  -11.8031   -5.3873 H   0  0  0  0  0  0  0  0  0  0  0  0
    4.5272   -7.9238   -1.5054 H   0  0  0  0  0  0  0  0  0  0  0  0
    6.2029   -8.1193   -1.9603 H   0  0  0  0  0  0  0  0  0  0  0  0
    5.4391   -6.5532   -2.0909 H   0  0  0  0  0  0  0  0  0  0  0  0
    5.6476  -10.5555   -8.0980 H   0  0  0  0  0  0  0  0  0  0  0  0
    4.2962  -11.4726   -7.4770 H   0  0  0  0  0  0  0  0  0  0  0  0
    4.6737  -11.5191   -9.1824 H   0  0  0  0  0  0  0  0  0  0  0  0
    0.7240   -1.0005    0.3446 H   0  0  0  0  0  0  0  0  0  0  0  0
    0.7240    0.7035    0.7314 H   0  0  0  0  0  0  0  0  0  0  0  0
    2.1507   -0.0369    0.0461 H   0  0  0  0  0  0  0  0  0  0  0  0
    0.5972    0.4155    0.8397 H   0  0  0  0  0  0  0  0  0  0  0  0
    0.5972    0.6203   -0.8956 H   0  0  0  0  0  0  0  0  0  0  0  0
    2.0238    0.0170   -0.0871 H   0  0  0  0  0  0  0  0  0  0  0  0
  2 73  1  0  0  0  0
  3  2  1  0  0  0  0
  3 74  1  0  0  0  0
  3 75  1  0  0  0  0
  4  3  1  0  0  0  0
  4 76  1  0  0  0  0
  4 77  1  0  0  0  0
  5  4  1  0  0  0  0
  5 78  1  0  0  0  0
  5 79  1  0  0  0  0
  6 49  1  0  0  0  0
  6  5  1  0  0  0  0
  7 64  1  0  0  0  0
  7  6  2  0  0  0  0
  8  7  1  0  0  0  0
  9  8  1  0  0  0  0
  9 80  1  0  0  0  0
 10  9  2  0  0  0  0
 11 10  1  0  0  0  0
 11 12  2  0  0  0  0
 12 13  1  0  0  0  0
 12 81  1  0  0  0  0
 13 14  1  0  0  0  0
 13 25  2  0  0  0  0
 14 15  1  0  0  0  0
 15 16  1  0  0  0  0
 15 82  1  0  0  0  0
 15 83  1  0  0  0  0
 16 17  1  0  0  0  0
 16 84  1  0  0  0  0
 16 85  1  0  0  0  0
 17 18  1  0  0  0  0
 18 19  1  0  0  0  0
 18 86  1  0  0  0  0
 18 87  1  0  0  0  0
 19 20  1  0  0  0  0
 19 88  1  0  0  0  0
 19 89  1  0  0  0  0
 20 21  1  0  0  0  0
 21 22  1  0  0  0  0
 21 90  1  0  0  0  0
 21 91  1  0  0  0  0
 22 23  1  0  0  0  0
 22 92  1  0  0  0  0
 22 93  1  0  0  0  0
 23 24  1  0  0  0  0
 24 94  1  0  0  0  0
 24 95  1  0  0  0  0
 24 96  1  0  0  0  0
 25 26  1  0  0  0  0
 25 37  1  0  0  0  0
 26 27  1  0  0  0  0
 27 28  1  0  0  0  0
 27 97  1  0  0  0  0
 27 98  1  0  0  0  0
 28 29  1  0  0  0  0
 28 99  1  0  0  0  0
 28100  1  0  0  0  0
 29 30  1  0  0  0  0
 30 31  1  0  0  0  0
 30101  1  0  0  0  0
 30102  1  0  0  0  0
 31 32  1  0  0  0  0
 31103  1  0  0  0  0
 31104  1  0  0  0  0
 32 33  1  0  0  0  0
 33 34  1  0  0  0  0
 33105  1  0  0  0  0
 33106  1  0  0  0  0
 34 35  1  0  0  0  0
 34107  1  0  0  0  0
 34108  1  0  0  0  0
 35 36  1  0  0  0  0
 36109  1  0  0  0  0
 36110  1  0  0  0  0
 36111  1  0  0  0  0
 37 38  2  0  0  0  0
 37112  1  0  0  0  0
 38 39  1  0  0  0  0
 38 11  1  0  0  0  0
 39 40  2  0  0  0  0
 40 41  1  0  0  0  0
 40113  1  0  0  0  0
 41 62  1  0  0  0  0
 42 41  2  0  0  0  0
 43 42  1  0  0  0  0
 43 44  2  0  0  0  0
 44 45  1  0  0  0  0
 44114  1  0  0  0  0
 45 46  1  0  0  0  0
 45 54  2  0  0  0  0
 46 47  1  0  0  0  0
 47 51  2  0  0  0  0
 48 47  1  0  0  0  0
 48115  1  0  0  0  0
 49 48  2  0  0  0  0
 49 50  1  0  0  0  0
 50  8  2  0  0  0  0
 51 52  1  0  0  0  0
 52 53  1  0  0  0  0
 52116  1  0  0  0  0
 52117  1  0  0  0  0
 53118  1  0  0  0  0
 53119  1  0  0  0  0
 53120  1  0  0  0  0
 54 51  1  0  0  0  0
 54 55  1  0  0  0  0
 55 56  1  0  0  0  0
 55121  1  0  0  0  0
 55122  1  0  0  0  0
 56123  1  0  0  0  0
 56124  1  0  0  0  0
 56125  1  0  0  0  0
 57 43  1  0  0  0  0
 57 58  1  0  0  0  0
 58 59  1  0  0  0  0
 58126  1  0  0  0  0
 58127  1  0  0  0  0
 59 60  1  0  0  0  0
 59128  1  0  0  0  0
 59129  1  0  0  0  0
 60 61  1  0  0  0  0
 60130  1  0  0  0  0
 60131  1  0  0  0  0
 61132  1  0  0  0  0
 62 57  2  0  0  0  0
 62 63  1  0  0  0  0
 63133  1  0  0  0  0
 63134  1  0  0  0  0
 63135  1  0  0  0  0
 64136  1  0  0  0  0
 64137  1  0  0  0  0
 64138  1  0  0  0  0
 65139  1  0  0  0  0
 65140  1  0  0  0  0
 65141  1  0  0  0  0
 66 65  1  0  0  0  0
 66 67  2  0  0  0  0
 68 66  1  0  0  0  0
 69142  1  0  0  0  0
 69143  1  0  0  0  0
 69144  1  0  0  0  0
 70 69  1  0  0  0  0
 70 71  2  0  0  0  0
 72 70  1  0  0  0  0
M  CHG  4   1   3  46  -1  68  -1  72  -1
M  END
>  <DRUGBANK_ID>
DB05296

>  <COMMON_NAME>
Motexafin lutetium

>  <CAS_NUMBER>
246252-04-0

>  <UNII>
0V38NF6N89

>  <SYNONYMS>
Lutetium texaphyrin anhydrous; Motexafin lutetium anhydrous

$$$$
