
 OpenBabel10282417193D

 49 51  0  0  1  0  0  0  0  0999 V2000
    0.9434    0.1200    0.0035 C   0  0  0  0  0  0  0  0  0  0  0  0
    0.4477   -0.3667   -1.3574 C   0  0  0  0  0  0  0  0  0  0  0  0
    0.9344   -1.7841   -1.7203 C   0  0  1  0  0  0  0  0  0  0  0  0
    0.4306   -2.7957   -0.6842 C   0  0  0  0  0  0  0  0  0  0  0  0
    0.4967   -2.1062   -3.0972 N   0  0  0  0  0  0  0  0  0  0  0  0
    1.3886   -2.4374   -4.1159 C   0  0  0  0  0  0  0  0  0  0  0  0
    2.4408   -3.1705   -3.8005 N   0  0  0  0  0  0  0  0  0  0  0  0
    3.3400   -3.5349   -4.7735 C   0  0  0  0  0  0  0  0  0  0  0  0
    3.2718   -3.1728   -6.0190 N   0  0  0  0  0  0  0  0  0  0  0  0
    2.2327   -2.4007   -6.3749 C   0  0  0  0  0  0  0  0  0  0  0  0
    1.2458   -2.0236   -5.4986 N   0  0  0  0  0  0  0  0  0  0  0  0
    0.2837   -1.2178   -6.1190 N   0  0  0  0  0  0  0  0  0  0  0  0
    0.7246   -1.1278   -7.4111 C   0  0  0  0  0  0  0  0  0  0  0  0
    1.9316   -1.8361   -7.5828 C   0  0  0  0  0  0  0  0  0  0  0  0
    2.7803   -2.0072   -8.7287 C   0  0  0  0  0  0  0  0  0  0  0  0
    2.9836   -3.3040   -9.1962 C   0  0  0  0  0  0  0  0  0  0  0  0
    3.8016   -3.5123  -10.2883 C   0  0  0  0  0  0  0  0  0  0  0  0
    4.3857   -2.4127  -10.8997 C   0  0  0  0  0  0  0  0  0  0  0  0
    4.1929   -1.1410  -10.4683 N   0  0  0  0  0  0  0  0  0  0  0  0
    3.4067   -0.9408   -9.3787 C   0  0  0  0  0  0  0  0  0  0  0  0
    3.2368    0.4902   -8.9338 C   0  0  0  0  0  0  0  0  0  0  0  0
    5.2072   -2.4969  -11.9909 O   0  0  0  0  0  0  0  0  0  0  0  0
    5.4664   -3.8087  -12.4746 C   0  0  0  0  0  0  0  0  0  0  0  0
    0.1039   -0.3706   -8.5730 C   0  0  0  0  0  0  0  0  0  0  0  0
    4.5023   -4.4176   -4.4084 C   0  0  0  0  0  0  0  0  0  0  0  0
    0.5655   -0.4968    0.8247 H   0  0  0  0  0  0  0  0  0  0  0  0
    0.5986    1.1411    0.1933 H   0  0  0  0  0  0  0  0  0  0  0  0
    2.0372    0.1135    0.0466 H   0  0  0  0  0  0  0  0  0  0  0  0
   -0.6490   -0.3363   -1.3673 H   0  0  0  0  0  0  0  0  0  0  0  0
    0.7884    0.3390   -2.1242 H   0  0  0  0  0  0  0  0  0  0  0  0
    2.0315   -1.7824   -1.6725 H   0  0  0  0  0  0  0  0  0  0  0  0
   -0.6624   -2.7978   -0.6195 H   0  0  0  0  0  0  0  0  0  0  0  0
    0.7719   -3.8111   -0.9000 H   0  0  0  0  0  0  0  0  0  0  0  0
    0.8099   -2.5552    0.3188 H   0  0  0  0  0  0  0  0  0  0  0  0
   -0.4876   -1.9985   -3.3164 H   0  0  0  0  0  0  0  0  0  0  0  0
    2.5193   -4.1523   -8.6978 H   0  0  0  0  0  0  0  0  0  0  0  0
    3.9567   -4.5296  -10.6190 H   0  0  0  0  0  0  0  0  0  0  0  0
    4.2030    0.9394   -8.6953 H   0  0  0  0  0  0  0  0  0  0  0  0
    2.7465    1.0684   -9.7242 H   0  0  0  0  0  0  0  0  0  0  0  0
    2.6255    0.6009   -8.0339 H   0  0  0  0  0  0  0  0  0  0  0  0
    5.9697   -4.4194  -11.7157 H   0  0  0  0  0  0  0  0  0  0  0  0
    4.5444   -4.2927  -12.8175 H   0  0  0  0  0  0  0  0  0  0  0  0
    6.1372   -3.7302  -13.3335 H   0  0  0  0  0  0  0  0  0  0  0  0
   -0.8873   -0.7217   -8.8633 H   0  0  0  0  0  0  0  0  0  0  0  0
    0.1126    0.7159   -8.4384 H   0  0  0  0  0  0  0  0  0  0  0  0
    0.7052   -0.5281   -9.4873 H   0  0  0  0  0  0  0  0  0  0  0  0
    4.4936   -5.3054   -5.0527 H   0  0  0  0  0  0  0  0  0  0  0  0
    5.4351   -3.8801   -4.6128 H   0  0  0  0  0  0  0  0  0  0  0  0
    4.4796   -4.7288   -3.3642 H   0  0  0  0  0  0  0  0  0  0  0  0
  1  2  1  0  0  0  0
  1 26  1  0  0  0  0
  1 27  1  0  0  0  0
  1 28  1  0  0  0  0
  2  3  1  0  0  0  0
  2 29  1  0  0  0  0
  2 30  1  0  0  0  0
  3  4  1  0  0  0  0
  3  5  1  0  0  0  0
  3 31  1  1  0  0  0
  4 32  1  0  0  0  0
  4 33  1  0  0  0  0
  4 34  1  0  0  0  0
  5  6  1  0  0  0  0
  5 35  1  0  0  0  0
  6  7  2  0  0  0  0
  6 11  1  0  0  0  0
  7  8  1  0  0  0  0
  8  9  2  0  0  0  0
  8 25  1  0  0  0  0
  9 10  1  0  0  0  0
 10 11  1  0  0  0  0
 10 14  2  0  0  0  0
 11 12  1  0  0  0  0
 12 13  2  0  0  0  0
 13 14  1  0  0  0  0
 13 24  1  0  0  0  0
 14 15  1  0  0  0  0
 15 16  2  0  0  0  0
 15 20  1  0  0  0  0
 16 17  1  0  0  0  0
 16 36  1  0  0  0  0
 17 18  2  0  0  0  0
 17 37  1  0  0  0  0
 18 19  1  0  0  0  0
 18 22  1  0  0  0  0
 19 20  2  0  0  0  0
 20 21  1  0  0  0  0
 21 38  1  0  0  0  0
 21 39  1  0  0  0  0
 21 40  1  0  0  0  0
 22 23  1  0  0  0  0
 23 41  1  0  0  0  0
 23 42  1  0  0  0  0
 23 43  1  0  0  0  0
 24 44  1  0  0  0  0
 24 45  1  0  0  0  0
 24 46  1  0  0  0  0
 25 47  1  0  0  0  0
 25 48  1  0  0  0  0
 25 49  1  0  0  0  0
M  END
>  <DRUGBANK_ID>
DB12572

>  <COMMON_NAME>
Pexacerfont

>  <CAS_NUMBER>
459856-18-9

>  <UNII>
LF1VBG4ZUK

>  <SYNONYMS>
Pexacerfont

$$$$
