
 OpenBabel10282417123D

 18 18  0  0  0  0  0  0  0  0999 V2000
    0.9193    0.0482   -0.0341 O   0  0  0  0  0  0  0  0  0  0  0  0
    0.4193    0.8516    1.1297 B   0  0  0  0  0  0  0  0  0  0  0  0
    1.3941    1.4994    2.0679 O   0  0  0  0  0  0  0  0  0  0  0  0
   -1.1538    1.0177    1.3703 C   0  0  0  0  0  0  0  0  0  0  0  0
   -1.9439   -0.0449    1.2711 C   0  0  0  0  0  0  0  0  0  0  0  0
   -3.2699    0.0343    1.6222 C   0  0  0  0  0  0  0  0  0  0  0  0
   -3.8290    1.2255    1.9937 C   0  0  0  0  0  0  0  0  0  0  0  0
   -2.9986    2.2401    2.1520 C   0  0  0  0  0  0  0  0  0  0  0  0
   -1.6655    2.2674    1.6785 C   0  0  0  0  0  0  0  0  0  0  0  0
   -3.4937    3.4234    2.8700 N   0  3  0  0  0  0  0  0  0  0  0  0
   -2.6716    4.5027    3.0606 O   0  5  0  0  0  0  0  0  0  0  0  0
   -4.6424    3.4445    3.2983 O   0  0  0  0  0  0  0  0  0  0  0  0
    1.9193    0.0482   -0.0341 H   0  0  0  0  0  0  0  0  0  0  0  0
    2.3273    1.2952    1.7722 H   0  0  0  0  0  0  0  0  0  0  0  0
   -1.5443   -0.9712    0.9146 H   0  0  0  0  0  0  0  0  0  0  0  0
   -3.8736   -0.8489    1.6047 H   0  0  0  0  0  0  0  0  0  0  0  0
   -4.8827    1.3299    2.1479 H   0  0  0  0  0  0  0  0  0  0  0  0
   -1.1038    3.1714    1.5685 H   0  0  0  0  0  0  0  0  0  0  0  0
  1  2  1  0  0  0  0
  1 13  1  0  0  0  0
  2  3  1  0  0  0  0
  2  4  1  0  0  0  0
  3 14  1  0  0  0  0
  4  5  2  0  0  0  0
  4  9  1  0  0  0  0
  5  6  1  0  0  0  0
  5 15  1  0  0  0  0
  6  7  2  0  0  0  0
  6 16  1  0  0  0  0
  7  8  1  0  0  0  0
  7 17  1  0  0  0  0
  8  9  2  0  0  0  0
  8 10  1  0  0  0  0
  9 18  1  0  0  0  0
 10 11  1  0  0  0  0
 10 12  2  0  0  0  0
M  CHG  2  10   1  11  -1
M  END
>  <DRUGBANK_ID>
DB02797

>  <SECONDARY_ACCESSION_NUMBERS>
EXPT02380

>  <COMMON_NAME>
3-Nitrophenylboronic Acid

>  <CAS_NUMBER>
13331-27-6

>  <UNII>
JLC765W4PN

$$$$
