
 OpenBabel10282417243D

  3  0  0  0  0  0  0  0  0  0999 V2000
    1.0389    0.0608    0.0692 O   0  6  0  0  0  0  0  0  0  0  0  0
    1.0158   -0.0514    0.0843 O   0  6  0  0  0  0  0  0  0  0  0  0
    1.0868   -0.0098   -0.0488 Hf  0  0  0  0  0  0  0  0  0  0  0  0
M  CHG  3   1  -2   2  -2   3   4
M  END
>  <DRUGBANK_ID>
DB17508

>  <COMMON_NAME>
Hafnium oxide

>  <CAS_NUMBER>
12055-23-1

>  <UNII>
3C4Z4KG52T

>  <SYNONYMS>
Hafnium oxide-containing nanoparticles nbtxr3

$$$$
