
 OpenBabel10282417123D

 33 32  0  0  1  0  0  0  0  0999 V2000
    0.9036   -0.0985    0.0286 N   0  0  0  0  0  0  0  0  0  0  0  0
    0.3556    0.9456    0.9187 C   0  0  1  0  0  0  0  0  0  0  0  0
    0.8776    2.3238    0.4320 C   0  0  0  0  0  0  0  0  0  0  0  0
    0.4766    2.7485   -0.9989 C   0  0  0  0  0  0  0  0  0  0  0  0
   -1.0306    2.9292   -1.1902 C   0  0  0  0  0  0  0  0  0  0  0  0
   -1.6553    3.8314   -0.1263 C   0  0  0  0  0  0  0  0  0  0  0  0
   -1.1600    5.1834   -0.3695 N   0  0  0  0  0  0  0  0  0  0  0  0
   -1.6161    6.1897    0.6133 C   0  0  0  0  0  0  0  0  0  0  0  0
   -1.1177    5.8762    2.0397 C   0  0  0  0  0  0  0  0  0  0  0  0
   -0.2989    6.7786    2.6251 O   0  0  0  0  0  0  0  0  0  0  0  0
   -1.4330    4.8627    2.6552 O   0  0  0  0  0  0  0  0  0  0  0  0
   -1.0913    7.5329    0.1164 C   0  0  0  0  0  0  0  0  0  0  0  0
   -2.0169    8.4525   -0.2195 O   0  0  0  0  0  0  0  0  0  0  0  0
    0.1079    7.7985    0.1033 O   0  0  0  0  0  0  0  0  0  0  0  0
   -1.1910    0.7262    1.0696 C   0  0  0  0  0  0  0  0  0  0  0  0
   -1.6723    0.7784    2.3279 O   0  0  0  0  0  0  0  0  0  0  0  0
   -1.9690    0.4687    0.1491 O   0  0  0  0  0  0  0  0  0  0  0  0
    0.5243    0.0555   -0.9103 H   0  0  0  0  0  0  0  0  0  0  0  0
    1.9116    0.0202   -0.0591 H   0  0  0  0  0  0  0  0  0  0  0  0
    0.7881    0.7667    1.9093 H   0  0  0  0  0  0  0  0  0  0  0  0
    0.6195    3.1052    1.1569 H   0  0  0  0  0  0  0  0  0  0  0  0
    1.9792    2.3096    0.4558 H   0  0  0  0  0  0  0  0  0  0  0  0
    0.9915    3.6826   -1.2600 H   0  0  0  0  0  0  0  0  0  0  0  0
    0.8421    2.0167   -1.7270 H   0  0  0  0  0  0  0  0  0  0  0  0
   -1.2694    3.2987   -2.1922 H   0  0  0  0  0  0  0  0  0  0  0  0
   -1.4863    1.9491   -1.1932 H   0  0  0  0  0  0  0  0  0  0  0  0
   -2.7474    3.7860   -0.1625 H   0  0  0  0  0  0  0  0  0  0  0  0
   -1.3752    3.4687    0.8632 H   0  0  0  0  0  0  0  0  0  0  0  0
   -0.1374    5.1869   -0.3811 H   0  0  0  0  0  0  0  0  0  0  0  0
   -2.7101    6.2177    0.6265 H   0  0  0  0  0  0  0  0  0  0  0  0
    0.0328    7.5181    2.0687 H   0  0  0  0  0  0  0  0  0  0  0  0
   -2.9473    8.1581   -0.1862 H   0  0  0  0  0  0  0  0  0  0  0  0
   -1.0023    0.6996    3.0285 H   0  0  0  0  0  0  0  0  0  0  0  0
  1 18  1  0  0  0  0
  1 19  1  0  0  0  0
  2  1  1  0  0  0  0
  2  3  1  0  0  0  0
  2 15  1  0  0  0  0
  2 20  1  1  0  0  0
  3  4  1  0  0  0  0
  3 21  1  0  0  0  0
  3 22  1  0  0  0  0
  4  5  1  0  0  0  0
  4 23  1  0  0  0  0
  4 24  1  0  0  0  0
  5  6  1  0  0  0  0
  5 25  1  0  0  0  0
  5 26  1  0  0  0  0
  6  7  1  0  0  0  0
  6 27  1  0  0  0  0
  6 28  1  0  0  0  0
  7  8  1  0  0  0  0
  7 29  1  0  0  0  0
  8  9  1  0  0  0  0
  8 12  1  0  0  0  0
  8 30  1  0  0  0  0
  9 10  1  0  0  0  0
  9 11  2  0  0  0  0
 10 31  1  0  0  0  0
 12 13  1  0  0  0  0
 12 14  2  0  0  0  0
 13 32  1  0  0  0  0
 15 16  1  0  0  0  0
 15 17  2  0  0  0  0
 16 33  1  0  0  0  0
M  END
>  <DRUGBANK_ID>
DB01815

>  <SECONDARY_ACCESSION_NUMBERS>
EXPT02041

>  <COMMON_NAME>
Nz-(Dicarboxymethyl)Lysine

$$$$
