OES
 OpenBabel10282417123D

 35 34  0  0  0  0  0  0  0  0999 V2000
  -10.2235   -0.8066   -7.2859 C   0  0  0  0  0  0  0  0  0  0  0  0
   -9.2512   -1.4753   -6.3271 C   0  0  0  0  0  0  0  0  0  0  0  0
   -7.9439   -1.8406   -7.0347 C   0  0  0  0  0  0  0  0  0  0  0  0
   -7.2227   -0.6124   -7.6041 C   0  0  0  0  0  0  0  0  0  0  0  0
   -6.8829    0.4078   -6.5156 C   0  0  0  0  0  0  0  0  0  0  0  0
   -5.9391   -0.1802   -5.4653 C   0  0  0  0  0  0  0  0  0  0  0  0
   -4.5740   -0.5815   -6.0472 C   0  0  0  0  0  0  0  0  0  0  0  0
   -3.8196    0.5734   -6.6982 C   0  0  0  0  0  0  0  0  0  0  0  0
   -3.4357    1.9150   -5.5411 S   0  0  2  0  0  0  0  0  0  0  0  0
   -1.6252    1.7756   -5.5344 C   0  0  0  0  0  0  0  0  0  0  0  0
   -1.0752    2.9381   -4.7113 C   0  0  0  0  0  0  0  0  0  0  0  0
   -3.8515    1.5348   -4.1412 O   0  0  0  0  0  0  0  0  0  0  0  0
   -1.4534    2.8708   -3.3378 O   0  0  0  0  0  0  0  0  0  0  0  0
   -9.8184    0.1238   -7.6963 H   0  0  0  0  0  0  0  0  0  0  0  0
  -11.1548   -0.5518   -6.7769 H   0  0  0  0  0  0  0  0  0  0  0  0
  -10.4458   -1.4766   -8.1219 H   0  0  0  0  0  0  0  0  0  0  0  0
   -9.0645   -0.8159   -5.4714 H   0  0  0  0  0  0  0  0  0  0  0  0
   -9.7040   -2.3800   -5.9094 H   0  0  0  0  0  0  0  0  0  0  0  0
   -7.2924   -2.3771   -6.3346 H   0  0  0  0  0  0  0  0  0  0  0  0
   -8.1447   -2.5494   -7.8451 H   0  0  0  0  0  0  0  0  0  0  0  0
   -6.3179   -0.9330   -8.1309 H   0  0  0  0  0  0  0  0  0  0  0  0
   -7.8306   -0.1292   -8.3753 H   0  0  0  0  0  0  0  0  0  0  0  0
   -6.4546    1.3060   -6.9716 H   0  0  0  0  0  0  0  0  0  0  0  0
   -7.7903    0.7687   -6.0191 H   0  0  0  0  0  0  0  0  0  0  0  0
   -5.8399    0.5446   -4.6557 H   0  0  0  0  0  0  0  0  0  0  0  0
   -6.3871   -1.0535   -4.9790 H   0  0  0  0  0  0  0  0  0  0  0  0
   -3.9625   -1.0402   -5.2630 H   0  0  0  0  0  0  0  0  0  0  0  0
   -4.7175   -1.3683   -6.7986 H   0  0  0  0  0  0  0  0  0  0  0  0
   -2.9106    0.2130   -7.1882 H   0  0  0  0  0  0  0  0  0  0  0  0
   -4.4214    1.0292   -7.4922 H   0  0  0  0  0  0  0  0  0  0  0  0
   -1.3522    0.8107   -5.0945 H   0  0  0  0  0  0  0  0  0  0  0  0
   -1.2656    1.8296   -6.5657 H   0  0  0  0  0  0  0  0  0  0  0  0
    0.0169    2.9291   -4.7407 H   0  0  0  0  0  0  0  0  0  0  0  0
   -1.4180    3.8981   -5.1124 H   0  0  0  0  0  0  0  0  0  0  0  0
   -2.4207    2.7071   -3.2939 H   0  0  0  0  0  0  0  0  0  0  0  0
  1  2  1  0  0  0  0
  1 14  1  0  0  0  0
  1 15  1  0  0  0  0
  1 16  1  0  0  0  0
  2  3  1  0  0  0  0
  2 17  1  0  0  0  0
  2 18  1  0  0  0  0
  3  4  1  0  0  0  0
  3 19  1  0  0  0  0
  3 20  1  0  0  0  0
  4  5  1  0  0  0  0
  4 21  1  0  0  0  0
  4 22  1  0  0  0  0
  5  6  1  0  0  0  0
  5 23  1  0  0  0  0
  5 24  1  0  0  0  0
  6  7  1  0  0  0  0
  6 25  1  0  0  0  0
  6 26  1  0  0  0  0
  7  8  1  0  0  0  0
  7 27  1  0  0  0  0
  7 28  1  0  0  0  0
  8 29  1  0  0  0  0
  8 30  1  0  0  0  0
  9 12  2  1  0  0  0
  9 10  1  0  0  0  0
  9  8  1  0  0  0  0
 10 11  1  0  0  0  0
 10 31  1  0  0  0  0
 10 32  1  0  0  0  0
 11 13  1  0  0  0  0
 11 33  1  0  0  0  0
 11 34  1  0  0  0  0
 13 35  1  0  0  0  0
M  END
>  <DRUGBANK_ID>
DB02415

>  <SECONDARY_ACCESSION_NUMBERS>
EXPT02420

>  <COMMON_NAME>
N-Octyl-2-Hydroxyethyl Sulfoxide

$$$$
