
 OpenBabel10282417163D

 52 56  0  0  0  0  0  0  0  0999 V2000
    1.2240   -0.1100   -0.1273 O   0  0  0  0  0  0  0  0  0  0  0  0
   -2.9233    1.9672   -0.4353 N   0  0  0  0  0  0  0  0  0  0  0  0
    2.0506    2.3170    1.5753 N   0  0  0  0  0  0  0  0  0  0  0  0
    4.7070    1.0587   -0.3753 N   0  0  0  0  0  0  0  0  0  0  0  0
    6.3372   -7.4840   -0.7420 N   0  0  0  0  0  0  0  0  0  0  0  0
   -1.6449    3.0645    1.2684 C   0  0  3  0  0  0  0  0  0  0  0  0
   -0.1244    3.2181    1.2064 C   0  0  0  0  0  0  0  0  0  0  0  0
    0.6740    1.9180    1.2526 C   0  0  1  0  0  0  0  0  0  0  0  0
   -2.2715    4.0583    0.3511 C   0  0  0  0  0  0  0  0  0  0  0  0
   -2.2498    1.8018    0.6633 C   0  0  0  0  0  0  0  0  0  0  0  0
    0.5622    1.1496   -0.1108 C   0  0  0  0  0  0  0  0  0  0  0  0
   -2.9537    3.3545   -0.6449 C   0  0  0  0  0  0  0  0  0  0  0  0
   -2.1924    5.4359    0.3653 C   0  0  0  0  0  0  0  0  0  0  0  0
   -3.5851    4.0281   -1.6676 C   0  0  0  0  0  0  0  0  0  0  0  0
   -2.8477    6.1236   -0.6501 C   0  0  0  0  0  0  0  0  0  0  0  0
   -3.5396    5.4266   -1.6580 C   0  0  0  0  0  0  0  0  0  0  0  0
    2.5716   -0.0767   -0.2795 C   0  0  0  0  0  0  0  0  0  0  0  0
    4.6036   -1.3328   -0.0528 C   0  0  0  0  0  0  0  0  0  0  0  0
    3.2070   -1.2892   -0.1013 C   0  0  0  0  0  0  0  0  0  0  0  0
    5.2965   -2.6061   -0.0131 C   0  0  0  0  0  0  0  0  0  0  0  0
    3.3645    1.0418   -0.5042 C   0  0  0  0  0  0  0  0  0  0  0  0
    5.5088   -4.8275   -0.9546 C   0  0  0  0  0  0  0  0  0  0  0  0
    5.0388   -3.5278   -1.0315 C   0  0  0  0  0  0  0  0  0  0  0  0
    6.3836   -5.1946    0.0919 C   0  0  0  0  0  0  0  0  0  0  0  0
    6.1887   -2.9507    1.0088 C   0  0  0  0  0  0  0  0  0  0  0  0
    5.2904   -0.1277   -0.1319 C   0  0  0  0  0  0  0  0  0  0  0  0
    6.7713   -4.2192    1.0295 C   0  0  0  0  0  0  0  0  0  0  0  0
    5.0768   -5.7739   -1.8727 C   0  0  0  0  0  0  0  0  0  0  0  0
    6.7662   -6.5357    0.1269 C   0  0  0  0  0  0  0  0  0  0  0  0
    5.4959   -7.0772   -1.7192 C   0  0  0  0  0  0  0  0  0  0  0  0
    2.1266    2.9341    2.3787 H   0  0  0  0  0  0  0  0  0  0  0  0
    2.6126    1.4916    1.7928 H   0  0  0  0  0  0  0  0  0  0  0  0
   -2.0111    3.1480    2.2950 H   0  0  0  0  0  0  0  0  0  0  0  0
    0.1576    3.8677    2.0501 H   0  0  0  0  0  0  0  0  0  0  0  0
    0.1942    3.7852    0.3161 H   0  0  0  0  0  0  0  0  0  0  0  0
    0.3257    1.2829    2.0734 H   0  0  0  0  0  0  0  0  0  0  0  0
   -2.0781    0.8202    1.1335 H   0  0  0  0  0  0  0  0  0  0  0  0
    0.8201    1.7657   -0.9805 H   0  0  0  0  0  0  0  0  0  0  0  0
   -0.4644    0.8563   -0.3049 H   0  0  0  0  0  0  0  0  0  0  0  0
   -1.6307    5.9566    1.1332 H   0  0  0  0  0  0  0  0  0  0  0  0
   -4.1099    3.4851   -2.4453 H   0  0  0  0  0  0  0  0  0  0  0  0
   -2.8202    7.2097   -0.6623 H   0  0  0  0  0  0  0  0  0  0  0  0
   -4.0512    5.9851   -2.4370 H   0  0  0  0  0  0  0  0  0  0  0  0
    2.6097   -2.1943    0.0030 H   0  0  0  0  0  0  0  0  0  0  0  0
    2.9413    2.0210   -0.7036 H   0  0  0  0  0  0  0  0  0  0  0  0
    4.4132   -3.2269   -1.8753 H   0  0  0  0  0  0  0  0  0  0  0  0
    6.4072   -2.2407    1.8032 H   0  0  0  0  0  0  0  0  0  0  0  0
    6.3704   -0.0890   -0.0448 H   0  0  0  0  0  0  0  0  0  0  0  0
    7.4942   -4.4544    1.8096 H   0  0  0  0  0  0  0  0  0  0  0  0
    4.3861   -5.5044   -2.6683 H   0  0  0  0  0  0  0  0  0  0  0  0
    7.4264   -6.9132    0.9062 H   0  0  0  0  0  0  0  0  0  0  0  0
    5.1445   -7.8530   -2.3918 H   0  0  0  0  0  0  0  0  0  0  0  0
  1 11  1  0  0  0  0
  1 17  1  0  0  0  0
  2 10  2  0  0  0  0
  2 12  1  0  0  0  0
  3 31  1  0  0  0  0
  3 32  1  0  0  0  0
  4 21  1  0  0  0  0
  4 26  2  0  0  0  0
  5 29  2  0  0  0  0
  5 30  1  0  0  0  0
  6  7  1  0  0  0  0
  6  9  1  0  0  0  0
  6 10  1  0  0  0  0
  6 33  1  0  0  0  0
  7  8  1  0  0  0  0
  7 34  1  0  0  0  0
  7 35  1  0  0  0  0
  8  3  1  0  0  0  0
  8 11  1  0  0  0  0
  8 36  1  1  0  0  0
  9 12  1  0  0  0  0
  9 13  2  0  0  0  0
 10 37  1  0  0  0  0
 11 38  1  0  0  0  0
 11 39  1  0  0  0  0
 12 14  2  0  0  0  0
 13 15  1  0  0  0  0
 13 40  1  0  0  0  0
 14 16  1  0  0  0  0
 14 41  1  0  0  0  0
 15 16  2  0  0  0  0
 15 42  1  0  0  0  0
 16 43  1  0  0  0  0
 17 19  1  0  0  0  0
 17 21  2  0  0  0  0
 18 19  2  0  0  0  0
 18 20  1  0  0  0  0
 18 26  1  0  0  0  0
 19 44  1  0  0  0  0
 20 23  2  0  0  0  0
 20 25  1  0  0  0  0
 21 45  1  0  0  0  0
 22 23  1  0  0  0  0
 22 24  2  0  0  0  0
 22 28  1  0  0  0  0
 23 46  1  0  0  0  0
 24 27  1  0  0  0  0
 24 29  1  0  0  0  0
 25 27  2  0  0  0  0
 25 47  1  0  0  0  0
 26 48  1  0  0  0  0
 27 49  1  0  0  0  0
 28 30  2  0  0  0  0
 28 50  1  0  0  0  0
 29 51  1  0  0  0  0
 30 52  1  0  0  0  0
M  END
>  <DRUGBANK_ID>
DB06959

>  <COMMON_NAME>
(2S)-1-(3H-Indol-3-yl)-3-{[5-(6-isoquinolinyl)-3-pyridinyl]oxy}-2-propanamine

$$$$
