
 OpenBabel10282417123D

 34 34  0  0  1  0  0  0  0  0999 V2000
   -3.2785    0.5659    3.5569 P   0  0  0  0  0  0  0  0  0  0  0  0
    2.3708   -3.4393    1.1957 P   0  0  0  0  0  0  0  0  0  0  0  0
   -2.1204   -0.1821    4.3611 O   0  0  0  0  0  0  0  0  0  0  0  0
    1.4778   -2.0802    1.7859 O   0  0  0  0  0  0  0  0  0  0  0  0
   -4.6627    0.2468    4.2767 O   0  0  0  0  0  0  0  0  0  0  0  0
   -3.4904   -0.2557    2.1975 O   0  0  0  0  0  0  0  0  0  0  0  0
    2.9987   -2.3433    0.1507 O   0  0  0  0  0  0  0  0  0  0  0  0
    3.3725   -3.1255    2.4486 O   0  0  0  0  0  0  0  0  0  0  0  0
    0.0624   -2.8931   -0.5205 O   0  0  0  0  0  0  0  0  0  0  0  0
   -0.4656    1.7067    1.2294 O   0  0  0  0  0  0  0  0  0  0  0  0
   -1.0641   -0.2102   -0.9940 O   0  0  0  0  0  0  0  0  0  0  0  0
   -0.4712   -1.6536    2.8495 O   0  0  0  0  0  0  0  0  0  0  0  0
   -3.0902    2.0163    3.3843 O   0  0  0  0  0  0  0  0  0  0  0  0
    3.1700   -4.6557    0.6675 O   0  0  0  0  0  0  0  0  0  0  0  0
   -0.7782    0.2284    4.1021 C   0  0  0  0  0  0  0  0  0  0  0  0
    0.1101   -2.3942    1.8212 C   0  0  1  0  0  0  0  0  0  0  0  0
   -0.2277   -0.2441    2.7480 C   0  0  2  0  0  0  0  0  0  0  0  0
   -0.5232   -2.0557    0.4852 C   0  0  1  0  0  0  0  0  0  0  0  0
   -0.7325    0.3176    1.3914 C   0  0  2  0  0  0  0  0  0  0  0  0
   -0.3070   -0.5561    0.1817 C   0  0  2  0  0  0  0  0  0  0  0  0
   -5.1969    1.0597    4.2332 H   0  0  0  0  0  0  0  0  0  0  0  0
   -3.7098    0.3399    1.4581 H   0  0  0  0  0  0  0  0  0  0  0  0
    2.9899   -2.6766   -0.7623 H   0  0  0  0  0  0  0  0  0  0  0  0
    2.8629   -2.8772    3.2399 H   0  0  0  0  0  0  0  0  0  0  0  0
    0.8353   -2.4113   -0.8652 H   0  0  0  0  0  0  0  0  0  0  0  0
    0.4398    1.8424    0.9074 H   0  0  0  0  0  0  0  0  0  0  0  0
   -1.9751   -0.5407   -0.8881 H   0  0  0  0  0  0  0  0  0  0  0  0
   -0.6410    1.2925    4.2985 H   0  0  0  0  0  0  0  0  0  0  0  0
   -0.1862   -0.3061    4.8639 H   0  0  0  0  0  0  0  0  0  0  0  0
   -0.0270   -3.4541    2.0611 H   0  0  0  0  0  0  0  0  0  0  0  0
    0.8497   -0.0244    2.7853 H   0  0  0  0  0  0  0  0  0  0  0  0
   -1.5964   -2.2831    0.5173 H   0  0  0  0  0  0  0  0  0  0  0  0
   -1.7934    0.2806    1.3164 H   0  0  0  0  0  0  0  0  0  0  0  0
    0.7337   -0.3506   -0.0884 H   0  0  0  0  0  0  0  0  0  0  0  0
  1  3  1  0  0  0  0
  1  5  1  0  0  0  0
  1  6  1  0  0  0  0
  1 13  2  0  0  0  0
  2  4  1  0  0  0  0
  2  7  1  0  0  0  0
  2  8  1  0  0  0  0
  2 14  2  0  0  0  0
  3 15  1  0  0  0  0
  5 21  1  0  0  0  0
  6 22  1  0  0  0  0
  7 23  1  0  0  0  0
  8 24  1  0  0  0  0
  9 25  1  0  0  0  0
 10 26  1  0  0  0  0
 11 27  1  0  0  0  0
 12 16  1  0  0  0  0
 12 17  1  0  0  0  0
 15 28  1  0  0  0  0
 15 29  1  0  0  0  0
 16 18  1  0  0  0  0
 16 30  1  1  0  0  0
 16  4  1  0  0  0  0
 17 19  1  0  0  0  0
 17 31  1  1  0  0  0
 17 15  1  0  0  0  0
 18  9  1  0  0  0  0
 18 20  1  0  0  0  0
 18 32  1  1  0  0  0
 19 10  1  0  0  0  0
 19 20  1  0  0  0  0
 19 33  1  1  0  0  0
 20 11  1  0  0  0  0
 20 34  1  6  0  0  0
M  END
>  <DRUGBANK_ID>
DB02835

>  <SECONDARY_ACCESSION_NUMBERS>
EXPT01519

>  <COMMON_NAME>
Alpha-D-Glucose 1,6-Bisphosphate

>  <CAS_NUMBER>
10139-18-1

>  <UNII>
DRX17R6AM2

$$$$
