
 OpenBabel10282417133D

 14 13  0  0  1  0  0  0  0  0999 V2000
    0.9514    0.0700   -0.0220 N   0  0  0  0  0  0  0  0  0  0  0  0
    0.4050   -1.1983   -0.5281 C   0  0  1  0  0  0  0  0  0  0  0  0
    0.9026   -2.3459    0.3184 C   0  0  0  0  0  0  0  0  0  0  0  0
    0.1336   -3.2355    0.9657 C   0  0  0  0  0  0  0  0  0  0  0  0
   -1.1513   -1.0919   -0.5365 C   0  0  0  0  0  0  0  0  0  0  0  0
   -1.7326   -1.2980   -1.7421 O   0  0  0  0  0  0  0  0  0  0  0  0
   -1.8287   -0.8738    0.4664 O   0  0  0  0  0  0  0  0  0  0  0  0
    0.5933    0.1985    0.9288 H   0  0  0  0  0  0  0  0  0  0  0  0
    1.9640    0.0222    0.0539 H   0  0  0  0  0  0  0  0  0  0  0  0
    0.7677   -1.3324   -1.5537 H   0  0  0  0  0  0  0  0  0  0  0  0
    1.9828   -2.4570    0.4055 H   0  0  0  0  0  0  0  0  0  0  0  0
    0.5566   -4.0276    1.5734 H   0  0  0  0  0  0  0  0  0  0  0  0
   -0.9528   -3.1909    0.9354 H   0  0  0  0  0  0  0  0  0  0  0  0
   -1.1099   -1.4187   -2.4817 H   0  0  0  0  0  0  0  0  0  0  0  0
  1  8  1  0  0  0  0
  1  9  1  0  0  0  0
  2  1  1  0  0  0  0
  2  3  1  0  0  0  0
  2  5  1  0  0  0  0
  2 10  1  6  0  0  0
  3  4  2  0  0  0  0
  3 11  1  0  0  0  0
  4 12  1  0  0  0  0
  4 13  1  0  0  0  0
  5  6  1  0  0  0  0
  5  7  2  0  0  0  0
  6 14  1  0  0  0  0
M  END
>  <DRUGBANK_ID>
DB03214

>  <SECONDARY_ACCESSION_NUMBERS>
EXPT02068

>  <COMMON_NAME>
Vinylglycine

>  <CAS_NUMBER>
70982-53-5

>  <UNII>
LGD04MMJ5E

>  <SYNONYMS>
(2S)-2-amino-3-butenoic acid; L-vinylglycine

$$$$
