
 OpenBabel10282417133D

 65 68  0  0  1  0  0  0  0  0999 V2000
    2.3710   11.2133    3.4876 C   0  0  0  0  0  0  0  0  0  0  0  0
    3.6086   10.4276    3.9069 C   0  0  0  0  0  0  0  0  0  0  0  0
    4.2303   10.7112    4.9259 O   0  0  0  0  0  0  0  0  0  0  0  0
    3.8821    9.3156    3.1279 N   0  0  0  0  0  0  0  0  0  0  0  0
    3.8120    9.3854    1.6809 C   0  0  0  0  0  0  0  0  0  0  0  0
    3.0461    8.1843    1.1500 C   0  0  0  0  0  0  0  0  0  0  0  0
    3.6768    6.9320    1.5909 N   0  0  0  0  0  0  0  0  0  0  0  0
    3.8493    6.8395    3.0570 C   0  0  0  0  0  0  0  0  0  0  0  0
    4.5658    8.0991    3.6216 C   0  0  0  0  0  0  0  0  0  0  0  0
    3.9859    5.8371    0.7888 C   0  0  0  0  0  0  0  0  0  0  0  0
    4.3268    4.7541    1.2661 O   0  0  0  0  0  0  0  0  0  0  0  0
    3.8500    5.9933   -0.7252 C   0  0  2  0  0  0  0  0  0  0  0  0
    2.3790    5.8731   -1.1557 C   0  0  0  0  0  0  0  0  0  0  0  0
    2.0247    6.8464   -2.2794 C   0  0  0  0  0  0  0  0  0  0  0  0
    2.7763    6.8661   -3.4629 C   0  0  0  0  0  0  0  0  0  0  0  0
    2.3880    7.6483   -4.5465 C   0  0  0  0  0  0  0  0  0  0  0  0
    1.2158    8.3934   -4.4756 C   0  0  0  0  0  0  0  0  0  0  0  0
    0.4426    8.3835   -3.3080 C   0  0  0  0  0  0  0  0  0  0  0  0
    0.8985    7.6798   -2.1829 C   0  0  0  0  0  0  0  0  0  0  0  0
   -0.9282    8.9898   -3.3479 C   0  0  0  0  0  0  0  0  0  0  0  0
   -1.7364    8.9878   -2.2518 N   0  0  0  0  0  0  0  0  0  0  0  0
   -1.3571    9.4795   -4.4660 N   0  0  0  0  0  0  0  0  0  0  0  0
    4.8140    5.1810   -1.5409 N   0  0  0  0  0  0  0  0  0  0  0  0
    6.5331    5.3574   -1.2947 S   0  0  0  0  0  0  0  0  0  0  0  0
    6.8008    5.2360    0.1029 O   0  0  0  0  0  0  0  0  0  0  0  0
    7.1192    4.4224   -2.2573 O   0  0  0  0  0  0  0  0  0  0  0  0
    7.0569    7.0346   -1.7635 C   0  0  0  0  0  0  0  0  0  0  0  0
    6.2165    8.0686   -1.4151 C   0  0  0  0  0  0  0  0  0  0  0  0
    6.4584    9.3737   -1.7786 C   0  0  0  0  0  0  0  0  0  0  0  0
    7.6354    9.7226   -2.4084 C   0  0  0  0  0  0  0  0  0  0  0  0
    7.7265   10.9881   -2.9903 C   0  0  0  0  0  0  0  0  0  0  0  0
    8.8462   11.2985   -3.7274 C   0  0  0  0  0  0  0  0  0  0  0  0
    9.8998   11.1388   -2.9052 C   0  0  0  0  0  0  0  0  0  0  0  0
    9.9668    9.7819   -2.4460 C   0  0  0  0  0  0  0  0  0  0  0  0
    8.7417    8.8889   -2.3829 C   0  0  0  0  0  0  0  0  0  0  0  0
    8.3528    7.4269   -2.2138 C   0  0  0  0  0  0  0  0  0  0  0  0
    2.2364   12.0853    4.1328 H   0  0  0  0  0  0  0  0  0  0  0  0
    1.4916   10.5679    3.5949 H   0  0  0  0  0  0  0  0  0  0  0  0
    2.4151   11.5853    2.4633 H   0  0  0  0  0  0  0  0  0  0  0  0
    3.3655   10.3116    1.3271 H   0  0  0  0  0  0  0  0  0  0  0  0
    4.8474    9.3816    1.3179 H   0  0  0  0  0  0  0  0  0  0  0  0
    2.0280    8.1816    1.5592 H   0  0  0  0  0  0  0  0  0  0  0  0
    2.9656    8.2722    0.0714 H   0  0  0  0  0  0  0  0  0  0  0  0
    2.8364    6.7784    3.4762 H   0  0  0  0  0  0  0  0  0  0  0  0
    4.3777    5.9232    3.3374 H   0  0  0  0  0  0  0  0  0  0  0  0
    5.5972    8.1200    3.2475 H   0  0  0  0  0  0  0  0  0  0  0  0
    4.5951    8.0723    4.7155 H   0  0  0  0  0  0  0  0  0  0  0  0
    4.0339    7.0050   -1.0043 H   0  0  0  0  0  0  0  0  0  0  0  0
    2.1253    4.8594   -1.4757 H   0  0  0  0  0  0  0  0  0  0  0  0
    1.7314    6.1067   -0.2984 H   0  0  0  0  0  0  0  0  0  0  0  0
    3.6709    6.2568   -3.5648 H   0  0  0  0  0  0  0  0  0  0  0  0
    2.9654    7.6252   -5.4670 H   0  0  0  0  0  0  0  0  0  0  0  0
    0.8859    8.9515   -5.3498 H   0  0  0  0  0  0  0  0  0  0  0  0
    0.3611    7.7381   -1.2434 H   0  0  0  0  0  0  0  0  0  0  0  0
   -2.7106    9.2434   -2.3376 H   0  0  0  0  0  0  0  0  0  0  0  0
   -1.5097    8.4501   -1.4282 H   0  0  0  0  0  0  0  0  0  0  0  0
   -2.3166    9.8116   -4.3735 H   0  0  0  0  0  0  0  0  0  0  0  0
    4.6055    4.1788   -1.4356 H   0  0  0  0  0  0  0  0  0  0  0  0
    5.3572    7.9534   -0.8059 H   0  0  0  0  0  0  0  0  0  0  0  0
    5.7004   10.1159   -1.5519 H   0  0  0  0  0  0  0  0  0  0  0  0
    7.1078   11.7788   -2.5779 H   0  0  0  0  0  0  0  0  0  0  0  0
    9.0638   10.6245   -4.5902 H   0  0  0  0  0  0  0  0  0  0  0  0
   10.0618   12.0691   -2.3284 H   0  0  0  0  0  0  0  0  0  0  0  0
   10.9468    9.3986   -2.1701 H   0  0  0  0  0  0  0  0  0  0  0  0
    9.0765    6.6380   -2.4305 H   0  0  0  0  0  0  0  0  0  0  0  0
  1  2  1  0  0  0  0
  1 37  1  0  0  0  0
  1 38  1  0  0  0  0
  1 39  1  0  0  0  0
  2  3  2  0  0  0  0
  2  4  1  0  0  0  0
  4  5  1  0  0  0  0
  4  9  1  0  0  0  0
  5  6  1  0  0  0  0
  5 40  1  0  0  0  0
  5 41  1  0  0  0  0
  6  7  1  0  0  0  0
  6 42  1  0  0  0  0
  6 43  1  0  0  0  0
  7  8  1  0  0  0  0
  7 10  1  0  0  0  0
  8  9  1  0  0  0  0
  8 44  1  0  0  0  0
  8 45  1  0  0  0  0
  9 46  1  0  0  0  0
  9 47  1  0  0  0  0
 10 11  2  0  0  0  0
 12 23  1  0  0  0  0
 12 48  1  6  0  0  0
 12 13  1  0  0  0  0
 12 10  1  0  0  0  0
 13 14  1  0  0  0  0
 13 49  1  0  0  0  0
 13 50  1  0  0  0  0
 14 15  2  0  0  0  0
 14 19  1  0  0  0  0
 15 16  1  0  0  0  0
 15 51  1  0  0  0  0
 16 17  2  0  0  0  0
 16 52  1  0  0  0  0
 17 18  1  0  0  0  0
 17 53  1  0  0  0  0
 18 19  2  0  0  0  0
 18 20  1  0  0  0  0
 19 54  1  0  0  0  0
 20 21  1  0  0  0  0
 20 22  2  0  0  0  0
 21 55  1  0  0  0  0
 21 56  1  0  0  0  0
 22 57  1  0  0  0  0
 23 24  1  0  0  0  0
 23 58  1  0  0  0  0
 24 25  2  0  0  0  0
 24 26  2  0  0  0  0
 24 27  1  0  0  0  0
 27 28  2  0  0  0  0
 27 36  1  0  0  0  0
 28 29  1  0  0  0  0
 28 59  1  0  0  0  0
 29 30  2  0  0  0  0
 29 60  1  0  0  0  0
 30 31  1  0  0  0  0
 30 35  1  0  0  0  0
 31 32  2  0  0  0  0
 31 61  1  0  0  0  0
 32 33  1  0  0  0  0
 32 62  1  0  0  0  0
 33 34  2  0  0  0  0
 33 63  1  0  0  0  0
 34 35  1  0  0  0  0
 34 64  1  0  0  0  0
 35 36  2  0  0  0  0
 36 65  1  0  0  0  0
M  END
>  <DRUGBANK_ID>
DB04125

>  <SECONDARY_ACCESSION_NUMBERS>
EXPT01411

>  <COMMON_NAME>
N-Alpha-(2-Naphthylsulfonyl)-N(3-Amidino-L-Phenylalaninyl)-4-Acetyl-Piperazine

$$$$
