
 OpenBabel10282417183D

 57 59  0  0  0  0  0  0  0  0999 V2000
   -1.5157   -0.0076   -0.1523 C   0  0  0  0  0  0  0  0  0  0  0  0
   -0.7418    1.2384    0.3359 C   0  0  0  0  0  0  0  0  0  0  0  0
    0.6818    1.1446   -0.0713 C   0  0  0  0  0  0  0  0  0  0  0  0
    1.3851   -0.0768    0.2987 N   0  0  0  0  0  0  0  0  0  0  0  0
    0.6984   -1.2666   -0.1894 C   0  0  0  0  0  0  0  0  0  0  0  0
   -0.7492   -1.2908    0.2667 C   0  0  0  0  0  0  0  0  0  0  0  0
    2.7665   -0.0654   -0.2087 C   0  0  0  0  0  0  0  0  0  0  0  0
    2.9294   -0.0056   -1.7464 C   0  0  0  0  0  0  0  0  0  0  0  0
    2.4217    1.2405   -2.4625 C   0  0  0  0  0  0  0  0  0  0  0  0
    2.9883    2.5064   -1.8374 C   0  0  0  0  0  0  0  0  0  0  0  0
    3.4983    3.4707   -2.7882 C   0  0  0  0  0  0  0  0  0  0  0  0
    3.0977    2.7768   -0.6611 O   0  0  0  0  0  0  0  0  0  0  0  0
    2.6925    3.8425   -3.8605 C   0  0  0  0  0  0  0  0  0  0  0  0
    3.2532    4.6219   -4.8531 C   0  0  0  0  0  0  0  0  0  0  0  0
    4.5826    5.0253   -4.7319 C   0  0  0  0  0  0  0  0  0  0  0  0
    5.3653    4.6779   -3.6302 C   0  0  0  0  0  0  0  0  0  0  0  0
    4.8178    3.8894   -2.6342 C   0  0  0  0  0  0  0  0  0  0  0  0
    5.1247    5.7618   -5.7071 F   0  0  0  0  0  0  0  0  0  0  0  0
   -2.8812    0.0251    0.4796 N   0  0  0  0  0  0  0  0  0  0  0  0
   -2.7661    0.0172    1.9598 C   0  0  0  0  0  0  0  0  0  0  0  0
   -4.1119   -0.0094    2.6422 C   0  0  0  0  0  0  0  0  0  0  0  0
   -4.9381    1.1884    2.2113 C   0  0  0  0  0  0  0  0  0  0  0  0
   -5.0217    1.2611    0.6956 C   0  0  0  0  0  0  0  0  0  0  0  0
   -3.6377    1.2342    0.0718 C   0  0  0  0  0  0  0  0  0  0  0  0
   -1.6564    0.0274   -1.7620 C   0  0  0  0  0  0  0  0  0  0  0  0
   -1.3048   -1.0667   -2.5081 N   0  0  0  0  0  0  0  0  0  0  0  0
   -2.0405    1.0114   -2.3993 O   0  0  0  0  0  0  0  0  0  0  0  0
   -1.1411    2.1558   -0.1189 H   0  0  0  0  0  0  0  0  0  0  0  0
   -0.7255    1.3920    1.4135 H   0  0  0  0  0  0  0  0  0  0  0  0
    0.5438    1.1898   -1.1274 H   0  0  0  0  0  0  0  0  0  0  0  0
    1.1843    2.0449    0.2807 H   0  0  0  0  0  0  0  0  0  0  0  0
    1.2014   -2.1707    0.1708 H   0  0  0  0  0  0  0  0  0  0  0  0
    0.7476   -1.3060   -1.2747 H   0  0  0  0  0  0  0  0  0  0  0  0
   -0.6983   -1.4136    1.3493 H   0  0  0  0  0  0  0  0  0  0  0  0
   -1.2515   -2.1861   -0.1183 H   0  0  0  0  0  0  0  0  0  0  0  0
    3.3276    0.7352    0.2818 H   0  0  0  0  0  0  0  0  0  0  0  0
    3.2667   -0.9748    0.1497 H   0  0  0  0  0  0  0  0  0  0  0  0
    3.9963   -0.0986   -1.9724 H   0  0  0  0  0  0  0  0  0  0  0  0
    2.4671   -0.8828   -2.2133 H   0  0  0  0  0  0  0  0  0  0  0  0
    2.7045    1.1590   -3.5151 H   0  0  0  0  0  0  0  0  0  0  0  0
    1.3430    1.3342   -2.5776 H   0  0  0  0  0  0  0  0  0  0  0  0
    1.6585    3.5097   -3.9257 H   0  0  0  0  0  0  0  0  0  0  0  0
    2.6682    4.9019   -5.7207 H   0  0  0  0  0  0  0  0  0  0  0  0
    6.3954    5.0070   -3.5636 H   0  0  0  0  0  0  0  0  0  0  0  0
    5.4024    3.5760   -1.7707 H   0  0  0  0  0  0  0  0  0  0  0  0
   -2.2507    0.9026    2.3446 H   0  0  0  0  0  0  0  0  0  0  0  0
   -2.2193   -0.8530    2.3247 H   0  0  0  0  0  0  0  0  0  0  0  0
   -3.9480    0.0168    3.7251 H   0  0  0  0  0  0  0  0  0  0  0  0
   -4.6168   -0.9485    2.3982 H   0  0  0  0  0  0  0  0  0  0  0  0
   -5.9384    1.1194    2.6412 H   0  0  0  0  0  0  0  0  0  0  0  0
   -4.4722    2.1078    2.5915 H   0  0  0  0  0  0  0  0  0  0  0  0
   -5.6035    0.4195    0.3050 H   0  0  0  0  0  0  0  0  0  0  0  0
   -5.5268    2.1848    0.3938 H   0  0  0  0  0  0  0  0  0  0  0  0
   -3.7919    1.2712   -1.0079 H   0  0  0  0  0  0  0  0  0  0  0  0
   -3.1222    2.1583    0.3614 H   0  0  0  0  0  0  0  0  0  0  0  0
   -1.3609   -0.9815   -3.5152 H   0  0  0  0  0  0  0  0  0  0  0  0
   -0.9044   -1.9185   -2.1488 H   0  0  0  0  0  0  0  0  0  0  0  0
  1 19  1  0  0  0  0
  1  2  1  0  0  0  0
  2  3  1  0  0  0  0
  2 28  1  0  0  0  0
  2 29  1  0  0  0  0
  3  4  1  0  0  0  0
  3 30  1  0  0  0  0
  3 31  1  0  0  0  0
  4  7  1  0  0  0  0
  4  5  1  0  0  0  0
  5  6  1  0  0  0  0
  5 32  1  0  0  0  0
  5 33  1  0  0  0  0
  6  1  1  0  0  0  0
  6 34  1  0  0  0  0
  6 35  1  0  0  0  0
  7  8  1  0  0  0  0
  7 36  1  0  0  0  0
  7 37  1  0  0  0  0
  8  9  1  0  0  0  0
  8 38  1  0  0  0  0
  8 39  1  0  0  0  0
  9 10  1  0  0  0  0
  9 40  1  0  0  0  0
  9 41  1  0  0  0  0
 10 11  1  0  0  0  0
 10 12  2  0  0  0  0
 11 13  2  0  0  0  0
 13 14  1  0  0  0  0
 13 42  1  0  0  0  0
 14 15  2  0  0  0  0
 14 43  1  0  0  0  0
 15 16  1  0  0  0  0
 15 18  1  0  0  0  0
 16 17  2  0  0  0  0
 16 44  1  0  0  0  0
 17 11  1  0  0  0  0
 17 45  1  0  0  0  0
 19 20  1  0  0  0  0
 20 21  1  0  0  0  0
 20 46  1  0  0  0  0
 20 47  1  0  0  0  0
 21 22  1  0  0  0  0
 21 48  1  0  0  0  0
 21 49  1  0  0  0  0
 22 23  1  0  0  0  0
 22 50  1  0  0  0  0
 22 51  1  0  0  0  0
 23 24  1  0  0  0  0
 23 52  1  0  0  0  0
 23 53  1  0  0  0  0
 24 19  1  0  0  0  0
 24 54  1  0  0  0  0
 24 55  1  0  0  0  0
 25 26  1  0  0  0  0
 25  1  1  0  0  0  0
 25 27  2  0  0  0  0
 26 56  1  0  0  0  0
 26 57  1  0  0  0  0
M  END
>  <DRUGBANK_ID>
DB09286

>  <COMMON_NAME>
Pipamperone

>  <CAS_NUMBER>
1893-33-0

>  <UNII>
5402501F0W

>  <SYNONYMS>
Carpiperone; Floropipamide; Fluoropipamide; Pipamperona; Pipamperone

$$$$
