4TB
 OpenBabel10282417123D

 21 21  0  0  0  0  0  0  0  0999 V2000
   -0.9571   -0.0629    0.2692 S   0  0  0  0  0  0  0  0  0  0  0  0
    0.1909    1.1950    0.0383 C   0  0  0  0  0  0  0  0  0  0  0  0
    1.4676    0.6713    0.0014 C   0  0  0  0  0  0  0  0  0  0  0  0
    1.4768   -0.7535    0.0040 C   0  0  0  0  0  0  0  0  0  0  0  0
    0.2078   -1.2799    0.0492 C   0  0  0  0  0  0  0  0  0  0  0  0
   -0.1899    2.6530   -0.0119 C   0  0  0  0  0  0  0  0  0  0  0  0
   -1.0551    3.0450   -1.2207 C   0  0  0  0  0  0  0  0  0  0  0  0
   -2.4451    2.4052   -1.2651 C   0  0  0  0  0  0  0  0  0  0  0  0
   -3.2501    2.6768   -0.0062 C   0  0  0  0  0  0  0  0  0  0  0  0
   -4.4633    3.2152   -0.2356 O   0  0  0  0  0  0  0  0  0  0  0  0
   -2.8766    2.4455    1.1357 O   0  0  0  0  0  0  0  0  0  0  0  0
    2.3533    1.2917   -0.0391 H   0  0  0  0  0  0  0  0  0  0  0  0
    2.3688   -1.3621   -0.0383 H   0  0  0  0  0  0  0  0  0  0  0  0
   -0.0905   -2.3188    0.0230 H   0  0  0  0  0  0  0  0  0  0  0  0
   -0.6465    2.9663    0.9307 H   0  0  0  0  0  0  0  0  0  0  0  0
    0.7334    3.2470   -0.0708 H   0  0  0  0  0  0  0  0  0  0  0  0
   -1.1787    4.1367   -1.2222 H   0  0  0  0  0  0  0  0  0  0  0  0
   -0.5159    2.7995   -2.1462 H   0  0  0  0  0  0  0  0  0  0  0  0
   -2.9797    2.7701   -2.1484 H   0  0  0  0  0  0  0  0  0  0  0  0
   -2.3858    1.3274   -1.4259 H   0  0  0  0  0  0  0  0  0  0  0  0
   -4.6819    3.3342   -1.1758 H   0  0  0  0  0  0  0  0  0  0  0  0
  1  2  1  0  0  0  0
  1  5  1  0  0  0  0
  2  3  2  0  0  0  0
  2  6  1  0  0  0  0
  3  4  1  0  0  0  0
  3 12  1  0  0  0  0
  4  5  2  0  0  0  0
  4 13  1  0  0  0  0
  5 14  1  0  0  0  0
  6  7  1  0  0  0  0
  6 15  1  0  0  0  0
  6 16  1  0  0  0  0
  7  8  1  0  0  0  0
  7 17  1  0  0  0  0
  7 18  1  0  0  0  0
  8  9  1  0  0  0  0
  8 19  1  0  0  0  0
  8 20  1  0  0  0  0
  9 10  1  0  0  0  0
  9 11  2  0  0  0  0
 10 21  1  0  0  0  0
M  END
>  <DRUGBANK_ID>
DB02434

>  <SECONDARY_ACCESSION_NUMBERS>
EXPT00230

>  <COMMON_NAME>
4-(2-Thienyl)Butyric Acid

>  <CAS_NUMBER>
4653-11-6

>  <UNII>
VLB4C9G6WY

$$$$
