H7J
 OpenBabel10282417163D

 55 56  0  0  0  0  0  0  0  0999 V2000
    1.0934    0.0729   -0.4575 O   0  0  0  0  0  0  0  0  0  0  0  0
    2.2619    0.0017   -0.0827 C   0  0  0  0  0  0  0  0  0  0  0  0
    3.0837   -0.9569   -0.8356 C   0  0  0  0  0  0  0  0  0  0  0  0
    2.7279   -1.1622   -2.1783 C   0  0  0  0  0  0  0  0  0  0  0  0
    3.4356   -2.0573   -2.9662 C   0  0  0  0  0  0  0  0  0  0  0  0
    4.5091   -2.7465   -2.4107 C   0  0  0  0  0  0  0  0  0  0  0  0
    4.8541   -2.5608   -1.0665 C   0  0  0  0  0  0  0  0  0  0  0  0
    4.1125   -1.6975   -0.2580 C   0  0  0  0  0  0  0  0  0  0  0  0
    2.8436    0.7302    0.9405 N   0  0  0  0  0  0  0  0  0  0  0  0
    2.1394    1.7189    1.8373 C   0  0  1  0  0  0  0  0  0  0  0  0
    2.6087    1.4148    3.2820 C   0  0  0  0  0  0  0  0  0  0  0  0
    2.5454    3.1955    1.4764 C   0  0  0  0  0  0  0  0  0  0  0  0
    2.2457    3.5391    0.0115 C   0  0  0  0  0  0  0  0  0  0  0  0
    1.9084    4.2518    2.4094 C   0  0  0  0  0  0  0  0  0  0  0  0
    0.6459    1.4957    1.7949 C   0  0  0  0  0  0  0  0  0  0  0  0
   -0.2586    2.4965    1.5314 N   0  0  0  0  0  0  0  0  0  0  0  0
   -1.4597    1.9648    1.4103 N   0  0  0  0  0  0  0  0  0  0  0  0
   -0.0419    0.3065    1.9024 C   0  0  0  0  0  0  0  0  0  0  0  0
   -1.3054    0.6399    1.5469 N   0  0  0  0  0  0  0  0  0  0  0  0
   -2.3984   -0.2615    1.2820 C   0  0  1  0  0  0  0  0  0  0  0  0
   -3.3859   -0.1097    2.4250 C   0  0  0  0  0  0  0  0  0  0  0  0
   -4.8101    0.2899    2.1478 C   0  0  0  0  0  0  0  0  0  0  0  0
   -3.0331   -0.3029    3.5950 O   0  0  0  0  0  0  0  0  0  0  0  0
   -3.0030   -0.0702   -0.1137 C   0  0  0  0  0  0  0  0  0  0  0  0
   -2.0503   -0.3037   -1.2430 C   0  0  0  0  0  0  0  0  0  0  0  0
   -2.2255   -1.2488   -2.1752 C   0  0  0  0  0  0  0  0  0  0  0  0
   -1.2605   -1.4586   -3.2898 C   0  0  0  0  0  0  0  0  0  0  0  0
   -1.9958   -1.2822    1.3462 H   0  0  0  0  0  0  0  0  0  0  0  0
    1.8813   -0.6241   -2.6022 H   0  0  0  0  0  0  0  0  0  0  0  0
    3.1506   -2.2026   -4.0045 H   0  0  0  0  0  0  0  0  0  0  0  0
    5.0711   -3.4433   -3.0262 H   0  0  0  0  0  0  0  0  0  0  0  0
    5.7033   -3.0968   -0.6513 H   0  0  0  0  0  0  0  0  0  0  0  0
    4.3163   -1.6397    0.8070 H   0  0  0  0  0  0  0  0  0  0  0  0
    3.8551    0.7641    0.9554 H   0  0  0  0  0  0  0  0  0  0  0  0
    3.6836    1.5858    3.4053 H   0  0  0  0  0  0  0  0  0  0  0  0
    2.0765    2.0283    4.0174 H   0  0  0  0  0  0  0  0  0  0  0  0
    2.4083    0.3710    3.5510 H   0  0  0  0  0  0  0  0  0  0  0  0
    3.6347    3.2917    1.6022 H   0  0  0  0  0  0  0  0  0  0  0  0
    1.1837    3.4383   -0.2241 H   0  0  0  0  0  0  0  0  0  0  0  0
    2.5352    4.5696   -0.2161 H   0  0  0  0  0  0  0  0  0  0  0  0
    2.8008    2.8834   -0.6663 H   0  0  0  0  0  0  0  0  0  0  0  0
    2.1813    4.0883    3.4557 H   0  0  0  0  0  0  0  0  0  0  0  0
    2.2266    5.2633    2.1438 H   0  0  0  0  0  0  0  0  0  0  0  0
    0.8181    4.2604    2.3643 H   0  0  0  0  0  0  0  0  0  0  0  0
    0.3051   -0.7124    1.9842 H   0  0  0  0  0  0  0  0  0  0  0  0
   -5.4629   -0.4863    2.5514 H   0  0  0  0  0  0  0  0  0  0  0  0
   -5.0082    1.2550    2.6171 H   0  0  0  0  0  0  0  0  0  0  0  0
   -5.0424    0.3884    1.0896 H   0  0  0  0  0  0  0  0  0  0  0  0
   -3.8467   -0.7630   -0.2213 H   0  0  0  0  0  0  0  0  0  0  0  0
   -3.4017    0.9457   -0.2272 H   0  0  0  0  0  0  0  0  0  0  0  0
   -1.1851    0.3583   -1.2980 H   0  0  0  0  0  0  0  0  0  0  0  0
   -3.0950   -1.9002   -2.1416 H   0  0  0  0  0  0  0  0  0  0  0  0
   -0.8617   -2.4756   -3.2451 H   0  0  0  0  0  0  0  0  0  0  0  0
   -1.7643   -1.3152   -4.2491 H   0  0  0  0  0  0  0  0  0  0  0  0
   -0.4222   -0.7579   -3.2374 H   0  0  0  0  0  0  0  0  0  0  0  0
  1  2  2  0  0  0  0
  2  3  1  0  0  0  0
  2  9  1  0  0  0  0
  3  4  2  0  0  0  0
  3  8  1  0  0  0  0
  4  5  1  0  0  0  0
  4 29  1  0  0  0  0
  5  6  2  0  0  0  0
  5 30  1  0  0  0  0
  6  7  1  0  0  0  0
  6 31  1  0  0  0  0
  7  8  2  0  0  0  0
  7 32  1  0  0  0  0
  8 33  1  0  0  0  0
  9 34  1  0  0  0  0
 10  9  1  6  0  0  0
 10 11  1  0  0  0  0
 10 12  1  0  0  0  0
 10 15  1  0  0  0  0
 11 35  1  0  0  0  0
 11 36  1  0  0  0  0
 11 37  1  0  0  0  0
 12 13  1  0  0  0  0
 12 14  1  0  0  0  0
 12 38  1  0  0  0  0
 13 39  1  0  0  0  0
 13 40  1  0  0  0  0
 13 41  1  0  0  0  0
 14 42  1  0  0  0  0
 14 43  1  0  0  0  0
 14 44  1  0  0  0  0
 15 16  1  0  0  0  0
 15 18  2  0  0  0  0
 16 17  2  0  0  0  0
 17 19  1  0  0  0  0
 18 19  1  0  0  0  0
 18 45  1  0  0  0  0
 20 19  1  0  0  0  0
 20 21  1  0  0  0  0
 20 24  1  0  0  0  0
 20 28  1  1  0  0  0
 21 22  1  0  0  0  0
 21 23  2  0  0  0  0
 22 46  1  0  0  0  0
 22 47  1  0  0  0  0
 22 48  1  0  0  0  0
 24 25  1  0  0  0  0
 24 49  1  0  0  0  0
 24 50  1  0  0  0  0
 25 26  2  0  0  0  0
 25 51  1  0  0  0  0
 26 27  1  0  0  0  0
 26 52  1  0  0  0  0
 27 53  1  0  0  0  0
 27 54  1  0  0  0  0
 27 55  1  0  0  0  0
M  END
>  <DRUGBANK_ID>
DB07878

>  <COMMON_NAME>
N-[(1S)-1-{1-[(1R,3E)-1-ACETYLPENT-3-EN-1-YL]-1H-1,2,3-TRIAZOL-4-YL}-1,2-DIMETHYLPROPYL]BENZAMIDE

$$$$
