
 OpenBabel10282417133D

 15 15  0  0  0  0  0  0  0  0999 V2000
    0.7917   -0.0051    0.1231 O   0  0  0  0  0  0  0  0  0  0  0  0
    0.2524    1.0810   -0.4574 C   0  0  0  0  0  0  0  0  0  0  0  0
    0.9334    1.9506   -0.9702 O   0  0  0  0  0  0  0  0  0  0  0  0
   -1.2247    1.0345   -0.4504 C   0  0  0  0  0  0  0  0  0  0  0  0
   -1.9280    0.6258    0.6889 C   0  0  0  0  0  0  0  0  0  0  0  0
   -3.3272    0.6221    0.6795 C   0  0  0  0  0  0  0  0  0  0  0  0
   -4.0172    1.0171   -0.4672 C   0  0  0  0  0  0  0  0  0  0  0  0
   -5.7379    0.9850   -0.4830 Cl  0  0  0  0  0  0  0  0  0  0  0  0
   -3.3211    1.4378   -1.6001 C   0  0  0  0  0  0  0  0  0  0  0  0
   -1.9223    1.4534   -1.5906 C   0  0  0  0  0  0  0  0  0  0  0  0
    1.7605    0.1028    0.0092 H   0  0  0  0  0  0  0  0  0  0  0  0
   -1.3942    0.3293    1.5884 H   0  0  0  0  0  0  0  0  0  0  0  0
   -3.8734    0.3161    1.5682 H   0  0  0  0  0  0  0  0  0  0  0  0
   -3.8604    1.7582   -2.4883 H   0  0  0  0  0  0  0  0  0  0  0  0
   -1.3809    1.7873   -2.4733 H   0  0  0  0  0  0  0  0  0  0  0  0
  1  2  1  0  0  0  0
  1 11  1  0  0  0  0
  2  3  2  0  0  0  0
  2  4  1  0  0  0  0
  4  5  2  0  0  0  0
  4 10  1  0  0  0  0
  5  6  1  0  0  0  0
  5 12  1  0  0  0  0
  6  7  2  0  0  0  0
  6 13  1  0  0  0  0
  7  8  1  0  0  0  0
  7  9  1  0  0  0  0
  9 10  2  0  0  0  0
  9 14  1  0  0  0  0
 10 15  1  0  0  0  0
M  END
>  <DRUGBANK_ID>
DB03728

>  <SECONDARY_ACCESSION_NUMBERS>
EXPT00054

>  <COMMON_NAME>
p-Chlorobenzoic acid

>  <CAS_NUMBER>
74-11-3

>  <UNII>
IC7888DF4L

>  <SYNONYMS>
4-chlorobenzoic acid; Chlorodracylic acid

$$$$
