
 OpenBabel10282417123D

 42 43  0  0  1  0  0  0  0  0999 V2000
    5.0018    0.8081    3.2883 C   0  0  0  0  0  0  0  0  0  0  0  0
    4.1045   -0.1873    2.8357 O   0  0  0  0  0  0  0  0  0  0  0  0
    2.7416    0.3197    2.9484 N   0  0  0  0  0  0  0  0  0  0  0  0
    2.4886    1.3259    1.9074 C   0  0  1  0  0  0  0  0  0  0  0  0
    2.7644    2.8143    2.1914 C   0  0  0  0  0  0  0  0  0  0  0  0
    2.7891    3.4175    0.7962 C   0  0  1  0  0  0  0  0  0  0  0  0
    3.5107    2.4101   -0.0565 N   0  0  0  0  0  0  0  0  0  0  0  0
    3.0888    1.0565    0.4843 C   0  0  0  0  0  0  0  0  0  0  0  0
    5.2716    2.4836   -0.1708 S   0  0  0  0  0  0  0  0  0  0  0  0
    5.8763    2.4516    1.1502 O   0  0  0  0  0  0  0  0  0  0  0  0
    5.6629    1.5030   -1.1471 O   0  0  0  0  0  0  0  0  0  0  0  0
    5.7534    4.0862   -0.7158 C   0  0  0  0  0  0  0  0  0  0  0  0
    5.5074    5.1714    0.1286 C   0  0  0  0  0  0  0  0  0  0  0  0
    5.9711    6.4348   -0.1773 C   0  0  0  0  0  0  0  0  0  0  0  0
    6.8339    6.6006   -1.2492 C   0  0  0  0  0  0  0  0  0  0  0  0
    7.3490    7.8075   -1.6329 O   0  0  0  0  0  0  0  0  0  0  0  0
    6.7981    8.9468   -0.9703 C   0  0  0  0  0  0  0  0  0  0  0  0
    7.2391    5.4778   -1.9855 C   0  0  0  0  0  0  0  0  0  0  0  0
    6.6614    4.2226   -1.7601 C   0  0  0  0  0  0  0  0  0  0  0  0
    1.4458    4.0081    0.3286 C   0  0  0  0  0  0  0  0  0  0  0  0
    1.3785    5.2219    0.0850 O   0  0  0  0  0  0  0  0  0  0  0  0
    0.2886    3.3156    0.2294 N   0  0  0  0  0  0  0  0  0  0  0  0
    0.1057    1.9425    0.3081 O   0  0  0  0  0  0  0  0  0  0  0  0
    6.0381    0.4894    3.1930 H   0  0  0  0  0  0  0  0  0  0  0  0
    4.7493    1.2102    4.2692 H   0  0  0  0  0  0  0  0  0  0  0  0
    4.8856    1.6128    2.6054 H   0  0  0  0  0  0  0  0  0  0  0  0
    2.2293   -0.5309    2.6917 H   0  0  0  0  0  0  0  0  0  0  0  0
    1.4020    1.2847    1.8972 H   0  0  0  0  0  0  0  0  0  0  0  0
    3.7225    3.0344    2.6677 H   0  0  0  0  0  0  0  0  0  0  0  0
    2.0185    3.2796    2.8427 H   0  0  0  0  0  0  0  0  0  0  0  0
    3.3731    4.3218    0.8467 H   0  0  0  0  0  0  0  0  0  0  0  0
    3.9046    0.3311    0.4793 H   0  0  0  0  0  0  0  0  0  0  0  0
    2.3725    0.6176   -0.2200 H   0  0  0  0  0  0  0  0  0  0  0  0
    5.0119    5.0627    1.0852 H   0  0  0  0  0  0  0  0  0  0  0  0
    5.6728    7.2455    0.4773 H   0  0  0  0  0  0  0  0  0  0  0  0
    5.7057    8.9903   -1.0720 H   0  0  0  0  0  0  0  0  0  0  0  0
    7.0887    8.9566    0.0864 H   0  0  0  0  0  0  0  0  0  0  0  0
    7.2085    9.8441   -1.4380 H   0  0  0  0  0  0  0  0  0  0  0  0
    8.0250    5.5773   -2.7294 H   0  0  0  0  0  0  0  0  0  0  0  0
    6.9796    3.3585   -2.3405 H   0  0  0  0  0  0  0  0  0  0  0  0
   -0.5271    3.8187   -0.1055 H   0  0  0  0  0  0  0  0  0  0  0  0
    0.9621    1.6124    0.0201 H   0  0  0  0  0  0  0  0  0  0  0  0
  1  2  1  0  0  0  0
  1 24  1  0  0  0  0
  1 25  1  0  0  0  0
  1 26  1  0  0  0  0
  2  3  1  0  0  0  0
  3 27  1  0  0  0  0
  4  5  1  0  0  0  0
  4  8  1  0  0  0  0
  4 28  1  6  0  0  0
  4  3  1  0  0  0  0
  5  6  1  0  0  0  0
  5 29  1  0  0  0  0
  5 30  1  0  0  0  0
  6  7  1  0  0  0  0
  6 20  1  0  0  0  0
  6 31  1  1  0  0  0
  7  8  1  0  0  0  0
  7  9  1  0  0  0  0
  8 32  1  0  0  0  0
  8 33  1  0  0  0  0
  9 10  2  0  0  0  0
  9 11  2  0  0  0  0
  9 12  1  0  0  0  0
 12 13  2  0  0  0  0
 12 19  1  0  0  0  0
 13 14  1  0  0  0  0
 13 34  1  0  0  0  0
 14 15  2  0  0  0  0
 14 35  1  0  0  0  0
 15 16  1  0  0  0  0
 15 18  1  0  0  0  0
 16 17  1  0  0  0  0
 17 36  1  0  0  0  0
 17 37  1  0  0  0  0
 17 38  1  0  0  0  0
 18 19  2  0  0  0  0
 18 39  1  0  0  0  0
 19 40  1  0  0  0  0
 20 21  2  0  0  0  0
 20 22  1  0  0  0  0
 22 23  1  0  0  0  0
 22 41  1  0  0  0  0
 23 42  1  0  0  0  0
M  END
>  <DRUGBANK_ID>
DB01877

>  <SECONDARY_ACCESSION_NUMBERS>
EXPT02941

>  <COMMON_NAME>
N-Hydroxy 1n(4-Methoxyphenyl)Sulfonyl-4-(Z,E-N-Methoxyimino)Pyrrolidine-2r-Carboxamide

$$$$
