1197
 OpenBabel10282417113D

 29 29  0  0  1  0  0  0  0  0999 V2000
    3.0839   -3.4607   -0.4555 S   0  0  0  0  0  0  0  0  0  0  0  0
    1.0434   -0.1052    1.7001 O   0  0  0  0  0  0  0  0  0  0  0  0
   -1.6229   -3.5972    0.4386 O   0  0  0  0  0  0  0  0  0  0  0  0
   -3.2850   -3.7378    1.9481 O   0  0  0  0  0  0  0  0  0  0  0  0
   -1.0174   -0.8769    0.9963 N   0  0  0  0  0  0  0  0  0  0  0  0
   -2.2452   -1.5668    1.5100 C   0  0  1  0  0  0  0  0  0  0  0  0
   -3.2960   -1.0046    0.5396 C   0  0  0  0  0  0  0  0  0  0  0  0
   -2.9400    0.4595    0.4024 C   0  0  0  0  0  0  0  0  0  0  0  0
   -1.4256    0.4979    0.6264 C   0  0  0  0  0  0  0  0  0  0  0  0
    0.3332   -1.0603    1.3841 C   0  0  0  0  0  0  0  0  0  0  0  0
    0.9714   -2.4645    1.1378 C   0  0  1  0  0  0  0  0  0  0  0  0
   -2.4457   -3.0818    1.3800 C   0  0  0  0  0  0  0  0  0  0  0  0
    2.5096   -2.4771    1.0023 C   0  0  0  0  0  0  0  0  0  0  0  0
    0.5901   -3.4885    2.2101 C   0  0  0  0  0  0  0  0  0  0  0  0
    2.4801   -4.6307   -0.1837 H   0  0  0  0  0  0  0  0  0  0  0  0
   -1.0811   -2.8455    0.1402 H   0  0  0  0  0  0  0  0  0  0  0  0
   -2.4251   -1.2503    2.5455 H   0  0  0  0  0  0  0  0  0  0  0  0
   -3.1816   -1.4861   -0.4446 H   0  0  0  0  0  0  0  0  0  0  0  0
   -4.3263   -1.1768    0.8629 H   0  0  0  0  0  0  0  0  0  0  0  0
   -3.2295    0.8557   -0.5779 H   0  0  0  0  0  0  0  0  0  0  0  0
   -3.4727    1.0458    1.1596 H   0  0  0  0  0  0  0  0  0  0  0  0
   -0.8911    0.7928   -0.2822 H   0  0  0  0  0  0  0  0  0  0  0  0
   -1.1848    1.2242    1.4141 H   0  0  0  0  0  0  0  0  0  0  0  0
    0.6347   -2.7462    0.1362 H   0  0  0  0  0  0  0  0  0  0  0  0
    2.9749   -2.9330    1.8816 H   0  0  0  0  0  0  0  0  0  0  0  0
    2.9239   -1.4779    0.8713 H   0  0  0  0  0  0  0  0  0  0  0  0
   -0.4569   -3.5019    2.4943 H   0  0  0  0  0  0  0  0  0  0  0  0
    0.8505   -4.5027    1.8844 H   0  0  0  0  0  0  0  0  0  0  0  0
    1.1072   -3.2723    3.1479 H   0  0  0  0  0  0  0  0  0  0  0  0
  1 13  1  0  0  0  0
  1 15  1  0  0  0  0
  2 10  2  0  0  0  0
  3 12  1  0  0  0  0
  3 16  1  0  0  0  0
  4 12  2  0  0  0  0
  5  6  1  0  0  0  0
  5  9  1  0  0  0  0
  5 10  1  0  0  0  0
  6  7  1  0  0  0  0
  6 17  1  1  0  0  0
  6 12  1  0  0  0  0
  7  8  1  0  0  0  0
  7 18  1  0  0  0  0
  7 19  1  0  0  0  0
  8  9  1  0  0  0  0
  8 20  1  0  0  0  0
  8 21  1  0  0  0  0
  9 22  1  0  0  0  0
  9 23  1  0  0  0  0
 11 14  1  0  0  0  0
 11 24  1  6  0  0  0
 11 13  1  0  0  0  0
 11 10  1  0  0  0  0
 13 25  1  0  0  0  0
 13 26  1  0  0  0  0
 14 27  1  0  0  0  0
 14 28  1  0  0  0  0
 14 29  1  0  0  0  0
M  END
>  <DRUGBANK_ID>
DB01197

>  <SECONDARY_ACCESSION_NUMBERS>
APRD00164

>  <COMMON_NAME>
Captopril

>  <CAS_NUMBER>
62571-86-2

>  <UNII>
9G64RSX1XD

>  <SYNONYMS>
(2S)-1-[(2S)-2-methyl-3-sulfanylpropanoyl]pyrrolidine-2-carboxylic acid; Captopril; Captoprilum; Captopryl; CP; D-2-methyl-3-mercaptopropanoyl-L-proline; D-3-mercapto-2-methylpropanoyl-L-proline; L-Captopril

$$$$
