
 OpenBabel10282417173D

 61 62  0  0  0  0  0  0  0  0999 V2000
    2.7417    4.6895   -4.2211 C   0  0  0  0  0  0  0  0  0  0  0  0
    3.6747    5.7542   -3.6456 C   0  0  0  0  0  0  0  0  0  0  0  0
    3.6006    5.7846   -2.1399 C   0  0  0  0  0  0  0  0  0  0  0  0
    3.9283    4.4255   -1.6058 C   0  0  0  0  0  0  0  0  0  0  0  0
    3.0645    3.3028   -2.1691 C   0  0  0  0  0  0  0  0  0  0  0  0
    3.0665    3.2935   -3.6906 C   0  0  0  0  0  0  0  0  0  0  0  0
    3.5068    1.9446   -1.5914 C   0  0  0  0  0  0  0  0  0  0  0  0
    3.5702    1.9358   -0.0215 C   0  0  2  0  0  0  0  0  0  0  0  0
    2.3061    2.6035    0.5189 C   0  0  0  0  0  0  0  0  0  0  0  0
    4.6035    2.6185    0.7136 N   0  0  0  0  0  0  0  0  0  0  0  0
    5.9044    2.4217    0.1411 C   0  0  0  0  0  0  0  0  0  0  0  0
   -0.2781    1.1611    0.0075 C   0  0  0  0  0  0  0  0  0  0  0  0
    0.8673    0.4270   -0.0443 N   0  0  0  0  0  0  0  0  0  0  0  0
    1.0733   -0.8902   -0.0997 C   0  0  0  0  0  0  0  0  0  0  0  0
   -0.1658   -1.6854   -0.0767 C   0  0  0  0  0  0  0  0  0  0  0  0
   -1.4821   -0.8734   -0.0097 C   0  0  0  0  0  0  0  0  0  0  0  0
   -1.4120    0.4766    0.0352 N   0  0  0  0  0  0  0  0  0  0  0  0
   -0.3699    2.3968    0.0135 O   0  0  0  0  0  0  0  0  0  0  0  0
   -2.6027   -1.3723   -0.0424 O   0  0  0  0  0  0  0  0  0  0  0  0
    2.2196   -1.3084   -0.2122 O   0  0  0  0  0  0  0  0  0  0  0  0
   -0.0731   -2.6121    1.1184 C   0  0  0  0  0  0  0  0  0  0  0  0
   -0.0917   -2.3528   -1.4745 C   0  0  0  0  0  0  0  0  0  0  0  0
    0.0058   -1.3281   -2.6252 C   0  0  0  0  0  0  0  0  0  0  0  0
   -1.0822   -3.5542    1.2700 C   0  0  0  0  0  0  0  0  0  0  0  0
   -1.0284   -4.4645    2.3054 C   0  0  0  0  0  0  0  0  0  0  0  0
    0.0609   -4.4751    3.1740 C   0  0  0  0  0  0  0  0  0  0  0  0
    1.0827   -3.5452    3.0416 C   0  0  0  0  0  0  0  0  0  0  0  0
    0.9770   -2.5671    2.0683 C   0  0  0  0  0  0  0  0  0  0  0  0
    1.7055    4.9408   -3.9586 H   0  0  0  0  0  0  0  0  0  0  0  0
    2.8172    4.6874   -5.3103 H   0  0  0  0  0  0  0  0  0  0  0  0
    4.7068    5.5334   -3.9439 H   0  0  0  0  0  0  0  0  0  0  0  0
    3.4147    6.7439   -4.0243 H   0  0  0  0  0  0  0  0  0  0  0  0
    4.3171    6.4951   -1.7134 H   0  0  0  0  0  0  0  0  0  0  0  0
    2.6026    6.0720   -1.7881 H   0  0  0  0  0  0  0  0  0  0  0  0
    4.9830    4.2019   -1.7855 H   0  0  0  0  0  0  0  0  0  0  0  0
    3.7624    4.5496   -0.5445 H   0  0  0  0  0  0  0  0  0  0  0  0
    2.0221    3.5082   -1.8926 H   0  0  0  0  0  0  0  0  0  0  0  0
    2.3213    2.5752   -4.0583 H   0  0  0  0  0  0  0  0  0  0  0  0
    4.0443    2.9643   -4.0560 H   0  0  0  0  0  0  0  0  0  0  0  0
    2.7918    1.1795   -1.9405 H   0  0  0  0  0  0  0  0  0  0  0  0
    4.4540    1.6128   -2.0307 H   0  0  0  0  0  0  0  0  0  0  0  0
    3.6397    0.8776    0.2708 H   0  0  0  0  0  0  0  0  0  0  0  0
    1.9404    2.1124    1.4279 H   0  0  0  0  0  0  0  0  0  0  0  0
    2.2575    3.6810    0.6551 H   0  0  0  0  0  0  0  0  0  0  0  0
    1.6138    2.5161   -0.3044 H   0  0  0  0  0  0  0  0  0  0  0  0
    4.3834    3.6043    0.8163 H   0  0  0  0  0  0  0  0  0  0  0  0
    5.9332    2.5331   -0.9432 H   0  0  0  0  0  0  0  0  0  0  0  0
    6.5673    3.1782    0.5565 H   0  0  0  0  0  0  0  0  0  0  0  0
    6.2472    1.4211    0.3969 H   0  0  0  0  0  0  0  0  0  0  0  0
    1.7787    0.7867   -0.1395 H   0  0  0  0  0  0  0  0  0  0  0  0
   -2.2523    1.0333    0.0373 H   0  0  0  0  0  0  0  0  0  0  0  0
    0.7886   -3.0091   -1.5326 H   0  0  0  0  0  0  0  0  0  0  0  0
   -0.9718   -2.9779   -1.6331 H   0  0  0  0  0  0  0  0  0  0  0  0
    0.9238   -0.7269   -2.5810 H   0  0  0  0  0  0  0  0  0  0  0  0
    0.0148   -1.8401   -3.5881 H   0  0  0  0  0  0  0  0  0  0  0  0
   -0.8382   -0.6317   -2.6115 H   0  0  0  0  0  0  0  0  0  0  0  0
   -1.9237   -3.5672    0.5816 H   0  0  0  0  0  0  0  0  0  0  0  0
   -1.8356   -5.1791    2.4038 H   0  0  0  0  0  0  0  0  0  0  0  0
    0.1094   -5.2135    3.9638 H   0  0  0  0  0  0  0  0  0  0  0  0
    1.9649   -3.5820    3.6755 H   0  0  0  0  0  0  0  0  0  0  0  0
    1.7644   -1.8105    2.0612 H   0  0  0  0  0  0  0  0  0  0  0  0
  1  2  1  0  0  0  0
  1  6  1  0  0  0  0
  1 29  1  0  0  0  0
  1 30  1  0  0  0  0
  2  3  1  0  0  0  0
  2 31  1  0  0  0  0
  2 32  1  0  0  0  0
  3  4  1  0  0  0  0
  3 33  1  0  0  0  0
  3 34  1  0  0  0  0
  4  5  1  0  0  0  0
  4 35  1  0  0  0  0
  4 36  1  0  0  0  0
  5  6  1  0  0  0  0
  5  7  1  0  0  0  0
  5 37  1  0  0  0  0
  6 38  1  0  0  0  0
  6 39  1  0  0  0  0
  7 40  1  0  0  0  0
  7 41  1  0  0  0  0
  8 10  1  0  0  0  0
  8 42  1  1  0  0  0
  8  9  1  0  0  0  0
  8  7  1  0  0  0  0
  9 43  1  0  0  0  0
  9 44  1  0  0  0  0
  9 45  1  0  0  0  0
 10 11  1  0  0  0  0
 10 46  1  0  0  0  0
 11 47  1  0  0  0  0
 11 48  1  0  0  0  0
 11 49  1  0  0  0  0
 12 17  1  0  0  0  0
 12 18  2  0  0  0  0
 12 13  1  0  0  0  0
 13 14  1  0  0  0  0
 13 50  1  0  0  0  0
 14 15  1  0  0  0  0
 14 20  2  0  0  0  0
 15 16  1  0  0  0  0
 15 21  1  0  0  0  0
 15 22  1  0  0  0  0
 16 17  1  0  0  0  0
 16 19  2  0  0  0  0
 17 51  1  0  0  0  0
 21 24  2  0  0  0  0
 22 23  1  0  0  0  0
 22 52  1  0  0  0  0
 22 53  1  0  0  0  0
 23 54  1  0  0  0  0
 23 55  1  0  0  0  0
 23 56  1  0  0  0  0
 24 25  1  0  0  0  0
 24 57  1  0  0  0  0
 25 26  2  0  0  0  0
 25 58  1  0  0  0  0
 26 27  1  0  0  0  0
 26 59  1  0  0  0  0
 27 28  2  0  0  0  0
 27 60  1  0  0  0  0
 28 21  1  0  0  0  0
 28 61  1  0  0  0  0
M  END
>  <DRUGBANK_ID>
DB09001

>  <COMMON_NAME>
Barbexaclone

>  <CAS_NUMBER>
4388-82-3

>  <UNII>
291GX1YB65

>  <SYNONYMS>
Barbexaclon; Barbexaclona; Barbexaclone; Barbexaclonum

$$$$
