
 OpenBabel10282417133D

152158  0  0  0  0  0  0  0  0999 V2000
    4.5343  -11.4633   -0.9404 O   0  0  0  0  0  0  0  0  0  0  0  0
   12.3249   -1.3067   -7.4973 O   0  0  0  0  0  0  0  0  0  0  0  0
    3.4483  -13.6569   -0.7090 O   0  0  0  0  0  0  0  0  0  0  0  0
    2.8617   -8.9216   -2.0783 O   0  0  0  0  0  0  0  0  0  0  0  0
    0.5925  -10.4015   -1.6115 O   0  0  0  0  0  0  0  0  0  0  0  0
   10.3242   -0.5758   -6.4267 O   0  0  0  0  0  0  0  0  0  0  0  0
   13.9632   -3.1706   -6.0056 O   0  0  0  0  0  0  0  0  0  0  0  0
   11.7076   -3.9549   -4.3523 O   0  0  0  0  0  0  0  0  0  0  0  0
    2.6683  -10.1315    0.3825 O   0  0  0  0  0  0  0  0  0  0  0  0
    9.5797   -3.3949   -6.1722 O   0  0  0  0  0  0  0  0  0  0  0  0
    6.3612  -10.8540   -2.1831 O   0  0  0  0  0  0  0  0  0  0  0  0
   14.5063    0.5922   -7.4644 O   0  0  0  0  0  0  0  0  0  0  0  0
   12.4978   -7.4793   -4.7564 O   0  0  0  0  0  0  0  0  0  0  0  0
   13.7752   -5.4018   -6.6676 O   0  0  0  0  0  0  0  0  0  0  0  0
    4.1868  -13.5470   -6.7229 O   0  0  0  0  0  0  0  0  0  0  0  0
   10.8352    2.9058  -11.1483 O   0  0  0  0  0  0  0  0  0  0  0  0
    0.2357  -16.5379   -2.9418 O   0  5  0  0  0  0  0  0  0  0  0  0
    0.7955  -16.5187   -5.0652 O   0  0  0  0  0  0  0  0  0  0  0  0
    7.8866    3.3986   -5.3120 O   0  5  0  0  0  0  0  0  0  0  0  0
    7.7944    4.5948   -7.1511 O   0  0  0  0  0  0  0  0  0  0  0  0
    6.9702   -9.5113   -6.8796 N   0  0  0  0  0  0  0  0  0  0  0  0
    9.7160   -3.0347  -10.9865 N   0  0  0  0  0  0  0  0  0  0  0  0
    8.5422  -10.5799   -4.4505 N   0  0  0  0  0  0  0  0  0  0  0  0
    8.7762   -2.0596  -13.5530 N   0  0  0  0  0  0  0  0  0  0  0  0
    9.8186   -7.4234   -6.5360 N   0  0  0  0  0  0  0  0  0  0  0  0
   10.9465   -5.1986   -8.4022 N   0  0  0  0  0  0  0  0  0  0  0  0
    5.9093  -13.1817   -5.3576 N   0  0  0  0  0  0  0  0  0  0  0  0
    9.6770    0.9590  -11.2200 N   0  0  0  0  0  0  0  0  0  0  0  0
    0.8302  -16.0612   -3.9160 N   0  3  0  0  0  0  0  0  0  0  0  0
    8.2105    3.6414   -6.4817 N   0  3  0  0  0  0  0  0  0  0  0  0
    6.3260   -9.9449   -5.6554 C   0  0  0  0  0  0  0  0  0  0  0  0
    8.2361  -10.3243   -7.0246 C   0  0  0  0  0  0  0  0  0  0  0  0
    8.3312   -3.3426  -11.4284 C   0  0  0  0  0  0  0  0  0  0  0  0
   10.4540   -2.0316  -11.8194 C   0  0  0  0  0  0  0  0  0  0  0  0
    7.2952   -9.8281   -4.4076 C   0  0  0  0  0  0  0  0  0  0  0  0
    9.0725  -10.3123   -5.7625 C   0  0  0  0  0  0  0  0  0  0  0  0
    8.2012   -3.2780  -12.9524 C   0  0  0  0  0  0  0  0  0  0  0  0
   10.2439   -2.0486  -13.3029 C   0  0  0  0  0  0  0  0  0  0  0  0
    7.0277   -8.0364   -6.7710 C   0  0  0  0  0  0  0  0  0  0  0  0
   10.4699   -4.2846  -11.1145 C   0  0  0  0  0  0  0  0  0  0  0  0
    8.6111  -12.0343   -4.3420 C   0  0  0  0  0  0  0  0  0  0  0  0
    8.0300   -0.8291  -13.1164 C   0  0  0  0  0  0  0  0  0  0  0  0
    2.8041  -10.2982   -2.4340 C   0  0  3  0  0  0  0  0  0  0  0  0
    1.8075  -11.1166   -1.6448 C   0  0  3  0  0  0  0  0  0  0  0  0
   13.1162   -2.2145   -5.3860 C   0  0  2  0  0  0  0  0  0  0  0  0
   11.6855   -2.7135   -5.0590 C   0  0  1  0  0  0  0  0  0  0  0  0
    4.1027  -10.9802   -2.1984 C   0  0  3  0  0  0  0  0  0  0  0  0
    2.3323  -11.4097   -0.2278 C   0  0  3  0  0  0  0  0  0  0  0  0
   13.0860   -0.9992   -6.3042 C   0  0  1  0  0  0  0  0  0  0  0  0
   10.8999   -2.8829   -6.3322 C   0  0  2  0  0  0  0  0  0  0  0  0
    7.6981   -7.2387   -5.5697 C   0  0  0  0  0  0  0  0  0  0  0  0
   11.8105   -4.1740  -10.4276 C   0  0  0  0  0  0  0  0  0  0  0  0
    3.5946  -12.2784   -0.2840 C   0  0  3  0  0  0  0  0  0  0  0  0
   10.9561   -1.6075   -7.1554 C   0  0  2  0  0  0  0  0  0  0  0  0
    7.6331  -12.8280   -3.5303 C   0  0  0  0  0  0  0  0  0  0  0  0
    7.6858   -0.4049  -11.6305 C   0  0  0  0  0  0  0  0  0  0  0  0
    9.1908   -7.4751   -5.2467 C   0  0  0  0  0  0  0  0  0  0  0  0
   11.5803   -4.0366   -8.9756 C   0  0  0  0  0  0  0  0  0  0  0  0
    5.2034  -10.1490   -2.6386 C   0  0  0  0  0  0  0  0  0  0  0  0
   14.5173   -0.5954   -6.6811 C   0  0  0  0  0  0  0  0  0  0  0  0
    6.3123  -12.5671   -4.1469 C   0  0  0  0  0  0  0  0  0  0  0  0
    8.7829   -0.0583  -10.6322 C   0  0  0  0  0  0  0  0  0  0  0  0
   10.9578   -6.8760   -6.6301 C   0  0  0  0  0  0  0  0  0  0  0  0
   11.4566   -5.9189   -7.4344 C   0  0  0  0  0  0  0  0  0  0  0  0
   12.1212   -6.9283   -5.7314 C   0  0  0  0  0  0  0  0  0  0  0  0
   12.7425   -5.9561   -6.6895 C   0  0  0  0  0  0  0  0  0  0  0  0
    3.1314  -13.9793   -1.9949 C   0  0  0  0  0  0  0  0  0  0  0  0
   10.1565    0.5632   -7.1431 C   0  0  0  0  0  0  0  0  0  0  0  0
    4.6103  -13.5508   -5.5694 C   0  0  0  0  0  0  0  0  0  0  0  0
   10.2836    1.9858  -10.5684 C   0  0  0  0  0  0  0  0  0  0  0  0
    3.7416  -13.9526   -4.3979 C   0  0  0  0  0  0  0  0  0  0  0  0
    4.0657  -13.9302   -3.0108 C   0  0  0  0  0  0  0  0  0  0  0  0
   10.1733    1.9328   -9.1145 C   0  0  0  0  0  0  0  0  0  0  0  0
   10.5390    0.7607   -8.4624 C   0  0  0  0  0  0  0  0  0  0  0  0
    1.9431  -14.5656   -2.3196 C   0  0  0  0  0  0  0  0  0  0  0  0
    9.4977    1.5571   -6.4539 C   0  0  0  0  0  0  0  0  0  0  0  0
    2.5241  -14.4982   -4.7208 C   0  0  0  0  0  0  0  0  0  0  0  0
    9.4622    2.9225   -8.4694 C   0  0  0  0  0  0  0  0  0  0  0  0
    1.7258  -14.9436   -3.6620 C   0  0  0  0  0  0  0  0  0  0  0  0
    9.1079    2.7063   -7.1389 C   0  0  0  0  0  0  0  0  0  0  0  0
    3.5336   -8.7935   -1.3871 H   0  0  0  0  0  0  0  0  0  0  0  0
    0.8639   -9.5184   -1.2902 H   0  0  0  0  0  0  0  0  0  0  0  0
   13.6196   -3.5138   -6.8512 H   0  0  0  0  0  0  0  0  0  0  0  0
   12.3827   -4.5096   -4.7739 H   0  0  0  0  0  0  0  0  0  0  0  0
    3.5944   -9.9282    0.1415 H   0  0  0  0  0  0  0  0  0  0  0  0
    9.1666   -3.4425   -7.0533 H   0  0  0  0  0  0  0  0  0  0  0  0
    6.4314  -10.9573   -1.2273 H   0  0  0  0  0  0  0  0  0  0  0  0
   14.0309    0.3673   -8.2832 H   0  0  0  0  0  0  0  0  0  0  0  0
    9.3112   -7.7378   -7.3632 H   0  0  0  0  0  0  0  0  0  0  0  0
    9.9285   -5.2198   -8.5442 H   0  0  0  0  0  0  0  0  0  0  0  0
    6.2954  -12.7766   -6.2114 H   0  0  0  0  0  0  0  0  0  0  0  0
    9.9034    0.9395  -12.2129 H   0  0  0  0  0  0  0  0  0  0  0  0
    5.3213   -9.5125   -5.5312 H   0  0  0  0  0  0  0  0  0  0  0  0
    6.0943  -10.9509   -5.9441 H   0  0  0  0  0  0  0  0  0  0  0  0
    8.0513  -11.3747   -7.2682 H   0  0  0  0  0  0  0  0  0  0  0  0
    8.8455   -9.8806   -7.8118 H   0  0  0  0  0  0  0  0  0  0  0  0
    7.9831   -4.3183  -11.0578 H   0  0  0  0  0  0  0  0  0  0  0  0
    7.6086   -2.7253  -10.9019 H   0  0  0  0  0  0  0  0  0  0  0  0
   10.0710   -1.0566  -11.7816 H   0  0  0  0  0  0  0  0  0  0  0  0
   11.4162   -1.7359  -11.3846 H   0  0  0  0  0  0  0  0  0  0  0  0
    7.3435   -8.7850   -4.1910 H   0  0  0  0  0  0  0  0  0  0  0  0
    7.0832   -9.7919   -3.3830 H   0  0  0  0  0  0  0  0  0  0  0  0
    8.9025   -9.3057   -5.7542 H   0  0  0  0  0  0  0  0  0  0  0  0
   10.1540  -10.4021   -5.7975 H   0  0  0  0  0  0  0  0  0  0  0  0
    8.7418   -4.1474  -13.3488 H   0  0  0  0  0  0  0  0  0  0  0  0
    7.1639   -3.4069  -13.2709 H   0  0  0  0  0  0  0  0  0  0  0  0
   10.7976   -2.9022  -13.7005 H   0  0  0  0  0  0  0  0  0  0  0  0
   10.6925   -1.1426  -13.7399 H   0  0  0  0  0  0  0  0  0  0  0  0
    7.3817   -7.6620   -7.7313 H   0  0  0  0  0  0  0  0  0  0  0  0
    5.9678   -7.7286   -6.7447 H   0  0  0  0  0  0  0  0  0  0  0  0
   10.6233   -4.5357  -12.1591 H   0  0  0  0  0  0  0  0  0  0  0  0
    9.8841   -5.0918  -10.6614 H   0  0  0  0  0  0  0  0  0  0  0  0
    9.6163  -12.2678   -3.9931 H   0  0  0  0  0  0  0  0  0  0  0  0
    8.4988  -12.4434   -5.3463 H   0  0  0  0  0  0  0  0  0  0  0  0
    8.4832    0.0340  -13.6194 H   0  0  0  0  0  0  0  0  0  0  0  0
    7.0462   -0.9268  -13.5973 H   0  0  0  0  0  0  0  0  0  0  0  0
    2.5784  -10.3304   -3.5124 H   0  0  0  0  0  0  0  0  0  0  0  0
    1.6229  -12.0459   -2.1792 H   0  0  0  0  0  0  0  0  0  0  0  0
   13.6238   -2.0053   -4.4475 H   0  0  0  0  0  0  0  0  0  0  0  0
   11.1590   -1.9910   -4.4367 H   0  0  0  0  0  0  0  0  0  0  0  0
    4.0081  -11.7955   -2.8753 H   0  0  0  0  0  0  0  0  0  0  0  0
    1.5778  -11.8926    0.3816 H   0  0  0  0  0  0  0  0  0  0  0  0
   12.6036   -0.1573   -5.8024 H   0  0  0  0  0  0  0  0  0  0  0  0
   11.4758   -3.6417   -6.8060 H   0  0  0  0  0  0  0  0  0  0  0  0
    7.5921   -6.1780   -5.7906 H   0  0  0  0  0  0  0  0  0  0  0  0
    7.0684   -7.2516   -4.6780 H   0  0  0  0  0  0  0  0  0  0  0  0
   12.3699   -3.2875  -10.7379 H   0  0  0  0  0  0  0  0  0  0  0  0
   12.4239   -5.0465  -10.6150 H   0  0  0  0  0  0  0  0  0  0  0  0
    4.0247  -12.3363    0.7258 H   0  0  0  0  0  0  0  0  0  0  0  0
   10.3579   -1.7410   -8.0632 H   0  0  0  0  0  0  0  0  0  0  0  0
    7.7160  -12.5362   -2.4774 H   0  0  0  0  0  0  0  0  0  0  0  0
    7.7934  -13.9037   -3.5511 H   0  0  0  0  0  0  0  0  0  0  0  0
    7.0827    0.5049  -11.6719 H   0  0  0  0  0  0  0  0  0  0  0  0
    6.9863   -1.1088  -11.1880 H   0  0  0  0  0  0  0  0  0  0  0  0
    9.5202   -6.8711   -4.3991 H   0  0  0  0  0  0  0  0  0  0  0  0
    9.6724   -8.3514   -4.7865 H   0  0  0  0  0  0  0  0  0  0  0  0
   10.8869   -3.2184   -8.8705 H   0  0  0  0  0  0  0  0  0  0  0  0
   12.5203   -3.7682   -8.4958 H   0  0  0  0  0  0  0  0  0  0  0  0
    5.0328  -10.1617   -3.7168 H   0  0  0  0  0  0  0  0  0  0  0  0
    5.2828   -9.0990   -2.3732 H   0  0  0  0  0  0  0  0  0  0  0  0
   15.0890   -0.4028   -5.7676 H   0  0  0  0  0  0  0  0  0  0  0  0
   15.0421   -1.3643   -7.2598 H   0  0  0  0  0  0  0  0  0  0  0  0
    6.2075  -11.5548   -4.3518 H   0  0  0  0  0  0  0  0  0  0  0  0
    5.5629  -12.5017   -3.4314 H   0  0  0  0  0  0  0  0  0  0  0  0
    8.3821    0.2195   -9.6597 H   0  0  0  0  0  0  0  0  0  0  0  0
    9.3696   -0.8968  -10.2473 H   0  0  0  0  0  0  0  0  0  0  0  0
    5.0476  -13.7767   -2.5907 H   0  0  0  0  0  0  0  0  0  0  0  0
   11.0255   -0.0122   -9.0553 H   0  0  0  0  0  0  0  0  0  0  0  0
    1.2406  -14.7986   -1.5287 H   0  0  0  0  0  0  0  0  0  0  0  0
    9.2822    1.3986   -5.4001 H   0  0  0  0  0  0  0  0  0  0  0  0
    2.2945  -14.7167   -5.7644 H   0  0  0  0  0  0  0  0  0  0  0  0
    9.1568    3.8023   -9.0262 H   0  0  0  0  0  0  0  0  0  0  0  0
  1 47  1  0  0  0  0
  1 53  1  0  0  0  0
  2 49  1  0  0  0  0
  2 54  1  0  0  0  0
  3 53  1  0  0  0  0
  3 67  1  0  0  0  0
  4 43  1  0  0  0  0
  4 81  1  0  0  0  0
  5 44  1  0  0  0  0
  5 82  1  0  0  0  0
  6 68  1  0  0  0  0
  7 83  1  0  0  0  0
  8 84  1  0  0  0  0
  9 48  1  0  0  0  0
  9 85  1  0  0  0  0
 10 86  1  0  0  0  0
 11 59  1  0  0  0  0
 11 87  1  0  0  0  0
 12 60  1  0  0  0  0
 12 88  1  0  0  0  0
 13 65  2  0  0  0  0
 14 66  2  0  0  0  0
 15 69  2  0  0  0  0
 16 70  2  0  0  0  0
 17 29  1  0  0  0  0
 18 29  2  0  0  0  0
 19 30  1  0  0  0  0
 20 30  2  0  0  0  0
 21 31  1  0  0  0  0
 21 32  1  0  0  0  0
 21 39  1  0  0  0  0
 22 33  1  0  0  0  0
 22 34  1  0  0  0  0
 22 40  1  0  0  0  0
 23 35  1  0  0  0  0
 23 36  1  0  0  0  0
 23 41  1  0  0  0  0
 24 37  1  0  0  0  0
 24 38  1  0  0  0  0
 24 42  1  0  0  0  0
 25 57  1  0  0  0  0
 25 63  1  0  0  0  0
 25 89  1  0  0  0  0
 26 58  1  0  0  0  0
 26 64  1  0  0  0  0
 26 90  1  0  0  0  0
 27 61  1  0  0  0  0
 27 69  1  0  0  0  0
 27 91  1  0  0  0  0
 28 62  1  0  0  0  0
 28 70  1  0  0  0  0
 28 92  1  0  0  0  0
 29 79  1  0  0  0  0
 30 80  1  0  0  0  0
 31 35  1  0  0  0  0
 31 93  1  0  0  0  0
 31 94  1  0  0  0  0
 32 36  1  0  0  0  0
 32 95  1  0  0  0  0
 32 96  1  0  0  0  0
 33 37  1  0  0  0  0
 33 97  1  0  0  0  0
 33 98  1  0  0  0  0
 34 38  1  0  0  0  0
 34 99  1  0  0  0  0
 34100  1  0  0  0  0
 35101  1  0  0  0  0
 35102  1  0  0  0  0
 36103  1  0  0  0  0
 36104  1  0  0  0  0
 37105  1  0  0  0  0
 37106  1  0  0  0  0
 38107  1  0  0  0  0
 38108  1  0  0  0  0
 39 51  1  0  0  0  0
 39109  1  0  0  0  0
 39110  1  0  0  0  0
 40 52  1  0  0  0  0
 40111  1  0  0  0  0
 40112  1  0  0  0  0
 41 55  1  0  0  0  0
 41113  1  0  0  0  0
 41114  1  0  0  0  0
 42 56  1  0  0  0  0
 42115  1  0  0  0  0
 42116  1  0  0  0  0
 43 44  1  0  0  0  0
 43 47  1  0  0  0  0
 43117  1  0  0  0  0
 44 48  1  0  0  0  0
 44118  1  0  0  0  0
 45  7  1  0  0  0  0
 45 46  1  0  0  0  0
 45 49  1  0  0  0  0
 45119  1  1  0  0  0
 46  8  1  0  0  0  0
 46 50  1  0  0  0  0
 46120  1  1  0  0  0
 47 59  1  0  0  0  0
 47121  1  0  0  0  0
 48 53  1  0  0  0  0
 48122  1  0  0  0  0
 49 60  1  0  0  0  0
 49123  1  1  0  0  0
 50 54  1  0  0  0  0
 50124  1  6  0  0  0
 50 10  1  0  0  0  0
 51 57  1  0  0  0  0
 51125  1  0  0  0  0
 51126  1  0  0  0  0
 52 58  1  0  0  0  0
 52127  1  0  0  0  0
 52128  1  0  0  0  0
 53129  1  0  0  0  0
 54130  1  6  0  0  0
 54  6  1  0  0  0  0
 55 61  1  0  0  0  0
 55131  1  0  0  0  0
 55132  1  0  0  0  0
 56 62  1  0  0  0  0
 56133  1  0  0  0  0
 56134  1  0  0  0  0
 57135  1  0  0  0  0
 57136  1  0  0  0  0
 58137  1  0  0  0  0
 58138  1  0  0  0  0
 59139  1  0  0  0  0
 59140  1  0  0  0  0
 60141  1  0  0  0  0
 60142  1  0  0  0  0
 61143  1  0  0  0  0
 61144  1  0  0  0  0
 62145  1  0  0  0  0
 62146  1  0  0  0  0
 63 64  2  0  0  0  0
 63 65  1  0  0  0  0
 64 66  1  0  0  0  0
 65 66  1  0  0  0  0
 67 72  2  0  0  0  0
 67 75  1  0  0  0  0
 68 74  2  0  0  0  0
 68 76  1  0  0  0  0
 69 71  1  0  0  0  0
 70 73  1  0  0  0  0
 71 72  1  0  0  0  0
 71 77  2  0  0  0  0
 72147  1  0  0  0  0
 73 74  1  0  0  0  0
 73 78  2  0  0  0  0
 74148  1  0  0  0  0
 75 79  2  0  0  0  0
 75149  1  0  0  0  0
 76 80  2  0  0  0  0
 76150  1  0  0  0  0
 77 79  1  0  0  0  0
 77151  1  0  0  0  0
 78 80  1  0  0  0  0
 78152  1  0  0  0  0
M  CHG  4  17  -1  19  -1  29   1  30   1
M  END
>  <DRUGBANK_ID>
DB04210

>  <SECONDARY_ACCESSION_NUMBERS>
EXPT00779

>  <COMMON_NAME>
3-(alpha-D-galactopyranosyloxy)-N-(3-{4-[3-({2-[(3-{4-[3-({[3-(hexopyranosyloxy)-5-nitrophenyl]carbonyl}amino)propyl]piperazin-1-yl}propyl)amino]-3,4-dioxocyclobut-1-en-1-yl}amino)propyl]piperazin-1-yl}propyl)-5-nitrobenzamide

$$$$
