
 OpenBabel10282417133D

 20 20  0  0  0  0  0  0  0  0999 V2000
   -2.6586   -0.9405   -0.0114 C   0  0  0  0  0  0  0  0  0  0  0  0
   -1.2043   -0.5616   -0.0067 C   0  0  0  0  0  0  0  0  0  0  0  0
   -0.2313   -1.5698   -0.0092 C   0  0  0  0  0  0  0  0  0  0  0  0
    1.1312   -1.2563   -0.0078 C   0  0  0  0  0  0  0  0  0  0  0  0
    1.5582    0.0725   -0.0213 C   0  0  0  0  0  0  0  0  0  0  0  0
    2.9075    0.3788    0.1466 N   0  0  0  0  0  0  0  0  0  0  0  0
    0.5883    1.0773    0.0172 C   0  0  0  0  0  0  0  0  0  0  0  0
   -0.7900    0.7836    0.0008 C   0  0  0  0  0  0  0  0  0  0  0  0
   -1.7624    1.9315   -0.0190 C   0  0  0  0  0  0  0  0  0  0  0  0
   -3.1571   -0.5439    0.8794 H   0  0  0  0  0  0  0  0  0  0  0  0
   -3.1455   -0.5486   -0.9102 H   0  0  0  0  0  0  0  0  0  0  0  0
   -2.7960   -2.0265   -0.0088 H   0  0  0  0  0  0  0  0  0  0  0  0
   -0.5264   -2.6179   -0.0071 H   0  0  0  0  0  0  0  0  0  0  0  0
    1.8571   -2.0632    0.0019 H   0  0  0  0  0  0  0  0  0  0  0  0
    3.1946    1.3248   -0.0832 H   0  0  0  0  0  0  0  0  0  0  0  0
    3.5757   -0.3413   -0.1000 H   0  0  0  0  0  0  0  0  0  0  0  0
    0.9052    2.1185    0.0528 H   0  0  0  0  0  0  0  0  0  0  0  0
   -1.6249    2.5620    0.8651 H   0  0  0  0  0  0  0  0  0  0  0  0
   -1.6050    2.5318   -0.9211 H   0  0  0  0  0  0  0  0  0  0  0  0
   -2.8060    1.6069   -0.0271 H   0  0  0  0  0  0  0  0  0  0  0  0
  1  2  1  0  0  0  0
  1 10  1  0  0  0  0
  1 11  1  0  0  0  0
  1 12  1  0  0  0  0
  2  3  2  0  0  0  0
  2  8  1  0  0  0  0
  3  4  1  0  0  0  0
  3 13  1  0  0  0  0
  4  5  2  0  0  0  0
  4 14  1  0  0  0  0
  5  6  1  0  0  0  0
  5  7  1  0  0  0  0
  6 15  1  0  0  0  0
  6 16  1  0  0  0  0
  7  8  2  0  0  0  0
  7 17  1  0  0  0  0
  8  9  1  0  0  0  0
  9 18  1  0  0  0  0
  9 19  1  0  0  0  0
  9 20  1  0  0  0  0
M  END
>  <DRUGBANK_ID>
DB03018

>  <SECONDARY_ACCESSION_NUMBERS>
EXPT00155

>  <COMMON_NAME>
3,4-dimethylaniline

>  <CAS_NUMBER>
95-64-7

>  <UNII>
R27I33AIDT

>  <SYNONYMS>
1-amino-3,4-dimethylbenzene; 3,4-dimethylaminobenzene; 3,4-dimethylbenzenamine; 3,4-dimethylbenzene-1-amine; 3,4-dimethylbenzeneamine; 3,4-dimethylphenylamine; 3,4-xylidine; 3,4-xylylamine; 4-amino-1,2-dimethylbenzene; 4-amino-o-xylene

$$$$
