
 OpenBabel10282417213D

119124  0  0  0  0  0  0  0  0999 V2000
   -1.8556    3.6182   -1.9296 C   0  0  2  0  0  0  0  0  0  0  0  0
   -3.1469   10.3886    4.3478 C   0  0  0  0  0  0  0  0  0  0  0  0
   -0.5068    9.1734   -1.6685 C   0  0  0  0  0  0  0  0  0  0  0  0
   -2.2811    6.2475   -0.6856 O   0  0  0  0  0  0  0  0  0  0  0  0
   -2.7578    1.0451   -1.0160 C   0  0  2  0  0  0  0  0  0  0  0  0
   -2.6632   -0.3040   -0.3184 C   0  0  0  0  0  0  0  0  0  0  0  0
   -0.2067    6.8419    0.6374 C   0  0  2  0  0  0  0  0  0  0  0  0
    1.4158   14.7124   -0.2281 C   0  0  2  0  0  0  0  0  0  0  0  0
   -3.6088   11.2298    3.1172 C   0  0  0  0  0  0  0  0  0  0  0  0
   -0.5596   11.8358    1.0481 C   0  0  0  0  0  0  0  0  0  0  0  0
    0.1195   10.6438    1.7276 C   0  0  1  0  0  0  0  0  0  0  0  0
    1.4208   14.0200    4.1024 C   0  0  0  0  0  0  0  0  0  0  0  0
   -1.6397    6.9953   -2.5097 H   0  0  0  0  0  0  0  0  0  0  0  0
   -2.9541   10.3636    2.1159 C   0  0  2  0  0  0  0  0  0  0  0  0
   -0.0684   10.7232    3.3532 C   0  0  1  0  0  0  0  0  0  0  0  0
    0.8860   15.2491   -1.5879 C   0  0  0  0  0  0  0  0  0  0  0  0
   -1.8256    0.4952   -2.8539 H   0  0  0  0  0  0  0  0  0  0  0  0
   -0.1715   12.1355    3.4457 O   0  0  0  0  0  0  0  0  0  0  0  0
   -2.7490    3.5362   -0.7138 C   0  0  0  0  0  0  0  0  0  0  0  0
    2.0168   15.7940    0.6911 C   0  0  2  0  0  0  0  0  0  0  0  0
   -1.9328    4.9250   -2.7172 C   0  0  0  0  0  0  0  0  0  0  0  0
    0.8688   10.3177    3.7830 H   0  0  0  0  0  0  0  0  0  0  0  0
   -3.4983    7.9061    2.2556 C   0  0  0  0  0  0  0  0  0  0  0  0
   -1.9782    2.4937   -2.7842 O   0  0  0  0  0  0  0  0  0  0  0  0
   -0.8709    3.5859   -1.5120 H   0  0  0  0  0  0  0  0  0  0  0  0
   -0.1372    1.1606   -1.6880 C   0  0  2  0  0  0  0  0  0  0  0  0
   -0.5679    9.4887    1.2068 C   0  0  0  0  0  0  0  0  0  0  0  0
   -2.4891    8.4223    0.2328 O   0  0  0  0  0  0  0  0  0  0  0  0
    1.0729   14.6178    2.7351 C   0  0  2  0  0  0  0  0  0  0  0  0
    0.3804    0.2712    0.5061 O   0  0  0  0  0  0  0  0  0  0  0  0
   -4.4986    9.5958    0.4861 C   0  0  0  0  0  0  0  0  0  0  0  0
    2.3478   13.6624   -0.4767 O   0  0  0  0  0  0  0  0  0  0  0  0
   -1.2028    8.4536    4.4540 C   0  0  0  0  0  0  0  0  0  0  0  0
    1.5290   12.9005    1.5307 H   0  0  0  0  0  0  0  0  0  0  0  0
    0.8285    2.0922   -2.4389 C   0  0  0  0  0  0  0  0  0  0  0  0
    0.2897   14.2099    0.4718 O   0  0  0  0  0  0  0  0  0  0  0  0
   -1.6602    1.2687   -2.0904 C   0  0  1  0  0  0  0  0  0  0  0  0
   -2.8536    6.6567    1.6473 C   0  0  1  0  0  0  0  0  0  0  0  0
   -2.7147   11.0303    1.3402 H   0  0  0  0  0  0  0  0  0  0  0  0
    0.8596    7.3927    1.7010 C   0  0  0  0  0  0  0  0  0  0  0  0
   -2.7725    2.1914   -0.0194 C   0  0  0  0  0  0  0  0  0  0  0  0
    0.5937    8.2914   -1.5090 O   0  0  0  0  0  0  0  0  0  0  0  0
   -0.4610   12.7849    2.1819 C   0  0  1  0  0  0  0  0  0  0  0  0
    1.8956   15.8644   -2.3858 O   0  0  0  0  0  0  0  0  0  0  0  0
    0.2181    2.4532    0.3364 O   0  0  0  0  0  0  0  0  0  0  0  0
    3.3241   16.3729    0.1839 C   0  0  0  0  0  0  0  0  0  0  0  0
   -1.3611   13.3922    2.3081 H   0  0  0  0  0  0  0  0  0  0  0  0
   -1.5022   10.0106    4.1327 C   0  0  2  0  0  0  0  0  0  0  0  0
    0.2081    1.1847   -0.1803 C   0  0  0  0  0  0  0  0  0  0  0  0
    0.5224    7.0609   -0.7551 C   0  0  2  0  0  0  0  0  0  0  0  0
   -3.3585    9.0379    1.3119 C   0  0  2  0  0  0  0  0  0  0  0  0
    0.0331    5.9659   -1.6349 C   0  0  0  0  0  0  0  0  0  0  0  0
   -4.1210    5.8890    1.3053 C   0  0  0  0  0  0  0  0  0  0  0  0
   -1.8098   10.2171    2.8056 O   0  0  0  0  0  0  0  0  0  0  0  0
    0.6900   13.5934    1.7121 C   0  0  2  0  0  0  0  0  0  0  0  0
   -1.9240    7.0886    0.4632 C   0  0  1  0  0  0  0  0  0  0  0  0
    2.2839   15.2795    2.1241 C   0  0  0  0  0  0  0  0  0  0  0  0
   -1.4657    6.1293   -1.8716 C   0  0  2  0  0  0  0  0  0  0  0  0
   -3.4053   10.8016    5.3195 H   0  0  0  0  0  0  0  0  0  0  0  0
   -3.7628    9.4668    4.2732 H   0  0  0  0  0  0  0  0  0  0  0  0
   -1.4783    8.6990   -1.6524 H   0  0  0  0  0  0  0  0  0  0  0  0
   -0.4247    9.9567   -0.9364 H   0  0  0  0  0  0  0  0  0  0  0  0
   -0.4579    9.8071   -2.5503 H   0  0  0  0  0  0  0  0  0  0  0  0
   -3.7393    1.0874   -1.5133 H   0  0  0  0  0  0  0  0  0  0  0  0
   -3.3338   -0.3509    0.5449 H   0  0  0  0  0  0  0  0  0  0  0  0
   -2.9176   -1.1102   -1.0103 H   0  0  0  0  0  0  0  0  0  0  0  0
   -1.6664   -0.5196    0.0517 H   0  0  0  0  0  0  0  0  0  0  0  0
   -0.1599    5.7654    0.8834 H   0  0  0  0  0  0  0  0  0  0  0  0
   -3.1230   12.2225    3.2260 H   0  0  0  0  0  0  0  0  0  0  0  0
   -4.5642   11.4705    2.6390 H   0  0  0  0  0  0  0  0  0  0  0  0
   -0.1089   12.0298    0.0581 H   0  0  0  0  0  0  0  0  0  0  0  0
   -1.5753   11.9388    0.6540 H   0  0  0  0  0  0  0  0  0  0  0  0
    1.1595   10.6070    1.3931 H   0  0  0  0  0  0  0  0  0  0  0  0
    1.8669   14.7611    4.7586 H   0  0  0  0  0  0  0  0  0  0  0  0
    0.5314   13.6797    4.6449 H   0  0  0  0  0  0  0  0  0  0  0  0
    2.1073   13.1678    3.9965 H   0  0  0  0  0  0  0  0  0  0  0  0
    0.4723   14.4275   -2.1866 H   0  0  0  0  0  0  0  0  0  0  0  0
    0.0728   15.9677   -1.4355 H   0  0  0  0  0  0  0  0  0  0  0  0
   -3.7606    3.8522   -0.9805 H   0  0  0  0  0  0  0  0  0  0  0  0
   -2.3258    4.2077    0.0324 H   0  0  0  0  0  0  0  0  0  0  0  0
    1.2516   16.5793    0.7803 H   0  0  0  0  0  0  0  0  0  0  0  0
   -1.2950    4.8483   -3.6140 H   0  0  0  0  0  0  0  0  0  0  0  0
   -2.9479    5.0871   -3.0921 H   0  0  0  0  0  0  0  0  0  0  0  0
   -2.9441    8.0819    3.1448 H   0  0  0  0  0  0  0  0  0  0  0  0
   -4.5252    7.8464    2.6183 H   0  0  0  0  0  0  0  0  0  0  0  0
    0.1563    0.1437   -1.9791 H   0  0  0  0  0  0  0  0  0  0  0  0
   -0.0293    8.9468    0.5086 H   0  0  0  0  0  0  0  0  0  0  0  0
   -0.9341    8.7975    1.9614 H   0  0  0  0  0  0  0  0  0  0  0  0
   -1.3590    9.8880    0.6045 H   0  0  0  0  0  0  0  0  0  0  0  0
    0.2457   15.3283    2.8444 H   0  0  0  0  0  0  0  0  0  0  0  0
   -5.0579    8.8078    0.0042 H   0  0  0  0  0  0  0  0  0  0  0  0
   -5.1741   10.2302    1.0633 H   0  0  0  0  0  0  0  0  0  0  0  0
   -4.0704   10.2374   -0.3071 H   0  0  0  0  0  0  0  0  0  0  0  0
    3.0325   14.0200   -1.0651 H   0  0  0  0  0  0  0  0  0  0  0  0
   -1.1844    7.7731    3.5953 H   0  0  0  0  0  0  0  0  0  0  0  0
   -0.2416    8.2531    4.9439 H   0  0  0  0  0  0  0  0  0  0  0  0
   -1.9714    8.0041    5.0978 H   0  0  0  0  0  0  0  0  0  0  0  0
    1.8636    1.8293   -2.2055 H   0  0  0  0  0  0  0  0  0  0  0  0
    0.6646    2.0516   -3.5167 H   0  0  0  0  0  0  0  0  0  0  0  0
    0.7740    3.1410   -2.1453 H   0  0  0  0  0  0  0  0  0  0  0  0
   -2.2727    6.1042    2.3927 H   0  0  0  0  0  0  0  0  0  0  0  0
    1.7457    6.7683    1.8491 H   0  0  0  0  0  0  0  0  0  0  0  0
    1.3709    8.3110    1.3683 H   0  0  0  0  0  0  0  0  0  0  0  0
    0.4473    7.5509    2.6846 H   0  0  0  0  0  0  0  0  0  0  0  0
   -3.6118    2.1543    0.6805 H   0  0  0  0  0  0  0  0  0  0  0  0
   -1.9150    2.1148    0.6397 H   0  0  0  0  0  0  0  0  0  0  0  0
    2.0681   16.7382   -1.9942 H   0  0  0  0  0  0  0  0  0  0  0  0
    0.1124    2.2830    1.2988 H   0  0  0  0  0  0  0  0  0  0  0  0
    4.1612   16.0862    0.8252 H   0  0  0  0  0  0  0  0  0  0  0  0
    3.5939   16.0332   -0.8142 H   0  0  0  0  0  0  0  0  0  0  0  0
    3.2465   17.4611    0.1736 H   0  0  0  0  0  0  0  0  0  0  0  0
    1.5883    6.8430   -0.5779 H   0  0  0  0  0  0  0  0  0  0  0  0
    0.5969    5.9467   -2.5749 H   0  0  0  0  0  0  0  0  0  0  0  0
    0.2781    5.0411   -1.1047 H   0  0  0  0  0  0  0  0  0  0  0  0
   -3.9315    4.8805    0.9844 H   0  0  0  0  0  0  0  0  0  0  0  0
   -4.7422    5.8016    2.2061 H   0  0  0  0  0  0  0  0  0  0  0  0
   -4.7060    6.4249    0.5490 H   0  0  0  0  0  0  0  0  0  0  0  0
    2.6020   16.0937    2.7752 H   0  0  0  0  0  0  0  0  0  0  0  0
    3.0942   14.5357    2.0881 H   0  0  0  0  0  0  0  0  0  0  0  0
  1 21  1  0  0  0  0
  1 25  1  1  0  0  0
  2  9  1  0  0  0  0
  2 48  1  0  0  0  0
  2 59  1  0  0  0  0
  2 60  1  0  0  0  0
  3 42  1  0  0  0  0
  3 61  1  0  0  0  0
  3 62  1  0  0  0  0
  3 63  1  0  0  0  0
  5 37  1  0  0  0  0
  5  6  1  0  0  0  0
  5 41  1  0  0  0  0
  5 64  1  6  0  0  0
  6 65  1  0  0  0  0
  6 66  1  0  0  0  0
  6 67  1  0  0  0  0
  7 56  1  0  0  0  0
  7 68  1  1  0  0  0
  7 40  1  0  0  0  0
  8 32  1  6  0  0  0
  8 36  1  0  0  0  0
  9 14  1  0  0  0  0
  9 69  1  0  0  0  0
  9 70  1  0  0  0  0
 10 11  1  0  0  0  0
 10 43  1  0  0  0  0
 10 71  1  0  0  0  0
 10 72  1  0  0  0  0
 11 15  1  0  0  0  0
 11 73  1  6  0  0  0
 11 27  1  0  0  0  0
 12 74  1  0  0  0  0
 12 75  1  0  0  0  0
 12 76  1  0  0  0  0
 14 51  1  0  0  0  0
 14 39  1  6  0  0  0
 15 22  1  1  0  0  0
 16  8  1  0  0  0  0
 16 77  1  0  0  0  0
 16 78  1  0  0  0  0
 18 15  1  0  0  0  0
 19  1  1  0  0  0  0
 19 79  1  0  0  0  0
 19 80  1  0  0  0  0
 20 57  1  0  0  0  0
 20  8  1  0  0  0  0
 20 81  1  1  0  0  0
 20 46  1  0  0  0  0
 21 58  1  0  0  0  0
 21 82  1  0  0  0  0
 21 83  1  0  0  0  0
 23 38  1  0  0  0  0
 23 51  1  0  0  0  0
 23 84  1  0  0  0  0
 23 85  1  0  0  0  0
 24  1  1  0  0  0  0
 26 35  1  0  0  0  0
 26 86  1  6  0  0  0
 26 49  1  0  0  0  0
 26 37  1  0  0  0  0
 27 87  1  0  0  0  0
 27 88  1  0  0  0  0
 27 89  1  0  0  0  0
 29 55  1  0  0  0  0
 29 12  1  0  0  0  0
 29 90  1  1  0  0  0
 30 49  2  0  0  0  0
 31 91  1  0  0  0  0
 31 92  1  0  0  0  0
 31 93  1  0  0  0  0
 32 94  1  0  0  0  0
 33 95  1  0  0  0  0
 33 96  1  0  0  0  0
 33 97  1  0  0  0  0
 35 98  1  0  0  0  0
 35 99  1  0  0  0  0
 35100  1  0  0  0  0
 36 55  1  0  0  0  0
 37 17  1  6  0  0  0
 37 24  1  0  0  0  0
 38 56  1  0  0  0  0
 38 53  1  0  0  0  0
 38101  1  1  0  0  0
 40102  1  0  0  0  0
 40103  1  0  0  0  0
 40104  1  0  0  0  0
 41 19  1  0  0  0  0
 41105  1  0  0  0  0
 41106  1  0  0  0  0
 43 18  1  0  0  0  0
 43 55  1  0  0  0  0
 43 47  1  1  0  0  0
 44 16  1  0  0  0  0
 44107  1  0  0  0  0
 45 49  1  0  0  0  0
 45108  1  0  0  0  0
 46109  1  0  0  0  0
 46110  1  0  0  0  0
 46111  1  0  0  0  0
 48 54  1  0  0  0  0
 48 15  1  0  0  0  0
 48 33  1  6  0  0  0
 50  7  1  0  0  0  0
 50112  1  1  0  0  0
 50 42  1  0  0  0  0
 51 31  1  6  0  0  0
 51 28  1  0  0  0  0
 52 50  1  0  0  0  0
 52 58  1  0  0  0  0
 52113  1  0  0  0  0
 52114  1  0  0  0  0
 53115  1  0  0  0  0
 53116  1  0  0  0  0
 53117  1  0  0  0  0
 54 14  1  0  0  0  0
 55 34  1  6  0  0  0
 56  4  1  6  0  0  0
 56 28  1  0  0  0  0
 57 29  1  0  0  0  0
 57118  1  0  0  0  0
 57119  1  0  0  0  0
 58  4  1  0  0  0  0
 58 13  1  6  0  0  0
M  END
>  <DRUGBANK_ID>
DB14056

>  <COMMON_NAME>
Nigericin

>  <CAS_NUMBER>
28380-24-7

>  <UNII>
RRU6GY95IS

>  <SYNONYMS>
Azalomycin M; Helixin C; Polyetherin A

$$$$
