
 OpenBabel10282417213D

 21 17  0  0  0  0  0  0  0  0999 V2000
    1.1912   -0.0193    0.0584 C   0  0  0  0  0  0  0  0  0  0  0  0
    0.6225   -0.9856    1.1307 C   0  0  0  0  0  0  0  0  0  0  0  0
    1.0361   -2.4446    0.9088 C   0  0  0  0  0  0  0  0  0  0  0  0
    2.7686   -0.1289    0.1351 C   0  0  0  0  0  0  0  0  0  0  0  0
    0.6623    1.4258    0.2570 C   0  0  0  0  0  0  0  0  0  0  0  0
    0.9347    2.4201   -0.8686 C   0  0  0  0  0  0  0  0  0  0  0  0
    0.6113   -0.4013   -1.2228 O   0  0  0  0  0  0  0  0  0  0  0  0
    0.5544   -2.9027   -0.1572 O   0  0  0  0  0  0  0  0  0  0  0  0
    1.6121   -2.9803    1.8935 O   0  5  0  0  0  0  0  0  0  0  0  0
    2.1687    2.6632   -1.0798 O   0  0  0  0  0  0  0  0  0  0  0  0
   -0.0402    2.6982   -1.5771 O   0  5  0  0  0  0  0  0  0  0  0  0
    3.3505    0.1859   -0.9374 O   0  5  0  0  0  0  0  0  0  0  0  0
    3.1824   -0.2265    1.3374 O   0  0  0  0  0  0  0  0  0  0  0  0
   -1.0767   -0.6733   -0.8752 Li  0  3  0  0  0  0  0  0  0  0  0  0
    1.4105    0.8031    2.6739 Li  0  3  0  0  0  0  0  0  0  0  0  0
    2.9384    1.4431   -2.0067 Li  0  3  0  0  0  0  0  0  0  0  0  0
    0.9102   -0.7832    2.1630 H   0  0  0  0  0  0  0  0  0  0  0  0
   -0.4709   -0.9720    1.1243 H   0  0  0  0  0  0  0  0  0  0  0  0
   -0.4312    1.3763    0.3227 H   0  0  0  0  0  0  0  0  0  0  0  0
    1.0367    1.9204    1.1520 H   0  0  0  0  0  0  0  0  0  0  0  0
    1.1823   -0.1229   -1.9667 H   0  0  0  0  0  0  0  0  0  0  0  0
  1  7  1  0  0  0  0
  1  2  1  0  0  0  0
  1  4  1  0  0  0  0
  2  3  1  0  0  0  0
  2 17  1  0  0  0  0
  2 18  1  0  0  0  0
  3  9  1  0  0  0  0
  3  8  2  0  0  0  0
  4 12  1  0  0  0  0
  4 13  2  0  0  0  0
  5  1  1  0  0  0  0
  5 19  1  0  0  0  0
  5 20  1  0  0  0  0
  6  5  1  0  0  0  0
  6 11  1  0  0  0  0
  6 10  2  0  0  0  0
  7 21  1  0  0  0  0
M  CHG  6   9  -1  11  -1  12  -1  14   1  15   1  16   1
M  END
>  <DRUGBANK_ID>
DB14507

>  <SECONDARY_ACCESSION_NUMBERS>
DBSALT001430

>  <COMMON_NAME>
Lithium citrate

>  <CAS_NUMBER>
919-16-4

>  <UNII>
3655633623

>  <SYNONYMS>
Anhydrous lithium citrate; Citric acid, trilithium salt; Lithium citrate (anhydrous); Trilithium citrate

$$$$
