
 OpenBabel10282417143D

 36 38  0  0  0  0  0  0  0  0999 V2000
   -0.0401   -0.7287   -0.0012 C   0  0  0  0  0  0  0  0  0  0  0  0
    0.0040    0.6743    0.0030 C   0  0  0  0  0  0  0  0  0  0  0  0
   -1.2174   -1.4143   -0.0152 N   0  0  0  0  0  0  0  0  0  0  0  0
    1.2048   -1.3390    0.0032 C   0  0  0  0  0  0  0  0  0  0  0  0
   -1.1460    1.3971    0.0024 N   0  0  0  0  0  0  0  0  0  0  0  0
    1.1898    1.2944    0.0044 N   0  3  0  0  0  0  0  0  0  0  0  0
   -2.3733   -0.6867   -0.0355 C   0  0  0  0  0  0  0  0  0  0  0  0
    2.3924   -0.7004    0.0032 N   0  0  0  0  0  0  0  0  0  0  0  0
    1.2950   -2.7064    0.0020 O   0  0  0  0  0  0  0  0  0  0  0  0
   -2.3169    0.7007   -0.0137 C   0  0  0  0  0  0  0  0  0  0  0  0
    2.3370    0.6338    0.0034 C   0  0  0  0  0  0  0  0  0  0  0  0
    3.5045    1.3417    0.0008 N   0  0  0  0  0  0  0  0  0  0  0  0
   -3.7164   -1.4076   -0.0420 C   0  0  0  0  0  0  0  0  0  0  0  0
   -3.8720   -2.2567   -1.2171 N   0  0  0  0  0  0  0  0  0  0  0  0
   -4.0318   -3.6258   -1.0827 C   0  0  0  0  0  0  0  0  0  0  0  0
   -4.9410   -4.1722   -0.1760 C   0  0  0  0  0  0  0  0  0  0  0  0
   -5.0833   -5.5584   -0.0468 C   0  0  0  0  0  0  0  0  0  0  0  0
   -4.1930   -6.4324   -0.6843 C   0  0  0  0  0  0  0  0  0  0  0  0
   -4.4119   -7.8981   -0.5054 C   0  0  0  0  0  0  0  0  0  0  0  0
   -5.3675   -8.3296    0.1346 O   0  0  0  0  0  0  0  0  0  0  0  0
   -3.2066   -4.5083   -1.7852 C   0  0  0  0  0  0  0  0  0  0  0  0
   -3.1933   -5.8808   -1.4885 C   0  0  0  0  0  0  0  0  0  0  0  0
   -3.5335   -8.7286   -1.0945 O   0  0  0  0  0  0  0  0  0  0  0  0
    1.1864    2.3037    0.0032 H   0  0  0  0  0  0  0  0  0  0  0  0
    0.3858   -3.0678    0.0135 H   0  0  0  0  0  0  0  0  0  0  0  0
   -3.2183    1.3107   -0.0095 H   0  0  0  0  0  0  0  0  0  0  0  0
    3.6076    2.3439    0.0116 H   0  0  0  0  0  0  0  0  0  0  0  0
    4.3585    0.7888    0.0074 H   0  0  0  0  0  0  0  0  0  0  0  0
   -3.7858   -1.9685    0.8982 H   0  0  0  0  0  0  0  0  0  0  0  0
   -4.5357   -0.6797   -0.0382 H   0  0  0  0  0  0  0  0  0  0  0  0
   -3.6406   -1.8870   -2.1306 H   0  0  0  0  0  0  0  0  0  0  0  0
   -5.6009   -3.5248    0.3958 H   0  0  0  0  0  0  0  0  0  0  0  0
   -5.8976   -5.9500    0.5624 H   0  0  0  0  0  0  0  0  0  0  0  0
   -2.5392   -4.1383   -2.5597 H   0  0  0  0  0  0  0  0  0  0  0  0
   -2.3911   -6.4759   -1.9069 H   0  0  0  0  0  0  0  0  0  0  0  0
   -2.8129   -8.3504   -1.6225 H   0  0  0  0  0  0  0  0  0  0  0  0
  1  2  2  0  0  0  0
  1  3  1  0  0  0  0
  1  4  1  0  0  0  0
  2  5  1  0  0  0  0
  2  6  1  0  0  0  0
  3  7  2  0  0  0  0
  4  8  2  0  0  0  0
  4  9  1  0  0  0  0
  5 10  2  0  0  0  0
  6 11  2  0  0  0  0
  6 24  1  0  0  0  0
  7 13  1  0  0  0  0
  7 10  1  0  0  0  0
  8 11  1  0  0  0  0
  9 25  1  0  0  0  0
 10 26  1  0  0  0  0
 11 12  1  0  0  0  0
 12 27  1  0  0  0  0
 12 28  1  0  0  0  0
 13 14  1  0  0  0  0
 13 29  1  0  0  0  0
 13 30  1  0  0  0  0
 14 15  1  0  0  0  0
 14 31  1  0  0  0  0
 15 16  2  0  0  0  0
 15 21  1  0  0  0  0
 16 17  1  0  0  0  0
 16 32  1  0  0  0  0
 17 18  2  0  0  0  0
 17 33  1  0  0  0  0
 18 19  1  0  0  0  0
 19 23  1  0  0  0  0
 19 20  2  0  0  0  0
 21 22  2  0  0  0  0
 21 34  1  0  0  0  0
 22 18  1  0  0  0  0
 22 35  1  0  0  0  0
 23 36  1  0  0  0  0
M  CHG  1   6   1
M  END
>  <DRUGBANK_ID>
DB04357

>  <SECONDARY_ACCESSION_NUMBERS>
EXPT00546

>  <COMMON_NAME>
Pteric acid

$$$$
