
 OpenBabel10282417153D

 33 35  0  0  0  0  0  0  0  0999 V2000
    0.7806   -0.0148   -0.0220 Cl  0  0  0  0  0  0  0  0  0  0  0  0
    5.9098   -1.5701    0.0052 S   0  0  0  0  0  0  0  0  0  0  0  0
    3.3038    1.5757   -0.0213 S   0  0  0  0  0  0  0  0  0  0  0  0
    6.0903   -2.0262   -1.3387 O   0  0  0  0  0  0  0  0  0  0  0  0
    5.6500   -2.4845    1.1177 O   0  0  0  0  0  0  0  0  0  0  0  0
    6.1088    2.8654   -0.1268 O   0  0  0  0  0  0  0  0  0  0  0  0
    8.8173    2.6369   -0.0002 O   0  0  0  0  0  0  0  0  0  0  0  0
    7.1367   -0.5671    0.4919 N   0  0  0  0  0  0  0  0  0  0  0  0
   10.0347    0.7354   -0.2510 N   0  0  0  0  0  0  0  0  0  0  0  0
   11.1273   -1.2709    0.5305 N   0  0  0  0  0  0  0  0  0  0  0  0
    4.6173   -0.5328   -0.0235 C   0  0  0  0  0  0  0  0  0  0  0  0
    4.8610    0.8270   -0.0334 C   0  0  0  0  0  0  0  0  0  0  0  0
    7.3337    0.7502   -0.0635 C   0  0  0  0  0  0  0  0  0  0  0  0
    6.1697    1.4834   -0.0841 C   0  0  0  0  0  0  0  0  0  0  0  0
    3.3080   -1.0067   -0.0235 C   0  0  0  0  0  0  0  0  0  0  0  0
    2.4884    0.0740   -0.0211 C   0  0  0  0  0  0  0  0  0  0  0  0
    8.7833    1.3995   -0.1416 C   0  0  0  0  0  0  0  0  0  0  0  0
    8.2030   -1.3851    0.8689 C   0  0  0  0  0  0  0  0  0  0  0  0
   10.4398   -0.6401   -0.4814 C   0  0  0  0  0  0  0  0  0  0  0  0
    9.7947   -1.4047   -1.4498 C   0  0  0  0  0  0  0  0  0  0  0  0
   10.9903   -2.6445    0.6743 C   0  0  0  0  0  0  0  0  0  0  0  0
    9.6960   -2.8206   -1.2947 C   0  0  0  0  0  0  0  0  0  0  0  0
   10.2573   -3.4510   -0.1832 C   0  0  0  0  0  0  0  0  0  0  0  0
    7.0127    3.2307   -0.0075 H   0  0  0  0  0  0  0  0  0  0  0  0
   10.7845    1.2975    0.1494 H   0  0  0  0  0  0  0  0  0  0  0  0
    3.0496   -2.0625   -0.0173 H   0  0  0  0  0  0  0  0  0  0  0  0
    8.1403   -2.0502    1.7093 H   0  0  0  0  0  0  0  0  0  0  0  0
    8.2417   -2.0226    0.0025 H   0  0  0  0  0  0  0  0  0  0  0  0
    8.9918   -0.7166    1.1092 H   0  0  0  0  0  0  0  0  0  0  0  0
    9.0963   -0.9107   -2.1168 H   0  0  0  0  0  0  0  0  0  0  0  0
   11.3872   -3.0833    1.5945 H   0  0  0  0  0  0  0  0  0  0  0  0
    8.8943   -3.3466   -1.8257 H   0  0  0  0  0  0  0  0  0  0  0  0
    9.9924   -4.4793    0.0775 H   0  0  0  0  0  0  0  0  0  0  0  0
  1 16  1  0  0  0  0
  2  4  2  0  0  0  0
  2  5  2  0  0  0  0
  2  8  1  0  0  0  0
  2 11  1  0  0  0  0
  3 12  1  0  0  0  0
  3 16  1  0  0  0  0
  6 14  1  0  0  0  0
  6 24  1  0  0  0  0
  7 17  2  0  0  0  0
  8 13  1  0  0  0  0
  8 18  1  0  0  0  0
  9 17  1  0  0  0  0
  9 19  1  0  0  0  0
  9 25  1  0  0  0  0
 10 19  1  0  0  0  0
 10 21  2  0  0  0  0
 11 12  2  0  0  0  0
 11 15  1  0  0  0  0
 12 14  1  0  0  0  0
 13 14  2  0  0  0  0
 13 17  1  0  0  0  0
 15 16  2  0  0  0  0
 15 26  1  0  0  0  0
 18 27  1  0  0  0  0
 18 28  1  0  0  0  0
 18 29  1  0  0  0  0
 19 20  2  0  0  0  0
 20 22  1  0  0  0  0
 20 30  1  0  0  0  0
 21 23  1  0  0  0  0
 21 31  1  0  0  0  0
 22 23  2  0  0  0  0
 22 32  1  0  0  0  0
 23 33  1  0  0  0  0
M  END
>  <DRUGBANK_ID>
DB06725

>  <COMMON_NAME>
Lornoxicam

>  <CAS_NUMBER>
70374-39-9

>  <UNII>
ER09126G7A

>  <SYNONYMS>
Chlortenoxicam; Lornoxicam; Lornoxicamum

$$$$
