U49
 OpenBabel10282417173D

 54 59  0  0  0  0  0  0  0  0999 V2000
   -1.4931    0.1269    0.3463 C   0  0  0  0  0  0  0  0  0  0  0  0
   -2.9670    0.9452    1.1980 C   0  0  0  0  0  0  0  0  0  0  0  0
   -0.3283    1.2593   -0.4990 C   0  0  0  0  0  0  0  0  0  0  0  0
   -1.4268   -1.3266   -0.0888 C   0  0  0  0  0  0  0  0  0  0  0  0
   -4.9449    1.6448    0.8551 N   0  0  0  0  0  0  0  0  0  0  0  0
   -0.8823    0.5263    1.2071 C   0  0  0  0  0  0  0  0  0  0  0  0
   -1.3594    1.9966   -0.6636 C   0  0  0  0  0  0  0  0  0  0  0  0
    0.9584    1.6390   -0.1299 C   0  0  0  0  0  0  0  0  0  0  0  0
   -2.5085   -0.8721   -0.6177 C   0  0  0  0  0  0  0  0  0  0  0  0
   -7.1194    2.3403    0.9018 C   0  0  0  0  0  0  0  0  0  0  0  0
   -6.5108    2.0595    1.7808 C   0  0  0  0  0  0  0  0  0  0  0  0
    0.9949    0.5753    0.6089 C   0  0  0  0  0  0  0  0  0  0  0  0
   -2.4430    0.8087   -1.1903 C   0  0  0  0  0  0  0  0  0  0  0  0
   -3.6089   -1.5185   -0.0259 O   0  0  0  0  0  0  0  0  0  0  0  0
   -9.2191    2.1104    1.2651 C   0  0  0  0  0  0  0  0  0  0  0  0
   -8.2567    1.1841    1.1593 C   0  0  1  0  0  0  0  0  0  0  0  0
   -4.7710   -0.8623   -0.1629 C   0  0  0  0  0  0  0  0  0  0  0  0
   -5.6243   -0.9109    0.8978 C   0  0  0  0  0  0  0  0  0  0  0  0
   -5.0400   -0.1786   -1.3995 C   0  0  0  0  0  0  0  0  0  0  0  0
   -9.1318    2.0400   -1.2792 C   0  0  0  0  0  0  0  0  0  0  0  0
   -6.7549   -0.3224    0.5811 C   0  0  0  0  0  0  0  0  0  0  0  0
   -5.4031   -1.5139    2.1690 C   0  0  0  0  0  0  0  0  0  0  0  0
   -5.9699    0.7465   -1.5568 C   0  0  0  0  0  0  0  0  0  0  0  0
   -8.7743    1.6668   -2.6322 C   0  0  0  0  0  0  0  0  0  0  0  0
   -6.7540    0.6172   -0.5405 C   0  0  0  0  0  0  0  0  0  0  0  0
   -5.2201   -2.0370    3.1883 N   0  0  0  0  0  0  0  0  0  0  0  0
   -6.2308    1.7931   -2.5548 C   0  0  0  0  0  0  0  0  0  0  0  0
   -7.5206    1.5889   -3.1851 N   0  0  0  0  0  0  0  0  0  0  0  0
   -9.6419    1.3612   -3.6364 C   0  0  0  0  0  0  0  0  0  0  0  0
   -7.6901    1.2281   -4.4828 C   0  0  0  0  0  0  0  0  0  0  0  0
   -8.9623    1.0878   -4.7803 N   0  0  0  0  0  0  0  0  0  0  0  0
   -6.5073    2.9641    2.6715 O   0  0  0  0  0  0  0  0  0  0  0  0
   -8.9923    0.9409   -0.2731 N   0  0  0  0  0  0  0  0  0  0  0  0
   -8.5917    0.5795    1.9398 H   0  0  0  0  0  0  0  0  0  0  0  0
   -1.1966   -2.3603    0.3710 H   0  0  0  0  0  0  0  0  0  0  0  0
    0.2248   -0.4225    0.5395 H   0  0  0  0  0  0  0  0  0  0  0  0
   -1.4242    2.5345    0.4432 H   0  0  0  0  0  0  0  0  0  0  0  0
    1.3660    2.6309    0.0321 H   0  0  0  0  0  0  0  0  0  0  0  0
   -8.1443    3.2171    1.5748 H   0  0  0  0  0  0  0  0  0  0  0  0
   -8.2409    3.1575    0.4010 H   0  0  0  0  0  0  0  0  0  0  0  0
    2.3998    0.9088    0.1385 H   0  0  0  0  0  0  0  0  0  0  0  0
   -3.3831    1.2360   -0.9380 H   0  0  0  0  0  0  0  0  0  0  0  0
  -10.1633    1.7045    2.1685 H   0  0  0  0  0  0  0  0  0  0  0  0
  -10.4442    1.6513    0.5812 H   0  0  0  0  0  0  0  0  0  0  0  0
   -4.4017   -0.2680   -2.2382 H   0  0  0  0  0  0  0  0  0  0  0  0
   -8.6588    3.0274   -1.1094 H   0  0  0  0  0  0  0  0  0  0  0  0
  -10.1847    2.1700   -1.1739 H   0  0  0  0  0  0  0  0  0  0  0  0
   -7.5501   -0.4876    1.2975 H   0  0  0  0  0  0  0  0  0  0  0  0
   -7.2807    1.5761   -0.6805 H   0  0  0  0  0  0  0  0  0  0  0  0
   -6.2284    2.8190   -2.1504 H   0  0  0  0  0  0  0  0  0  0  0  0
   -5.4366    1.6808   -3.2675 H   0  0  0  0  0  0  0  0  0  0  0  0
  -10.7172    1.3381   -3.5287 H   0  0  0  0  0  0  0  0  0  0  0  0
   -6.8562    1.0831   -5.1523 H   0  0  0  0  0  0  0  0  0  0  0  0
   -8.8008    0.0104   -0.5988 H   0  0  0  0  0  0  0  0  0  0  0  0
  1  2  2  0  0  0  0
  1  3  1  0  0  0  0
  1  4  1  0  0  0  0
  2  5  1  0  0  0  0
  2  6  1  0  0  0  0
  3  7  1  0  0  0  0
  3  8  2  0  0  0  0
  4  9  2  0  0  0  0
  4 35  1  0  0  0  0
  5 10  1  0  0  0  0
  5 11  1  0  0  0  0
  6 12  2  0  0  0  0
  6 36  1  0  0  0  0
  7 13  2  0  0  0  0
  7 37  1  0  0  0  0
  8 12  1  0  0  0  0
  8 38  1  0  0  0  0
  9 13  1  0  0  0  0
  9 14  1  0  0  0  0
 10 15  1  0  0  0  0
 10 39  1  0  0  0  0
 10 40  1  0  0  0  0
 11 16  1  0  0  0  0
 11 32  2  0  0  0  0
 12 41  1  0  0  0  0
 13 42  1  0  0  0  0
 14 17  1  0  0  0  0
 15 16  1  0  0  0  0
 15 43  1  0  0  0  0
 15 44  1  0  0  0  0
 16 33  1  0  0  0  0
 16 34  1  1  0  0  0
 17 18  2  0  0  0  0
 17 19  1  0  0  0  0
 18 21  1  0  0  0  0
 18 22  1  0  0  0  0
 19 23  2  0  0  0  0
 19 45  1  0  0  0  0
 20 24  1  0  0  0  0
 20 33  1  0  0  0  0
 20 46  1  0  0  0  0
 20 47  1  0  0  0  0
 21 25  2  0  0  0  0
 21 48  1  0  0  0  0
 22 26  3  0  0  0  0
 23 25  1  0  0  0  0
 23 27  1  0  0  0  0
 24 28  1  0  0  0  0
 24 29  2  0  0  0  0
 25 49  1  0  0  0  0
 27 28  1  0  0  0  0
 27 50  1  0  0  0  0
 27 51  1  0  0  0  0
 28 30  1  0  0  0  0
 29 31  1  0  0  0  0
 29 52  1  0  0  0  0
 30 31  2  0  0  0  0
 30 53  1  0  0  0  0
 33 54  1  0  0  0  0
M  END
>  <DRUGBANK_ID>
DB08674

>  <COMMON_NAME>
(20S)-19,20,21,22-TETRAHYDRO-19-OXO-5H-18,20-ETHANO-12,14-ETHENO-6,10-METHENO-18H-BENZ[D]IMIDAZO[4,3-K][1,6,9,12]OXATRIAZA-CYCLOOCTADECOSINE-9-CARBONITRILE

$$$$
