ST2
 OpenBabel10282417173D

 25 25  0  0  0  0  0  0  0  0999 V2000
    0.8580    0.0578   -0.0718 C   0  0  0  0  0  0  0  0  0  0  0  0
    0.1766   -0.9630   -0.0692 O   0  0  0  0  0  0  0  0  0  0  0  0
    0.3012    1.2712   -0.0865 O   0  0  0  0  0  0  0  0  0  0  0  0
    2.3301    0.0904   -0.0678 C   0  0  0  0  0  0  0  0  0  0  0  0
    3.1151    1.2481   -0.0872 C   0  0  0  0  0  0  0  0  0  0  0  0
    4.5336    1.1791   -0.1129 C   0  0  0  0  0  0  0  0  0  0  0  0
    5.2265    2.3935   -0.0650 N   0  0  0  0  0  0  0  0  0  0  0  0
    5.1758   -0.0990   -0.1019 C   0  0  0  0  0  0  0  0  0  0  0  0
    6.6107   -0.1546   -0.1023 N   0  0  0  0  0  0  0  0  0  0  0  0
    7.5345   -1.1756   -0.1007 C   0  0  0  0  0  0  0  0  0  0  0  0
    8.7387   -0.8984   -0.1001 O   0  0  0  0  0  0  0  0  0  0  0  0
    7.1315   -2.6124   -0.1041 C   0  0  0  0  0  0  0  0  0  0  0  0
    4.3268   -1.2268   -0.1018 C   0  0  0  0  0  0  0  0  0  0  0  0
    4.7646   -2.5037   -0.1807 O   0  0  0  0  0  0  0  0  0  0  0  0
    2.9473   -1.1408   -0.0658 C   0  0  0  0  0  0  0  0  0  0  0  0
   -0.6616    1.0840   -0.0901 H   0  0  0  0  0  0  0  0  0  0  0  0
    2.6156    2.2144   -0.0931 H   0  0  0  0  0  0  0  0  0  0  0  0
    6.2238    2.4597   -0.1924 H   0  0  0  0  0  0  0  0  0  0  0  0
    4.7103    3.2647   -0.1412 H   0  0  0  0  0  0  0  0  0  0  0  0
    7.0849    0.7382   -0.0919 H   0  0  0  0  0  0  0  0  0  0  0  0
    6.5751   -2.8021    0.8217 H   0  0  0  0  0  0  0  0  0  0  0  0
    6.6127   -2.8023   -1.0509 H   0  0  0  0  0  0  0  0  0  0  0  0
    7.9499   -3.3287   -0.0922 H   0  0  0  0  0  0  0  0  0  0  0  0
    4.0878   -3.1894   -0.1004 H   0  0  0  0  0  0  0  0  0  0  0  0
    2.3588   -2.0546   -0.0593 H   0  0  0  0  0  0  0  0  0  0  0  0
  1  2  2  0  0  0  0
  1  3  1  0  0  0  0
  1  4  1  0  0  0  0
  3 16  1  0  0  0  0
  4  5  2  0  0  0  0
  4 15  1  0  0  0  0
  5  6  1  0  0  0  0
  5 17  1  0  0  0  0
  6  7  1  0  0  0  0
  6  8  2  0  0  0  0
  7 18  1  0  0  0  0
  7 19  1  0  0  0  0
  8  9  1  0  0  0  0
  8 13  1  0  0  0  0
  9 10  1  0  0  0  0
  9 20  1  0  0  0  0
 10 11  2  0  0  0  0
 10 12  1  0  0  0  0
 12 21  1  0  0  0  0
 12 22  1  0  0  0  0
 12 23  1  0  0  0  0
 13 14  1  0  0  0  0
 13 15  2  0  0  0  0
 14 24  1  0  0  0  0
 15 25  1  0  0  0  0
M  END
>  <DRUGBANK_ID>
DB08571

>  <COMMON_NAME>
4-(ACETYLAMINO)-5-AMINO-3-HYDROXYBENZOIC ACID

$$$$
