
 OpenBabel10282417203D

 24 25  0  0  0  0  0  0  0  0999 V2000
    0.0615    0.7192   -0.0357 C   0  0  0  0  0  0  0  0  0  0  0  0
    0.0705   -0.7075   -0.0187 C   0  0  0  0  0  0  0  0  0  0  0  0
   -1.1869    1.3808   -0.0574 C   0  0  0  0  0  0  0  0  0  0  0  0
    1.3127    1.3879   -0.0085 C   0  0  0  0  0  0  0  0  0  0  0  0
   -1.1642   -1.3899   -0.0077 C   0  0  0  0  0  0  0  0  0  0  0  0
    1.3236   -1.3696   -0.0105 C   0  0  0  0  0  0  0  0  0  0  0  0
   -2.3396    0.6744   -0.0340 N   0  0  0  0  0  0  0  0  0  0  0  0
   -1.2612    2.7868   -0.2598 N   0  0  0  0  0  0  0  0  0  0  0  0
    2.5260    0.7035    0.0371 C   0  0  0  0  0  0  0  0  0  0  0  0
   -2.3286   -0.7050    0.0036 N   0  0  0  0  0  0  0  0  0  0  0  0
   -1.1951   -2.8111    0.1605 N   0  0  0  0  0  0  0  0  0  0  0  0
    2.5317   -0.6810    0.0252 C   0  0  0  0  0  0  0  0  0  0  0  0
   -2.4971    3.4511   -0.1179 N   0  0  0  0  0  0  0  0  0  0  0  0
   -2.4312   -3.4793   -0.0102 N   0  0  0  0  0  0  0  0  0  0  0  0
    1.3694    2.4747    0.0017 H   0  0  0  0  0  0  0  0  0  0  0  0
    1.3854   -2.4564   -0.0250 H   0  0  0  0  0  0  0  0  0  0  0  0
   -0.4316    3.3227   -0.0289 H   0  0  0  0  0  0  0  0  0  0  0  0
    3.4631    1.2507    0.0844 H   0  0  0  0  0  0  0  0  0  0  0  0
   -0.4178   -3.2718   -0.3080 H   0  0  0  0  0  0  0  0  0  0  0  0
    3.4700   -1.2274    0.0523 H   0  0  0  0  0  0  0  0  0  0  0  0
   -2.6941    3.9604   -0.9835 H   0  0  0  0  0  0  0  0  0  0  0  0
   -3.2545    2.7574   -0.0543 H   0  0  0  0  0  0  0  0  0  0  0  0
   -2.5849   -4.0915    0.7949 H   0  0  0  0  0  0  0  0  0  0  0  0
   -3.1991   -2.7966    0.0335 H   0  0  0  0  0  0  0  0  0  0  0  0
  1  2  1  0  0  0  0
  1  3  2  0  0  0  0
  1  4  1  0  0  0  0
  2  5  2  0  0  0  0
  2  6  1  0  0  0  0
  3  7  1  0  0  0  0
  3  8  1  0  0  0  0
  4  9  2  0  0  0  0
  4 15  1  0  0  0  0
  5 10  1  0  0  0  0
  5 11  1  0  0  0  0
  6 12  2  0  0  0  0
  6 16  1  0  0  0  0
  7 10  2  0  0  0  0
  8 13  1  0  0  0  0
  8 17  1  0  0  0  0
  9 12  1  0  0  0  0
  9 18  1  0  0  0  0
 11 14  1  0  0  0  0
 11 19  1  0  0  0  0
 12 20  1  0  0  0  0
 13 21  1  0  0  0  0
 13 22  1  0  0  0  0
 14 23  1  0  0  0  0
 14 24  1  0  0  0  0
M  END
>  <DRUGBANK_ID>
DB12945

>  <COMMON_NAME>
Dihydralazine

>  <CAS_NUMBER>
484-23-1

>  <UNII>
PCU411F5L6

>  <SYNONYMS>
Dihidralazina; Dihydralazine; Dihydralazinum; Dihydrallazin; Dihydrazinophthalazine

$$$$
