
 OpenBabel10282417153D

 53 56  0  0  1  0  0  0  0  0999 V2000
   -4.0509    1.8732    5.5695 O   0  0  0  0  0  0  0  0  0  0  0  0
   -5.6725   -4.3318    0.6340 O   0  0  0  0  0  0  0  0  0  0  0  0
   -6.4234   -3.3330    1.2031 N   0  0  0  0  0  0  0  0  0  0  0  0
   -1.2503    1.4906    4.4343 C   0  0  1  0  0  0  0  0  0  0  0  0
   -1.1565    0.8650    5.7304 C   0  0  2  0  0  0  0  0  0  0  0  0
   -1.7172   -0.4635    4.8666 C   0  0  1  0  0  0  0  0  0  0  0  0
   -1.0332   -1.5960    3.2861 C   0  0  2  0  0  0  0  0  0  0  0  0
   -3.4177    1.9512    4.2695 C   0  0  2  0  0  0  0  0  0  0  0  0
    0.3094    0.1013    4.2489 C   0  0  0  0  0  0  0  0  0  0  0  0
   -1.5213    2.3206    6.0003 C   0  0  0  0  0  0  0  0  0  0  0  0
    0.3162   -0.9070    2.9429 C   0  0  0  0  0  0  0  0  0  0  0  0
   -2.7333   -2.0479    2.1706 C   0  0  2  0  0  0  0  0  0  0  0  0
   -2.3819    3.0561    4.6872 C   0  0  0  0  0  0  0  0  0  0  0  0
   -3.8356   -0.5534    4.7531 C   0  0  0  0  0  0  0  0  0  0  0  0
    0.3377    2.3189    3.8710 C   0  0  0  0  0  0  0  0  0  0  0  0
   -4.3792    0.1007    2.6774 C   0  0  0  0  0  0  0  0  0  0  0  0
   -3.6898   -1.0429    1.3757 C   0  0  0  0  0  0  0  0  0  0  0  0
   -4.6173   -1.9692    2.9888 C   0  0  0  0  0  0  0  0  0  0  0  0
    0.3963    2.1525    2.3689 C   0  0  0  0  0  0  0  0  0  0  0  0
   -2.9347    0.6125    3.7358 C   0  0  0  0  0  0  0  0  0  0  0  0
   -6.0708   -1.2730    2.0732 C   0  0  0  0  0  0  0  0  0  0  0  0
   -4.3203   -2.0487    0.6560 C   0  0  0  0  0  0  0  0  0  0  0  0
   -5.7108   -2.2772    1.1614 C   0  0  0  0  0  0  0  0  0  0  0  0
   -2.5204   -0.5359    3.2779 C   0  0  0  0  0  0  0  0  0  0  0  0
   -1.2382    0.1061    6.5057 H   0  0  0  0  0  0  0  0  0  0  0  0
   -1.1673    0.1779    3.5783 H   0  0  0  0  0  0  0  0  0  0  0  0
   -0.8299   -2.3923    3.9203 H   0  0  0  0  0  0  0  0  0  0  0  0
   -2.1486   -2.3046    1.2478 H   0  0  0  0  0  0  0  0  0  0  0  0
   -4.4891    2.7204    5.7558 H   0  0  0  0  0  0  0  0  0  0  0  0
   -6.3631   -4.9663    0.4205 H   0  0  0  0  0  0  0  0  0  0  0  0
    1.4056    0.2863    4.3893 H   0  0  0  0  0  0  0  0  0  0  0  0
    0.3531   -0.6784    5.0751 H   0  0  0  0  0  0  0  0  0  0  0  0
   -0.5876    2.9116    6.1318 H   0  0  0  0  0  0  0  0  0  0  0  0
   -2.1055    2.2916    6.8995 H   0  0  0  0  0  0  0  0  0  0  0  0
    0.7567   -0.4319    2.0506 H   0  0  0  0  0  0  0  0  0  0  0  0
    1.0061   -1.7670    2.9652 H   0  0  0  0  0  0  0  0  0  0  0  0
   -1.8002    3.3117    3.7633 H   0  0  0  0  0  0  0  0  0  0  0  0
   -2.7478    4.0069    5.0406 H   0  0  0  0  0  0  0  0  0  0  0  0
   -4.5254    0.0499    5.3065 H   0  0  0  0  0  0  0  0  0  0  0  0
   -3.6627   -1.5115    5.1960 H   0  0  0  0  0  0  0  0  0  0  0  0
    0.5247    3.2885    4.3148 H   0  0  0  0  0  0  0  0  0  0  0  0
    1.3932    1.9172    4.1420 H   0  0  0  0  0  0  0  0  0  0  0  0
   -3.6910    0.9540    2.0842 H   0  0  0  0  0  0  0  0  0  0  0  0
   -5.1847    0.8398    2.6436 H   0  0  0  0  0  0  0  0  0  0  0  0
   -5.1919   -1.0877    3.6302 H   0  0  0  0  0  0  0  0  0  0  0  0
   -4.7988   -2.4132    3.9675 H   0  0  0  0  0  0  0  0  0  0  0  0
   -0.6369    2.0194    2.1003 H   0  0  0  0  0  0  0  0  0  0  0  0
    0.8801    2.9490    1.8252 H   0  0  0  0  0  0  0  0  0  0  0  0
    0.9511    1.2840    2.0108 H   0  0  0  0  0  0  0  0  0  0  0  0
   -6.0560   -0.2811    1.5380 H   0  0  0  0  0  0  0  0  0  0  0  0
   -7.0092   -1.2542    2.6371 H   0  0  0  0  0  0  0  0  0  0  0  0
   -3.7906   -3.0496    0.7283 H   0  0  0  0  0  0  0  0  0  0  0  0
   -2.6697   -1.5901    3.7901 H   0  0  0  0  0  0  0  0  0  0  0  0
  1 29  1  0  0  0  0
  2  3  1  0  0  0  0
  2 30  1  0  0  0  0
  3 23  2  3  0  0  0
  4  5  1  0  0  0  0
  4  8  1  0  0  0  0
  4  9  1  0  0  0  0
  4 15  1  6  0  0  0
  5  6  1  0  0  0  0
  5 10  1  0  0  0  0
  5 25  1  1  0  0  0
  6  7  1  0  0  0  0
  6 14  1  0  0  0  0
  6 26  1  6  0  0  0
  7 11  1  0  0  0  0
  7 12  1  0  0  0  0
  7 27  1  1  0  0  0
  8  1  1  0  0  0  0
  8 13  1  0  0  0  0
  8 20  1  6  0  0  0
  9 11  1  0  0  0  0
  9 31  1  0  0  0  0
  9 32  1  0  0  0  0
 10 13  1  0  0  0  0
 10 33  1  0  0  0  0
 10 34  1  0  0  0  0
 11 35  1  0  0  0  0
 11 36  1  0  0  0  0
 12 17  1  0  0  0  0
 12 18  1  0  0  0  0
 12 28  1  6  0  0  0
 13 37  1  0  0  0  0
 13 38  1  0  0  0  0
 14 16  1  0  0  0  0
 14 39  1  0  0  0  0
 14 40  1  0  0  0  0
 15 19  1  0  0  0  0
 15 41  1  0  0  0  0
 15 42  1  0  0  0  0
 16 17  1  0  0  0  0
 16 43  1  0  0  0  0
 16 44  1  0  0  0  0
 17 22  2  0  0  0  0
 18 21  1  0  0  0  0
 18 45  1  0  0  0  0
 18 46  1  0  0  0  0
 19 47  1  0  0  0  0
 19 48  1  0  0  0  0
 19 49  1  0  0  0  0
 20 24  3  0  0  0  0
 21 23  1  0  0  0  0
 21 50  1  0  0  0  0
 21 51  1  0  0  0  0
 22 23  1  0  0  0  0
 22 52  1  0  0  0  0
 24 53  1  0  0  0  0
M  END
>  <DRUGBANK_ID>
DB06713

>  <COMMON_NAME>
Norelgestromin

>  <CAS_NUMBER>
53016-31-2

>  <UNII>
R0TAY3X631

>  <SYNONYMS>
17-Deacetylnorgestimate; 17-Deacylnorgestimate; 18-Methylnorethindrone oxime; D-Norgestrel 3-oxime; Deacetylnorgestimate; Levonorgestrel 3-oxime; Levonorgestrel oxime; Norelgestromin; Norelgestromina; Norplant 3-oxime

$$$$
