
 OpenBabel10282417203D

 82 84  0  0  0  0  0  0  0  0999 V2000
    0.8691   -5.7867    0.1751 C   0  0  1  0  0  0  0  0  0  0  0  0
    1.3583   -5.4626   -1.2660 C   0  0  1  0  0  0  0  0  0  0  0  0
    0.3360   -4.6994   -2.2507 C   0  0  2  0  0  0  0  0  0  0  0  0
   -1.2130   -4.7560   -2.0177 C   0  0  1  0  0  0  0  0  0  0  0  0
   -1.5991   -5.1783   -0.5154 C   0  0  2  0  0  0  0  0  0  0  0  0
   -0.6478   -6.1077    0.2939 C   0  0  0  0  0  0  0  0  0  0  0  0
    1.8035   -6.3977    1.2527 N   0  0  0  0  0  0  0  0  0  0  0  0
    2.5636   -4.6336   -1.0614 O   0  0  0  0  0  0  0  0  0  0  0  0
    0.6729   -4.5161   -3.6353 O   0  0  0  0  0  0  0  0  0  0  0  0
   -1.8921   -3.5010   -2.6088 O   0  0  0  0  0  0  0  0  0  0  0  0
   -3.0339   -5.3370   -0.1828 N   0  0  0  0  0  0  0  0  0  0  0  0
    2.4052   -5.8652    2.4452 C   0  0  0  0  0  0  0  0  0  0  0  0
    3.3614   -6.7583    3.2143 C   0  0  1  0  0  0  0  0  0  0  0  0
    2.3330   -4.7800    2.9192 O   0  0  0  0  0  0  0  0  0  0  0  0
    4.7062   -6.2699    3.1210 O   0  0  0  0  0  0  0  0  0  0  0  0
    2.8850   -6.6587    4.6950 C   0  0  0  0  0  0  0  0  0  0  0  0
    1.5354   -7.2173    4.9281 N   0  0  0  0  0  0  0  0  0  0  0  0
   -1.4447   -2.1266   -2.2722 C   0  0  2  0  0  0  0  0  0  0  0  0
   -2.2932   -0.8812   -2.5953 C   0  0  1  0  0  0  0  0  0  0  0  0
   -1.6047    0.3903   -1.9967 C   0  0  2  0  0  0  0  0  0  0  0  0
   -0.1389    0.6041   -2.5308 C   0  0  1  0  0  0  0  0  0  0  0  0
    0.7314   -0.5388   -2.1091 C   0  0  2  0  0  0  0  0  0  0  0  0
   -0.0482   -1.7997   -2.6115 O   0  0  0  0  0  0  0  0  0  0  0  0
    1.1486    0.0563   -0.5509 C   0  0  0  0  0  0  0  0  0  0  0  0
    2.0114   -0.4885    0.4907 N   0  0  0  0  0  0  0  0  0  0  0  0
   -0.0212    0.6667   -3.9463 O   0  0  0  0  0  0  0  0  0  0  0  0
   -1.8062    0.5045   -0.5783 O   0  0  0  0  0  0  0  0  0  0  0  0
   -2.3383   -0.7303   -4.0073 O   0  0  0  0  0  0  0  0  0  0  0  0
    2.4803   -3.3350   -0.3642 C   0  0  2  0  0  0  0  0  0  0  0  0
    2.4108   -3.2460    1.2075 C   0  0  1  0  0  0  0  0  0  0  0  0
    0.6302   -3.2510    1.8983 C   0  0  2  0  0  0  0  0  0  0  0  0
   -0.3508   -2.3176    1.1545 C   0  0  1  0  0  0  0  0  0  0  0  0
    0.2258   -2.5144   -0.1921 C   0  0  0  0  0  0  0  0  0  0  0  0
    1.4979   -2.4811   -0.7795 O   0  0  0  0  0  0  0  0  0  0  0  0
    3.6130   -4.0727    1.3709 O   0  0  0  0  0  0  0  0  0  0  0  0
    0.0183   -3.2650    3.2610 N   0  0  0  0  0  0  0  0  0  0  0  0
   -1.9878   -2.4937    1.0502 C   0  0  0  0  0  0  0  0  0  0  0  0
   -0.3231   -1.0112    1.6907 O   0  0  0  0  0  0  0  0  0  0  0  0
   -0.0978   -4.6313    3.7529 C   0  0  0  0  0  0  0  0  0  0  0  0
   -1.6816   -2.1521   -1.2409 H   0  0  0  0  0  0  0  0  0  0  0  0
    3.4429   -2.8804   -0.6782 H   0  0  0  0  0  0  0  0  0  0  0  0
    1.0252   -4.8058    0.4694 H   0  0  0  0  0  0  0  0  0  0  0  0
    1.6604   -6.3948   -1.7421 H   0  0  0  0  0  0  0  0  0  0  0  0
    0.5975   -3.7129   -2.0298 H   0  0  0  0  0  0  0  0  0  0  0  0
   -1.6208   -5.5717   -2.6238 H   0  0  0  0  0  0  0  0  0  0  0  0
   -1.4153   -4.3384    0.0854 H   0  0  0  0  0  0  0  0  0  0  0  0
   -0.8432   -7.1570    0.1147 H   0  0  0  0  0  0  0  0  0  0  0  0
   -0.9587   -5.9474    1.3332 H   0  0  0  0  0  0  0  0  0  0  0  0
    1.9163   -7.3883    1.1716 H   0  0  0  0  0  0  0  0  0  0  0  0
    0.6328   -3.5295   -3.7677 H   0  0  0  0  0  0  0  0  0  0  0  0
   -3.5757   -4.5772   -0.6144 H   0  0  0  0  0  0  0  0  0  0  0  0
   -3.1857   -5.1784    0.8241 H   0  0  0  0  0  0  0  0  0  0  0  0
    3.3272   -7.7571    2.8046 H   0  0  0  0  0  0  0  0  0  0  0  0
    4.7988   -5.7400    2.3036 H   0  0  0  0  0  0  0  0  0  0  0  0
    3.5897   -7.1943    5.3309 H   0  0  0  0  0  0  0  0  0  0  0  0
    2.9110   -5.6164    5.0660 H   0  0  0  0  0  0  0  0  0  0  0  0
    1.2599   -6.9764    5.8820 H   0  0  0  0  0  0  0  0  0  0  0  0
    0.8575   -6.7185    4.3585 H   0  0  0  0  0  0  0  0  0  0  0  0
   -3.3064   -0.9801   -2.1767 H   0  0  0  0  0  0  0  0  0  0  0  0
   -2.1368    1.2632   -2.3627 H   0  0  0  0  0  0  0  0  0  0  0  0
    0.2907    1.5267   -2.1304 H   0  0  0  0  0  0  0  0  0  0  0  0
    1.6877   -0.6502   -2.6445 H   0  0  0  0  0  0  0  0  0  0  0  0
    1.5658    1.0530   -0.6114 H   0  0  0  0  0  0  0  0  0  0  0  0
    0.2236    0.1598   -0.0324 H   0  0  0  0  0  0  0  0  0  0  0  0
    1.4358   -0.6458    1.3435 H   0  0  0  0  0  0  0  0  0  0  0  0
    2.1312   -1.4172    0.1424 H   0  0  0  0  0  0  0  0  0  0  0  0
   -0.9161    0.6373   -4.3199 H   0  0  0  0  0  0  0  0  0  0  0  0
   -1.5030   -0.2544   -0.0528 H   0  0  0  0  0  0  0  0  0  0  0  0
   -1.5184   -1.1719   -4.3159 H   0  0  0  0  0  0  0  0  0  0  0  0
    2.7893   -2.3235    1.6528 H   0  0  0  0  0  0  0  0  0  0  0  0
    0.1853   -4.1591    1.5876 H   0  0  0  0  0  0  0  0  0  0  0  0
   -0.1695   -3.4192   -0.5174 H   0  0  0  0  0  0  0  0  0  0  0  0
   -0.2327   -1.6845   -0.6159 H   0  0  0  0  0  0  0  0  0  0  0  0
    3.4956   -4.8318    0.7614 H   0  0  0  0  0  0  0  0  0  0  0  0
   -0.9672   -3.0210    3.1606 H   0  0  0  0  0  0  0  0  0  0  0  0
   -2.4462   -2.9865    1.9020 H   0  0  0  0  0  0  0  0  0  0  0  0
   -2.5279   -1.5509    0.8793 H   0  0  0  0  0  0  0  0  0  0  0  0
   -2.4080   -2.9946    0.1784 H   0  0  0  0  0  0  0  0  0  0  0  0
   -0.6316   -1.1065    2.6127 H   0  0  0  0  0  0  0  0  0  0  0  0
   -0.6505   -4.7018    4.6771 H   0  0  0  0  0  0  0  0  0  0  0  0
   -0.5023   -5.3725    3.0559 H   0  0  0  0  0  0  0  0  0  0  0  0
    0.8654   -4.9449    4.0511 H   0  0  0  0  0  0  0  0  0  0  0  0
  1  7  1  0  0  0  0
  1  2  1  0  0  0  0
  1  6  1  0  0  0  0
  1 42  1  1  0  0  0
  2  8  1  0  0  0  0
  2  3  1  0  0  0  0
  2 43  1  6  0  0  0
  3  4  1  0  0  0  0
  3 44  1  1  0  0  0
  3  9  1  0  0  0  0
  4  5  1  0  0  0  0
  4 10  1  0  0  0  0
  4 45  1  6  0  0  0
  5  6  1  0  0  0  0
  5 46  1  1  0  0  0
  5 11  1  0  0  0  0
  6 47  1  0  0  0  0
  6 48  1  0  0  0  0
  7 12  1  0  0  0  0
  7 49  1  0  0  0  0
  8 29  1  0  0  0  0
  9 50  1  0  0  0  0
 11 51  1  0  0  0  0
 11 52  1  0  0  0  0
 12 13  1  0  0  0  0
 12 14  2  0  0  0  0
 13 15  1  0  0  0  0
 13 16  1  0  0  0  0
 13 53  1  6  0  0  0
 15 54  1  0  0  0  0
 16 17  1  0  0  0  0
 16 55  1  0  0  0  0
 16 56  1  0  0  0  0
 17 57  1  0  0  0  0
 17 58  1  0  0  0  0
 18 23  1  0  0  0  0
 18 19  1  0  0  0  0
 18 40  1  1  0  0  0
 18 10  1  0  0  0  0
 19 20  1  0  0  0  0
 19 28  1  0  0  0  0
 19 59  1  1  0  0  0
 20 21  1  0  0  0  0
 20 27  1  0  0  0  0
 20 60  1  6  0  0  0
 21 22  1  0  0  0  0
 21 61  1  1  0  0  0
 21 26  1  0  0  0  0
 22 23  1  0  0  0  0
 22 24  1  0  0  0  0
 22 62  1  6  0  0  0
 24 25  1  0  0  0  0
 24 63  1  0  0  0  0
 24 64  1  0  0  0  0
 25 65  1  0  0  0  0
 25 66  1  0  0  0  0
 26 67  1  0  0  0  0
 27 68  1  0  0  0  0
 28 69  1  0  0  0  0
 29 30  1  0  0  0  0
 29 34  1  0  0  0  0
 29 41  1  6  0  0  0
 30 31  1  0  0  0  0
 30 35  1  0  0  0  0
 30 70  1  1  0  0  0
 31 32  1  0  0  0  0
 31 71  1  6  0  0  0
 31 36  1  0  0  0  0
 32 33  1  0  0  0  0
 32 37  1  0  0  0  0
 32 38  1  1  0  0  0
 33 34  1  0  0  0  0
 33 72  1  0  0  0  0
 33 73  1  0  0  0  0
 35 74  1  0  0  0  0
 36 39  1  0  0  0  0
 36 75  1  0  0  0  0
 37 76  1  0  0  0  0
 37 77  1  0  0  0  0
 37 78  1  0  0  0  0
 38 79  1  0  0  0  0
 39 80  1  0  0  0  0
 39 81  1  0  0  0  0
 39 82  1  0  0  0  0
M  END
>  <DRUGBANK_ID>
DB13540

>  <COMMON_NAME>
Isepamicin

>  <CAS_NUMBER>
58152-03-7

>  <UNII>
G7K224460P

>  <SYNONYMS>
HAPA-B; HAPA-gentamycin B; Isepamicin; Isepamicina; Isepamicinum

$$$$
