
 OpenBabel10282417183D

 22 21  0  0  0  0  0  0  0  0999 V2000
   -3.1945   -1.9397    4.7963 C   0  0  0  0  0  0  0  0  0  0  0  0
   -1.7017   -2.2812    4.5666 C   0  0  1  0  0  0  0  0  0  0  0  0
   -1.0342   -1.4763    3.4193 C   0  0  2  0  0  0  0  0  0  0  0  0
   -1.4285   -1.8980    1.9705 C   0  0  2  0  0  0  0  0  0  0  0  0
   -3.8441   -2.9411    5.5699 O   0  0  0  0  0  0  0  0  0  0  0  0
   -0.9577   -1.9875    5.7760 O   0  0  0  0  0  0  0  0  0  0  0  0
    0.4027   -1.5927    3.5260 O   0  0  0  0  0  0  0  0  0  0  0  0
   -0.9571   -0.9375    1.0001 O   0  0  0  0  0  0  0  0  0  0  0  0
   -2.9340   -2.0268    1.7434 C   0  0  0  0  0  0  0  0  0  0  0  0
   -3.2993   -2.2460    0.3928 O   0  0  0  0  0  0  0  0  0  0  0  0
   -3.3132   -0.9786    5.3022 H   0  0  0  0  0  0  0  0  0  0  0  0
   -3.7785   -1.8734    3.8898 H   0  0  0  0  0  0  0  0  0  0  0  0
   -1.5650   -3.3545    4.3961 H   0  0  0  0  0  0  0  0  0  0  0  0
   -1.2242   -0.4082    3.5737 H   0  0  0  0  0  0  0  0  0  0  0  0
   -0.9398   -2.8452    1.7148 H   0  0  0  0  0  0  0  0  0  0  0  0
   -4.7851   -2.9373    5.3115 H   0  0  0  0  0  0  0  0  0  0  0  0
   -1.2424   -1.1270    6.1180 H   0  0  0  0  0  0  0  0  0  0  0  0
    0.6183   -1.5849    4.4815 H   0  0  0  0  0  0  0  0  0  0  0  0
   -0.8086   -0.0904    1.4464 H   0  0  0  0  0  0  0  0  0  0  0  0
   -3.3157   -2.8890    2.2968 H   0  0  0  0  0  0  0  0  0  0  0  0
   -3.4295   -1.1004    2.0546 H   0  0  0  0  0  0  0  0  0  0  0  0
   -2.8294   -1.5556   -0.1257 H   0  0  0  0  0  0  0  0  0  0  0  0
  1 11  1  0  0  0  0
  1 12  1  0  0  0  0
  2 13  1  6  0  0  0
  2  6  1  0  0  0  0
  2  1  1  0  0  0  0
  3  2  1  0  0  0  0
  3  7  1  0  0  0  0
  3 14  1  1  0  0  0
  4 15  1  6  0  0  0
  4  8  1  0  0  0  0
  4  3  1  0  0  0  0
  5  1  1  0  0  0  0
  5 16  1  0  0  0  0
  6 17  1  0  0  0  0
  7 18  1  0  0  0  0
  8 19  1  0  0  0  0
  9  4  1  0  0  0  0
  9 10  1  0  0  0  0
  9 20  1  0  0  0  0
  9 21  1  0  0  0  0
 10 22  1  0  0  0  0
M  END
>  <DRUGBANK_ID>
DB11195

>  <SECONDARY_ACCESSION_NUMBERS>
EXPT03268; DB01904

>  <COMMON_NAME>
Xylitol

>  <CAS_NUMBER>
87-99-0

>  <UNII>
VCQ006KQ1E

>  <SYNONYMS>
D-Xylitol; Xylitol

$$$$
