824
 OpenBabel10282417143D

 37 41  0  0  0  0  0  0  0  0999 V2000
   -3.9925    2.3554   -0.0175 O   0  0  0  0  0  0  0  0  0  0  0  0
   -3.3990    1.1243   -0.0166 C   0  0  0  0  0  0  0  0  0  0  0  0
   -4.1493   -0.0446   -0.0121 C   0  0  0  0  0  0  0  0  0  0  0  0
   -3.5065   -1.2869   -0.0025 C   0  0  0  0  0  0  0  0  0  0  0  0
   -2.0995   -1.3018    0.0009 C   0  0  0  0  0  0  0  0  0  0  0  0
   -1.3197   -0.1275   -0.0072 C   0  0  0  0  0  0  0  0  0  0  0  0
   -2.0007    1.1027   -0.0188 C   0  0  0  0  0  0  0  0  0  0  0  0
   -0.0028   -0.6018    0.0042 C   0  0  0  0  0  0  0  0  0  0  0  0
    0.0785   -1.9640    0.0143 C   0  0  0  0  0  0  0  0  0  0  0  0
   -1.2325   -2.3831    0.0164 N   0  0  0  0  0  0  0  0  0  0  0  0
    1.1917    0.1685    0.0140 C   0  0  0  0  0  0  0  0  0  0  0  0
    1.4870    1.5667    0.0163 C   0  0  0  0  0  0  0  0  0  0  0  0
    0.8106    2.5906    0.0376 O   0  0  0  0  0  0  0  0  0  0  0  0
    2.4161   -0.5807    0.0299 C   0  0  0  0  0  0  0  0  0  0  0  0
    3.4962    0.3848    0.0028 C   0  0  0  0  0  0  0  0  0  0  0  0
    4.7170    0.2983   -0.0151 O   0  0  0  0  0  0  0  0  0  0  0  0
    2.8532    1.5967    0.0030 N   0  0  0  0  0  0  0  0  0  0  0  0
    2.4889   -1.9908    0.0545 C   0  0  0  0  0  0  0  0  0  0  0  0
    1.2668   -2.6834    0.0320 C   0  0  0  0  0  0  0  0  0  0  0  0
    3.7513   -2.7413    0.0626 C   0  0  0  0  0  0  0  0  0  0  0  0
    4.0208   -3.6772   -0.9567 C   0  0  0  0  0  0  0  0  0  0  0  0
    5.2120   -4.4087   -0.9847 C   0  0  0  0  0  0  0  0  0  0  0  0
    6.1639   -4.2163    0.0094 C   0  0  0  0  0  0  0  0  0  0  0  0
    5.9084   -3.3163    1.0415 C   0  0  0  0  0  0  0  0  0  0  0  0
    4.6887   -2.6298    1.0989 C   0  0  0  0  0  0  0  0  0  0  0  0
   -4.9563    2.2498    0.0001 H   0  0  0  0  0  0  0  0  0  0  0  0
   -5.2359   -0.0119   -0.0169 H   0  0  0  0  0  0  0  0  0  0  0  0
   -4.0870   -2.2063    0.0033 H   0  0  0  0  0  0  0  0  0  0  0  0
   -1.4658    2.0439   -0.0276 H   0  0  0  0  0  0  0  0  0  0  0  0
   -1.5186   -3.3512    0.0433 H   0  0  0  0  0  0  0  0  0  0  0  0
    3.3605    2.4670    0.0058 H   0  0  0  0  0  0  0  0  0  0  0  0
    1.2516   -3.7692    0.0374 H   0  0  0  0  0  0  0  0  0  0  0  0
    3.2920   -3.8478   -1.7470 H   0  0  0  0  0  0  0  0  0  0  0  0
    5.4029   -5.1083   -1.7945 H   0  0  0  0  0  0  0  0  0  0  0  0
    7.1008   -4.7670   -0.0168 H   0  0  0  0  0  0  0  0  0  0  0  0
    6.6680   -3.1342    1.7972 H   0  0  0  0  0  0  0  0  0  0  0  0
    4.4813   -2.0060    1.9653 H   0  0  0  0  0  0  0  0  0  0  0  0
  1  2  1  0  0  0  0
  1 26  1  0  0  0  0
  2  3  1  0  0  0  0
  2  7  2  0  0  0  0
  3  4  2  0  0  0  0
  3 27  1  0  0  0  0
  4  5  1  0  0  0  0
  4 28  1  0  0  0  0
  5  6  2  0  0  0  0
  5 10  1  0  0  0  0
  6  7  1  0  0  0  0
  6  8  1  0  0  0  0
  7 29  1  0  0  0  0
  8  9  1  0  0  0  0
  8 11  2  0  0  0  0
  9 10  1  0  0  0  0
  9 19  2  0  0  0  0
 10 30  1  0  0  0  0
 11 12  1  0  0  0  0
 11 14  1  0  0  0  0
 12 13  2  0  0  0  0
 12 17  1  0  0  0  0
 14 15  1  0  0  0  0
 14 18  2  0  0  0  0
 15 16  2  0  0  0  0
 15 17  1  0  0  0  0
 17 31  1  0  0  0  0
 18 19  1  0  0  0  0
 18 20  1  0  0  0  0
 19 32  1  0  0  0  0
 20 21  2  0  0  0  0
 20 25  1  0  0  0  0
 21 22  1  0  0  0  0
 21 33  1  0  0  0  0
 22 23  2  0  0  0  0
 22 34  1  0  0  0  0
 23 24  1  0  0  0  0
 23 35  1  0  0  0  0
 24 25  2  0  0  0  0
 24 36  1  0  0  0  0
 25 37  1  0  0  0  0
M  END
>  <DRUGBANK_ID>
DB04608

>  <COMMON_NAME>
9-HYDROXY-4-PHENYL-6H-PYRROLO[3,4-C]CARBAZOLE-1,3-DIONE

$$$$
