
 OpenBabel10282417123D

 29 29  0  0  0  0  0  0  0  0999 V2000
    0.8482    0.7833   -0.3472 C   0  0  1  0  0  0  0  0  0  0  0  0
    1.4727   -0.6158   -0.1942 C   0  0  2  0  0  0  0  0  0  0  0  0
    0.5810   -1.6559   -0.5838 O   0  0  0  0  0  0  0  0  0  0  0  0
   -0.4366    0.8903    0.4936 C   0  0  2  0  0  0  0  0  0  0  0  0
   -0.6679   -1.6709    0.1098 C   0  0  1  0  0  0  0  0  0  0  0  0
   -1.3366   -0.3041    0.2233 C   0  0  1  0  0  0  0  0  0  0  0  0
    1.9425   -0.8354    1.1322 O   0  0  0  0  0  0  0  0  0  0  0  0
    1.7582    1.8195    0.0339 O   0  0  0  0  0  0  0  0  0  0  0  0
   -1.1414    2.0945    0.1272 O   0  0  0  0  0  0  0  0  0  0  0  0
   -2.5554   -0.3554    0.9513 O   0  0  0  0  0  0  0  0  0  0  0  0
   -1.6353   -2.6611   -0.5861 C   0  0  0  0  0  0  0  0  0  0  0  0
   -2.3282   -2.2592   -1.7744 O   0  0  0  0  0  0  0  0  0  0  0  0
   -0.5507   -0.6290   -2.8926 O   0  0  0  0  0  0  0  0  0  0  0  0
   -2.6711   -1.4429   -4.1180 O   0  0  0  0  0  0  0  0  0  0  0  0
   -1.9862   -1.0474   -2.7496 P   0  0  0  0  0  0  0  0  0  0  0  0
   -2.9355    0.1650   -2.3191 O   0  0  0  0  0  0  0  0  0  0  0  0
    0.6172    0.9639   -1.4038 H   0  0  0  0  0  0  0  0  0  0  0  0
    2.3566   -0.6801   -0.8397 H   0  0  0  0  0  0  0  0  0  0  0  0
   -0.2296    0.9875    1.5604 H   0  0  0  0  0  0  0  0  0  0  0  0
   -0.4644   -2.0727    1.1115 H   0  0  0  0  0  0  0  0  0  0  0  0
   -1.6561   -0.0389   -0.7491 H   0  0  0  0  0  0  0  0  0  0  0  0
    1.2045   -0.7080    1.7430 H   0  0  0  0  0  0  0  0  0  0  0  0
    1.9756    1.6823    0.9718 H   0  0  0  0  0  0  0  0  0  0  0  0
   -1.2634    2.0872   -0.8403 H   0  0  0  0  0  0  0  0  0  0  0  0
   -2.3953   -0.4699    1.8976 H   0  0  0  0  0  0  0  0  0  0  0  0
   -1.1175   -3.6029   -0.8073 H   0  0  0  0  0  0  0  0  0  0  0  0
   -2.4193   -2.9135    0.1394 H   0  0  0  0  0  0  0  0  0  0  0  0
   -2.2188   -2.2128   -4.4984 H   0  0  0  0  0  0  0  0  0  0  0  0
   -2.6452    1.0107   -2.7050 H   0  0  0  0  0  0  0  0  0  0  0  0
  1  8  1  0  0  0  0
  1  4  1  0  0  0  0
  1 17  1  6  0  0  0
  2  1  1  0  0  0  0
  2  7  1  0  0  0  0
  2  3  1  0  0  0  0
  2 18  1  6  0  0  0
  3  5  1  0  0  0  0
  4  9  1  0  0  0  0
  4  6  1  0  0  0  0
  4 19  1  1  0  0  0
  5  6  1  0  0  0  0
  5 20  1  1  0  0  0
  5 11  1  0  0  0  0
  6 10  1  0  0  0  0
  6 21  1  6  0  0  0
  7 22  1  0  0  0  0
  8 23  1  0  0  0  0
  9 24  1  0  0  0  0
 10 25  1  0  0  0  0
 11 26  1  0  0  0  0
 11 27  1  0  0  0  0
 12 11  1  0  0  0  0
 12 15  1  0  0  0  0
 13 15  2  0  0  0  0
 14 15  1  0  0  0  0
 14 28  1  0  0  0  0
 15 16  1  0  0  0  0
 16 29  1  0  0  0  0
M  END
>  <DRUGBANK_ID>
DB02007

>  <SECONDARY_ACCESSION_NUMBERS>
EXPT01537

>  <COMMON_NAME>
alpha-D-glucose 6-phosphate

>  <CAS_NUMBER>
15209-11-7

>  <UNII>
03JQ7I74CO

>  <SYNONYMS>
6-O-phosphono-Î±-D-glucopyranose; alpha-D-Glucopyranose 6-phosphate

$$$$
