
 OpenBabel10282417213D

  7  6  0  0  0  0  0  0  0  0999 V2000
    1.0644    0.0020    0.0506 O   0  0  0  0  0  0  0  0  0  0  0  0
    2.2927   -0.0168    0.0689 C   0  0  0  0  0  0  0  0  0  0  0  0
    3.0946    0.8959   -0.8208 C   0  0  0  0  0  0  0  0  0  0  0  0
    3.2798   -1.0401    1.0664 Cl  0  0  0  0  0  0  0  0  0  0  0  0
    2.8447    0.6850   -1.8641 H   0  0  0  0  0  0  0  0  0  0  0  0
    2.8447    1.9335   -0.5834 H   0  0  0  0  0  0  0  0  0  0  0  0
    4.1712    0.7598   -0.6882 H   0  0  0  0  0  0  0  0  0  0  0  0
  1  2  2  0  0  0  0
  2  4  1  0  0  0  0
  2  3  1  0  0  0  0
  3  5  1  0  0  0  0
  3  6  1  0  0  0  0
  3  7  1  0  0  0  0
M  END
>  <DRUGBANK_ID>
DB14623

>  <SECONDARY_ACCESSION_NUMBERS>
DBSALT002299

>  <COMMON_NAME>
Acetyl chloride

>  <CAS_NUMBER>
75-36-5

>  <UNII>
QD15RNO45K

>  <SYNONYMS>
Acetic acid chloride; Acetic chloride; Ethanoyl chloride

$$$$
