
 OpenBabel10282417203D

 42 44  0  0  0  0  0  0  0  0999 V2000
    0.8326    0.0884    0.1870 C   0  0  0  0  0  0  0  0  0  0  0  0
    0.4824    0.2538   -1.2844 C   0  0  0  0  0  0  0  0  0  0  0  0
    0.8765   -0.8489   -2.1092 O   0  0  0  0  0  0  0  0  0  0  0  0
    2.2183   -0.9256   -2.3746 C   0  0  0  0  0  0  0  0  0  0  0  0
    3.1451   -1.0832   -1.3320 C   0  0  0  0  0  0  0  0  0  0  0  0
    4.4709   -1.3490   -1.5861 C   0  0  0  0  0  0  0  0  0  0  0  0
    4.7074   -1.8383   -2.8581 C   0  0  0  0  0  0  0  0  0  0  0  0
    3.8923   -1.5998   -3.9847 C   0  0  0  0  0  0  0  0  0  0  0  0
    2.6164   -1.0746   -3.7183 C   0  0  0  0  0  0  0  0  0  0  0  0
    4.5548   -2.0321   -5.1579 N   0  0  0  0  0  0  0  0  0  0  0  0
    5.6196   -2.7522   -4.7479 C   0  0  0  0  0  0  0  0  0  0  0  0
    5.6047   -2.7553   -3.3637 N   0  0  0  0  0  0  0  0  0  0  0  0
    7.3465   -3.0333   -5.8032 S   0  0  0  0  0  0  0  0  0  0  0  0
    9.1420   -2.1948   -4.7855 C   0  0  0  0  0  0  0  0  0  0  0  0
    9.6191   -0.6007   -3.9883 C   0  0  0  0  0  0  0  0  0  0  0  0
    8.7863    0.0897   -2.8772 N   0  0  0  0  0  0  0  0  0  0  0  0
    7.7156   -0.8350   -2.7882 C   0  0  0  0  0  0  0  0  0  0  0  0
    7.2053   -0.6494   -4.2202 C   0  0  0  0  0  0  0  0  0  0  0  0
    6.2968    0.3348   -4.5010 O   0  0  0  0  0  0  0  0  0  0  0  0
    7.1972    1.4421   -4.5427 C   0  0  0  0  0  0  0  0  0  0  0  0
    7.9715    1.3799   -3.1899 C   0  0  0  0  0  0  0  0  0  0  0  0
    0.6547   -0.9423    0.5149 H   0  0  0  0  0  0  0  0  0  0  0  0
    0.2820    0.7836    0.8199 H   0  0  0  0  0  0  0  0  0  0  0  0
    1.8826    0.3343    0.3669 H   0  0  0  0  0  0  0  0  0  0  0  0
   -0.6095    0.2987   -1.3617 H   0  0  0  0  0  0  0  0  0  0  0  0
    0.8748    1.1914   -1.6925 H   0  0  0  0  0  0  0  0  0  0  0  0
    2.8462   -1.1647   -0.2959 H   0  0  0  0  0  0  0  0  0  0  0  0
    5.1683   -1.4278   -0.7418 H   0  0  0  0  0  0  0  0  0  0  0  0
    1.8925   -0.9843   -4.5241 H   0  0  0  0  0  0  0  0  0  0  0  0
    6.3907   -3.0663   -2.7648 H   0  0  0  0  0  0  0  0  0  0  0  0
    9.3054   -2.9718   -4.0395 H   0  0  0  0  0  0  0  0  0  0  0  0
    9.9184   -2.2979   -5.5648 H   0  0  0  0  0  0  0  0  0  0  0  0
   10.5642   -0.8278   -3.4759 H   0  0  0  0  0  0  0  0  0  0  0  0
    9.8456    0.1544   -4.7489 H   0  0  0  0  0  0  0  0  0  0  0  0
    6.9584   -0.6436   -2.0312 H   0  0  0  0  0  0  0  0  0  0  0  0
    8.0976   -1.8473   -2.5485 H   0  0  0  0  0  0  0  0  0  0  0  0
    7.8570   -0.5990   -5.1052 H   0  0  0  0  0  0  0  0  0  0  0  0
    7.0059   -1.6375   -4.2427 H   0  0  0  0  0  0  0  0  0  0  0  0
    6.5743    2.3126   -4.7096 H   0  0  0  0  0  0  0  0  0  0  0  0
    7.8943    1.3500   -5.3924 H   0  0  0  0  0  0  0  0  0  0  0  0
    7.1492    1.4087   -2.4382 H   0  0  0  0  0  0  0  0  0  0  0  0
    8.5751    2.2572   -3.0238 H   0  0  0  0  0  0  0  0  0  0  0  0
  1  2  1  0  0  0  0
  1 22  1  0  0  0  0
  1 23  1  0  0  0  0
  1 24  1  0  0  0  0
  2  3  1  0  0  0  0
  2 25  1  0  0  0  0
  2 26  1  0  0  0  0
  3  4  1  0  0  0  0
  4  5  2  0  0  0  0
  4  9  1  0  0  0  0
  5  6  1  0  0  0  0
  5 27  1  0  0  0  0
  6  7  2  0  0  0  0
  6 28  1  0  0  0  0
  7  8  1  0  0  0  0
  7 12  1  0  0  0  0
  8  9  2  0  0  0  0
  8 10  1  0  0  0  0
  9 29  1  0  0  0  0
 10 11  2  0  0  0  0
 11 12  1  0  0  0  0
 11 13  1  0  0  0  0
 12 30  1  0  0  0  0
 13 14  1  0  0  0  0
 14 15  1  0  0  0  0
 14 31  1  0  0  0  0
 14 32  1  0  0  0  0
 15 16  1  0  0  0  0
 15 33  1  0  0  0  0
 15 34  1  0  0  0  0
 16 17  1  0  0  0  0
 16 21  1  0  0  0  0
 17 18  1  0  0  0  0
 17 35  1  0  0  0  0
 17 36  1  0  0  0  0
 18 19  1  0  0  0  0
 18 37  1  0  0  0  0
 18 38  1  0  0  0  0
 19 20  1  0  0  0  0
 20 21  1  0  0  0  0
 20 39  1  0  0  0  0
 20 40  1  0  0  0  0
 21 41  1  0  0  0  0
 21 42  1  0  0  0  0
M  END
>  <DRUGBANK_ID>
DB13623

>  <COMMON_NAME>
Fabomotizole

>  <CAS_NUMBER>
173352-21-1

>  <UNII>
0F8K1X115C

>  <SYNONYMS>
Fabomotizole

$$$$
