
 OpenBabel10282417183D

 38 39  0  0  0  0  0  0  0  0999 V2000
    0.9687    0.0624    0.2966 C   0  0  0  0  0  0  0  0  0  0  0  0
    3.7922   -1.2838    2.5457 C   0  0  0  0  0  0  0  0  0  0  0  0
   -3.1075   -3.8990   -4.5126 C   0  0  0  0  0  0  0  0  0  0  0  0
    0.4739   -1.1316   -0.4709 C   0  0  0  0  0  0  0  0  0  0  0  0
    2.5844   -2.2267    2.5032 C   0  0  0  0  0  0  0  0  0  0  0  0
    0.5897   -3.0919   -2.6686 C   0  0  0  0  0  0  0  0  0  0  0  0
   -0.4968   -3.3650   -3.4786 C   0  0  0  0  0  0  0  0  0  0  0  0
    1.3003   -5.3039   -2.5462 C   0  0  0  0  0  0  0  0  0  0  0  0
   -2.1516   -5.0240   -4.1641 C   0  0  0  0  0  0  0  0  0  0  0  0
    1.5071   -4.0033   -2.1454 C   0  0  0  0  0  0  0  0  0  0  0  0
   -0.8315   -4.6702   -3.6494 C   0  0  0  0  0  0  0  0  0  0  0  0
    0.0922   -5.6221   -3.2062 C   0  0  0  0  0  0  0  0  0  0  0  0
   -2.4108   -6.3342   -4.2579 C   0  0  0  0  0  0  0  0  0  0  0  0
   -1.4425   -7.3953   -3.8390 C   0  0  0  0  0  0  0  0  0  0  0  0
   -3.9134   -6.9081   -4.9001 Cl  0  0  0  0  0  0  0  0  0  0  0  0
   -1.6917   -8.5806   -3.9394 O   0  0  0  0  0  0  0  0  0  0  0  0
    0.9172   -2.4799   -0.1124 O   0  0  0  0  0  0  0  0  0  0  0  0
    2.5539   -3.1485    1.3996 O   0  0  0  0  0  0  0  0  0  0  0  0
   -0.2187   -6.9809   -3.3187 O   0  0  0  0  0  0  0  0  0  0  0  0
    2.4735   -3.7922   -1.1618 O   0  0  0  0  0  0  0  0  0  0  0  0
    2.6472   -2.4799   -0.1124 P   0  0  0  0  0  0  0  0  0  0  0  0
    4.5446   -2.4799   -0.1124 S   0  0  0  0  0  0  0  0  0  0  0  0
    0.6256    0.0467    1.3233 H   0  0  0  0  0  0  0  0  0  0  0  0
    0.5992    0.9653   -0.2103 H   0  0  0  0  0  0  0  0  0  0  0  0
    2.0606    0.1133    0.2573 H   0  0  0  0  0  0  0  0  0  0  0  0
    3.8329   -0.6462    1.6542 H   0  0  0  0  0  0  0  0  0  0  0  0
    3.7669   -0.5941    3.3873 H   0  0  0  0  0  0  0  0  0  0  0  0
    4.7291   -1.8532    2.6033 H   0  0  0  0  0  0  0  0  0  0  0  0
   -3.3596   -3.3013   -3.6244 H   0  0  0  0  0  0  0  0  0  0  0  0
   -2.6628   -3.2276   -5.2575 H   0  0  0  0  0  0  0  0  0  0  0  0
   -4.0543   -4.2405   -4.9326 H   0  0  0  0  0  0  0  0  0  0  0  0
   -0.6161   -1.1422   -0.5626 H   0  0  0  0  0  0  0  0  0  0  0  0
    0.9149   -0.8523   -1.4357 H   0  0  0  0  0  0  0  0  0  0  0  0
    1.6700   -1.6345    2.4653 H   0  0  0  0  0  0  0  0  0  0  0  0
    2.5715   -2.8171    3.4219 H   0  0  0  0  0  0  0  0  0  0  0  0
    0.4373   -2.1087   -2.3449 H   0  0  0  0  0  0  0  0  0  0  0  0
   -1.1396   -2.5312   -3.7574 H   0  0  0  0  0  0  0  0  0  0  0  0
    1.9934   -6.0770   -2.2354 H   0  0  0  0  0  0  0  0  0  0  0  0
  1 23  1  0  0  0  0
  1 24  1  0  0  0  0
  1 25  1  0  0  0  0
  2 26  1  0  0  0  0
  2 27  1  0  0  0  0
  2 28  1  0  0  0  0
  3 29  1  0  0  0  0
  3 30  1  0  0  0  0
  3 31  1  0  0  0  0
  4  1  1  0  0  0  0
  4 32  1  0  0  0  0
  4 33  1  0  0  0  0
  5  2  1  0  0  0  0
  5 34  1  0  0  0  0
  5 35  1  0  0  0  0
  6 36  1  0  0  0  0
  7  6  2  0  0  0  0
  7 37  1  0  0  0  0
  8 38  1  0  0  0  0
  9  3  1  0  0  0  0
 10  6  1  0  0  0  0
 10  8  2  0  0  0  0
 11  7  1  0  0  0  0
 11  9  1  0  0  0  0
 12  8  1  0  0  0  0
 12 11  2  0  0  0  0
 13  9  2  0  0  0  0
 14 13  1  0  0  0  0
 15 13  1  0  0  0  0
 16 14  2  0  0  0  0
 17  4  1  0  0  0  0
 18  5  1  0  0  0  0
 19 12  1  0  0  0  0
 19 14  1  0  0  0  0
 20 10  1  0  0  0  0
 21 17  1  0  0  0  0
 21 18  1  0  0  0  0
 21 20  1  0  0  0  0
 22 21  2  0  0  0  0
M  END
>  <DRUGBANK_ID>
DB11390

>  <COMMON_NAME>
Coumaphos

>  <CAS_NUMBER>
56-72-4

>  <UNII>
L08SZ5Z5JC

>  <SYNONYMS>
3-Chloro-4-methyl-7-coumarinyl diethyl phosphorothioate; 3-Chloro-4-methyl-7-hydroxycoumarin diethyl thiophosphoric acid ester; 3-Chloro-7-diethoxyphosphinothioyloxy-4-methylcoumarin; 3-Chloro-7-hydroxy-4-methyl-coumarin O,O-diethyl phosphorothioate; Coumafos; Coumaphos; O-(3-chloro-4-methyl-2-oxo-2H-chromen-7-yl) O,O-diethyl thiophosphate; O,O-Diethyl 3-chloro-4-methyl-7-umbelliferone thiophosphate; O,O-Diethyl O-(3-chloro-4-methyl-2-oxo-2H-1-benzopyran-7-yl)phosphorothioate; Phosphorothioic acid, O-(3-chloro-4-methyl-2-oxo-2H-1-benzopyran-7-yl) O,O-diethyl ester

$$$$
