
 OpenBabel10282417133D

 76 80  0  0  0  0  0  0  0  0999 V2000
    1.9358    0.9067   -0.1652 N   0  0  0  0  0  0  0  0  0  0  0  0
    0.7460    0.3080   -0.4423 C   0  0  0  0  0  0  0  0  0  0  0  0
    2.1857    2.3531   -0.0084 C   0  0  2  0  0  0  0  0  0  0  0  0
    2.7798   -0.1581   -0.0285 C   0  0  0  0  0  0  0  0  0  0  0  0
    0.8872   -1.0852   -0.2365 C   0  0  0  0  0  0  0  0  0  0  0  0
   -0.3134    0.9612   -0.6383 N   0  0  0  0  0  0  0  0  0  0  0  0
    1.3389    3.0153    0.9070 O   0  0  0  0  0  0  0  0  0  0  0  0
    1.7924    3.2258   -1.1429 C   0  0  1  0  0  0  0  0  0  0  0  0
    2.1707   -1.3353    0.0431 N   0  0  0  0  0  0  0  0  0  0  0  0
   -0.3148   -1.8465   -0.1813 C   0  0  0  0  0  0  0  0  0  0  0  0
   -1.2874    0.0400   -0.5425 C   0  0  0  0  0  0  0  0  0  0  0  0
    1.1676    4.4496    0.6190 C   0  0  1  0  0  0  0  0  0  0  0  0
    1.7639    4.6904   -0.7095 C   0  0  1  0  0  0  0  0  0  0  0  0
   -1.4211   -1.2432   -0.2937 N   0  0  0  0  0  0  0  0  0  0  0  0
   -0.5986   -3.1338    0.2348 N   0  0  0  0  0  0  0  0  0  0  0  0
   -0.3258    4.6100    0.7654 C   0  0  0  0  0  0  0  0  0  0  0  0
    3.0953    5.2432   -0.5910 O   0  0  0  0  0  0  0  0  0  0  0  0
   -1.0470    3.4660    0.3869 O   0  0  0  0  0  0  0  0  0  0  0  0
   -4.0801    1.9017   -0.9599 O   0  0  0  0  0  0  0  0  0  0  0  0
   -4.1320    1.7828    0.5010 C   0  0  0  0  0  0  0  0  0  0  0  0
   -3.6102    0.4584    1.1524 C   0  0  1  0  0  0  0  0  0  0  0  0
   -2.1977    0.8474    1.3791 O   0  0  0  0  0  0  0  0  0  0  0  0
   -3.9057   -0.0553    2.5468 C   0  0  2  0  0  0  0  0  0  0  0  0
   -1.5274    0.2042    2.4382 C   0  0  2  0  0  0  0  0  0  0  0  0
   -2.6738    0.3852    3.3804 C   0  0  2  0  0  0  0  0  0  0  0  0
   -3.9488   -1.4937    2.5761 O   0  0  0  0  0  0  0  0  0  0  0  0
   -0.3116    1.0655    2.7814 N   0  3  0  0  0  0  0  0  0  0  0  0
   -2.4896   -0.2702    4.6013 O   0  0  0  0  0  0  0  0  0  0  0  0
   -0.5055    2.4150    2.9786 C   0  0  0  0  0  0  0  0  0  0  0  0
    0.9454    0.5469    2.7785 C   0  0  0  0  0  0  0  0  0  0  0  0
    0.4994    3.3365    3.3442 C   0  0  0  0  0  0  0  0  0  0  0  0
    2.0384    1.4079    2.9698 C   0  0  0  0  0  0  0  0  0  0  0  0
    1.8154    2.7858    3.2673 C   0  0  0  0  0  0  0  0  0  0  0  0
    0.3071    4.9922    3.3610 C   0  0  0  0  0  0  0  0  0  0  0  0
    1.3173    5.7015    3.3388 O   0  0  0  0  0  0  0  0  0  0  0  0
   -0.9181    5.6914    3.0514 N   0  0  0  0  0  0  0  0  0  0  0  0
   -2.3195    3.3236   -1.6979 O   0  0  0  0  0  0  0  0  0  0  0  0
   -0.7175    5.0698   -1.4124 O   0  0  0  0  0  0  0  0  0  0  0  0
   -2.7667    1.9274   -3.3407 O   0  0  0  0  0  0  0  0  0  0  0  0
   -2.6757    1.6369   -1.8437 P   0  0  3  0  0  0  0  0  0  0  0  0
   -3.0319   -0.0497   -1.9896 O   0  5  0  0  0  0  0  0  0  0  0  0
   -0.6494    3.5276   -1.2956 P   0  0  3  0  0  0  0  0  0  0  0  0
   -0.2517    3.5891   -2.9782 O   0  0  0  0  0  0  0  0  0  0  0  0
    2.4522    3.3014   -2.2601 O   0  0  0  0  0  0  0  0  0  0  0  0
    4.1131    1.8099   -1.4577 O   0  0  0  0  0  0  0  0  0  0  0  0
    4.5599    3.5034   -3.1874 O   0  0  0  0  0  0  0  0  0  0  0  0
    4.0712    3.3212   -1.6507 P   0  0  0  0  0  0  0  0  0  0  0  0
    5.6902    3.3410   -1.0414 O   0  0  0  0  0  0  0  0  0  0  0  0
    3.1772    2.4637    0.4215 H   0  0  0  0  0  0  0  0  0  0  0  0
    3.8380   -0.0362    0.0479 H   0  0  0  0  0  0  0  0  0  0  0  0
    1.0425    2.6221   -1.5883 H   0  0  0  0  0  0  0  0  0  0  0  0
   -2.1976    0.4807   -0.3780 H   0  0  0  0  0  0  0  0  0  0  0  0
    1.7444    5.0482    1.3111 H   0  0  0  0  0  0  0  0  0  0  0  0
    1.3006    5.4313   -1.3694 H   0  0  0  0  0  0  0  0  0  0  0  0
    0.0891   -3.7703   -0.1120 H   0  0  0  0  0  0  0  0  0  0  0  0
   -1.5574   -3.3077   -0.1144 H   0  0  0  0  0  0  0  0  0  0  0  0
   -0.6075    4.3676    1.7112 H   0  0  0  0  0  0  0  0  0  0  0  0
   -0.7750    5.5855    0.5377 H   0  0  0  0  0  0  0  0  0  0  0  0
    3.4718    5.1281    0.2932 H   0  0  0  0  0  0  0  0  0  0  0  0
   -3.5085    2.6026    0.8655 H   0  0  0  0  0  0  0  0  0  0  0  0
   -5.1624    1.9749    0.8049 H   0  0  0  0  0  0  0  0  0  0  0  0
   -3.7757   -0.3651    0.4299 H   0  0  0  0  0  0  0  0  0  0  0  0
   -4.8515    0.3175    2.9345 H   0  0  0  0  0  0  0  0  0  0  0  0
   -1.2069   -0.8376    2.2511 H   0  0  0  0  0  0  0  0  0  0  0  0
   -2.7907    1.4544    3.5612 H   0  0  0  0  0  0  0  0  0  0  0  0
   -3.3474   -1.8789    1.9026 H   0  0  0  0  0  0  0  0  0  0  0  0
   -3.3901   -0.5266    4.8710 H   0  0  0  0  0  0  0  0  0  0  0  0
   -1.4688    2.7472    2.6100 H   0  0  0  0  0  0  0  0  0  0  0  0
    1.0960   -0.4974    2.4824 H   0  0  0  0  0  0  0  0  0  0  0  0
    3.0427    1.0465    2.7058 H   0  0  0  0  0  0  0  0  0  0  0  0
    2.6707    3.4567    3.1030 H   0  0  0  0  0  0  0  0  0  0  0  0
   -1.7661    5.2805    2.6422 H   0  0  0  0  0  0  0  0  0  0  0  0
   -0.7684    6.5655    2.5115 H   0  0  0  0  0  0  0  0  0  0  0  0
   -0.7884    2.9134   -3.4674 H   0  0  0  0  0  0  0  0  0  0  0  0
    4.1206    2.8106   -3.7245 H   0  0  0  0  0  0  0  0  0  0  0  0
    5.7359    3.0994   -0.1047 H   0  0  0  0  0  0  0  0  0  0  0  0
  1  2  1  0  0  0  0
  1  4  1  0  0  0  0
  2  5  2  0  0  0  0
  2  6  1  0  0  0  0
  3  1  1  0  0  0  0
  3  7  1  0  0  0  0
  3  8  1  0  0  0  0
  3 49  1  1  0  0  0
  4  9  2  0  0  0  0
  4 50  1  0  0  0  0
  5 10  1  0  0  0  0
  5  9  1  0  0  0  0
  6 11  2  0  0  0  0
  7 12  1  0  0  0  0
  8 13  1  0  0  0  0
  8 51  1  6  0  0  0
  8 44  1  0  0  0  0
 10 14  2  0  0  0  0
 10 15  1  0  0  0  0
 11 14  1  0  0  0  0
 11 52  1  0  0  0  0
 12 13  1  0  0  0  0
 12 53  1  1  0  0  0
 12 16  1  0  0  0  0
 13 17  1  0  0  0  0
 13 54  1  6  0  0  0
 15 55  1  0  0  0  0
 15 56  1  0  0  0  0
 16 18  1  0  0  0  0
 16 57  1  0  0  0  0
 16 58  1  0  0  0  0
 17 59  1  0  0  0  0
 18 42  1  0  0  0  0
 19 20  1  0  0  0  0
 19 40  1  0  0  0  0
 20 60  1  0  0  0  0
 20 61  1  0  0  0  0
 21 20  1  0  0  0  0
 21 22  1  0  0  0  0
 21 23  1  0  0  0  0
 21 62  1  6  0  0  0
 22 24  1  0  0  0  0
 23 25  1  0  0  0  0
 23 26  1  0  0  0  0
 23 63  1  1  0  0  0
 24 25  1  0  0  0  0
 24 64  1  6  0  0  0
 24 27  1  0  0  0  0
 25 65  1  1  0  0  0
 25 28  1  0  0  0  0
 26 66  1  0  0  0  0
 27 29  2  0  0  0  0
 27 30  1  0  0  0  0
 28 67  1  0  0  0  0
 29 31  1  0  0  0  0
 29 68  1  0  0  0  0
 30 32  2  0  0  0  0
 30 69  1  0  0  0  0
 31 33  2  0  0  0  0
 31 34  1  0  0  0  0
 32 33  1  0  0  0  0
 32 70  1  0  0  0  0
 33 71  1  0  0  0  0
 34 35  2  0  0  0  0
 34 36  1  0  0  0  0
 36 72  1  0  0  0  0
 36 73  1  0  0  0  0
 37 42  1  0  0  0  0
 37 40  1  0  0  0  0
 38 42  2  0  0  0  0
 39 40  2  0  0  0  0
 40 41  1  0  0  0  0
 42 43  1  0  0  0  0
 43 74  1  0  0  0  0
 44 47  1  0  0  0  0
 45 47  2  0  0  0  0
 46 47  1  0  0  0  0
 46 75  1  0  0  0  0
 47 48  1  0  0  0  0
 48 76  1  0  0  0  0
M  CHG  2  27   1  41  -1
M  END
>  <DRUGBANK_ID>
DB03461

>  <SECONDARY_ACCESSION_NUMBERS>
EXPT02293

>  <COMMON_NAME>
Nicotinamide adenine dinucleotide phosphate

>  <CAS_NUMBER>
53-59-8

>  <UNII>
BY8P107XEP

>  <SYNONYMS>
Codehydrase II; Codehydrogenase II; Coenzyme II; Triphosphopyridine nucleotide

$$$$
