
 OpenBabel10282417123D

 63 67  0  0  0  0  0  0  0  0999 V2000
    3.5051    3.8756   -0.3966 P   0  0  3  0  0  0  0  0  0  0  0  0
    5.4479    5.9264   -0.4253 P   0  0  3  0  0  0  0  0  0  0  0  0
    8.2062    5.4578   -1.4899 P   0  0  0  0  0  0  0  0  0  0  0  0
    1.2679   -0.0462   -1.5020 O   0  0  0  0  0  0  0  0  0  0  0  0
   -0.0527   -0.6640    0.3436 O   0  0  0  0  0  0  0  0  0  0  0  0
    0.4366    2.4470    0.5487 O   0  0  0  0  0  0  0  0  0  0  0  0
    2.6562    3.7783   -1.7984 O   0  0  0  0  0  0  0  0  0  0  0  0
    3.2012   -0.1382    2.4207 O   0  5  0  0  0  0  0  0  0  0  0  0
   -0.5588   -3.5410   -2.6590 O   0  5  0  0  0  0  0  0  0  0  0  0
    2.4629    1.1547    0.9181 O   0  0  0  0  0  0  0  0  0  0  0  0
   -0.1116   -1.4665   -3.1279 O   0  0  0  0  0  0  0  0  0  0  0  0
    5.1890    4.2236   -0.5872 O   0  0  0  0  0  0  0  0  0  0  0  0
    3.8259    2.1925   -0.6358 O   0  0  0  0  0  0  0  0  0  0  0  0
    3.2180    5.3820   -0.1826 O   0  0  0  0  0  0  0  0  0  0  0  0
    0.6172   -5.6052    1.6555 O   0  0  0  0  0  0  0  0  0  0  0  0
    1.7916   -4.2591    3.0245 O   0  5  0  0  0  0  0  0  0  0  0  0
    6.6932    5.7649   -1.4103 O   0  0  0  0  0  0  0  0  0  0  0  0
    4.5061    6.1543   -1.7971 O   0  0  0  0  0  0  0  0  0  0  0  0
    5.6795    7.4505   -0.2803 O   0  0  0  0  0  0  0  0  0  0  0  0
    8.0922    3.9496   -2.0021 O   0  0  0  0  0  0  0  0  0  0  0  0
    8.5811    6.2858   -2.8060 O   0  0  0  0  0  0  0  0  0  0  0  0
    9.0393    5.6339   -0.2748 O   0  0  0  0  0  0  0  0  0  0  0  0
   -1.8945    2.4115    0.5909 N   0  0  0  0  0  0  0  0  0  0  0  0
    2.6477    0.0211    1.3406 N   0  3  0  0  0  0  0  0  0  0  0  0
   -0.0505   -2.4433   -2.3771 N   0  3  0  0  0  0  0  0  0  0  0  0
   -3.8194    3.4951    0.7397 N   0  0  0  0  0  0  0  0  0  0  0  0
   -1.4259    2.7523   -1.7281 N   0  0  0  0  0  0  0  0  0  0  0  0
    1.2414   -4.3956    1.8900 N   0  3  0  0  0  0  0  0  0  0  0  0
   -2.9324    4.1058   -2.8710 N   0  0  0  0  0  0  0  0  0  0  0  0
   -4.7953    5.0237   -1.8797 N   0  0  0  0  0  0  0  0  0  0  0  0
    0.2351    0.9512   -1.3421 C   0  0  1  0  0  0  0  0  0  0  0  0
   -0.6634    0.4709   -0.2098 C   0  0  2  0  0  0  0  0  0  0  0  0
    0.9031    2.2267   -0.8154 C   0  0  1  0  0  0  0  0  0  0  0  0
   -0.7127    1.6043    0.8120 C   0  0  1  0  0  0  0  0  0  0  0  0
    1.0637   -1.0005   -0.4947 C   0  0  3  0  0  0  0  0  0  0  0  0
    1.2128    3.5793   -1.5120 C   0  0  0  0  0  0  0  0  0  0  0  0
    2.1283   -1.1232    0.5803 C   0  0  0  0  0  0  0  0  0  0  0  0
    0.6524   -2.3364   -1.0800 C   0  0  0  0  0  0  0  0  0  0  0  0
   -2.1598    2.9242   -0.6403 C   0  0  0  0  0  0  0  0  0  0  0  0
   -2.9419    2.7434    1.3960 C   0  0  0  0  0  0  0  0  0  0  0  0
    2.0868   -2.2073    1.3702 C   0  0  0  0  0  0  0  0  0  0  0  0
    0.6685   -3.4557   -0.3386 C   0  0  0  0  0  0  0  0  0  0  0  0
    1.3030   -3.4134    1.0070 C   0  0  0  0  0  0  0  0  0  0  0  0
   -3.3190    3.6214   -0.5471 C   0  0  0  0  0  0  0  0  0  0  0  0
   -3.6835    4.2490   -1.7471 C   0  0  0  0  0  0  0  0  0  0  0  0
   -1.8525    3.3519   -2.8151 C   0  0  0  0  0  0  0  0  0  0  0  0
   -0.2820    1.0317   -2.2985 H   0  0  0  0  0  0  0  0  0  0  0  0
   -1.6540    0.1080   -0.4987 H   0  0  0  0  0  0  0  0  0  0  0  0
   -5.3438    5.2124   -1.0589 H   0  0  0  0  0  0  0  0  0  0  0  0
   -4.9024    5.4897   -2.7661 H   0  0  0  0  0  0  0  0  0  0  0  0
    4.6446    2.1310   -1.1631 H   0  0  0  0  0  0  0  0  0  0  0  0
    0.3055   -5.5441    0.7498 H   0  0  0  0  0  0  0  0  0  0  0  0
    3.5775    6.1860   -1.4683 H   0  0  0  0  0  0  0  0  0  0  0  0
    7.7696    3.4195   -1.2548 H   0  0  0  0  0  0  0  0  0  0  0  0
    7.9766    7.0501   -2.9077 H   0  0  0  0  0  0  0  0  0  0  0  0
    1.8933    1.8522   -0.8409 H   0  0  0  0  0  0  0  0  0  0  0  0
   -0.6897    1.2561    1.8572 H   0  0  0  0  0  0  0  0  0  0  0  0
    0.8935    4.3913   -0.8377 H   0  0  0  0  0  0  0  0  0  0  0  0
    0.7086    3.6961   -2.4624 H   0  0  0  0  0  0  0  0  0  0  0  0
   -3.0399    2.4326    2.4322 H   0  0  0  0  0  0  0  0  0  0  0  0
    2.4670   -2.1633    2.3880 H   0  0  0  0  0  0  0  0  0  0  0  0
    0.1730   -4.3547   -0.6782 H   0  0  0  0  0  0  0  0  0  0  0  0
   -1.2331    3.2063   -3.6955 H   0  0  0  0  0  0  0  0  0  0  0  0
  1  7  1  0  0  0  0
  1 12  1  0  0  0  0
  1 13  1  0  0  0  0
  1 14  2  0  0  0  0
  2 12  1  0  0  0  0
  2 17  1  0  0  0  0
  2 18  1  0  0  0  0
  2 19  2  0  0  0  0
  3 17  1  0  0  0  0
  3 20  1  0  0  0  0
  3 21  1  0  0  0  0
  3 22  2  0  0  0  0
  4 31  1  0  0  0  0
  4 35  1  0  0  0  0
  5 32  1  0  0  0  0
  5 35  1  0  0  0  0
  6 33  1  0  0  0  0
  6 34  1  0  0  0  0
  7 36  1  0  0  0  0
  8 24  1  0  0  0  0
  9 25  1  0  0  0  0
 10 24  2  0  0  0  0
 11 25  2  0  0  0  0
 13 51  1  0  0  0  0
 15 28  1  0  0  0  0
 15 52  1  0  0  0  0
 16 28  1  0  0  0  0
 18 53  1  0  0  0  0
 20 54  1  0  0  0  0
 21 55  1  0  0  0  0
 23 39  1  0  0  0  0
 23 40  1  0  0  0  0
 24 37  1  0  0  0  0
 25 38  1  0  0  0  0
 26 40  2  0  0  0  0
 26 44  1  0  0  0  0
 27 39  2  0  0  0  0
 27 46  1  0  0  0  0
 28 43  2  0  0  0  0
 29 45  1  0  0  0  0
 29 46  2  0  0  0  0
 30 45  1  0  0  0  0
 30 49  1  0  0  0  0
 30 50  1  0  0  0  0
 31 32  1  0  0  0  0
 31 33  1  0  0  0  0
 31 47  1  6  0  0  0
 32 34  1  0  0  0  0
 32 48  1  6  0  0  0
 33 56  1  1  0  0  0
 33 36  1  0  0  0  0
 34 57  1  1  0  0  0
 34 23  1  0  0  0  0
 35 37  1  0  0  0  0
 35 38  1  0  0  0  0
 36 58  1  0  0  0  0
 36 59  1  0  0  0  0
 37 41  2  0  0  0  0
 38 42  2  0  0  0  0
 39 44  1  0  0  0  0
 40 60  1  0  0  0  0
 41 43  1  0  0  0  0
 41 61  1  0  0  0  0
 42 43  1  0  0  0  0
 42 62  1  0  0  0  0
 44 45  2  0  0  0  0
 46 63  1  0  0  0  0
M  CHG  6   8  -1   9  -1  16  -1  24   1  25   1  28   1
M  END
>  <DRUGBANK_ID>
DB02524

>  <SECONDARY_ACCESSION_NUMBERS>
EXPT00019

>  <COMMON_NAME>
2',3'-O-{4-[Hydroxy(oxido)-Î»5-azanylidene]-2,6-dinitro-2,5-cyclohexadiene-1,1-diyl}adenosine 5'-(tetrahydrogen triphosphate)

$$$$
