
 OpenBabel10282417213D

 44 46  0  0  0  0  0  0  0  0999 V2000
    1.4191   -0.2269    0.0182 C   0  0  0  0  0  0  0  0  0  0  0  0
    0.5431   -1.3028    0.0447 C   0  0  0  0  0  0  0  0  0  0  0  0
   -0.8363   -1.0830    0.0498 C   0  0  0  0  0  0  0  0  0  0  0  0
   -1.3819    0.2133    0.0091 C   0  0  0  0  0  0  0  0  0  0  0  0
   -0.4662    1.2803    0.0584 C   0  0  0  0  0  0  0  0  0  0  0  0
    0.9144    1.0665    0.0221 C   0  0  0  0  0  0  0  0  0  0  0  0
   -2.8598    0.4242   -0.1622 C   0  0  0  0  0  0  0  0  0  0  0  0
   -3.3694    1.6673   -0.3141 C   0  0  0  0  0  0  0  0  0  0  0  0
   -4.7984    2.0717   -0.4387 C   0  0  0  0  0  0  0  0  0  0  0  0
   -5.3157    2.7961    0.7325 N   0  0  0  0  0  0  0  0  0  0  0  0
   -6.3234    3.7640    0.2647 C   0  0  0  0  0  0  0  0  0  0  0  0
   -5.4877    4.9794   -0.0946 C   0  0  0  0  0  0  0  0  0  0  0  0
   -4.4834    5.0357    1.0397 C   0  0  0  0  0  0  0  0  0  0  0  0
   -4.3383    3.5929    1.4972 C   0  0  0  0  0  0  0  0  0  0  0  0
   -3.7678   -0.7793   -0.3140 C   0  0  0  0  0  0  0  0  0  0  0  0
   -3.5010   -1.5720   -1.5815 C   0  0  0  0  0  0  0  0  0  0  0  0
   -2.8033   -1.0339   -2.6806 C   0  0  0  0  0  0  0  0  0  0  0  0
   -2.4752   -1.8310   -3.7718 C   0  0  0  0  0  0  0  0  0  0  0  0
   -2.8733   -3.1625   -3.7843 C   0  0  0  0  0  0  0  0  0  0  0  0
   -3.5818   -3.7045   -2.7122 C   0  0  0  0  0  0  0  0  0  0  0  0
   -3.9277   -2.9016   -1.6289 C   0  0  0  0  0  0  0  0  0  0  0  0
   -2.5253   -4.1386   -5.1553 Cl  0  0  0  0  0  0  0  0  0  0  0  0
    2.4910   -0.3956    0.0033 H   0  0  0  0  0  0  0  0  0  0  0  0
    0.9226   -2.3208    0.0373 H   0  0  0  0  0  0  0  0  0  0  0  0
   -1.4693   -1.9649    0.0483 H   0  0  0  0  0  0  0  0  0  0  0  0
   -0.7924    2.3139    0.1105 H   0  0  0  0  0  0  0  0  0  0  0  0
    1.5888    1.9175   -0.0170 H   0  0  0  0  0  0  0  0  0  0  0  0
   -2.7075    2.5191   -0.3854 H   0  0  0  0  0  0  0  0  0  0  0  0
   -4.8747    2.6452   -1.3708 H   0  0  0  0  0  0  0  0  0  0  0  0
   -5.4801    1.2331   -0.5896 H   0  0  0  0  0  0  0  0  0  0  0  0
   -7.0184    3.9952    1.0795 H   0  0  0  0  0  0  0  0  0  0  0  0
   -6.9196    3.3931   -0.5774 H   0  0  0  0  0  0  0  0  0  0  0  0
   -4.9630    4.8272   -1.0471 H   0  0  0  0  0  0  0  0  0  0  0  0
   -6.0785    5.8925   -0.1818 H   0  0  0  0  0  0  0  0  0  0  0  0
   -3.5300    5.4643    0.7165 H   0  0  0  0  0  0  0  0  0  0  0  0
   -4.8784    5.6391    1.8633 H   0  0  0  0  0  0  0  0  0  0  0  0
   -3.2942    3.2745    1.4339 H   0  0  0  0  0  0  0  0  0  0  0  0
   -4.5690    3.5084    2.5659 H   0  0  0  0  0  0  0  0  0  0  0  0
   -3.6708   -1.4121    0.5770 H   0  0  0  0  0  0  0  0  0  0  0  0
   -4.8294   -0.5266   -0.3506 H   0  0  0  0  0  0  0  0  0  0  0  0
   -2.4623    0.0004   -2.6820 H   0  0  0  0  0  0  0  0  0  0  0  0
   -1.9001   -1.4072   -4.5901 H   0  0  0  0  0  0  0  0  0  0  0  0
   -3.8616   -4.7528   -2.7079 H   0  0  0  0  0  0  0  0  0  0  0  0
   -4.5108   -3.3156   -0.8093 H   0  0  0  0  0  0  0  0  0  0  0  0
  1  2  2  0  0  0  0
  1  6  1  0  0  0  0
  1 23  1  0  0  0  0
  2  3  1  0  0  0  0
  2 24  1  0  0  0  0
  3  4  2  0  0  0  0
  3 25  1  0  0  0  0
  4  5  1  0  0  0  0
  4  7  1  0  0  0  0
  5  6  2  0  0  0  0
  5 26  1  0  0  0  0
  6 27  1  0  0  0  0
  7  8  2  3  0  0  0
  7 15  1  0  0  0  0
  8  9  1  0  0  0  0
  8 28  1  0  0  0  0
  9 10  1  0  0  0  0
  9 29  1  0  0  0  0
  9 30  1  0  0  0  0
 10 11  1  0  0  0  0
 10 14  1  0  0  0  0
 11 12  1  0  0  0  0
 11 31  1  0  0  0  0
 11 32  1  0  0  0  0
 12 13  1  0  0  0  0
 12 33  1  0  0  0  0
 12 34  1  0  0  0  0
 13 14  1  0  0  0  0
 13 35  1  0  0  0  0
 13 36  1  0  0  0  0
 14 37  1  0  0  0  0
 14 38  1  0  0  0  0
 15 16  1  0  0  0  0
 15 39  1  0  0  0  0
 15 40  1  0  0  0  0
 16 17  2  0  0  0  0
 16 21  1  0  0  0  0
 17 18  1  0  0  0  0
 17 41  1  0  0  0  0
 18 19  2  0  0  0  0
 18 42  1  0  0  0  0
 19 20  1  0  0  0  0
 19 22  1  0  0  0  0
 20 21  2  0  0  0  0
 20 43  1  0  0  0  0
 21 44  1  0  0  0  0
M  END
>  <DRUGBANK_ID>
DB13846

>  <COMMON_NAME>
Pyrrobutamine

>  <CAS_NUMBER>
91-82-7

>  <UNII>
VE6KP18S8X

$$$$
