
 OpenBabel10282417223D

 65 67  0  0  1  0  0  0  0  0999 V2000
   -5.1664    0.5529   -2.9509 C   0  0  0  0  0  0  0  0  0  0  0  0
   -4.9582    1.9904   -2.4457 C   0  0  0  0  0  0  0  0  0  0  0  0
   -6.1794    2.6444   -1.8103 C   0  0  0  0  0  0  0  0  0  0  0  0
   -3.8869    2.1105   -1.5487 O   0  0  0  0  0  0  0  0  0  0  0  0
   -4.1107    1.3393   -0.4661 C   0  0  0  0  0  0  0  0  0  0  0  0
   -5.0730    0.6769   -0.2315 O   0  0  0  0  0  0  0  0  0  0  0  0
   -2.7543    1.2517    0.2046 C   0  0  1  0  0  0  0  0  0  0  0  0
   -1.9394    0.1976   -0.6279 C   0  0  0  0  0  0  0  0  0  0  0  0
   -2.0330    2.2149    1.1877 N   0  0  0  0  0  0  0  0  0  0  0  0
   -1.0157    2.2226    2.7399 P   0  0  1  0  0  0  0  0  0  0  0  0
   -1.9751    3.2953    3.2377 O   0  0  0  0  0  0  0  0  0  0  0  0
   -1.1200    0.5920    2.7962 O   0  0  0  0  0  0  0  0  0  0  0  0
   -1.8558   -0.3210    2.0482 C   0  0  0  0  0  0  0  0  0  0  0  0
   -3.4535   -0.4605    2.0973 C   0  0  1  0  0  0  0  0  0  0  0  0
   -3.8987   -1.6158    2.7224 O   0  0  0  0  0  0  0  0  0  0  0  0
   -4.0300   -1.2268    4.0531 C   0  0  1  0  0  0  0  0  0  0  0  0
   -2.9505   -2.0474    4.6452 N   0  0  0  0  0  0  0  0  0  0  0  0
   -1.5884   -2.1471    4.2436 C   0  0  0  0  0  0  0  0  0  0  0  0
   -0.6162   -2.6914    4.9758 C   0  0  0  0  0  0  0  0  0  0  0  0
   -1.0252   -3.3077    6.2177 C   0  0  0  0  0  0  0  0  0  0  0  0
   -0.1891   -3.8879    6.9214 O   0  0  0  0  0  0  0  0  0  0  0  0
   -2.3403   -3.1960    6.5499 N   0  0  0  0  0  0  0  0  0  0  0  0
   -3.3389   -2.6602    5.7978 C   0  0  0  0  0  0  0  0  0  0  0  0
   -4.5015   -2.6266    6.2212 O   0  0  0  0  0  0  0  0  0  0  0  0
   -4.1923    0.3701    4.1711 C   0  0  2  0  0  0  0  0  0  0  0  0
   -3.0114    1.0718    4.6044 C   0  0  0  0  0  0  0  0  0  0  0  0
   -5.4362    1.0629    5.2465 Cl  0  0  0  0  0  0  0  0  0  0  0  0
   -4.2912    0.7819    2.7528 C   0  0  2  0  0  0  0  0  0  0  0  0
   -5.6438    0.9783    2.3602 O   0  0  0  0  0  0  0  0  0  0  0  0
   -0.3346    1.7673    4.4154 O   0  0  0  0  0  0  0  0  0  0  0  0
   -0.6939    1.2263    5.8039 C   0  0  0  0  0  0  0  0  0  0  0  0
   -1.4570    0.0935    6.2127 C   0  0  0  0  0  0  0  0  0  0  0  0
   -2.3167   -0.0686    7.3531 C   0  0  0  0  0  0  0  0  0  0  0  0
   -2.0196    0.6445    8.4443 C   0  0  0  0  0  0  0  0  0  0  0  0
   -0.9449    1.5186    8.2709 C   0  0  0  0  0  0  0  0  0  0  0  0
   -0.3542    1.8808    6.9690 C   0  0  0  0  0  0  0  0  0  0  0  0
   -5.6061   -0.1400   -2.2213 H   0  0  0  0  0  0  0  0  0  0  0  0
   -4.2112    0.0902   -3.2319 H   0  0  0  0  0  0  0  0  0  0  0  0
   -5.8475    0.5724   -3.7984 H   0  0  0  0  0  0  0  0  0  0  0  0
   -4.5800    2.5944   -3.2676 H   0  0  0  0  0  0  0  0  0  0  0  0
   -6.6605    2.0385   -1.0314 H   0  0  0  0  0  0  0  0  0  0  0  0
   -5.8786    3.5666   -1.2951 H   0  0  0  0  0  0  0  0  0  0  0  0
   -6.9247    2.8380   -2.5723 H   0  0  0  0  0  0  0  0  0  0  0  0
   -3.4297    0.9467    0.9305 H   0  0  0  0  0  0  0  0  0  0  0  0
   -1.5983    0.7064   -1.5104 H   0  0  0  0  0  0  0  0  0  0  0  0
   -0.9696   -0.1577   -0.2408 H   0  0  0  0  0  0  0  0  0  0  0  0
   -2.4676   -0.7627   -0.7791 H   0  0  0  0  0  0  0  0  0  0  0  0
   -2.3031    3.1532    0.8897 H   0  0  0  0  0  0  0  0  0  0  0  0
   -1.4886    0.1822    1.2415 H   0  0  0  0  0  0  0  0  0  0  0  0
   -1.3483   -1.2573    1.7655 H   0  0  0  0  0  0  0  0  0  0  0  0
   -3.7576   -0.7743    1.0962 H   0  0  0  0  0  0  0  0  0  0  0  0
   -5.0208   -1.5681    4.3405 H   0  0  0  0  0  0  0  0  0  0  0  0
   -1.1419   -1.5267    3.5074 H   0  0  0  0  0  0  0  0  0  0  0  0
    0.4405   -2.5090    4.7751 H   0  0  0  0  0  0  0  0  0  0  0  0
   -2.6197   -3.4849    7.4667 H   0  0  0  0  0  0  0  0  0  0  0  0
   -3.0825    1.2502    5.6498 H   0  0  0  0  0  0  0  0  0  0  0  0
   -2.2289    0.4455    4.2467 H   0  0  0  0  0  0  0  0  0  0  0  0
   -2.7290    2.0746    4.4228 H   0  0  0  0  0  0  0  0  0  0  0  0
   -3.8590    1.7812    2.6009 H   0  0  0  0  0  0  0  0  0  0  0  0
   -5.7798    1.9522    2.3188 H   0  0  0  0  0  0  0  0  0  0  0  0
   -1.8089   -0.5917    5.5214 H   0  0  0  0  0  0  0  0  0  0  0  0
   -3.2531   -0.6477    7.3104 H   0  0  0  0  0  0  0  0  0  0  0  0
   -2.5989    0.4768    9.3491 H   0  0  0  0  0  0  0  0  0  0  0  0
   -0.5699    1.9644    9.1813 H   0  0  0  0  0  0  0  0  0  0  0  0
    0.3393    2.7029    6.9346 H   0  0  0  0  0  0  0  0  0  0  0  0
  1  2  1  0  0  0  0
  1 37  1  0  0  0  0
  1 38  1  0  0  0  0
  1 39  1  0  0  0  0
  2  3  1  0  0  0  0
  2  4  1  0  0  0  0
  2 40  1  0  0  0  0
  3 41  1  0  0  0  0
  3 42  1  0  0  0  0
  3 43  1  0  0  0  0
  4  5  1  0  0  0  0
  5  6  2  0  0  0  0
  7  5  1  0  0  0  0
  7  8  1  0  0  0  0
  7  9  1  0  0  0  0
  7 44  1  1  0  0  0
  8 45  1  0  0  0  0
  8 46  1  0  0  0  0
  8 47  1  0  0  0  0
  9 48  1  0  0  0  0
 10  9  1  0  0  0  0
 10 11  2  1  0  0  0
 10 12  1  0  0  0  0
 10 30  1  0  0  0  0
 12 13  1  0  0  0  0
 13 49  1  0  0  0  0
 13 50  1  0  0  0  0
 14 15  1  0  0  0  0
 14 51  1  6  0  0  0
 14 13  1  0  0  0  0
 16 15  1  0  0  0  0
 16 52  1  1  0  0  0
 16 17  1  0  0  0  0
 17 18  1  0  0  0  0
 17 23  1  0  0  0  0
 18 19  2  0  0  0  0
 18 53  1  0  0  0  0
 19 20  1  0  0  0  0
 19 54  1  0  0  0  0
 20 21  2  0  0  0  0
 20 22  1  0  0  0  0
 22 23  1  0  0  0  0
 22 55  1  0  0  0  0
 23 24  2  0  0  0  0
 25 16  1  0  0  0  0
 25 28  1  0  0  0  0
 25 27  1  1  0  0  0
 25 26  1  0  0  0  0
 26 56  1  0  0  0  0
 26 57  1  0  0  0  0
 26 58  1  0  0  0  0
 28 14  1  0  0  0  0
 28 59  1  6  0  0  0
 28 29  1  0  0  0  0
 29 60  1  0  0  0  0
 30 31  1  0  0  0  0
 31 32  2  0  0  0  0
 31 36  1  0  0  0  0
 32 33  1  0  0  0  0
 32 61  1  0  0  0  0
 33 34  2  0  0  0  0
 33 62  1  0  0  0  0
 34 35  1  0  0  0  0
 34 63  1  0  0  0  0
 35 36  2  0  0  0  0
 35 64  1  0  0  0  0
 36 65  1  0  0  0  0
M  END
>  <DRUGBANK_ID>
DB15206

>  <COMMON_NAME>
Uprifosbuvir

>  <CAS_NUMBER>
1496551-77-9

>  <UNII>
JW31KPS26S

>  <SYNONYMS>
Uprifosbuvir

$$$$
