1532
 OpenBabel10282417113D

 53 55  0  0  1  0  0  0  0  0999 V2000
    0.9547    0.1916   -0.0228 O   0  0  0  0  0  0  0  0  0  0  0  0
    5.4919   -3.6207    0.9427 N   0  0  0  0  0  0  0  0  0  0  0  0
    2.9053   -0.5415    1.0663 N   0  0  0  0  0  0  0  0  0  0  0  0
    4.4527   -0.7026    1.0590 C   0  0  3  0  0  0  0  0  0  0  0  0
    5.1248   -1.3023   -0.2274 C   0  0  0  0  0  0  0  0  0  0  0  0
    5.1292   -1.4885    2.2024 C   0  0  0  0  0  0  0  0  0  0  0  0
    5.2694   -2.8187   -0.2547 C   0  0  0  0  0  0  0  0  0  0  0  0
    4.8563   -2.9935    2.1112 C   0  0  0  0  0  0  0  0  0  0  0  0
    4.8876   -5.0040    0.7284 C   0  0  3  0  0  0  0  0  0  0  0  0
    3.2814   -5.1883    0.6630 C   0  0  0  0  0  0  0  0  0  0  0  0
    5.5180   -5.6590   -0.5143 C   0  0  0  0  0  0  0  0  0  0  0  0
    2.0883   -1.2636    2.0744 C   0  0  0  0  0  0  0  0  0  0  0  0
    2.2081    0.1533    0.0552 C   0  0  0  0  0  0  0  0  0  0  0  0
    2.4793   -4.5766   -0.4977 C   0  0  0  0  0  0  0  0  0  0  0  0
    0.9859   -2.0602    1.6899 C   0  0  0  0  0  0  0  0  0  0  0  0
    2.4641   -1.3673    3.4127 C   0  0  0  0  0  0  0  0  0  0  0  0
    2.9535    0.9099   -1.0219 C   0  0  0  0  0  0  0  0  0  0  0  0
    1.8693   -5.3083   -1.4932 C   0  0  0  0  0  0  0  0  0  0  0  0
    2.3545   -3.2016   -0.6664 C   0  0  0  0  0  0  0  0  0  0  0  0
    0.4659   -3.0675    2.5166 C   0  0  0  0  0  0  0  0  0  0  0  0
    1.9917   -2.4060    4.2323 C   0  0  0  0  0  0  0  0  0  0  0  0
    1.3483   -4.6620   -2.6384 C   0  0  0  0  0  0  0  0  0  0  0  0
    2.0551   -2.5584   -1.8596 C   0  0  0  0  0  0  0  0  0  0  0  0
    0.9859   -3.2540    3.7867 C   0  0  0  0  0  0  0  0  0  0  0  0
    1.5267   -3.2999   -2.8682 C   0  0  0  0  0  0  0  0  0  0  0  0
    4.7984    0.3368    1.1117 H   0  0  0  0  0  0  0  0  0  0  0  0
    4.5899   -1.0322   -1.1422 H   0  0  0  0  0  0  0  0  0  0  0  0
    6.1379   -0.8983   -0.3249 H   0  0  0  0  0  0  0  0  0  0  0  0
    6.2133   -1.3325    2.1554 H   0  0  0  0  0  0  0  0  0  0  0  0
    4.8671   -1.0922    3.1768 H   0  0  0  0  0  0  0  0  0  0  0  0
    4.3010   -3.1093   -0.4571 H   0  0  0  0  0  0  0  0  0  0  0  0
    5.7284   -3.1685   -1.1866 H   0  0  0  0  0  0  0  0  0  0  0  0
    5.1760   -3.4917    3.0324 H   0  0  0  0  0  0  0  0  0  0  0  0
    3.7842   -3.1449    2.0544 H   0  0  0  0  0  0  0  0  0  0  0  0
    5.2341   -5.5933    1.5932 H   0  0  0  0  0  0  0  0  0  0  0  0
    3.1064   -6.2723    0.6488 H   0  0  0  0  0  0  0  0  0  0  0  0
    2.8408   -4.8694    1.6155 H   0  0  0  0  0  0  0  0  0  0  0  0
    6.6035   -5.5086   -0.5356 H   0  0  0  0  0  0  0  0  0  0  0  0
    5.3222   -6.7342   -0.5322 H   0  0  0  0  0  0  0  0  0  0  0  0
    5.1039   -5.2423   -1.4384 H   0  0  0  0  0  0  0  0  0  0  0  0
    0.5880   -2.0278    0.6775 H   0  0  0  0  0  0  0  0  0  0  0  0
    3.1604   -0.6614    3.8464 H   0  0  0  0  0  0  0  0  0  0  0  0
    2.6994    0.5046   -2.0093 H   0  0  0  0  0  0  0  0  0  0  0  0
    2.6310    1.9531   -1.0112 H   0  0  0  0  0  0  0  0  0  0  0  0
    4.0329    0.9041   -0.9201 H   0  0  0  0  0  0  0  0  0  0  0  0
    1.7856   -6.3821   -1.3911 H   0  0  0  0  0  0  0  0  0  0  0  0
    2.7004   -2.5742    0.1278 H   0  0  0  0  0  0  0  0  0  0  0  0
   -0.2988   -3.7386    2.1302 H   0  0  0  0  0  0  0  0  0  0  0  0
    2.4419   -2.5701    5.2080 H   0  0  0  0  0  0  0  0  0  0  0  0
    0.8046   -5.2343   -3.3762 H   0  0  0  0  0  0  0  0  0  0  0  0
    2.2368   -1.5011   -1.9806 H   0  0  0  0  0  0  0  0  0  0  0  0
    0.5974   -4.0382    4.4303 H   0  0  0  0  0  0  0  0  0  0  0  0
    1.2249   -2.7967   -3.7793 H   0  0  0  0  0  0  0  0  0  0  0  0
  1 13  2  0  0  0  0
  2  7  1  0  0  0  0
  2  8  1  0  0  0  0
  2  9  1  0  0  0  0
  3  4  1  0  0  0  0
  3 12  1  0  0  0  0
  3 13  1  0  0  0  0
  4  5  1  0  0  0  0
  4  6  1  0  0  0  0
  4 26  1  0  0  0  0
  5  7  1  0  0  0  0
  5 27  1  0  0  0  0
  5 28  1  0  0  0  0
  6  8  1  0  0  0  0
  6 29  1  0  0  0  0
  6 30  1  0  0  0  0
  7 31  1  0  0  0  0
  7 32  1  0  0  0  0
  8 33  1  0  0  0  0
  8 34  1  0  0  0  0
  9 10  1  0  0  0  0
  9 11  1  0  0  0  0
  9 35  1  0  0  0  0
 10 14  1  0  0  0  0
 10 36  1  0  0  0  0
 10 37  1  0  0  0  0
 11 38  1  0  0  0  0
 11 39  1  0  0  0  0
 11 40  1  0  0  0  0
 12 15  2  0  0  0  0
 12 16  1  0  0  0  0
 13 17  1  0  0  0  0
 14 18  2  0  0  0  0
 14 19  1  0  0  0  0
 15 20  1  0  0  0  0
 15 41  1  0  0  0  0
 16 21  2  0  0  0  0
 16 42  1  0  0  0  0
 17 43  1  0  0  0  0
 17 44  1  0  0  0  0
 17 45  1  0  0  0  0
 18 22  1  0  0  0  0
 18 46  1  0  0  0  0
 19 23  2  0  0  0  0
 19 47  1  0  0  0  0
 20 24  2  0  0  0  0
 20 48  1  0  0  0  0
 21 24  1  0  0  0  0
 21 49  1  0  0  0  0
 22 25  2  0  0  0  0
 22 50  1  0  0  0  0
 23 25  1  0  0  0  0
 23 51  1  0  0  0  0
 24 52  1  0  0  0  0
 25 53  1  0  0  0  0
M  END
>  <DRUGBANK_ID>
DB01532

>  <COMMON_NAME>
Î±-Methylacetylfentanyl

>  <CAS_NUMBER>
101860-00-8

>  <UNII>
0O1GKW2BQO

>  <SYNONYMS>
Acetyl-alpha-methylfentanyl; alphamethylacetylfentanyl

$$$$
