
 OpenBabel10282417233D

 71 74  0  0  0  0  0  0  0  0999 V2000
   -0.3103    1.1669   -1.7959 C   0  0  0  0  0  0  0  0  0  0  0  0
   -1.6333    1.3853   -2.6757 C   0  0  0  0  0  0  0  0  0  0  0  0
   -2.5502    2.2743   -2.2089 C   0  0  0  0  0  0  0  0  0  0  0  0
   -0.3508    1.5230   -0.3339 C   0  0  0  0  0  0  0  0  0  0  0  0
   -1.0303    2.6771   -0.4479 C   0  0  0  0  0  0  0  0  0  0  0  0
   -0.4487    3.9169   -1.1891 C   0  0  0  0  0  0  0  0  0  0  0  0
   -1.0896    5.1730   -0.5083 C   0  0  0  0  0  0  0  0  0  0  0  0
   -2.7149    5.1362   -0.6833 C   0  0  1  0  0  0  0  0  0  0  0  0
   -3.8410    6.5963   -0.4536 C   0  0  2  0  0  0  0  0  0  0  0  0
   -5.7920    6.9663   -0.2009 C   0  0  0  0  0  0  0  0  0  0  0  0
   -6.2388    6.9618    1.3004 C   0  0  0  0  0  0  0  0  0  0  0  0
   -4.8118    7.1223    1.4105 C   0  0  2  0  0  0  0  0  0  0  0  0
   -4.8668    8.7276    1.6285 C   0  0  0  0  0  0  0  0  0  0  0  0
   -4.4327    9.7852    0.6191 C   0  0  0  0  0  0  0  0  0  0  0  0
   -4.7629    5.7893    0.2083 C   0  0  2  0  0  0  0  0  0  0  0  0
   -5.1010    5.6666   -1.7263 C   0  0  0  0  0  0  0  0  0  0  0  0
   -5.0439    4.4805    0.9722 C   0  0  0  0  0  0  0  0  0  0  0  0
   -4.6667    3.5437   -0.0723 C   0  0  1  0  0  0  0  0  0  0  0  0
   -3.1743    3.7008   -0.1127 C   0  0  2  0  0  0  0  0  0  0  0  0
   -2.5015    2.4514   -0.6989 C   0  0  1  0  0  0  0  0  0  0  0  0
   -2.9887    1.0364   -0.0627 C   0  0  0  0  0  0  0  0  0  0  0  0
    0.8041    1.0216   -2.2817 O   0  0  0  0  0  0  0  0  0  0  0  0
   -5.3554    9.1504    2.6945 O   0  0  0  0  0  0  0  0  0  0  0  0
   -4.0070    6.6898    2.4720 O   0  0  0  0  0  0  0  0  0  0  0  0
   -5.1697    2.2774   -0.2438 O   0  0  0  0  0  0  0  0  0  0  0  0
   -6.6435   10.8480   -0.0242 C   0  0  0  0  0  0  0  0  0  0  0  0
   -7.0993    9.5503   -0.5419 C   0  0  0  0  0  0  0  0  0  0  0  0
   -8.2614    8.8943    0.2128 C   0  0  0  0  0  0  0  0  0  0  0  0
   -9.5707    9.5501   -0.1169 C   0  0  0  0  0  0  0  0  0  0  0  0
   -9.8380    9.5126   -1.6120 C   0  0  0  0  0  0  0  0  0  0  0  0
  -10.0497    8.0919   -2.1157 C   0  0  0  0  0  0  0  0  0  0  0  0
   -7.3835   11.8573   -0.1191 O   0  0  0  0  0  0  0  0  0  0  0  0
   -5.3855   10.9101    0.4907 O   0  0  0  0  0  0  0  0  0  0  0  0
   -2.8118    3.7270    0.9357 H   0  0  0  0  0  0  0  0  0  0  0  0
   -2.7274    5.0138   -1.7646 H   0  0  0  0  0  0  0  0  0  0  0  0
   -3.2144    7.3170    0.0773 H   0  0  0  0  0  0  0  0  0  0  0  0
   -2.1732    0.4343   -2.7583 H   0  0  0  0  0  0  0  0  0  0  0  0
   -2.7036    3.1658   -2.8322 H   0  0  0  0  0  0  0  0  0  0  0  0
   -0.6850    0.6463    0.2392 H   0  0  0  0  0  0  0  0  0  0  0  0
   -0.6225    4.0255   -2.2778 H   0  0  0  0  0  0  0  0  0  0  0  0
    0.6429    3.7751   -1.1763 H   0  0  0  0  0  0  0  0  0  0  0  0
   -0.6682    6.0919   -0.9247 H   0  0  0  0  0  0  0  0  0  0  0  0
   -0.7471    5.0819    0.5289 H   0  0  0  0  0  0  0  0  0  0  0  0
   -6.1986    7.5935   -0.9891 H   0  0  0  0  0  0  0  0  0  0  0  0
   -6.5860    6.1859   -0.5121 H   0  0  0  0  0  0  0  0  0  0  0  0
   -6.9029    7.7256    1.6574 H   0  0  0  0  0  0  0  0  0  0  0  0
   -6.6244    6.0636    1.7822 H   0  0  0  0  0  0  0  0  0  0  0  0
   -3.5290   10.2301    1.0493 H   0  0  0  0  0  0  0  0  0  0  0  0
   -4.1678    9.4021   -0.3670 H   0  0  0  0  0  0  0  0  0  0  0  0
   -5.9222    4.9986   -1.9983 H   0  0  0  0  0  0  0  0  0  0  0  0
   -5.3898    6.6246   -2.2166 H   0  0  0  0  0  0  0  0  0  0  0  0
   -4.2444    5.4953   -2.3810 H   0  0  0  0  0  0  0  0  0  0  0  0
   -6.1000    4.3534    1.2276 H   0  0  0  0  0  0  0  0  0  0  0  0
   -4.5102    4.3517    1.9258 H   0  0  0  0  0  0  0  0  0  0  0  0
   -5.2646    3.9034   -0.8628 H   0  0  0  0  0  0  0  0  0  0  0  0
   -4.0024    0.6855   -0.2599 H   0  0  0  0  0  0  0  0  0  0  0  0
   -2.4756    0.1723   -0.5069 H   0  0  0  0  0  0  0  0  0  0  0  0
   -2.8311    1.0125    1.0191 H   0  0  0  0  0  0  0  0  0  0  0  0
   -3.2200    6.2949    2.0507 H   0  0  0  0  0  0  0  0  0  0  0  0
   -4.8770    2.1168   -1.1770 H   0  0  0  0  0  0  0  0  0  0  0  0
   -7.1920    9.5025   -1.6315 H   0  0  0  0  0  0  0  0  0  0  0  0
   -6.1843    9.0486   -0.4014 H   0  0  0  0  0  0  0  0  0  0  0  0
   -8.3611    7.8141    0.0084 H   0  0  0  0  0  0  0  0  0  0  0  0
   -8.1474    9.0095    1.2934 H   0  0  0  0  0  0  0  0  0  0  0  0
  -10.3718    9.0531    0.4421 H   0  0  0  0  0  0  0  0  0  0  0  0
   -9.5152   10.5758    0.2537 H   0  0  0  0  0  0  0  0  0  0  0  0
  -10.7124   10.1298   -1.8159 H   0  0  0  0  0  0  0  0  0  0  0  0
   -9.0185    9.9703   -2.1742 H   0  0  0  0  0  0  0  0  0  0  0  0
  -10.8851    7.6253   -1.5860 H   0  0  0  0  0  0  0  0  0  0  0  0
  -10.2690    8.1062   -3.1851 H   0  0  0  0  0  0  0  0  0  0  0  0
   -9.1671    7.4556   -1.9775 H   0  0  0  0  0  0  0  0  0  0  0  0
  1  2  1  0  0  0  0
  1  4  1  0  0  0  0
  1 22  2  0  0  0  0
  2  3  2  0  0  0  0
  2 37  1  0  0  0  0
  3 20  1  0  0  0  0
  3 38  1  0  0  0  0
  4  5  2  0  0  0  0
  4 39  1  0  0  0  0
  5  6  1  0  0  0  0
  5 20  1  0  0  0  0
  6  7  1  0  0  0  0
  6 40  1  0  0  0  0
  6 41  1  0  0  0  0
  7  8  1  0  0  0  0
  7 42  1  0  0  0  0
  7 43  1  0  0  0  0
  8  9  1  0  0  0  0
  8 19  1  0  0  0  0
  8 35  1  1  0  0  0
  9 10  1  0  0  0  0
  9 15  1  0  0  0  0
  9 36  1  6  0  0  0
 10 11  1  0  0  0  0
 10 44  1  0  0  0  0
 10 45  1  0  0  0  0
 11 12  1  0  0  0  0
 11 46  1  0  0  0  0
 11 47  1  0  0  0  0
 12 15  1  0  0  0  0
 12 13  1  6  0  0  0
 12 24  1  0  0  0  0
 13 14  1  0  0  0  0
 13 23  2  0  0  0  0
 14 33  1  0  0  0  0
 14 48  1  0  0  0  0
 14 49  1  0  0  0  0
 15 17  1  0  0  0  0
 15 16  1  1  0  0  0
 16 50  1  0  0  0  0
 16 51  1  0  0  0  0
 16 52  1  0  0  0  0
 17 18  1  0  0  0  0
 17 53  1  0  0  0  0
 17 54  1  0  0  0  0
 18 19  1  0  0  0  0
 18 55  1  6  0  0  0
 18 25  1  0  0  0  0
 19 20  1  0  0  0  0
 19 34  1  6  0  0  0
 20 21  1  1  0  0  0
 21 56  1  0  0  0  0
 21 57  1  0  0  0  0
 21 58  1  0  0  0  0
 24 59  1  0  0  0  0
 25 60  1  0  0  0  0
 26 27  1  0  0  0  0
 26 32  2  0  0  0  0
 26 33  1  0  0  0  0
 27 28  1  0  0  0  0
 27 61  1  0  0  0  0
 27 62  1  0  0  0  0
 28 29  1  0  0  0  0
 28 63  1  0  0  0  0
 28 64  1  0  0  0  0
 29 30  1  0  0  0  0
 29 65  1  0  0  0  0
 29 66  1  0  0  0  0
 30 31  1  0  0  0  0
 30 67  1  0  0  0  0
 30 68  1  0  0  0  0
 31 69  1  0  0  0  0
 31 70  1  0  0  0  0
 31 71  1  0  0  0  0
M  END
>  <DRUGBANK_ID>
DB15999

>  <COMMON_NAME>
Prednisolone caproate

>  <CAS_NUMBER>
69164-69-8

>  <UNII>
0PA7CJ4RFB

>  <SYNONYMS>
Prednisolone hexanoate; Prednisolone-21 hexanoate

$$$$
