1224
 OpenBabel10282417113D

 52 55  0  0  0  0  0  0  0  0999 V2000
   -0.0204   -1.6439   -1.0965 S   0  0  0  0  0  0  0  0  0  0  0  0
   -0.1236    5.2559   -3.4501 O   0  0  0  0  0  0  0  0  0  0  0  0
   -1.0245    5.2800   -0.4360 O   0  0  0  0  0  0  0  0  0  0  0  0
   -3.3525    3.6063   -3.9733 N   0  0  0  0  0  0  0  0  0  0  0  0
   -1.6851    1.8334   -2.2489 N   0  0  0  0  0  0  0  0  0  0  0  0
    0.5712    1.3963   -1.2977 N   0  0  0  0  0  0  0  0  0  0  0  0
   -3.8622    3.3129   -2.6317 C   0  0  0  0  0  0  0  0  0  0  0  0
   -2.6690    2.3677   -4.4769 C   0  0  0  0  0  0  0  0  0  0  0  0
   -2.6936    2.9040   -1.7929 C   0  0  0  0  0  0  0  0  0  0  0  0
   -1.4118    1.7971   -3.7446 C   0  0  0  0  0  0  0  0  0  0  0  0
   -2.7236    4.9762   -4.1756 C   0  0  0  0  0  0  0  0  0  0  0  0
   -0.7703    1.2922   -1.2784 C   0  0  0  0  0  0  0  0  0  0  0  0
   -1.4560    5.7808   -3.5339 C   0  0  0  0  0  0  0  0  0  0  0  0
   -1.4496    0.5530   -0.1826 C   0  0  0  0  0  0  0  0  0  0  0  0
   -1.3718   -0.8313   -0.2555 C   0  0  0  0  0  0  0  0  0  0  0  0
   -2.3651    1.1833    0.6830 C   0  0  0  0  0  0  0  0  0  0  0  0
    1.4086    0.6721   -0.3735 C   0  0  0  0  0  0  0  0  0  0  0  0
    1.3142   -0.7376   -0.2824 C   0  0  0  0  0  0  0  0  0  0  0  0
   -2.3393   -1.5748    0.4022 C   0  0  0  0  0  0  0  0  0  0  0  0
   -0.0826    4.1390   -2.5910 C   0  0  0  0  0  0  0  0  0  0  0  0
   -3.3505    0.4357    1.3037 C   0  0  0  0  0  0  0  0  0  0  0  0
   -3.3469   -0.9447    1.1463 C   0  0  0  0  0  0  0  0  0  0  0  0
    2.4715    1.2748    0.3621 C   0  0  0  0  0  0  0  0  0  0  0  0
    2.2241   -1.4961    0.4704 C   0  0  0  0  0  0  0  0  0  0  0  0
   -0.2554    4.2327   -1.0255 C   0  0  0  0  0  0  0  0  0  0  0  0
    3.3924    0.4985    1.1126 C   0  0  0  0  0  0  0  0  0  0  0  0
    3.2725   -0.8880    1.1548 C   0  0  0  0  0  0  0  0  0  0  0  0
   -1.8801    5.3922   -0.8785 H   0  0  0  0  0  0  0  0  0  0  0  0
   -4.3114    4.2189   -2.1851 H   0  0  0  0  0  0  0  0  0  0  0  0
   -4.6389    2.5432   -2.5520 H   0  0  0  0  0  0  0  0  0  0  0  0
   -3.3962    1.5518   -4.3508 H   0  0  0  0  0  0  0  0  0  0  0  0
   -2.5000    2.4647   -5.5504 H   0  0  0  0  0  0  0  0  0  0  0  0
   -2.2344    3.8658   -1.8421 H   0  0  0  0  0  0  0  0  0  0  0  0
   -2.9753    2.8903   -0.7564 H   0  0  0  0  0  0  0  0  0  0  0  0
   -0.5437    2.3516   -4.1459 H   0  0  0  0  0  0  0  0  0  0  0  0
   -1.1281    0.7790   -4.0513 H   0  0  0  0  0  0  0  0  0  0  0  0
   -2.6412    5.1008   -5.2594 H   0  0  0  0  0  0  0  0  0  0  0  0
   -3.5433    5.6705   -3.9030 H   0  0  0  0  0  0  0  0  0  0  0  0
   -1.3284    6.7114   -4.0989 H   0  0  0  0  0  0  0  0  0  0  0  0
   -1.7107    6.1227   -2.5381 H   0  0  0  0  0  0  0  0  0  0  0  0
   -2.3592    2.2560    0.8480 H   0  0  0  0  0  0  0  0  0  0  0  0
   -2.3235   -2.6552    0.3215 H   0  0  0  0  0  0  0  0  0  0  0  0
   -0.9386    3.6972   -3.0168 H   0  0  0  0  0  0  0  0  0  0  0  0
    0.7053    3.4271   -2.8677 H   0  0  0  0  0  0  0  0  0  0  0  0
   -4.1281    0.9316    1.8824 H   0  0  0  0  0  0  0  0  0  0  0  0
   -4.1152   -1.5408    1.6240 H   0  0  0  0  0  0  0  0  0  0  0  0
    2.6293    2.3522    0.3540 H   0  0  0  0  0  0  0  0  0  0  0  0
    2.1183   -2.5771    0.5101 H   0  0  0  0  0  0  0  0  0  0  0  0
   -0.7463    3.3580   -0.6070 H   0  0  0  0  0  0  0  0  0  0  0  0
    0.7103    4.1391   -0.5469 H   0  0  0  0  0  0  0  0  0  0  0  0
    4.2260    0.9630    1.6460 H   0  0  0  0  0  0  0  0  0  0  0  0
    3.9871   -1.5009    1.7010 H   0  0  0  0  0  0  0  0  0  0  0  0
  1 15  1  0  0  0  0
  1 18  1  0  0  0  0
  2 13  1  0  0  0  0
  2 20  1  0  0  0  0
  3 25  1  0  0  0  0
  3 28  1  0  0  0  0
  4  7  1  0  0  0  0
  4  8  1  0  0  0  0
  4 11  1  0  0  0  0
  5  9  1  0  0  0  0
  5 10  1  0  0  0  0
  5 12  1  0  0  0  0
  6 12  2  0  0  0  0
  6 17  1  0  0  0  0
  7  9  1  0  0  0  0
  7 29  1  0  0  0  0
  7 30  1  0  0  0  0
  8 10  1  0  0  0  0
  8 31  1  0  0  0  0
  8 32  1  0  0  0  0
  9 33  1  0  0  0  0
  9 34  1  0  0  0  0
 10 35  1  0  0  0  0
 10 36  1  0  0  0  0
 11 13  1  0  0  0  0
 11 37  1  0  0  0  0
 11 38  1  0  0  0  0
 12 14  1  0  0  0  0
 13 39  1  0  0  0  0
 13 40  1  0  0  0  0
 14 15  1  0  0  0  0
 14 16  2  0  0  0  0
 15 19  2  0  0  0  0
 16 21  1  0  0  0  0
 16 41  1  0  0  0  0
 17 18  1  0  0  0  0
 17 23  2  0  0  0  0
 18 24  2  0  0  0  0
 19 22  1  0  0  0  0
 19 42  1  0  0  0  0
 20 25  1  0  0  0  0
 20 43  1  0  0  0  0
 20 44  1  0  0  0  0
 21 22  2  0  0  0  0
 21 45  1  0  0  0  0
 22 46  1  0  0  0  0
 23 26  1  0  0  0  0
 23 47  1  0  0  0  0
 24 27  1  0  0  0  0
 24 48  1  0  0  0  0
 25 49  1  0  0  0  0
 25 50  1  0  0  0  0
 26 27  2  0  0  0  0
 26 51  1  0  0  0  0
 27 52  1  0  0  0  0
M  END
>  <DRUGBANK_ID>
DB01224

>  <SECONDARY_ACCESSION_NUMBERS>
APRD00675

>  <COMMON_NAME>
Quetiapine

>  <CAS_NUMBER>
111974-69-7

>  <UNII>
BGL0JSY5SI

>  <SYNONYMS>
2-[2-(4-Dibenzo[b,f][1,4]thiazepin-11-yl-1-piperazinyl)ethoxy]ethanol; Quetiapina; Quetiapine; Qu√©tiapine; Quetiapinum

$$$$
