
 OpenBabel10282417183D

 50 53  0  0  0  0  0  0  0  0999 V2000
   -1.0887   -1.3396    0.0215 C   0  0  0  0  0  0  0  0  0  0  0  0
   -1.8326   -0.1946   -0.1321 C   0  0  0  0  0  0  0  0  0  0  0  0
   -1.1658    0.9989   -0.3502 C   0  0  0  0  0  0  0  0  0  0  0  0
    0.2045    1.1646   -0.1488 C   0  0  0  0  0  0  0  0  0  0  0  0
    0.9769   -0.0048   -0.0224 C   0  0  0  0  0  0  0  0  0  0  0  0
    0.3071   -1.2489    0.0206 C   0  0  0  0  0  0  0  0  0  0  0  0
    2.3656   -0.0024    0.0029 N   0  0  0  0  0  0  0  0  0  0  0  0
    0.7882    2.4604   -0.0921 N   0  0  0  0  0  0  0  0  0  0  0  0
    0.2139    3.7328   -0.0463 C   0  0  0  0  0  0  0  0  0  0  0  0
    0.9191    4.7259   -0.1557 O   0  0  0  0  0  0  0  0  0  0  0  0
   -1.2534    3.9327    0.1512 C   0  0  0  0  0  0  0  0  0  0  0  0
   -1.9415    3.2521    1.1665 C   0  0  0  0  0  0  0  0  0  0  0  0
   -3.3418    3.1951    1.1502 C   0  0  0  0  0  0  0  0  0  0  0  0
   -4.0771    3.9764    0.2486 C   0  0  0  0  0  0  0  0  0  0  0  0
   -3.3742    4.7834   -0.6634 C   0  0  0  0  0  0  0  0  0  0  0  0
   -1.9750    4.7122   -0.7605 C   0  0  0  0  0  0  0  0  0  0  0  0
   -5.5950    3.9106    0.2244 C   0  0  0  0  0  0  0  0  0  0  0  0
   -6.1817    5.1502    0.6819 N   0  0  0  0  0  0  0  0  0  0  0  0
   -6.9664    5.8487   -0.2072 C   0  0  0  0  0  0  0  0  0  0  0  0
   -6.7811    7.1732   -0.3048 N   0  0  0  0  0  0  0  0  0  0  0  0
   -7.6171    7.8515   -1.1171 C   0  0  0  0  0  0  0  0  0  0  0  0
   -8.6546    7.2645   -1.7923 C   0  0  0  0  0  0  0  0  0  0  0  0
   -8.7869    5.9050   -1.6135 C   0  0  0  0  0  0  0  0  0  0  0  0
   -7.9372    5.1870   -0.8519 N   0  0  0  0  0  0  0  0  0  0  0  0
   -9.8764    5.1646   -2.2421 C   0  0  0  0  0  0  0  0  0  0  0  0
  -10.0404    5.1513   -3.6321 C   0  0  0  0  0  0  0  0  0  0  0  0
  -11.1171    4.4816   -4.2050 C   0  0  0  0  0  0  0  0  0  0  0  0
  -12.0095    3.8378   -3.3656 C   0  0  0  0  0  0  0  0  0  0  0  0
  -11.8962    3.8242   -2.0207 N   0  0  0  0  0  0  0  0  0  0  0  0
  -10.8313    4.4795   -1.4923 C   0  0  0  0  0  0  0  0  0  0  0  0
   -1.5966   -2.2967    0.0792 H   0  0  0  0  0  0  0  0  0  0  0  0
   -2.9185   -0.2000   -0.1347 H   0  0  0  0  0  0  0  0  0  0  0  0
   -1.7849    1.8088   -0.6967 H   0  0  0  0  0  0  0  0  0  0  0  0
    0.8725   -2.1757    0.0552 H   0  0  0  0  0  0  0  0  0  0  0  0
    2.8679   -0.8803    0.0440 H   0  0  0  0  0  0  0  0  0  0  0  0
    2.9049    0.8469    0.0278 H   0  0  0  0  0  0  0  0  0  0  0  0
    1.7989    2.5036   -0.0768 H   0  0  0  0  0  0  0  0  0  0  0  0
   -1.3930    2.6091    1.8530 H   0  0  0  0  0  0  0  0  0  0  0  0
   -3.8427    2.4862    1.8079 H   0  0  0  0  0  0  0  0  0  0  0  0
   -3.9225    5.4484   -1.3285 H   0  0  0  0  0  0  0  0  0  0  0  0
   -1.4649    5.2280   -1.5722 H   0  0  0  0  0  0  0  0  0  0  0  0
   -5.9115    3.6040   -0.7828 H   0  0  0  0  0  0  0  0  0  0  0  0
   -5.9380    3.1178    0.8999 H   0  0  0  0  0  0  0  0  0  0  0  0
   -5.6344    5.7325    1.2969 H   0  0  0  0  0  0  0  0  0  0  0  0
   -7.4347    8.9192   -1.2058 H   0  0  0  0  0  0  0  0  0  0  0  0
   -9.3374    7.8350   -2.4081 H   0  0  0  0  0  0  0  0  0  0  0  0
   -9.3241    5.6606   -4.2720 H   0  0  0  0  0  0  0  0  0  0  0  0
  -11.2533    4.4648   -5.2800 H   0  0  0  0  0  0  0  0  0  0  0  0
  -12.8633    3.2993   -3.7664 H   0  0  0  0  0  0  0  0  0  0  0  0
  -10.7810    4.4568   -0.4053 H   0  0  0  0  0  0  0  0  0  0  0  0
  1  2  2  0  0  0  0
  1  6  1  0  0  0  0
  1 31  1  0  0  0  0
  2  3  1  0  0  0  0
  2 32  1  0  0  0  0
  3  4  2  0  0  0  0
  3 33  1  0  0  0  0
  4  5  1  0  0  0  0
  4  8  1  0  0  0  0
  5  6  2  0  0  0  0
  5  7  1  0  0  0  0
  6 34  1  0  0  0  0
  7 35  1  0  0  0  0
  7 36  1  0  0  0  0
  8  9  1  0  0  0  0
  8 37  1  0  0  0  0
  9 10  2  0  0  0  0
  9 11  1  0  0  0  0
 11 12  2  0  0  0  0
 11 16  1  0  0  0  0
 12 13  1  0  0  0  0
 12 38  1  0  0  0  0
 13 14  2  0  0  0  0
 13 39  1  0  0  0  0
 14 15  1  0  0  0  0
 14 17  1  0  0  0  0
 15 16  2  0  0  0  0
 15 40  1  0  0  0  0
 16 41  1  0  0  0  0
 17 18  1  0  0  0  0
 17 42  1  0  0  0  0
 17 43  1  0  0  0  0
 18 19  1  0  0  0  0
 18 44  1  0  0  0  0
 19 20  2  0  0  0  0
 19 24  1  0  0  0  0
 20 21  1  0  0  0  0
 21 22  2  0  0  0  0
 21 45  1  0  0  0  0
 22 23  1  0  0  0  0
 22 46  1  0  0  0  0
 23 24  2  0  0  0  0
 23 25  1  0  0  0  0
 25 26  2  0  0  0  0
 25 30  1  0  0  0  0
 26 27  1  0  0  0  0
 26 47  1  0  0  0  0
 27 28  2  0  0  0  0
 27 48  1  0  0  0  0
 28 29  1  0  0  0  0
 28 49  1  0  0  0  0
 29 30  2  0  0  0  0
 30 50  1  0  0  0  0
M  END
>  <DRUGBANK_ID>
DB11830

>  <SECONDARY_ACCESSION_NUMBERS>
DB05651

>  <COMMON_NAME>
Mocetinostat

>  <CAS_NUMBER>
726169-73-9

>  <UNII>
A6GWB8T96J

>  <SYNONYMS>
Mocetinostat

$$$$
