
 OpenBabel10282417213D

 54 57  0  0  0  0  0  0  0  0999 V2000
   -3.2696    0.3170   -1.6237 C   0  0  0  0  0  0  0  0  0  0  0  0
   -2.0883   -0.8563   -1.2468 C   0  0  0  0  0  0  0  0  0  0  0  0
   -2.3017   -1.9318   -0.0783 C   0  0  0  0  0  0  0  0  0  0  0  0
   -1.6230   -3.0896    0.4641 C   0  0  0  0  0  0  0  0  0  0  0  0
   -2.7007   -2.3852    2.4641 C   0  0  0  0  0  0  0  0  0  0  0  0
   -3.7730   -1.5439    1.8646 C   0  0  0  0  0  0  0  0  0  0  0  0
   -3.8009   -1.6925    0.2522 C   0  0  2  0  0  0  0  0  0  0  0  0
   -7.3795    0.0525   -0.1815 C   0  0  0  0  0  0  0  0  0  0  0  0
   -7.0678    3.1173   -1.3340 C   0  0  0  0  0  0  0  0  0  0  0  0
   -5.8223    2.1936   -1.0817 C   0  0  0  0  0  0  0  0  0  0  0  0
   -4.8954   -0.6348   -0.1336 C   0  0  2  0  0  0  0  0  0  0  0  0
   -4.7978    0.2252    0.5571 H   0  0  0  0  0  0  0  0  0  0  0  0
   -5.8637    0.8618   -1.9081 C   0  0  1  0  0  0  0  0  0  0  0  0
   -5.6599    0.9367   -2.9749 H   0  0  0  0  0  0  0  0  0  0  0  0
   -4.7567   -0.1229   -1.5150 C   0  0  2  0  0  0  0  0  0  0  0  0
   -4.9299   -0.8843   -2.2694 H   0  0  0  0  0  0  0  0  0  0  0  0
   -7.3975    0.6575   -1.8716 C   0  0  1  0  0  0  0  0  0  0  0  0
   -7.4848    2.4241   -2.6278 C   0  0  1  0  0  0  0  0  0  0  0  0
   -2.7579   -3.5067    1.4602 C   0  0  0  0  0  0  0  0  0  0  0  0
   -3.5657   -4.3427    1.2878 O   0  0  0  0  0  0  0  0  0  0  0  0
   -6.3376   -1.1433    0.0686 C   0  0  0  0  0  0  0  0  0  0  0  0
   -8.1600    3.7760   -3.5978 C   0  0  0  0  0  0  0  0  0  0  0  0
   -9.2109    3.6852   -4.2423 O   0  0  0  0  0  0  0  0  0  0  0  0
   -6.3083    2.6324   -3.6066 O   0  0  0  0  0  0  0  0  0  0  0  0
   -4.1439   -2.8299   -0.7996 C   0  0  0  0  0  0  0  0  0  0  0  0
   -8.1196   -0.7008   -2.3922 C   0  0  0  0  0  0  0  0  0  0  0  0
   -7.1847    5.1735   -3.9723 C   0  0  0  0  0  0  0  0  0  0  0  0
   -3.1912    0.6925   -2.6538 H   0  0  0  0  0  0  0  0  0  0  0  0
   -3.0420    1.2155   -1.0236 H   0  0  0  0  0  0  0  0  0  0  0  0
   -1.9709   -1.4145   -2.1822 H   0  0  0  0  0  0  0  0  0  0  0  0
   -1.2002   -0.2654   -1.0087 H   0  0  0  0  0  0  0  0  0  0  0  0
   -1.3480   -4.0355    1.0899 H   0  0  0  0  0  0  0  0  0  0  0  0
   -2.6325   -2.7044    3.4897 H   0  0  0  0  0  0  0  0  0  0  0  0
   -1.7760   -1.7966    2.3185 H   0  0  0  0  0  0  0  0  0  0  0  0
   -4.7093   -1.8066    2.3445 H   0  0  0  0  0  0  0  0  0  0  0  0
   -3.5505   -0.4933    2.1601 H   0  0  0  0  0  0  0  0  0  0  0  0
   -8.3651   -0.3710    0.0599 H   0  0  0  0  0  0  0  0  0  0  0  0
   -7.1654    0.7644    0.6121 H   0  0  0  0  0  0  0  0  0  0  0  0
   -8.1726    3.2483   -1.2194 H   0  0  0  0  0  0  0  0  0  0  0  0
   -7.3810    2.9414   -0.2811 H   0  0  0  0  0  0  0  0  0  0  0  0
   -5.7851    2.0190    0.0016 H   0  0  0  0  0  0  0  0  0  0  0  0
   -4.8692    2.6716   -1.2811 H   0  0  0  0  0  0  0  0  0  0  0  0
   -6.9162   -2.0911    0.0759 H   0  0  0  0  0  0  0  0  0  0  0  0
   -6.0747   -1.5227    1.0478 H   0  0  0  0  0  0  0  0  0  0  0  0
   -6.5921    2.9392   -4.4922 H   0  0  0  0  0  0  0  0  0  0  0  0
   -4.3314   -2.4406   -1.8042 H   0  0  0  0  0  0  0  0  0  0  0  0
   -3.3217   -3.4910   -1.1347 H   0  0  0  0  0  0  0  0  0  0  0  0
   -4.9914   -3.4090   -0.4947 H   0  0  0  0  0  0  0  0  0  0  0  0
   -7.6741   -1.6072   -1.9170 H   0  0  0  0  0  0  0  0  0  0  0  0
   -9.1505   -0.7928   -1.9794 H   0  0  0  0  0  0  0  0  0  0  0  0
   -8.1432   -0.9851   -3.4424 H   0  0  0  0  0  0  0  0  0  0  0  0
   -7.0267    5.9121   -3.1724 H   0  0  0  0  0  0  0  0  0  0  0  0
   -6.1995    4.9678   -4.4297 H   0  0  0  0  0  0  0  0  0  0  0  0
   -7.6673    5.7638   -4.7857 H   0  0  0  0  0  0  0  0  0  0  0  0
  1  2  1  0  0  0  0
  1 28  1  0  0  0  0
  1 29  1  0  0  0  0
  2  3  1  0  0  0  0
  2 30  1  0  0  0  0
  2 31  1  0  0  0  0
  3  4  2  0  0  0  0
  3  7  1  0  0  0  0
  4 19  1  0  0  0  0
  4 32  1  0  0  0  0
  5  6  1  0  0  0  0
  5 33  1  0  0  0  0
  5 34  1  0  0  0  0
  6  7  1  0  0  0  0
  6 35  1  0  0  0  0
  6 36  1  0  0  0  0
  7 11  1  0  0  0  0
  7 25  1  1  0  0  0
  8 17  1  0  0  0  0
  8 37  1  0  0  0  0
  8 38  1  0  0  0  0
  9 10  1  0  0  0  0
  9 39  1  0  0  0  0
  9 40  1  0  0  0  0
 10 13  1  0  0  0  0
 10 41  1  0  0  0  0
 10 42  1  0  0  0  0
 11 21  1  0  0  0  0
 11 12  1  6  0  0  0
 13 14  1  6  0  0  0
 15  1  1  0  0  0  0
 15 11  1  0  0  0  0
 15 13  1  0  0  0  0
 15 16  1  1  0  0  0
 17 18  1  0  0  0  0
 17 13  1  0  0  0  0
 17 26  1  1  0  0  0
 18  9  1  0  0  0  0
 18 22  1  6  0  0  0
 18 24  1  0  0  0  0
 19  5  1  0  0  0  0
 19 20  2  0  0  0  0
 21  8  1  0  0  0  0
 21 43  1  0  0  0  0
 21 44  1  0  0  0  0
 22 23  2  0  0  0  0
 22 27  1  0  0  0  0
 24 45  1  0  0  0  0
 25 46  1  0  0  0  0
 25 47  1  0  0  0  0
 25 48  1  0  0  0  0
 26 49  1  0  0  0  0
 26 50  1  0  0  0  0
 26 51  1  0  0  0  0
 27 52  1  0  0  0  0
 27 53  1  0  0  0  0
 27 54  1  0  0  0  0
M  END
>  <DRUGBANK_ID>
DB14570

>  <COMMON_NAME>
Hydroxyprogesterone

>  <CAS_NUMBER>
68-96-2

>  <UNII>
21807M87J2

>  <SYNONYMS>
17-Hydroxypregn-4-en-3,20-dione; 17-hydroxyprogesterone; 17alpha-hydroxyprogesterone; 17Î±-hydroxyprogesterone; delta(4)-Pregnene-17alpha-ol-3,20-dione; Hidroxiprogesterona; Hydroxyprogesterone; Hydroxyprogesteronum; Pregn-4-ene-3,20-dione-17-ol

$$$$
