
 OpenBabel10282417113D

 56 59  0  0  1  0  0  0  0  0999 V2000
    1.0963   -0.4944   -0.3543 C   0  0  0  0  0  0  0  0  0  0  0  0
    1.9519   -1.5303   -1.0587 C   0  0  0  0  0  0  0  0  0  0  0  0
    1.6806   -2.9726   -0.6162 C   0  0  0  0  0  0  0  0  0  0  0  0
    1.5064   -3.2095    0.7126 C   0  0  0  0  0  0  0  0  0  0  0  0
    1.6082   -1.9698    1.5926 C   0  0  2  0  0  0  0  0  0  0  0  0
    0.7258   -0.9315    0.8536 C   0  0  0  0  0  0  0  0  0  0  0  0
    1.2340   -4.5503    1.3443 C   0  0  2  0  0  0  0  0  0  0  0  0
    1.4322   -4.6418    2.9115 C   0  0  0  0  0  0  0  0  0  0  0  0
    0.8266   -3.4132    3.6661 C   0  0  2  0  0  0  0  0  0  0  0  0
    1.3390   -2.0488    3.1445 C   0  0  2  0  0  0  0  0  0  0  0  0
    0.4494   -3.2730    5.2643 C   0  0  1  0  0  0  0  0  0  0  0  0
   -0.7456   -2.1661    5.2359 C   0  0  1  0  0  0  0  0  0  0  0  0
    0.1904   -0.9283    5.0173 C   0  0  0  0  0  0  0  0  0  0  0  0
    0.5914   -0.7509    3.6137 C   0  0  2  0  0  0  0  0  0  0  0  0
    1.9721   -5.5251    0.7422 F   0  0  0  0  0  0  0  0  0  0  0  0
    3.0011   -1.9970    4.2106 Cl  0  0  0  0  0  0  0  0  0  0  0  0
    1.3293   -2.9811    5.8467 H   0  0  0  0  0  0  0  0  0  0  0  0
   -1.8780   -1.3211    5.8773 C   0  0  0  0  0  0  0  0  0  0  0  0
    3.0986   -1.5606    1.5261 C   0  0  0  0  0  0  0  0  0  0  0  0
    2.8541   -1.2197   -1.7479 O   0  0  0  0  0  0  0  0  0  0  0  0
   -0.5671   -0.2588    2.9403 O   0  0  0  0  0  0  0  0  0  0  0  0
   -0.1305   -3.5612    3.2576 H   0  0  0  0  0  0  0  0  0  0  0  0
   -1.7380   -3.2689    4.6065 C   0  0  2  0  0  0  0  0  0  0  0  0
   -1.5379   -4.4241    5.7025 C   0  0  1  0  0  0  0  0  0  0  0  0
   -0.0415   -4.5454    5.9040 C   0  0  0  0  0  0  0  0  0  0  0  0
   -2.2317   -2.8816    3.1794 C   0  0  0  0  0  0  0  0  0  0  0  0
   -1.8732   -3.5732    1.8783 C   0  0  0  0  0  0  0  0  0  0  0  0
   -2.8502   -1.8077    3.0737 O   0  0  0  0  0  0  0  0  0  0  0  0
   -2.5993   -3.1181    0.7495 O   0  0  0  0  0  0  0  0  0  0  0  0
   -2.1578   -3.8825    7.0593 C   0  0  0  0  0  0  0  0  0  0  0  0
    1.6061    0.4721   -0.3447 H   0  0  0  0  0  0  0  0  0  0  0  0
    1.7286   -3.7245   -1.3917 H   0  0  0  0  0  0  0  0  0  0  0  0
   -0.3690   -1.0100    0.9452 H   0  0  0  0  0  0  0  0  0  0  0  0
    0.2002   -4.8317    1.1077 H   0  0  0  0  0  0  0  0  0  0  0  0
    2.4847   -4.8185    3.1307 H   0  0  0  0  0  0  0  0  0  0  0  0
    0.8911   -5.5505    3.2178 H   0  0  0  0  0  0  0  0  0  0  0  0
   -0.2005    0.0295    5.3913 H   0  0  0  0  0  0  0  0  0  0  0  0
    1.0866   -0.9976    5.6531 H   0  0  0  0  0  0  0  0  0  0  0  0
    1.3021    0.0811    3.5248 H   0  0  0  0  0  0  0  0  0  0  0  0
   -2.1729   -0.5587    5.1290 H   0  0  0  0  0  0  0  0  0  0  0  0
   -2.8588   -1.7904    6.0018 H   0  0  0  0  0  0  0  0  0  0  0  0
   -1.6249   -0.7983    6.7882 H   0  0  0  0  0  0  0  0  0  0  0  0
    3.5566   -1.3877    0.5622 H   0  0  0  0  0  0  0  0  0  0  0  0
    3.2460   -0.6311    2.0856 H   0  0  0  0  0  0  0  0  0  0  0  0
    3.6866   -2.3965    1.9217 H   0  0  0  0  0  0  0  0  0  0  0  0
   -1.4132   -0.6390    3.2398 H   0  0  0  0  0  0  0  0  0  0  0  0
   -2.8026   -3.2611    4.8795 H   0  0  0  0  0  0  0  0  0  0  0  0
   -1.9745   -5.4007    5.4942 H   0  0  0  0  0  0  0  0  0  0  0  0
    0.4007   -5.4381    5.4516 H   0  0  0  0  0  0  0  0  0  0  0  0
    0.2517   -4.5759    6.9686 H   0  0  0  0  0  0  0  0  0  0  0  0
   -0.8793   -3.2312    1.6329 H   0  0  0  0  0  0  0  0  0  0  0  0
   -1.9176   -4.6595    1.9332 H   0  0  0  0  0  0  0  0  0  0  0  0
   -3.3203   -2.5557    1.0916 H   0  0  0  0  0  0  0  0  0  0  0  0
   -2.2017   -4.5784    7.8971 H   0  0  0  0  0  0  0  0  0  0  0  0
   -1.5877   -3.0273    7.4534 H   0  0  0  0  0  0  0  0  0  0  0  0
   -3.1870   -3.5507    6.8798 H   0  0  0  0  0  0  0  0  0  0  0  0
  1  2  1  0  0  0  0
  1  6  2  0  0  0  0
  1 31  1  0  0  0  0
  2  3  1  0  0  0  0
  2 20  2  0  0  0  0
  3  4  2  0  0  0  0
  3 32  1  0  0  0  0
  4  5  1  0  0  0  0
  4  7  1  0  0  0  0
  5  6  1  0  0  0  0
  5 10  1  0  0  0  0
  5 19  1  1  0  0  0
  6 33  1  0  0  0  0
  7  8  1  0  0  0  0
  7 15  1  0  0  0  0
  7 34  1  6  0  0  0
  8  9  1  0  0  0  0
  8 35  1  0  0  0  0
  8 36  1  0  0  0  0
  9 10  1  0  0  0  0
  9 11  1  0  0  0  0
  9 22  1  6  0  0  0
 10 14  1  0  0  0  0
 10 16  1  1  0  0  0
 11 17  1  1  0  0  0
 11 12  1  0  0  0  0
 12 13  1  0  0  0  0
 12 18  1  6  0  0  0
 13 14  1  0  0  0  0
 13 37  1  0  0  0  0
 13 38  1  0  0  0  0
 14 21  1  0  0  0  0
 14 39  1  6  0  0  0
 18 40  1  0  0  0  0
 18 41  1  0  0  0  0
 18 42  1  0  0  0  0
 19 43  1  0  0  0  0
 19 44  1  0  0  0  0
 19 45  1  0  0  0  0
 21 46  1  0  0  0  0
 23 12  1  0  0  0  0
 23 47  1  1  0  0  0
 23 26  1  0  0  0  0
 24 23  1  0  0  0  0
 24 48  1  6  0  0  0
 24 30  1  0  0  0  0
 25 11  1  0  0  0  0
 25 24  1  0  0  0  0
 25 49  1  0  0  0  0
 25 50  1  0  0  0  0
 26 27  1  0  0  0  0
 26 28  2  0  0  0  0
 27 29  1  0  0  0  0
 27 51  1  0  0  0  0
 27 52  1  0  0  0  0
 29 53  1  0  0  0  0
 30 54  1  0  0  0  0
 30 55  1  0  0  0  0
 30 56  1  0  0  0  0
M  END
>  <DRUGBANK_ID>
DB00838

>  <SECONDARY_ACCESSION_NUMBERS>
APRD00877

>  <COMMON_NAME>
Clocortolone

>  <CAS_NUMBER>
4828-27-7

>  <UNII>
N8ZUB7XE0H

>  <SYNONYMS>
9-chloro-6alpha-Fluoro-11beta,21-dihydroxy-16alpha-methyl-1,4-pregnadien-3,20-dione; 9-chloro-6alpha-Fluoro-16alpha-methyl-1,4-pregnadiene-11beta,21-diol-3,20-dione; Clocortolon; Clocortolona; Clocortolone; Clocortolonum

$$$$
