
 OpenBabel10282417143D

 78 79  0  0  1  0  0  0  0  0999 V2000
   -0.0300    2.5394   -5.6044 N   0  0  0  0  0  0  0  0  0  0  0  0
   -0.0174    2.7584   -6.8357 C   0  0  0  0  0  0  0  0  0  0  0  0
    0.9105    2.0590   -7.5202 N   0  0  0  0  0  0  0  0  0  0  0  0
   -0.8698    3.9363   -7.1046 C   0  0  0  0  0  0  0  0  0  0  0  0
   -2.2654    3.4985   -6.6980 C   0  0  0  0  0  0  0  0  0  0  0  0
   -2.4472    3.1946   -5.1579 C   0  0  2  0  0  0  0  0  0  0  0  0
   -1.9108    1.7830   -4.5982 N   0  0  0  0  0  0  0  0  0  0  0  0
   -0.8274    1.1903   -3.8597 C   0  0  0  0  0  0  0  0  0  0  0  0
   -0.8549   -0.0461   -3.7058 O   0  0  0  0  0  0  0  0  0  0  0  0
    0.5119    1.9303   -3.3005 C   0  0  2  0  0  0  0  0  0  0  0  0
    1.7805    2.0563   -4.2602 N   0  0  0  0  0  0  0  0  0  0  0  0
    2.3926    3.5951   -5.0561 S   0  0  0  0  0  0  0  0  0  0  0  0
    3.7058    3.2106   -5.5428 O   0  0  0  0  0  0  0  0  0  0  0  0
    1.6038    4.2855   -6.0536 O   0  0  0  0  0  0  0  0  0  0  0  0
    2.4372    4.8635   -3.8313 C   0  0  0  0  0  0  0  0  0  0  0  0
    1.1345    5.2072   -3.0673 C   0  0  0  0  0  0  0  0  0  0  0  0
   -0.2080    4.8040   -3.3166 C   0  0  0  0  0  0  0  0  0  0  0  0
   -1.2538    4.7432   -2.3041 C   0  0  0  0  0  0  0  0  0  0  0  0
   -0.9863    5.4345   -1.1548 C   0  0  0  0  0  0  0  0  0  0  0  0
    0.2526    6.0478   -0.9823 C   0  0  0  0  0  0  0  0  0  0  0  0
    1.2864    5.9599   -1.9223 C   0  0  0  0  0  0  0  0  0  0  0  0
   -2.4409    3.7144   -2.1641 C   0  0  0  0  0  0  0  0  0  0  0  0
   -3.4767    4.0017   -1.3397 O   0  0  0  0  0  0  0  0  0  0  0  0
   -2.4720    2.6115   -2.5699 O   0  0  0  0  0  0  0  0  0  0  0  0
    0.9561    1.4546   -1.8831 C   0  0  2  0  0  0  0  0  0  0  0  0
   -0.0413    1.9543   -0.8099 C   0  0  0  0  0  0  0  0  0  0  0  0
    2.3413    2.0487   -1.5595 C   0  0  0  0  0  0  0  0  0  0  0  0
    2.8355    1.6197   -0.2027 C   0  0  0  0  0  0  0  0  0  0  0  0
   -3.9564    3.3783   -4.8314 C   0  0  0  0  0  0  0  0  0  0  0  0
   -4.4027    4.3761   -4.2581 O   0  0  0  0  0  0  0  0  0  0  0  0
   -4.8120    2.4316   -5.3037 N   0  0  0  0  0  0  0  0  0  0  0  0
   -4.4362    1.3251   -6.1432 C   0  0  0  0  0  0  0  0  0  0  0  0
   -4.7137    0.0120   -5.5040 C   0  0  0  0  0  0  0  0  0  0  0  0
   -5.9901   -0.5117   -5.5411 C   0  0  0  0  0  0  0  0  0  0  0  0
   -6.2223   -1.7641   -4.9806 C   0  0  0  0  0  0  0  0  0  0  0  0
   -5.1898   -2.4869   -4.3555 C   0  0  0  0  0  0  0  0  0  0  0  0
   -3.9066   -1.9787   -4.3520 C   0  0  0  0  0  0  0  0  0  0  0  0
   -3.6917   -0.7404   -4.9117 C   0  0  0  0  0  0  0  0  0  0  0  0
   -5.4697   -3.7680   -3.6591 C   0  0  0  0  0  0  0  0  0  0  0  0
   -4.4781   -4.4589   -3.0282 N   0  0  0  0  0  0  0  0  0  0  0  0
   -6.6853   -4.2046   -3.6457 N   0  0  0  0  0  0  0  0  0  0  0  0
    0.6304    1.8181   -5.3744 H   0  0  0  0  0  0  0  0  0  0  0  0
    1.4406    2.6780   -8.1118 H   0  0  0  0  0  0  0  0  0  0  0  0
    1.5928    1.6410   -6.8815 H   0  0  0  0  0  0  0  0  0  0  0  0
   -0.6215    4.7724   -6.4279 H   0  0  0  0  0  0  0  0  0  0  0  0
   -0.7094    4.2628   -8.1208 H   0  0  0  0  0  0  0  0  0  0  0  0
   -2.9585    4.2940   -6.9933 H   0  0  0  0  0  0  0  0  0  0  0  0
   -2.4740    2.6183   -7.2961 H   0  0  0  0  0  0  0  0  0  0  0  0
   -2.0265    4.0240   -4.6211 H   0  0  0  0  0  0  0  0  0  0  0  0
   -2.7352    1.2978   -4.2992 H   0  0  0  0  0  0  0  0  0  0  0  0
    0.2371    2.9003   -3.0615 H   0  0  0  0  0  0  0  0  0  0  0  0
    2.0644    1.1554   -4.6827 H   0  0  0  0  0  0  0  0  0  0  0  0
    3.2842    4.5926   -3.2004 H   0  0  0  0  0  0  0  0  0  0  0  0
    2.7007    5.7594   -4.4154 H   0  0  0  0  0  0  0  0  0  0  0  0
   -0.3267    4.3172   -4.2701 H   0  0  0  0  0  0  0  0  0  0  0  0
   -1.6951    5.4457   -0.3429 H   0  0  0  0  0  0  0  0  0  0  0  0
    0.4382    6.5380   -0.0375 H   0  0  0  0  0  0  0  0  0  0  0  0
    2.2307    6.4608   -1.7369 H   0  0  0  0  0  0  0  0  0  0  0  0
   -3.3881    4.6772   -0.6718 H   0  0  0  0  0  0  0  0  0  0  0  0
    0.9885    0.3608   -1.8327 H   0  0  0  0  0  0  0  0  0  0  0  0
    0.1040    3.0219   -0.6147 H   0  0  0  0  0  0  0  0  0  0  0  0
   -1.0704    1.7913   -1.1084 H   0  0  0  0  0  0  0  0  0  0  0  0
    0.0632    1.4478    0.1517 H   0  0  0  0  0  0  0  0  0  0  0  0
    3.0812    1.7358   -2.3024 H   0  0  0  0  0  0  0  0  0  0  0  0
    2.3034    3.1431   -1.5918 H   0  0  0  0  0  0  0  0  0  0  0  0
    2.8578    0.5288   -0.1600 H   0  0  0  0  0  0  0  0  0  0  0  0
    3.8395    2.0124   -0.0315 H   0  0  0  0  0  0  0  0  0  0  0  0
    2.1842    1.9982    0.5885 H   0  0  0  0  0  0  0  0  0  0  0  0
   -5.7816    2.5737   -5.0490 H   0  0  0  0  0  0  0  0  0  0  0  0
   -4.9282    1.4515   -7.1094 H   0  0  0  0  0  0  0  0  0  0  0  0
   -3.3795    1.3114   -6.3711 H   0  0  0  0  0  0  0  0  0  0  0  0
   -6.7863    0.0489   -6.0204 H   0  0  0  0  0  0  0  0  0  0  0  0
   -7.2224   -2.1779   -5.0364 H   0  0  0  0  0  0  0  0  0  0  0  0
   -3.0433   -2.4927   -3.9484 H   0  0  0  0  0  0  0  0  0  0  0  0
   -2.6663   -0.4186   -4.8849 H   0  0  0  0  0  0  0  0  0  0  0  0
   -4.6732   -5.2846   -2.4849 H   0  0  0  0  0  0  0  0  0  0  0  0
   -3.5386   -4.0941   -2.9388 H   0  0  0  0  0  0  0  0  0  0  0  0
   -6.7321   -5.0709   -3.1145 H   0  0  0  0  0  0  0  0  0  0  0  0
  1  2  2  0  0  0  0
  1 42  1  0  0  0  0
  2  3  1  0  0  0  0
  2  4  1  0  0  0  0
  3 43  1  0  0  0  0
  3 44  1  0  0  0  0
  4  5  1  0  0  0  0
  4 45  1  0  0  0  0
  4 46  1  0  0  0  0
  5 47  1  0  0  0  0
  5 48  1  0  0  0  0
  6 29  1  0  0  0  0
  6 49  1  1  0  0  0
  6  7  1  0  0  0  0
  6  5  1  0  0  0  0
  7  8  1  0  0  0  0
  7 50  1  0  0  0  0
  8  9  2  0  0  0  0
 10 51  1  1  0  0  0
 10 11  1  0  0  0  0
 10  8  1  0  0  0  0
 11 12  1  0  0  0  0
 11 52  1  0  0  0  0
 12 13  2  0  0  0  0
 12 14  2  0  0  0  0
 12 15  1  0  0  0  0
 15 16  1  0  0  0  0
 15 53  1  0  0  0  0
 15 54  1  0  0  0  0
 16 17  2  0  0  0  0
 16 21  1  0  0  0  0
 17 18  1  0  0  0  0
 17 55  1  0  0  0  0
 18 19  2  0  0  0  0
 18 22  1  0  0  0  0
 19 20  1  0  0  0  0
 19 56  1  0  0  0  0
 20 21  2  0  0  0  0
 20 57  1  0  0  0  0
 21 58  1  0  0  0  0
 22 23  1  0  0  0  0
 22 24  2  0  0  0  0
 23 59  1  0  0  0  0
 25 27  1  0  0  0  0
 25 60  1  1  0  0  0
 25 26  1  0  0  0  0
 25 10  1  0  0  0  0
 26 61  1  0  0  0  0
 26 62  1  0  0  0  0
 26 63  1  0  0  0  0
 27 28  1  0  0  0  0
 27 64  1  0  0  0  0
 27 65  1  0  0  0  0
 28 66  1  0  0  0  0
 28 67  1  0  0  0  0
 28 68  1  0  0  0  0
 29 30  2  0  0  0  0
 29 31  1  0  0  0  0
 31 32  1  0  0  0  0
 31 69  1  0  0  0  0
 32 33  1  0  0  0  0
 32 70  1  0  0  0  0
 32 71  1  0  0  0  0
 33 34  2  0  0  0  0
 33 38  1  0  0  0  0
 34 35  1  0  0  0  0
 34 72  1  0  0  0  0
 35 36  2  0  0  0  0
 35 73  1  0  0  0  0
 36 37  1  0  0  0  0
 36 39  1  0  0  0  0
 37 38  2  0  0  0  0
 37 74  1  0  0  0  0
 38 75  1  0  0  0  0
 39 40  1  0  0  0  0
 39 41  2  0  0  0  0
 40 76  1  0  0  0  0
 40 77  1  0  0  0  0
 41 78  1  0  0  0  0
M  END
>  <DRUGBANK_ID>
DB04593

>  <COMMON_NAME>
3-({1-[3-CARBAMIMIDOYL-1-(4-CARBAMIMIDOYL-BENZYLCARBAMOYL)-PROPYLCARBAMOYL]-2-METHYL-BUTYLSULFAMOYL}-METHYL)-BENZOIC ACID

$$$$
