
 OpenBabel10282417203D

 52 55  0  0  1  0  0  0  0  0999 V2000
    2.4325    3.7597   -1.8393 C   0  0  0  0  0  0  0  0  0  0  0  0
    3.1174    2.7163   -2.8114 C   0  0  0  0  0  0  0  0  0  0  0  0
    2.2426    1.4447   -3.2574 C   0  0  2  0  0  0  0  0  0  0  0  0
    2.4236   -0.5576   -3.4508 C   0  0  0  0  0  0  0  0  0  0  0  0
    1.0311   -1.1625   -3.4777 C   0  0  0  0  0  0  0  0  0  0  0  0
    1.0831    0.2043   -3.0568 C   0  0  2  0  0  0  0  0  0  0  0  0
    2.1773    0.7790   -4.4400 C   0  0  2  0  0  0  0  0  0  0  0  0
    1.2313    0.8513   -5.6776 C   0  0  0  0  0  0  0  0  0  0  0  0
   -0.2433    1.4893   -5.3122 C   0  0  0  0  0  0  0  0  0  0  0  0
   -1.0100    0.8708   -4.0883 C   0  0  1  0  0  0  0  0  0  0  0  0
   -0.2226    0.8108   -2.8014 C   0  0  1  0  0  0  0  0  0  0  0  0
   -0.7381   -0.1583   -1.7326 C   0  0  0  0  0  0  0  0  0  0  0  0
   -2.1437    0.0832   -1.5573 C   0  0  0  0  0  0  0  0  0  0  0  0
   -2.8775    0.1266   -3.0472 C   0  0  0  0  0  0  0  0  0  0  0  0
   -4.1250   -0.1905   -3.4646 C   0  0  0  0  0  0  0  0  0  0  0  0
   -4.9981    0.1222   -2.3328 C   0  0  0  0  0  0  0  0  0  0  0  0
   -6.0130   -0.5307   -2.1436 O   0  0  0  0  0  0  0  0  0  0  0  0
   -4.3813    1.2126   -1.4545 C   0  0  0  0  0  0  0  0  0  0  0  0
   -3.1517    2.1605   -2.4797 C   0  0  0  0  0  0  0  0  0  0  0  0
   -2.4443    1.3735   -3.7323 C   0  0  2  0  0  0  0  0  0  0  0  0
    3.9582    0.6911   -4.4398 C   0  0  0  0  0  0  0  0  0  0  0  0
    1.6072    2.4750   -4.2338 O   0  0  0  0  0  0  0  0  0  0  0  0
    1.6305    4.4072   -2.2525 H   0  0  0  0  0  0  0  0  0  0  0  0
    3.2121    4.4802   -1.5596 H   0  0  0  0  0  0  0  0  0  0  0  0
    2.0451    3.2993   -0.9302 H   0  0  0  0  0  0  0  0  0  0  0  0
    3.3172    3.4006   -3.6714 H   0  0  0  0  0  0  0  0  0  0  0  0
    4.0873    2.4628   -2.4424 H   0  0  0  0  0  0  0  0  0  0  0  0
    2.7766   -1.4783   -2.8923 H   0  0  0  0  0  0  0  0  0  0  0  0
    2.8299   -1.0089   -4.4300 H   0  0  0  0  0  0  0  0  0  0  0  0
    0.7872   -1.9144   -2.7216 H   0  0  0  0  0  0  0  0  0  0  0  0
    0.5644   -1.3705   -4.4338 H   0  0  0  0  0  0  0  0  0  0  0  0
    1.5380    0.2027   -1.9573 H   0  0  0  0  0  0  0  0  0  0  0  0
    1.7611    1.4521   -6.4241 H   0  0  0  0  0  0  0  0  0  0  0  0
    1.1176   -0.1545   -6.1009 H   0  0  0  0  0  0  0  0  0  0  0  0
   -0.2140    2.5629   -5.0910 H   0  0  0  0  0  0  0  0  0  0  0  0
   -0.8137    1.4527   -6.2394 H   0  0  0  0  0  0  0  0  0  0  0  0
   -1.1214   -0.1611   -4.4621 H   0  0  0  0  0  0  0  0  0  0  0  0
   -0.0947    1.8166   -2.3679 H   0  0  0  0  0  0  0  0  0  0  0  0
   -0.1964   -0.0512   -0.7778 H   0  0  0  0  0  0  0  0  0  0  0  0
   -0.7592   -1.2105   -1.9960 H   0  0  0  0  0  0  0  0  0  0  0  0
   -2.0715    1.0360   -0.9896 H   0  0  0  0  0  0  0  0  0  0  0  0
   -2.5286   -0.6333   -0.8378 H   0  0  0  0  0  0  0  0  0  0  0  0
   -4.5614    0.2345   -4.3790 H   0  0  0  0  0  0  0  0  0  0  0  0
   -4.1672    1.4358   -0.3918 H   0  0  0  0  0  0  0  0  0  0  0  0
   -4.0897    0.2354   -0.9518 H   0  0  0  0  0  0  0  0  0  0  0  0
   -3.6924    3.0321   -2.8520 H   0  0  0  0  0  0  0  0  0  0  0  0
   -2.3474    2.6190   -1.8804 H   0  0  0  0  0  0  0  0  0  0  0  0
   -2.9217    1.6642   -4.6775 H   0  0  0  0  0  0  0  0  0  0  0  0
    4.4108    1.5345   -4.9406 H   0  0  0  0  0  0  0  0  0  0  0  0
    4.2984    0.7216   -3.3630 H   0  0  0  0  0  0  0  0  0  0  0  0
    4.4334   -0.2606   -4.7170 H   0  0  0  0  0  0  0  0  0  0  0  0
    1.5033    3.4218   -4.0993 H   0  0  0  0  0  0  0  0  0  0  0  0
  1  2  1  0  0  0  0
  1 23  1  0  0  0  0
  1 24  1  0  0  0  0
  1 25  1  0  0  0  0
  2 26  1  0  0  0  0
  2 27  1  0  0  0  0
  3  4  1  0  0  0  0
  3  7  1  0  0  0  0
  3 22  1  1  0  0  0
  3  2  1  0  0  0  0
  4  5  1  0  0  0  0
  4 28  1  0  0  0  0
  4 29  1  0  0  0  0
  5 30  1  0  0  0  0
  5 31  1  0  0  0  0
  6  5  1  0  0  0  0
  6  7  1  0  0  0  0
  6 11  1  0  0  0  0
  6 32  1  6  0  0  0
  7  8  1  0  0  0  0
  7 21  1  1  0  0  0
  8  9  1  0  0  0  0
  8 33  1  0  0  0  0
  8 34  1  0  0  0  0
  9 35  1  0  0  0  0
  9 36  1  0  0  0  0
 10  9  1  0  0  0  0
 10 11  1  0  0  0  0
 10 20  1  0  0  0  0
 10 37  1  6  0  0  0
 11 12  1  0  0  0  0
 11 38  1  1  0  0  0
 12 13  1  0  0  0  0
 12 39  1  0  0  0  0
 12 40  1  0  0  0  0
 13 14  1  0  0  0  0
 13 41  1  0  0  0  0
 13 42  1  0  0  0  0
 14 15  2  0  0  0  0
 14 20  1  0  0  0  0
 15 16  1  0  0  0  0
 15 43  1  0  0  0  0
 16 17  2  0  0  0  0
 16 18  1  0  0  0  0
 18 19  1  0  0  0  0
 18 44  1  0  0  0  0
 18 45  1  0  0  0  0
 19 46  1  0  0  0  0
 19 47  1  0  0  0  0
 20 19  1  0  0  0  0
 20 48  1  1  0  0  0
 21 49  1  0  0  0  0
 21 50  1  0  0  0  0
 21 51  1  0  0  0  0
 22 52  1  0  0  0  0
M  END
>  <DRUGBANK_ID>
DB12787

>  <COMMON_NAME>
Norethandrolone

>  <CAS_NUMBER>
52-78-8

>  <UNII>
P7W01638W6

>  <SYNONYMS>
Norethandrolone

$$$$
