SN2
 OpenBabel10282417133D

 34 34  0  0  0  0  0  0  0  0999 V2000
    1.4097   -0.1425   -0.1114 C   0  0  0  0  0  0  0  0  0  0  0  0
    0.4414   -1.1834   -0.2756 C   0  0  0  0  0  0  0  0  0  0  0  0
   -0.9687   -1.0593   -0.1504 C   0  0  0  0  0  0  0  0  0  0  0  0
   -1.4564    0.2444   -0.0469 C   0  0  0  0  0  0  0  0  0  0  0  0
   -0.5415    1.3273   -0.0149 C   0  0  0  0  0  0  0  0  0  0  0  0
    0.8537    1.1528   -0.1456 C   0  0  0  0  0  0  0  0  0  0  0  0
    3.8138    0.4899    0.4090 C   0  0  0  0  0  0  0  0  0  0  0  0
    3.1289   -1.9390    0.3139 C   0  0  0  0  0  0  0  0  0  0  0  0
    4.5981    0.5106    1.7166 C   0  0  0  0  0  0  0  0  0  0  0  0
    2.7741   -2.6104    1.6650 C   0  0  0  0  0  0  0  0  0  0  0  0
   -1.8045   -2.3252   -0.0142 C   0  0  0  0  0  0  0  0  0  0  0  0
   -3.1323    1.8427   -0.0877 O   0  5  0  0  0  0  0  0  0  0  0  0
    1.0982    3.4763   -0.1685 O   0  0  0  0  0  0  0  0  0  0  0  0
   -3.7208   -0.1951   -0.5242 O   0  0  0  0  0  0  0  0  0  0  0  0
   -2.9842   -2.3484    0.2601 O   0  0  0  0  0  0  0  0  0  0  0  0
    2.5895    2.3043   -1.2484 O   0  5  0  0  0  0  0  0  0  0  0  0
   -2.8767    0.6329   -0.1930 N   0  3  0  0  0  0  0  0  0  0  0  0
    1.5820    2.3941   -0.5316 N   0  3  0  0  0  0  0  0  0  0  0  0
    2.7311   -0.5085    0.2111 N   0  0  0  0  0  0  0  0  0  0  0  0
   -1.1978   -3.5602   -0.0981 N   0  0  0  0  0  0  0  0  0  0  0  0
    1.0745   -2.9475    2.0722 Cl  0  0  0  0  0  0  0  0  0  0  0  0
    5.7210   -0.8209    2.0015 Cl  0  0  0  0  0  0  0  0  0  0  0  0
    0.8147   -2.1812   -0.4725 H   0  0  0  0  0  0  0  0  0  0  0  0
   -0.9247    2.3454    0.0800 H   0  0  0  0  0  0  0  0  0  0  0  0
    4.4605    0.5325   -0.4765 H   0  0  0  0  0  0  0  0  0  0  0  0
    3.3549    1.4571    0.5421 H   0  0  0  0  0  0  0  0  0  0  0  0
    2.8137   -2.5188   -0.5631 H   0  0  0  0  0  0  0  0  0  0  0  0
    4.2194   -1.9959    0.2276 H   0  0  0  0  0  0  0  0  0  0  0  0
    5.2084    1.4225    1.7090 H   0  0  0  0  0  0  0  0  0  0  0  0
    3.9008    0.5884    2.5558 H   0  0  0  0  0  0  0  0  0  0  0  0
    3.2508   -3.5903    1.6983 H   0  0  0  0  0  0  0  0  0  0  0  0
    3.1275   -1.9994    2.4928 H   0  0  0  0  0  0  0  0  0  0  0  0
   -0.2360   -3.7271    0.1557 H   0  0  0  0  0  0  0  0  0  0  0  0
   -1.8303   -4.3147    0.1569 H   0  0  0  0  0  0  0  0  0  0  0  0
  1  2  2  0  0  0  0
  1  6  1  0  0  0  0
  1 19  1  0  0  0  0
  2  3  1  0  0  0  0
  2 23  1  0  0  0  0
  3  4  2  0  0  0  0
  3 11  1  0  0  0  0
  4  5  1  0  0  0  0
  4 17  1  0  0  0  0
  5  6  2  0  0  0  0
  5 24  1  0  0  0  0
  6 18  1  0  0  0  0
  7  9  1  0  0  0  0
  7 19  1  0  0  0  0
  7 25  1  0  0  0  0
  7 26  1  0  0  0  0
  8 10  1  0  0  0  0
  8 19  1  0  0  0  0
  8 27  1  0  0  0  0
  8 28  1  0  0  0  0
  9 22  1  0  0  0  0
  9 29  1  0  0  0  0
  9 30  1  0  0  0  0
 10 21  1  0  0  0  0
 10 31  1  0  0  0  0
 10 32  1  0  0  0  0
 11 15  2  0  0  0  0
 11 20  1  0  0  0  0
 12 17  1  0  0  0  0
 13 18  2  0  0  0  0
 14 17  2  0  0  0  0
 16 18  1  0  0  0  0
 20 33  1  0  0  0  0
 20 34  1  0  0  0  0
M  CHG  4  12  -1  16  -1  17   1  18   1
M  END
>  <DRUGBANK_ID>
DB03228

>  <SECONDARY_ACCESSION_NUMBERS>
EXPT02926

>  <COMMON_NAME>
5-[Bis-2(Chloro-Ethyl)-Amino]-2,4-Dintro-Benzamide

>  <UNII>
EB8R4ME372

$$$$
