
 OpenBabel10282417213D

 15  6  0  0  0  0  0  0  0  0999 V2000
    1.8293   -2.3068    0.6775 Ca  0  2  0  0  0  0  0  0  0  0  0  0
    0.5300    0.8292    1.7920 Mg  0  2  0  0  0  0  0  0  0  0  0  0
    0.2297   -0.0107   -0.3187 C   0  0  0  0  0  0  0  0  0  0  0  0
   -0.4064    1.0275   -0.1295 O   0  0  0  0  0  0  0  0  0  0  0  0
   -0.1681   -1.1045   -0.6292 O   0  5  0  0  0  0  0  0  0  0  0  0
    1.2849   -0.1523    0.2513 O   0  5  0  0  0  0  0  0  0  0  0  0
    2.0081    2.1352    2.8059 Cl  0  5  0  0  0  0  0  0  0  0  0  0
    0.5533    2.5038   -1.9108 K   0  2  0  0  0  0  0  0  0  0  0  0
    2.8849   -1.9561   -1.2156 O   0  5  0  0  0  0  0  0  0  0  0  0
    1.0395   -1.0119   -2.8904 K   0  2  0  0  0  0  0  0  0  0  0  0
    2.6790    1.8754   -1.1426 O   0  5  0  0  0  0  0  0  0  0  0  0
    0.0891   -0.9741    2.4842 O   0  5  0  0  0  0  0  0  0  0  0  0
    2.7546   -1.0156   -1.0451 H   0  0  0  0  0  0  0  0  0  0  0  0
    2.4386    1.3660   -0.3727 H   0  0  0  0  0  0  0  0  0  0  0  0
    0.2210   -1.0988    1.5573 H   0  0  0  0  0  0  0  0  0  0  0  0
  3  4  2  0  0  0  0
  3  5  1  0  0  0  0
  3  6  1  0  0  0  0
  9 13  1  0  0  0  0
 11 14  1  0  0  0  0
 12 15  1  0  0  0  0
M  CHG  8   1   2   2   2   5  -1   6  -1   7  -1   8   2   9  -1  10   2
M  CHG  2  11  -1  12  -1
M  END
>  <DRUGBANK_ID>
DB14497

>  <COMMON_NAME>
Calcium magnesium potassium carbonate chloride hydroxide

>  <CAS_NUMBER>
1224727-39-2

>  <UNII>
Z7R65IFU98

>  <SYNONYMS>
Alka4-complex

$$$$
