
 OpenBabel10282417133D

 76 78  0  0  1  0  0  0  0  0999 V2000
   13.4662    6.8948  -18.9807 C   0  0  0  0  0  0  0  0  0  0  0  0
   16.3821   -0.3781  -14.9180 C   0  0  0  0  0  0  0  0  0  0  0  0
   12.0885    4.1509  -19.3279 C   0  0  0  0  0  0  0  0  0  0  0  0
   13.9904   -4.9438  -15.9737 C   0  0  0  0  0  0  0  0  0  0  0  0
   10.6136    0.6794  -17.4920 C   0  0  0  0  0  0  0  0  0  0  0  0
   12.6579    2.0571  -17.4800 C   0  0  0  0  0  0  0  0  0  0  0  0
   18.1191    5.9008  -15.8113 C   0  0  0  0  0  0  0  0  0  0  0  0
   15.3307    6.3286  -16.5689 C   0  0  0  0  0  0  0  0  0  0  0  0
   13.8635    6.8030  -16.5827 C   0  0  0  0  0  0  0  0  0  0  0  0
   15.8061    6.2688  -15.1109 C   0  0  0  0  0  0  0  0  0  0  0  0
   14.0313   -0.2807  -14.9334 C   0  0  0  0  0  0  0  0  0  0  0  0
   16.2967    2.7080  -13.2791 C   0  0  0  0  0  0  0  0  0  0  0  0
   12.4226    2.1646  -14.3978 C   0  0  0  0  0  0  0  0  0  0  0  0
   12.9441   -1.4367  -16.7677 C   0  0  0  0  0  0  0  0  0  0  0  0
   13.1350    6.0745  -17.6961 C   0  0  1  0  0  0  0  0  0  0  0  0
   15.1594    0.3896  -14.5758 C   0  0  0  0  0  0  0  0  0  0  0  0
   11.1718    4.3319  -18.1012 C   0  0  2  0  0  0  0  0  0  0  0  0
   13.5673   -3.5477  -15.9875 C   0  0  0  0  0  0  0  0  0  0  0  0
   13.7664   -1.4481  -15.6701 C   0  0  0  0  0  0  0  0  0  0  0  0
   15.1345    1.7854  -13.8158 C   0  0  1  0  0  0  0  0  0  0  0  0
   11.1868    1.6748  -15.1489 C   0  0  1  0  0  0  0  0  0  0  0  0
   17.0541    3.6311  -14.3159 C   0  0  1  0  0  0  0  0  0  0  0  0
   12.8200    1.4665  -13.0474 C   0  0  0  0  0  0  0  0  0  0  0  0
   11.6080    5.7262  -17.4648 C   0  0  1  0  0  0  0  0  0  0  0  0
   10.6107    3.2260  -17.0772 C   0  0  0  0  0  0  0  0  0  0  0  0
   11.3121    1.8690  -16.7684 C   0  0  0  0  0  0  0  0  0  0  0  0
   16.9359    5.2547  -15.0072 C   0  0  1  0  0  0  0  0  0  0  0  0
   14.0868   -2.6567  -15.1777 N   0  0  0  0  0  0  0  0  0  0  0  0
   10.8480    0.3247  -14.7852 O   0  0  0  0  0  0  0  0  0  0  0  0
   12.1228    0.7060  -12.4399 O   0  0  0  0  0  0  0  0  0  0  0  0
   11.2621    5.7862  -16.0881 O   0  0  0  0  0  0  0  0  0  0  0  0
    9.5280    3.4553  -16.5148 O   0  0  0  0  0  0  0  0  0  0  0  0
   14.1591    1.6369  -12.7264 O   0  0  0  0  0  0  0  0  0  0  0  0
   17.3002    4.9033  -13.6937 O   0  0  0  0  0  0  0  0  0  0  0  0
   12.4828   -3.0050  -17.1964 S   0  0  0  0  0  0  0  0  0  0  0  0
   13.0556    0.0330  -14.6662 H   0  0  0  0  0  0  0  0  0  0  0  0
   13.6450    5.1098  -17.7252 H   0  0  0  0  0  0  0  0  0  0  0  0
   10.2189    4.4708  -18.6307 H   0  0  0  0  0  0  0  0  0  0  0  0
   14.7332    2.5190  -14.5084 H   0  0  0  0  0  0  0  0  0  0  0  0
   10.3335    2.2371  -14.7767 H   0  0  0  0  0  0  0  0  0  0  0  0
   17.9510    3.0827  -14.6161 H   0  0  0  0  0  0  0  0  0  0  0  0
   11.0293    6.5020  -17.9770 H   0  0  0  0  0  0  0  0  0  0  0  0
   14.5280    6.7874  -19.2398 H   0  0  0  0  0  0  0  0  0  0  0  0
   13.2687    7.9581  -18.8141 H   0  0  0  0  0  0  0  0  0  0  0  0
   12.9212    6.6666  -19.8929 H   0  0  0  0  0  0  0  0  0  0  0  0
   16.3010   -1.3671  -14.4410 H   0  0  0  0  0  0  0  0  0  0  0  0
   16.4159   -0.5447  -16.0037 H   0  0  0  0  0  0  0  0  0  0  0  0
   17.2977    0.0895  -14.5814 H   0  0  0  0  0  0  0  0  0  0  0  0
   11.7620    3.4849  -20.1174 H   0  0  0  0  0  0  0  0  0  0  0  0
   12.0593    5.1117  -19.8222 H   0  0  0  0  0  0  0  0  0  0  0  0
   13.1482    3.9377  -19.1202 H   0  0  0  0  0  0  0  0  0  0  0  0
   13.1351   -5.6013  -15.8296 H   0  0  0  0  0  0  0  0  0  0  0  0
   14.4956   -5.1520  -16.9207 H   0  0  0  0  0  0  0  0  0  0  0  0
   14.7074   -5.0688  -15.1597 H   0  0  0  0  0  0  0  0  0  0  0  0
    9.6334    0.9091  -17.8968 H   0  0  0  0  0  0  0  0  0  0  0  0
   11.2135    0.3176  -18.3404 H   0  0  0  0  0  0  0  0  0  0  0  0
   10.5008   -0.2042  -16.8537 H   0  0  0  0  0  0  0  0  0  0  0  0
   12.3903    2.0799  -18.5460 H   0  0  0  0  0  0  0  0  0  0  0  0
   13.1171    3.0050  -17.1914 H   0  0  0  0  0  0  0  0  0  0  0  0
   13.4441    1.3078  -17.4817 H   0  0  0  0  0  0  0  0  0  0  0  0
   17.9264    6.9820  -15.9840 H   0  0  0  0  0  0  0  0  0  0  0  0
   19.0769    5.8919  -15.2941 H   0  0  0  0  0  0  0  0  0  0  0  0
   18.1890    5.5013  -16.8264 H   0  0  0  0  0  0  0  0  0  0  0  0
   15.4637    5.3229  -17.0044 H   0  0  0  0  0  0  0  0  0  0  0  0
   15.9208    6.9726  -17.2377 H   0  0  0  0  0  0  0  0  0  0  0  0
   13.3893    6.6457  -15.6137 H   0  0  0  0  0  0  0  0  0  0  0  0
   13.8372    7.8852  -16.7597 H   0  0  0  0  0  0  0  0  0  0  0  0
   16.4855    7.0670  -14.7900 H   0  0  0  0  0  0  0  0  0  0  0  0
   15.1263    6.9385  -14.5563 H   0  0  0  0  0  0  0  0  0  0  0  0
   17.0040    2.0940  -12.6956 H   0  0  0  0  0  0  0  0  0  0  0  0
   15.8516    3.3740  -12.5236 H   0  0  0  0  0  0  0  0  0  0  0  0
   13.1775    1.8690  -15.1033 H   0  0  0  0  0  0  0  0  0  0  0  0
   12.5485    3.2454  -14.4005 H   0  0  0  0  0  0  0  0  0  0  0  0
   12.5802   -0.5818  -17.2772 H   0  0  0  0  0  0  0  0  0  0  0  0
   10.6721    0.2877  -13.8168 H   0  0  0  0  0  0  0  0  0  0  0  0
   11.1996    6.7277  -15.8378 H   0  0  0  0  0  0  0  0  0  0  0  0
  1 43  1  0  0  0  0
  1 44  1  0  0  0  0
  1 45  1  0  0  0  0
  2 46  1  0  0  0  0
  2 47  1  0  0  0  0
  2 48  1  0  0  0  0
  3 49  1  0  0  0  0
  3 50  1  0  0  0  0
  3 51  1  0  0  0  0
  4 52  1  0  0  0  0
  4 53  1  0  0  0  0
  4 54  1  0  0  0  0
  5 55  1  0  0  0  0
  5 56  1  0  0  0  0
  5 57  1  0  0  0  0
  6 58  1  0  0  0  0
  6 59  1  0  0  0  0
  6 60  1  0  0  0  0
  7 61  1  0  0  0  0
  7 62  1  0  0  0  0
  7 63  1  0  0  0  0
  8 64  1  0  0  0  0
  8 65  1  0  0  0  0
  9  8  1  0  0  0  0
  9 66  1  0  0  0  0
  9 67  1  0  0  0  0
 10  8  1  0  0  0  0
 10 68  1  0  0  0  0
 10 69  1  0  0  0  0
 12 70  1  0  0  0  0
 12 71  1  0  0  0  0
 13 72  1  0  0  0  0
 13 73  1  0  0  0  0
 14 74  1  0  0  0  0
 15  9  1  0  0  0  0
 15 37  1  6  0  0  0
 15  1  1  0  0  0  0
 16  2  1  0  0  0  0
 16 11  2  0  0  0  0
 17 38  1  6  0  0  0
 17  3  1  0  0  0  0
 18  4  1  0  0  0  0
 19 11  1  0  0  0  0
 19 14  2  0  0  0  0
 20 12  1  0  0  0  0
 20 16  1  0  0  0  0
 20 39  1  6  0  0  0
 21 13  1  0  0  0  0
 21 29  1  0  0  0  0
 21 40  1  1  0  0  0
 22 12  1  0  0  0  0
 22 41  1  6  0  0  0
 23 13  1  0  0  0  0
 24 15  1  0  0  0  0
 24 17  1  0  0  0  0
 24 31  1  0  0  0  0
 24 42  1  6  0  0  0
 25 17  1  0  0  0  0
 26 21  1  0  0  0  0
 26 25  1  0  0  0  0
 26  5  1  0  0  0  0
 26  6  1  0  0  0  0
 27 10  1  0  0  0  0
 27 22  1  0  0  0  0
 27  7  1  6  0  0  0
 28 18  2  0  0  0  0
 28 19  1  0  0  0  0
 29 75  1  0  0  0  0
 30 23  2  0  0  0  0
 31 76  1  0  0  0  0
 32 25  2  0  0  0  0
 33 20  1  0  0  0  0
 33 23  1  0  0  0  0
 34 22  1  0  0  0  0
 34 27  1  0  0  0  0
 35 14  1  0  0  0  0
 35 18  1  0  0  0  0
 36 11  1  0  0  0  0
M  END
>  <DRUGBANK_ID>
DB03010

>  <SECONDARY_ACCESSION_NUMBERS>
EXPT01349

>  <COMMON_NAME>
Patupilone

>  <CAS_NUMBER>
152044-54-7

>  <UNII>
UEC0H0URSE

>  <SYNONYMS>
(âˆ’)-epothilone B; Epo B; Epothilone B; patupilona; Patupilone

$$$$
