
 OpenBabel10282417183D

 23 23  0  0  0  0  0  0  0  0999 V2000
    2.5496   -0.0501   -0.0162 C   0  0  0  0  0  0  0  0  0  0  0  0
    1.0302    0.1044    0.0051 C   0  0  0  0  0  0  0  0  0  0  0  0
    0.2784    1.3114    0.0003 C   0  0  0  0  0  0  0  0  0  0  0  0
   -1.1579    1.2485    0.0025 C   0  0  0  0  0  0  0  0  0  0  0  0
   -1.8343    0.0195   -0.0045 C   0  0  0  0  0  0  0  0  0  0  0  0
   -1.1003   -1.1653    0.0020 C   0  0  0  0  0  0  0  0  0  0  0  0
    0.3084   -1.1286    0.0072 C   0  0  0  0  0  0  0  0  0  0  0  0
    3.0395   -1.1763   -0.0571 O   0  0  0  0  0  0  0  0  0  0  0  0
    3.4464    0.9890    0.0039 N   0  0  0  0  0  0  0  0  0  0  0  0
   -1.8284   -2.4507    0.0071 N   0  3  0  0  0  0  0  0  0  0  0  0
   -1.1646   -3.4939    0.0196 O   0  0  0  0  0  0  0  0  0  0  0  0
   -3.0677   -2.4058    0.0016 O   0  5  0  0  0  0  0  0  0  0  0  0
   -2.0123    2.4811    0.0128 N   0  3  0  0  0  0  0  0  0  0  0  0
   -3.2434    2.3167    0.0049 O   0  0  0  0  0  0  0  0  0  0  0  0
   -1.4858    3.5932    0.0330 O   0  5  0  0  0  0  0  0  0  0  0  0
    0.8974    2.6707   -0.0154 C   0  0  0  0  0  0  0  0  0  0  0  0
   -2.9255   -0.0113   -0.0151 H   0  0  0  0  0  0  0  0  0  0  0  0
    0.8577   -2.0751    0.0076 H   0  0  0  0  0  0  0  0  0  0  0  0
    3.3366    1.9758    0.1205 H   0  0  0  0  0  0  0  0  0  0  0  0
    4.4258    0.7362   -0.0347 H   0  0  0  0  0  0  0  0  0  0  0  0
    0.5956    3.2011   -0.9221 H   0  0  0  0  0  0  0  0  0  0  0  0
    0.6521    3.1985    0.9106 H   0  0  0  0  0  0  0  0  0  0  0  0
    1.9555    2.7239   -0.0715 H   0  0  0  0  0  0  0  0  0  0  0  0
  1  2  1  0  0  0  0
  1  8  2  0  0  0  0
  1  9  1  0  0  0  0
  2  3  1  0  0  0  0
  2  7  2  0  0  0  0
  3  4  2  0  0  0  0
  3 16  1  0  0  0  0
  4  5  1  0  0  0  0
  4 13  1  0  0  0  0
  5  6  2  0  0  0  0
  5 17  1  0  0  0  0
  6  7  1  0  0  0  0
  6 10  1  0  0  0  0
  7 18  1  0  0  0  0
  9 19  1  0  0  0  0
  9 20  1  0  0  0  0
 10 11  2  0  0  0  0
 10 12  1  0  0  0  0
 13 14  2  0  0  0  0
 13 15  1  0  0  0  0
 16 21  1  0  0  0  0
 16 22  1  0  0  0  0
 16 23  1  0  0  0  0
M  CHG  4  10   1  12  -1  13   1  15  -1
M  END
>  <DRUGBANK_ID>
DB11480

>  <COMMON_NAME>
Zoalene

>  <CAS_NUMBER>
148-01-6

>  <UNII>
AOX68RY4TV

>  <SYNONYMS>
Coccidine A; Dinitolmida; Dinitolmide; Dinitolmidum; Zoalene

$$$$
