
 OpenBabel10282417143D

 18 18  0  0  0  0  0  0  0  0999 V2000
    1.1028    0.0077   -0.0070 C   0  0  0  0  0  0  0  0  0  0  0  0
    0.5513   -0.0100    1.3886 C   0  0  0  0  0  0  0  0  0  0  0  0
    0.3110   -1.2227    2.0428 C   0  0  0  0  0  0  0  0  0  0  0  0
   -0.2448   -1.2381    3.3240 C   0  0  0  0  0  0  0  0  0  0  0  0
   -0.6164   -0.0325    3.9188 C   0  0  0  0  0  0  0  0  0  0  0  0
   -1.2645   -0.0245    5.1293 O   0  0  0  0  0  0  0  0  0  0  0  0
   -0.3778    1.1942    3.2890 C   0  0  0  0  0  0  0  0  0  0  0  0
   -0.6135    2.4031    3.9693 N   0  0  0  0  0  0  0  0  0  0  0  0
    0.2886    1.1952    2.0607 C   0  0  0  0  0  0  0  0  0  0  0  0
    0.7551    0.8962   -0.5458 H   0  0  0  0  0  0  0  0  0  0  0  0
    0.7453   -0.8612   -0.5711 H   0  0  0  0  0  0  0  0  0  0  0  0
    2.1958    0.0015    0.0042 H   0  0  0  0  0  0  0  0  0  0  0  0
    0.5501   -2.1660    1.5547 H   0  0  0  0  0  0  0  0  0  0  0  0
   -0.3852   -2.1852    3.8312 H   0  0  0  0  0  0  0  0  0  0  0  0
   -1.4293   -0.9424    5.3924 H   0  0  0  0  0  0  0  0  0  0  0  0
   -1.3521    2.2762    4.6618 H   0  0  0  0  0  0  0  0  0  0  0  0
   -0.7592    3.2024    3.3669 H   0  0  0  0  0  0  0  0  0  0  0  0
    0.5754    2.1387    1.6069 H   0  0  0  0  0  0  0  0  0  0  0  0
  1  2  1  0  0  0  0
  1 10  1  0  0  0  0
  1 11  1  0  0  0  0
  1 12  1  0  0  0  0
  2  3  2  0  0  0  0
  2  9  1  0  0  0  0
  3  4  1  0  0  0  0
  3 13  1  0  0  0  0
  4  5  2  0  0  0  0
  4 14  1  0  0  0  0
  5  6  1  0  0  0  0
  5  7  1  0  0  0  0
  6 15  1  0  0  0  0
  7  8  1  0  0  0  0
  7  9  2  0  0  0  0
  8 16  1  0  0  0  0
  8 17  1  0  0  0  0
  9 18  1  0  0  0  0
M  END
>  <DRUGBANK_ID>
DB04533

>  <SECONDARY_ACCESSION_NUMBERS>
EXPT00100

>  <COMMON_NAME>
2-Amino-4-methylphenol

>  <CAS_NUMBER>
95-84-1

>  <UNII>
9ZV2574SER

>  <SYNONYMS>
2-Amino-p-cresol; 2-Hydroxy-5-methylaniline; 3-Amino-4-hydroxytoluene; 4-Methyl-2-aminophenol

$$$$
