
 OpenBabel10282417133D

 45 47  0  0  0  0  0  0  0  0999 V2000
    2.5115    4.2969    3.1973 C   0  0  0  0  0  0  0  0  0  0  0  0
    2.8505    5.5170    3.5852 N   0  0  0  0  0  0  0  0  0  0  0  0
    2.2823    6.3656    2.6493 C   0  0  0  0  0  0  0  0  0  0  0  0
    1.6798    5.6230    1.6667 C   0  0  0  0  0  0  0  0  0  0  0  0
    1.7880    4.3166    2.0356 N   0  0  0  0  0  0  0  0  0  0  0  0
    2.2812    7.8212    2.6397 C   0  0  0  0  0  0  0  0  0  0  0  0
    1.6927    8.4855    1.7808 O   0  0  0  0  0  0  0  0  0  0  0  0
    2.9737    8.4318    3.6324 N   0  0  0  0  0  0  0  0  0  0  0  0
    1.2876    3.1916    1.2392 C   0  0  1  0  0  0  0  0  0  0  0  0
   -0.2729    3.1502    1.2172 C   0  0  2  0  0  0  0  0  0  0  0  0
   -0.8663    2.4089    0.0198 C   0  0  0  0  0  0  0  0  0  0  0  0
    1.8959    3.2207   -0.1918 C   0  0  0  0  0  0  0  0  0  0  0  0
    3.4167    3.1230   -0.2300 C   0  0  0  0  0  0  0  0  0  0  0  0
    3.9075    1.8542    0.4405 C   0  0  0  0  0  0  0  0  0  0  0  0
    3.5105    0.6122   -0.0972 C   0  0  0  0  0  0  0  0  0  0  0  0
    3.8548   -0.5806    0.5283 C   0  0  0  0  0  0  0  0  0  0  0  0
    4.6062   -0.5517    1.6992 C   0  0  0  0  0  0  0  0  0  0  0  0
    5.0440    0.6656    2.2460 C   0  0  0  0  0  0  0  0  0  0  0  0
    5.8259    0.6855    3.4139 C   0  0  0  0  0  0  0  0  0  0  0  0
    6.2488    1.8881    3.9820 C   0  0  0  0  0  0  0  0  0  0  0  0
    5.9034    3.0880    3.3873 C   0  0  0  0  0  0  0  0  0  0  0  0
    5.1596    3.0807    2.2124 C   0  0  0  0  0  0  0  0  0  0  0  0
    4.7000    1.8861    1.6167 C   0  0  0  0  0  0  0  0  0  0  0  0
   -0.8723    4.4488    1.1992 O   0  0  0  0  0  0  0  0  0  0  0  0
    2.8111    3.3769    3.6885 H   0  0  0  0  0  0  0  0  0  0  0  0
    1.1612    5.9587    0.7841 H   0  0  0  0  0  0  0  0  0  0  0  0
    3.4459    7.8871    4.3409 H   0  0  0  0  0  0  0  0  0  0  0  0
    2.9714    9.4403    3.6526 H   0  0  0  0  0  0  0  0  0  0  0  0
    1.6148    2.2720    1.7455 H   0  0  0  0  0  0  0  0  0  0  0  0
   -0.6144    2.6803    2.1474 H   0  0  0  0  0  0  0  0  0  0  0  0
   -0.1790    1.7106   -0.4548 H   0  0  0  0  0  0  0  0  0  0  0  0
   -1.7144    1.7973    0.3318 H   0  0  0  0  0  0  0  0  0  0  0  0
   -1.2237    3.1170   -0.7385 H   0  0  0  0  0  0  0  0  0  0  0  0
    1.5409    2.3873   -0.7990 H   0  0  0  0  0  0  0  0  0  0  0  0
    1.5687    4.1244   -0.7177 H   0  0  0  0  0  0  0  0  0  0  0  0
    3.7599    3.1240   -1.2704 H   0  0  0  0  0  0  0  0  0  0  0  0
    3.8236    4.0356    0.2023 H   0  0  0  0  0  0  0  0  0  0  0  0
    2.9148    0.5661   -1.0074 H   0  0  0  0  0  0  0  0  0  0  0  0
    3.5422   -1.5316    0.1034 H   0  0  0  0  0  0  0  0  0  0  0  0
    4.8581   -1.4939    2.1815 H   0  0  0  0  0  0  0  0  0  0  0  0
    6.1205   -0.2453    3.8922 H   0  0  0  0  0  0  0  0  0  0  0  0
    6.8488    1.8905    4.8863 H   0  0  0  0  0  0  0  0  0  0  0  0
    6.1936    4.0396    3.8250 H   0  0  0  0  0  0  0  0  0  0  0  0
    4.9132    4.0567    1.8058 H   0  0  0  0  0  0  0  0  0  0  0  0
   -0.5306    4.9309    0.4267 H   0  0  0  0  0  0  0  0  0  0  0  0
  1  2  2  0  0  0  0
  1  5  1  0  0  0  0
  1 25  1  0  0  0  0
  2  3  1  0  0  0  0
  3  4  2  0  0  0  0
  3  6  1  0  0  0  0
  4  5  1  0  0  0  0
  4 26  1  0  0  0  0
  5  9  1  0  0  0  0
  6  7  2  0  0  0  0
  6  8  1  0  0  0  0
  8 27  1  0  0  0  0
  8 28  1  0  0  0  0
  9 12  1  0  0  0  0
  9 29  1  1  0  0  0
 10 24  1  0  0  0  0
 10 30  1  1  0  0  0
 10 11  1  0  0  0  0
 10  9  1  0  0  0  0
 11 31  1  0  0  0  0
 11 32  1  0  0  0  0
 11 33  1  0  0  0  0
 12 13  1  0  0  0  0
 12 34  1  0  0  0  0
 12 35  1  0  0  0  0
 13 14  1  0  0  0  0
 13 36  1  0  0  0  0
 13 37  1  0  0  0  0
 14 15  1  0  0  0  0
 14 23  2  0  0  0  0
 15 16  2  0  0  0  0
 15 38  1  0  0  0  0
 16 17  1  0  0  0  0
 16 39  1  0  0  0  0
 17 18  2  0  0  0  0
 17 40  1  0  0  0  0
 18 19  1  0  0  0  0
 18 23  1  0  0  0  0
 19 20  2  0  0  0  0
 19 41  1  0  0  0  0
 20 21  1  0  0  0  0
 20 42  1  0  0  0  0
 21 22  2  0  0  0  0
 21 43  1  0  0  0  0
 22 23  1  0  0  0  0
 22 44  1  0  0  0  0
 24 45  1  0  0  0  0
M  END
>  <DRUGBANK_ID>
DB03220

>  <SECONDARY_ACCESSION_NUMBERS>
EXPT01485

>  <COMMON_NAME>
FR-234938

>  <CAS_NUMBER>
256461-79-7

>  <UNII>
10302WQ21V

$$$$
