
 OpenBabel10282417133D

 50 50  0  0  0  0  0  0  0  0999 V2000
    4.2735    2.0417   -1.1142 S   0  0  0  0  0  0  0  0  0  0  0  0
    0.8658    6.3662    1.8765 O   0  0  0  0  0  0  0  0  0  0  0  0
    3.2394    4.0741   -3.2552 O   0  0  0  0  0  0  0  0  0  0  0  0
    4.6754    4.4206   -1.0733 O   0  0  0  0  0  0  0  0  0  0  0  0
    5.4118    4.1363    1.1502 O   0  0  0  0  0  0  0  0  0  0  0  0
   -2.1718    3.8756   -2.3588 O   0  0  0  0  0  0  0  0  0  0  0  0
   -0.6989    5.6067   -2.1769 O   0  0  0  0  0  0  0  0  0  0  0  0
    1.4906    5.5126   -0.0970 N   0  0  0  0  0  0  0  0  0  0  0  0
    1.1795    3.5073   -2.7611 N   0  0  0  0  0  0  0  0  0  0  0  0
    3.1492    0.6808    0.9256 N   0  0  0  0  0  0  0  0  0  0  0  0
    2.4010    4.8766   -1.0146 C   0  0  1  0  0  0  0  0  0  0  0  0
    2.1651    2.8022    2.0275 C   0  0  0  0  0  0  0  0  0  0  0  0
    2.3387    4.3690    2.2634 C   0  0  0  0  0  0  0  0  0  0  0  0
    2.4867    3.4451   -0.6978 C   0  0  0  0  0  0  0  0  0  0  0  0
    3.1400    2.2646    0.9187 C   0  0  1  0  0  0  0  0  0  0  0  0
    1.5296    5.4856    1.3193 C   0  0  0  0  0  0  0  0  0  0  0  0
    2.2940    4.2495   -2.4801 C   0  0  0  0  0  0  0  0  0  0  0  0
    4.1487    1.1817   -2.5403 C   0  0  0  0  0  0  0  0  0  0  0  0
    4.4662    3.6366    0.3913 C   0  0  0  0  0  0  0  0  0  0  0  0
    5.2909    0.2354   -2.3507 C   0  0  0  0  0  0  0  0  0  0  0  0
    0.0616    3.3901   -1.8624 C   0  0  0  0  0  0  0  0  0  0  0  0
    6.5378    0.6996   -2.7956 C   0  0  0  0  0  0  0  0  0  0  0  0
    5.2156   -0.9356   -1.5707 C   0  0  0  0  0  0  0  0  0  0  0  0
    7.6590   -0.0832   -2.6439 C   0  0  0  0  0  0  0  0  0  0  0  0
    6.3701   -1.6706   -1.3389 C   0  0  0  0  0  0  0  0  0  0  0  0
   -0.9610    4.4114   -2.1602 C   0  0  0  0  0  0  0  0  0  0  0  0
    7.5591   -1.2934   -1.9637 C   0  0  0  0  0  0  0  0  0  0  0  0
    1.2119    6.3824   -0.5360 H   0  0  0  0  0  0  0  0  0  0  0  0
    1.1260    3.2574   -3.7407 H   0  0  0  0  0  0  0  0  0  0  0  0
    3.0726    0.3152   -0.0685 H   0  0  0  0  0  0  0  0  0  0  0  0
    4.1146    0.5282    1.0959 H   0  0  0  0  0  0  0  0  0  0  0  0
    4.1750    4.9753   -1.8134 H   0  0  0  0  0  0  0  0  0  0  0  0
   -2.2050    2.8998   -2.2910 H   0  0  0  0  0  0  0  0  0  0  0  0
    3.2388    5.4343   -0.5174 H   0  0  0  0  0  0  0  0  0  0  0  0
    2.5291    2.1912    2.8522 H   0  0  0  0  0  0  0  0  0  0  0  0
    1.0868    2.5874    1.8681 H   0  0  0  0  0  0  0  0  0  0  0  0
    3.4108    4.6057    2.2603 H   0  0  0  0  0  0  0  0  0  0  0  0
    2.0607    4.5769    3.3090 H   0  0  0  0  0  0  0  0  0  0  0  0
    1.5431    3.0082   -0.2353 H   0  0  0  0  0  0  0  0  0  0  0  0
    2.6646    3.8510    0.2864 H   0  0  0  0  0  0  0  0  0  0  0  0
    2.4063    1.7852   -0.0396 H   0  0  0  0  0  0  0  0  0  0  0  0
    3.1412    0.8305   -2.4208 H   0  0  0  0  0  0  0  0  0  0  0  0
    4.4114    2.1222   -2.9997 H   0  0  0  0  0  0  0  0  0  0  0  0
   -0.2089    2.3418   -1.7566 H   0  0  0  0  0  0  0  0  0  0  0  0
    0.2535    3.7350   -0.8555 H   0  0  0  0  0  0  0  0  0  0  0  0
    6.6078    1.6976   -3.2299 H   0  0  0  0  0  0  0  0  0  0  0  0
    4.2805   -1.2510   -1.1124 H   0  0  0  0  0  0  0  0  0  0  0  0
    8.5979    0.2640   -3.0558 H   0  0  0  0  0  0  0  0  0  0  0  0
    6.3517   -2.5360   -0.6826 H   0  0  0  0  0  0  0  0  0  0  0  0
    8.4201   -1.9480   -1.9169 H   0  0  0  0  0  0  0  0  0  0  0  0
  1 14  1  0  0  0  0
  1 18  1  0  0  0  0
  2 16  2  0  0  0  0
  3 17  2  0  0  0  0
  4 19  1  0  0  0  0
  4 32  1  0  0  0  0
  5 19  2  0  0  0  0
  6 26  1  0  0  0  0
  6 33  1  0  0  0  0
  7 26  2  0  0  0  0
  8 16  1  0  0  0  0
  8 28  1  0  0  0  0
  9 17  1  0  0  0  0
  9 21  1  0  0  0  0
  9 29  1  0  0  0  0
 10 30  1  0  0  0  0
 10 31  1  0  0  0  0
 11 17  1  0  0  0  0
 11 34  1  1  0  0  0
 11 14  1  0  0  0  0
 11  8  1  0  0  0  0
 12 13  1  0  0  0  0
 12 35  1  0  0  0  0
 12 36  1  0  0  0  0
 13 16  1  0  0  0  0
 13 37  1  0  0  0  0
 13 38  1  0  0  0  0
 14 39  1  0  0  0  0
 14 40  1  0  0  0  0
 15 19  1  0  0  0  0
 15 41  1  6  0  0  0
 15 12  1  0  0  0  0
 15 10  1  0  0  0  0
 18 20  1  0  0  0  0
 18 42  1  0  0  0  0
 18 43  1  0  0  0  0
 20 22  2  0  0  0  0
 20 23  1  0  0  0  0
 21 26  1  0  0  0  0
 21 44  1  0  0  0  0
 21 45  1  0  0  0  0
 22 24  1  0  0  0  0
 22 46  1  0  0  0  0
 23 25  2  0  0  0  0
 23 47  1  0  0  0  0
 24 27  2  0  0  0  0
 24 48  1  0  0  0  0
 25 27  1  0  0  0  0
 25 49  1  0  0  0  0
 27 50  1  0  0  0  0
M  END
>  <DRUGBANK_ID>
DB03602

>  <SECONDARY_ACCESSION_NUMBERS>
EXPT01647

>  <COMMON_NAME>
S-benzylglutathione

>  <SYNONYMS>
S-benzyl-glutathione

$$$$
