
 OpenBabel10282417153D

 93 91  0  0  1  0  0  0  0  0999 V2000
    1.0065   -0.0782   -0.0620 Gd  0  1  0  0  0  0  0  0  0  0  0  0
    1.0350    0.0588    0.0729 O   0  0  0  0  0  0  0  0  0  0  0  0
    2.7650    0.0588    0.0729 P   0  0  3  0  0  0  0  0  0  0  0  0
    4.4950    0.0588    0.0729 O   0  5  0  0  0  0  0  0  0  0  0  0
    2.7650    1.5104   -0.4660 O   0  0  0  0  0  0  0  0  0  0  0  0
    2.7650   -0.2307    1.7785 O   0  0  0  0  0  0  0  0  0  0  0  0
    1.4262   -0.3099    2.2452 C   0  0  0  0  0  0  0  0  0  0  0  0
    1.1324    0.8873    3.1452 C   0  0  0  0  0  0  0  0  0  0  0  0
   -0.2588    0.7879    3.7538 C   0  0  0  0  0  0  0  0  0  0  0  0
   -0.4323   -0.5022    4.5453 C   0  0  0  0  0  0  0  0  0  0  0  0
   -0.1502   -1.7018    3.6545 C   0  0  0  0  0  0  0  0  0  0  0  0
    1.2379   -1.6136    3.0311 C   0  0  0  0  0  0  0  0  0  0  0  0
    0.5432   -0.5067    5.7110 C   0  0  0  0  0  0  0  0  0  0  0  0
    0.4725    0.4557    6.6232 C   0  0  0  0  0  0  0  0  0  0  0  0
    1.2343    0.3943    7.7650 C   0  0  0  0  0  0  0  0  0  0  0  0
    2.1474   -0.6067    7.9482 C   0  0  0  0  0  0  0  0  0  0  0  0
    2.1359   -1.5823    7.0582 C   0  0  0  0  0  0  0  0  0  0  0  0
    1.4889   -1.5146    5.8016 C   0  0  0  0  0  0  0  0  0  0  0  0
   -1.8582   -0.5857    5.0651 C   0  0  0  0  0  0  0  0  0  0  0  0
   -2.8670   -0.5896    4.2016 C   0  0  0  0  0  0  0  0  0  0  0  0
   -4.1525   -0.8194    4.6290 C   0  0  0  0  0  0  0  0  0  0  0  0
   -4.4371   -0.9583    5.9591 C   0  0  0  0  0  0  0  0  0  0  0  0
   -3.4026   -1.0231    6.7774 C   0  0  0  0  0  0  0  0  0  0  0  0
   -2.0807   -0.6569    6.4304 C   0  0  0  0  0  0  0  0  0  0  0  0
    0.5617   -1.1963    0.5388 C   0  0  0  0  0  0  0  0  0  0  0  0
    1.0684   -2.2999   -0.3753 C   0  0  1  0  0  0  0  0  0  0  0  0
    2.5884   -2.2999   -0.3753 C   0  0  0  0  0  0  0  0  0  0  0  0
    3.0784   -2.5319    0.9911 N   0  0  0  0  0  0  0  0  0  0  0  0
    4.5484   -2.5319    0.9911 C   0  0  0  0  0  0  0  0  0  0  0  0
    5.0550   -1.1884    0.4923 C   0  0  0  0  0  0  0  0  0  0  0  0
    4.5650   -0.1210    1.3764 N   0  0  0  0  0  0  0  0  0  0  0  0
    5.0550    1.1783    0.8941 C   0  0  0  0  0  0  0  0  0  0  0  0
    4.5484    1.4181   -0.5188 C   0  0  0  0  0  0  0  0  0  0  0  0
    3.8177    2.4274   -0.7691 O   0  0  0  0  0  0  0  0  0  0  0  0
    4.8914    0.5144   -1.5590 O   0  5  0  0  0  0  0  0  0  0  0  0
    3.0950   -0.1210    1.3764 C   0  0  0  0  0  0  0  0  0  0  0  0
    2.5884    0.1188   -0.0365 C   0  0  0  0  0  0  0  0  0  0  0  0
    1.8577   -0.7514   -0.6058 O   0  0  0  0  0  0  0  0  0  0  0  0
    2.9314    1.3151   -0.7203 O   0  5  0  0  0  0  0  0  0  0  0  0
    2.5884   -1.4645    1.8751 C   0  0  0  0  0  0  0  0  0  0  0  0
    3.0950   -0.1210    1.3764 C   0  0  0  0  0  0  0  0  0  0  0  0
    2.2691    0.7846    1.0402 O   0  0  0  0  0  0  0  0  0  0  0  0
    4.4911    0.1222    1.2861 O   0  5  0  0  0  0  0  0  0  0  0  0
    0.5784   -3.5992    0.1070 N   0  0  0  0  0  0  0  0  0  0  0  0
    1.0684   -4.6666   -0.7770 C   0  0  0  0  0  0  0  0  0  0  0  0
    2.5884   -4.6666   -0.7770 C   0  0  0  0  0  0  0  0  0  0  0  0
    3.2238   -5.6984   -0.3940 O   0  0  0  0  0  0  0  0  0  0  0  0
    3.2984   -3.5137   -1.2050 O   0  5  0  0  0  0  0  0  0  0  0  0
    1.0684   -3.8312    1.4734 C   0  0  0  0  0  0  0  0  0  0  0  0
    2.5884   -3.8311    1.4734 C   0  0  0  0  0  0  0  0  0  0  0  0
    3.2238   -2.9835    2.1755 O   0  0  0  0  0  0  0  0  0  0  0  0
    3.2984   -4.7782    0.6890 O   0  5  0  0  0  0  0  0  0  0  0  0
    1.0625   -0.0595    0.0506 Na  0  3  0  0  0  0  0  0  0  0  0  0
    0.9583   -0.0323   -0.0850 Na  0  3  0  0  0  0  0  0  0  0  0  0
    1.0489    0.0758    0.0432 Na  0  3  0  0  0  0  0  0  0  0  0  0
    0.7521   -0.2994    1.4143 H   0  0  0  0  0  0  0  0  0  0  0  0
    1.8500    0.8997    3.9388 H   0  0  0  0  0  0  0  0  0  0  0  0
    1.1967    1.7843    2.5654 H   0  0  0  0  0  0  0  0  0  0  0  0
   -0.3917    1.6122    4.4229 H   0  0  0  0  0  0  0  0  0  0  0  0
   -0.9845    0.8137    2.9679 H   0  0  0  0  0  0  0  0  0  0  0  0
   -0.1958   -2.5865    4.2545 H   0  0  0  0  0  0  0  0  0  0  0  0
   -0.8814   -1.7361    2.8740 H   0  0  0  0  0  0  0  0  0  0  0  0
    1.3502   -2.4319    2.3509 H   0  0  0  0  0  0  0  0  0  0  0  0
    1.9708   -1.6580    3.8095 H   0  0  0  0  0  0  0  0  0  0  0  0
   -0.1836    1.2864    6.4676 H   0  0  0  0  0  0  0  0  0  0  0  0
    1.1112    1.1407    8.5218 H   0  0  0  0  0  0  0  0  0  0  0  0
    2.8344   -0.6000    8.7685 H   0  0  0  0  0  0  0  0  0  0  0  0
    2.6518   -2.4868    7.3044 H   0  0  0  0  0  0  0  0  0  0  0  0
    1.7102   -2.1815    4.9947 H   0  0  0  0  0  0  0  0  0  0  0  0
   -2.6771   -0.4122    3.1637 H   0  0  0  0  0  0  0  0  0  0  0  0
   -4.9422   -0.8908    3.9105 H   0  0  0  0  0  0  0  0  0  0  0  0
   -5.4438   -1.0115    6.3176 H   0  0  0  0  0  0  0  0  0  0  0  0
   -3.5762   -1.3771    7.7721 H   0  0  0  0  0  0  0  0  0  0  0  0
   -1.3218   -0.4534    7.1567 H   0  0  0  0  0  0  0  0  0  0  0  0
    0.9184   -1.3651    1.5334 H   0  0  0  0  0  0  0  0  0  0  0  0
   -0.5083   -1.1963    0.5388 H   0  0  0  0  0  0  0  0  0  0  0  0
    0.7117   -2.1311   -1.3699 H   0  0  0  0  0  0  0  0  0  0  0  0
    2.9450   -3.0769   -1.0188 H   0  0  0  0  0  0  0  0  0  0  0  0
    2.9450   -1.3542   -0.7264 H   0  0  0  0  0  0  0  0  0  0  0  0
    4.9050   -2.7007    1.9857 H   0  0  0  0  0  0  0  0  0  0  0  0
    4.9050   -3.3088    0.3476 H   0  0  0  0  0  0  0  0  0  0  0  0
    6.1250   -1.1884    0.4923 H   0  0  0  0  0  0  0  0  0  0  0  0
    4.6984   -1.0196   -0.5022 H   0  0  0  0  0  0  0  0  0  0  0  0
    4.6984    1.9552    1.5376 H   0  0  0  0  0  0  0  0  0  0  0  0
    6.1250    1.1783    0.8941 H   0  0  0  0  0  0  0  0  0  0  0  0
    2.7384   -1.0668    1.7275 H   0  0  0  0  0  0  0  0  0  0  0  0
    2.7384    0.6559    2.0199 H   0  0  0  0  0  0  0  0  0  0  0  0
    1.5184   -1.4645    1.8751 H   0  0  0  0  0  0  0  0  0  0  0  0
    2.9450   -1.6333    2.8697 H   0  0  0  0  0  0  0  0  0  0  0  0
    0.7117   -5.6123   -0.4259 H   0  0  0  0  0  0  0  0  0  0  0  0
    0.7117   -4.4978   -1.7716 H   0  0  0  0  0  0  0  0  0  0  0  0
    0.7117   -3.0542    2.1169 H   0  0  0  0  0  0  0  0  0  0  0  0
    0.7117   -4.7769    1.8245 H   0  0  0  0  0  0  0  0  0  0  0  0
  2  3  1  0  0  0  0
  3  5  2  0  0  0  0
  3  6  1  0  0  0  0
  3  4  1  0  0  0  0
  6  7  1  0  0  0  0
  7  8  1  0  0  0  0
  7 12  1  0  0  0  0
  7 56  1  0  0  0  0
  8  9  1  0  0  0  0
  8 57  1  0  0  0  0
  8 58  1  0  0  0  0
  9 10  1  0  0  0  0
  9 59  1  0  0  0  0
  9 60  1  0  0  0  0
 10 11  1  0  0  0  0
 10 13  1  0  0  0  0
 10 19  1  0  0  0  0
 11 12  1  0  0  0  0
 11 61  1  0  0  0  0
 11 62  1  0  0  0  0
 12 63  1  0  0  0  0
 12 64  1  0  0  0  0
 13 14  2  0  0  0  0
 14 15  1  0  0  0  0
 14 65  1  0  0  0  0
 15 16  2  0  0  0  0
 15 66  1  0  0  0  0
 16 17  1  0  0  0  0
 16 67  1  0  0  0  0
 17 18  2  0  0  0  0
 17 68  1  0  0  0  0
 18 13  1  0  0  0  0
 18 69  1  0  0  0  0
 19 20  2  0  0  0  0
 20 21  1  0  0  0  0
 20 70  1  0  0  0  0
 21 22  2  0  0  0  0
 21 71  1  0  0  0  0
 22 23  1  0  0  0  0
 22 72  1  0  0  0  0
 23 24  2  0  0  0  0
 23 73  1  0  0  0  0
 24 19  1  0  0  0  0
 24 74  1  0  0  0  0
 25  2  1  0  0  0  0
 25 75  1  0  0  0  0
 25 76  1  0  0  0  0
 26 25  1  0  0  0  0
 26 44  1  0  0  0  0
 26 77  1  6  0  0  0
 27 26  1  0  0  0  0
 27 78  1  0  0  0  0
 27 79  1  0  0  0  0
 28 27  1  0  0  0  0
 28 29  1  0  0  0  0
 28 40  1  0  0  0  0
 29 30  1  0  0  0  0
 29 80  1  0  0  0  0
 29 81  1  0  0  0  0
 30 31  1  0  0  0  0
 30 82  1  0  0  0  0
 30 83  1  0  0  0  0
 31 32  1  0  0  0  0
 31 36  1  0  0  0  0
 32 33  1  0  0  0  0
 32 84  1  0  0  0  0
 32 85  1  0  0  0  0
 33 34  2  0  0  0  0
 33 35  1  0  0  0  0
 36 37  1  0  0  0  0
 36 86  1  0  0  0  0
 36 87  1  0  0  0  0
 37 38  2  0  0  0  0
 37 39  1  0  0  0  0
 40 41  1  0  0  0  0
 40 88  1  0  0  0  0
 40 89  1  0  0  0  0
 41 42  2  0  0  0  0
 41 43  1  0  0  0  0
 44 45  1  0  0  0  0
 44 49  1  0  0  0  0
 45 46  1  0  0  0  0
 45 90  1  0  0  0  0
 45 91  1  0  0  0  0
 46 47  2  0  0  0  0
 46 48  1  0  0  0  0
 49 50  1  0  0  0  0
 49 92  1  0  0  0  0
 49 93  1  0  0  0  0
 50 51  2  0  0  0  0
 50 52  1  0  0  0  0
M  CHG  8   1   3   4  -1  35  -1  39  -1  43  -1  48  -1  52  -1  53   1
M  CHG  2  54   1  55   1
M  END
>  <DRUGBANK_ID>
DB06705

>  <COMMON_NAME>
Gadofosveset trisodium

>  <CAS_NUMBER>
193901-90-5

>  <UNII>
9430ZR8ZAN

>  <SYNONYMS>
Gadofosveset

$$$$
