
 OpenBabel10282417243D

 67 70  0  0  1  0  0  0  0  0999 V2000
    0.8907   -0.0356    0.0764 C   0  0  0  0  0  0  0  0  0  0  0  0
    0.3345   -0.0455   -1.2365 O   0  0  0  0  0  0  0  0  0  0  0  0
    0.8117    0.9580   -2.0327 C   0  0  0  0  0  0  0  0  0  0  0  0
    2.1644    1.3005   -2.0823 C   0  0  0  0  0  0  0  0  0  0  0  0
    2.6039    2.3286   -2.9069 C   0  0  0  0  0  0  0  0  0  0  0  0
    4.0714    2.6629   -3.0008 C   0  0  0  0  0  0  0  0  0  0  0  0
    4.6584    2.4039   -4.3958 C   0  0  0  0  0  0  0  0  0  0  0  0
    4.1610    3.3571   -5.4238 C   0  0  0  0  0  0  0  0  0  0  0  0
    4.2303    4.7343   -5.5232 C   0  0  0  0  0  0  0  0  0  0  0  0
    3.5124    5.0679   -6.6968 C   0  0  0  0  0  0  0  0  0  0  0  0
    3.2589    6.3467   -7.1551 N   0  0  0  0  0  0  0  0  0  0  0  0
    2.5550    6.7445   -8.2927 C   0  0  0  0  0  0  0  0  0  0  0  0
    2.5449    7.9202   -8.6219 O   0  0  0  0  0  0  0  0  0  0  0  0
    1.7305    5.7687   -9.0709 C   0  0  0  0  0  0  0  0  0  0  0  0
    0.8233    4.9933   -8.3749 C   0  0  0  0  0  0  0  0  0  0  0  0
    0.1365    3.9247   -8.9660 C   0  0  0  0  0  0  0  0  0  0  0  0
    0.2050    3.7013  -10.3331 C   0  0  0  0  0  0  0  0  0  0  0  0
    0.9879    4.6114  -11.0626 C   0  0  0  0  0  0  0  0  0  0  0  0
    1.7753    5.6154  -10.4467 C   0  0  0  0  0  0  0  0  0  0  0  0
   -0.4500    2.6469  -10.9357 N   0  0  0  0  0  0  0  0  0  0  0  0
   -1.8439    2.2921  -10.6274 C   0  0  0  0  0  0  0  0  0  0  0  0
   -2.0105    0.8152  -10.1695 C   0  0  2  0  0  0  0  0  0  0  0  0
   -1.7079    0.6137   -8.6761 C   0  0  0  0  0  0  0  0  0  0  0  0
   -1.3014   -0.1453  -11.0578 N   0  0  0  0  0  0  0  0  0  0  0  0
    0.1193    0.2454  -11.2668 C   0  0  2  0  0  0  0  0  0  0  0  0
    0.9445    0.0794   -9.9908 C   0  0  0  0  0  0  0  0  0  0  0  0
    0.2766    1.7011  -11.7993 C   0  0  0  0  0  0  0  0  0  0  0  0
    3.0996    3.9565   -7.3028 N   0  0  0  0  0  0  0  0  0  0  0  0
    3.3792    2.9597   -6.4683 N   0  0  0  0  0  0  0  0  0  0  0  0
    1.6571    3.0094   -3.6699 C   0  0  0  0  0  0  0  0  0  0  0  0
    0.3329    2.5830   -3.7334 C   0  0  0  0  0  0  0  0  0  0  0  0
   -0.6032    3.0741   -4.5973 O   0  0  0  0  0  0  0  0  0  0  0  0
   -0.0545    3.8646   -5.6293 C   0  0  0  0  0  0  0  0  0  0  0  0
   -0.1002    1.5811   -2.8804 C   0  0  0  0  0  0  0  0  0  0  0  0
    0.5080   -0.9101    0.6062 H   0  0  0  0  0  0  0  0  0  0  0  0
    0.5775    0.8675    0.6100 H   0  0  0  0  0  0  0  0  0  0  0  0
    1.9816   -0.1208    0.0853 H   0  0  0  0  0  0  0  0  0  0  0  0
    2.8969    0.7621   -1.4937 H   0  0  0  0  0  0  0  0  0  0  0  0
    4.2205    3.7038   -2.6913 H   0  0  0  0  0  0  0  0  0  0  0  0
    4.6279    2.0442   -2.2854 H   0  0  0  0  0  0  0  0  0  0  0  0
    5.7461    2.5210   -4.3509 H   0  0  0  0  0  0  0  0  0  0  0  0
    4.4607    1.3672   -4.7020 H   0  0  0  0  0  0  0  0  0  0  0  0
    4.6963    5.3917   -4.8035 H   0  0  0  0  0  0  0  0  0  0  0  0
    3.6806    7.1073   -6.6386 H   0  0  0  0  0  0  0  0  0  0  0  0
    0.7737    5.1857   -7.3181 H   0  0  0  0  0  0  0  0  0  0  0  0
   -0.3953    3.2279   -8.3279 H   0  0  0  0  0  0  0  0  0  0  0  0
    0.9666    4.5560  -12.1462 H   0  0  0  0  0  0  0  0  0  0  0  0
    2.4163    6.2519  -11.0461 H   0  0  0  0  0  0  0  0  0  0  0  0
   -2.3093    2.9719   -9.9061 H   0  0  0  0  0  0  0  0  0  0  0  0
   -2.4026    2.4111  -11.5660 H   0  0  0  0  0  0  0  0  0  0  0  0
   -3.0773    0.5685  -10.2658 H   0  0  0  0  0  0  0  0  0  0  0  0
   -2.4160    1.1754   -8.0623 H   0  0  0  0  0  0  0  0  0  0  0  0
   -1.7624   -0.4453   -8.4012 H   0  0  0  0  0  0  0  0  0  0  0  0
   -0.7383    0.9775   -8.3488 H   0  0  0  0  0  0  0  0  0  0  0  0
   -1.7557   -0.0840  -11.9744 H   0  0  0  0  0  0  0  0  0  0  0  0
    0.5309   -0.4507  -12.0109 H   0  0  0  0  0  0  0  0  0  0  0  0
    0.6791   -0.8362   -9.4508 H   0  0  0  0  0  0  0  0  0  0  0  0
    2.0166    0.0799  -10.1899 H   0  0  0  0  0  0  0  0  0  0  0  0
    0.8082    0.9367   -9.3352 H   0  0  0  0  0  0  0  0  0  0  0  0
   -0.1404    1.7651  -12.8110 H   0  0  0  0  0  0  0  0  0  0  0  0
    1.3461    1.9345  -11.8655 H   0  0  0  0  0  0  0  0  0  0  0  0
    2.9449    2.0557   -6.6428 H   0  0  0  0  0  0  0  0  0  0  0  0
    1.9788    3.8679   -4.2436 H   0  0  0  0  0  0  0  0  0  0  0  0
    0.3530    4.8064   -5.2400 H   0  0  0  0  0  0  0  0  0  0  0  0
    0.7145    3.3063   -6.1786 H   0  0  0  0  0  0  0  0  0  0  0  0
   -0.8520    4.1216   -6.3284 H   0  0  0  0  0  0  0  0  0  0  0  0
   -1.1499    1.3049   -2.8786 H   0  0  0  0  0  0  0  0  0  0  0  0
  1  2  1  0  0  0  0
  1 35  1  0  0  0  0
  1 36  1  0  0  0  0
  1 37  1  0  0  0  0
  2  3  1  0  0  0  0
  3  4  2  0  0  0  0
  3 34  1  0  0  0  0
  4  5  1  0  0  0  0
  4 38  1  0  0  0  0
  5  6  1  0  0  0  0
  5 30  2  0  0  0  0
  6  7  1  0  0  0  0
  6 39  1  0  0  0  0
  6 40  1  0  0  0  0
  7  8  1  0  0  0  0
  7 41  1  0  0  0  0
  7 42  1  0  0  0  0
  8  9  2  0  0  0  0
  8 29  1  0  0  0  0
  9 10  1  0  0  0  0
  9 43  1  0  0  0  0
 10 11  1  0  0  0  0
 10 28  2  0  0  0  0
 11 12  1  0  0  0  0
 11 44  1  0  0  0  0
 12 13  2  0  0  0  0
 12 14  1  0  0  0  0
 14 15  2  0  0  0  0
 14 19  1  0  0  0  0
 15 16  1  0  0  0  0
 15 45  1  0  0  0  0
 16 17  2  0  0  0  0
 16 46  1  0  0  0  0
 17 18  1  0  0  0  0
 17 20  1  0  0  0  0
 18 19  2  0  0  0  0
 18 47  1  0  0  0  0
 19 48  1  0  0  0  0
 20 21  1  0  0  0  0
 20 27  1  0  0  0  0
 21 49  1  0  0  0  0
 21 50  1  0  0  0  0
 22 21  1  0  0  0  0
 22 23  1  0  0  0  0
 22 24  1  0  0  0  0
 22 51  1  6  0  0  0
 23 52  1  0  0  0  0
 23 53  1  0  0  0  0
 23 54  1  0  0  0  0
 24 55  1  0  0  0  0
 25 24  1  0  0  0  0
 25 26  1  0  0  0  0
 25 27  1  0  0  0  0
 25 56  1  6  0  0  0
 26 57  1  0  0  0  0
 26 58  1  0  0  0  0
 26 59  1  0  0  0  0
 27 60  1  0  0  0  0
 27 61  1  0  0  0  0
 28 29  1  0  0  0  0
 29 62  1  0  0  0  0
 30 31  1  0  0  0  0
 30 63  1  0  0  0  0
 31 32  1  0  0  0  0
 31 34  2  0  0  0  0
 32 33  1  0  0  0  0
 33 64  1  0  0  0  0
 33 65  1  0  0  0  0
 33 66  1  0  0  0  0
 34 67  1  0  0  0  0
M  END
>  <DRUGBANK_ID>
DB18442

>  <COMMON_NAME>
ABSK-091

>  <CAS_NUMBER>
1035270-39-3

>  <SYNONYMS>
Benzamide, n-(5-(2-(3,5-dimethoxyphenyl)ethyl)-1h-pyrazol-3-yl)-4-((3r,5s)-3,5-dimethyl-1-piperazinyl)-, rel-

$$$$
