
 OpenBabel10282417213D

 38 40  0  0  0  0  0  0  0  0999 V2000
   -0.7962   -2.1404    0.0719 O   0  0  0  0  0  0  0  0  0  0  0  0
    1.7884   -2.6963    0.0728 O   0  0  0  0  0  0  0  0  0  0  0  0
    2.7238    2.1950   -0.0590 O   0  0  0  0  0  0  0  0  0  0  0  0
    0.1340    2.6075    0.0006 O   0  0  0  0  0  0  0  0  0  0  0  0
    3.6920   -0.6778   -0.0399 O   0  0  0  0  0  0  0  0  0  0  0  0
   -2.3659    1.6111    0.0063 O   0  0  0  0  0  0  0  0  0  0  0  0
   -2.2810   -3.9361    2.0910 O   0  0  0  0  0  0  0  0  0  0  0  0
   -0.3727    0.2600    0.0189 C   0  0  0  0  0  0  0  0  0  0  0  0
    0.0752   -1.0667    0.0435 C   0  0  0  0  0  0  0  0  0  0  0  0
    1.4564   -1.3529    0.0392 C   0  0  0  0  0  0  0  0  0  0  0  0
    0.5674    1.3033    0.0023 C   0  0  0  0  0  0  0  0  0  0  0  0
   -2.1522   -1.8975   -0.0388 C   0  0  0  0  0  0  0  0  0  0  0  0
   -1.8353    0.5033   -0.0090 C   0  0  0  0  0  0  0  0  0  0  0  0
    1.9581    1.0497   -0.0200 C   0  0  0  0  0  0  0  0  0  0  0  0
    2.3877   -0.2880   -0.0060 C   0  0  0  0  0  0  0  0  0  0  0  0
   -2.7023   -0.6791   -0.0727 C   0  0  0  0  0  0  0  0  0  0  0  0
   -3.0085   -3.0961   -0.0809 C   0  0  0  0  0  0  0  0  0  0  0  0
   -3.0319   -4.0460    0.9515 C   0  0  0  0  0  0  0  0  0  0  0  0
   -3.8614   -3.2935   -1.1832 C   0  0  0  0  0  0  0  0  0  0  0  0
   -3.8673   -5.1615    0.8804 C   0  0  0  0  0  0  0  0  0  0  0  0
   -4.7064   -4.4051   -1.2496 C   0  0  0  0  0  0  0  0  0  0  0  0
   -4.7049   -5.3413   -0.2193 C   0  0  0  0  0  0  0  0  0  0  0  0
    3.1709   -3.0630    0.0749 C   0  0  0  0  0  0  0  0  0  0  0  0
    4.1374    2.0790   -0.1125 C   0  0  0  0  0  0  0  0  0  0  0  0
    0.9157    3.1876   -0.0104 H   0  0  0  0  0  0  0  0  0  0  0  0
    4.3684   -0.0085   -0.0778 H   0  0  0  0  0  0  0  0  0  0  0  0
   -1.7203   -3.1450    2.0226 H   0  0  0  0  0  0  0  0  0  0  0  0
   -3.7693   -0.5030   -0.1350 H   0  0  0  0  0  0  0  0  0  0  0  0
   -3.8769   -2.5797   -2.0049 H   0  0  0  0  0  0  0  0  0  0  0  0
   -3.8680   -5.8876    1.6888 H   0  0  0  0  0  0  0  0  0  0  0  0
   -5.3640   -4.5394   -2.1052 H   0  0  0  0  0  0  0  0  0  0  0  0
   -5.3568   -6.2095   -0.2691 H   0  0  0  0  0  0  0  0  0  0  0  0
    3.6651   -2.7505   -0.8551 H   0  0  0  0  0  0  0  0  0  0  0  0
    3.6822   -2.6783    0.9680 H   0  0  0  0  0  0  0  0  0  0  0  0
    3.2629   -4.1493    0.1154 H   0  0  0  0  0  0  0  0  0  0  0  0
    4.5134    1.5975    0.7997 H   0  0  0  0  0  0  0  0  0  0  0  0
    4.4438    1.5611   -1.0311 H   0  0  0  0  0  0  0  0  0  0  0  0
    4.6031    3.0643   -0.1499 H   0  0  0  0  0  0  0  0  0  0  0  0
  1  9  1  0  0  0  0
  1 12  1  0  0  0  0
  2 10  1  0  0  0  0
  2 23  1  0  0  0  0
  3 14  1  0  0  0  0
  3 24  1  0  0  0  0
  4 11  1  0  0  0  0
  4 25  1  0  0  0  0
  5 15  1  0  0  0  0
  5 26  1  0  0  0  0
  6 13  2  0  0  0  0
  7 18  1  0  0  0  0
  7 27  1  0  0  0  0
  8  9  1  0  0  0  0
  8 11  2  0  0  0  0
  8 13  1  0  0  0  0
  9 10  2  0  0  0  0
 10 15  1  0  0  0  0
 11 14  1  0  0  0  0
 12 16  2  0  0  0  0
 12 17  1  0  0  0  0
 13 16  1  0  0  0  0
 14 15  2  0  0  0  0
 16 28  1  0  0  0  0
 17 18  1  0  0  0  0
 17 19  2  0  0  0  0
 18 20  2  0  0  0  0
 19 21  1  0  0  0  0
 19 29  1  0  0  0  0
 20 22  1  0  0  0  0
 20 30  1  0  0  0  0
 21 22  2  0  0  0  0
 21 31  1  0  0  0  0
 22 32  1  0  0  0  0
 23 33  1  0  0  0  0
 23 34  1  0  0  0  0
 23 35  1  0  0  0  0
 24 36  1  0  0  0  0
 24 37  1  0  0  0  0
 24 38  1  0  0  0  0
M  END
>  <DRUGBANK_ID>
DB13983

>  <COMMON_NAME>
5,7,2â€²-trihydroxy-6,8-dimethoxyflavone

>  <CAS_NUMBER>
159359-22-5

>  <SYNONYMS>
5,7-Dihydroxy-2-(2-hydroxyphenyl)-6,8-dimethoxy-4H-1-benzopyran-4-one

$$$$
