
 OpenBabel10282417183D

 38 39  0  0  1  0  0  0  0  0999 V2000
    1.4512   -0.1299    0.0230 C   0  0  0  0  0  0  0  0  0  0  0  0
    0.6434   -1.2300    0.1401 C   0  0  0  0  0  0  0  0  0  0  0  0
   -0.7243   -1.0438    0.2838 C   0  0  0  0  0  0  0  0  0  0  0  0
   -1.3872    0.1922    0.1547 C   0  0  0  0  0  0  0  0  0  0  0  0
   -0.5378    1.3027    0.0669 C   0  0  0  0  0  0  0  0  0  0  0  0
    0.8660    1.1366    0.0015 C   0  0  0  0  0  0  0  0  0  0  0  0
   -2.9245    0.3776   -0.0035 C   0  0  0  0  0  0  0  0  0  0  0  0
   -3.3764    1.5144   -0.1494 O   0  0  0  0  0  0  0  0  0  0  0  0
   -3.8390   -0.7272   -0.0929 N   0  0  0  0  0  0  0  0  0  0  0  0
   -3.3251   -2.0123   -0.4819 C   0  0  2  0  0  0  0  0  0  0  0  0
   -2.6626   -1.8347   -1.8422 C   0  0  0  0  0  0  0  0  0  0  0  0
   -2.9814   -3.0897   -2.6291 C   0  0  2  0  0  0  0  0  0  0  0  0
   -2.8497   -4.0956   -1.5820 N   0  0  0  0  0  0  0  0  0  0  0  0
   -3.3862   -3.5620   -0.3090 C   0  0  0  0  0  0  0  0  0  0  0  0
   -2.4435   -5.4107   -1.7582 C   0  0  0  0  0  0  0  0  0  0  0  0
   -2.3414   -6.1857   -0.8035 O   0  0  0  0  0  0  0  0  0  0  0  0
   -2.0562   -5.8973   -3.1783 C   0  0  0  0  0  0  0  0  0  0  0  0
   -3.1715   -5.6887   -4.1082 N   0  0  0  0  0  0  0  0  0  0  0  0
   -2.0268   -3.0449   -3.8163 C   0  0  0  0  0  0  0  0  0  0  0  0
   -2.3396   -2.8052   -4.9819 O   0  0  0  0  0  0  0  0  0  0  0  0
   -0.7301   -3.2398   -3.4901 O   0  0  0  0  0  0  0  0  0  0  0  0
    2.5248   -0.2738   -0.0276 H   0  0  0  0  0  0  0  0  0  0  0  0
    1.0284   -2.2472    0.1095 H   0  0  0  0  0  0  0  0  0  0  0  0
   -1.1962   -1.9961    0.4118 H   0  0  0  0  0  0  0  0  0  0  0  0
   -0.9447    2.3121    0.0504 H   0  0  0  0  0  0  0  0  0  0  0  0
    1.5163    2.0024   -0.0880 H   0  0  0  0  0  0  0  0  0  0  0  0
   -4.7644   -0.4324   -0.3936 H   0  0  0  0  0  0  0  0  0  0  0  0
   -2.8547   -1.9908    0.4950 H   0  0  0  0  0  0  0  0  0  0  0  0
   -1.5785   -1.7524   -1.7599 H   0  0  0  0  0  0  0  0  0  0  0  0
   -2.9933   -0.9403   -2.3806 H   0  0  0  0  0  0  0  0  0  0  0  0
   -4.0246   -3.0736   -2.9582 H   0  0  0  0  0  0  0  0  0  0  0  0
   -2.6783   -3.9061    0.4682 H   0  0  0  0  0  0  0  0  0  0  0  0
   -4.3673   -3.9777   -0.0795 H   0  0  0  0  0  0  0  0  0  0  0  0
   -1.1520   -5.3999   -3.5295 H   0  0  0  0  0  0  0  0  0  0  0  0
   -1.7845   -6.9559   -3.1548 H   0  0  0  0  0  0  0  0  0  0  0  0
   -2.8896   -5.9329   -5.0571 H   0  0  0  0  0  0  0  0  0  0  0  0
   -3.9293   -6.3207   -3.8537 H   0  0  0  0  0  0  0  0  0  0  0  0
   -0.2756   -3.3475   -4.3513 H   0  0  0  0  0  0  0  0  0  0  0  0
  1  2  2  0  0  0  0
  1  6  1  0  0  0  0
  1 22  1  0  0  0  0
  2  3  1  0  0  0  0
  2 23  1  0  0  0  0
  3  4  2  0  0  0  0
  3 24  1  0  0  0  0
  4  5  1  0  0  0  0
  4  7  1  0  0  0  0
  5  6  2  0  0  0  0
  5 25  1  0  0  0  0
  6 26  1  0  0  0  0
  7  8  2  0  0  0  0
  7  9  1  0  0  0  0
  9 27  1  0  0  0  0
 10  9  1  0  0  0  0
 10 11  1  0  0  0  0
 10 14  1  0  0  0  0
 10 28  1  1  0  0  0
 11 12  1  0  0  0  0
 11 29  1  0  0  0  0
 11 30  1  0  0  0  0
 12 13  1  0  0  0  0
 12 31  1  6  0  0  0
 12 19  1  0  0  0  0
 13 14  1  0  0  0  0
 13 15  1  0  0  0  0
 14 32  1  0  0  0  0
 14 33  1  0  0  0  0
 15 16  2  0  0  0  0
 15 17  1  0  0  0  0
 17 18  1  0  0  0  0
 17 34  1  0  0  0  0
 17 35  1  0  0  0  0
 18 36  1  0  0  0  0
 18 37  1  0  0  0  0
 19 20  2  0  0  0  0
 19 21  1  0  0  0  0
 21 38  1  0  0  0  0
M  END
>  <DRUGBANK_ID>
DB11821

>  <SECONDARY_ACCESSION_NUMBERS>
DB06340

>  <COMMON_NAME>
Danegaptide

>  <CAS_NUMBER>
943134-39-2

>  <UNII>
PA0Y7735AT

>  <SYNONYMS>
Danegaptide

$$$$
