
 OpenBabel10282417213D

 60 63  0  0  1  0  0  0  0  0999 V2000
   -3.7274   -1.6681   -0.5896 C   0  0  0  0  0  0  0  0  0  0  0  0
   -2.4512   -2.1685    0.4419 C   0  0  1  0  0  0  0  0  0  0  0  0
   -1.9102   -4.0783    0.4941 C   0  0  0  0  0  0  0  0  0  0  0  0
   -2.1496   -3.5379   -0.6690 C   0  0  1  0  0  0  0  0  0  0  0  0
   -2.7099   -3.7985   -2.0064 C   0  0  2  0  0  0  0  0  0  0  0  0
   -3.8903   -4.7759   -1.9868 C   0  0  0  0  0  0  0  0  0  0  0  0
   -4.7149   -4.4418   -3.2073 C   0  0  0  0  0  0  0  0  0  0  0  0
   -3.7692   -4.4897   -4.3791 C   0  0  0  0  0  0  0  0  0  0  0  0
   -4.0297   -5.3462   -5.3747 C   0  0  0  0  0  0  0  0  0  0  0  0
   -3.1735   -5.4522   -6.5641 C   0  0  0  0  0  0  0  0  0  0  0  0
   -3.3724   -6.2972   -7.4231 O   0  0  0  0  0  0  0  0  0  0  0  0
   -2.0923   -4.4702   -6.7198 C   0  0  0  0  0  0  0  0  0  0  0  0
   -1.6606   -3.8900   -5.5965 C   0  0  0  0  0  0  0  0  0  0  0  0
   -2.5332   -3.5389   -4.3917 C   0  0  2  0  0  0  0  0  0  0  0  0
   -1.6284   -3.7546   -2.9648 C   0  0  1  0  0  0  0  0  0  0  0  0
   -0.2564   -2.8123   -2.1850 C   0  0  0  0  0  0  0  0  0  0  0  0
    0.3696   -1.7727   -2.4246 O   0  0  0  0  0  0  0  0  0  0  0  0
    0.4315   -3.1076   -0.9804 C   0  0  0  0  0  0  0  0  0  0  0  0
   -0.6901   -2.6543   -0.1758 C   0  0  2  0  0  0  0  0  0  0  0  0
   -1.2399   -1.2796   -0.1834 C   0  0  1  0  0  0  0  0  0  0  0  0
   -0.9563   -0.2739   -1.6000 C   0  0  0  0  0  0  0  0  0  0  0  0
   -0.3343    0.7948   -1.4248 O   0  0  0  0  0  0  0  0  0  0  0  0
   -1.1911   -0.7218   -3.2776 C   0  0  0  0  0  0  0  0  0  0  0  0
   -0.4639   -1.9857   -4.2919 O   0  0  0  0  0  0  0  0  0  0  0  0
    0.8741   -2.7796   -4.2562 C   0  0  0  0  0  0  0  0  0  0  0  0
    1.9681   -2.2101   -4.1733 O   0  0  0  0  0  0  0  0  0  0  0  0
    0.9107   -4.4116   -3.7758 C   0  0  0  0  0  0  0  0  0  0  0  0
   -0.6539   -0.5000    0.8689 O   0  0  0  0  0  0  0  0  0  0  0  0
   -0.0198   -2.9264    1.2979 C   0  0  0  0  0  0  0  0  0  0  0  0
   -3.2273   -2.1603   -4.6728 C   0  0  0  0  0  0  0  0  0  0  0  0
   -4.4597   -0.8948   -0.3901 H   0  0  0  0  0  0  0  0  0  0  0  0
   -4.4030   -2.5106   -0.7442 H   0  0  0  0  0  0  0  0  0  0  0  0
   -3.3021   -1.3216   -1.5491 H   0  0  0  0  0  0  0  0  0  0  0  0
   -2.7264   -1.9420    1.4627 H   0  0  0  0  0  0  0  0  0  0  0  0
   -2.4975   -5.0364    0.5156 H   0  0  0  0  0  0  0  0  0  0  0  0
   -1.0121   -4.6207   -0.0391 H   0  0  0  0  0  0  0  0  0  0  0  0
   -3.1848   -3.6760   -0.1987 H   0  0  0  0  0  0  0  0  0  0  0  0
   -3.2200   -2.9115   -2.2982 H   0  0  0  0  0  0  0  0  0  0  0  0
   -3.5647   -5.8146   -1.9281 H   0  0  0  0  0  0  0  0  0  0  0  0
   -4.5564   -4.6193   -1.1189 H   0  0  0  0  0  0  0  0  0  0  0  0
   -5.5577   -5.1328   -3.2831 H   0  0  0  0  0  0  0  0  0  0  0  0
   -5.1678   -3.4409   -3.0993 H   0  0  0  0  0  0  0  0  0  0  0  0
   -4.9045   -5.9759   -5.3700 H   0  0  0  0  0  0  0  0  0  0  0  0
   -2.2168   -3.9079   -7.6344 H   0  0  0  0  0  0  0  0  0  0  0  0
   -0.9944   -4.6235   -5.1654 H   0  0  0  0  0  0  0  0  0  0  0  0
   -1.3078   -4.7986   -2.9800 H   0  0  0  0  0  0  0  0  0  0  0  0
    1.2873   -2.4026   -0.8234 H   0  0  0  0  0  0  0  0  0  0  0  0
    0.8499   -4.0964   -0.9625 H   0  0  0  0  0  0  0  0  0  0  0  0
   -2.2807   -0.8110   -3.2529 H   0  0  0  0  0  0  0  0  0  0  0  0
   -1.0142    0.1530   -3.9019 H   0  0  0  0  0  0  0  0  0  0  0  0
    0.5043   -4.7532   -2.8064 H   0  0  0  0  0  0  0  0  0  0  0  0
    0.5807   -5.1564   -4.4898 H   0  0  0  0  0  0  0  0  0  0  0  0
    1.9543   -4.6560   -3.5421 H   0  0  0  0  0  0  0  0  0  0  0  0
    0.2617   -0.3047    0.5716 H   0  0  0  0  0  0  0  0  0  0  0  0
    0.8557   -2.2889    1.4518 H   0  0  0  0  0  0  0  0  0  0  0  0
   -0.7309   -2.7479    2.1120 H   0  0  0  0  0  0  0  0  0  0  0  0
    0.3315   -3.9629    1.3702 H   0  0  0  0  0  0  0  0  0  0  0  0
   -3.8453   -1.8037   -3.8342 H   0  0  0  0  0  0  0  0  0  0  0  0
   -2.5265   -1.3863   -4.9781 H   0  0  0  0  0  0  0  0  0  0  0  0
   -3.9000   -2.1485   -5.5332 H   0  0  0  0  0  0  0  0  0  0  0  0
  1 31  1  0  0  0  0
  1 32  1  0  0  0  0
  1 33  1  0  0  0  0
  2  3  1  0  0  0  0
  2 20  1  0  0  0  0
  2 34  1  1  0  0  0
  2  1  1  0  0  0  0
  3 35  1  0  0  0  0
  3 36  1  0  0  0  0
  4  3  1  0  0  0  0
  4  5  1  0  0  0  0
  4 19  1  0  0  0  0
  4 37  1  6  0  0  0
  5  6  1  0  0  0  0
  5 15  1  0  0  0  0
  5 38  1  6  0  0  0
  6  7  1  0  0  0  0
  6 39  1  0  0  0  0
  6 40  1  0  0  0  0
  7  8  1  0  0  0  0
  7 41  1  0  0  0  0
  7 42  1  0  0  0  0
  8  9  2  0  0  0  0
  8 14  1  0  0  0  0
  9 10  1  0  0  0  0
  9 43  1  0  0  0  0
 10 11  2  0  0  0  0
 10 12  1  0  0  0  0
 12 13  2  0  0  0  0
 12 44  1  0  0  0  0
 13 14  1  0  0  0  0
 13 45  1  0  0  0  0
 14 15  1  0  0  0  0
 14 30  1  6  0  0  0
 15 16  1  0  0  0  0
 15 46  1  6  0  0  0
 16 17  2  0  0  0  0
 16 18  1  0  0  0  0
 18 19  1  0  0  0  0
 18 47  1  0  0  0  0
 18 48  1  0  0  0  0
 19 20  1  0  0  0  0
 19 29  1  6  0  0  0
 20 21  1  6  0  0  0
 20 28  1  0  0  0  0
 21 22  2  0  0  0  0
 21 23  1  0  0  0  0
 23 24  1  0  0  0  0
 23 49  1  0  0  0  0
 23 50  1  0  0  0  0
 24 25  1  0  0  0  0
 25 26  2  0  0  0  0
 25 27  1  0  0  0  0
 27 51  1  0  0  0  0
 27 52  1  0  0  0  0
 27 53  1  0  0  0  0
 28 54  1  0  0  0  0
 29 55  1  0  0  0  0
 29 56  1  0  0  0  0
 29 57  1  0  0  0  0
 30 58  1  0  0  0  0
 30 59  1  0  0  0  0
 30 60  1  0  0  0  0
M  END
>  <DRUGBANK_ID>
DB14625

>  <SECONDARY_ACCESSION_NUMBERS>
DBSALT002263

>  <COMMON_NAME>
Meprednisone acetate

>  <CAS_NUMBER>
1106-03-2

>  <UNII>
14GPV9B997

>  <SYNONYMS>
Meprednisone 21-acetate

$$$$
