
 OpenBabel10282417223D

 77 80  0  0  0  0  0  0  0  0999 V2000
    0.7430    0.4802   -0.0648 C   0  0  0  0  0  0  0  0  0  0  0  0
    0.4007   -0.0891   -1.4427 C   0  0  0  0  0  0  0  0  0  0  0  0
    1.1339   -1.2909   -1.9083 N   0  0  0  0  0  0  0  0  0  0  0  0
    0.6519   -2.6134   -1.4278 C   0  0  0  0  0  0  0  0  0  0  0  0
    0.8442   -2.9051    0.0790 C   0  0  0  0  0  0  0  0  0  0  0  0
    2.2426   -2.6897    0.4404 N   0  0  0  0  0  0  0  0  0  0  0  0
    2.9052   -1.4931   -0.1080 C   0  0  0  0  0  0  0  0  0  0  0  0
    2.5707   -1.2064   -1.5861 C   0  0  0  0  0  0  0  0  0  0  0  0
    2.9399   -3.5181    1.2920 C   0  0  0  0  0  0  0  0  0  0  0  0
    3.4823   -4.6937    0.8138 C   0  0  0  0  0  0  0  0  0  0  0  0
    4.4976   -5.3318    1.5348 C   0  0  0  0  0  0  0  0  0  0  0  0
    5.0922   -4.7004    2.6488 C   0  0  0  0  0  0  0  0  0  0  0  0
    6.1835   -5.3184    3.3063 N   0  0  0  0  0  0  0  0  0  0  0  0
    6.6615   -5.0281    4.6003 C   0  0  0  0  0  0  0  0  0  0  0  0
    5.7956   -4.6434    5.6169 C   0  0  0  0  0  0  0  0  0  0  0  0
    6.3217   -4.1026    6.7675 C   0  0  0  0  0  0  0  0  0  0  0  0
    7.6622   -4.0074    6.8934 N   0  0  0  0  0  0  0  0  0  0  0  0
    8.4247   -4.4479    5.8865 C   0  0  0  0  0  0  0  0  0  0  0  0
    7.9871   -4.9810    4.7463 N   0  0  0  0  0  0  0  0  0  0  0  0
    5.5083   -3.6367    7.8689 N   0  0  0  0  0  0  0  0  0  0  0  0
    6.3006   -3.4098    9.0937 C   0  0  0  0  0  0  0  0  0  0  0  0
    4.1162   -3.4951    7.7603 C   0  0  0  0  0  0  0  0  0  0  0  0
    3.4377   -3.7729    6.7579 O   0  0  0  0  0  0  0  0  0  0  0  0
    3.3472   -3.0776    8.8140 N   0  0  0  0  0  0  0  0  0  0  0  0
    3.6619   -2.2388    9.9005 C   0  0  0  0  0  0  0  0  0  0  0  0
    4.5250   -1.1449    9.7329 C   0  0  0  0  0  0  0  0  0  0  0  0
    4.7141   -0.5255    8.1108 Cl  0  0  0  0  0  0  0  0  0  0  0  0
    5.1971   -0.6462   10.8537 C   0  0  0  0  0  0  0  0  0  0  0  0
    6.3329    0.1208   10.9056 O   0  0  0  0  0  0  0  0  0  0  0  0
    7.0685    0.3409    9.7058 C   0  0  0  0  0  0  0  0  0  0  0  0
    4.7107   -0.9877   12.1255 C   0  0  0  0  0  0  0  0  0  0  0  0
    3.5921   -1.8136   12.2828 C   0  0  0  0  0  0  0  0  0  0  0  0
    2.9274   -1.9780   13.4708 O   0  0  0  0  0  0  0  0  0  0  0  0
    3.2294   -1.0356   14.4985 C   0  0  0  0  0  0  0  0  0  0  0  0
    3.1367   -2.5292   11.1703 C   0  0  0  0  0  0  0  0  0  0  0  0
    2.0125   -3.8384   11.3742 Cl  0  0  0  0  0  0  0  0  0  0  0  0
    4.6075   -3.4287    3.0142 C   0  0  0  0  0  0  0  0  0  0  0  0
    5.4169   -2.5030    3.7548 N   0  0  0  0  0  0  0  0  0  0  0  0
    5.3214   -1.2016    4.2028 C   0  0  0  0  0  0  0  0  0  0  0  0
    6.1810   -0.7520    4.9386 O   0  0  0  0  0  0  0  0  0  0  0  0
    4.1873   -0.3108    3.8613 C   0  0  0  0  0  0  0  0  0  0  0  0
    3.5871   -0.3647    2.6896 C   0  0  0  0  0  0  0  0  0  0  0  0
    3.3338   -3.1256    2.5684 C   0  0  0  0  0  0  0  0  0  0  0  0
    0.6039   -0.2721    0.7134 H   0  0  0  0  0  0  0  0  0  0  0  0
    0.1610    1.3428    0.2545 H   0  0  0  0  0  0  0  0  0  0  0  0
    1.7730    0.8572   -0.0830 H   0  0  0  0  0  0  0  0  0  0  0  0
   -0.6809   -0.2303   -1.5303 H   0  0  0  0  0  0  0  0  0  0  0  0
    0.6532    0.7120   -2.1519 H   0  0  0  0  0  0  0  0  0  0  0  0
   -0.3881   -2.7797   -1.7237 H   0  0  0  0  0  0  0  0  0  0  0  0
    1.2296   -3.3812   -1.9694 H   0  0  0  0  0  0  0  0  0  0  0  0
    0.1819   -2.2476    0.6506 H   0  0  0  0  0  0  0  0  0  0  0  0
    0.5330   -3.9259    0.3211 H   0  0  0  0  0  0  0  0  0  0  0  0
    2.5557   -0.6956    0.5212 H   0  0  0  0  0  0  0  0  0  0  0  0
    3.9933   -1.4394    0.0008 H   0  0  0  0  0  0  0  0  0  0  0  0
    3.1219   -1.9282   -2.2003 H   0  0  0  0  0  0  0  0  0  0  0  0
    2.9495   -0.2211   -1.8912 H   0  0  0  0  0  0  0  0  0  0  0  0
    3.1127   -5.0882   -0.1274 H   0  0  0  0  0  0  0  0  0  0  0  0
    4.8516   -6.2883    1.1656 H   0  0  0  0  0  0  0  0  0  0  0  0
    6.2952   -6.3069    3.1071 H   0  0  0  0  0  0  0  0  0  0  0  0
    4.7370   -4.6907    5.4275 H   0  0  0  0  0  0  0  0  0  0  0  0
    9.4980   -4.3534    6.0042 H   0  0  0  0  0  0  0  0  0  0  0  0
    6.3368   -2.3608    9.3256 H   0  0  0  0  0  0  0  0  0  0  0  0
    5.8768   -3.9615    9.9332 H   0  0  0  0  0  0  0  0  0  0  0  0
    7.3671   -3.6297    9.0155 H   0  0  0  0  0  0  0  0  0  0  0  0
    2.3526   -3.1673    8.6232 H   0  0  0  0  0  0  0  0  0  0  0  0
    7.4644   -0.5890    9.2821 H   0  0  0  0  0  0  0  0  0  0  0  0
    6.4689    0.9057    8.9959 H   0  0  0  0  0  0  0  0  0  0  0  0
    7.9224    0.9852    9.9229 H   0  0  0  0  0  0  0  0  0  0  0  0
    5.2217   -0.5788   12.9935 H   0  0  0  0  0  0  0  0  0  0  0  0
    4.1981   -1.2822   14.9415 H   0  0  0  0  0  0  0  0  0  0  0  0
    3.2160    0.0007   14.1370 H   0  0  0  0  0  0  0  0  0  0  0  0
    2.4687   -1.1162   15.2806 H   0  0  0  0  0  0  0  0  0  0  0  0
    6.3429   -2.8423    3.9925 H   0  0  0  0  0  0  0  0  0  0  0  0
    3.8843    0.4355    4.5798 H   0  0  0  0  0  0  0  0  0  0  0  0
    2.5883    0.0290    2.5325 H   0  0  0  0  0  0  0  0  0  0  0  0
    4.0262   -1.0213    1.9537 H   0  0  0  0  0  0  0  0  0  0  0  0
    2.7223   -2.4479    3.1454 H   0  0  0  0  0  0  0  0  0  0  0  0
  1  2  1  0  0  0  0
  1 44  1  0  0  0  0
  1 45  1  0  0  0  0
  1 46  1  0  0  0  0
  2  3  1  0  0  0  0
  2 47  1  0  0  0  0
  2 48  1  0  0  0  0
  3  4  1  0  0  0  0
  3  8  1  0  0  0  0
  4  5  1  0  0  0  0
  4 49  1  0  0  0  0
  4 50  1  0  0  0  0
  5  6  1  0  0  0  0
  5 51  1  0  0  0  0
  5 52  1  0  0  0  0
  6  7  1  0  0  0  0
  6  9  1  0  0  0  0
  7  8  1  0  0  0  0
  7 53  1  0  0  0  0
  7 54  1  0  0  0  0
  8 55  1  0  0  0  0
  8 56  1  0  0  0  0
  9 10  2  0  0  0  0
  9 43  1  0  0  0  0
 10 11  1  0  0  0  0
 10 57  1  0  0  0  0
 11 12  2  0  0  0  0
 11 58  1  0  0  0  0
 12 13  1  0  0  0  0
 12 37  1  0  0  0  0
 13 14  1  0  0  0  0
 13 59  1  0  0  0  0
 14 15  2  0  0  0  0
 14 19  1  0  0  0  0
 15 16  1  0  0  0  0
 15 60  1  0  0  0  0
 16 17  2  0  0  0  0
 16 20  1  0  0  0  0
 17 18  1  0  0  0  0
 18 19  2  0  0  0  0
 18 61  1  0  0  0  0
 20 21  1  0  0  0  0
 20 22  1  0  0  0  0
 21 62  1  0  0  0  0
 21 63  1  0  0  0  0
 21 64  1  0  0  0  0
 22 23  2  0  0  0  0
 22 24  1  0  0  0  0
 24 25  1  0  0  0  0
 24 65  1  0  0  0  0
 25 26  2  0  0  0  0
 25 35  1  0  0  0  0
 26 27  1  0  0  0  0
 26 28  1  0  0  0  0
 28 29  1  0  0  0  0
 28 31  2  0  0  0  0
 29 30  1  0  0  0  0
 30 66  1  0  0  0  0
 30 67  1  0  0  0  0
 30 68  1  0  0  0  0
 31 32  1  0  0  0  0
 31 69  1  0  0  0  0
 32 33  1  0  0  0  0
 32 35  2  0  0  0  0
 33 34  1  0  0  0  0
 34 70  1  0  0  0  0
 34 71  1  0  0  0  0
 34 72  1  0  0  0  0
 35 36  1  0  0  0  0
 37 38  1  0  0  0  0
 37 43  2  0  0  0  0
 38 39  1  0  0  0  0
 38 73  1  0  0  0  0
 39 40  2  0  0  0  0
 39 41  1  0  0  0  0
 41 42  2  0  0  0  0
 41 74  1  0  0  0  0
 42 75  1  0  0  0  0
 42 76  1  0  0  0  0
 43 77  1  0  0  0  0
M  END
>  <DRUGBANK_ID>
DB15169

>  <COMMON_NAME>
H3B-6527

>  <CAS_NUMBER>
1702259-66-2

>  <UNII>
4HTE364XIK

>  <SYNONYMS>
(N-{2-[(6-{[(2,6-Dichloro-3,5-dimethoxyphenyl)carbamoyl](methyl)amino}pyrimidin-4- yl)amino]-5-(4-ethylpiperazin-1-yl)phenyl}prop-2-enamide); 2-PROPENAMIDE, N-(2-((6-((((2,6-DICHLORO-3,5-DIMETHOXYPHENYL)AMINO)CARBONYL)METHYLAMINO)-4-PYRIMIDINYL)AMINO)-5-(4-ETHYL-1-PIPERAZINYL)PHENYL)-; H3B 6527; H3B6527; N-(2-((6-(((2,6-DICHLORO-3,5 DIMETHOXYPHENYL) CARBAMOYL) (METHYL)AMINO)PYRIMIDIN-4-YL)AMINO)-5-(4-ETHYLPIPERAZIN-1-YL)PHENYL)PROP-2-ENAMIDE

$$$$
