
 OpenBabel10282417233D

 91 96  0  0  0  0  0  0  0  0999 V2000
    2.6153   -0.1573   -0.1494 C   0  0  0  0  0  0  0  0  0  0  0  0
    1.2619   -0.2475   -0.7475 N   0  0  0  0  0  0  0  0  0  0  0  0
    0.5421   -1.3900   -0.1246 C   0  0  0  0  0  0  0  0  0  0  0  0
   -0.9785   -1.3648   -0.3832 C   0  0  0  0  0  0  0  0  0  0  0  0
   -1.6567   -0.1422    0.0319 N   0  0  0  0  0  0  0  0  0  0  0  0
   -1.9262   -0.1092    1.4673 C   0  0  0  0  0  0  0  0  0  0  0  0
   -0.7672    0.0645    2.5121 C   0  0  0  0  0  0  0  0  0  0  0  0
   -0.1422    1.4476    2.5186 C   0  0  0  0  0  0  0  0  0  0  0  0
   -0.8996    2.5944    2.9017 N   0  0  0  0  0  0  0  0  0  0  0  0
   -2.2031    2.5912    3.2937 C   0  0  0  0  0  0  0  0  0  0  0  0
   -3.0802    1.4407    3.6769 C   0  0  0  0  0  0  0  0  0  0  0  0
   -2.5879    3.9095    3.2905 C   0  0  0  0  0  0  0  0  0  0  0  0
   -3.9056    4.3255    3.7790 C   0  0  0  0  0  0  0  0  0  0  0  0
   -1.5206    4.7191    2.8144 C   0  0  0  0  0  0  0  0  0  0  0  0
   -1.3314    6.1025    2.6552 C   0  0  0  0  0  0  0  0  0  0  0  0
   -0.1274    6.5923    2.1356 C   0  0  0  0  0  0  0  0  0  0  0  0
   -0.0181    7.9760    2.1356 O   0  0  0  0  0  0  0  0  0  0  0  0
    1.1211    8.5232    1.6087 C   0  0  0  0  0  0  0  0  0  0  0  0
    1.4673    8.2809    0.2978 C   0  0  0  0  0  0  0  0  0  0  0  0
    2.7549    8.6148   -0.0970 C   0  0  0  0  0  0  0  0  0  0  0  0
    3.6312    9.3470    0.6917 C   0  0  0  0  0  0  0  0  0  0  0  0
    3.1765    9.7783    1.9262 C   0  0  0  0  0  0  0  0  0  0  0  0
    1.9458    9.3143    2.4108 C   0  0  0  0  0  0  0  0  0  0  0  0
    3.1572    8.1453   -1.3945 C   0  0  0  0  0  0  0  0  0  0  0  0
    4.1194    7.3593   -1.4732 O   0  0  0  0  0  0  0  0  0  0  0  0
    2.3395    8.6011   -2.4365 N   0  0  0  0  0  0  0  0  0  0  0  0
    2.4936   10.0329   -2.6972 C   0  0  0  0  0  0  0  0  0  0  0  0
    1.8166   10.4676   -4.0067 C   0  0  0  0  0  0  0  0  0  0  0  0
    2.1653    9.6985   -5.2107 N   0  0  0  0  0  0  0  0  0  0  0  0
    3.5360    9.9332   -5.7785 C   0  0  0  0  0  0  0  0  0  0  0  0
    4.8902    9.4912   -5.0831 C   0  0  0  0  0  0  0  0  0  0  0  0
    5.2609    7.9897   -5.0539 C   0  0  0  0  0  0  0  0  0  0  0  0
    6.3606    7.4669   -4.3858 C   0  0  0  0  0  0  0  0  0  0  0  0
    6.4838    6.0607   -4.2372 C   0  0  0  0  0  0  0  0  0  0  0  0
    5.4011    5.2123   -4.4583 C   0  0  0  0  0  0  0  0  0  0  0  0
    5.4607    3.8935   -4.2366 F   0  0  0  0  0  0  0  0  0  0  0  0
    4.2613    5.7349   -4.9764 C   0  0  0  0  0  0  0  0  0  0  0  0
    4.3518    7.0225   -5.5019 C   0  0  0  0  0  0  0  0  0  0  0  0
    1.7954    8.3047   -4.9151 C   0  0  0  0  0  0  0  0  0  0  0  0
    2.4998    7.8089   -3.6176 C   0  0  0  0  0  0  0  0  0  0  0  0
    0.8579    5.6958    1.7055 C   0  0  0  0  0  0  0  0  0  0  0  0
    0.6825    4.3149    1.8193 C   0  0  0  0  0  0  0  0  0  0  0  0
   -0.4890    3.8618    2.4682 C   0  0  0  0  0  0  0  0  0  0  0  0
   -0.9749    1.0534   -0.4837 C   0  0  0  0  0  0  0  0  0  0  0  0
    0.5763    0.9850   -0.3494 C   0  0  0  0  0  0  0  0  0  0  0  0
    3.1037    0.7682   -0.4771 H   0  0  0  0  0  0  0  0  0  0  0  0
    2.6048   -0.1244    0.9558 H   0  0  0  0  0  0  0  0  0  0  0  0
    3.2154   -1.0103   -0.4530 H   0  0  0  0  0  0  0  0  0  0  0  0
    0.9476   -2.3388   -0.4730 H   0  0  0  0  0  0  0  0  0  0  0  0
    0.7361   -1.4144    0.9472 H   0  0  0  0  0  0  0  0  0  0  0  0
   -1.1506   -1.4838   -1.4568 H   0  0  0  0  0  0  0  0  0  0  0  0
   -1.4668   -2.2189    0.1021 H   0  0  0  0  0  0  0  0  0  0  0  0
   -2.6545    0.7002    1.5236 H   0  0  0  0  0  0  0  0  0  0  0  0
   -2.5096   -0.9976    1.7511 H   0  0  0  0  0  0  0  0  0  0  0  0
   -1.0435   -0.1540    3.5467 H   0  0  0  0  0  0  0  0  0  0  0  0
   -0.0310   -0.7175    2.3837 H   0  0  0  0  0  0  0  0  0  0  0  0
    0.8760    1.4746    2.9204 H   0  0  0  0  0  0  0  0  0  0  0  0
   -0.0944    1.8015    1.5213 H   0  0  0  0  0  0  0  0  0  0  0  0
   -3.3485    1.5211    4.7240 H   0  0  0  0  0  0  0  0  0  0  0  0
   -3.9722    1.4331    3.0361 H   0  0  0  0  0  0  0  0  0  0  0  0
   -2.7160    0.4298    3.6122 H   0  0  0  0  0  0  0  0  0  0  0  0
   -3.7501    4.8755    4.7053 H   0  0  0  0  0  0  0  0  0  0  0  0
   -4.4338    4.9081    3.0276 H   0  0  0  0  0  0  0  0  0  0  0  0
   -4.5197    3.4497    4.0140 H   0  0  0  0  0  0  0  0  0  0  0  0
   -2.1079    6.7791    2.9886 H   0  0  0  0  0  0  0  0  0  0  0  0
    0.8108    7.7273   -0.3697 H   0  0  0  0  0  0  0  0  0  0  0  0
    4.6250    9.5895    0.3248 H   0  0  0  0  0  0  0  0  0  0  0  0
    3.7899   10.4481    2.5196 H   0  0  0  0  0  0  0  0  0  0  0  0
    1.6449    9.5451    3.4267 H   0  0  0  0  0  0  0  0  0  0  0  0
    2.0973   10.5982   -1.8515 H   0  0  0  0  0  0  0  0  0  0  0  0
    3.5644   10.2510   -2.7104 H   0  0  0  0  0  0  0  0  0  0  0  0
    0.7383   10.3110   -3.8602 H   0  0  0  0  0  0  0  0  0  0  0  0
    1.9580   11.5324   -4.1881 H   0  0  0  0  0  0  0  0  0  0  0  0
    3.5671    9.5241   -6.7999 H   0  0  0  0  0  0  0  0  0  0  0  0
    3.5991   11.0209   -5.9474 H   0  0  0  0  0  0  0  0  0  0  0  0
    5.7151   10.0471   -5.5479 H   0  0  0  0  0  0  0  0  0  0  0  0
    4.8706    9.8903   -4.0649 H   0  0  0  0  0  0  0  0  0  0  0  0
    7.1161    8.1225   -3.9636 H   0  0  0  0  0  0  0  0  0  0  0  0
    7.4130    5.6162   -3.9129 H   0  0  0  0  0  0  0  0  0  0  0  0
    3.3165    5.1932   -4.9549 H   0  0  0  0  0  0  0  0  0  0  0  0
    3.5250    7.3346   -6.0873 H   0  0  0  0  0  0  0  0  0  0  0  0
    0.7202    8.1328   -4.7949 H   0  0  0  0  0  0  0  0  0  0  0  0
    1.9113    7.7690   -5.8605 H   0  0  0  0  0  0  0  0  0  0  0  0
    3.5597    7.9406   -3.6854 H   0  0  0  0  0  0  0  0  0  0  0  0
    2.3319    6.7532   -3.3868 H   0  0  0  0  0  0  0  0  0  0  0  0
    1.8085    6.0326    1.2985 H   0  0  0  0  0  0  0  0  0  0  0  0
    1.4675    3.6538    1.4542 H   0  0  0  0  0  0  0  0  0  0  0  0
   -1.2273    1.2025   -1.5379 H   0  0  0  0  0  0  0  0  0  0  0  0
   -1.4045    1.9485    0.0009 H   0  0  0  0  0  0  0  0  0  0  0  0
    0.8854    0.9246    0.6758 H   0  0  0  0  0  0  0  0  0  0  0  0
    1.0233    1.9346   -0.6670 H   0  0  0  0  0  0  0  0  0  0  0  0
  1  2  1  0  0  0  0
  1 46  1  0  0  0  0
  1 47  1  0  0  0  0
  1 48  1  0  0  0  0
  2  3  1  0  0  0  0
  2 45  1  0  0  0  0
  3  4  1  0  0  0  0
  3 49  1  0  0  0  0
  3 50  1  0  0  0  0
  4  5  1  0  0  0  0
  4 51  1  0  0  0  0
  4 52  1  0  0  0  0
  5  6  1  0  0  0  0
  5 44  1  0  0  0  0
  6  7  1  0  0  0  0
  6 53  1  0  0  0  0
  6 54  1  0  0  0  0
  7  8  1  0  0  0  0
  7 55  1  0  0  0  0
  7 56  1  0  0  0  0
  8  9  1  0  0  0  0
  8 57  1  0  0  0  0
  8 58  1  0  0  0  0
  9 10  1  0  0  0  0
  9 43  1  0  0  0  0
 10 11  1  0  0  0  0
 10 12  2  0  0  0  0
 11 59  1  0  0  0  0
 11 60  1  0  0  0  0
 11 61  1  0  0  0  0
 12 13  1  0  0  0  0
 12 14  1  0  0  0  0
 13 62  1  0  0  0  0
 13 63  1  0  0  0  0
 13 64  1  0  0  0  0
 14 15  2  0  0  0  0
 14 43  1  0  0  0  0
 15 16  1  0  0  0  0
 15 65  1  0  0  0  0
 16 17  1  0  0  0  0
 16 41  2  0  0  0  0
 17 18  1  0  0  0  0
 18 19  2  0  0  0  0
 18 23  1  0  0  0  0
 19 20  1  0  0  0  0
 19 66  1  0  0  0  0
 20 21  2  0  0  0  0
 20 24  1  0  0  0  0
 21 22  1  0  0  0  0
 21 67  1  0  0  0  0
 22 23  2  0  0  0  0
 22 68  1  0  0  0  0
 23 69  1  0  0  0  0
 24 25  2  0  0  0  0
 24 26  1  0  0  0  0
 26 27  1  0  0  0  0
 26 40  1  0  0  0  0
 27 28  1  0  0  0  0
 27 70  1  0  0  0  0
 27 71  1  0  0  0  0
 28 29  1  0  0  0  0
 28 72  1  0  0  0  0
 28 73  1  0  0  0  0
 29 30  1  0  0  0  0
 29 39  1  0  0  0  0
 30 31  1  0  0  0  0
 30 74  1  0  0  0  0
 30 75  1  0  0  0  0
 31 32  1  0  0  0  0
 31 76  1  0  0  0  0
 31 77  1  0  0  0  0
 32 33  2  0  0  0  0
 32 38  1  0  0  0  0
 33 34  1  0  0  0  0
 33 78  1  0  0  0  0
 34 35  2  0  0  0  0
 34 79  1  0  0  0  0
 35 36  1  0  0  0  0
 35 37  1  0  0  0  0
 37 38  2  0  0  0  0
 37 80  1  0  0  0  0
 38 81  1  0  0  0  0
 39 40  1  0  0  0  0
 39 82  1  0  0  0  0
 39 83  1  0  0  0  0
 40 84  1  0  0  0  0
 40 85  1  0  0  0  0
 41 42  1  0  0  0  0
 41 86  1  0  0  0  0
 42 43  2  0  0  0  0
 42 87  1  0  0  0  0
 44 45  1  0  0  0  0
 44 88  1  0  0  0  0
 44 89  1  0  0  0  0
 45 90  1  0  0  0  0
 45 91  1  0  0  0  0
M  END
>  <DRUGBANK_ID>
DB17198

>  <COMMON_NAME>
ATM-3507

>  <CAS_NUMBER>
1861449-70-8

>  <UNII>
MC4FSR36T2

>  <SYNONYMS>
(3-((2,3-dimethyl-1-(3-(4-methylpiperazin-1-yl)propyl)-1h-indol-5-yl)oxy)phenyl)(4-(4-fluorophenethyl)piperazin-1-yl)methanone; Anisina; Methanone, (3-((2,3-dimethyl-1-(3-(4-methyl-1-piperazinyl)propyl)-1h-indol-5-yl)oxy)phenyl)(4-(2-(4-fluorophenyl)ethyl)-1-piperazinyl)-

$$$$
