
 OpenBabel10282417143D

 72 74  0  0  0  0  0  0  0  0999 V2000
   -2.3304    2.3109    0.5971 C   0  0  0  0  0  0  0  0  0  0  0  0
   -1.0510    1.8197    0.4939 C   0  0  0  0  0  0  0  0  0  0  0  0
   -0.2229    0.7853    0.5035 C   0  0  0  0  0  0  0  0  0  0  0  0
    1.6561   -0.0040    0.4449 C   0  0  0  0  0  0  0  0  0  0  0  0
    1.9288   -1.2354    0.3282 O   0  0  0  0  0  0  0  0  0  0  0  0
    2.7604    0.6741    0.9007 O   0  0  0  0  0  0  0  0  0  0  0  0
   -3.2966    1.6166    0.8080 O   0  0  0  0  0  0  0  0  0  0  0  0
   -2.0981    3.6356    0.2353 O   0  0  0  0  0  0  0  0  0  0  0  0
   -0.7595    4.3967    0.1429 C   0  0  0  0  0  0  0  0  0  0  0  0
    0.6560    3.9617    0.0961 C   0  0  0  0  0  0  0  0  0  0  0  0
    1.5972    4.9636   -0.0172 C   0  0  0  0  0  0  0  0  0  0  0  0
    1.1861    6.2769   -0.0414 C   0  0  0  0  0  0  0  0  0  0  0  0
   -0.1580    6.6617    0.0411 C   0  0  0  0  0  0  0  0  0  0  0  0
   -1.1237    5.6923    0.1741 C   0  0  0  0  0  0  0  0  0  0  0  0
   -0.5698    8.1110   -0.0013 C   0  0  0  0  0  0  0  0  0  0  0  0
   -1.4679    8.3467   -1.2542 C   0  0  0  0  0  0  0  0  0  0  0  0
   -2.7888    7.5556   -1.2881 C   0  0  0  0  0  0  0  0  0  0  0  0
   -3.6823    7.8331   -0.0731 C   0  0  0  0  0  0  0  0  0  0  0  0
   -4.0015    9.3228    0.0102 C   0  0  0  0  0  0  0  0  0  0  0  0
   -4.8416    9.6664   -1.2026 C   0  0  0  0  0  0  0  0  0  0  0  0
   -6.0938    8.8091   -1.1868 C   0  0  0  0  0  0  0  0  0  0  0  0
   -1.1910    8.4863    1.3515 C   0  0  0  0  0  0  0  0  0  0  0  0
    0.6624    9.0096   -0.1106 C   0  0  0  0  0  0  0  0  0  0  0  0
    2.9419    4.7907   -0.0848 O   0  0  0  0  0  0  0  0  0  0  0  0
    1.2079    2.4529    0.1790 C   0  0  2  0  0  0  0  0  0  0  0  0
    0.4748    1.5614   -1.4032 C   0  0  1  0  0  0  0  0  0  0  0  0
    1.0567    0.0780   -1.7241 C   0  0  0  0  0  0  0  0  0  0  0  0
   -0.0713   -0.8847   -0.3772 C   0  0  1  0  0  0  0  0  0  0  0  0
    0.3563   -0.4344    1.7465 C   0  0  0  0  0  0  0  0  0  0  0  0
    0.8431    1.5546    1.9198 C   0  0  0  0  0  0  0  0  0  0  0  0
    0.6766   -1.0494    2.7906 O   0  0  0  0  0  0  0  0  0  0  0  0
   -1.0644    0.4372   -1.4748 C   0  0  0  0  0  0  0  0  0  0  0  0
   -0.4944   -1.8664   -0.6426 H   0  0  0  0  0  0  0  0  0  0  0  0
    0.8617   -0.4805   -3.0988 C   0  0  0  0  0  0  0  0  0  0  0  0
    2.5794    0.2720   -1.7045 C   0  0  0  0  0  0  0  0  0  0  0  0
    0.3955    2.3984   -2.1573 H   0  0  0  0  0  0  0  0  0  0  0  0
   -0.5958    2.5222   -0.0477 H   0  0  0  0  0  0  0  0  0  0  0  0
   -1.0907    0.0972    0.7763 H   0  0  0  0  0  0  0  0  0  0  0  0
    3.5475    0.1848    0.5344 H   0  0  0  0  0  0  0  0  0  0  0  0
    1.9779    7.0116   -0.0911 H   0  0  0  0  0  0  0  0  0  0  0  0
   -2.1815    5.8585    0.3075 H   0  0  0  0  0  0  0  0  0  0  0  0
   -1.6805    9.4179   -1.3464 H   0  0  0  0  0  0  0  0  0  0  0  0
   -0.9089    8.0995   -2.1694 H   0  0  0  0  0  0  0  0  0  0  0  0
   -3.3303    7.7583   -2.2133 H   0  0  0  0  0  0  0  0  0  0  0  0
   -2.6040    6.4917   -1.4272 H   0  0  0  0  0  0  0  0  0  0  0  0
   -4.5608    7.1923   -0.0802 H   0  0  0  0  0  0  0  0  0  0  0  0
   -3.3240    7.4658    0.8691 H   0  0  0  0  0  0  0  0  0  0  0  0
   -4.5150    9.5551    0.9482 H   0  0  0  0  0  0  0  0  0  0  0  0
   -3.1108    9.9616    0.0096 H   0  0  0  0  0  0  0  0  0  0  0  0
   -5.0799   10.7292   -1.2034 H   0  0  0  0  0  0  0  0  0  0  0  0
   -4.2750    9.4860   -2.1233 H   0  0  0  0  0  0  0  0  0  0  0  0
   -6.6475    8.9951   -0.2622 H   0  0  0  0  0  0  0  0  0  0  0  0
   -6.7064    9.0106   -2.0580 H   0  0  0  0  0  0  0  0  0  0  0  0
   -5.8793    7.7366   -1.2297 H   0  0  0  0  0  0  0  0  0  0  0  0
   -0.4964    8.3749    2.1825 H   0  0  0  0  0  0  0  0  0  0  0  0
   -1.5839    9.5046    1.3310 H   0  0  0  0  0  0  0  0  0  0  0  0
   -1.9498    7.8066    1.6994 H   0  0  0  0  0  0  0  0  0  0  0  0
    1.3061    8.8455    0.7653 H   0  0  0  0  0  0  0  0  0  0  0  0
    1.2368    8.7871   -1.0160 H   0  0  0  0  0  0  0  0  0  0  0  0
    0.3842   10.0619   -0.1223 H   0  0  0  0  0  0  0  0  0  0  0  0
    3.1827    3.8588   -0.0608 H   0  0  0  0  0  0  0  0  0  0  0  0
    2.2831    2.4630    0.0349 H   0  0  0  0  0  0  0  0  0  0  0  0
    1.5104    1.9732    2.6725 H   0  0  0  0  0  0  0  0  0  0  0  0
   -0.0900    2.0784    2.3060 H   0  0  0  0  0  0  0  0  0  0  0  0
   -2.0120    0.8032   -1.0539 H   0  0  0  0  0  0  0  0  0  0  0  0
   -1.6287    0.3236   -2.4247 H   0  0  0  0  0  0  0  0  0  0  0  0
    1.4785    0.0961   -3.7942 H   0  0  0  0  0  0  0  0  0  0  0  0
    1.2116   -1.5051   -2.9969 H   0  0  0  0  0  0  0  0  0  0  0  0
   -0.1616   -0.4613   -3.4510 H   0  0  0  0  0  0  0  0  0  0  0  0
    2.7996    1.1062   -1.0662 H   0  0  0  0  0  0  0  0  0  0  0  0
    3.0148   -0.6774   -1.3989 H   0  0  0  0  0  0  0  0  0  0  0  0
    3.1173    0.6315   -2.5651 H   0  0  0  0  0  0  0  0  0  0  0  0
  1  2  1  0  0  0  0
  1  7  2  0  0  0  0
  1  8  1  0  0  0  0
  2  3  2  0  0  0  0
  2 37  1  0  0  0  0
  3  4  1  0  0  0  0
  3 38  1  0  0  0  0
  4  5  2  0  0  0  0
  4  6  1  0  0  0  0
  6 39  1  0  0  0  0
  8  9  1  0  0  0  0
  9 10  1  0  0  0  0
  9 14  2  0  0  0  0
 10 11  2  0  0  0  0
 11 12  1  0  0  0  0
 11 24  1  0  0  0  0
 12 13  2  0  0  0  0
 12 40  1  0  0  0  0
 13 14  1  0  0  0  0
 13 15  1  0  0  0  0
 14 41  1  0  0  0  0
 15 16  1  0  0  0  0
 15 22  1  0  0  0  0
 15 23  1  0  0  0  0
 16 17  1  0  0  0  0
 16 42  1  0  0  0  0
 16 43  1  0  0  0  0
 17 18  1  0  0  0  0
 17 44  1  0  0  0  0
 17 45  1  0  0  0  0
 18 19  1  0  0  0  0
 18 46  1  0  0  0  0
 18 47  1  0  0  0  0
 19 20  1  0  0  0  0
 19 48  1  0  0  0  0
 19 49  1  0  0  0  0
 20 21  1  0  0  0  0
 20 50  1  0  0  0  0
 20 51  1  0  0  0  0
 21 52  1  0  0  0  0
 21 53  1  0  0  0  0
 21 54  1  0  0  0  0
 22 55  1  0  0  0  0
 22 56  1  0  0  0  0
 22 57  1  0  0  0  0
 23 58  1  0  0  0  0
 23 59  1  0  0  0  0
 23 60  1  0  0  0  0
 24 61  1  0  0  0  0
 25 30  1  0  0  0  0
 25 62  1  6  0  0  0
 25 10  1  0  0  0  0
 26 25  1  0  0  0  0
 26 27  1  0  0  0  0
 26 32  1  0  0  0  0
 26 36  1  6  0  0  0
 27 34  1  0  0  0  0
 27 35  1  0  0  0  0
 28 27  1  0  0  0  0
 28 32  1  0  0  0  0
 28 33  1  6  0  0  0
 29 28  1  0  0  0  0
 29 31  2  0  0  0  0
 30 29  1  0  0  0  0
 30 63  1  0  0  0  0
 30 64  1  0  0  0  0
 32 65  1  0  0  0  0
 32 66  1  0  0  0  0
 34 67  1  0  0  0  0
 34 68  1  0  0  0  0
 34 69  1  0  0  0  0
 35 70  1  0  0  0  0
 35 71  1  0  0  0  0
 35 72  1  0  0  0  0
M  END
>  <DRUGBANK_ID>
DB05048

>  <COMMON_NAME>
Cannabinor

>  <CAS_NUMBER>
573981-31-4

>  <UNII>
O8E148Q90M

$$$$
