4825
 OpenBabel10282417143D

 52 54  0  0  1  0  0  0  0  0999 V2000
    1.0382    0.0342   -0.1184 N   0  0  0  0  0  0  0  0  0  0  0  0
    0.2049   -1.1250    3.0614 C   0  0  0  0  0  0  0  0  0  0  0  0
    0.7383   -1.8727    1.7570 C   0  0  0  0  0  0  0  0  0  0  0  0
    0.4158   -1.2527    0.3495 C   0  0  0  0  0  0  0  0  0  0  0  0
    0.7450    1.1933    0.7465 C   0  0  3  0  0  0  0  0  0  0  0  0
   -1.2707   -0.9714    3.0381 C   0  0  0  0  0  0  0  0  0  0  0  0
    0.8957   -1.3645    4.3870 C   0  0  0  0  0  0  0  0  0  0  0  0
    1.5562    1.0908    2.0278 C   0  0  0  0  0  0  0  0  0  0  0  0
    1.0549    2.5962    0.2859 C   0  0  0  0  0  0  0  0  0  0  0  0
    2.9947    0.9577    2.3010 C   0  0  0  0  0  0  0  0  0  0  0  0
   -2.0061   -2.1302    2.9897 C   0  0  0  0  0  0  0  0  0  0  0  0
    1.2835   -0.2766    5.2265 C   0  0  0  0  0  0  0  0  0  0  0  0
   -1.8787    0.3118    3.0306 C   0  0  0  0  0  0  0  0  0  0  0  0
    1.0701   -2.6581    4.8235 C   0  0  0  0  0  0  0  0  0  0  0  0
    3.6789    2.1350    2.4954 C   0  0  0  0  0  0  0  0  0  0  0  0
    3.6452   -0.2842    2.5363 C   0  0  0  0  0  0  0  0  0  0  0  0
   -3.3687   -2.0264    3.0249 C   0  0  0  0  0  0  0  0  0  0  0  0
    1.6691   -0.4947    6.5392 C   0  0  0  0  0  0  0  0  0  0  0  0
   -3.2457    0.4091    3.0920 C   0  0  0  0  0  0  0  0  0  0  0  0
    1.3732   -2.8684    6.1576 C   0  0  0  0  0  0  0  0  0  0  0  0
   -3.9844   -0.7701    3.0977 C   0  0  0  0  0  0  0  0  0  0  0  0
    1.6590   -1.7976    7.0138 C   0  0  0  0  0  0  0  0  0  0  0  0
    5.0259    2.0517    2.6801 C   0  0  0  0  0  0  0  0  0  0  0  0
    4.9838   -0.3729    2.7443 C   0  0  0  0  0  0  0  0  0  0  0  0
    5.6948    0.8201    2.7567 C   0  0  0  0  0  0  0  0  0  0  0  0
    2.0532   -0.0891   -0.1301 H   0  0  0  0  0  0  0  0  0  0  0  0
    0.3144   -0.0729    3.1261 H   0  0  0  0  0  0  0  0  0  0  0  0
    0.3852   -2.9106    1.7791 H   0  0  0  0  0  0  0  0  0  0  0  0
    1.8124   -2.0402    1.7472 H   0  0  0  0  0  0  0  0  0  0  0  0
   -0.6690   -1.2191    0.2111 H   0  0  0  0  0  0  0  0  0  0  0  0
    0.7732   -2.0005   -0.3750 H   0  0  0  0  0  0  0  0  0  0  0  0
   -0.3375    1.1543    0.9354 H   0  0  0  0  0  0  0  0  0  0  0  0
    1.0483    1.6299    2.8395 H   0  0  0  0  0  0  0  0  0  0  0  0
    1.5019    0.0545    2.0905 H   0  0  0  0  0  0  0  0  0  0  0  0
    0.5665    2.8617   -0.6463 H   0  0  0  0  0  0  0  0  0  0  0  0
    0.7031    3.2887    1.0697 H   0  0  0  0  0  0  0  0  0  0  0  0
    2.1343    2.7333    0.1979 H   0  0  0  0  0  0  0  0  0  0  0  0
   -1.4934   -3.0846    2.9391 H   0  0  0  0  0  0  0  0  0  0  0  0
    1.2591    0.7597    4.8865 H   0  0  0  0  0  0  0  0  0  0  0  0
   -1.2981    1.2377    2.9910 H   0  0  0  0  0  0  0  0  0  0  0  0
    0.8916   -3.4834    4.1450 H   0  0  0  0  0  0  0  0  0  0  0  0
    3.1176    3.0627    2.4857 H   0  0  0  0  0  0  0  0  0  0  0  0
    3.1258   -1.2366    2.6084 H   0  0  0  0  0  0  0  0  0  0  0  0
   -3.9370   -2.9451    3.0279 H   0  0  0  0  0  0  0  0  0  0  0  0
    1.9096    0.3444    7.1893 H   0  0  0  0  0  0  0  0  0  0  0  0
   -3.7170    1.3851    3.1605 H   0  0  0  0  0  0  0  0  0  0  0  0
    1.3286   -3.8811    6.5370 H   0  0  0  0  0  0  0  0  0  0  0  0
   -5.0604   -0.7166    3.1687 H   0  0  0  0  0  0  0  0  0  0  0  0
    1.8660   -1.9871    8.0605 H   0  0  0  0  0  0  0  0  0  0  0  0
    5.5731    2.9856    2.7524 H   0  0  0  0  0  0  0  0  0  0  0  0
    5.4501   -1.3433    2.8895 H   0  0  0  0  0  0  0  0  0  0  0  0
    6.7631    0.7812    2.8478 H   0  0  0  0  0  0  0  0  0  0  0  0
  1  4  1  0  0  0  0
  1  5  1  0  0  0  0
  1 26  1  0  0  0  0
  2  3  1  0  0  0  0
  2  6  1  0  0  0  0
  2  7  1  0  0  0  0
  2 27  1  0  0  0  0
  3  4  1  0  0  0  0
  3 28  1  0  0  0  0
  3 29  1  0  0  0  0
  4 30  1  0  0  0  0
  4 31  1  0  0  0  0
  5  8  1  0  0  0  0
  5  9  1  0  0  0  0
  5 32  1  0  0  0  0
  6 11  2  0  0  0  0
  6 13  1  0  0  0  0
  7 12  2  0  0  0  0
  7 14  1  0  0  0  0
  8 10  1  0  0  0  0
  8 33  1  0  0  0  0
  8 34  1  0  0  0  0
  9 35  1  0  0  0  0
  9 36  1  0  0  0  0
  9 37  1  0  0  0  0
 10 15  2  0  0  0  0
 10 16  1  0  0  0  0
 11 17  1  0  0  0  0
 11 38  1  0  0  0  0
 12 18  1  0  0  0  0
 12 39  1  0  0  0  0
 13 19  2  0  0  0  0
 13 40  1  0  0  0  0
 14 20  2  0  0  0  0
 14 41  1  0  0  0  0
 15 23  1  0  0  0  0
 15 42  1  0  0  0  0
 16 24  2  0  0  0  0
 16 43  1  0  0  0  0
 17 21  2  0  0  0  0
 17 44  1  0  0  0  0
 18 22  2  0  0  0  0
 18 45  1  0  0  0  0
 19 21  1  0  0  0  0
 19 46  1  0  0  0  0
 20 22  1  0  0  0  0
 20 47  1  0  0  0  0
 21 48  1  0  0  0  0
 22 49  1  0  0  0  0
 23 25  2  0  0  0  0
 23 50  1  0  0  0  0
 24 25  1  0  0  0  0
 24 51  1  0  0  0  0
 25 52  1  0  0  0  0
M  END
>  <DRUGBANK_ID>
DB04825

>  <COMMON_NAME>
Prenylamine

>  <CAS_NUMBER>
390-64-7

>  <UNII>
K2OH82Z000

>  <SYNONYMS>
1-Phenyl-2-(1',1'-diphenylpropyl-3'-amino)propane; DL-prenylamine; N-(1-Methyl-2-phenylethyl)-gamma-phenylbenzenepropanamine; N-(3,3-Diphenylpropyl)-alpha-methylphenaethylamin; N-(3,3-Diphenylpropyl)-alpha-methylphenethylamine; Prenilamina; Prenylamine; Prenylaminum

$$$$
