LY2
 OpenBabel10282417123D

 40 43  0  0  0  0  0  0  0  0999 V2000
   -1.4781    0.0431   -0.2261 N   0  0  0  0  0  0  0  0  0  0  0  0
   -0.7472    1.2462    0.2025 C   0  0  0  0  0  0  0  0  0  0  0  0
   -0.8279   -1.2006    0.2205 C   0  0  0  0  0  0  0  0  0  0  0  0
   -2.6040    0.0722   -1.0361 C   0  0  0  0  0  0  0  0  0  0  0  0
    0.7071    1.1651   -0.2763 C   0  0  0  0  0  0  0  0  0  0  0  0
    1.3460   -0.0340    0.1972 O   0  0  0  0  0  0  0  0  0  0  0  0
    0.6341   -1.1962   -0.2709 C   0  0  0  0  0  0  0  0  0  0  0  0
   -7.4402   -0.2951   -2.3931 C   0  0  0  0  0  0  0  0  0  0  0  0
   -6.3215    0.2620   -3.0063 C   0  0  0  0  0  0  0  0  0  0  0  0
   -7.3021   -0.9421   -1.1644 C   0  0  0  0  0  0  0  0  0  0  0  0
   -5.0710    0.1699   -2.3826 C   0  0  0  0  0  0  0  0  0  0  0  0
   -4.9278   -0.4738   -1.1552 C   0  0  0  0  0  0  0  0  0  0  0  0
   -3.8787    0.7607   -2.9989 C   0  0  0  0  0  0  0  0  0  0  0  0
   -6.0485   -1.0434   -0.5258 C   0  0  0  0  0  0  0  0  0  0  0  0
   -3.7115   -0.5793   -0.5176 O   0  0  0  0  0  0  0  0  0  0  0  0
   -5.9674   -1.6598    0.8059 C   0  0  0  0  0  0  0  0  0  0  0  0
   -5.4951   -0.9120    1.8969 C   0  0  0  0  0  0  0  0  0  0  0  0
   -5.5193   -1.4326    3.1881 C   0  0  0  0  0  0  0  0  0  0  0  0
   -6.4286   -2.9637    1.0388 C   0  0  0  0  0  0  0  0  0  0  0  0
   -6.5039   -3.4654    2.3391 C   0  0  0  0  0  0  0  0  0  0  0  0
   -6.0350   -2.7059    3.4098 C   0  0  0  0  0  0  0  0  0  0  0  0
   -2.6304    0.6898   -2.2268 C   0  0  0  0  0  0  0  0  0  0  0  0
   -3.9161    1.3153   -4.0938 O   0  0  0  0  0  0  0  0  0  0  0  0
   -0.7664    1.2821    1.2997 H   0  0  0  0  0  0  0  0  0  0  0  0
   -1.2226    2.1621   -0.1637 H   0  0  0  0  0  0  0  0  0  0  0  0
   -0.8429   -1.2355    1.3168 H   0  0  0  0  0  0  0  0  0  0  0  0
   -1.3446   -2.0894   -0.1572 H   0  0  0  0  0  0  0  0  0  0  0  0
    0.7590    1.1850   -1.3709 H   0  0  0  0  0  0  0  0  0  0  0  0
    1.2747    2.0196    0.1049 H   0  0  0  0  0  0  0  0  0  0  0  0
    1.1642   -2.0791    0.0990 H   0  0  0  0  0  0  0  0  0  0  0  0
    0.6776   -1.2117   -1.3667 H   0  0  0  0  0  0  0  0  0  0  0  0
   -8.4197   -0.2181   -2.8600 H   0  0  0  0  0  0  0  0  0  0  0  0
   -6.4260    0.7703   -3.9628 H   0  0  0  0  0  0  0  0  0  0  0  0
   -8.1914   -1.3473   -0.6816 H   0  0  0  0  0  0  0  0  0  0  0  0
   -5.1147    0.0960    1.7411 H   0  0  0  0  0  0  0  0  0  0  0  0
   -5.1586   -0.8305    4.0169 H   0  0  0  0  0  0  0  0  0  0  0  0
   -6.7441   -3.5916    0.2077 H   0  0  0  0  0  0  0  0  0  0  0  0
   -6.9437   -4.4427    2.5181 H   0  0  0  0  0  0  0  0  0  0  0  0
   -6.0706   -3.1067    4.4185 H   0  0  0  0  0  0  0  0  0  0  0  0
   -1.7560    1.1464   -2.6671 H   0  0  0  0  0  0  0  0  0  0  0  0
  1  2  1  0  0  0  0
  1  3  1  0  0  0  0
  1  4  1  0  0  0  0
  2  5  1  0  0  0  0
  2 24  1  0  0  0  0
  2 25  1  0  0  0  0
  3  7  1  0  0  0  0
  3 26  1  0  0  0  0
  3 27  1  0  0  0  0
  4 15  1  0  0  0  0
  4 22  2  0  0  0  0
  5  6  1  0  0  0  0
  5 28  1  0  0  0  0
  5 29  1  0  0  0  0
  6  7  1  0  0  0  0
  7 30  1  0  0  0  0
  7 31  1  0  0  0  0
  8  9  2  0  0  0  0
  8 10  1  0  0  0  0
  8 32  1  0  0  0  0
  9 11  1  0  0  0  0
  9 33  1  0  0  0  0
 10 14  2  0  0  0  0
 10 34  1  0  0  0  0
 11 12  2  0  0  0  0
 11 13  1  0  0  0  0
 12 14  1  0  0  0  0
 12 15  1  0  0  0  0
 13 22  1  0  0  0  0
 13 23  2  0  0  0  0
 14 16  1  0  0  0  0
 16 17  2  0  0  0  0
 16 19  1  0  0  0  0
 17 18  1  0  0  0  0
 17 35  1  0  0  0  0
 18 21  2  0  0  0  0
 18 36  1  0  0  0  0
 19 20  2  0  0  0  0
 19 37  1  0  0  0  0
 20 21  1  0  0  0  0
 20 38  1  0  0  0  0
 21 39  1  0  0  0  0
 22 40  1  0  0  0  0
M  END
>  <DRUGBANK_ID>
DB02656

>  <SECONDARY_ACCESSION_NUMBERS>
EXPT02073

>  <COMMON_NAME>
LY-294002

>  <CAS_NUMBER>
154447-36-6

>  <UNII>
31M2U1DVID

>  <SYNONYMS>
2-(4-morpholinyl)-8-phenyl-4H-1-benzopyran-4-one

$$$$
