BDB
 OpenBabel10282417123D

 30 31  0  0  0  0  0  0  0  0999 V2000
    1.0659    0.0462    0.0594 B   0  0  0  0  0  0  0  0  0  0  0  0
    0.3159   -1.2524    0.0246 O   0  0  0  0  0  0  0  0  0  0  0  0
    0.3159    1.3448    0.0942 O   0  0  0  0  0  0  0  0  0  0  0  0
    2.6659    0.0462    0.0594 C   0  0  0  0  0  0  0  0  0  0  0  0
    3.3173    1.2029    0.0904 C   0  0  0  0  0  0  0  0  0  0  0  0
    4.6820    1.2331    0.2466 C   0  0  0  0  0  0  0  0  0  0  0  0
    5.4114    0.0772    0.2821 C   0  0  0  0  0  0  0  0  0  0  0  0
    4.7244   -1.0498    0.3237 C   0  0  0  0  0  0  0  0  0  0  0  0
    3.3453   -1.1604    0.0270 C   0  0  0  0  0  0  0  0  0  0  0  0
    6.9314    0.0888    0.2742 C   0  0  0  0  0  0  0  0  0  0  0  0
    7.5832    0.7059    1.2528 C   0  0  0  0  0  0  0  0  0  0  0  0
    8.9494    0.6025    1.3570 C   0  0  0  0  0  0  0  0  0  0  0  0
    9.6789   -0.0591    0.4086 C   0  0  0  0  0  0  0  0  0  0  0  0
    8.9921   -0.7206   -0.5050 C   0  0  0  0  0  0  0  0  0  0  0  0
    7.6103   -0.5446   -0.7536 C   0  0  0  0  0  0  0  0  0  0  0  0
   11.2787   -0.0333    0.4058 B   0  0  0  0  0  0  0  0  0  0  0  0
   12.0389   -0.7737   -0.6543 O   0  0  0  0  0  0  0  0  0  0  0  0
   12.0183    0.7314    1.4632 O   0  0  0  0  0  0  0  0  0  0  0  0
    0.9657   -2.0122    0.0042 H   0  0  0  0  0  0  0  0  0  0  0  0
   -0.6673    1.1621    0.0893 H   0  0  0  0  0  0  0  0  0  0  0  0
    2.7744    2.1198   -0.0073 H   0  0  0  0  0  0  0  0  0  0  0  0
    5.1811    2.1747    0.3419 H   0  0  0  0  0  0  0  0  0  0  0  0
    5.2470   -1.9414    0.6010 H   0  0  0  0  0  0  0  0  0  0  0  0
    2.8704   -2.0916   -0.2016 H   0  0  0  0  0  0  0  0  0  0  0  0
    7.0397    1.2889    1.9666 H   0  0  0  0  0  0  0  0  0  0  0  0
    9.4495    1.0462    2.1924 H   0  0  0  0  0  0  0  0  0  0  0  0
    9.5170   -1.4397   -1.0986 H   0  0  0  0  0  0  0  0  0  0  0  0
    7.1331   -0.8711   -1.6540 H   0  0  0  0  0  0  0  0  0  0  0  0
   11.3952   -1.2246   -1.2727 H   0  0  0  0  0  0  0  0  0  0  0  0
   13.0028    0.6414    1.3126 H   0  0  0  0  0  0  0  0  0  0  0  0
  1  2  1  0  0  0  0
  1  3  1  0  0  0  0
  1  4  1  0  0  0  0
  2 19  1  0  0  0  0
  3 20  1  0  0  0  0
  4  5  2  0  0  0  0
  4  9  1  0  0  0  0
  5  6  1  0  0  0  0
  5 21  1  0  0  0  0
  6  7  2  0  0  0  0
  6 22  1  0  0  0  0
  7  8  1  0  0  0  0
  7 10  1  0  0  0  0
  8  9  2  0  0  0  0
  8 23  1  0  0  0  0
  9 24  1  0  0  0  0
 10 11  2  0  0  0  0
 10 15  1  0  0  0  0
 11 12  1  0  0  0  0
 11 25  1  0  0  0  0
 12 13  2  0  0  0  0
 12 26  1  0  0  0  0
 13 14  1  0  0  0  0
 13 16  1  0  0  0  0
 14 15  2  0  0  0  0
 14 27  1  0  0  0  0
 15 28  1  0  0  0  0
 16 17  1  0  0  0  0
 16 18  1  0  0  0  0
 17 29  1  0  0  0  0
 18 30  1  0  0  0  0
M  END
>  <DRUGBANK_ID>
DB02627

>  <SECONDARY_ACCESSION_NUMBERS>
EXPT00647

>  <COMMON_NAME>
4,4'-Biphenyldiboronic Acid

>  <UNII>
OS4M710QCG

$$$$
