
 OpenBabel10282417233D

 65 69  0  0  0  0  0  0  0  0999 V2000
    1.0724    0.0245    0.0686 C   0  0  0  0  0  0  0  0  0  0  0  0
    0.5995    0.1424    1.5166 C   0  0  0  0  0  0  0  0  0  0  0  0
    1.2319    1.3600    2.1804 C   0  0  0  0  0  0  0  0  0  0  0  0
   -0.9045    0.1365    1.5879 C   0  0  0  0  0  0  0  0  0  0  0  0
   -1.7140   -0.9889    1.5827 C   0  0  0  0  0  0  0  0  0  0  0  0
   -3.0246   -0.5722    1.6203 N   0  0  0  0  0  0  0  0  0  0  0  0
   -3.0811    0.8015    1.5359 C   0  0  0  0  0  0  0  0  0  0  0  0
   -4.1779    1.6525    1.4411 C   0  0  0  0  0  0  0  0  0  0  0  0
   -3.8842    3.0071    1.3195 C   0  0  0  0  0  0  0  0  0  0  0  0
   -2.5650    3.5316    1.3653 C   0  0  0  0  0  0  0  0  0  0  0  0
   -1.5182    2.6601    1.4822 C   0  0  0  0  0  0  0  0  0  0  0  0
   -1.7651    1.2722    1.5424 C   0  0  0  0  0  0  0  0  0  0  0  0
   -2.4467    5.0264    1.4254 C   0  0  0  0  0  0  0  0  0  0  0  0
   -3.0718    5.3305    2.7978 C   0  0  0  0  0  0  0  0  0  0  0  0
   -3.9587    6.5294    2.6657 C   0  0  0  0  0  0  0  0  0  0  0  0
   -3.1474    7.6921    2.3223 N   0  0  0  0  0  0  0  0  0  0  0  0
   -4.0216    8.8837    2.2563 C   0  0  0  0  0  0  0  0  0  0  0  0
   -5.1190    8.7710    1.1891 C   0  0  0  0  0  0  0  0  0  0  0  0
   -6.4046    8.7011    1.6284 N   0  0  0  0  0  0  0  0  0  0  0  0
   -4.8990    8.6913   -0.0289 O   0  0  0  0  0  0  0  0  0  0  0  0
   -2.3694    7.4665    1.0825 C   0  0  0  0  0  0  0  0  0  0  0  0
   -1.4551    6.1890    1.1541 C   0  0  0  0  0  0  0  0  0  0  0  0
   -1.3966   -2.3699    1.4459 C   0  0  0  0  0  0  0  0  0  0  0  0
   -0.5816   -2.8933    2.3849 C   0  0  0  0  0  0  0  0  0  0  0  0
   -0.0994   -4.1855    2.2638 N   0  0  0  0  0  0  0  0  0  0  0  0
    0.7284   -4.8584    3.1043 N   0  0  0  0  0  0  0  0  0  0  0  0
    0.8277   -6.0480    2.5114 C   0  0  0  0  0  0  0  0  0  0  0  0
    0.1487   -6.1845    1.3393 N   0  0  0  0  0  0  0  0  0  0  0  0
   -0.4236   -5.0079    1.1908 C   0  0  0  0  0  0  0  0  0  0  0  0
   -1.2720   -4.4890    0.1523 C   0  0  0  0  0  0  0  0  0  0  0  0
   -1.6330   -5.3558   -1.0321 C   0  0  0  0  0  0  0  0  0  0  0  0
   -1.7314   -3.2097    0.2714 C   0  0  0  0  0  0  0  0  0  0  0  0
   -2.5664   -2.5750   -0.8182 C   0  0  0  0  0  0  0  0  0  0  0  0
    0.7139    0.8640   -0.5382 H   0  0  0  0  0  0  0  0  0  0  0  0
    0.7070   -0.8975   -0.3969 H   0  0  0  0  0  0  0  0  0  0  0  0
    2.1652    0.0132    0.0282 H   0  0  0  0  0  0  0  0  0  0  0  0
    0.9731   -0.7248    2.0691 H   0  0  0  0  0  0  0  0  0  0  0  0
    1.1069    2.2510    1.5659 H   0  0  0  0  0  0  0  0  0  0  0  0
    0.8000    1.5375    3.1726 H   0  0  0  0  0  0  0  0  0  0  0  0
    2.3117    1.2471    2.2769 H   0  0  0  0  0  0  0  0  0  0  0  0
   -3.8359   -1.1756    1.5814 H   0  0  0  0  0  0  0  0  0  0  0  0
   -5.2071    1.3102    1.4628 H   0  0  0  0  0  0  0  0  0  0  0  0
   -4.7209    3.7068    1.2640 H   0  0  0  0  0  0  0  0  0  0  0  0
   -0.5354    3.0928    1.5394 H   0  0  0  0  0  0  0  0  0  0  0  0
   -3.0534    5.1833    0.5250 H   0  0  0  0  0  0  0  0  0  0  0  0
   -3.6917    4.5237    3.2040 H   0  0  0  0  0  0  0  0  0  0  0  0
   -2.2927    5.4711    3.5600 H   0  0  0  0  0  0  0  0  0  0  0  0
   -4.7187    6.3139    1.9027 H   0  0  0  0  0  0  0  0  0  0  0  0
   -4.4757    6.6725    3.6193 H   0  0  0  0  0  0  0  0  0  0  0  0
   -4.4874    9.0265    3.2422 H   0  0  0  0  0  0  0  0  0  0  0  0
   -3.4290    9.7829    2.0684 H   0  0  0  0  0  0  0  0  0  0  0  0
   -7.1227    8.5966    0.9226 H   0  0  0  0  0  0  0  0  0  0  0  0
   -6.6794    8.8044    2.5957 H   0  0  0  0  0  0  0  0  0  0  0  0
   -1.7799    8.3570    0.8423 H   0  0  0  0  0  0  0  0  0  0  0  0
   -3.0504    7.3031    0.2385 H   0  0  0  0  0  0  0  0  0  0  0  0
   -0.6756    6.3328    1.9150 H   0  0  0  0  0  0  0  0  0  0  0  0
   -0.9475    6.0909    0.1860 H   0  0  0  0  0  0  0  0  0  0  0  0
   -0.2257   -2.3491    3.2512 H   0  0  0  0  0  0  0  0  0  0  0  0
    1.4146   -6.8463    2.9495 H   0  0  0  0  0  0  0  0  0  0  0  0
   -0.7290   -5.6761   -1.5593 H   0  0  0  0  0  0  0  0  0  0  0  0
   -2.1741   -6.2410   -0.6839 H   0  0  0  0  0  0  0  0  0  0  0  0
   -2.2740   -4.8575   -1.7626 H   0  0  0  0  0  0  0  0  0  0  0  0
   -2.0380   -2.6076   -1.7769 H   0  0  0  0  0  0  0  0  0  0  0  0
   -3.5245   -3.0975   -0.9029 H   0  0  0  0  0  0  0  0  0  0  0  0
   -2.7994   -1.5217   -0.6630 H   0  0  0  0  0  0  0  0  0  0  0  0
  1  2  1  0  0  0  0
  1 34  1  0  0  0  0
  1 35  1  0  0  0  0
  1 36  1  0  0  0  0
  2  3  1  0  0  0  0
  2  4  1  0  0  0  0
  2 37  1  0  0  0  0
  3 38  1  0  0  0  0
  3 39  1  0  0  0  0
  3 40  1  0  0  0  0
  4  5  2  0  0  0  0
  4 12  1  0  0  0  0
  5  6  1  0  0  0  0
  5 23  1  0  0  0  0
  6  7  1  0  0  0  0
  6 41  1  0  0  0  0
  7  8  2  0  0  0  0
  7 12  1  0  0  0  0
  8  9  1  0  0  0  0
  8 42  1  0  0  0  0
  9 10  2  0  0  0  0
  9 43  1  0  0  0  0
 10 11  1  0  0  0  0
 10 13  1  0  0  0  0
 11 12  2  0  0  0  0
 11 44  1  0  0  0  0
 13 14  1  0  0  0  0
 13 22  1  0  0  0  0
 13 45  1  0  0  0  0
 14 15  1  0  0  0  0
 14 46  1  0  0  0  0
 14 47  1  0  0  0  0
 15 16  1  0  0  0  0
 15 48  1  0  0  0  0
 15 49  1  0  0  0  0
 16 17  1  0  0  0  0
 16 21  1  0  0  0  0
 17 18  1  0  0  0  0
 17 50  1  0  0  0  0
 17 51  1  0  0  0  0
 18 19  1  0  0  0  0
 18 20  2  0  0  0  0
 19 52  1  0  0  0  0
 19 53  1  0  0  0  0
 21 22  1  0  0  0  0
 21 54  1  0  0  0  0
 21 55  1  0  0  0  0
 22 56  1  0  0  0  0
 22 57  1  0  0  0  0
 23 24  2  0  0  0  0
 23 32  1  0  0  0  0
 24 25  1  0  0  0  0
 24 58  1  0  0  0  0
 25 26  1  0  0  0  0
 25 29  1  0  0  0  0
 26 27  2  0  0  0  0
 27 28  1  0  0  0  0
 27 59  1  0  0  0  0
 28 29  2  0  0  0  0
 29 30  1  0  0  0  0
 30 31  1  0  0  0  0
 30 32  2  0  0  0  0
 31 60  1  0  0  0  0
 31 61  1  0  0  0  0
 31 62  1  0  0  0  0
 32 33  1  0  0  0  0
 33 63  1  0  0  0  0
 33 64  1  0  0  0  0
 33 65  1  0  0  0  0
M  END
>  <DRUGBANK_ID>
DB16580

>  <COMMON_NAME>
Afimetoran

>  <CAS_NUMBER>
2171019-55-7

>  <UNII>
LXP7MZL0VF

>  <SYNONYMS>
Afimetoran; BMS-986256

$$$$
