
 OpenBabel10282417123D

 29 29  0  0  0  0  0  0  0  0999 V2000
    1.0234   -0.0317    0.0209 C   0  0  0  0  0  0  0  0  0  0  0  0
    0.5350   -1.3331    0.6389 C   0  0  0  0  0  0  0  0  0  0  0  0
    0.9947   -1.4846    2.0912 C   0  0  0  0  0  0  0  0  0  0  0  0
    0.5511   -0.3364    2.9959 C   0  0  0  0  0  0  0  0  0  0  0  0
   -0.9203   -0.2731    3.0614 N   0  0  0  0  0  0  0  0  0  0  0  0
   -1.5582    1.0296    3.9335 S   0  0  0  0  0  0  0  0  0  0  0  0
   -0.9439    2.2177    3.3910 O   0  0  0  0  0  0  0  0  0  0  0  0
   -2.9972    0.8588    3.9375 O   0  0  0  0  0  0  0  0  0  0  0  0
   -0.9884    0.8017    5.5938 C   0  0  0  0  0  0  0  0  0  0  0  0
   -0.6994    1.9417    6.3486 C   0  0  0  0  0  0  0  0  0  0  0  0
   -0.3534    1.8088    7.6915 C   0  0  0  0  0  0  0  0  0  0  0  0
   -0.2952    0.5425    8.2737 C   0  0  0  0  0  0  0  0  0  0  0  0
   -0.5660   -0.5956    7.5107 C   0  0  0  0  0  0  0  0  0  0  0  0
   -0.8770   -0.4738    6.1551 C   0  0  0  0  0  0  0  0  0  0  0  0
    0.6421    0.8415    0.5585 H   0  0  0  0  0  0  0  0  0  0  0  0
    0.6813    0.0561   -1.0127 H   0  0  0  0  0  0  0  0  0  0  0  0
    2.1171    0.0103    0.0350 H   0  0  0  0  0  0  0  0  0  0  0  0
   -0.5578   -1.3831    0.5780 H   0  0  0  0  0  0  0  0  0  0  0  0
    0.9128   -2.1782    0.0520 H   0  0  0  0  0  0  0  0  0  0  0  0
    0.6290   -2.4396    2.4890 H   0  0  0  0  0  0  0  0  0  0  0  0
    2.0907   -1.5343    2.1129 H   0  0  0  0  0  0  0  0  0  0  0  0
    0.9521   -0.5108    3.9969 H   0  0  0  0  0  0  0  0  0  0  0  0
    0.9574    0.6121    2.6378 H   0  0  0  0  0  0  0  0  0  0  0  0
   -1.3760   -0.2461    2.1457 H   0  0  0  0  0  0  0  0  0  0  0  0
   -0.7686    2.9315    5.9027 H   0  0  0  0  0  0  0  0  0  0  0  0
   -0.1590    2.6947    8.2906 H   0  0  0  0  0  0  0  0  0  0  0  0
   -0.0430    0.4432    9.3270 H   0  0  0  0  0  0  0  0  0  0  0  0
   -0.5587   -1.5750    7.9835 H   0  0  0  0  0  0  0  0  0  0  0  0
   -1.0438   -1.3675    5.5584 H   0  0  0  0  0  0  0  0  0  0  0  0
  1  2  1  0  0  0  0
  1 15  1  0  0  0  0
  1 16  1  0  0  0  0
  1 17  1  0  0  0  0
  2  3  1  0  0  0  0
  2 18  1  0  0  0  0
  2 19  1  0  0  0  0
  3  4  1  0  0  0  0
  3 20  1  0  0  0  0
  3 21  1  0  0  0  0
  4  5  1  0  0  0  0
  4 22  1  0  0  0  0
  4 23  1  0  0  0  0
  5  6  1  0  0  0  0
  5 24  1  0  0  0  0
  6  7  2  0  0  0  0
  6  8  2  0  0  0  0
  6  9  1  0  0  0  0
  9 10  2  0  0  0  0
  9 14  1  0  0  0  0
 10 11  1  0  0  0  0
 10 25  1  0  0  0  0
 11 12  2  0  0  0  0
 11 26  1  0  0  0  0
 12 13  1  0  0  0  0
 12 27  1  0  0  0  0
 13 14  2  0  0  0  0
 13 28  1  0  0  0  0
 14 29  1  0  0  0  0
M  END
>  <DRUGBANK_ID>
DB02055

>  <SECONDARY_ACCESSION_NUMBERS>
EXPT02297

>  <COMMON_NAME>
N-Butyl-Benzenesulfonamide

>  <CAS_NUMBER>
3622-84-2

>  <UNII>
YO7UAW6717

$$$$
