
 OpenBabel10282417123D

 27 27  0  0  1  0  0  0  0  0999 V2000
   -1.3387   -3.3447   -3.3643 C   0  0  0  0  0  0  0  0  0  0  0  0
    1.4320    0.5899   -2.7747 C   0  0  0  0  0  0  0  0  0  0  0  0
    2.0361   -0.8276   -2.6778 C   0  0  2  0  0  0  0  0  0  0  0  0
    1.7467   -3.2966   -2.4332 C   0  0  2  0  0  0  0  0  0  0  0  0
    2.9264   -3.2979   -1.4424 C   0  0  2  0  0  0  0  0  0  0  0  0
    0.9925   -1.9494   -2.4036 C   0  0  2  0  0  0  0  0  0  0  0  0
    3.7911   -2.0326   -1.5780 C   0  0  1  0  0  0  0  0  0  0  0  0
    0.9053    0.8833   -4.0667 O   0  0  0  0  0  0  0  0  0  0  0  0
    0.8981   -4.4048   -2.1151 O   0  0  0  0  0  0  0  0  0  0  0  0
    3.7209   -4.4781   -1.6306 O   0  0  0  0  0  0  0  0  0  0  0  0
    4.6678   -2.1145   -2.6976 O   0  0  0  0  0  0  0  0  0  0  0  0
    3.0198   -0.8362   -1.6267 O   0  0  0  0  0  0  0  0  0  0  0  0
   -0.4097   -1.8228   -3.6088 S   0  0  0  0  0  0  0  0  0  0  0  0
    2.5499   -1.0271   -3.6280 H   0  0  0  0  0  0  0  0  0  0  0  0
    2.1282   -3.4833   -3.4446 H   0  0  0  0  0  0  0  0  0  0  0  0
    2.5202   -3.3557   -0.4246 H   0  0  0  0  0  0  0  0  0  0  0  0
    0.5762   -1.8056   -1.3968 H   0  0  0  0  0  0  0  0  0  0  0  0
    4.4421   -1.9669   -0.6978 H   0  0  0  0  0  0  0  0  0  0  0  0
   -1.6202   -3.4918   -2.3187 H   0  0  0  0  0  0  0  0  0  0  0  0
   -0.7775   -4.1952   -3.7529 H   0  0  0  0  0  0  0  0  0  0  0  0
   -2.2542   -3.2725   -3.9575 H   0  0  0  0  0  0  0  0  0  0  0  0
    0.6227    0.7071   -2.0456 H   0  0  0  0  0  0  0  0  0  0  0  0
    2.1765    1.3600   -2.5551 H   0  0  0  0  0  0  0  0  0  0  0  0
    1.5816    0.6731   -4.7384 H   0  0  0  0  0  0  0  0  0  0  0  0
    0.5225   -4.2699   -1.2278 H   0  0  0  0  0  0  0  0  0  0  0  0
    4.2823   -4.3372   -2.4149 H   0  0  0  0  0  0  0  0  0  0  0  0
    4.1657   -2.4241   -3.4671 H   0  0  0  0  0  0  0  0  0  0  0  0
  1 19  1  0  0  0  0
  1 20  1  0  0  0  0
  1 21  1  0  0  0  0
  2 22  1  0  0  0  0
  2 23  1  0  0  0  0
  3 14  1  6  0  0  0
  3  2  1  0  0  0  0
  4  9  1  0  0  0  0
  4 15  1  6  0  0  0
  5  4  1  0  0  0  0
  5 10  1  0  0  0  0
  5 16  1  1  0  0  0
  6  3  1  0  0  0  0
  6  4  1  0  0  0  0
  6 17  1  1  0  0  0
  6 13  1  0  0  0  0
  7  5  1  0  0  0  0
  7 11  1  0  0  0  0
  7 18  1  1  0  0  0
  8  2  1  0  0  0  0
  8 24  1  0  0  0  0
  9 25  1  0  0  0  0
 10 26  1  0  0  0  0
 11 27  1  0  0  0  0
 12  3  1  0  0  0  0
 12  7  1  0  0  0  0
 13  1  1  0  0  0  0
M  END
>  <DRUGBANK_ID>
DB02730

>  <SECONDARY_ACCESSION_NUMBERS>
EXPT02093

>  <COMMON_NAME>
4-Methylthio-Alpha-D-Mannose

$$$$
