
 OpenBabel10282417223D

 30 32  0  0  0  0  0  0  0  0999 V2000
    1.0559    0.1104   -0.1942 O   0  0  0  0  0  0  0  0  0  0  0  0
    2.2782   -0.0032   -0.1166 C   0  0  0  0  0  0  0  0  0  0  0  0
    2.9926   -0.9941   -0.7735 N   0  0  0  0  0  0  0  0  0  0  0  0
    4.1549   -1.6930   -0.2352 C   0  0  0  0  0  0  0  0  0  0  0  0
    5.3410   -1.5390   -1.1791 C   0  0  0  0  0  0  0  0  0  0  0  0
    4.9715   -1.9422   -2.6111 C   0  0  0  0  0  0  0  0  0  0  0  0
    3.6692   -1.2786   -3.0779 C   0  0  0  0  0  0  0  0  0  0  0  0
    2.5386   -1.4875   -2.0664 C   0  0  0  0  0  0  0  0  0  0  0  0
    3.0343    1.0437    0.6329 C   0  0  0  0  0  0  0  0  0  0  0  0
    4.1563    1.6546    0.0271 C   0  0  0  0  0  0  0  0  0  0  0  0
    4.7922    2.6368    0.8123 C   0  0  0  0  0  0  0  0  0  0  0  0
    5.8868    3.3606    0.5458 N   0  0  0  0  0  0  0  0  0  0  0  0
    6.0946    4.1563    1.6619 O   0  0  0  0  0  0  0  0  0  0  0  0
    5.1220    3.9544    2.6277 N   0  0  0  0  0  0  0  0  0  0  0  0
    4.3006    3.0239    2.1275 C   0  0  0  0  0  0  0  0  0  0  0  0
    3.1426    2.4562    2.6902 C   0  0  0  0  0  0  0  0  0  0  0  0
    2.5232    1.4681    1.8932 C   0  0  0  0  0  0  0  0  0  0  0  0
    3.8835   -2.7565   -0.1652 H   0  0  0  0  0  0  0  0  0  0  0  0
    4.3866   -1.3568    0.7788 H   0  0  0  0  0  0  0  0  0  0  0  0
    6.1852   -2.1403   -0.8259 H   0  0  0  0  0  0  0  0  0  0  0  0
    5.6707   -0.4959   -1.1809 H   0  0  0  0  0  0  0  0  0  0  0  0
    5.7892   -1.6698   -3.2883 H   0  0  0  0  0  0  0  0  0  0  0  0
    4.8606   -3.0320   -2.6645 H   0  0  0  0  0  0  0  0  0  0  0  0
    3.8490   -0.2021   -3.1971 H   0  0  0  0  0  0  0  0  0  0  0  0
    3.3803   -1.6709   -4.0583 H   0  0  0  0  0  0  0  0  0  0  0  0
    1.6381   -0.9579   -2.3925 H   0  0  0  0  0  0  0  0  0  0  0  0
    2.2954   -2.5523   -1.9712 H   0  0  0  0  0  0  0  0  0  0  0  0
    4.4991    1.4149   -0.9695 H   0  0  0  0  0  0  0  0  0  0  0  0
    2.7603    2.7553    3.6574 H   0  0  0  0  0  0  0  0  0  0  0  0
    1.6023    1.0116    2.2603 H   0  0  0  0  0  0  0  0  0  0  0  0
  1  2  2  0  0  0  0
  2  3  1  0  0  0  0
  2  9  1  0  0  0  0
  3  4  1  0  0  0  0
  3  8  1  0  0  0  0
  4  5  1  0  0  0  0
  4 18  1  0  0  0  0
  4 19  1  0  0  0  0
  5  6  1  0  0  0  0
  5 20  1  0  0  0  0
  5 21  1  0  0  0  0
  6  7  1  0  0  0  0
  6 22  1  0  0  0  0
  6 23  1  0  0  0  0
  7  8  1  0  0  0  0
  7 24  1  0  0  0  0
  7 25  1  0  0  0  0
  8 26  1  0  0  0  0
  8 27  1  0  0  0  0
  9 10  2  0  0  0  0
  9 17  1  0  0  0  0
 10 11  1  0  0  0  0
 10 28  1  0  0  0  0
 11 12  2  0  0  0  0
 11 15  1  0  0  0  0
 12 13  1  0  0  0  0
 13 14  1  0  0  0  0
 14 15  2  0  0  0  0
 15 16  1  0  0  0  0
 16 17  2  0  0  0  0
 16 29  1  0  0  0  0
 17 30  1  0  0  0  0
M  END
>  <DRUGBANK_ID>
DB15012

>  <COMMON_NAME>
Farampator

>  <CAS_NUMBER>
211735-76-1

>  <UNII>
7X6P5N8K2L

>  <SYNONYMS>
Farampator

$$$$
