
 OpenBabel10282417223D

 75 78  0  0  1  0  0  0  0  0999 V2000
   -2.5921    5.9831    6.1364 C   0  0  0  0  0  0  0  0  0  0  0  0
   -3.8174    6.7394    5.5891 C   0  0  0  0  0  0  0  0  0  0  0  0
   -3.4768    7.9220    4.6842 C   0  0  0  0  0  0  0  0  0  0  0  0
   -3.3177    7.6801    3.1232 C   0  0  1  0  0  0  0  0  0  0  0  0
   -4.2431    8.0184    1.8505 C   0  0  0  0  0  0  0  0  0  0  0  0
   -5.6440    7.7451    1.8517 C   0  0  0  0  0  0  0  0  0  0  0  0
   -6.1006    8.3947    3.0997 C   0  0  0  0  0  0  0  0  0  0  0  0
   -5.5301    9.5619    3.7359 C   0  0  0  0  0  0  0  0  0  0  0  0
   -5.8242    9.8523    5.0681 C   0  0  0  0  0  0  0  0  0  0  0  0
   -6.9247    9.2322    5.6011 C   0  0  0  0  0  0  0  0  0  0  0  0
   -7.6105    8.2603    4.8626 C   0  0  0  0  0  0  0  0  0  0  0  0
   -7.0866    7.6928    3.7271 C   0  0  0  0  0  0  0  0  0  0  0  0
   -2.2846    8.1878    1.4227 C   0  0  0  0  0  0  0  0  0  0  0  0
   -1.3129    7.1517    0.7188 C   0  0  0  0  0  0  0  0  0  0  0  0
   -0.5292    7.9306   -0.1287 O   0  0  0  0  0  0  0  0  0  0  0  0
   -0.9763    5.8799    1.2184 C   0  0  0  0  0  0  0  0  0  0  0  0
    0.2712    5.2022    0.7558 C   0  0  2  0  0  0  0  0  0  0  0  0
    0.4470    3.8313    1.4338 C   0  0  0  0  0  0  0  0  0  0  0  0
    0.5971    3.7303    2.9902 C   0  0  0  0  0  0  0  0  0  0  0  0
    1.5942    5.9723    0.8079 C   0  0  0  0  0  0  0  0  0  0  0  0
    2.6983    5.4783    0.1800 C   0  0  0  0  0  0  0  0  0  0  0  0
    3.8856    6.2223    0.1831 C   0  0  0  0  0  0  0  0  0  0  0  0
    4.0095    7.4795    0.8196 C   0  0  0  0  0  0  0  0  0  0  0  0
    2.9004    8.0493    1.3830 C   0  0  0  0  0  0  0  0  0  0  0  0
    2.8917    9.3752    1.9295 N   0  0  0  0  0  0  0  0  0  0  0  0
    1.6511   10.2590    2.6528 S   0  0  0  0  0  0  0  0  0  0  0  0
    2.1322   10.7861    3.9095 O   0  0  0  0  0  0  0  0  0  0  0  0
    1.0851   11.1562    1.6556 O   0  0  0  0  0  0  0  0  0  0  0  0
    0.3939    9.2517    3.2641 C   0  0  0  0  0  0  0  0  0  0  0  0
    0.6993    7.9689    3.6734 N   0  0  0  0  0  0  0  0  0  0  0  0
   -0.2005    6.9713    3.4491 C   0  0  0  0  0  0  0  0  0  0  0  0
   -1.4674    7.2409    3.0080 C   0  0  0  0  0  0  0  0  0  0  0  0
   -1.6319    8.8601    3.4774 C   0  0  0  0  0  0  0  0  0  0  0  0
   -0.7698    9.8583    3.3753 C   0  0  0  0  0  0  0  0  0  0  0  0
   -3.1590    5.9670    2.3718 C   0  0  0  0  0  0  0  0  0  0  0  0
   -3.3006    5.2700    1.2206 F   0  0  0  0  0  0  0  0  0  0  0  0
   -3.4677    4.6656    3.4165 F   0  0  0  0  0  0  0  0  0  0  0  0
   -4.5037    6.1736    2.9172 F   0  0  0  0  0  0  0  0  0  0  0  0
    1.7900    7.2391    1.3545 C   0  0  0  0  0  0  0  0  0  0  0  0
   -1.5342    4.9944    2.7419 C   0  0  0  0  0  0  0  0  0  0  0  0
   -1.8231    3.7919    2.6999 O   0  0  0  0  0  0  0  0  0  0  0  0
   -2.4221    6.0653    3.8814 O   0  0  0  0  0  0  0  0  0  0  0  0
   -1.8414    5.4590    5.5239 H   0  0  0  0  0  0  0  0  0  0  0  0
   -2.9605    5.1027    6.6461 H   0  0  0  0  0  0  0  0  0  0  0  0
   -1.9190    6.7221    6.5670 H   0  0  0  0  0  0  0  0  0  0  0  0
   -4.5553    6.1056    5.0784 H   0  0  0  0  0  0  0  0  0  0  0  0
   -4.3758    7.1906    6.4131 H   0  0  0  0  0  0  0  0  0  0  0  0
   -4.4066    8.3226    4.7196 H   0  0  0  0  0  0  0  0  0  0  0  0
   -2.8393    8.6258    5.2337 H   0  0  0  0  0  0  0  0  0  0  0  0
   -4.1318    9.1138    1.6964 H   0  0  0  0  0  0  0  0  0  0  0  0
   -3.9801    7.4678    0.8980 H   0  0  0  0  0  0  0  0  0  0  0  0
   -6.0079    8.1760    0.9359 H   0  0  0  0  0  0  0  0  0  0  0  0
   -5.7006    6.6531    1.6956 H   0  0  0  0  0  0  0  0  0  0  0  0
   -4.5688    9.9912    3.4331 H   0  0  0  0  0  0  0  0  0  0  0  0
   -5.1294   10.4352    5.6801 H   0  0  0  0  0  0  0  0  0  0  0  0
   -7.2748    9.5277    6.5781 H   0  0  0  0  0  0  0  0  0  0  0  0
   -8.6082    7.9748    5.1412 H   0  0  0  0  0  0  0  0  0  0  0  0
   -7.4550    6.7695    3.2845 H   0  0  0  0  0  0  0  0  0  0  0  0
   -2.7649    8.7615    0.5945 H   0  0  0  0  0  0  0  0  0  0  0  0
   -1.6628    9.0882    1.5292 H   0  0  0  0  0  0  0  0  0  0  0  0
    0.2944    7.5109   -0.4156 H   0  0  0  0  0  0  0  0  0  0  0  0
    0.0449    5.0867   -0.3163 H   0  0  0  0  0  0  0  0  0  0  0  0
   -0.3680    3.2012    1.0402 H   0  0  0  0  0  0  0  0  0  0  0  0
    1.3703    3.4019    1.0721 H   0  0  0  0  0  0  0  0  0  0  0  0
   -0.1447    4.1066    3.6877 H   0  0  0  0  0  0  0  0  0  0  0  0
    0.4879    2.6990    3.3154 H   0  0  0  0  0  0  0  0  0  0  0  0
    1.3757    4.3721    3.3841 H   0  0  0  0  0  0  0  0  0  0  0  0
    2.6186    4.5160   -0.3116 H   0  0  0  0  0  0  0  0  0  0  0  0
    4.7247    5.8071   -0.3546 H   0  0  0  0  0  0  0  0  0  0  0  0
    4.9589    7.9981    0.8423 H   0  0  0  0  0  0  0  0  0  0  0  0
    3.6832    9.9775    1.7344 H   0  0  0  0  0  0  0  0  0  0  0  0
    0.3031    6.0397    3.3355 H   0  0  0  0  0  0  0  0  0  0  0  0
   -2.5839    9.4379    3.4124 H   0  0  0  0  0  0  0  0  0  0  0  0
   -1.1388   10.8142    3.0014 H   0  0  0  0  0  0  0  0  0  0  0  0
    0.9431    7.7101    1.7323 H   0  0  0  0  0  0  0  0  0  0  0  0
  1  2  1  0  0  0  0
  1 43  1  0  0  0  0
  1 44  1  0  0  0  0
  1 45  1  0  0  0  0
  2  3  1  0  0  0  0
  2 46  1  0  0  0  0
  2 47  1  0  0  0  0
  3 48  1  0  0  0  0
  3 49  1  0  0  0  0
  4  3  1  1  0  0  0
  4  5  1  0  0  0  0
  4 13  1  0  0  0  0
  4 42  1  0  0  0  0
  5  6  1  0  0  0  0
  5 50  1  0  0  0  0
  5 51  1  0  0  0  0
  6  7  1  0  0  0  0
  6 52  1  0  0  0  0
  6 53  1  0  0  0  0
  7  8  2  0  0  0  0
  7 12  1  0  0  0  0
  8  9  1  0  0  0  0
  8 54  1  0  0  0  0
  9 10  2  0  0  0  0
  9 55  1  0  0  0  0
 10 11  1  0  0  0  0
 10 56  1  0  0  0  0
 11 12  2  0  0  0  0
 11 57  1  0  0  0  0
 12 58  1  0  0  0  0
 13 14  1  0  0  0  0
 13 59  1  0  0  0  0
 13 60  1  0  0  0  0
 14 15  1  0  0  0  0
 14 16  2  0  0  0  0
 15 61  1  0  0  0  0
 16 40  1  0  0  0  0
 17 20  1  0  0  0  0
 17 62  1  6  0  0  0
 17 18  1  0  0  0  0
 17 16  1  0  0  0  0
 18 19  1  0  0  0  0
 18 63  1  0  0  0  0
 18 64  1  0  0  0  0
 19 65  1  0  0  0  0
 19 66  1  0  0  0  0
 19 67  1  0  0  0  0
 20 21  2  0  0  0  0
 20 39  1  0  0  0  0
 21 22  1  0  0  0  0
 21 68  1  0  0  0  0
 22 23  2  0  0  0  0
 22 69  1  0  0  0  0
 23 24  1  0  0  0  0
 23 70  1  0  0  0  0
 24 25  1  0  0  0  0
 24 39  2  0  0  0  0
 25 26  1  0  0  0  0
 25 71  1  0  0  0  0
 26 27  2  0  0  0  0
 26 28  2  0  0  0  0
 26 29  1  0  0  0  0
 29 30  2  0  0  0  0
 29 34  1  0  0  0  0
 30 31  1  0  0  0  0
 31 32  2  0  0  0  0
 31 72  1  0  0  0  0
 32 33  1  0  0  0  0
 32 35  1  0  0  0  0
 33 34  2  0  0  0  0
 33 73  1  0  0  0  0
 34 74  1  0  0  0  0
 35 36  1  0  0  0  0
 35 37  1  0  0  0  0
 35 38  1  0  0  0  0
 39 75  1  0  0  0  0
 40 41  2  0  0  0  0
 40 42  1  0  0  0  0
M  ISO  1  17  14
M  END
>  <DRUGBANK_ID>
DB15108

>  <COMMON_NAME>
Tipranavir C-14

>  <CAS_NUMBER>
1141509-98-9

>  <UNII>
VU8T5RB4VW

>  <SYNONYMS>
14C-TIPRANAVIR

$$$$
