
 OpenBabel10282417183D

  1  0  0  0  0  0  0  0  0  0999 V2000
    1.0153    0.0350   -0.0924 Xe  0  0  0  0  0  0  0  0  0  0  0  0
M  ISO  1   1 127
M  END
>  <DRUGBANK_ID>
DB09461

>  <COMMON_NAME>
Xenon Xe-127

>  <CAS_NUMBER>
13994-19-9

>  <UNII>
H95KBR1GDB

>  <SYNONYMS>
Xenon Xe 127; Xenon Xe-127; Xenon-127

$$$$
