1481
 OpenBabel10282417113D

 49 52  0  0  1  0  0  0  0  0999 V2000
   -6.6020   -2.6720    9.5097 O   0  0  0  0  0  0  0  0  0  0  0  0
   -5.7301   -8.2280    3.2499 O   0  0  0  0  0  0  0  0  0  0  0  0
   -4.1250   -3.2847    8.0194 C   0  0  1  0  0  0  0  0  0  0  0  0
   -3.8599   -4.4121    7.0911 C   0  0  1  0  0  0  0  0  0  0  0  0
   -4.3519   -1.8373    7.8387 C   0  0  2  0  0  0  0  0  0  0  0  0
   -4.3369   -4.1616    5.6029 C   0  0  1  0  0  0  0  0  0  0  0  0
   -3.5828   -5.2780    4.7168 C   0  0  1  0  0  0  0  0  0  0  0  0
   -4.8167   -1.6756    6.2804 C   0  0  0  0  0  0  0  0  0  0  0  0
   -4.1274   -2.6937    5.2400 C   0  0  0  0  0  0  0  0  0  0  0  0
   -5.2478   -2.1149    9.4805 C   0  0  2  0  0  0  0  0  0  0  0  0
   -3.3538   -3.2779    9.3707 C   0  0  0  0  0  0  0  0  0  0  0  0
   -4.6544   -5.6766    7.5962 C   0  0  0  0  0  0  0  0  0  0  0  0
   -4.0468   -6.6229    5.4156 C   0  0  1  0  0  0  0  0  0  0  0  0
   -4.4127   -3.2859   10.4024 C   0  0  0  0  0  0  0  0  0  0  0  0
   -3.8082   -6.7423    6.9329 C   0  0  0  0  0  0  0  0  0  0  0  0
   -2.9218   -1.0722    7.7019 C   0  0  0  0  0  0  0  0  0  0  0  0
   -2.0951   -4.8696    4.8171 C   0  0  0  0  0  0  0  0  0  0  0  0
   -3.6995   -5.5056    3.1694 C   0  0  0  0  0  0  0  0  0  0  0  0
   -3.8110   -7.9050    4.6436 C   0  0  0  0  0  0  0  0  0  0  0  0
   -4.1963   -6.5910    2.5498 C   0  0  0  0  0  0  0  0  0  0  0  0
   -4.7009   -7.6761    3.4405 C   0  0  0  0  0  0  0  0  0  0  0  0
   -5.1978   -3.5338    8.0699 H   0  0  0  0  0  0  0  0  0  0  0  0
   -2.7829   -4.5661    7.1734 H   0  0  0  0  0  0  0  0  0  0  0  0
   -5.4256   -4.3151    5.5423 H   0  0  0  0  0  0  0  0  0  0  0  0
   -5.1729   -6.5715    5.3940 H   0  0  0  0  0  0  0  0  0  0  0  0
   -6.7995   -2.9405   10.4435 H   0  0  0  0  0  0  0  0  0  0  0  0
   -4.3657   -0.7409    5.8870 H   0  0  0  0  0  0  0  0  0  0  0  0
   -5.8737   -1.4469    6.1381 H   0  0  0  0  0  0  0  0  0  0  0  0
   -4.4148   -2.5351    4.1892 H   0  0  0  0  0  0  0  0  0  0  0  0
   -3.0546   -2.4641    5.2066 H   0  0  0  0  0  0  0  0  0  0  0  0
   -5.3143   -1.2008   10.0675 H   0  0  0  0  0  0  0  0  0  0  0  0
   -2.4970   -3.9477    9.4538 H   0  0  0  0  0  0  0  0  0  0  0  0
   -2.9045   -2.3154    9.6516 H   0  0  0  0  0  0  0  0  0  0  0  0
   -4.7735   -6.3891    8.4383 H   0  0  0  0  0  0  0  0  0  0  0  0
   -4.8774   -5.2201    8.5675 H   0  0  0  0  0  0  0  0  0  0  0  0
   -4.2437   -4.3961   10.3228 H   0  0  0  0  0  0  0  0  0  0  0  0
   -5.2774   -3.8298   10.8395 H   0  0  0  0  0  0  0  0  0  0  0  0
   -4.1322   -7.7272    7.3009 H   0  0  0  0  0  0  0  0  0  0  0  0
   -2.7561   -6.6369    7.2005 H   0  0  0  0  0  0  0  0  0  0  0  0
   -2.4848   -1.2847    6.7080 H   0  0  0  0  0  0  0  0  0  0  0  0
   -3.0212    0.0195    7.6791 H   0  0  0  0  0  0  0  0  0  0  0  0
   -2.0672   -1.3585    8.3204 H   0  0  0  0  0  0  0  0  0  0  0  0
   -1.7723   -4.3448    3.9085 H   0  0  0  0  0  0  0  0  0  0  0  0
   -1.8998   -4.0917    5.5577 H   0  0  0  0  0  0  0  0  0  0  0  0
   -1.4350   -5.7009    5.0379 H   0  0  0  0  0  0  0  0  0  0  0  0
   -3.0822   -4.8991    2.4985 H   0  0  0  0  0  0  0  0  0  0  0  0
   -3.1866   -8.7611    4.3537 H   0  0  0  0  0  0  0  0  0  0  0  0
   -4.1066   -8.5323    5.4648 H   0  0  0  0  0  0  0  0  0  0  0  0
   -4.1436   -6.7868    1.4813 H   0  0  0  0  0  0  0  0  0  0  0  0
  1 26  1  0  0  0  0
  2 21  2  0  0  0  0
  3  4  1  0  0  0  0
  3  5  1  0  0  0  0
  3 11  1  0  0  0  0
  3 22  1  6  0  0  0
  4  6  1  0  0  0  0
  4 12  1  0  0  0  0
  4 23  1  6  0  0  0
  5  8  1  0  0  0  0
  5 10  1  0  0  0  0
  5 16  1  6  0  0  0
  6  7  1  0  0  0  0
  6  9  1  0  0  0  0
  6 24  1  1  0  0  0
  7 13  1  0  0  0  0
  7 18  1  0  0  0  0
  7 17  1  6  0  0  0
  8  9  1  0  0  0  0
  8 27  1  0  0  0  0
  8 28  1  0  0  0  0
  9 29  1  0  0  0  0
  9 30  1  0  0  0  0
 10 14  1  0  0  0  0
 10  1  1  0  0  0  0
 10 31  1  1  0  0  0
 11 14  1  0  0  0  0
 11 32  1  0  0  0  0
 11 33  1  0  0  0  0
 12 15  1  0  0  0  0
 12 34  1  0  0  0  0
 12 35  1  0  0  0  0
 13 15  1  0  0  0  0
 13 19  1  0  0  0  0
 13 25  1  1  0  0  0
 14 36  1  0  0  0  0
 14 37  1  0  0  0  0
 15 38  1  0  0  0  0
 15 39  1  0  0  0  0
 16 40  1  0  0  0  0
 16 41  1  0  0  0  0
 16 42  1  0  0  0  0
 17 43  1  0  0  0  0
 17 44  1  0  0  0  0
 17 45  1  0  0  0  0
 18 20  2  0  0  0  0
 18 46  1  0  0  0  0
 19 21  1  0  0  0  0
 19 47  1  0  0  0  0
 19 48  1  0  0  0  0
 20 21  1  0  0  0  0
 20 49  1  0  0  0  0
M  END
>  <DRUGBANK_ID>
DB01481

>  <COMMON_NAME>
1-Testosterone

>  <CAS_NUMBER>
65-06-5

>  <UNII>
Y984BV1Q0G

>  <SYNONYMS>
1-T; 1-Testo; 17beta-hydroxy-5alpha-androst-1-en-3-one; Androstendolone; delta1-Dihydrotestosterone

$$$$
