
 OpenBabel10282417143D

 19 18  0  0  1  0  0  0  0  0999 V2000
    1.0378    0.0509    0.0950 C   0  0  0  0  0  0  0  0  0  0  0  0
    0.4941    0.6839   -1.1941 C   0  0  1  0  0  0  0  0  0  0  0  0
    1.0253   -0.0501   -2.4487 C   0  0  1  0  0  0  0  0  0  0  0  0
    0.6661   -1.4709   -2.4808 N   0  0  0  0  0  0  0  0  0  0  0  0
    0.5114    0.6623   -3.7156 C   0  0  0  0  0  0  0  0  0  0  0  0
    1.4795    1.1354   -4.5343 O   0  0  0  0  0  0  0  0  0  0  0  0
   -0.6705    0.8443   -3.9801 O   0  0  0  0  0  0  0  0  0  0  0  0
   -1.0312    0.6718   -1.1277 C   0  0  0  0  0  0  0  0  0  0  0  0
   -1.6098    1.8937   -1.1300 O   0  0  0  0  0  0  0  0  0  0  0  0
   -1.7027   -0.3429   -0.9902 O   0  0  0  0  0  0  0  0  0  0  0  0
    0.6916   -0.9817    0.2164 H   0  0  0  0  0  0  0  0  0  0  0  0
    0.6959    0.5979    0.9794 H   0  0  0  0  0  0  0  0  0  0  0  0
    2.1330    0.0389    0.0981 H   0  0  0  0  0  0  0  0  0  0  0  0
    0.8425    1.7259   -1.2245 H   0  0  0  0  0  0  0  0  0  0  0  0
    2.1224    0.0061   -2.4400 H   0  0  0  0  0  0  0  0  0  0  0  0
    1.0011   -1.9715   -3.2958 H   0  0  0  0  0  0  0  0  0  0  0  0
    0.9308   -1.9704   -1.6356 H   0  0  0  0  0  0  0  0  0  0  0  0
    2.4011    0.9369   -4.2899 H   0  0  0  0  0  0  0  0  0  0  0  0
   -1.0317    2.6623   -1.2759 H   0  0  0  0  0  0  0  0  0  0  0  0
  1 11  1  0  0  0  0
  1 12  1  0  0  0  0
  1 13  1  0  0  0  0
  2  1  1  0  0  0  0
  2  3  1  0  0  0  0
  2  8  1  0  0  0  0
  2 14  1  6  0  0  0
  3  4  1  0  0  0  0
  3  5  1  0  0  0  0
  3 15  1  1  0  0  0
  4 16  1  0  0  0  0
  4 17  1  0  0  0  0
  5  6  1  0  0  0  0
  5  7  2  0  0  0  0
  6 18  1  0  0  0  0
  8  9  1  0  0  0  0
  8 10  2  0  0  0  0
  9 19  1  0  0  0  0
M  END
>  <DRUGBANK_ID>
DB04313

>  <SECONDARY_ACCESSION_NUMBERS>
EXPT00104

>  <COMMON_NAME>
(3S)-3-methyl-D-aspartic acid

>  <CAS_NUMBER>
121570-10-3

>  <UNII>
JVW3X5Z42K

>  <SYNONYMS>
3-methyl-beta-D-aspartic acid; D-methyl aspartic acid

$$$$
