J67
 OpenBabel10282417173D

 51 55  0  0  0  0  0  0  0  0999 V2000
    0.7125   -0.4776    0.1025 O   0  0  0  0  0  0  0  0  0  0  0  0
    0.1442    0.7564    0.3161 N   0  0  0  0  0  0  0  0  0  0  0  0
   -1.1016    0.9718    0.1093 C   0  0  0  0  0  0  0  0  0  0  0  0
   -2.2263   -0.0322    0.0518 C   0  0  0  0  0  0  0  0  0  0  0  0
   -2.0628   -1.2218    0.0671 O   0  0  0  0  0  0  0  0  0  0  0  0
   -3.4075    0.7306    0.0463 N   0  0  0  0  0  0  0  0  0  0  0  0
   -4.7314    0.0292    0.1189 C   0  0  0  0  0  0  0  0  0  0  0  0
   -5.5995    0.3389    1.3382 C   0  0  0  0  0  0  0  0  0  0  0  0
   -5.9708    1.6661    1.5183 C   0  0  0  0  0  0  0  0  0  0  0  0
   -6.5471    2.1566    2.6758 C   0  0  0  0  0  0  0  0  0  0  0  0
   -6.8903    3.4469    2.7347 F   0  0  0  0  0  0  0  0  0  0  0  0
   -6.7652    1.3255    3.7452 C   0  0  0  0  0  0  0  0  0  0  0  0
   -6.4837   -0.0243    3.5945 C   0  0  0  0  0  0  0  0  0  0  0  0
   -6.8565   -1.0192    4.6529 C   0  0  0  0  0  0  0  0  0  0  0  0
   -7.7868   -1.9750    4.1575 O   0  0  0  0  0  0  0  0  0  0  0  0
   -8.0742   -1.7100    2.7843 C   0  0  0  0  0  0  0  0  0  0  0  0
   -6.8526   -1.6786    1.9660 O   0  0  0  0  0  0  0  0  0  0  0  0
   -6.1328   -0.5188    2.3167 C   0  0  0  0  0  0  0  0  0  0  0  0
   -3.0578    2.1399   -0.0593 C   0  0  0  0  0  0  0  0  0  0  0  0
   -3.8264    3.2925   -0.2099 C   0  0  0  0  0  0  0  0  0  0  0  0
   -3.2432    4.5751   -0.1978 C   0  0  0  0  0  0  0  0  0  0  0  0
   -1.8621    4.7309   -0.1621 C   0  0  0  0  0  0  0  0  0  0  0  0
   -1.0208    3.6101   -0.1023 C   0  0  0  0  0  0  0  0  0  0  0  0
    0.4232    3.9650   -0.1216 C   0  0  0  0  0  0  0  0  0  0  0  0
    1.4198    3.0850   -0.1771 C   0  0  0  0  0  0  0  0  0  0  0  0
    2.8506    3.1658   -0.1324 C   0  0  0  0  0  0  0  0  0  0  0  0
    3.4644    4.0582    0.7176 C   0  0  0  0  0  0  0  0  0  0  0  0
    4.8230    4.2372    0.5754 C   0  0  0  0  0  0  0  0  0  0  0  0
    5.5623    3.3804   -0.2495 C   0  0  0  0  0  0  0  0  0  0  0  0
    4.9603    2.3002   -0.8895 C   0  0  0  0  0  0  0  0  0  0  0  0
    3.5843    2.2170   -0.8682 C   0  0  0  0  0  0  0  0  0  0  0  0
   -1.6599    2.3322   -0.0108 C   0  0  0  0  0  0  0  0  0  0  0  0
    1.6652   -0.2258    0.1194 H   0  0  0  0  0  0  0  0  0  0  0  0
   -5.2725    0.2471   -0.8080 H   0  0  0  0  0  0  0  0  0  0  0  0
   -4.5334   -1.0535    0.1094 H   0  0  0  0  0  0  0  0  0  0  0  0
   -5.8829    2.3532    0.7102 H   0  0  0  0  0  0  0  0  0  0  0  0
   -7.2769    1.7017    4.6213 H   0  0  0  0  0  0  0  0  0  0  0  0
   -5.9576   -1.5465    4.9937 H   0  0  0  0  0  0  0  0  0  0  0  0
   -7.3035   -0.5209    5.5184 H   0  0  0  0  0  0  0  0  0  0  0  0
   -8.6202   -0.7513    2.7039 H   0  0  0  0  0  0  0  0  0  0  0  0
   -8.7975   -2.4597    2.4460 H   0  0  0  0  0  0  0  0  0  0  0  0
   -4.8887    3.3097   -0.3774 H   0  0  0  0  0  0  0  0  0  0  0  0
   -3.8725    5.4654   -0.2422 H   0  0  0  0  0  0  0  0  0  0  0  0
   -1.4554    5.7438   -0.2043 H   0  0  0  0  0  0  0  0  0  0  0  0
    0.6868    5.0216   -0.1222 H   0  0  0  0  0  0  0  0  0  0  0  0
    1.2479    2.0631   -0.3070 H   0  0  0  0  0  0  0  0  0  0  0  0
    2.8778    4.6122    1.4442 H   0  0  0  0  0  0  0  0  0  0  0  0
    5.2938    5.0605    1.0968 H   0  0  0  0  0  0  0  0  0  0  0  0
    6.6213    3.5574   -0.3871 H   0  0  0  0  0  0  0  0  0  0  0  0
    5.5434    1.5634   -1.4333 H   0  0  0  0  0  0  0  0  0  0  0  0
    3.0813    1.4280   -1.4306 H   0  0  0  0  0  0  0  0  0  0  0  0
  1 33  1  0  0  0  0
  2  1  1  0  0  0  0
  3  2  2  0  0  0  0
  4  3  1  0  0  0  0
  5  4  2  0  0  0  0
  6  4  1  0  0  0  0
  6 19  1  0  0  0  0
  7  6  1  0  0  0  0
  7  8  1  0  0  0  0
  7 34  1  0  0  0  0
  7 35  1  0  0  0  0
  8  9  1  0  0  0  0
  9 10  2  0  0  0  0
  9 36  1  0  0  0  0
 10 11  1  0  0  0  0
 12 10  1  0  0  0  0
 12 37  1  0  0  0  0
 13 12  2  0  0  0  0
 14 13  1  0  0  0  0
 14 38  1  0  0  0  0
 14 39  1  0  0  0  0
 15 14  1  0  0  0  0
 16 15  1  0  0  0  0
 16 17  1  0  0  0  0
 16 40  1  0  0  0  0
 16 41  1  0  0  0  0
 17 18  1  0  0  0  0
 18  8  2  0  0  0  0
 18 13  1  0  0  0  0
 19 32  1  0  0  0  0
 20 19  2  0  0  0  0
 20 21  1  0  0  0  0
 20 42  1  0  0  0  0
 21 22  2  0  0  0  0
 21 43  1  0  0  0  0
 22 23  1  0  0  0  0
 22 44  1  0  0  0  0
 23 24  1  0  0  0  0
 24 25  2  0  0  0  0
 24 45  1  0  0  0  0
 25 26  1  0  0  0  0
 25 46  1  0  0  0  0
 26 27  1  0  0  0  0
 27 28  2  0  0  0  0
 27 47  1  0  0  0  0
 28 48  1  0  0  0  0
 29 28  1  0  0  0  0
 29 49  1  0  0  0  0
 30 29  2  0  0  0  0
 30 50  1  0  0  0  0
 31 26  2  0  0  0  0
 31 30  1  0  0  0  0
 31 51  1  0  0  0  0
 32  3  1  0  0  0  0
 32 23  2  0  0  0  0
M  END
>  <DRUGBANK_ID>
DB08010

>  <COMMON_NAME>
(3Z)-1-[(6-fluoro-4H-1,3-benzodioxin-8-yl)methyl]-4-[(E)-2-phenylethenyl]-1H-indole-2,3-dione 3-oxime

$$$$
