
 OpenBabel10282417203D

 42 43  0  0  0  0  0  0  0  0999 V2000
    0.6360    0.2167   -0.0195 C   0  0  3  0  0  0  0  0  0  0  0  0
    0.3936    0.3879   -1.5117 C   0  0  0  0  0  0  0  0  0  0  0  0
    0.4518   -1.2494    0.5263 C   0  0  0  0  0  0  0  0  0  0  0  0
   -0.1074    1.3422    0.8280 C   0  0  0  0  0  0  0  0  0  0  0  0
   -0.1993   -0.5926   -2.3129 C   0  0  0  0  0  0  0  0  0  0  0  0
   -0.6780   -0.2554   -3.5653 C   0  0  0  0  0  0  0  0  0  0  0  0
   -0.6390    1.0647   -4.0141 C   0  0  0  0  0  0  0  0  0  0  0  0
    0.0449    2.0179   -3.2640 C   0  0  0  0  0  0  0  0  0  0  0  0
    0.6907    1.6140   -2.1242 C   0  0  0  0  0  0  0  0  0  0  0  0
   -0.8295    1.0312    1.9868 C   0  0  0  0  0  0  0  0  0  0  0  0
   -0.8051    1.9053    3.0928 C   0  0  0  0  0  0  0  0  0  0  0  0
   -0.2459    3.1827    2.9939 C   0  0  0  0  0  0  0  0  0  0  0  0
    0.2701    3.5807    1.7786 C   0  0  0  0  0  0  0  0  0  0  0  0
    0.2990    2.6921    0.7075 C   0  0  0  0  0  0  0  0  0  0  0  0
    1.1684   -1.6696    1.8555 C   0  0  0  0  0  0  0  0  0  0  0  0
    1.0869   -0.7202    2.9568 N   0  0  0  0  0  0  0  0  0  0  0  0
    1.1714   -1.2356    4.3095 C   0  0  0  0  0  0  0  0  0  0  0  0
    2.0005    0.4133    2.8333 C   0  0  0  0  0  0  0  0  0  0  0  0
   -0.2638    4.1481    4.1321 C   0  0  0  0  0  0  0  0  0  0  0  0
    1.7199    0.3903    0.0654 H   0  0  0  0  0  0  0  0  0  0  0  0
   -0.6227   -1.4706    0.5940 H   0  0  0  0  0  0  0  0  0  0  0  0
    0.8440   -1.9629   -0.2137 H   0  0  0  0  0  0  0  0  0  0  0  0
   -0.3196   -1.6110   -1.9591 H   0  0  0  0  0  0  0  0  0  0  0  0
   -1.1539   -1.0212   -4.1762 H   0  0  0  0  0  0  0  0  0  0  0  0
   -1.1071    1.3521   -4.9394 H   0  0  0  0  0  0  0  0  0  0  0  0
    0.0569    3.0639   -3.5571 H   0  0  0  0  0  0  0  0  0  0  0  0
    1.3825    2.3155   -1.6598 H   0  0  0  0  0  0  0  0  0  0  0  0
   -1.1844    0.0189    2.1764 H   0  0  0  0  0  0  0  0  0  0  0  0
   -1.0732    1.5112    4.0701 H   0  0  0  0  0  0  0  0  0  0  0  0
    0.7329    4.5589    1.6555 H   0  0  0  0  0  0  0  0  0  0  0  0
    0.7515    3.1068   -0.1705 H   0  0  0  0  0  0  0  0  0  0  0  0
    0.6925   -2.6198    2.1479 H   0  0  0  0  0  0  0  0  0  0  0  0
    2.2147   -1.9187    1.6475 H   0  0  0  0  0  0  0  0  0  0  0  0
    2.2108   -1.3731    4.6192 H   0  0  0  0  0  0  0  0  0  0  0  0
    0.7155   -0.4957    4.9831 H   0  0  0  0  0  0  0  0  0  0  0  0
    0.6167   -2.1649    4.4613 H   0  0  0  0  0  0  0  0  0  0  0  0
    3.0522    0.1417    2.8601 H   0  0  0  0  0  0  0  0  0  0  0  0
    1.8945    0.9434    1.9031 H   0  0  0  0  0  0  0  0  0  0  0  0
    1.7762    1.1635    3.5969 H   0  0  0  0  0  0  0  0  0  0  0  0
    0.7029    4.6527    4.2450 H   0  0  0  0  0  0  0  0  0  0  0  0
   -1.0316    4.8961    3.9155 H   0  0  0  0  0  0  0  0  0  0  0  0
   -0.5051    3.6574    5.0778 H   0  0  0  0  0  0  0  0  0  0  0  0
  1  3  1  0  0  0  0
  1  4  1  0  0  0  0
  1 20  1  0  0  0  0
  2  1  1  0  0  0  0
  2  5  2  0  0  0  0
  3 15  1  0  0  0  0
  3 21  1  0  0  0  0
  3 22  1  0  0  0  0
  4 10  2  0  0  0  0
  5  6  1  0  0  0  0
  5 23  1  0  0  0  0
  6  7  2  0  0  0  0
  6 24  1  0  0  0  0
  7  8  1  0  0  0  0
  7 25  1  0  0  0  0
  8  9  2  0  0  0  0
  8 26  1  0  0  0  0
  9  2  1  0  0  0  0
  9 27  1  0  0  0  0
 10 11  1  0  0  0  0
 10 28  1  0  0  0  0
 11 12  2  0  0  0  0
 11 29  1  0  0  0  0
 12 13  1  0  0  0  0
 12 19  1  0  0  0  0
 13 14  2  0  0  0  0
 13 30  1  0  0  0  0
 14  4  1  0  0  0  0
 14 31  1  0  0  0  0
 15 16  1  0  0  0  0
 15 32  1  0  0  0  0
 15 33  1  0  0  0  0
 16 17  1  0  0  0  0
 16 18  1  0  0  0  0
 17 34  1  0  0  0  0
 17 35  1  0  0  0  0
 17 36  1  0  0  0  0
 18 37  1  0  0  0  0
 18 38  1  0  0  0  0
 18 39  1  0  0  0  0
 19 40  1  0  0  0  0
 19 41  1  0  0  0  0
 19 42  1  0  0  0  0
M  END
>  <DRUGBANK_ID>
DB13305

>  <COMMON_NAME>
Tolpropamine

>  <CAS_NUMBER>
5632-44-0

>  <UNII>
TBZ8909KFS

>  <SYNONYMS>
Tolpropamina; Tolpropamine; Tolpropaminum

$$$$
