
 OpenBabel10282417123D

 23 22  0  0  0  0  0  0  0  0999 V2000
    0.9131   -0.0084    0.1007 C   0  0  0  0  0  0  0  0  0  0  0  0
    0.4203    1.0110    1.1281 C   0  0  0  0  0  0  0  0  0  0  0  0
    0.9417    2.4467    0.9310 C   0  0  0  0  0  0  0  0  0  0  0  0
    0.3846    3.2733   -0.2232 C   0  0  0  0  0  0  0  0  0  0  0  0
   -0.6430    3.9282   -0.1948 O   0  0  0  0  0  0  0  0  0  0  0  0
    1.0881    3.1822   -1.3718 O   0  0  0  0  0  0  0  0  0  0  0  0
    0.4229    0.3496   -1.2884 C   0  0  0  0  0  0  0  0  0  0  0  0
    0.9246   -0.4443   -2.4626 C   0  0  0  0  0  0  0  0  0  0  0  0
    0.4129   -1.8394   -2.4113 C   0  0  0  0  0  0  0  0  0  0  0  0
   -0.3699   -2.3387   -3.1836 O   0  0  0  0  0  0  0  0  0  0  0  0
    0.8909   -2.5017   -1.3385 O   0  0  0  0  0  0  0  0  0  0  0  0
    0.5589   -0.9969    0.4081 H   0  0  0  0  0  0  0  0  0  0  0  0
    2.0094   -0.0351    0.1029 H   0  0  0  0  0  0  0  0  0  0  0  0
   -0.6760    0.9915    1.1625 H   0  0  0  0  0  0  0  0  0  0  0  0
    0.7627    0.6503    2.1091 H   0  0  0  0  0  0  0  0  0  0  0  0
    0.6589    3.0048    1.8300 H   0  0  0  0  0  0  0  0  0  0  0  0
    2.0359    2.4498    0.9010 H   0  0  0  0  0  0  0  0  0  0  0  0
    0.4227    3.2095   -2.0979 H   0  0  0  0  0  0  0  0  0  0  0  0
   -0.6593    0.5286   -1.3141 H   0  0  0  0  0  0  0  0  0  0  0  0
    0.9228    1.2612   -1.5034 H   0  0  0  0  0  0  0  0  0  0  0  0
    0.5707    0.0457   -3.3802 H   0  0  0  0  0  0  0  0  0  0  0  0
    2.0187   -0.4222   -2.5016 H   0  0  0  0  0  0  0  0  0  0  0  0
    0.3690   -3.3238   -1.2761 H   0  0  0  0  0  0  0  0  0  0  0  0
  1  2  1  0  0  0  0
  1  7  1  0  0  0  0
  1 12  1  0  0  0  0
  1 13  1  0  0  0  0
  2  3  1  0  0  0  0
  2 14  1  0  0  0  0
  2 15  1  0  0  0  0
  3  4  1  0  0  0  0
  3 16  1  0  0  0  0
  3 17  1  0  0  0  0
  4  5  2  0  0  0  0
  4  6  1  0  0  0  0
  6 18  1  0  0  0  0
  7  8  1  0  0  0  0
  7 19  1  0  0  0  0
  7 20  1  0  0  0  0
  8  9  1  0  0  0  0
  8 21  1  0  0  0  0
  8 22  1  0  0  0  0
  9 10  2  0  0  0  0
  9 11  1  0  0  0  0
 11 23  1  0  0  0  0
M  END
>  <DRUGBANK_ID>
DB01856

>  <SECONDARY_ACCESSION_NUMBERS>
EXPT02618

>  <COMMON_NAME>
Pimelic Acid

>  <CAS_NUMBER>
111-16-0

>  <UNII>
BZQ96WX25F

$$$$
