37U
 OpenBabel10282417163D

 51 53  0  0  0  0  0  0  0  0999 V2000
   -5.3285    2.2397    0.2240 C   0  0  0  0  0  0  0  0  0  0  0  0
   -4.8204    3.3766   -0.4113 C   0  0  0  0  0  0  0  0  0  0  0  0
   -4.5543    3.4391   -1.9302 C   0  0  0  0  0  0  0  0  0  0  0  0
   -3.3356    2.8575   -2.5697 N   0  0  0  0  0  0  0  0  0  0  0  0
   -3.1990    1.8302   -3.4792 C   0  0  0  0  0  0  0  0  0  0  0  0
   -2.0761    1.5538   -3.9679 O   0  0  0  0  0  0  0  0  0  0  0  0
   -4.3941    0.9844   -3.8717 C   0  0  1  0  0  0  0  0  0  0  0  0
   -5.4164    0.5858   -2.8804 N   0  0  0  0  0  0  0  0  0  0  0  0
   -5.3133   -0.1664   -1.6787 C   0  0  0  0  0  0  0  0  0  0  0  0
   -6.3699   -0.5353   -1.1320 O   0  0  0  0  0  0  0  0  0  0  0  0
   -3.9127   -0.4284   -0.8588 C   0  0  2  0  0  0  0  0  0  0  0  0
   -4.0064   -0.4218    0.6340 N   0  0  0  0  0  0  0  0  0  0  0  0
   -2.8598    0.6026   -1.1600 C   0  0  0  0  0  0  0  0  0  0  0  0
   -1.4879    0.7032   -0.6194 C   0  0  0  0  0  0  0  0  0  0  0  0
   -0.8385    1.9264   -0.3496 C   0  0  0  0  0  0  0  0  0  0  0  0
    0.4135    1.8969    0.2391 C   0  0  0  0  0  0  0  0  0  0  0  0
    0.9679    0.6608    0.5699 C   0  0  0  0  0  0  0  0  0  0  0  0
    0.3282   -0.5335    0.2368 C   0  0  0  0  0  0  0  0  0  0  0  0
   -0.8563   -0.5068   -0.4452 C   0  0  0  0  0  0  0  0  0  0  0  0
   -6.7403    0.7778   -3.5130 C   0  0  0  0  0  0  0  0  0  0  0  0
   -6.5159    1.4754   -4.8661 C   0  0  0  0  0  0  0  0  0  0  0  0
   -5.0958    1.9544   -4.8250 C   0  0  0  0  0  0  0  0  0  0  0  0
   -4.8023    4.4773    0.4298 C   0  0  0  0  0  0  0  0  0  0  0  0
   -5.1413    4.3566    1.8033 C   0  0  0  0  0  0  0  0  0  0  0  0
   -5.1979    5.4610    2.5538 F   0  0  0  0  0  0  0  0  0  0  0  0
   -5.4576    3.1467    2.4098 C   0  0  0  0  0  0  0  0  0  0  0  0
   -5.5732    2.0619    1.5945 C   0  0  0  0  0  0  0  0  0  0  0  0
   -4.1034    0.0631   -4.3972 H   0  0  0  0  0  0  0  0  0  0  0  0
   -3.5919   -1.4307   -1.1326 H   0  0  0  0  0  0  0  0  0  0  0  0
   -5.5756    1.4017   -0.3670 H   0  0  0  0  0  0  0  0  0  0  0  0
   -5.4322    3.0122   -2.4043 H   0  0  0  0  0  0  0  0  0  0  0  0
   -4.4990    4.4865   -2.2267 H   0  0  0  0  0  0  0  0  0  0  0  0
   -2.4226    3.1808   -2.2725 H   0  0  0  0  0  0  0  0  0  0  0  0
   -4.9678   -0.5052    0.9437 H   0  0  0  0  0  0  0  0  0  0  0  0
   -3.6510    0.4739    1.0012 H   0  0  0  0  0  0  0  0  0  0  0  0
   -2.6620    0.3536   -2.1796 H   0  0  0  0  0  0  0  0  0  0  0  0
   -3.2748    1.5576   -0.8996 H   0  0  0  0  0  0  0  0  0  0  0  0
   -1.2870    2.8983   -0.5516 H   0  0  0  0  0  0  0  0  0  0  0  0
    0.9275    2.8223    0.4863 H   0  0  0  0  0  0  0  0  0  0  0  0
    1.9083    0.6160    1.1016 H   0  0  0  0  0  0  0  0  0  0  0  0
    0.7092   -1.5004    0.5313 H   0  0  0  0  0  0  0  0  0  0  0  0
   -1.3457   -1.4132   -0.7853 H   0  0  0  0  0  0  0  0  0  0  0  0
   -7.3818    1.3775   -2.8581 H   0  0  0  0  0  0  0  0  0  0  0  0
   -7.2239   -0.1898   -3.6824 H   0  0  0  0  0  0  0  0  0  0  0  0
   -7.1987    2.3167   -5.0322 H   0  0  0  0  0  0  0  0  0  0  0  0
   -6.6278    0.7807   -5.7032 H   0  0  0  0  0  0  0  0  0  0  0  0
   -5.0853    2.9859   -4.4513 H   0  0  0  0  0  0  0  0  0  0  0  0
   -4.5921    2.0074   -5.7959 H   0  0  0  0  0  0  0  0  0  0  0  0
   -4.5908    5.4614    0.0335 H   0  0  0  0  0  0  0  0  0  0  0  0
   -5.6611    3.0491    3.4704 H   0  0  0  0  0  0  0  0  0  0  0  0
   -5.8574    1.0885    1.9955 H   0  0  0  0  0  0  0  0  0  0  0  0
  1  2  2  0  0  0  0
  1 27  1  0  0  0  0
  1 30  1  0  0  0  0
  2  3  1  0  0  0  0
  2 23  1  0  0  0  0
  3  4  1  0  0  0  0
  3 31  1  0  0  0  0
  3 32  1  0  0  0  0
  4  5  1  0  0  0  0
  4 33  1  0  0  0  0
  5  6  2  0  0  0  0
  7  5  1  0  0  0  0
  7  8  1  0  0  0  0
  7 22  1  0  0  0  0
  7 28  1  6  0  0  0
  8  9  1  0  0  0  0
  8 20  1  0  0  0  0
  9 10  2  0  0  0  0
 11 13  1  0  0  0  0
 11 29  1  6  0  0  0
 11 12  1  0  0  0  0
 11  9  1  0  0  0  0
 12 34  1  0  0  0  0
 12 35  1  0  0  0  0
 13 14  1  0  0  0  0
 13 36  1  0  0  0  0
 13 37  1  0  0  0  0
 14 15  2  0  0  0  0
 14 19  1  0  0  0  0
 15 16  1  0  0  0  0
 15 38  1  0  0  0  0
 16 17  2  0  0  0  0
 16 39  1  0  0  0  0
 17 18  1  0  0  0  0
 17 40  1  0  0  0  0
 18 19  2  0  0  0  0
 18 41  1  0  0  0  0
 19 42  1  0  0  0  0
 20 21  1  0  0  0  0
 20 43  1  0  0  0  0
 20 44  1  0  0  0  0
 21 22  1  0  0  0  0
 21 45  1  0  0  0  0
 21 46  1  0  0  0  0
 22 47  1  0  0  0  0
 22 48  1  0  0  0  0
 23 24  2  0  0  0  0
 23 49  1  0  0  0  0
 24 25  1  0  0  0  0
 24 26  1  0  0  0  0
 26 27  2  0  0  0  0
 26 50  1  0  0  0  0
 27 51  1  0  0  0  0
M  END
>  <DRUGBANK_ID>
DB07027

>  <COMMON_NAME>
D-phenylalanyl-N-(3-fluorobenzyl)-L-prolinamide

$$$$
