
 OpenBabel10282417133D

 24 24  0  0  1  0  0  0  0  0999 V2000
    3.2148   -1.1736    3.3819 O   0  0  0  0  0  0  0  0  0  0  0  0
    2.6109   -0.5861    2.4897 C   0  0  0  0  0  0  0  0  0  0  0  0
    1.6354    0.3178    2.7613 O   0  0  0  0  0  0  0  0  0  0  0  0
    2.8884   -0.7795    0.9958 C   0  0  2  0  0  0  0  0  0  0  0  0
    2.0729    0.1681    0.2224 N   0  0  0  0  0  0  0  0  0  0  0  0
    2.6283   -2.2472    0.5668 C   0  0  0  0  0  0  0  0  0  0  0  0
    2.9953   -2.5808   -0.8751 C   0  0  0  0  0  0  0  0  0  0  0  0
    3.3518   -1.5850   -1.7989 C   0  0  0  0  0  0  0  0  0  0  0  0
    2.9416   -3.9053   -1.3370 C   0  0  0  0  0  0  0  0  0  0  0  0
    3.2006   -4.2010   -2.6863 C   0  0  0  0  0  0  0  0  0  0  0  0
    3.5757   -1.8671   -3.1385 C   0  0  0  0  0  0  0  0  0  0  0  0
    3.4957   -3.1719   -3.5775 C   0  0  0  0  0  0  0  0  0  0  0  0
    3.7235   -3.3790   -4.9035 O   0  0  0  0  0  0  0  0  0  0  0  0
    1.2238    0.6364    1.9322 H   0  0  0  0  0  0  0  0  0  0  0  0
    3.9515   -0.5486    0.8410 H   0  0  0  0  0  0  0  0  0  0  0  0
    2.1473    1.1575    0.4073 H   0  0  0  0  0  0  0  0  0  0  0  0
    1.2599   -0.2078   -0.2508 H   0  0  0  0  0  0  0  0  0  0  0  0
    3.1782   -2.9264    1.2333 H   0  0  0  0  0  0  0  0  0  0  0  0
    1.5618   -2.4749    0.7105 H   0  0  0  0  0  0  0  0  0  0  0  0
    3.4581   -0.5444   -1.5173 H   0  0  0  0  0  0  0  0  0  0  0  0
    2.6990   -4.7178   -0.6532 H   0  0  0  0  0  0  0  0  0  0  0  0
    3.1615   -5.2326   -3.0210 H   0  0  0  0  0  0  0  0  0  0  0  0
    3.8095   -1.0584   -3.8233 H   0  0  0  0  0  0  0  0  0  0  0  0
    3.6379   -4.3248   -5.0946 H   0  0  0  0  0  0  0  0  0  0  0  0
  2  1  2  0  0  0  0
  3  2  1  0  0  0  0
  3 14  1  0  0  0  0
  4 15  1  6  0  0  0
  4  5  1  0  0  0  0
  4  2  1  0  0  0  0
  5 16  1  0  0  0  0
  5 17  1  0  0  0  0
  6  4  1  0  0  0  0
  6 18  1  0  0  0  0
  6 19  1  0  0  0  0
  7  6  1  0  0  0  0
  8  7  1  0  0  0  0
  8 20  1  0  0  0  0
  9  7  2  0  0  0  0
  9 21  1  0  0  0  0
 10  9  1  0  0  0  0
 10 22  1  0  0  0  0
 11  8  2  0  0  0  0
 11 12  1  0  0  0  0
 11 23  1  0  0  0  0
 12 10  2  0  0  0  0
 13 12  1  0  0  0  0
 13 24  1  0  0  0  0
M  END
>  <DRUGBANK_ID>
DB03839

>  <SECONDARY_ACCESSION_NUMBERS>
EXPT01295

>  <COMMON_NAME>
D-Tyrosine

>  <CAS_NUMBER>
556-02-5

>  <UNII>
WQ5G9JQ7GC

>  <SYNONYMS>
(R)-2-Amino-3-(p-hydroxyphenyl)propionic acid; (R)-3-(p-Hydroxyphenyl)alanine; D-Tyr; D-Tyrosin

$$$$
