[NO NAME]
 OpenBabel10282417103D
Created with ChemWriter - http://chemwriter.com
175180  0  0  1  0  0  0  0  0999 V2000
    7.2005   -4.3962    0.6854 O   0  0  0  0  0  0  0  0  0  0  0  0
    9.4126   -4.3857    0.8458 O   0  0  0  0  0  0  0  0  0  0  0  0
    4.2904   -5.4404    4.6769 O   0  0  0  0  0  0  0  0  0  0  0  0
    0.7024   -6.1636   -0.0051 O   0  0  0  0  0  0  0  0  0  0  0  0
    3.8240   -3.4025   -1.0936 O   0  0  0  0  0  0  0  0  0  0  0  0
   13.6173   -7.6727   -0.7004 O   0  0  0  0  0  0  0  0  0  0  0  0
   -0.5178   -2.0288    1.2764 O   0  0  0  0  0  0  0  0  0  0  0  0
    8.5231   -1.2567    1.1832 O   0  0  0  0  0  0  0  0  0  0  0  0
   10.8623    2.5319   -0.6987 O   0  0  0  0  0  0  0  0  0  0  0  0
    3.7747    0.6381    3.8764 O   0  0  0  0  0  0  0  0  0  0  0  0
    3.5066   -1.1229   -1.4058 O   0  0  0  0  0  0  0  0  0  0  0  0
    5.1961   -3.4361    3.7472 O   0  0  0  0  0  0  0  0  0  0  0  0
    5.8593   -1.3373    3.9315 O   0  0  0  0  0  0  0  0  0  0  0  0
    0.8201    3.3454   -2.4470 O   0  0  0  0  0  0  0  0  0  0  0  0
    7.4587   -6.4038   -0.2094 N   0  0  0  0  0  0  0  0  0  0  0  0
    5.3896   -5.9348    2.7822 N   0  0  0  0  0  0  0  0  0  0  0  0
   11.0337   -5.4557    0.0217 N   0  0  0  0  0  0  0  0  0  0  0  0
    3.2581   -3.6927    1.1872 N   0  0  0  0  0  0  0  0  0  0  0  0
   11.7065   -6.6136   -0.2045 N   0  0  0  0  0  0  0  0  0  0  0  0
    2.7975   -7.7131   -0.5637 N   0  0  0  0  0  0  0  0  0  0  0  0
    1.0623   -2.7365   -0.1771 N   0  0  0  0  0  0  0  0  0  0  0  0
    9.1979    1.8377    0.6550 N   0  0  0  0  0  0  0  0  0  0  0  0
    7.4195   -0.0018    2.6741 N   0  0  0  0  0  0  0  0  0  0  0  0
   13.7184   -5.5142   -0.0379 N   0  0  0  0  0  0  0  0  0  0  0  0
    2.9952   -2.2626    2.9707 N   0  0  0  0  0  0  0  0  0  0  0  0
    4.2355    0.6979    1.6484 N   0  0  0  0  0  0  0  0  0  0  0  0
    4.9248   -2.1866    0.2378 N   0  0  0  0  0  0  0  0  0  0  0  0
    3.3308   -7.7250    1.7199 N   0  0  0  0  0  0  0  0  0  0  0  0
    1.3654   -8.5051    0.9839 N   0  0  0  0  0  0  0  0  0  0  0  0
    8.6202   -0.4891   -2.9031 N   0  0  0  0  0  0  0  0  0  0  0  0
    5.8694    4.3167    3.1408 N   0  0  0  0  0  0  0  0  0  0  0  0
    3.6719    4.5967    3.3021 N   0  0  0  0  0  0  0  0  0  0  0  0
    8.8427   -6.6127   -0.1799 C   0  0  1  0  0  0  0  0  0  0  0  0
    8.9972   -7.1104   -1.6142 C   0  0  0  0  0  0  0  0  0  0  0  0
    7.8001   -7.9999   -1.8917 C   0  0  0  0  0  0  0  0  0  0  0  0
    6.7808   -7.3527   -1.0500 C   0  0  0  0  0  0  0  0  0  0  0  0
    6.9525   -5.5625    0.7299 C   0  0  0  0  0  0  0  0  0  0  0  0
    5.7339   -6.1192    1.3568 C   0  0  2  0  0  0  0  0  0  0  0  0
    9.7082   -5.3848    0.2220 C   0  0  0  0  0  0  0  0  0  0  0  0
    4.8781   -5.3903    0.3820 C   0  0  0  0  0  0  0  0  0  0  0  0
    4.5555   -5.7306   -1.0689 C   0  0  0  0  0  0  0  0  0  0  0  0
    3.1483   -4.6993    2.6065 C   0  0  2  0  0  0  0  0  0  0  0  0
    4.2941   -5.4559    3.4310 C   0  0  0  0  0  0  0  0  0  0  0  0
    1.7358   -4.9094    2.6731 C   0  0  0  0  0  0  0  0  0  0  0  0
    1.2646   -5.5494    3.8800 C   0  0  0  0  0  0  0  0  0  0  0  0
    3.9088   -7.1076   -1.3135 C   0  0  0  0  0  0  0  0  0  0  0  0
    0.5080   -4.4546    4.5541 C   0  0  0  0  0  0  0  0  0  0  0  0
    0.6005   -6.8159    3.3966 C   0  0  0  0  0  0  0  0  0  0  0  0
    3.0665   -3.6367   -0.1952 C   0  0  0  0  0  0  0  0  0  0  0  0
    1.7643   -3.9281   -0.6400 C   0  0  1  0  0  0  0  0  0  0  0  0
    1.7441   -5.2882   -0.0788 C   0  0  0  0  0  0  0  0  0  0  0  0
   13.0450   -6.6390   -0.3369 C   0  0  0  0  0  0  0  0  0  0  0  0
    8.0261    1.2008    0.3637 C   0  0  1  0  0  0  0  0  0  0  0  0
   -0.5869   -5.6785    0.1663 C   0  0  0  0  0  0  0  0  0  0  0  0
    1.7407   -1.5876    2.0486 C   0  0  2  0  0  0  0  0  0  0  0  0
    0.6755   -2.2757    1.0972 C   0  0  0  0  0  0  0  0  0  0  0  0
    2.5724   -8.0128    0.6552 C   0  0  0  0  0  0  0  0  0  0  0  0
    7.4498    1.6993   -1.0725 C   0  0  0  0  0  0  0  0  0  0  0  0
    6.1892    0.9419    3.1743 C   0  0  1  0  0  0  0  0  0  0  0  0
    4.7506    0.1466    0.0136 C   0  0  1  0  0  0  0  0  0  0  0  0
    8.5065    2.6269   -1.5147 C   0  0  0  0  0  0  0  0  0  0  0  0
    2.2907   -0.7551    0.9732 C   0  0  0  0  0  0  0  0  0  0  0  0
    6.1484   -0.3099   -0.1899 C   0  0  0  0  0  0  0  0  0  0  0  0
    8.0430   -0.1478    1.4363 C   0  0  0  0  0  0  0  0  0  0  0  0
    9.5955    2.3678   -0.4973 C   0  0  0  0  0  0  0  0  0  0  0  0
    6.1885    2.1674    2.3733 C   0  0  0  0  0  0  0  0  0  0  0  0
    5.4045   -2.4654    1.6581 C   0  0  2  0  0  0  0  0  0  0  0  0
    4.6355    0.7745    2.9940 C   0  0  0  0  0  0  0  0  0  0  0  0
   -0.9819   -4.9947    1.5100 C   0  0  0  0  0  0  0  0  0  0  0  0
   -0.7683   -4.6419   -0.8756 C   0  0  0  0  0  0  0  0  0  0  0  0
   -1.3158   -6.8588   -0.3248 C   0  0  0  0  0  0  0  0  0  0  0  0
    6.9947   -0.8126   -1.3830 C   0  0  0  0  0  0  0  0  0  0  0  0
    4.3201   -1.1292   -0.4758 C   0  0  0  0  0  0  0  0  0  0  0  0
    4.5648   -2.9008    2.8259 C   0  0  0  0  0  0  0  0  0  0  0  0
    1.8388    0.4766    0.2485 C   0  0  0  0  0  0  0  0  0  0  0  0
    6.5246   -1.1522   -2.6554 C   0  0  0  0  0  0  0  0  0  0  0  0
    5.2763    3.1927    2.7618 C   0  0  0  0  0  0  0  0  0  0  0  0
    8.3982   -0.7448   -1.5594 C   0  0  0  0  0  0  0  0  0  0  0  0
    7.4628   -0.7453   -3.5846 C   0  0  0  0  0  0  0  0  0  0  0  0
    5.3396   -1.3682    2.5848 C   0  0  0  0  0  0  0  0  0  0  0  0
    5.3094   -1.5814   -3.1412 C   0  0  0  0  0  0  0  0  0  0  0  0
    2.5833    1.6754    0.0271 C   0  0  0  0  0  0  0  0  0  0  0  0
    0.7606    0.2747   -0.5575 C   0  0  0  0  0  0  0  0  0  0  0  0
    7.1239   -0.6330   -4.9274 C   0  0  0  0  0  0  0  0  0  0  0  0
    3.9148    3.3859    2.7747 C   0  0  0  0  0  0  0  0  0  0  0  0
    4.9124   -1.5329   -4.4345 C   0  0  0  0  0  0  0  0  0  0  0  0
    5.8605   -1.1171   -5.3281 C   0  0  0  0  0  0  0  0  0  0  0  0
    2.4222    2.5012   -1.0268 C   0  0  0  0  0  0  0  0  0  0  0  0
    0.3958    1.2619   -1.4158 C   0  0  0  0  0  0  0  0  0  0  0  0
    4.8595    5.1056    3.5330 C   0  0  0  0  0  0  0  0  0  0  0  0
    1.2316    2.3428   -1.6498 C   0  0  0  0  0  0  0  0  0  0  0  0
    5.1246   -1.6667    4.5102 H   0  0  0  0  0  0  0  0  0  0  0  0
    1.5117    4.0193   -2.3386 H   0  0  0  0  0  0  0  0  0  0  0  0
    6.1166   -6.0698    3.4790 H   0  0  0  0  0  0  0  0  0  0  0  0
   11.4732   -4.6476    0.4415 H   0  0  0  0  0  0  0  0  0  0  0  0
    3.3484   -2.7207    1.3934 H   0  0  0  0  0  0  0  0  0  0  0  0
   11.2216   -7.4768   -0.4089 H   0  0  0  0  0  0  0  0  0  0  0  0
    0.4012   -2.5128   -0.9108 H   0  0  0  0  0  0  0  0  0  0  0  0
    9.7483    1.4233    1.4018 H   0  0  0  0  0  0  0  0  0  0  0  0
    7.3626   -0.9589    3.0947 H   0  0  0  0  0  0  0  0  0  0  0  0
   13.2911   -4.6557    0.2691 H   0  0  0  0  0  0  0  0  0  0  0  0
   14.7225   -5.5453   -0.1096 H   0  0  0  0  0  0  0  0  0  0  0  0
    2.5553   -2.4810    3.8567 H   0  0  0  0  0  0  0  0  0  0  0  0
    3.2284    0.7531    1.8499 H   0  0  0  0  0  0  0  0  0  0  0  0
    5.2135   -2.8856   -0.4700 H   0  0  0  0  0  0  0  0  0  0  0  0
    2.9630   -7.3534    2.5809 H   0  0  0  0  0  0  0  0  0  0  0  0
    3.8957   -6.9830    1.4184 H   0  0  0  0  0  0  0  0  0  0  0  0
    0.7090   -7.8274    0.5988 H   0  0  0  0  0  0  0  0  0  0  0  0
    1.1211   -8.6658    1.9462 H   0  0  0  0  0  0  0  0  0  0  0  0
    9.3449    0.1465   -3.2115 H   0  0  0  0  0  0  0  0  0  0  0  0
    6.8759    4.4308    3.1370 H   0  0  0  0  0  0  0  0  0  0  0  0
    8.9679   -7.3992    0.5754 H   0  0  0  0  0  0  0  0  0  0  0  0
    8.9613   -6.2402   -2.2852 H   0  0  0  0  0  0  0  0  0  0  0  0
    9.8901   -7.6866   -1.7810 H   0  0  0  0  0  0  0  0  0  0  0  0
    7.4739   -7.9986   -2.9408 H   0  0  0  0  0  0  0  0  0  0  0  0
    7.8918   -9.0269   -1.5451 H   0  0  0  0  0  0  0  0  0  0  0  0
    6.1961   -6.8369   -1.7975 H   0  0  0  0  0  0  0  0  0  0  0  0
    6.2266   -8.0868   -0.4634 H   0  0  0  0  0  0  0  0  0  0  0  0
    5.6332   -7.1743    1.1834 H   0  0  0  0  0  0  0  0  0  0  0  0
    4.0019   -5.4434    0.9093 H   0  0  0  0  0  0  0  0  0  0  0  0
    5.1858   -4.3679    0.4532 H   0  0  0  0  0  0  0  0  0  0  0  0
    3.8574   -5.1463   -1.6711 H   0  0  0  0  0  0  0  0  0  0  0  0
    5.3929   -5.2977   -1.6561 H   0  0  0  0  0  0  0  0  0  0  0  0
    3.0634   -4.0749    3.5074 H   0  0  0  0  0  0  0  0  0  0  0  0
    1.3281   -3.9502    2.3987 H   0  0  0  0  0  0  0  0  0  0  0  0
    1.3732   -5.5453    1.9432 H   0  0  0  0  0  0  0  0  0  0  0  0
    2.1001   -5.8873    4.4796 H   0  0  0  0  0  0  0  0  0  0  0  0
    3.5664   -7.0273   -2.3570 H   0  0  0  0  0  0  0  0  0  0  0  0
    4.6354   -7.8481   -1.1854 H   0  0  0  0  0  0  0  0  0  0  0  0
   -0.0734   -3.8180    3.8714 H   0  0  0  0  0  0  0  0  0  0  0  0
   -0.1383   -4.9318    5.2656 H   0  0  0  0  0  0  0  0  0  0  0  0
    1.2344   -3.7746    5.0185 H   0  0  0  0  0  0  0  0  0  0  0  0
    1.4215   -7.4965    3.2681 H   0  0  0  0  0  0  0  0  0  0  0  0
   -0.1166   -7.2376    4.0641 H   0  0  0  0  0  0  0  0  0  0  0  0
    0.1683   -6.8229    2.3914 H   0  0  0  0  0  0  0  0  0  0  0  0
    1.8196   -3.9746   -1.7393 H   0  0  0  0  0  0  0  0  0  0  0  0
    2.4855   -5.7433   -0.6480 H   0  0  0  0  0  0  0  0  0  0  0  0
    2.3511   -5.5023    0.7530 H   0  0  0  0  0  0  0  0  0  0  0  0
    7.3817    1.8745    0.8159 H   0  0  0  0  0  0  0  0  0  0  0  0
    1.2561   -0.9224    2.7615 H   0  0  0  0  0  0  0  0  0  0  0  0
    6.3682    1.9644   -1.1575 H   0  0  0  0  0  0  0  0  0  0  0  0
    7.3847    1.1249   -1.9776 H   0  0  0  0  0  0  0  0  0  0  0  0
    6.3191    0.9842    4.2546 H   0  0  0  0  0  0  0  0  0  0  0  0
    4.4858    0.8684   -0.7631 H   0  0  0  0  0  0  0  0  0  0  0  0
    8.0174    3.5938   -1.5423 H   0  0  0  0  0  0  0  0  0  0  0  0
    8.8375    2.3223   -2.5163 H   0  0  0  0  0  0  0  0  0  0  0  0
    3.2870   -0.8659    1.2392 H   0  0  0  0  0  0  0  0  0  0  0  0
    2.3961   -1.4102    0.1501 H   0  0  0  0  0  0  0  0  0  0  0  0
    6.3153    0.5370    0.3881 H   0  0  0  0  0  0  0  0  0  0  0  0
    6.4779   -1.0589    0.4681 H   0  0  0  0  0  0  0  0  0  0  0  0
    7.2232    2.4691    2.4167 H   0  0  0  0  0  0  0  0  0  0  0  0
    5.8152    2.0585    1.3458 H   0  0  0  0  0  0  0  0  0  0  0  0
    6.4311   -2.8068    1.6492 H   0  0  0  0  0  0  0  0  0  0  0  0
   -0.3007   -4.1890    1.7288 H   0  0  0  0  0  0  0  0  0  0  0  0
   -1.9340   -4.4881    1.4594 H   0  0  0  0  0  0  0  0  0  0  0  0
   -1.0027   -5.5116    2.4569 H   0  0  0  0  0  0  0  0  0  0  0  0
   -0.1862   -4.7395   -1.8029 H   0  0  0  0  0  0  0  0  0  0  0  0
   -1.5788   -3.9352   -0.8584 H   0  0  0  0  0  0  0  0  0  0  0  0
   -0.1988   -4.0302   -0.2725 H   0  0  0  0  0  0  0  0  0  0  0  0
   -0.9269   -7.0500   -1.3440 H   0  0  0  0  0  0  0  0  0  0  0  0
   -1.1260   -7.7813    0.2232 H   0  0  0  0  0  0  0  0  0  0  0  0
   -2.3466   -6.5688   -0.2981 H   0  0  0  0  0  0  0  0  0  0  0  0
    9.1939   -0.3849   -0.9148 H   0  0  0  0  0  0  0  0  0  0  0  0
    5.7207   -0.6420    1.9631 H   0  0  0  0  0  0  0  0  0  0  0  0
    4.3372   -1.0467    2.6921 H   0  0  0  0  0  0  0  0  0  0  0  0
    4.6678   -2.1483   -2.5229 H   0  0  0  0  0  0  0  0  0  0  0  0
    3.5000    2.0314    0.4804 H   0  0  0  0  0  0  0  0  0  0  0  0
    0.1875   -0.6312   -0.5587 H   0  0  0  0  0  0  0  0  0  0  0  0
    7.8442   -0.2745   -5.6429 H   0  0  0  0  0  0  0  0  0  0  0  0
    3.0923    2.7320    2.4868 H   0  0  0  0  0  0  0  0  0  0  0  0
    3.9376   -1.9554   -4.6483 H   0  0  0  0  0  0  0  0  0  0  0  0
    5.6513   -1.3031   -6.3687 H   0  0  0  0  0  0  0  0  0  0  0  0
    3.1933    3.2486   -1.2116 H   0  0  0  0  0  0  0  0  0  0  0  0
   -0.5697    1.1436   -1.8640 H   0  0  0  0  0  0  0  0  0  0  0  0
    5.0654    6.0460    3.9794 H   0  0  0  0  0  0  0  0  0  0  0  0
  1 37  2  0  0  0  0
  2 39  2  0  0  0  0
  3 43  2  0  0  0  0
  4 51  1  0  0  0  0
  4 54  1  0  0  0  0
  5 49  2  0  0  0  0
  6 52  2  0  0  0  0
  7 56  2  0  0  0  0
  8 64  2  0  0  0  0
  9 65  2  0  0  0  0
 10 68  2  0  0  0  0
 11 73  2  0  0  0  0
 12 74  2  0  0  0  0
 13 80  1  0  0  0  0
 13 92  1  0  0  0  0
 14 91  1  0  0  0  0
 14 93  1  0  0  0  0
 15 33  1  0  0  0  0
 15 36  1  0  0  0  0
 15 37  1  0  0  0  0
 16 43  1  0  0  0  0
 16 94  1  0  0  0  0
 17 19  1  0  0  0  0
 17 39  1  0  0  0  0
 17 95  1  0  0  0  0
 18 49  1  0  0  0  0
 18 96  1  0  0  0  0
 19 52  1  0  0  0  0
 19 97  1  0  0  0  0
 20 46  1  0  0  0  0
 20 57  2  0  0  0  0
 21 56  1  0  0  0  0
 21 98  1  0  0  0  0
 22 53  1  0  0  0  0
 22 65  1  0  0  0  0
 22 99  1  0  0  0  0
 23 64  1  0  0  0  0
 23100  1  0  0  0  0
 24 52  1  0  0  0  0
 24101  1  0  0  0  0
 24102  1  0  0  0  0
 25 74  1  0  0  0  0
 25103  1  0  0  0  0
 26 68  1  0  0  0  0
 26104  1  0  0  0  0
 27 73  1  0  0  0  0
 27105  1  0  0  0  0
 28 57  1  0  0  0  0
 28106  1  0  0  0  0
 28107  1  0  0  0  0
 29 57  1  0  0  0  0
 29108  1  0  0  0  0
 29109  1  0  0  0  0
 30 78  1  0  0  0  0
 30 79  1  0  0  0  0
 30110  1  0  0  0  0
 31 77  1  0  0  0  0
 31 90  1  0  0  0  0
 31111  1  0  0  0  0
 32 85  1  0  0  0  0
 32 90  2  0  0  0  0
 33 34  1  0  0  0  0
 33112  1  1  0  0  0
 33 39  1  0  0  0  0
 34 35  1  0  0  0  0
 34113  1  0  0  0  0
 34114  1  0  0  0  0
 35 36  1  0  0  0  0
 35115  1  0  0  0  0
 35116  1  0  0  0  0
 36117  1  0  0  0  0
 36118  1  0  0  0  0
 37 38  1  0  0  0  0
 38 16  1  0  0  0  0
 38 40  1  0  0  0  0
 38119  1  6  0  0  0
 40 41  1  0  0  0  0
 40120  1  0  0  0  0
 40121  1  0  0  0  0
 41 46  1  0  0  0  0
 41122  1  0  0  0  0
 41123  1  0  0  0  0
 42 18  1  0  0  0  0
 42 43  1  0  0  0  0
 42 44  1  0  0  0  0
 42124  1  1  0  0  0
 44 45  1  0  0  0  0
 44125  1  0  0  0  0
 44126  1  0  0  0  0
 45 47  1  0  0  0  0
 45 48  1  0  0  0  0
 45127  1  0  0  0  0
 46128  1  0  0  0  0
 46129  1  0  0  0  0
 47130  1  0  0  0  0
 47131  1  0  0  0  0
 47132  1  0  0  0  0
 48133  1  0  0  0  0
 48134  1  0  0  0  0
 48135  1  0  0  0  0
 50 51  1  0  0  0  0
 50136  1  6  0  0  0
 50 49  1  0  0  0  0
 50 21  1  0  0  0  0
 51137  1  0  0  0  0
 51138  1  0  0  0  0
 53 58  1  0  0  0  0
 53 64  1  0  0  0  0
 53139  1  1  0  0  0
 54 69  1  0  0  0  0
 54 70  1  0  0  0  0
 54 71  1  0  0  0  0
 55 25  1  0  0  0  0
 55 56  1  0  0  0  0
 55 62  1  0  0  0  0
 55140  1  1  0  0  0
 58 61  1  0  0  0  0
 58141  1  0  0  0  0
 58142  1  0  0  0  0
 59 23  1  0  0  0  0
 59 66  1  0  0  0  0
 59 68  1  0  0  0  0
 59143  1  1  0  0  0
 60 26  1  0  0  0  0
 60 63  1  0  0  0  0
 60 73  1  0  0  0  0
 60144  1  6  0  0  0
 61 65  1  0  0  0  0
 61145  1  0  0  0  0
 61146  1  0  0  0  0
 62 75  1  0  0  0  0
 62147  1  0  0  0  0
 62148  1  0  0  0  0
 63 72  1  0  0  0  0
 63149  1  0  0  0  0
 63150  1  0  0  0  0
 66 77  1  0  0  0  0
 66151  1  0  0  0  0
 66152  1  0  0  0  0
 67 27  1  0  0  0  0
 67 74  1  0  0  0  0
 67 80  1  0  0  0  0
 67153  1  1  0  0  0
 69154  1  0  0  0  0
 69155  1  0  0  0  0
 69156  1  0  0  0  0
 70157  1  0  0  0  0
 70158  1  0  0  0  0
 70159  1  0  0  0  0
 71160  1  0  0  0  0
 71161  1  0  0  0  0
 71162  1  0  0  0  0
 72 76  1  0  0  0  0
 72 78  2  0  0  0  0
 75 82  2  0  0  0  0
 75 83  1  0  0  0  0
 76 79  1  0  0  0  0
 76 81  2  0  0  0  0
 77 85  2  0  0  0  0
 78163  1  0  0  0  0
 79 84  2  0  0  0  0
 80164  1  0  0  0  0
 80165  1  0  0  0  0
 81 86  1  0  0  0  0
 81166  1  0  0  0  0
 82 88  1  0  0  0  0
 82167  1  0  0  0  0
 83 89  2  0  0  0  0
 83168  1  0  0  0  0
 84 87  1  0  0  0  0
 84169  1  0  0  0  0
 85170  1  0  0  0  0
 86 87  2  0  0  0  0
 86171  1  0  0  0  0
 87172  1  0  0  0  0
 88 91  2  0  0  0  0
 88173  1  0  0  0  0
 89 91  1  0  0  0  0
 89174  1  0  0  0  0
 90175  1  0  0  0  0
M  END
>  <DRUGBANK_ID>
DB00014

>  <SECONDARY_ACCESSION_NUMBERS>
BTD00113; BIOD00113

>  <COMMON_NAME>
Goserelin

>  <CAS_NUMBER>
65807-02-5

>  <UNII>
0F65R8P09N

>  <SYNONYMS>
Goserelin; Goserelina

$$$$
