
 OpenBabel10282417223D

 43 46  0  0  0  0  0  0  0  0999 V2000
    1.4449   -1.2178   -0.3170 N   0  0  0  0  0  0  0  0  0  0  0  0
    0.1445   -0.7108   -0.3261 C   0  0  0  0  0  0  0  0  0  0  0  0
    2.2809   -0.0802   -0.1381 C   0  0  0  0  0  0  0  0  0  0  0  0
    1.7700   -2.7060   -0.3538 C   0  0  0  0  0  0  0  0  0  0  0  0
    0.2448    0.6529   -0.1108 C   0  0  0  0  0  0  0  0  0  0  0  0
   -1.1125   -1.3126   -0.4718 C   0  0  0  0  0  0  0  0  0  0  0  0
    1.5542    1.0277   -0.0619 N   0  0  0  0  0  0  0  0  0  0  0  0
    3.7939   -0.0004    0.0279 C   0  0  0  0  0  0  0  0  0  0  0  0
    1.3581   -3.6186    0.8805 C   0  0  0  0  0  0  0  0  0  0  0  0
   -0.9234    1.4366    0.0014 C   0  0  0  0  0  0  0  0  0  0  0  0
   -2.2522   -0.5744   -0.1630 C   0  0  0  0  0  0  0  0  0  0  0  0
    4.4084   -0.4440    1.3078 N   0  0  0  0  0  0  0  0  0  0  0  0
    0.0275   -3.6071    1.3339 C   0  0  0  0  0  0  0  0  0  0  0  0
    2.2254   -4.3752    1.7112 C   0  0  0  0  0  0  0  0  0  0  0  0
   -2.1706    0.7948    0.0188 C   0  0  0  0  0  0  0  0  0  0  0  0
    4.0875   -1.8238    1.6041 C   0  0  0  0  0  0  0  0  0  0  0  0
    3.9922    0.2996    2.5188 C   0  0  0  0  0  0  0  0  0  0  0  0
   -0.3768   -4.0290    2.6071 C   0  0  0  0  0  0  0  0  0  0  0  0
    1.8126   -4.8654    2.9967 C   0  0  0  0  0  0  0  0  0  0  0  0
    2.7902   -1.6837    2.3876 C   0  0  0  0  0  0  0  0  0  0  0  0
    2.9963   -0.5388    3.2960 C   0  0  0  0  0  0  0  0  0  0  0  0
    0.5078   -4.6407    3.4480 C   0  0  0  0  0  0  0  0  0  0  0  0
   -0.0026   -5.1057    5.0229 Cl  0  0  0  0  0  0  0  0  0  0  0  0
    1.2657   -3.0788   -1.2502 H   0  0  0  0  0  0  0  0  0  0  0  0
    2.8335   -2.7745   -0.5868 H   0  0  0  0  0  0  0  0  0  0  0  0
   -1.2163   -2.3401   -0.7767 H   0  0  0  0  0  0  0  0  0  0  0  0
    4.2711   -0.5112   -0.8180 H   0  0  0  0  0  0  0  0  0  0  0  0
    4.0922    1.0544   -0.0982 H   0  0  0  0  0  0  0  0  0  0  0  0
   -0.8623    2.5144    0.0967 H   0  0  0  0  0  0  0  0  0  0  0  0
   -3.2118   -1.0857   -0.1096 H   0  0  0  0  0  0  0  0  0  0  0  0
   -0.7619   -3.2321    0.7390 H   0  0  0  0  0  0  0  0  0  0  0  0
    3.3002   -4.4450    1.5173 H   0  0  0  0  0  0  0  0  0  0  0  0
   -3.0843    1.3723    0.1353 H   0  0  0  0  0  0  0  0  0  0  0  0
    4.8444   -2.2931    2.2389 H   0  0  0  0  0  0  0  0  0  0  0  0
    4.1281   -2.4209    0.6923 H   0  0  0  0  0  0  0  0  0  0  0  0
    3.5908    1.2900    2.3048 H   0  0  0  0  0  0  0  0  0  0  0  0
    4.8641    0.4095    3.1716 H   0  0  0  0  0  0  0  0  0  0  0  0
   -1.4067   -3.8245    2.9109 H   0  0  0  0  0  0  0  0  0  0  0  0
    2.5272   -5.3046    3.6866 H   0  0  0  0  0  0  0  0  0  0  0  0
    1.9097   -1.4077    1.8248 H   0  0  0  0  0  0  0  0  0  0  0  0
    2.5229   -2.5256    2.9985 H   0  0  0  0  0  0  0  0  0  0  0  0
    2.0363   -0.0494    3.4871 H   0  0  0  0  0  0  0  0  0  0  0  0
    3.3845   -0.9623    4.2267 H   0  0  0  0  0  0  0  0  0  0  0  0
  1  2  1  0  0  0  0
  1  3  1  0  0  0  0
  1  4  1  0  0  0  0
  2  5  1  0  0  0  0
  2  6  2  0  0  0  0
  3  7  2  0  0  0  0
  3  8  1  0  0  0  0
  4  9  1  0  0  0  0
  4 24  1  0  0  0  0
  4 25  1  0  0  0  0
  5 10  2  0  0  0  0
  5  7  1  0  0  0  0
  6 11  1  0  0  0  0
  6 26  1  0  0  0  0
  8 12  1  0  0  0  0
  8 27  1  0  0  0  0
  8 28  1  0  0  0  0
  9 13  2  0  0  0  0
  9 14  1  0  0  0  0
 10 15  1  0  0  0  0
 10 29  1  0  0  0  0
 11 15  2  0  0  0  0
 11 30  1  0  0  0  0
 12 16  1  0  0  0  0
 12 17  1  0  0  0  0
 13 18  1  0  0  0  0
 13 31  1  0  0  0  0
 14 19  2  0  0  0  0
 14 32  1  0  0  0  0
 15 33  1  0  0  0  0
 16 20  1  0  0  0  0
 16 34  1  0  0  0  0
 16 35  1  0  0  0  0
 17 21  1  0  0  0  0
 17 36  1  0  0  0  0
 17 37  1  0  0  0  0
 18 22  2  0  0  0  0
 18 38  1  0  0  0  0
 19 22  1  0  0  0  0
 19 39  1  0  0  0  0
 20 21  1  0  0  0  0
 20 40  1  0  0  0  0
 20 41  1  0  0  0  0
 21 42  1  0  0  0  0
 21 43  1  0  0  0  0
 22 23  1  0  0  0  0
M  END
>  <DRUGBANK_ID>
DB15932

>  <COMMON_NAME>
Clemizole

>  <CAS_NUMBER>
442-52-4

>  <UNII>
T97CB3796L

>  <SYNONYMS>
Clemizol; Clemizole; Clemizolo; Clemizolum

$$$$
