
 OpenBabel10282417223D

 56 55  0  0  0  0  0  0  0  0999 V2000
    0.9085   -0.1472    0.0462 C   0  0  0  0  0  0  0  0  0  0  0  0
    0.4502   -0.1544   -1.3884 C   0  0  0  0  0  0  0  0  0  0  0  0
   -0.3931   -1.2810   -1.8020 C   0  0  0  0  0  0  0  0  0  0  0  0
   -0.8854   -1.4403   -3.0396 C   0  0  0  0  0  0  0  0  0  0  0  0
   -1.7184   -2.5294   -3.4958 C   0  0  0  0  0  0  0  0  0  0  0  0
   -2.2046   -2.6708   -4.7501 C   0  0  0  0  0  0  0  0  0  0  0  0
   -1.9213   -1.6674   -5.8607 C   0  0  0  0  0  0  0  0  0  0  0  0
   -3.0518   -3.8159   -5.1389 C   0  0  0  0  0  0  0  0  0  0  0  0
   -3.4411   -4.8312   -4.3401 C   0  0  0  0  0  0  0  0  0  0  0  0
   -4.2943   -5.9321   -4.8364 C   0  0  0  0  0  0  0  0  0  0  0  0
   -4.5768   -6.8519   -3.8902 O   0  0  0  0  0  0  0  0  0  0  0  0
   -4.7112   -6.0179   -5.9825 O   0  0  0  0  0  0  0  0  0  0  0  0
    0.8190    0.8435   -2.2175 C   0  0  0  0  0  0  0  0  0  0  0  0
    1.6479    1.9684   -1.8461 C   0  0  0  0  0  0  0  0  0  0  0  0
    1.9701    2.9195   -2.7291 C   0  0  0  0  0  0  0  0  0  0  0  0
    2.7950    4.0566   -2.3945 C   0  0  0  0  0  0  0  0  0  0  0  0
    3.1578    5.0502   -3.2341 C   0  0  0  0  0  0  0  0  0  0  0  0
    2.7234    5.0862   -4.6794 C   0  0  0  0  0  0  0  0  0  0  0  0
    4.0046    6.1819   -2.8197 C   0  0  0  0  0  0  0  0  0  0  0  0
    4.5011    6.3490   -1.5840 C   0  0  0  0  0  0  0  0  0  0  0  0
    5.3350    7.4398   -1.1286 C   0  0  0  0  0  0  0  0  0  0  0  0
    5.8224    7.5829    0.1259 C   0  0  0  0  0  0  0  0  0  0  0  0
    5.5403    6.5806    1.2381 C   0  0  0  0  0  0  0  0  0  0  0  0
    6.6700    8.7283    0.5157 C   0  0  0  0  0  0  0  0  0  0  0  0
    7.0601    9.7442   -0.2820 C   0  0  0  0  0  0  0  0  0  0  0  0
    7.9135   10.8450    0.2150 C   0  0  0  0  0  0  0  0  0  0  0  0
    8.1962   11.7652   -0.7310 O   0  0  0  0  0  0  0  0  0  0  0  0
    8.3303   10.9307    1.3611 O   0  0  0  0  0  0  0  0  0  0  0  0
    0.5489   -1.0032    0.6206 H   0  0  0  0  0  0  0  0  0  0  0  0
    0.5506    0.7603    0.5472 H   0  0  0  0  0  0  0  0  0  0  0  0
    2.0044   -0.1591    0.0874 H   0  0  0  0  0  0  0  0  0  0  0  0
   -0.6233   -2.0252   -1.0420 H   0  0  0  0  0  0  0  0  0  0  0  0
   -0.6451   -0.6919   -3.7763 H   0  0  0  0  0  0  0  0  0  0  0  0
   -1.9422   -3.2657   -2.7314 H   0  0  0  0  0  0  0  0  0  0  0  0
   -1.3844   -2.1345   -6.6922 H   0  0  0  0  0  0  0  0  0  0  0  0
   -2.8449   -1.2109   -6.2302 H   0  0  0  0  0  0  0  0  0  0  0  0
   -1.2931   -0.8274   -5.5541 H   0  0  0  0  0  0  0  0  0  0  0  0
   -3.3846   -3.8212   -6.1806 H   0  0  0  0  0  0  0  0  0  0  0  0
   -3.1463   -4.8831   -3.3040 H   0  0  0  0  0  0  0  0  0  0  0  0
   -4.2075   -6.7138   -2.9991 H   0  0  0  0  0  0  0  0  0  0  0  0
    0.4981    0.8554   -3.2558 H   0  0  0  0  0  0  0  0  0  0  0  0
    2.0123    2.0346   -0.8264 H   0  0  0  0  0  0  0  0  0  0  0  0
    1.5907    2.8244   -3.7383 H   0  0  0  0  0  0  0  0  0  0  0  0
    3.1237    4.0580   -1.3584 H   0  0  0  0  0  0  0  0  0  0  0  0
    2.1284    5.9811   -4.8822 H   0  0  0  0  0  0  0  0  0  0  0  0
    3.5908    5.0563   -5.3448 H   0  0  0  0  0  0  0  0  0  0  0  0
    2.0970    4.2408   -4.9694 H   0  0  0  0  0  0  0  0  0  0  0  0
    4.2313    6.9232   -3.5850 H   0  0  0  0  0  0  0  0  0  0  0  0
    4.2635    5.6032   -0.8442 H   0  0  0  0  0  0  0  0  0  0  0  0
    5.5592    8.1764   -1.8927 H   0  0  0  0  0  0  0  0  0  0  0  0
    6.4643    6.1248    1.6079 H   0  0  0  0  0  0  0  0  0  0  0  0
    5.0040    7.0483    2.0698 H   0  0  0  0  0  0  0  0  0  0  0  0
    4.9122    5.7402    0.9327 H   0  0  0  0  0  0  0  0  0  0  0  0
    7.0029    8.7335    1.5577 H   0  0  0  0  0  0  0  0  0  0  0  0
    6.7655    9.7965   -1.3180 H   0  0  0  0  0  0  0  0  0  0  0  0
    7.8271   11.6273   -1.6222 H   0  0  0  0  0  0  0  0  0  0  0  0
  1  2  1  0  0  0  0
  1 29  1  0  0  0  0
  1 30  1  0  0  0  0
  1 31  1  0  0  0  0
  2  3  1  0  0  0  0
  2 13  2  0  0  0  0
  3  4  2  0  0  0  0
  3 32  1  0  0  0  0
  4  5  1  0  0  0  0
  4 33  1  0  0  0  0
  5  6  2  0  0  0  0
  5 34  1  0  0  0  0
  6  7  1  0  0  0  0
  6  8  1  0  0  0  0
  7 35  1  0  0  0  0
  7 36  1  0  0  0  0
  7 37  1  0  0  0  0
  8  9  2  0  0  0  0
  8 38  1  0  0  0  0
  9 10  1  0  0  0  0
  9 39  1  0  0  0  0
 10 11  1  0  0  0  0
 10 12  2  0  0  0  0
 11 40  1  0  0  0  0
 13 14  1  0  0  0  0
 13 41  1  0  0  0  0
 14 15  2  0  0  0  0
 14 42  1  0  0  0  0
 15 16  1  0  0  0  0
 15 43  1  0  0  0  0
 16 17  2  0  0  0  0
 16 44  1  0  0  0  0
 17 18  1  0  0  0  0
 17 19  1  0  0  0  0
 18 45  1  0  0  0  0
 18 46  1  0  0  0  0
 18 47  1  0  0  0  0
 19 20  2  0  0  0  0
 19 48  1  0  0  0  0
 20 21  1  0  0  0  0
 20 49  1  0  0  0  0
 21 22  2  0  0  0  0
 21 50  1  0  0  0  0
 22 23  1  0  0  0  0
 22 24  1  0  0  0  0
 23 51  1  0  0  0  0
 23 52  1  0  0  0  0
 23 53  1  0  0  0  0
 24 25  2  0  0  0  0
 24 54  1  0  0  0  0
 25 26  1  0  0  0  0
 25 55  1  0  0  0  0
 26 27  1  0  0  0  0
 26 28  2  0  0  0  0
 27 56  1  0  0  0  0
M  END
>  <DRUGBANK_ID>
DB15201

>  <COMMON_NAME>
Norbixin

>  <CAS_NUMBER>
542-40-5

>  <UNII>
E8M59E17AI

$$$$
