T2D
 OpenBabel10282417173D

 22 23  0  0  0  0  0  0  0  0999 V2000
    1.4016   -0.1858    0.0237 C   0  0  0  0  0  0  0  0  0  0  0  0
    0.5210   -1.2718    0.0270 C   0  0  0  0  0  0  0  0  0  0  0  0
   -0.8543   -1.0552    0.0041 C   0  0  0  0  0  0  0  0  0  0  0  0
   -1.3466    0.2494    0.0229 C   0  0  0  0  0  0  0  0  0  0  0  0
   -0.4643    1.3393    0.0571 C   0  0  0  0  0  0  0  0  0  0  0  0
    0.9155    1.1246   -0.0064 C   0  0  0  0  0  0  0  0  0  0  0  0
    1.8162    2.1984   -0.2477 N   0  0  0  0  0  0  0  0  0  0  0  0
    2.7483    2.2475   -1.6466 S   0  0  0  0  0  0  0  0  0  0  0  0
    2.9899    3.8832   -1.5499 N   0  0  0  0  0  0  0  0  0  0  0  0
    2.3619    4.4579   -0.4430 C   0  0  0  0  0  0  0  0  0  0  0  0
    2.0326    3.3790    0.5989 C   0  0  0  0  0  0  0  0  0  0  0  0
    2.1951    5.6601   -0.3251 O   0  0  0  0  0  0  0  0  0  0  0  0
    4.0070    1.6011   -1.3931 O   0  0  0  0  0  0  0  0  0  0  0  0
    1.9409    1.9839   -2.8142 O   0  0  0  0  0  0  0  0  0  0  0  0
    2.4720   -0.3761    0.0208 H   0  0  0  0  0  0  0  0  0  0  0  0
    0.9109   -2.2867    0.0150 H   0  0  0  0  0  0  0  0  0  0  0  0
   -1.5388   -1.9007   -0.0281 H   0  0  0  0  0  0  0  0  0  0  0  0
   -2.4212    0.4155   -0.0205 H   0  0  0  0  0  0  0  0  0  0  0  0
   -0.8773    2.3427    0.0842 H   0  0  0  0  0  0  0  0  0  0  0  0
    3.4227    4.3950   -2.3067 H   0  0  0  0  0  0  0  0  0  0  0  0
    1.1867    3.6682    1.2202 H   0  0  0  0  0  0  0  0  0  0  0  0
    2.9349    3.2321    1.2045 H   0  0  0  0  0  0  0  0  0  0  0  0
  1  2  1  0  0  0  0
  1  6  2  0  0  0  0
  1 15  1  0  0  0  0
  2  3  2  0  0  0  0
  2 16  1  0  0  0  0
  3  4  1  0  0  0  0
  3 17  1  0  0  0  0
  4  5  2  0  0  0  0
  4 18  1  0  0  0  0
  5  6  1  0  0  0  0
  5 19  1  0  0  0  0
  6  7  1  0  0  0  0
  7  8  1  0  0  0  0
  7 11  1  0  0  0  0
  8  9  1  0  0  0  0
  8 13  2  0  0  0  0
  8 14  2  0  0  0  0
  9 10  1  0  0  0  0
  9 20  1  0  0  0  0
 10 11  1  0  0  0  0
 10 12  2  0  0  0  0
 11 21  1  0  0  0  0
 11 22  1  0  0  0  0
M  END
>  <DRUGBANK_ID>
DB08593

>  <COMMON_NAME>
1,2,5-THIADIAZOLIDIN-3-ONE-1,1-DIOXIDE

>  <UNII>
L4SBH33TJR

$$$$
