BP7
 OpenBabel10282417163D

 24 25  0  0  0  0  0  0  0  0999 V2000
   -1.9374   -0.6974   -0.0477 C   0  0  0  0  0  0  0  0  0  0  0  0
   -0.7170   -1.3989   -0.0296 C   0  0  0  0  0  0  0  0  0  0  0  0
    0.4891   -0.6966   -0.0097 C   0  0  0  0  0  0  0  0  0  0  0  0
    1.6982   -1.3387    0.0029 O   0  0  0  0  0  0  0  0  0  0  0  0
    0.4965    0.6949   -0.0000 C   0  0  0  0  0  0  0  0  0  0  0  0
    1.6745    1.3856    0.0077 O   0  0  0  0  0  0  0  0  0  0  0  0
   -0.6910    1.4069    0.0012 C   0  0  0  0  0  0  0  0  0  0  0  0
   -1.9013    0.7106   -0.0252 C   0  0  0  0  0  0  0  0  0  0  0  0
   -3.2350   -1.3945   -0.0500 C   0  0  0  0  0  0  0  0  0  0  0  0
   -3.5836   -2.2697    0.9896 C   0  0  0  0  0  0  0  0  0  0  0  0
   -4.8521   -2.8552    1.0438 C   0  0  0  0  0  0  0  0  0  0  0  0
   -5.7974   -2.5649    0.0623 C   0  0  0  0  0  0  0  0  0  0  0  0
   -5.4705   -1.7030   -0.9801 C   0  0  0  0  0  0  0  0  0  0  0  0
   -4.1913   -1.1425   -1.0500 C   0  0  0  0  0  0  0  0  0  0  0  0
   -0.7243   -2.4845   -0.0367 H   0  0  0  0  0  0  0  0  0  0  0  0
    1.5331   -2.2970   -0.0004 H   0  0  0  0  0  0  0  0  0  0  0  0
    2.3687    0.6986   -0.0159 H   0  0  0  0  0  0  0  0  0  0  0  0
   -0.6782    2.4912    0.0266 H   0  0  0  0  0  0  0  0  0  0  0  0
   -2.8303    1.2785   -0.0085 H   0  0  0  0  0  0  0  0  0  0  0  0
   -2.8753   -2.4762    1.7894 H   0  0  0  0  0  0  0  0  0  0  0  0
   -5.1082   -3.5185    1.8652 H   0  0  0  0  0  0  0  0  0  0  0  0
   -6.7893   -3.0069    0.1138 H   0  0  0  0  0  0  0  0  0  0  0  0
   -6.2144   -1.4539   -1.7332 H   0  0  0  0  0  0  0  0  0  0  0  0
   -3.9480   -0.4928   -1.8883 H   0  0  0  0  0  0  0  0  0  0  0  0
  1  2  2  0  0  0  0
  1  8  1  0  0  0  0
  1  9  1  0  0  0  0
  2  3  1  0  0  0  0
  2 15  1  0  0  0  0
  3  4  1  0  0  0  0
  3  5  2  0  0  0  0
  4 16  1  0  0  0  0
  5  6  1  0  0  0  0
  5  7  1  0  0  0  0
  6 17  1  0  0  0  0
  7  8  2  0  0  0  0
  7 18  1  0  0  0  0
  8 19  1  0  0  0  0
  9 10  1  0  0  0  0
  9 14  2  0  0  0  0
 10 11  2  0  0  0  0
 10 20  1  0  0  0  0
 11 12  1  0  0  0  0
 11 21  1  0  0  0  0
 12 13  2  0  0  0  0
 12 22  1  0  0  0  0
 13 14  1  0  0  0  0
 13 23  1  0  0  0  0
 14 24  1  0  0  0  0
M  END
>  <DRUGBANK_ID>
DB07478

>  <COMMON_NAME>
3,4-Biphenyldiol

>  <CAS_NUMBER>
92-05-7

>  <UNII>
T7L7XJ8RU1

>  <SYNONYMS>
4-Phenyl-1,2-benzenediol; 4-Phenylcatechol; 4-Phenylpyrocatechol; Biphenyl-3,4-diol

$$$$
