
 OpenBabel10282417203D

 70 71  0  0  0  0  0  0  0  0999 V2000
    1.0494    0.0530    0.2031 C   0  0  0  0  0  0  0  0  0  0  0  0
    0.6677    1.5088    0.0104 C   0  0  0  0  0  0  0  0  0  0  0  0
    1.2500    1.9544   -1.3359 C   0  0  0  0  0  0  0  0  0  0  0  0
    0.6765    1.0171   -2.4036 C   0  0  0  0  0  0  0  0  0  0  0  0
   -0.8286    1.0670   -2.1959 C   0  0  0  0  0  0  0  0  0  0  0  0
   -1.1291    2.5351   -2.2654 C   0  0  0  0  0  0  0  0  0  0  0  0
   -0.5954    2.7074   -3.8482 C   0  0  0  0  0  0  0  0  0  0  0  0
   -1.6053    1.4062   -4.9968 C   0  0  0  0  0  0  0  0  0  0  0  0
   -3.3125    1.8290   -5.5612 N   0  0  0  0  0  0  0  0  0  0  0  0
   -4.3095    0.8088   -5.4268 C   0  0  0  0  0  0  0  0  0  0  0  0
   -5.4967    1.4210   -4.6884 C   0  0  0  0  0  0  0  0  0  0  0  0
   -5.4401    2.8970   -4.9695 C   0  0  0  0  0  0  0  0  0  0  0  0
   -4.2326    3.2612   -5.5365 C   0  0  0  0  0  0  0  0  0  0  0  0
   -3.8150    4.7756   -5.5575 C   0  0  0  0  0  0  0  0  0  0  0  0
   -4.7539    5.7592   -5.1516 C   0  0  0  0  0  0  0  0  0  0  0  0
   -6.0346    5.3144   -4.7373 C   0  0  0  0  0  0  0  0  0  0  0  0
   -6.3397    3.9038   -4.5933 C   0  0  0  0  0  0  0  0  0  0  0  0
   -7.6826    3.4169   -4.1336 C   0  0  0  0  0  0  0  0  0  0  0  0
   -7.1613    6.3187   -4.5375 C   0  0  0  0  0  0  0  0  0  0  0  0
   -8.2765    6.1206   -5.5378 C   0  0  0  0  0  0  0  0  0  0  0  0
   -9.4493    5.9180   -5.2647 O   0  0  0  0  0  0  0  0  0  0  0  0
   -7.8722    6.1797   -6.8225 O   0  0  0  0  0  0  0  0  0  0  0  0
   -4.3775    7.2374   -5.2080 C   0  0  0  0  0  0  0  0  0  0  0  0
   -2.5154    5.3713   -5.8180 N   0  0  0  0  0  0  0  0  0  0  0  0
   -1.3278    4.7437   -6.0775 C   0  0  0  0  0  0  0  0  0  0  0  0
   -0.2874    5.2582   -6.2745 O   0  0  0  0  0  0  0  0  0  0  0  0
   -1.5732    3.3003   -5.9514 C   0  0  0  0  0  0  0  0  0  0  0  0
   -2.5651    3.2268   -4.1789 C   0  0  0  0  0  0  0  0  0  0  0  0
   -2.3953    2.8291   -7.4324 C   0  0  0  0  0  0  0  0  0  0  0  0
    0.1185    2.5720   -6.2902 C   0  0  0  0  0  0  0  0  0  0  0  0
    0.6356   -0.6090   -0.5697 H   0  0  0  0  0  0  0  0  0  0  0  0
    0.6723   -0.3263    1.1460 H   0  0  0  0  0  0  0  0  0  0  0  0
    2.1364   -0.0236    0.1450 H   0  0  0  0  0  0  0  0  0  0  0  0
   -0.4290    1.6007    0.0725 H   0  0  0  0  0  0  0  0  0  0  0  0
    1.0178    2.1587    0.8064 H   0  0  0  0  0  0  0  0  0  0  0  0
    1.0099    3.0149   -1.5106 H   0  0  0  0  0  0  0  0  0  0  0  0
    2.3327    1.9524   -1.3773 H   0  0  0  0  0  0  0  0  0  0  0  0
    1.0130    1.3164   -3.4007 H   0  0  0  0  0  0  0  0  0  0  0  0
    1.0260   -0.0056   -2.4002 H   0  0  0  0  0  0  0  0  0  0  0  0
   -1.3218    0.4876   -2.9601 H   0  0  0  0  0  0  0  0  0  0  0  0
   -1.2724    0.5934   -1.3250 H   0  0  0  0  0  0  0  0  0  0  0  0
   -2.2017    2.6572   -1.9915 H   0  0  0  0  0  0  0  0  0  0  0  0
   -0.7684    3.3393   -1.6030 H   0  0  0  0  0  0  0  0  0  0  0  0
   -0.7648    3.8242   -3.9885 H   0  0  0  0  0  0  0  0  0  0  0  0
    0.4900    2.8869   -3.9085 H   0  0  0  0  0  0  0  0  0  0  0  0
   -1.3267    1.1901   -6.0285 H   0  0  0  0  0  0  0  0  0  0  0  0
   -1.4881    0.3737   -4.6845 H   0  0  0  0  0  0  0  0  0  0  0  0
   -3.8611   -0.0493   -4.9224 H   0  0  0  0  0  0  0  0  0  0  0  0
   -4.5764    0.5334   -6.4485 H   0  0  0  0  0  0  0  0  0  0  0  0
   -5.3922    1.2183   -3.6127 H   0  0  0  0  0  0  0  0  0  0  0  0
   -6.4168    0.9966   -5.0753 H   0  0  0  0  0  0  0  0  0  0  0  0
   -8.0979    2.8062   -4.9414 H   0  0  0  0  0  0  0  0  0  0  0  0
   -7.5879    2.8344   -3.2159 H   0  0  0  0  0  0  0  0  0  0  0  0
   -8.3912    4.2107   -3.9240 H   0  0  0  0  0  0  0  0  0  0  0  0
   -7.5341    6.2263   -3.5128 H   0  0  0  0  0  0  0  0  0  0  0  0
   -6.8788    7.3658   -4.6273 H   0  0  0  0  0  0  0  0  0  0  0  0
   -8.6678    5.9581   -7.3492 H   0  0  0  0  0  0  0  0  0  0  0  0
   -3.6000    7.4975   -4.4750 H   0  0  0  0  0  0  0  0  0  0  0  0
   -4.0232    7.4768   -6.2174 H   0  0  0  0  0  0  0  0  0  0  0  0
   -5.1857    7.9390   -5.0249 H   0  0  0  0  0  0  0  0  0  0  0  0
   -2.3313    6.3590   -5.7130 H   0  0  0  0  0  0  0  0  0  0  0  0
   -2.7969    4.0835   -3.5470 H   0  0  0  0  0  0  0  0  0  0  0  0
   -3.4147    2.5282   -3.8144 H   0  0  0  0  0  0  0  0  0  0  0  0
   -2.3355    2.3112   -3.6365 H   0  0  0  0  0  0  0  0  0  0  0  0
   -1.8573    3.0439   -8.3472 H   0  0  0  0  0  0  0  0  0  0  0  0
   -2.5653    1.7342   -7.5070 H   0  0  0  0  0  0  0  0  0  0  0  0
   -3.3976    3.2629   -7.5542 H   0  0  0  0  0  0  0  0  0  0  0  0
    0.4348    2.7541   -7.3180 H   0  0  0  0  0  0  0  0  0  0  0  0
    0.9394    2.8384   -5.6183 H   0  0  0  0  0  0  0  0  0  0  0  0
    0.2565    1.4594   -6.2460 H   0  0  0  0  0  0  0  0  0  0  0  0
  1  2  1  0  0  0  0
  1 31  1  0  0  0  0
  1 32  1  0  0  0  0
  1 33  1  0  0  0  0
  2  3  1  0  0  0  0
  2 34  1  0  0  0  0
  2 35  1  0  0  0  0
  3  4  1  0  0  0  0
  3 36  1  0  0  0  0
  3 37  1  0  0  0  0
  4  5  1  0  0  0  0
  4 38  1  0  0  0  0
  4 39  1  0  0  0  0
  5  6  1  0  0  0  0
  5 40  1  0  0  0  0
  5 41  1  0  0  0  0
  6  7  1  0  0  0  0
  6 42  1  0  0  0  0
  6 43  1  0  0  0  0
  7  8  1  0  0  0  0
  7 44  1  0  0  0  0
  7 45  1  0  0  0  0
  8  9  1  0  0  0  0
  8 46  1  0  0  0  0
  8 47  1  0  0  0  0
  9 10  1  0  0  0  0
  9 13  1  0  0  0  0
 10 11  1  0  0  0  0
 10 48  1  0  0  0  0
 10 49  1  0  0  0  0
 11 12  1  0  0  0  0
 11 50  1  0  0  0  0
 11 51  1  0  0  0  0
 12 13  2  0  0  0  0
 12 17  1  0  0  0  0
 13 14  1  0  0  0  0
 14 15  2  0  0  0  0
 14 24  1  0  0  0  0
 15 16  1  0  0  0  0
 15 23  1  0  0  0  0
 16 17  2  0  0  0  0
 16 19  1  0  0  0  0
 17 18  1  0  0  0  0
 18 52  1  0  0  0  0
 18 53  1  0  0  0  0
 18 54  1  0  0  0  0
 19 20  1  0  0  0  0
 19 55  1  0  0  0  0
 19 56  1  0  0  0  0
 20 21  2  0  0  0  0
 20 22  1  0  0  0  0
 22 57  1  0  0  0  0
 23 58  1  0  0  0  0
 23 59  1  0  0  0  0
 23 60  1  0  0  0  0
 24 25  1  0  0  0  0
 24 61  1  0  0  0  0
 25 26  2  0  0  0  0
 25 27  1  0  0  0  0
 27 28  1  0  0  0  0
 27 29  1  0  0  0  0
 27 30  1  0  0  0  0
 28 62  1  0  0  0  0
 28 63  1  0  0  0  0
 28 64  1  0  0  0  0
 29 65  1  0  0  0  0
 29 66  1  0  0  0  0
 29 67  1  0  0  0  0
 30 68  1  0  0  0  0
 30 69  1  0  0  0  0
 30 70  1  0  0  0  0
M  END
>  <DRUGBANK_ID>
DB12971

>  <COMMON_NAME>
Pactimibe

>  <CAS_NUMBER>
189198-30-9

>  <UNII>
D874R9PZ9T

>  <SYNONYMS>
Pactimibe

$$$$
