
 OpenBabel10282417203D

 72 77  0  0  0  0  0  0  0  0999 V2000
    1.0781   -0.0882   -0.0921 C   0  0  0  0  0  0  0  0  0  0  0  0
    0.6364    1.3703   -0.2388 C   0  0  0  0  0  0  0  0  0  0  0  0
    1.1109    1.9165   -1.6002 C   0  0  0  0  0  0  0  0  0  0  0  0
   -0.9044    1.4412   -0.2136 C   0  0  0  0  0  0  0  0  0  0  0  0
    1.3005    2.1294    0.8771 C   0  0  0  0  0  0  0  0  0  0  0  0
    1.7861    1.8205    2.1390 C   0  0  0  0  0  0  0  0  0  0  0  0
    2.1949    3.0728    2.6575 C   0  0  0  0  0  0  0  0  0  0  0  0
    2.3735    3.9158    1.6522 N   0  0  0  0  0  0  0  0  0  0  0  0
    1.6834    3.3957    0.5846 O   0  0  0  0  0  0  0  0  0  0  0  0
    2.3774    3.3818    4.0016 N   0  0  0  0  0  0  0  0  0  0  0  0
    2.3493    4.5930    4.5935 C   0  0  0  0  0  0  0  0  0  0  0  0
    2.8121    4.6586    5.7928 O   0  0  0  0  0  0  0  0  0  0  0  0
    1.8761    5.7374    4.0524 N   0  0  0  0  0  0  0  0  0  0  0  0
    1.0301    5.9148    2.9322 C   0  0  0  0  0  0  0  0  0  0  0  0
   -0.0414    5.0532    2.7059 C   0  0  0  0  0  0  0  0  0  0  0  0
   -0.6297    4.9903    1.4367 C   0  0  0  0  0  0  0  0  0  0  0  0
   -0.1989    5.8257    0.3946 C   0  0  0  0  0  0  0  0  0  0  0  0
    0.7771    6.7943    0.6749 C   0  0  0  0  0  0  0  0  0  0  0  0
    1.3975    6.8387    1.9419 C   0  0  0  0  0  0  0  0  0  0  0  0
   -0.6435    5.5467   -0.9691 C   0  0  0  0  0  0  0  0  0  0  0  0
   -1.9461    5.2292   -1.3485 C   0  0  0  0  0  0  0  0  0  0  0  0
   -1.8465    4.8327   -2.6835 N   0  0  0  0  0  0  0  0  0  0  0  0
   -2.8103    4.8383   -3.7244 C   0  0  0  0  0  0  0  0  0  0  0  0
   -2.5896    5.9164   -4.5293 C   0  0  0  0  0  0  0  0  0  0  0  0
   -3.5580    6.2196   -5.5101 C   0  0  0  0  0  0  0  0  0  0  0  0
   -4.4085    5.1968   -6.1843 C   0  0  0  0  0  0  0  0  0  0  0  0
   -3.9986    3.9142   -5.7590 C   0  0  0  0  0  0  0  0  0  0  0  0
   -3.2336    3.7459   -4.5018 C   0  0  0  0  0  0  0  0  0  0  0  0
   -5.9225    5.1888   -6.6943 O   0  0  0  0  0  0  0  0  0  0  0  0
   -7.4390    6.0172   -6.3241 C   0  0  0  0  0  0  0  0  0  0  0  0
   -8.1834    6.4222   -4.6719 C   0  0  0  0  0  0  0  0  0  0  0  0
   -7.4529    6.9975   -3.3811 N   0  0  0  0  0  0  0  0  0  0  0  0
   -6.6487    8.2217   -3.7354 C   0  0  0  0  0  0  0  0  0  0  0  0
   -6.0323    8.0921   -5.0691 C   0  0  0  0  0  0  0  0  0  0  0  0
   -5.7756    6.7113   -5.1416 O   0  0  0  0  0  0  0  0  0  0  0  0
   -6.0224    5.5485   -4.2467 C   0  0  0  0  0  0  0  0  0  0  0  0
   -6.5218    5.9460   -2.9543 C   0  0  0  0  0  0  0  0  0  0  0  0
   -0.7931    6.1792   -4.6295 S   0  0  0  0  0  0  0  0  0  0  0  0
   -0.6474    5.3799   -3.0726 C   0  0  0  0  0  0  0  0  0  0  0  0
    0.1672    5.6353   -2.0812 N   0  0  0  0  0  0  0  0  0  0  0  0
    0.7038   -0.7153   -0.9032 H   0  0  0  0  0  0  0  0  0  0  0  0
    0.7181   -0.5054    0.8569 H   0  0  0  0  0  0  0  0  0  0  0  0
    2.1732   -0.1465   -0.0819 H   0  0  0  0  0  0  0  0  0  0  0  0
    0.7459    1.3032   -2.4294 H   0  0  0  0  0  0  0  0  0  0  0  0
    0.7493    2.9372   -1.7698 H   0  0  0  0  0  0  0  0  0  0  0  0
    2.2046    1.9516   -1.6514 H   0  0  0  0  0  0  0  0  0  0  0  0
   -1.3255    1.0992    0.7375 H   0  0  0  0  0  0  0  0  0  0  0  0
   -1.2799    2.4538   -0.3946 H   0  0  0  0  0  0  0  0  0  0  0  0
   -1.3322    0.8107   -1.0066 H   0  0  0  0  0  0  0  0  0  0  0  0
    1.7449    0.8622    2.6284 H   0  0  0  0  0  0  0  0  0  0  0  0
    2.5814    2.6122    4.6142 H   0  0  0  0  0  0  0  0  0  0  0  0
    2.1526    6.5778    4.5386 H   0  0  0  0  0  0  0  0  0  0  0  0
   -0.2959    4.2922    3.4389 H   0  0  0  0  0  0  0  0  0  0  0  0
   -1.2885    4.1536    1.2279 H   0  0  0  0  0  0  0  0  0  0  0  0
    1.1350    7.4500   -0.1175 H   0  0  0  0  0  0  0  0  0  0  0  0
    2.2855    7.4563    2.0636 H   0  0  0  0  0  0  0  0  0  0  0  0
   -2.8669    5.3168   -0.7828 H   0  0  0  0  0  0  0  0  0  0  0  0
   -3.9981    7.0603   -4.9432 H   0  0  0  0  0  0  0  0  0  0  0  0
   -4.3948    3.0384   -6.2555 H   0  0  0  0  0  0  0  0  0  0  0  0
   -2.9612    2.7475   -4.1806 H   0  0  0  0  0  0  0  0  0  0  0  0
   -7.4175    6.9480   -6.9009 H   0  0  0  0  0  0  0  0  0  0  0  0
   -8.2174    5.3962   -6.7998 H   0  0  0  0  0  0  0  0  0  0  0  0
   -9.0084    7.1289   -4.8114 H   0  0  0  0  0  0  0  0  0  0  0  0
   -8.6563    5.4920   -4.3075 H   0  0  0  0  0  0  0  0  0  0  0  0
   -5.7962    8.3661   -3.0537 H   0  0  0  0  0  0  0  0  0  0  0  0
   -7.2619    9.1150   -3.7246 H   0  0  0  0  0  0  0  0  0  0  0  0
   -6.6461    8.4546   -5.9114 H   0  0  0  0  0  0  0  0  0  0  0  0
   -5.0960    8.6491   -5.2462 H   0  0  0  0  0  0  0  0  0  0  0  0
   -5.1829    4.9197   -4.0703 H   0  0  0  0  0  0  0  0  0  0  0  0
   -6.6828    4.7744   -4.7046 H   0  0  0  0  0  0  0  0  0  0  0  0
   -5.6302    6.1962   -2.3611 H   0  0  0  0  0  0  0  0  0  0  0  0
   -6.9709    5.0377   -2.5330 H   0  0  0  0  0  0  0  0  0  0  0  0
  1  2  1  0  0  0  0
  1 41  1  0  0  0  0
  1 42  1  0  0  0  0
  1 43  1  0  0  0  0
  2  3  1  0  0  0  0
  2  4  1  0  0  0  0
  2  5  1  0  0  0  0
  3 44  1  0  0  0  0
  3 45  1  0  0  0  0
  3 46  1  0  0  0  0
  4 47  1  0  0  0  0
  4 48  1  0  0  0  0
  4 49  1  0  0  0  0
  5  6  2  0  0  0  0
  5  9  1  0  0  0  0
  6  7  1  0  0  0  0
  6 50  1  0  0  0  0
  7  8  2  0  0  0  0
  7 10  1  0  0  0  0
  8  9  1  0  0  0  0
 10 11  1  0  0  0  0
 10 51  1  0  0  0  0
 11 12  2  0  0  0  0
 11 13  1  0  0  0  0
 13 14  1  0  0  0  0
 13 52  1  0  0  0  0
 14 15  2  0  0  0  0
 14 19  1  0  0  0  0
 15 16  1  0  0  0  0
 15 53  1  0  0  0  0
 16 17  2  0  0  0  0
 16 54  1  0  0  0  0
 17 18  1  0  0  0  0
 17 20  1  0  0  0  0
 18 19  2  0  0  0  0
 18 55  1  0  0  0  0
 19 56  1  0  0  0  0
 20 21  2  0  0  0  0
 20 40  1  0  0  0  0
 21 22  1  0  0  0  0
 21 57  1  0  0  0  0
 22 23  1  0  0  0  0
 22 39  1  0  0  0  0
 23 24  2  0  0  0  0
 23 28  1  0  0  0  0
 24 25  1  0  0  0  0
 24 38  1  0  0  0  0
 25 26  2  0  0  0  0
 25 58  1  0  0  0  0
 26 27  1  0  0  0  0
 26 29  1  0  0  0  0
 27 28  2  0  0  0  0
 27 59  1  0  0  0  0
 28 60  1  0  0  0  0
 29 30  1  0  0  0  0
 30 31  1  0  0  0  0
 30 61  1  0  0  0  0
 30 62  1  0  0  0  0
 31 32  1  0  0  0  0
 31 63  1  0  0  0  0
 31 64  1  0  0  0  0
 32 33  1  0  0  0  0
 32 37  1  0  0  0  0
 33 34  1  0  0  0  0
 33 65  1  0  0  0  0
 33 66  1  0  0  0  0
 34 35  1  0  0  0  0
 34 67  1  0  0  0  0
 34 68  1  0  0  0  0
 35 36  1  0  0  0  0
 36 37  1  0  0  0  0
 36 69  1  0  0  0  0
 36 70  1  0  0  0  0
 37 71  1  0  0  0  0
 37 72  1  0  0  0  0
 38 39  1  0  0  0  0
 39 40  2  0  0  0  0
M  END
>  <DRUGBANK_ID>
DB12874

>  <SECONDARY_ACCESSION_NUMBERS>
DB05213

>  <COMMON_NAME>
Quizartinib

>  <CAS_NUMBER>
950769-58-1

>  <UNII>
7LA4O6Q0D3

>  <SYNONYMS>
N-(5-(1,1-Dimethylethyl)isoxazol-3-yl)-N'-(4-(7-(2-(morpholin-4-yl)ethoxy)imidazo(2,1-b)benzothiazol-2-yl)phenyl)urea; Quizartinib; Quizartinibum

$$$$
