
 OpenBabel10282417203D

 30 31  0  0  1  0  0  0  0  0999 V2000
   -3.9673   -4.7476    5.2667 C   0  0  0  0  0  0  0  0  0  0  0  0
   -3.1559   -4.8540    4.0746 N   0  0  0  0  0  0  0  0  0  0  0  0
   -2.6698   -3.7958    3.3501 C   0  0  0  0  0  0  0  0  0  0  0  0
   -1.9985   -4.2945    2.2457 C   0  0  0  0  0  0  0  0  0  0  0  0
   -2.1582   -5.7299    2.2896 C   0  0  0  0  0  0  0  0  0  0  0  0
   -2.7874   -6.0471    3.4925 C   0  0  0  0  0  0  0  0  0  0  0  0
   -2.9717   -7.3798    3.9037 C   0  0  0  0  0  0  0  0  0  0  0  0
   -2.4462   -8.4062    3.1102 C   0  0  0  0  0  0  0  0  0  0  0  0
   -1.8181   -8.1226    1.9111 C   0  0  0  0  0  0  0  0  0  0  0  0
   -1.7533   -6.8062    1.4614 C   0  0  0  0  0  0  0  0  0  0  0  0
   -1.2306   -3.4832    1.2239 C   0  0  0  0  0  0  0  0  0  0  0  0
    0.2976   -3.7543    1.1918 C   0  0  2  0  0  0  0  0  0  0  0  0
    0.9057   -3.1575   -0.0900 C   0  0  0  0  0  0  0  0  0  0  0  0
    0.9042   -1.9745   -0.4131 O   0  0  0  0  0  0  0  0  0  0  0  0
    1.4438   -4.0923   -0.9155 O   0  0  0  0  0  0  0  0  0  0  0  0
    0.6772   -5.1804    1.2206 N   0  0  0  0  0  0  0  0  0  0  0  0
   -4.9261   -5.2313    5.0604 H   0  0  0  0  0  0  0  0  0  0  0  0
   -3.4527   -5.2512    6.0891 H   0  0  0  0  0  0  0  0  0  0  0  0
   -4.1301   -3.6963    5.5147 H   0  0  0  0  0  0  0  0  0  0  0  0
   -2.8300   -2.7751    3.6789 H   0  0  0  0  0  0  0  0  0  0  0  0
   -3.4857   -7.6188    4.8275 H   0  0  0  0  0  0  0  0  0  0  0  0
   -2.5467   -9.4422    3.4214 H   0  0  0  0  0  0  0  0  0  0  0  0
   -1.3729   -8.9125    1.3107 H   0  0  0  0  0  0  0  0  0  0  0  0
   -1.3037   -6.6401    0.4902 H   0  0  0  0  0  0  0  0  0  0  0  0
   -1.6820   -3.6464    0.2372 H   0  0  0  0  0  0  0  0  0  0  0  0
   -1.3759   -2.4120    1.4378 H   0  0  0  0  0  0  0  0  0  0  0  0
    0.7835   -3.3032    2.0628 H   0  0  0  0  0  0  0  0  0  0  0  0
    1.8704   -3.6220   -1.6558 H   0  0  0  0  0  0  0  0  0  0  0  0
    0.2217   -5.6298    2.0116 H   0  0  0  0  0  0  0  0  0  0  0  0
    0.2795   -5.5761    0.3668 H   0  0  0  0  0  0  0  0  0  0  0  0
  1  2  1  0  0  0  0
  1 17  1  0  0  0  0
  1 18  1  0  0  0  0
  1 19  1  0  0  0  0
  2  3  1  0  0  0  0
  2  6  1  0  0  0  0
  3  4  2  0  0  0  0
  3 20  1  0  0  0  0
  4  5  1  0  0  0  0
  4 11  1  0  0  0  0
  5  6  1  0  0  0  0
  5 10  2  0  0  0  0
  6  7  2  0  0  0  0
  7  8  1  0  0  0  0
  7 21  1  0  0  0  0
  8  9  2  0  0  0  0
  8 22  1  0  0  0  0
  9 10  1  0  0  0  0
  9 23  1  0  0  0  0
 10 24  1  0  0  0  0
 11 25  1  0  0  0  0
 11 26  1  0  0  0  0
 12 16  1  0  0  0  0
 12 27  1  1  0  0  0
 12 13  1  0  0  0  0
 12 11  1  0  0  0  0
 13 14  2  0  0  0  0
 13 15  1  0  0  0  0
 15 28  1  0  0  0  0
 16 29  1  0  0  0  0
 16 30  1  0  0  0  0
M  END
>  <DRUGBANK_ID>
DB12827

>  <COMMON_NAME>
Indoximod

>  <CAS_NUMBER>
110117-83-4

>  <UNII>
TX5CYN1KMZ

>  <SYNONYMS>
(2R)-2-amino-3-(1-methyl-1H-indol-3-yl)propanoic acid; 1-methyl-D-tryptophan; D-(+)-1-methyltryptophan; D-1-methyltryptophan; D-1MT; Indoximod

$$$$
