899
 OpenBabel10282417113D

 55 56  0  0  0  0  0  0  0  0999 V2000
    1.1090   -0.1532   -0.0332 O   0  0  0  0  0  0  0  0  0  0  0  0
    1.0543   -0.7435   -2.1341 O   0  0  0  0  0  0  0  0  0  0  0  0
   -3.9667   -0.5351   -0.2528 O   0  0  0  0  0  0  0  0  0  0  0  0
    1.0228   -2.9788   -5.9601 O   0  0  0  0  0  0  0  0  0  0  0  0
    1.0937   -2.3013   -3.9348 O   0  0  0  0  0  0  0  0  0  0  0  0
   -2.0486   -0.5513   -3.8440 N   0  0  0  0  0  0  0  0  0  0  0  0
   -1.7507   -0.5179    0.4649 N   0  0  0  0  0  0  0  0  0  0  0  0
   -1.1996   -0.5459   -0.9536 C   0  0  0  0  0  0  0  0  0  0  0  0
   -1.7996   -1.8138   -1.6392 C   0  0  0  0  0  0  0  0  0  0  0  0
   -1.7045    0.7144   -1.7242 C   0  0  0  0  0  0  0  0  0  0  0  0
   -1.6342   -1.7534   -3.1305 C   0  0  0  0  0  0  0  0  0  0  0  0
   -1.4518    0.6456   -3.2277 C   0  0  0  0  0  0  0  0  0  0  0  0
    0.4312   -0.5560   -1.1257 C   0  0  0  0  0  0  0  0  0  0  0  0
   -1.6015   -0.6876   -5.2521 C   0  0  0  0  0  0  0  0  0  0  0  0
   -0.8456   -0.4401    1.5559 C   0  0  0  0  0  0  0  0  0  0  0  0
   -3.1436   -0.5363    0.6694 C   0  0  0  0  0  0  0  0  0  0  0  0
   -0.0718   -0.7700   -5.5270 C   0  0  0  0  0  0  0  0  0  0  0  0
   -3.7110   -0.4879    2.0761 C   0  0  0  0  0  0  0  0  0  0  0  0
   -0.1454    0.7427    1.8239 C   0  0  0  0  0  0  0  0  0  0  0  0
   -0.5785   -1.5635    2.3334 C   0  0  0  0  0  0  0  0  0  0  0  0
    0.7223   -2.0319   -5.0641 C   0  0  0  0  0  0  0  0  0  0  0  0
   -3.5005   -1.7420    2.8917 C   0  0  0  0  0  0  0  0  0  0  0  0
    2.5351   -0.1118   -0.0468 C   0  0  0  0  0  0  0  0  0  0  0  0
    0.8081    0.7723    2.8442 C   0  0  0  0  0  0  0  0  0  0  0  0
    0.1107   -1.4141    3.5360 C   0  0  0  0  0  0  0  0  0  0  0  0
    0.8740   -0.2757    3.7531 C   0  0  0  0  0  0  0  0  0  0  0  0
    1.2770   -2.6044   -7.2881 C   0  0  0  0  0  0  0  0  0  0  0  0
   -1.2864   -2.7076   -1.2608 H   0  0  0  0  0  0  0  0  0  0  0  0
   -2.8619   -1.9831   -1.4572 H   0  0  0  0  0  0  0  0  0  0  0  0
   -2.7805    0.8658   -1.6015 H   0  0  0  0  0  0  0  0  0  0  0  0
   -1.2245    1.6124   -1.3196 H   0  0  0  0  0  0  0  0  0  0  0  0
   -0.5847   -1.7366   -3.1861 H   0  0  0  0  0  0  0  0  0  0  0  0
   -1.9652   -2.6755   -3.6214 H   0  0  0  0  0  0  0  0  0  0  0  0
   -1.8559    1.5448   -3.7086 H   0  0  0  0  0  0  0  0  0  0  0  0
   -0.3723    0.6899   -3.3775 H   0  0  0  0  0  0  0  0  0  0  0  0
   -2.1050   -1.5515   -5.7076 H   0  0  0  0  0  0  0  0  0  0  0  0
   -2.0118    0.1796   -5.7953 H   0  0  0  0  0  0  0  0  0  0  0  0
    0.0334   -0.6404   -6.6063 H   0  0  0  0  0  0  0  0  0  0  0  0
    0.4327    0.1186   -5.1312 H   0  0  0  0  0  0  0  0  0  0  0  0
   -3.3362    0.4081    2.5761 H   0  0  0  0  0  0  0  0  0  0  0  0
   -4.7965   -0.3609    1.9685 H   0  0  0  0  0  0  0  0  0  0  0  0
   -0.1795    1.5617    1.1079 H   0  0  0  0  0  0  0  0  0  0  0  0
   -1.0230   -2.5270    2.0885 H   0  0  0  0  0  0  0  0  0  0  0  0
   -2.5000   -1.7863    3.2766 H   0  0  0  0  0  0  0  0  0  0  0  0
   -4.0784   -1.7397    3.8142 H   0  0  0  0  0  0  0  0  0  0  0  0
   -3.6779   -2.6536    2.3125 H   0  0  0  0  0  0  0  0  0  0  0  0
    2.8508    0.3214    0.9082 H   0  0  0  0  0  0  0  0  0  0  0  0
    2.9277   -1.1276   -0.1048 H   0  0  0  0  0  0  0  0  0  0  0  0
    2.9085    0.5318   -0.8459 H   0  0  0  0  0  0  0  0  0  0  0  0
    1.5116    1.5972    2.9048 H   0  0  0  0  0  0  0  0  0  0  0  0
    0.0270   -2.1751    4.3072 H   0  0  0  0  0  0  0  0  0  0  0  0
    1.5334   -0.2212    4.6131 H   0  0  0  0  0  0  0  0  0  0  0  0
    0.3108   -2.5519   -7.7841 H   0  0  0  0  0  0  0  0  0  0  0  0
    1.8354   -1.6646   -7.3435 H   0  0  0  0  0  0  0  0  0  0  0  0
    1.8834   -3.4034   -7.7103 H   0  0  0  0  0  0  0  0  0  0  0  0
  1 13  1  0  0  0  0
  1 23  1  0  0  0  0
  2 13  2  0  0  0  0
  3 16  2  0  0  0  0
  4 21  1  0  0  0  0
  4 27  1  0  0  0  0
  5 21  2  0  0  0  0
  6 11  1  0  0  0  0
  6 12  1  0  0  0  0
  6 14  1  0  0  0  0
  7  8  1  0  0  0  0
  7 15  1  0  0  0  0
  7 16  1  0  0  0  0
  8  9  1  0  0  0  0
  8 10  1  0  0  0  0
  8 13  1  0  0  0  0
  9 11  1  0  0  0  0
  9 28  1  0  0  0  0
  9 29  1  0  0  0  0
 10 12  1  0  0  0  0
 10 30  1  0  0  0  0
 10 31  1  0  0  0  0
 11 32  1  0  0  0  0
 11 33  1  0  0  0  0
 12 34  1  0  0  0  0
 12 35  1  0  0  0  0
 14 17  1  0  0  0  0
 14 36  1  0  0  0  0
 14 37  1  0  0  0  0
 15 19  2  0  0  0  0
 15 20  1  0  0  0  0
 16 18  1  0  0  0  0
 17 21  1  0  0  0  0
 17 38  1  0  0  0  0
 17 39  1  0  0  0  0
 18 22  1  0  0  0  0
 18 40  1  0  0  0  0
 18 41  1  0  0  0  0
 19 24  1  0  0  0  0
 19 42  1  0  0  0  0
 20 25  2  0  0  0  0
 20 43  1  0  0  0  0
 22 44  1  0  0  0  0
 22 45  1  0  0  0  0
 22 46  1  0  0  0  0
 23 47  1  0  0  0  0
 23 48  1  0  0  0  0
 23 49  1  0  0  0  0
 24 26  2  0  0  0  0
 24 50  1  0  0  0  0
 25 26  1  0  0  0  0
 25 51  1  0  0  0  0
 26 52  1  0  0  0  0
 27 53  1  0  0  0  0
 27 54  1  0  0  0  0
 27 55  1  0  0  0  0
M  END
>  <DRUGBANK_ID>
DB00899

>  <SECONDARY_ACCESSION_NUMBERS>
APRD01216

>  <COMMON_NAME>
Remifentanil

>  <CAS_NUMBER>
132875-61-7

>  <UNII>
P10582JYYK

>  <SYNONYMS>
Remifentanil; Remifentanilo; Remifentanyl

$$$$
