
 OpenBabel10282417233D

 73 75  0  0  0  0  0  0  0  0999 V2000
    0.9152    0.0069    0.1036 C   0  0  0  0  0  0  0  0  0  0  0  0
    0.4271   -0.1024   -1.2229 O   0  0  0  0  0  0  0  0  0  0  0  0
    0.8725    0.9817   -1.9019 C   0  0  0  0  0  0  0  0  0  0  0  0
    2.2201    1.3034   -2.0526 C   0  0  0  0  0  0  0  0  0  0  0  0
    2.6976    2.3337   -2.8742 C   0  0  0  0  0  0  0  0  0  0  0  0
    4.0035    2.6287   -3.0985 O   0  0  0  0  0  0  0  0  0  0  0  0
    4.8709    1.9257   -2.2268 C   0  0  0  0  0  0  0  0  0  0  0  0
    1.7929    3.0968   -3.5349 C   0  0  0  0  0  0  0  0  0  0  0  0
    0.4449    2.8317   -3.2415 C   0  0  0  0  0  0  0  0  0  0  0  0
   -0.4906    3.1712   -4.2627 C   0  0  0  0  0  0  0  0  0  0  0  0
   -0.5482    1.5932   -4.7019 O   0  0  0  0  0  0  0  0  0  0  0  0
   -0.0637    0.8835   -5.9071 C   0  0  0  0  0  0  0  0  0  0  0  0
    1.2060    0.1418   -5.3070 C   0  0  0  0  0  0  0  0  0  0  0  0
    2.0211   -0.8780   -6.1056 C   0  0  0  0  0  0  0  0  0  0  0  0
    3.3664   -0.8844   -5.6314 N   0  0  0  0  0  0  0  0  0  0  0  0
    1.6056   -1.4148   -7.6746 C   0  0  0  0  0  0  0  0  0  0  0  0
    2.9862   -2.1402   -8.4841 Cl  0  0  0  0  0  0  0  0  0  0  0  0
    0.1950   -0.7758   -8.6123 C   0  0  0  0  0  0  0  0  0  0  0  0
   -0.7656    0.6500   -7.7530 C   0  0  0  0  0  0  0  0  0  0  0  0
   -1.8371    1.2447   -8.5173 C   0  0  0  0  0  0  0  0  0  0  0  0
   -2.1371    0.5394   -9.4650 O   0  0  0  0  0  0  0  0  0  0  0  0
   -2.5425    2.5118   -8.1101 C   0  0  0  0  0  0  0  0  0  0  0  0
   -3.2464    1.9871   -6.9114 C   0  0  0  0  0  0  0  0  0  0  0  0
   -2.1663    1.5685   -5.9835 C   0  0  0  0  0  0  0  0  0  0  0  0
   -0.7110    2.7788   -6.4886 C   0  0  0  0  0  0  0  0  0  0  0  0
    0.5699    2.3906   -7.3570 C   0  0  0  0  0  0  0  0  0  0  0  0
    1.0702    0.6568   -7.4845 N   0  0  0  0  0  0  0  0  0  0  0  0
    1.6289    0.8921   -9.0271 C   0  0  0  0  0  0  0  0  0  0  0  0
    0.6298    1.1932  -10.2279 C   0  0  0  0  0  0  0  0  0  0  0  0
    0.0042    2.4987  -10.2401 N   0  0  0  0  0  0  0  0  0  0  0  0
   -1.1118    2.9602  -11.3450 S   0  0  0  0  0  0  0  0  0  0  0  0
   -2.6345    1.9476  -11.3104 C   0  0  0  0  0  0  0  0  0  0  0  0
   -1.4722    4.2696  -10.8340 O   0  0  0  0  0  0  0  0  0  0  0  0
   -0.4229    2.7519  -12.5889 O   0  0  0  0  0  0  0  0  0  0  0  0
   -0.3514   -0.8332   -6.7639 C   0  0  0  0  0  0  0  0  0  0  0  0
   -1.8540   -0.2611   -5.8534 C   0  0  0  0  0  0  0  0  0  0  0  0
   -0.0487    1.7917   -2.4496 C   0  0  0  0  0  0  0  0  0  0  0  0
    0.5453   -0.8472    0.6611 H   0  0  0  0  0  0  0  0  0  0  0  0
    0.5594    0.9364    0.5634 H   0  0  0  0  0  0  0  0  0  0  0  0
    2.0078   -0.0292    0.1332 H   0  0  0  0  0  0  0  0  0  0  0  0
    2.9144    0.7180   -1.4875 H   0  0  0  0  0  0  0  0  0  0  0  0
    4.6010    2.1158   -1.1798 H   0  0  0  0  0  0  0  0  0  0  0  0
    4.8425    0.8525   -2.4495 H   0  0  0  0  0  0  0  0  0  0  0  0
    5.8804    2.2902   -2.3926 H   0  0  0  0  0  0  0  0  0  0  0  0
    2.1005    3.7631   -4.3511 H   0  0  0  0  0  0  0  0  0  0  0  0
   -1.5184    3.5113   -4.1548 H   0  0  0  0  0  0  0  0  0  0  0  0
    0.0556    3.9591   -4.8726 H   0  0  0  0  0  0  0  0  0  0  0  0
    1.6550    0.6938   -4.5086 H   0  0  0  0  0  0  0  0  0  0  0  0
    3.9273   -1.6345   -5.9918 H   0  0  0  0  0  0  0  0  0  0  0  0
    3.4457   -0.6367   -4.6437 H   0  0  0  0  0  0  0  0  0  0  0  0
    0.0714   -1.2595   -9.5688 H   0  0  0  0  0  0  0  0  0  0  0  0
   -1.9190    3.4012   -7.9689 H   0  0  0  0  0  0  0  0  0  0  0  0
   -3.1844    2.9452   -8.8503 H   0  0  0  0  0  0  0  0  0  0  0  0
   -3.7898    2.7885   -6.4232 H   0  0  0  0  0  0  0  0  0  0  0  0
   -3.8469    1.1173   -7.1711 H   0  0  0  0  0  0  0  0  0  0  0  0
   -2.5737    1.7166   -4.9584 H   0  0  0  0  0  0  0  0  0  0  0  0
   -1.1059    3.7893   -6.3875 H   0  0  0  0  0  0  0  0  0  0  0  0
    0.2271    2.7899   -5.8938 H   0  0  0  0  0  0  0  0  0  0  0  0
    0.0512    2.7856   -8.1476 H   0  0  0  0  0  0  0  0  0  0  0  0
    1.4655    3.0241   -7.2555 H   0  0  0  0  0  0  0  0  0  0  0  0
    2.4674    1.5722   -8.8731 H   0  0  0  0  0  0  0  0  0  0  0  0
    2.1300   -0.0012   -9.3923 H   0  0  0  0  0  0  0  0  0  0  0  0
    1.1324    0.9570  -11.1546 H   0  0  0  0  0  0  0  0  0  0  0  0
   -0.1654    0.4614  -10.2884 H   0  0  0  0  0  0  0  0  0  0  0  0
   -0.4609    2.8730   -9.4517 H   0  0  0  0  0  0  0  0  0  0  0  0
   -3.2511    2.0654  -10.4178 H   0  0  0  0  0  0  0  0  0  0  0  0
   -3.3037    2.2938  -12.0848 H   0  0  0  0  0  0  0  0  0  0  0  0
   -2.4077    0.8979  -11.5012 H   0  0  0  0  0  0  0  0  0  0  0  0
   -0.3075   -1.9361   -6.9483 H   0  0  0  0  0  0  0  0  0  0  0  0
   -1.3773   -1.0220   -7.5903 H   0  0  0  0  0  0  0  0  0  0  0  0
   -1.4886   -0.5871   -4.8698 H   0  0  0  0  0  0  0  0  0  0  0  0
   -2.7475   -0.8377   -6.1210 H   0  0  0  0  0  0  0  0  0  0  0  0
   -1.0957    1.4731   -2.5721 H   0  0  0  0  0  0  0  0  0  0  0  0
  1  2  1  0  0  0  0
  1 38  1  0  0  0  0
  1 39  1  0  0  0  0
  1 40  1  0  0  0  0
  2  3  1  0  0  0  0
  3  4  2  0  0  0  0
  3 37  1  0  0  0  0
  4  5  1  0  0  0  0
  4 41  1  0  0  0  0
  5  6  1  0  0  0  0
  5  8  2  0  0  0  0
  6  7  1  0  0  0  0
  7 42  1  0  0  0  0
  7 43  1  0  0  0  0
  7 44  1  0  0  0  0
  8  9  1  0  0  0  0
  8 45  1  0  0  0  0
  9 10  1  0  0  0  0
  9 37  2  0  0  0  0
 10 11  1  0  0  0  0
 10 46  1  0  0  0  0
 10 47  1  0  0  0  0
 11 12  1  0  0  0  0
 12 13  2  0  0  0  0
 12 19  1  0  0  0  0
 13 14  1  0  0  0  0
 13 48  1  0  0  0  0
 14 15  1  0  0  0  0
 14 16  2  0  0  0  0
 15 49  1  0  0  0  0
 15 50  1  0  0  0  0
 16 17  1  0  0  0  0
 16 18  1  0  0  0  0
 18 19  2  0  0  0  0
 18 51  1  0  0  0  0
 19 20  1  0  0  0  0
 20 21  2  0  0  0  0
 20 22  1  0  0  0  0
 22 23  1  0  0  0  0
 22 52  1  0  0  0  0
 22 53  1  0  0  0  0
 23 24  1  0  0  0  0
 23 54  1  0  0  0  0
 23 55  1  0  0  0  0
 24 25  1  0  0  0  0
 24 36  1  0  0  0  0
 24 56  1  0  0  0  0
 25 26  1  0  0  0  0
 25 57  1  0  0  0  0
 25 58  1  0  0  0  0
 26 27  1  0  0  0  0
 26 59  1  0  0  0  0
 26 60  1  0  0  0  0
 27 28  1  0  0  0  0
 27 35  1  0  0  0  0
 28 29  1  0  0  0  0
 28 61  1  0  0  0  0
 28 62  1  0  0  0  0
 29 30  1  0  0  0  0
 29 63  1  0  0  0  0
 29 64  1  0  0  0  0
 30 31  1  0  0  0  0
 30 65  1  0  0  0  0
 31 32  1  0  0  0  0
 31 33  2  0  0  0  0
 31 34  2  0  0  0  0
 32 66  1  0  0  0  0
 32 67  1  0  0  0  0
 32 68  1  0  0  0  0
 35 36  1  0  0  0  0
 35 69  1  0  0  0  0
 35 70  1  0  0  0  0
 36 71  1  0  0  0  0
 36 72  1  0  0  0  0
 37 73  1  0  0  0  0
M  END
>  <DRUGBANK_ID>
DB17050

>  <COMMON_NAME>
RS-39604

>  <CAS_NUMBER>
161362-65-8

>  <UNII>
0RP0I19CSC

>  <SYNONYMS>
Methanesulfonamide, n-(2-(4-(3-(4-amino-5-chloro-2-((3,5-dimethoxyphenyl)methoxy)phenyl)-3-oxopropyl)-1-piperidinyl)ethyl)-

$$$$
