
 OpenBabel10282417163D

 53 56  0  0  0  0  0  0  0  0999 V2000
   -2.9937   -0.3114   -0.0073 Cl  0  0  0  0  0  0  0  0  0  0  0  0
   -1.3130    0.0629    0.0235 C   0  0  0  0  0  0  0  0  0  0  0  0
   -0.8982    1.3928    0.0204 C   0  0  0  0  0  0  0  0  0  0  0  0
    0.4638    1.7276    0.0106 C   0  0  0  0  0  0  0  0  0  0  0  0
    1.3866    0.6763    0.0071 C   0  0  0  0  0  0  0  0  0  0  0  0
    2.7676    0.6840   -0.0287 N   0  0  0  0  0  0  0  0  0  0  0  0
    0.9827   -0.6547    0.0507 C   0  0  0  0  0  0  0  0  0  0  0  0
   -0.3856   -0.9766    0.0487 C   0  0  0  0  0  0  0  0  0  0  0  0
    2.1556   -1.4313    0.1147 C   0  0  0  0  0  0  0  0  0  0  0  0
    3.2609   -0.6023    0.0099 C   0  0  0  0  0  0  0  0  0  0  0  0
    4.9979   -0.9454   -0.0822 S   0  0  0  0  0  0  0  0  0  0  0  0
    5.4188   -0.3903   -1.3405 O   0  0  0  0  0  0  0  0  0  0  0  0
    5.5577   -0.4784    1.1687 O   0  0  0  0  0  0  0  0  0  0  0  0
    5.1480   -2.6192   -0.1367 N   0  0  0  0  0  0  0  0  0  0  0  0
    4.4454   -3.3061   -1.2167 C   0  0  2  0  0  0  0  0  0  0  0  0
    4.6274   -4.8173   -1.2846 C   0  0  0  0  0  0  0  0  0  0  0  0
    4.6762   -5.5907   -0.3445 O   0  0  0  0  0  0  0  0  0  0  0  0
    4.9336   -2.8674   -2.5748 C   0  0  0  0  0  0  0  0  0  0  0  0
    4.3489   -3.9634   -3.4014 C   0  0  0  0  0  0  0  0  0  0  0  0
    4.6586   -5.1306   -2.6429 N   0  0  0  0  0  0  0  0  0  0  0  0
    4.8373   -6.4663   -3.2041 C   0  0  1  0  0  0  0  0  0  0  0  0
    3.6491   -6.8440   -4.0913 C   0  0  0  0  0  0  0  0  0  0  0  0
    6.2037   -6.7464   -3.9407 C   0  0  0  0  0  0  0  0  0  0  0  0
    6.8459   -7.7573   -3.6301 O   0  0  0  0  0  0  0  0  0  0  0  0
    6.5547   -6.0466   -5.0888 N   0  0  0  0  0  0  0  0  0  0  0  0
    6.5824   -4.6126   -5.3235 C   0  0  0  0  0  0  0  0  0  0  0  0
    5.5056   -4.2837   -6.3893 C   0  0  0  0  0  0  0  0  0  0  0  0
    5.8741   -4.9234   -7.6189 O   0  0  0  0  0  0  0  0  0  0  0  0
    5.9737   -6.3551   -7.4357 C   0  0  0  0  0  0  0  0  0  0  0  0
    6.9502   -6.7463   -6.3009 C   0  0  0  0  0  0  0  0  0  0  0  0
   -1.6401    2.1875    0.0218 H   0  0  0  0  0  0  0  0  0  0  0  0
    0.7796    2.7653    0.0085 H   0  0  0  0  0  0  0  0  0  0  0  0
    3.3427    1.5154   -0.0785 H   0  0  0  0  0  0  0  0  0  0  0  0
   -0.7078   -2.0137    0.0669 H   0  0  0  0  0  0  0  0  0  0  0  0
    2.1736   -2.5070    0.2098 H   0  0  0  0  0  0  0  0  0  0  0  0
    6.1156   -2.9241   -0.0170 H   0  0  0  0  0  0  0  0  0  0  0  0
    3.3696   -3.1571   -1.1889 H   0  0  0  0  0  0  0  0  0  0  0  0
    4.5737   -1.9027   -2.9300 H   0  0  0  0  0  0  0  0  0  0  0  0
    6.0355   -2.8555   -2.5890 H   0  0  0  0  0  0  0  0  0  0  0  0
    3.2826   -3.8782   -3.6110 H   0  0  0  0  0  0  0  0  0  0  0  0
    4.8039   -3.9408   -4.3456 H   0  0  0  0  0  0  0  0  0  0  0  0
    4.8185   -7.1636   -2.3513 H   0  0  0  0  0  0  0  0  0  0  0  0
    3.6100   -6.2219   -4.9865 H   0  0  0  0  0  0  0  0  0  0  0  0
    3.7066   -7.8865   -4.4201 H   0  0  0  0  0  0  0  0  0  0  0  0
    2.6992   -6.7043   -3.5607 H   0  0  0  0  0  0  0  0  0  0  0  0
    7.5563   -4.3473   -5.7492 H   0  0  0  0  0  0  0  0  0  0  0  0
    6.5979   -4.0934   -4.3675 H   0  0  0  0  0  0  0  0  0  0  0  0
    4.4994   -4.6501   -6.1395 H   0  0  0  0  0  0  0  0  0  0  0  0
    5.4110   -3.2042   -6.5483 H   0  0  0  0  0  0  0  0  0  0  0  0
    6.3138   -6.7707   -8.3854 H   0  0  0  0  0  0  0  0  0  0  0  0
    4.9679   -6.7400   -7.2267 H   0  0  0  0  0  0  0  0  0  0  0  0
    7.9580   -6.3898   -6.5437 H   0  0  0  0  0  0  0  0  0  0  0  0
    6.9743   -7.8264   -6.1523 H   0  0  0  0  0  0  0  0  0  0  0  0
  2  1  1  0  0  0  0
  2  3  1  0  0  0  0
  3 31  1  0  0  0  0
  4  3  2  0  0  0  0
  4  5  1  0  0  0  0
  4 32  1  0  0  0  0
  5  6  1  0  0  0  0
  6 33  1  0  0  0  0
  7  5  2  0  0  0  0
  8  2  2  0  0  0  0
  8  7  1  0  0  0  0
  8 34  1  0  0  0  0
  9  7  1  0  0  0  0
  9 35  1  0  0  0  0
 10  6  1  0  0  0  0
 10  9  2  0  0  0  0
 10 11  1  0  0  0  0
 12 11  2  0  0  0  0
 13 11  2  0  0  0  0
 14 11  1  0  0  0  0
 14 36  1  0  0  0  0
 15 14  1  0  0  0  0
 15 16  1  0  0  0  0
 15 18  1  0  0  0  0
 15 37  1  1  0  0  0
 16 17  2  0  0  0  0
 16 20  1  0  0  0  0
 18 19  1  0  0  0  0
 18 38  1  0  0  0  0
 18 39  1  0  0  0  0
 19 20  1  0  0  0  0
 19 40  1  0  0  0  0
 19 41  1  0  0  0  0
 21 20  1  0  0  0  0
 21 22  1  0  0  0  0
 21 23  1  0  0  0  0
 21 42  1  1  0  0  0
 22 43  1  0  0  0  0
 22 44  1  0  0  0  0
 22 45  1  0  0  0  0
 23 24  2  0  0  0  0
 23 25  1  0  0  0  0
 26 25  1  0  0  0  0
 26 27  1  0  0  0  0
 26 46  1  0  0  0  0
 26 47  1  0  0  0  0
 27 28  1  0  0  0  0
 27 48  1  0  0  0  0
 27 49  1  0  0  0  0
 29 28  1  0  0  0  0
 29 50  1  0  0  0  0
 29 51  1  0  0  0  0
 30 25  1  0  0  0  0
 30 29  1  0  0  0  0
 30 52  1  0  0  0  0
 30 53  1  0  0  0  0
M  END
>  <DRUGBANK_ID>
DB07848

>  <COMMON_NAME>
5-Chloro-N-{(3S)-1-[(2S)-1-(4-morpholinyl)-1-oxo-2-propanyl]-2-oxo-3-pyrrolidinyl}-1H-indole-2-sulfonamide

$$$$
