
 OpenBabel10282417203D

 35 34  0  0  0  0  0  0  0  0999 V2000
    0.7022    0.2250   -0.3077 C   0  0  0  0  0  0  0  0  0  0  0  0
    0.4836    0.0615    1.2896 C   0  0  2  0  0  0  0  0  0  0  0  0
    0.6873    1.3640    2.0799 C   0  0  0  0  0  0  0  0  0  0  0  0
    2.1614    1.6577    2.3221 C   0  0  0  0  0  0  0  0  0  0  0  0
    2.8932    0.5746    3.1332 C   0  0  2  0  0  0  0  0  0  0  0  0
    2.6515   -0.8459    2.6295 C   0  0  0  0  0  0  0  0  0  0  0  0
    1.1961   -1.0760    2.1446 C   0  0  0  0  0  0  0  0  0  0  0  0
    2.5000    0.5846    4.6043 C   0  0  0  0  0  0  0  0  0  0  0  0
    4.2944    0.8455    3.0310 O   0  0  0  0  0  0  0  0  0  0  0  0
    0.0563    1.4770   -0.9388 C   0  0  0  0  0  0  0  0  0  0  0  0
    0.2344   -1.0524   -1.0490 C   0  0  0  0  0  0  0  0  0  0  0  0
    2.0754    0.3960   -0.6874 O   0  0  0  0  0  0  0  0  0  0  0  0
    3.1122   -1.5558   -0.1583 O   0  0  0  0  0  0  0  0  0  0  0  0
   -0.5894   -0.1735    1.3752 H   0  0  0  0  0  0  0  0  0  0  0  0
    0.1758    1.2804    3.0481 H   0  0  0  0  0  0  0  0  0  0  0  0
    0.1956    2.2069    1.5885 H   0  0  0  0  0  0  0  0  0  0  0  0
    2.2587    2.6232    2.8299 H   0  0  0  0  0  0  0  0  0  0  0  0
    2.6699    1.8152    1.3691 H   0  0  0  0  0  0  0  0  0  0  0  0
    3.4525   -1.0945    1.9372 H   0  0  0  0  0  0  0  0  0  0  0  0
    2.8858   -1.5872    3.4126 H   0  0  0  0  0  0  0  0  0  0  0  0
    0.6192   -1.1515    3.0852 H   0  0  0  0  0  0  0  0  0  0  0  0
    1.0800   -2.0713    1.7023 H   0  0  0  0  0  0  0  0  0  0  0  0
    2.8481    1.4906    5.1015 H   0  0  0  0  0  0  0  0  0  0  0  0
    1.4188    0.4859    4.7246 H   0  0  0  0  0  0  0  0  0  0  0  0
    2.9680   -0.2609    5.1237 H   0  0  0  0  0  0  0  0  0  0  0  0
    4.4890    1.6565    3.5302 H   0  0  0  0  0  0  0  0  0  0  0  0
    0.3269    1.5584   -2.0033 H   0  0  0  0  0  0  0  0  0  0  0  0
   -1.0312    1.5128   -0.8574 H   0  0  0  0  0  0  0  0  0  0  0  0
    0.4811    2.3882   -0.4997 H   0  0  0  0  0  0  0  0  0  0  0  0
    0.6197   -1.0894   -2.0786 H   0  0  0  0  0  0  0  0  0  0  0  0
    0.6319   -1.9527   -0.5679 H   0  0  0  0  0  0  0  0  0  0  0  0
   -0.8530   -1.1617   -1.0814 H   0  0  0  0  0  0  0  0  0  0  0  0
    2.4398    1.2365   -0.3707 H   0  0  0  0  0  0  0  0  0  0  0  0
    2.7528   -0.8029    0.3566 H   0  0  0  0  0  0  0  0  0  0  0  0
    2.8777   -1.0944   -0.9977 H   0  0  0  0  0  0  0  0  0  0  0  0
  1 10  1  0  0  0  0
  1 11  1  0  0  0  0
  1 12  1  0  0  0  0
  2  1  1  0  0  0  0
  2  3  1  0  0  0  0
  2  7  1  0  0  0  0
  2 14  1  1  0  0  0
  3  4  1  0  0  0  0
  3 15  1  0  0  0  0
  3 16  1  0  0  0  0
  4  5  1  0  0  0  0
  4 17  1  0  0  0  0
  4 18  1  0  0  0  0
  5  6  1  0  0  0  0
  5  9  1  6  0  0  0
  5  8  1  0  0  0  0
  6  7  1  0  0  0  0
  6 19  1  0  0  0  0
  6 20  1  0  0  0  0
  7 21  1  0  0  0  0
  7 22  1  0  0  0  0
  8 23  1  0  0  0  0
  8 24  1  0  0  0  0
  8 25  1  0  0  0  0
  9 26  1  0  0  0  0
 10 27  1  0  0  0  0
 10 28  1  0  0  0  0
 10 29  1  0  0  0  0
 11 30  1  0  0  0  0
 11 31  1  0  0  0  0
 11 32  1  0  0  0  0
 12 33  1  0  0  0  0
 13 34  1  0  0  0  0
 13 35  1  0  0  0  0
M  END
>  <DRUGBANK_ID>
DB13163

>  <COMMON_NAME>
Terpin hydrate

>  <CAS_NUMBER>
2451-01-6

>  <UNII>
S3V868548T

>  <SYNONYMS>
cis-p-methane-1,8-diol monohydrate; cis-terpin hydrate; Terpin cis-form hydrate; Terpin hydrate; Terpin monohydrate; Terpinene hydrate; Terpinol hydrate

$$$$
