
 OpenBabel10282417203D

 26 27  0  0  1  0  0  0  0  0999 V2000
   -3.7018   -2.7980    0.5218 C   0  0  0  0  0  0  0  0  0  0  0  0
   -2.4076   -2.7339    0.8387 C   0  0  0  0  0  0  0  0  0  0  0  0
   -1.4358   -3.3455    0.0493 N   0  0  0  0  0  0  0  0  0  0  0  0
   -1.8657   -4.0617   -1.0790 C   0  0  0  0  0  0  0  0  0  0  0  0
   -1.1139   -4.3975   -1.9884 O   0  0  0  0  0  0  0  0  0  0  0  0
   -3.1737   -4.4565   -1.1561 N   0  0  0  0  0  0  0  0  0  0  0  0
   -4.0611   -3.8386   -0.4513 C   0  0  0  0  0  0  0  0  0  0  0  0
   -5.3591   -4.2051   -0.6166 N   0  0  0  0  0  0  0  0  0  0  0  0
   -0.0306   -2.8619    0.2227 C   0  0  1  0  0  0  0  0  0  0  0  0
    0.5648   -3.2464    1.5870 C   0  0  0  0  0  0  0  0  0  0  0  0
    0.9220   -4.6357    1.5447 O   0  0  0  0  0  0  0  0  0  0  0  0
    1.6233   -4.8840    0.3107 C   0  0  2  0  0  0  0  0  0  0  0  0
    1.2746   -3.5283   -0.8311 S   0  0  0  0  0  0  0  0  0  0  0  0
    1.3112   -6.3195   -0.1727 C   0  0  0  0  0  0  0  0  0  0  0  0
    0.1524   -6.5257   -0.9633 O   0  0  0  0  0  0  0  0  0  0  0  0
   -4.4773   -2.2100    0.9866 H   0  0  0  0  0  0  0  0  0  0  0  0
   -2.0814   -2.1210    1.6732 H   0  0  0  0  0  0  0  0  0  0  0  0
   -6.1179   -3.8202   -0.0759 H   0  0  0  0  0  0  0  0  0  0  0  0
   -5.5454   -5.0120   -1.2020 H   0  0  0  0  0  0  0  0  0  0  0  0
   -0.0553   -1.7711    0.1090 H   0  0  0  0  0  0  0  0  0  0  0  0
   -0.1298   -3.0988    2.4176 H   0  0  0  0  0  0  0  0  0  0  0  0
    1.4638   -2.6544    1.8196 H   0  0  0  0  0  0  0  0  0  0  0  0
    2.6926   -4.8451    0.5475 H   0  0  0  0  0  0  0  0  0  0  0  0
    2.1496   -6.6989   -0.7613 H   0  0  0  0  0  0  0  0  0  0  0  0
    1.1788   -6.9653    0.6994 H   0  0  0  0  0  0  0  0  0  0  0  0
   -0.5539   -5.9388   -0.6513 H   0  0  0  0  0  0  0  0  0  0  0  0
  1  2  2  0  0  0  0
  1  7  1  0  0  0  0
  1 16  1  0  0  0  0
  2  3  1  0  0  0  0
  2 17  1  0  0  0  0
  3  4  1  0  0  0  0
  4  5  2  0  0  0  0
  4  6  1  0  0  0  0
  6  7  2  0  0  0  0
  7  8  1  0  0  0  0
  8 18  1  0  0  0  0
  8 19  1  0  0  0  0
  9 10  1  0  0  0  0
  9 13  1  0  0  0  0
  9 20  1  6  0  0  0
  9  3  1  0  0  0  0
 10 11  1  0  0  0  0
 10 21  1  0  0  0  0
 10 22  1  0  0  0  0
 11 12  1  0  0  0  0
 12 13  1  0  0  0  0
 12 23  1  1  0  0  0
 12 14  1  0  0  0  0
 14 15  1  0  0  0  0
 14 24  1  0  0  0  0
 14 25  1  0  0  0  0
 15 26  1  0  0  0  0
M  END
>  <DRUGBANK_ID>
DB12855

>  <SECONDARY_ACCESSION_NUMBERS>
DB05632

>  <COMMON_NAME>
Apricitabine

>  <CAS_NUMBER>
160707-69-7

>  <UNII>
K1YX059ML1

>  <SYNONYMS>
Apricitabine

$$$$
