
 OpenBabel10282417133D

 92 94  0  0  1  0  0  0  0  0999 V2000
   -4.1012  -14.6185    5.0570 C   0  0  0  0  0  0  0  0  0  0  0  0
   -3.0002  -15.3015    4.2958 C   0  0  0  0  0  0  0  0  0  0  0  0
   -3.3624  -14.8133    2.9394 C   0  0  0  0  0  0  0  0  0  0  0  0
   -3.0765  -13.6671    2.6941 O   0  0  0  0  0  0  0  0  0  0  0  0
   -4.5729  -15.7254    2.0448 S   0  0  0  0  0  0  0  0  0  0  0  0
   -4.3571  -15.0812    0.3767 C   0  0  0  0  0  0  0  0  0  0  0  0
   -4.2847  -13.5345    0.1666 C   0  0  0  0  0  0  0  0  0  0  0  0
   -2.9537  -12.9740    0.4854 N   0  0  0  0  0  0  0  0  0  0  0  0
   -1.9929  -12.1899   -0.0536 C   0  0  0  0  0  0  0  0  0  0  0  0
   -1.0204  -11.8828    0.6030 O   0  0  0  0  0  0  0  0  0  0  0  0
   -2.1096  -11.7820   -1.4673 C   0  0  0  0  0  0  0  0  0  0  0  0
   -2.2200  -12.9499   -2.3510 C   0  0  0  0  0  0  0  0  0  0  0  0
   -3.3132  -13.8791   -2.2820 N   0  0  0  0  0  0  0  0  0  0  0  0
   -4.1593  -14.4925   -3.1545 C   0  0  0  0  0  0  0  0  0  0  0  0
   -4.9750  -15.2998   -2.7205 O   0  0  0  0  0  0  0  0  0  0  0  0
   -3.9751  -14.1709   -4.6197 C   0  0  2  0  0  0  0  0  0  0  0  0
   -5.0689  -14.6826   -5.3776 O   0  0  0  0  0  0  0  0  0  0  0  0
   -2.6268  -14.7027   -5.1969 C   0  0  0  0  0  0  0  0  0  0  0  0
   -2.5534  -14.3582   -6.6782 C   0  0  0  0  0  0  0  0  0  0  0  0
   -1.3906  -13.8716   -4.8064 C   0  0  0  0  0  0  0  0  0  0  0  0
   -2.5235  -16.2738   -4.9067 C   0  0  0  0  0  0  0  0  0  0  0  0
   -2.5954  -16.7082   -3.4980 O   0  0  0  0  0  0  0  0  0  0  0  0
   -1.3343  -16.0041   -2.5458 P   0  0  3  0  0  0  0  0  0  0  0  0
   -0.3481  -15.7352   -3.7549 O   0  0  0  0  0  0  0  0  0  0  0  0
   -2.3206  -15.6933   -1.4961 O   0  0  0  0  0  0  0  0  0  0  0  0
   -0.0732  -15.3001   -1.5935 O   0  0  0  0  0  0  0  0  0  0  0  0
   -0.6238  -15.0983    0.0341 P   0  0  3  0  0  0  0  0  0  0  0  0
   -0.8576  -16.7067    0.1645 O   0  0  0  0  0  0  0  0  0  0  0  0
    0.6372  -14.2877    0.2146 O   0  0  0  0  0  0  0  0  0  0  0  0
   -1.1744  -14.8966    1.6617 O   0  0  0  0  0  0  0  0  0  0  0  0
   -0.0546  -14.6101    2.5388 C   0  0  0  0  0  0  0  0  0  0  0  0
    0.9663  -15.7780    2.6098 C   0  0  1  0  0  0  0  0  0  0  0  0
    0.3252  -16.9042    3.2772 O   0  0  0  0  0  0  0  0  0  0  0  0
    0.5363  -18.1406    2.5201 C   0  0  2  0  0  0  0  0  0  0  0  0
    1.6620  -17.8429    1.5357 C   0  0  2  0  0  0  0  0  0  0  0  0
    2.9200  -18.0452    2.1732 O   0  0  0  0  0  0  0  0  0  0  0  0
    1.5716  -16.3684    1.3416 C   0  0  2  0  0  0  0  0  0  0  0  0
    2.4922  -15.6401    0.6079 O   0  0  0  0  0  0  0  0  0  0  0  0
    4.0499  -15.6211    0.7364 P   0  0  0  0  0  0  0  0  0  0  0  0
    4.3652  -17.1453    0.4259 O   0  0  0  0  0  0  0  0  0  0  0  0
    4.3585  -14.8689   -0.6362 O   0  0  0  0  0  0  0  0  0  0  0  0
    4.5129  -15.0556    2.0271 O   0  0  0  0  0  0  0  0  0  0  0  0
   -0.7245  -18.6633    2.0235 N   0  0  0  0  0  0  0  0  0  0  0  0
   -1.9589  -18.1931    2.3775 C   0  0  0  0  0  0  0  0  0  0  0  0
   -2.9488  -18.8584    1.8368 N   0  0  0  0  0  0  0  0  0  0  0  0
   -2.3290  -19.8531    1.1246 C   0  0  0  0  0  0  0  0  0  0  0  0
   -0.9456  -19.7464    1.2126 C   0  0  0  0  0  0  0  0  0  0  0  0
   -0.0439  -20.5417    0.6169 N   0  0  0  0  0  0  0  0  0  0  0  0
   -0.6607  -21.5146   -0.0946 C   0  0  0  0  0  0  0  0  0  0  0  0
   -1.9859  -21.7347   -0.2615 N   0  0  0  0  0  0  0  0  0  0  0  0
   -2.8528  -20.9004    0.3521 C   0  0  0  0  0  0  0  0  0  0  0  0
   -4.2080  -21.0866    0.1963 N   0  0  0  0  0  0  0  0  0  0  0  0
   -4.0994  -13.5421    4.8276 H   0  0  0  0  0  0  0  0  0  0  0  0
   -3.9870  -14.7607    6.1206 H   0  0  0  0  0  0  0  0  0  0  0  0
   -5.0641  -15.0095    4.7119 H   0  0  0  0  0  0  0  0  0  0  0  0
   -2.0253  -14.8971    4.5823 H   0  0  0  0  0  0  0  0  0  0  0  0
   -2.9669  -16.3783    4.4233 H   0  0  0  0  0  0  0  0  0  0  0  0
   -3.4347  -15.5859    0.1444 H   0  0  0  0  0  0  0  0  0  0  0  0
   -5.1089  -15.5369   -0.2789 H   0  0  0  0  0  0  0  0  0  0  0  0
   -4.5750  -13.1981   -0.8252 H   0  0  0  0  0  0  0  0  0  0  0  0
   -5.0414  -13.0539    0.7777 H   0  0  0  0  0  0  0  0  0  0  0  0
   -2.7164  -13.0678    1.4694 H   0  0  0  0  0  0  0  0  0  0  0  0
   -2.9346  -11.1126   -1.6473 H   0  0  0  0  0  0  0  0  0  0  0  0
   -1.1515  -11.3177   -1.7587 H   0  0  0  0  0  0  0  0  0  0  0  0
   -2.3091  -12.4961   -3.3116 H   0  0  0  0  0  0  0  0  0  0  0  0
   -1.2849  -13.4847   -2.1505 H   0  0  0  0  0  0  0  0  0  0  0  0
   -3.2012  -14.5581   -1.5319 H   0  0  0  0  0  0  0  0  0  0  0  0
   -4.0498  -13.0844   -4.6660 H   0  0  0  0  0  0  0  0  0  0  0  0
   -4.8138  -15.5272   -5.7806 H   0  0  0  0  0  0  0  0  0  0  0  0
   -2.6266  -13.2613   -6.7691 H   0  0  0  0  0  0  0  0  0  0  0  0
   -1.5716  -14.6470   -7.0731 H   0  0  0  0  0  0  0  0  0  0  0  0
   -3.3360  -14.8113   -7.2702 H   0  0  0  0  0  0  0  0  0  0  0  0
   -1.2201  -14.0313   -3.7846 H   0  0  0  0  0  0  0  0  0  0  0  0
   -0.4362  -14.1474   -5.2658 H   0  0  0  0  0  0  0  0  0  0  0  0
   -1.4834  -12.7908   -4.9312 H   0  0  0  0  0  0  0  0  0  0  0  0
   -3.3251  -16.8114   -5.4210 H   0  0  0  0  0  0  0  0  0  0  0  0
   -1.6050  -16.6863   -5.3447 H   0  0  0  0  0  0  0  0  0  0  0  0
    0.3219  -16.3969   -4.0083 H   0  0  0  0  0  0  0  0  0  0  0  0
   -1.7982  -16.8950   -0.0796 H   0  0  0  0  0  0  0  0  0  0  0  0
    0.3966  -13.6483    2.2587 H   0  0  0  0  0  0  0  0  0  0  0  0
   -0.4441  -14.4134    3.5359 H   0  0  0  0  0  0  0  0  0  0  0  0
    1.7871  -15.4164    3.2389 H   0  0  0  0  0  0  0  0  0  0  0  0
    0.8858  -18.8885    3.2325 H   0  0  0  0  0  0  0  0  0  0  0  0
    1.5908  -18.3765    0.5738 H   0  0  0  0  0  0  0  0  0  0  0  0
    2.9396  -17.3738    2.8911 H   0  0  0  0  0  0  0  0  0  0  0  0
    0.8931  -16.4668    0.5632 H   0  0  0  0  0  0  0  0  0  0  0  0
    4.0386  -17.6905    1.1795 H   0  0  0  0  0  0  0  0  0  0  0  0
    3.5143  -14.6840   -1.0966 H   0  0  0  0  0  0  0  0  0  0  0  0
   -2.0476  -17.3293    2.9999 H   0  0  0  0  0  0  0  0  0  0  0  0
   -0.0046  -22.2144   -0.6056 H   0  0  0  0  0  0  0  0  0  0  0  0
   -4.8385  -20.4765    0.7014 H   0  0  0  0  0  0  0  0  0  0  0  0
   -4.5422  -21.8874   -0.3136 H   0  0  0  0  0  0  0  0  0  0  0  0
  1  2  1  0  0  0  0
  1 53  1  0  0  0  0
  1 54  1  0  0  0  0
  1 55  1  0  0  0  0
  2  3  1  0  0  0  0
  2 56  1  0  0  0  0
  2 57  1  0  0  0  0
  3  4  2  0  0  0  0
  3  5  1  0  0  0  0
  5  6  1  0  0  0  0
  6  7  1  0  0  0  0
  6 58  1  0  0  0  0
  6 59  1  0  0  0  0
  7  8  1  0  0  0  0
  7 60  1  0  0  0  0
  7 61  1  0  0  0  0
  8  9  1  0  0  0  0
  8 62  1  0  0  0  0
  9 10  2  0  0  0  0
  9 11  1  0  0  0  0
 11 12  1  0  0  0  0
 11 63  1  0  0  0  0
 11 64  1  0  0  0  0
 12 13  1  0  0  0  0
 12 65  1  0  0  0  0
 12 66  1  0  0  0  0
 13 14  1  0  0  0  0
 13 67  1  0  0  0  0
 14 15  2  0  0  0  0
 16 18  1  0  0  0  0
 16 68  1  6  0  0  0
 16 17  1  0  0  0  0
 16 14  1  0  0  0  0
 17 69  1  0  0  0  0
 18 19  1  0  0  0  0
 18 20  1  0  0  0  0
 18 21  1  0  0  0  0
 19 70  1  0  0  0  0
 19 71  1  0  0  0  0
 19 72  1  0  0  0  0
 20 73  1  0  0  0  0
 20 74  1  0  0  0  0
 20 75  1  0  0  0  0
 21 22  1  0  0  0  0
 21 76  1  0  0  0  0
 21 77  1  0  0  0  0
 22 23  1  0  0  0  0
 23 24  1  0  0  0  0
 23 25  2  0  0  0  0
 23 26  1  0  0  0  0
 24 78  1  0  0  0  0
 26 27  1  0  0  0  0
 27 28  1  0  0  0  0
 27 29  2  0  0  0  0
 27 30  1  0  0  0  0
 28 79  1  0  0  0  0
 30 31  1  0  0  0  0
 31 80  1  0  0  0  0
 31 81  1  0  0  0  0
 32 33  1  0  0  0  0
 32 82  1  1  0  0  0
 32 31  1  0  0  0  0
 34 33  1  0  0  0  0
 34 43  1  0  0  0  0
 34 83  1  1  0  0  0
 35 34  1  0  0  0  0
 35 36  1  0  0  0  0
 35 37  1  0  0  0  0
 35 84  1  6  0  0  0
 36 85  1  0  0  0  0
 37 32  1  0  0  0  0
 37 38  1  0  0  0  0
 37 86  1  6  0  0  0
 38 39  1  0  0  0  0
 39 40  1  0  0  0  0
 39 41  1  0  0  0  0
 39 42  2  0  0  0  0
 40 87  1  0  0  0  0
 41 88  1  0  0  0  0
 43 44  1  0  0  0  0
 43 47  1  0  0  0  0
 44 45  2  0  0  0  0
 44 89  1  0  0  0  0
 45 46  1  0  0  0  0
 46 47  2  0  0  0  0
 46 51  1  0  0  0  0
 47 48  1  0  0  0  0
 48 49  2  0  0  0  0
 49 50  1  0  0  0  0
 49 90  1  0  0  0  0
 50 51  2  0  0  0  0
 51 52  1  0  0  0  0
 52 91  1  0  0  0  0
 52 92  1  0  0  0  0
M  END
>  <DRUGBANK_ID>
DB02912

>  <SECONDARY_ACCESSION_NUMBERS>
EXPT00059

>  <COMMON_NAME>
Propanoyl-CoA

>  <CAS_NUMBER>
317-66-8

>  <UNII>
H7HQA57V5H

>  <SYNONYMS>
propanoyl-coenzyme A; Propionyl coenzyme A; Propionyl-CoA; Propionyl-coenzyme A; S-propanoyl-CoA; S-propanoyl-coenzyme A; S-Propionyl-coenzym-A; S-Propionylcoenzyme A

$$$$
