
 OpenBabel10282417183D

 53 53  0  0  0  0  0  0  0  0999 V2000
    0.9311    0.0231   -0.0150 C   0  0  0  0  0  0  0  0  0  0  0  0
    0.2689   -0.2514    1.1713 N   0  0  0  0  0  0  0  0  0  0  0  0
    2.1193    0.3204   -0.0481 O   0  0  0  0  0  0  0  0  0  0  0  0
    0.9418   -0.1593    2.4648 C   0  0  0  0  0  0  0  0  0  0  0  0
    0.5839    1.0938    3.2929 C   0  0  3  0  0  0  0  0  0  0  0  0
    1.3567    1.1043    4.6186 C   0  0  0  0  0  0  0  0  0  0  0  0
    2.7633    1.1568    4.4239 O   0  0  0  0  0  0  0  0  0  0  0  0
   -0.8165    1.0854    3.5996 O   0  0  0  0  0  0  0  0  0  0  0  0
    0.1269   -0.0175   -1.2952 C   0  0  0  0  0  0  0  0  0  0  0  0
    0.5113   -0.8973   -2.3798 C   0  0  0  0  0  0  0  0  0  0  0  0
   -0.1729   -0.9436   -3.6828 C   0  0  0  0  0  0  0  0  0  0  0  0
   -1.2972    0.0081   -3.7446 C   0  0  0  0  0  0  0  0  0  0  0  0
   -1.6521    0.9675   -2.6956 C   0  0  0  0  0  0  0  0  0  0  0  0
   -0.9460    0.8888   -1.4639 C   0  0  0  0  0  0  0  0  0  0  0  0
   -3.1511   -0.3482   -5.2051 I   0  0  0  0  0  0  0  0  0  0  0  0
   -1.5142    2.0731    0.3312 I   0  0  0  0  0  0  0  0  0  0  0  0
    2.1557   -2.3928   -1.5476 I   0  0  0  0  0  0  0  0  0  0  0  0
   -2.7186    2.0346   -2.9706 C   0  0  0  0  0  0  0  0  0  0  0  0
   -3.1650    2.8230   -1.9493 N   0  0  0  0  0  0  0  0  0  0  0  0
   -4.2208    3.7926   -2.1183 C   0  0  0  0  0  0  0  0  0  0  0  0
   -5.3503    3.5096   -1.1304 C   0  0  3  0  0  0  0  0  0  0  0  0
   -6.4886    4.4972   -1.3616 C   0  0  0  0  0  0  0  0  0  0  0  0
   -7.0557    4.3696   -2.6600 O   0  0  0  0  0  0  0  0  0  0  0  0
   -3.1774    2.2780   -4.0778 O   0  0  0  0  0  0  0  0  0  0  0  0
   -4.8622    3.6468    0.2100 O   0  0  0  0  0  0  0  0  0  0  0  0
    0.2095   -1.8534   -4.8303 N   0  0  0  0  0  0  0  0  0  0  0  0
    1.3425   -2.7500   -4.7557 C   0  0  0  0  0  0  0  0  0  0  0  0
   -0.2546   -1.7561   -6.1627 C   0  0  0  0  0  0  0  0  0  0  0  0
   -0.8191   -0.7749   -6.6670 O   0  0  0  0  0  0  0  0  0  0  0  0
    0.1418   -2.8253   -7.1931 C   0  0  0  0  0  0  0  0  0  0  0  0
    1.4462   -2.5154   -7.6721 O   0  0  0  0  0  0  0  0  0  0  0  0
   -0.7420   -0.2922    1.1752 H   0  0  0  0  0  0  0  0  0  0  0  0
    0.6437   -1.0545    3.0178 H   0  0  0  0  0  0  0  0  0  0  0  0
    2.0194   -0.1935    2.2927 H   0  0  0  0  0  0  0  0  0  0  0  0
    0.8162    2.0091    2.7344 H   0  0  0  0  0  0  0  0  0  0  0  0
    1.0690    1.9777    5.2150 H   0  0  0  0  0  0  0  0  0  0  0  0
    1.1057    0.2237    5.2212 H   0  0  0  0  0  0  0  0  0  0  0  0
    3.0483    0.3471    3.9677 H   0  0  0  0  0  0  0  0  0  0  0  0
   -1.2914    1.2097    2.7617 H   0  0  0  0  0  0  0  0  0  0  0  0
   -2.6339    2.8905   -1.0992 H   0  0  0  0  0  0  0  0  0  0  0  0
   -3.7755    4.7778   -1.9470 H   0  0  0  0  0  0  0  0  0  0  0  0
   -4.5925    3.7535   -3.1427 H   0  0  0  0  0  0  0  0  0  0  0  0
   -5.7091    2.4798   -1.2570 H   0  0  0  0  0  0  0  0  0  0  0  0
   -7.2809    4.3230   -0.6284 H   0  0  0  0  0  0  0  0  0  0  0  0
   -6.1382    5.5253   -1.2176 H   0  0  0  0  0  0  0  0  0  0  0  0
   -6.3831    4.5943   -3.3267 H   0  0  0  0  0  0  0  0  0  0  0  0
   -4.1877    2.9583    0.3336 H   0  0  0  0  0  0  0  0  0  0  0  0
    1.0155   -3.7866   -4.8629 H   0  0  0  0  0  0  0  0  0  0  0  0
    2.1024   -2.4964   -5.5000 H   0  0  0  0  0  0  0  0  0  0  0  0
    1.8993   -2.6781   -3.8701 H   0  0  0  0  0  0  0  0  0  0  0  0
    0.0789   -3.8533   -6.8244 H   0  0  0  0  0  0  0  0  0  0  0  0
   -0.5416   -2.7468   -8.0452 H   0  0  0  0  0  0  0  0  0  0  0  0
    1.4120   -1.5621   -7.8936 H   0  0  0  0  0  0  0  0  0  0  0  0
  1  2  1  0  0  0  0
  1  3  2  0  0  0  0
  2  4  1  0  0  0  0
  2 32  1  0  0  0  0
  4  5  1  0  0  0  0
  4 33  1  0  0  0  0
  4 34  1  0  0  0  0
  5  8  1  0  0  0  0
  5  6  1  0  0  0  0
  5 35  1  0  0  0  0
  6  7  1  0  0  0  0
  6 36  1  0  0  0  0
  6 37  1  0  0  0  0
  7 38  1  0  0  0  0
  8 39  1  0  0  0  0
  9  1  1  0  0  0  0
  9 10  1  0  0  0  0
 10 17  1  0  0  0  0
 10 11  2  0  0  0  0
 11 12  1  0  0  0  0
 11 26  1  0  0  0  0
 12 13  2  0  0  0  0
 12 15  1  0  0  0  0
 13 18  1  0  0  0  0
 13 14  1  0  0  0  0
 14  9  2  0  0  0  0
 14 16  1  0  0  0  0
 18 19  1  0  0  0  0
 18 24  2  0  0  0  0
 19 20  1  0  0  0  0
 19 40  1  0  0  0  0
 20 21  1  0  0  0  0
 20 41  1  0  0  0  0
 20 42  1  0  0  0  0
 21 25  1  0  0  0  0
 21 22  1  0  0  0  0
 21 43  1  0  0  0  0
 22 23  1  0  0  0  0
 22 44  1  0  0  0  0
 22 45  1  0  0  0  0
 23 46  1  0  0  0  0
 25 47  1  0  0  0  0
 26 27  1  0  0  0  0
 26 28  1  0  0  0  0
 27 48  1  0  0  0  0
 27 49  1  0  0  0  0
 27 50  1  0  0  0  0
 28 29  2  0  0  0  0
 28 30  1  0  0  0  0
 30 31  1  0  0  0  0
 30 51  1  0  0  0  0
 30 52  1  0  0  0  0
 31 53  1  0  0  0  0
M  END
>  <DRUGBANK_ID>
DB11705

>  <COMMON_NAME>
Iomeprol

>  <CAS_NUMBER>
78649-41-9

>  <UNII>
17E17JBP8L

>  <SYNONYMS>
Iomeprol; Iomeprolum

$$$$
