
 OpenBabel10282417223D

 46 47  0  0  0  0  0  0  0  0999 V2000
    1.2421   -0.0888    0.1436 N   0  0  0  0  0  0  0  0  0  0  0  0
    0.8368    0.1689   -1.2360 C   0  0  0  0  0  0  0  0  0  0  0  0
    1.0230   -0.8202   -2.4045 C   0  0  3  0  0  0  0  0  0  0  0  0
    0.8142   -2.2736   -2.0240 C   0  0  0  0  0  0  0  0  0  0  0  0
    0.5837   -1.2340    0.7688 C   0  0  0  0  0  0  0  0  0  0  0  0
    2.6803   -0.1157    0.2066 C   0  0  0  0  0  0  0  0  0  0  0  0
    0.2693   -0.4541   -3.5964 O   0  0  0  0  0  0  0  0  0  0  0  0
   -1.2063   -0.4601   -3.6481 C   0  0  3  0  0  0  0  0  0  0  0  0
   -1.7700   -1.9045   -3.4844 C   0  0  0  0  0  0  0  0  0  0  0  0
   -2.8600   -2.1940   -2.6501 C   0  0  0  0  0  0  0  0  0  0  0  0
   -3.0456   -3.4710   -2.1236 C   0  0  0  0  0  0  0  0  0  0  0  0
   -2.2808   -4.5258   -2.5872 C   0  0  0  0  0  0  0  0  0  0  0  0
   -1.3372   -4.3125   -3.5897 C   0  0  0  0  0  0  0  0  0  0  0  0
   -1.1058   -3.0090   -4.0576 C   0  0  0  0  0  0  0  0  0  0  0  0
   -1.7584    0.6716   -2.7045 C   0  0  0  0  0  0  0  0  0  0  0  0
   -2.2239    0.3905   -1.3846 C   0  0  0  0  0  0  0  0  0  0  0  0
   -2.2946    1.3729   -0.3852 C   0  0  0  0  0  0  0  0  0  0  0  0
   -1.9489    2.6672   -0.6775 C   0  0  0  0  0  0  0  0  0  0  0  0
   -1.5660    3.0072   -1.9795 C   0  0  0  0  0  0  0  0  0  0  0  0
   -1.4945    2.0210   -2.9828 C   0  0  0  0  0  0  0  0  0  0  0  0
   -1.5289   -0.0952   -5.1197 C   0  0  0  0  0  0  0  0  0  0  0  0
   -2.5077   -6.0932   -1.9227 Cl  0  0  0  0  0  0  0  0  0  0  0  0
   -0.1941    0.2681   -1.0900 H   0  0  0  0  0  0  0  0  0  0  0  0
    1.1432    1.1746   -1.5586 H   0  0  0  0  0  0  0  0  0  0  0  0
    2.0773   -0.7462   -2.7017 H   0  0  0  0  0  0  0  0  0  0  0  0
   -0.1864   -2.4106   -1.6051 H   0  0  0  0  0  0  0  0  0  0  0  0
    0.9658   -2.9145   -2.8889 H   0  0  0  0  0  0  0  0  0  0  0  0
    1.5290   -2.6589   -1.3019 H   0  0  0  0  0  0  0  0  0  0  0  0
    0.9839   -2.1941    0.4514 H   0  0  0  0  0  0  0  0  0  0  0  0
    0.7054   -1.2188    1.8537 H   0  0  0  0  0  0  0  0  0  0  0  0
   -0.4989   -1.2477    0.5787 H   0  0  0  0  0  0  0  0  0  0  0  0
    3.0612    0.8623   -0.1098 H   0  0  0  0  0  0  0  0  0  0  0  0
    3.0200   -0.2941    1.2260 H   0  0  0  0  0  0  0  0  0  0  0  0
    3.0879   -0.8792   -0.4600 H   0  0  0  0  0  0  0  0  0  0  0  0
   -3.5251   -1.4144   -2.2998 H   0  0  0  0  0  0  0  0  0  0  0  0
   -3.7654   -3.6071   -1.3190 H   0  0  0  0  0  0  0  0  0  0  0  0
   -0.7118   -5.1297   -3.9347 H   0  0  0  0  0  0  0  0  0  0  0  0
   -0.2686   -2.8489   -4.7422 H   0  0  0  0  0  0  0  0  0  0  0  0
   -2.2212   -0.6213   -0.9969 H   0  0  0  0  0  0  0  0  0  0  0  0
   -2.4395    1.0522    0.6498 H   0  0  0  0  0  0  0  0  0  0  0  0
   -1.8957    3.4074    0.1200 H   0  0  0  0  0  0  0  0  0  0  0  0
   -1.2332    4.0141   -2.1899 H   0  0  0  0  0  0  0  0  0  0  0  0
   -1.0970    2.3351   -3.9478 H   0  0  0  0  0  0  0  0  0  0  0  0
   -1.0751    0.8505   -5.4332 H   0  0  0  0  0  0  0  0  0  0  0  0
   -1.1198   -0.8361   -5.8190 H   0  0  0  0  0  0  0  0  0  0  0  0
   -2.6103   -0.0349   -5.2798 H   0  0  0  0  0  0  0  0  0  0  0  0
  1  2  1  0  0  0  0
  1  5  1  0  0  0  0
  1  6  1  0  0  0  0
  2  3  1  0  0  0  0
  2 23  1  0  0  0  0
  2 24  1  0  0  0  0
  3  4  1  0  0  0  0
  3  7  1  0  0  0  0
  3 25  1  0  0  0  0
  4 26  1  0  0  0  0
  4 27  1  0  0  0  0
  4 28  1  0  0  0  0
  5 29  1  0  0  0  0
  5 30  1  0  0  0  0
  5 31  1  0  0  0  0
  6 32  1  0  0  0  0
  6 33  1  0  0  0  0
  6 34  1  0  0  0  0
  7  8  1  0  0  0  0
  8  9  1  0  0  0  0
  8 15  1  0  0  0  0
  8 21  1  0  0  0  0
  9 10  1  0  0  0  0
  9 14  2  0  0  0  0
 10 11  2  0  0  0  0
 10 35  1  0  0  0  0
 11 12  1  0  0  0  0
 11 36  1  0  0  0  0
 12 13  2  0  0  0  0
 12 22  1  0  0  0  0
 13 14  1  0  0  0  0
 13 37  1  0  0  0  0
 14 38  1  0  0  0  0
 15 16  1  0  0  0  0
 15 20  2  0  0  0  0
 16 17  2  0  0  0  0
 16 39  1  0  0  0  0
 17 18  1  0  0  0  0
 17 40  1  0  0  0  0
 18 19  2  0  0  0  0
 18 41  1  0  0  0  0
 19 20  1  0  0  0  0
 19 42  1  0  0  0  0
 20 43  1  0  0  0  0
 21 44  1  0  0  0  0
 21 45  1  0  0  0  0
 21 46  1  0  0  0  0
M  END
>  <DRUGBANK_ID>
DB15790

>  <COMMON_NAME>
Mecloxamine

>  <CAS_NUMBER>
5668-06-4

>  <UNII>
U8V8239CRM

>  <SYNONYMS>
Mecloxamine

$$$$
