
 OpenBabel10282417163D

 33 34  0  0  0  0  0  0  0  0999 V2000
   -1.1248   -1.1986    0.0048 C   0  0  0  0  0  0  0  0  0  0  0  0
    0.2758   -1.2349    0.0161 C   0  0  0  0  0  0  0  0  0  0  0  0
    0.3396    1.1654   -0.0312 C   0  0  0  0  0  0  0  0  0  0  0  0
   -1.0523    1.1922   -0.0923 C   0  0  0  0  0  0  0  0  0  0  0  0
   -1.8314    0.0165   -0.0415 C   0  0  0  0  0  0  0  0  0  0  0  0
   -3.9041    0.8370    1.2282 C   0  0  0  0  0  0  0  0  0  0  0  0
   -4.6165    0.1886    2.2536 C   0  0  0  0  0  0  0  0  0  0  0  0
   -3.6318    2.2070    1.4228 C   0  0  0  0  0  0  0  0  0  0  0  0
   -3.9279    2.8648    2.6167 C   0  0  0  0  0  0  0  0  0  0  0  0
   -4.9699    0.8582    3.4292 C   0  0  0  0  0  0  0  0  0  0  0  0
   -3.8706    0.8148   -1.3151 C   0  0  0  0  0  0  0  0  0  0  0  0
   -3.3881    0.0872   -0.0338 C   0  0  0  0  0  0  0  0  0  0  0  0
   -4.0041   -1.3418   -0.1174 C   0  0  0  0  0  0  0  0  0  0  0  0
    0.9942   -0.0466    0.0082 C   0  0  0  0  0  0  0  0  0  0  0  0
    2.3554   -0.0276    0.0214 O   0  0  0  0  0  0  0  0  0  0  0  0
   -4.6022    2.1799    3.6125 C   0  0  0  0  0  0  0  0  0  0  0  0
   -4.9333    2.7843    4.7864 O   0  0  0  0  0  0  0  0  0  0  0  0
   -1.6373   -2.1567    0.0251 H   0  0  0  0  0  0  0  0  0  0  0  0
    0.7756   -2.1962    0.0374 H   0  0  0  0  0  0  0  0  0  0  0  0
    0.8987    2.0971   -0.0238 H   0  0  0  0  0  0  0  0  0  0  0  0
   -1.5003    2.1718   -0.1789 H   0  0  0  0  0  0  0  0  0  0  0  0
   -4.9162   -0.8515    2.1759 H   0  0  0  0  0  0  0  0  0  0  0  0
   -3.1569    2.8039    0.6528 H   0  0  0  0  0  0  0  0  0  0  0  0
   -3.6163    3.8962    2.7393 H   0  0  0  0  0  0  0  0  0  0  0  0
   -5.5182    0.3341    4.2066 H   0  0  0  0  0  0  0  0  0  0  0  0
   -3.5234    0.2947   -2.2166 H   0  0  0  0  0  0  0  0  0  0  0  0
   -4.9658    0.8589   -1.3548 H   0  0  0  0  0  0  0  0  0  0  0  0
   -3.5078    1.8450   -1.3877 H   0  0  0  0  0  0  0  0  0  0  0  0
   -3.6776   -1.8737   -1.0191 H   0  0  0  0  0  0  0  0  0  0  0  0
   -3.7156   -1.9613    0.7421 H   0  0  0  0  0  0  0  0  0  0  0  0
   -5.0999   -1.3127   -0.1423 H   0  0  0  0  0  0  0  0  0  0  0  0
    2.6737   -0.9424   -0.0102 H   0  0  0  0  0  0  0  0  0  0  0  0
   -4.6201    3.7024    4.7528 H   0  0  0  0  0  0  0  0  0  0  0  0
  1  2  2  0  0  0  0
  1  5  1  0  0  0  0
  1 18  1  0  0  0  0
  2 14  1  0  0  0  0
  2 19  1  0  0  0  0
  3  4  1  0  0  0  0
  3 20  1  0  0  0  0
  4  5  2  0  0  0  0
  4 21  1  0  0  0  0
  5 12  1  0  0  0  0
  6  8  1  0  0  0  0
  7  6  2  0  0  0  0
  7 10  1  0  0  0  0
  7 22  1  0  0  0  0
  8  9  2  0  0  0  0
  8 23  1  0  0  0  0
  9 16  1  0  0  0  0
  9 24  1  0  0  0  0
 10 25  1  0  0  0  0
 11 26  1  0  0  0  0
 11 27  1  0  0  0  0
 11 28  1  0  0  0  0
 12  6  1  0  0  0  0
 12 11  1  0  0  0  0
 12 13  1  0  0  0  0
 13 29  1  0  0  0  0
 13 30  1  0  0  0  0
 13 31  1  0  0  0  0
 14  3  2  0  0  0  0
 14 15  1  0  0  0  0
 15 32  1  0  0  0  0
 16 10  2  0  0  0  0
 16 17  1  0  0  0  0
 17 33  1  0  0  0  0
M  END
>  <DRUGBANK_ID>
DB06973

>  <COMMON_NAME>
Bisphenol A

>  <CAS_NUMBER>
80-05-7

>  <UNII>
MLT3645I99

>  <SYNONYMS>
4,4'-Bisphenol A; 4,4'-Isopropylidenediphenol; Bisphenol-A; BPA; Dianin's compound

$$$$
