
 OpenBabel10282417153D

 74 76  0  0  0  0  0  0  0  0999 V2000
    1.9648    3.3057    0.7626 C   0  0  0  0  0  0  0  0  0  0  0  0
    1.6856    6.1422    0.0691 C   0  0  0  0  0  0  0  0  0  0  0  0
    1.2984    5.2480   -2.4072 C   0  0  0  0  0  0  0  0  0  0  0  0
    1.2646    3.8005   -2.9347 C   0  0  0  0  0  0  0  0  0  0  0  0
    1.8824    4.3159    1.8802 C   0  0  0  0  0  0  0  0  0  0  0  0
    1.1012    7.3441   -0.0886 C   0  0  0  0  0  0  0  0  0  0  0  0
    2.2942    5.6758    1.3796 C   0  0  0  0  0  0  0  0  0  0  0  0
    1.0857    8.3873    0.9226 C   0  0  0  0  0  0  0  0  0  0  0  0
    2.1296    8.8212    1.6701 C   0  0  0  0  0  0  0  0  0  0  0  0
    3.5048    8.2745    1.6486 C   0  0  0  0  0  0  0  0  0  0  0  0
    1.9184    9.8886    2.7212 C   0  0  0  0  0  0  0  0  0  0  0  0
    4.0389    7.8493    3.0203 C   0  0  2  0  0  0  0  0  0  0  0  0
    4.1710    8.0354    0.5021 C   0  0  0  0  0  0  0  0  0  0  0  0
    2.4819    9.5082    4.0999 C   0  0  2  0  0  0  0  0  0  0  0  0
    3.9133    8.9781    4.0297 C   0  0  0  0  0  0  0  0  0  0  0  0
    1.6301    8.5648    4.7555 O   0  0  0  0  0  0  0  0  0  0  0  0
   -0.0321    0.9916   -0.4894 C   0  0  0  0  0  0  0  0  0  0  0  0
    0.5408    1.5739   -1.7842 C   0  0  2  0  0  0  0  0  0  0  0  0
    1.3926    0.4469   -2.3122 C   0  0  0  0  0  0  0  0  0  0  0  0
    1.1211   -0.2053   -3.4331 C   0  0  0  0  0  0  0  0  0  0  0  0
   -0.2349   -2.4667   -4.9059 C   0  0  0  0  0  0  0  0  0  0  0  0
    0.9336   -2.6620   -3.9321 C   0  0  0  0  0  0  0  0  0  0  0  0
    1.7113   -3.9273   -4.3034 C   0  0  0  0  0  0  0  0  0  0  0  0
    1.8756   -1.4315   -3.8786 C   0  0  1  0  0  0  0  0  0  0  0  0
    2.5479   -1.1220   -5.2142 C   0  0  0  0  0  0  0  0  0  0  0  0
    1.4029    2.8586   -1.6948 C   0  0  2  0  0  0  0  0  0  0  0  0
    2.4654    2.5564   -1.6863 H   0  0  0  0  0  0  0  0  0  0  0  0
    1.8486    5.0919   -0.9930 C   0  0  2  0  0  0  0  0  0  0  0  0
    2.9356    4.9478   -1.1116 H   0  0  0  0  0  0  0  0  0  0  0  0
    1.1829    3.7878   -0.4864 C   0  0  2  0  0  0  0  0  0  0  0  0
   -0.3116    4.1020   -0.1922 C   0  0  0  0  0  0  0  0  0  0  0  0
    5.3940    7.4116    2.9589 O   0  0  0  0  0  0  0  0  0  0  0  0
    3.0252    3.1537    0.5068 H   0  0  0  0  0  0  0  0  0  0  0  0
    1.6123    2.3625    1.1680 H   0  0  0  0  0  0  0  0  0  0  0  0
    0.2896    5.6750   -2.4207 H   0  0  0  0  0  0  0  0  0  0  0  0
    1.9232    5.9006   -3.0263 H   0  0  0  0  0  0  0  0  0  0  0  0
    0.3395    3.6301   -3.4929 H   0  0  0  0  0  0  0  0  0  0  0  0
    2.0991    3.6401   -3.6297 H   0  0  0  0  0  0  0  0  0  0  0  0
    2.5426    4.0325    2.7083 H   0  0  0  0  0  0  0  0  0  0  0  0
    0.8695    4.3630    2.2917 H   0  0  0  0  0  0  0  0  0  0  0  0
    0.6016    7.6005   -1.0215 H   0  0  0  0  0  0  0  0  0  0  0  0
    3.3825    5.6535    1.2534 H   0  0  0  0  0  0  0  0  0  0  0  0
    2.0095    6.3335    2.1943 H   0  0  0  0  0  0  0  0  0  0  0  0
    0.1057    8.8516    1.0481 H   0  0  0  0  0  0  0  0  0  0  0  0
    0.8502   10.1172    2.8265 H   0  0  0  0  0  0  0  0  0  0  0  0
    2.4148   10.7985    2.3647 H   0  0  0  0  0  0  0  0  0  0  0  0
    3.4812    6.9898    3.4079 H   0  0  0  0  0  0  0  0  0  0  0  0
    3.7334    8.2324   -0.4713 H   0  0  0  0  0  0  0  0  0  0  0  0
    5.1023    7.4761    0.4988 H   0  0  0  0  0  0  0  0  0  0  0  0
    2.4776   10.4021    4.7312 H   0  0  0  0  0  0  0  0  0  0  0  0
    4.6038    9.7822    3.7516 H   0  0  0  0  0  0  0  0  0  0  0  0
    4.2334    8.6098    5.0121 H   0  0  0  0  0  0  0  0  0  0  0  0
    1.5248    7.7831    4.1853 H   0  0  0  0  0  0  0  0  0  0  0  0
    0.7305    0.9027    0.2834 H   0  0  0  0  0  0  0  0  0  0  0  0
   -0.8788    1.5458   -0.1036 H   0  0  0  0  0  0  0  0  0  0  0  0
   -0.4450   -0.0102   -0.6371 H   0  0  0  0  0  0  0  0  0  0  0  0
   -0.3020    1.7592   -2.4628 H   0  0  0  0  0  0  0  0  0  0  0  0
    2.2085    0.1106   -1.6665 H   0  0  0  0  0  0  0  0  0  0  0  0
    0.2911    0.1355   -4.0529 H   0  0  0  0  0  0  0  0  0  0  0  0
    0.1229   -2.3001   -5.9258 H   0  0  0  0  0  0  0  0  0  0  0  0
   -0.8871   -3.3434   -4.9200 H   0  0  0  0  0  0  0  0  0  0  0  0
   -0.8564   -1.6115   -4.6231 H   0  0  0  0  0  0  0  0  0  0  0  0
    0.5097   -2.8202   -2.9288 H   0  0  0  0  0  0  0  0  0  0  0  0
    2.5244   -4.1071   -3.5919 H   0  0  0  0  0  0  0  0  0  0  0  0
    1.0564   -4.8036   -4.3009 H   0  0  0  0  0  0  0  0  0  0  0  0
    2.1459   -3.8523   -5.3045 H   0  0  0  0  0  0  0  0  0  0  0  0
    2.6677   -1.6489   -3.1464 H   0  0  0  0  0  0  0  0  0  0  0  0
    3.2081   -0.2533   -5.1287 H   0  0  0  0  0  0  0  0  0  0  0  0
    3.1588   -1.9615   -5.5543 H   0  0  0  0  0  0  0  0  0  0  0  0
    1.8110   -0.8978   -5.9918 H   0  0  0  0  0  0  0  0  0  0  0  0
   -0.8374    4.4523   -1.0841 H   0  0  0  0  0  0  0  0  0  0  0  0
   -0.8851    3.2786    0.1999 H   0  0  0  0  0  0  0  0  0  0  0  0
   -0.4347    4.8657    0.5789 H   0  0  0  0  0  0  0  0  0  0  0  0
    5.8991    8.1165    2.5233 H   0  0  0  0  0  0  0  0  0  0  0  0
  1  5  1  0  0  0  0
  1 33  1  0  0  0  0
  1 34  1  0  0  0  0
  2  6  2  0  0  0  0
  2  7  1  0  0  0  0
  3  4  1  0  0  0  0
  3 35  1  0  0  0  0
  3 36  1  0  0  0  0
  4 37  1  0  0  0  0
  4 38  1  0  0  0  0
  5  7  1  0  0  0  0
  5 39  1  0  0  0  0
  5 40  1  0  0  0  0
  6  8  1  0  0  0  0
  6 41  1  0  0  0  0
  7 42  1  0  0  0  0
  7 43  1  0  0  0  0
  8  9  2  0  0  0  0
  8 44  1  0  0  0  0
  9 10  1  0  0  0  0
  9 11  1  0  0  0  0
 10 12  1  0  0  0  0
 10 13  2  0  0  0  0
 11 14  1  0  0  0  0
 11 45  1  0  0  0  0
 11 46  1  0  0  0  0
 12 15  1  0  0  0  0
 12 32  1  0  0  0  0
 12 47  1  1  0  0  0
 13 48  1  0  0  0  0
 13 49  1  0  0  0  0
 14 16  1  0  0  0  0
 14 15  1  0  0  0  0
 14 50  1  1  0  0  0
 15 51  1  0  0  0  0
 15 52  1  0  0  0  0
 16 53  1  0  0  0  0
 17 54  1  0  0  0  0
 17 55  1  0  0  0  0
 17 56  1  0  0  0  0
 18 19  1  0  0  0  0
 18 57  1  6  0  0  0
 18 17  1  0  0  0  0
 19 20  2  0  0  0  0
 19 58  1  0  0  0  0
 20 24  1  0  0  0  0
 20 59  1  0  0  0  0
 21 60  1  0  0  0  0
 21 61  1  0  0  0  0
 21 62  1  0  0  0  0
 22 21  1  0  0  0  0
 22 23  1  0  0  0  0
 22 63  1  0  0  0  0
 23 64  1  0  0  0  0
 23 65  1  0  0  0  0
 23 66  1  0  0  0  0
 24 22  1  0  0  0  0
 24 25  1  0  0  0  0
 24 67  1  1  0  0  0
 25 68  1  0  0  0  0
 25 69  1  0  0  0  0
 25 70  1  0  0  0  0
 26  4  1  0  0  0  0
 26 18  1  0  0  0  0
 26 27  1  1  0  0  0
 28 30  1  0  0  0  0
 28  2  1  0  0  0  0
 28  3  1  0  0  0  0
 28 29  1  6  0  0  0
 30 26  1  0  0  0  0
 30  1  1  0  0  0  0
 30 31  1  1  0  0  0
 31 71  1  0  0  0  0
 31 72  1  0  0  0  0
 31 73  1  0  0  0  0
 32 74  1  0  0  0  0
M  END
>  <DRUGBANK_ID>
DB06410

>  <COMMON_NAME>
Doxercalciferol

>  <CAS_NUMBER>
54573-75-0

>  <UNII>
3DIZ9LF5Y9

>  <SYNONYMS>
(1S,3R,5Z,7E,22E)-9,10-Secoergosta-5,7,10,22-tetraene-1,3-diol; 1-Hydroxyergocalciferol; 1-Hydroxyvitamin D2; 1α-Hydroxyergocalciferol; 1α-hydroxyvitamin D2; Doxercalciferol; Doxercalciferolum; Doxercalciférolum

$$$$
