
 OpenBabel10282417243D

 59 61  0  0  0  0  0  0  0  0999 V2000
    0.2676   -0.2016   -0.6327 C   0  0  0  0  0  0  0  0  0  0  0  0
    0.0606   -1.3643    0.2933 C   0  0  0  0  0  0  0  0  0  0  0  0
    1.0390   -1.6531    2.2105 C   0  0  0  0  0  0  0  0  0  0  0  0
   -1.4838   -1.4512   -0.0733 C   0  0  0  0  0  0  0  0  0  0  0  0
    0.7096   -2.2021   -1.2731 N   0  0  0  0  0  0  0  0  0  0  0  0
    1.9086   -1.7310   -2.1435 C   0  0  0  0  0  0  0  0  0  0  0  0
    2.2490   -2.4884   -3.0531 O   0  0  0  0  0  0  0  0  0  0  0  0
    2.8800   -0.5120   -1.8620 N   0  0  0  0  0  0  0  0  0  0  0  0
    2.6822    0.8393   -0.6395 S   0  0  0  0  0  0  0  0  0  0  0  0
    3.7863    1.4944    0.0013 O   0  0  0  0  0  0  0  0  0  0  0  0
    1.7818    1.5860   -1.4901 O   0  0  0  0  0  0  0  0  0  0  0  0
    1.8313   -0.2860    0.9647 C   0  0  0  0  0  0  0  0  0  0  0  0
    1.8632   -2.1348    0.5860 C   0  0  0  0  0  0  0  0  0  0  0  0
    0.3735   -3.1487    1.1198 C   0  0  0  0  0  0  0  0  0  0  0  0
   -0.8938   -2.3466    2.1518 C   0  0  0  0  0  0  0  0  0  0  0  0
   -0.8920   -0.6200    2.4433 C   0  0  0  0  0  0  0  0  0  0  0  0
    0.3758    0.4106    1.8226 C   0  0  0  0  0  0  0  0  0  0  0  0
   -0.2185    1.7359    1.7395 O   0  0  0  0  0  0  0  0  0  0  0  0
    0.1836    2.6648    0.7883 C   0  0  0  0  0  0  0  0  0  0  0  0
   -0.3725    2.7334   -0.5187 C   0  0  0  0  0  0  0  0  0  0  0  0
    0.2500    3.4858   -1.5469 C   0  0  0  0  0  0  0  0  0  0  0  0
    1.3695    4.2420   -1.2483 C   0  0  0  0  0  0  0  0  0  0  0  0
    1.7693    4.3559    0.0874 C   0  0  0  0  0  0  0  0  0  0  0  0
    1.2254    3.5196    1.0922 C   0  0  0  0  0  0  0  0  0  0  0  0
    2.5319    5.5358    0.4369 C   0  0  0  0  0  0  0  0  0  0  0  0
    1.9580    6.7656    0.0742 C   0  0  0  0  0  0  0  0  0  0  0  0
    2.4785    7.9604    0.5289 C   0  0  0  0  0  0  0  0  0  0  0  0
    3.5953    7.9529    1.3501 C   0  0  0  0  0  0  0  0  0  0  0  0
    4.2364    9.0754    1.7927 O   0  0  0  0  0  0  0  0  0  0  0  0
    3.7521   10.3330    1.3220 C   0  0  0  0  0  0  0  0  0  0  0  0
    3.7501   10.3757   -0.0348 F   0  0  0  0  0  0  0  0  0  0  0  0
    2.4805   10.5231    1.7529 F   0  0  0  0  0  0  0  0  0  0  0  0
    4.1482    6.7246    1.7433 C   0  0  0  0  0  0  0  0  0  0  0  0
    3.6764    5.5194    1.2184 C   0  0  0  0  0  0  0  0  0  0  0  0
    0.4390   -4.5633    1.1440 C   0  0  0  0  0  0  0  0  0  0  0  0
    0.7979   -5.6353    1.3101 N   0  0  0  0  0  0  0  0  0  0  0  0
    0.2874    0.7107   -0.1635 H   0  0  0  0  0  0  0  0  0  0  0  0
   -0.0147   -0.0392   -1.6579 H   0  0  0  0  0  0  0  0  0  0  0  0
    1.2521   -0.5103   -0.7853 H   0  0  0  0  0  0  0  0  0  0  0  0
    0.8801   -1.1133    3.1731 H   0  0  0  0  0  0  0  0  0  0  0  0
    1.2264   -2.7352    2.6713 H   0  0  0  0  0  0  0  0  0  0  0  0
    2.2247   -1.6423    2.3354 H   0  0  0  0  0  0  0  0  0  0  0  0
   -1.6804   -1.0734   -1.0887 H   0  0  0  0  0  0  0  0  0  0  0  0
   -1.8325   -2.4808   -0.0664 H   0  0  0  0  0  0  0  0  0  0  0  0
   -2.0419   -0.7823    0.5696 H   0  0  0  0  0  0  0  0  0  0  0  0
    0.6448   -3.2156   -1.3214 H   0  0  0  0  0  0  0  0  0  0  0  0
    2.9290    0.0008   -2.7687 H   0  0  0  0  0  0  0  0  0  0  0  0
    2.5775   -2.5431   -0.1190 H   0  0  0  0  0  0  0  0  0  0  0  0
   -1.3965   -2.8877    2.9749 H   0  0  0  0  0  0  0  0  0  0  0  0
   -1.6273   -0.1901    3.1628 H   0  0  0  0  0  0  0  0  0  0  0  0
   -1.0254    1.9283   -0.8611 H   0  0  0  0  0  0  0  0  0  0  0  0
    0.1038    3.2174   -2.5969 H   0  0  0  0  0  0  0  0  0  0  0  0
    1.9923    4.6784   -2.0347 H   0  0  0  0  0  0  0  0  0  0  0  0
    1.6404    3.5236    2.0944 H   0  0  0  0  0  0  0  0  0  0  0  0
    1.0711    6.7890   -0.5591 H   0  0  0  0  0  0  0  0  0  0  0  0
    1.9648    8.8691    0.2416 H   0  0  0  0  0  0  0  0  0  0  0  0
    4.3799   11.1431    1.6969 H   0  0  0  0  0  0  0  0  0  0  0  0
    4.9393    6.6969    2.4855 H   0  0  0  0  0  0  0  0  0  0  0  0
    4.1811    4.5782    1.4242 H   0  0  0  0  0  0  0  0  0  0  0  0
  1  2  1  0  0  0  0
  1 37  1  0  0  0  0
  1 38  1  0  0  0  0
  1 39  1  0  0  0  0
  2  3  1  0  0  0  0
  2  4  1  0  0  0  0
  2  5  1  0  0  0  0
  3 40  1  0  0  0  0
  3 41  1  0  0  0  0
  3 42  1  0  0  0  0
  4 43  1  0  0  0  0
  4 44  1  0  0  0  0
  4 45  1  0  0  0  0
  5  6  1  0  0  0  0
  5 46  1  0  0  0  0
  6  7  2  0  0  0  0
  6  8  1  0  0  0  0
  8  9  1  0  0  0  0
  8 47  1  0  0  0  0
  9 10  2  0  0  0  0
  9 11  2  0  0  0  0
  9 12  1  0  0  0  0
 12 13  2  0  0  0  0
 12 17  1  0  0  0  0
 13 14  1  0  0  0  0
 13 48  1  0  0  0  0
 14 15  2  0  0  0  0
 14 35  1  0  0  0  0
 15 16  1  0  0  0  0
 15 49  1  0  0  0  0
 16 17  2  0  0  0  0
 16 50  1  0  0  0  0
 17 18  1  0  0  0  0
 18 19  1  0  0  0  0
 19 20  2  0  0  0  0
 19 24  1  0  0  0  0
 20 21  1  0  0  0  0
 20 51  1  0  0  0  0
 21 22  2  0  0  0  0
 21 52  1  0  0  0  0
 22 23  1  0  0  0  0
 22 53  1  0  0  0  0
 23 24  2  0  0  0  0
 23 25  1  0  0  0  0
 24 54  1  0  0  0  0
 25 26  2  0  0  0  0
 25 34  1  0  0  0  0
 26 27  1  0  0  0  0
 26 55  1  0  0  0  0
 27 28  2  0  0  0  0
 27 56  1  0  0  0  0
 28 29  1  0  0  0  0
 28 33  1  0  0  0  0
 29 30  1  0  0  0  0
 30 31  1  0  0  0  0
 30 32  1  0  0  0  0
 30 57  1  0  0  0  0
 33 34  2  0  0  0  0
 33 58  1  0  0  0  0
 34 59  1  0  0  0  0
 35 36  3  0  0  0  0
M  END
>  <DRUGBANK_ID>
DB18302

>  <COMMON_NAME>
NTP-42

>  <CAS_NUMBER>
2055599-51-2

>  <UNII>
2057H3EG0S

>  <SYNONYMS>
Benzenesulfonamide, 5-cyano-2-((4'-(difluoromethoxy)(1,1'-biphenyl)-3-yl)oxy)-n-(((1,1-dimethylethyl)amino)carbonyl)-; N-(tert-butylcarbamoyl)-5-cyano-2-((4'-(difluoromethoxy)-(1,1'-biphenyl)-3-yl)oxy)benzenesulfonamide

$$$$
