BSI
 OpenBabel10282417133D

 47 50  0  0  0  0  0  0  0  0999 V2000
   -2.4512    0.7483    0.2223 C   0  0  0  0  0  0  0  0  0  0  0  0
   -1.2355    1.4139    0.0879 C   0  0  0  0  0  0  0  0  0  0  0  0
   -0.0651    0.6787   -0.1014 C   0  0  0  0  0  0  0  0  0  0  0  0
    1.2605    1.3566   -0.2931 C   0  0  0  0  0  0  0  0  0  0  0  0
    2.2296   -0.8326    0.5416 C   0  0  1  0  0  0  0  0  0  0  0  0
    1.1716   -1.4707   -0.3672 C   0  0  0  0  0  0  0  0  0  0  0  0
    3.6867    0.2563   -2.2735 C   0  0  0  0  0  0  0  0  0  0  0  0
    3.2935   -0.7632   -4.8643 C   0  0  0  0  0  0  0  0  0  0  0  0
    2.5190    0.2966   -4.3962 C   0  0  0  0  0  0  0  0  0  0  0  0
    2.7693    0.8460   -3.1477 C   0  0  0  0  0  0  0  0  0  0  0  0
    3.0454   -1.3016   -6.2017 C   0  0  0  0  0  0  0  0  0  0  0  0
    2.5246   -3.1615   -7.6747 C   0  0  0  0  0  0  0  0  0  0  0  0
    3.1120   -0.4627   -7.3248 C   0  0  0  0  0  0  0  0  0  0  0  0
    4.0091    2.3849   -0.8091 O   0  0  0  0  0  0  0  0  0  0  0  0
   -0.1270   -0.7186   -0.2280 C   0  0  0  0  0  0  0  0  0  0  0  0
   -1.3473   -1.3799   -0.1058 C   0  0  0  0  0  0  0  0  0  0  0  0
   -2.5051   -0.6440    0.1332 C   0  0  0  0  0  0  0  0  0  0  0  0
    2.4527    0.6060    0.1752 N   0  0  0  0  0  0  0  0  0  0  0  0
    3.9128    0.9462   -0.6347 S   0  0  0  0  0  0  0  0  0  0  0  0
    4.4767   -0.8022   -2.7225 C   0  0  0  0  0  0  0  0  0  0  0  0
    4.3199   -1.2576   -4.0398 C   0  0  0  0  0  0  0  0  0  0  0  0
    2.7147   -2.6513   -6.3899 C   0  0  0  0  0  0  0  0  0  0  0  0
    2.5765   -2.3105   -8.7770 C   0  0  0  0  0  0  0  0  0  0  0  0
    2.8705   -0.9607   -8.6033 C   0  0  0  0  0  0  0  0  0  0  0  0
    4.9641    0.1976    0.0093 O   0  0  0  0  0  0  0  0  0  0  0  0
    1.9275   -1.0109    2.0378 C   0  0  0  0  0  0  0  0  0  0  0  0
    2.7076   -0.8148    2.9581 O   0  0  0  0  0  0  0  0  0  0  0  0
    0.6783   -1.4397    2.3210 O   0  0  0  0  0  0  0  0  0  0  0  0
    3.1523   -1.4032    0.3886 H   0  0  0  0  0  0  0  0  0  0  0  0
   -3.3587    1.3157    0.4072 H   0  0  0  0  0  0  0  0  0  0  0  0
   -1.2041    2.4998    0.1396 H   0  0  0  0  0  0  0  0  0  0  0  0
    1.2701    2.3782    0.1001 H   0  0  0  0  0  0  0  0  0  0  0  0
    1.2795    1.4510   -1.3667 H   0  0  0  0  0  0  0  0  0  0  0  0
    1.4909   -1.4351   -1.4151 H   0  0  0  0  0  0  0  0  0  0  0  0
    1.0453   -2.5248   -0.0987 H   0  0  0  0  0  0  0  0  0  0  0  0
    1.7349    0.7286   -5.0154 H   0  0  0  0  0  0  0  0  0  0  0  0
    2.2287    1.7497   -2.8985 H   0  0  0  0  0  0  0  0  0  0  0  0
    2.3380   -4.2227   -7.8154 H   0  0  0  0  0  0  0  0  0  0  0  0
    3.3543    0.5914   -7.2024 H   0  0  0  0  0  0  0  0  0  0  0  0
   -1.3894   -2.4654   -0.1347 H   0  0  0  0  0  0  0  0  0  0  0  0
   -3.4513   -1.1599    0.2667 H   0  0  0  0  0  0  0  0  0  0  0  0
    5.2355   -1.2534   -2.0868 H   0  0  0  0  0  0  0  0  0  0  0  0
    5.0232   -1.9861   -4.4410 H   0  0  0  0  0  0  0  0  0  0  0  0
    2.5880   -3.3099   -5.5329 H   0  0  0  0  0  0  0  0  0  0  0  0
    2.3831   -2.6991   -9.7728 H   0  0  0  0  0  0  0  0  0  0  0  0
    2.9261   -0.2955   -9.4601 H   0  0  0  0  0  0  0  0  0  0  0  0
    0.5881   -1.4385    3.2946 H   0  0  0  0  0  0  0  0  0  0  0  0
  1  2  2  0  0  0  0
  1 17  1  0  0  0  0
  1 30  1  0  0  0  0
  2  3  1  0  0  0  0
  2 31  1  0  0  0  0
  3  4  1  0  0  0  0
  3 15  2  0  0  0  0
  4 18  1  0  0  0  0
  4 32  1  0  0  0  0
  4 33  1  0  0  0  0
  5  6  1  0  0  0  0
  5 18  1  0  0  0  0
  5 29  1  6  0  0  0
  5 26  1  0  0  0  0
  6 15  1  0  0  0  0
  6 34  1  0  0  0  0
  6 35  1  0  0  0  0
  7 10  2  0  0  0  0
  7 19  1  0  0  0  0
  7 20  1  0  0  0  0
  8  9  2  0  0  0  0
  8 11  1  0  0  0  0
  8 21  1  0  0  0  0
  9 10  1  0  0  0  0
  9 36  1  0  0  0  0
 10 37  1  0  0  0  0
 11 13  2  0  0  0  0
 11 22  1  0  0  0  0
 12 22  2  0  0  0  0
 12 23  1  0  0  0  0
 12 38  1  0  0  0  0
 13 24  1  0  0  0  0
 13 39  1  0  0  0  0
 14 19  2  0  0  0  0
 15 16  1  0  0  0  0
 16 17  2  0  0  0  0
 16 40  1  0  0  0  0
 17 41  1  0  0  0  0
 18 19  1  0  0  0  0
 19 25  2  0  0  0  0
 20 21  2  0  0  0  0
 20 42  1  0  0  0  0
 21 43  1  0  0  0  0
 22 44  1  0  0  0  0
 23 24  2  0  0  0  0
 23 45  1  0  0  0  0
 24 46  1  0  0  0  0
 26 27  2  0  0  0  0
 26 28  1  0  0  0  0
 28 47  1  0  0  0  0
M  END
>  <DRUGBANK_ID>
DB03207

>  <SECONDARY_ACCESSION_NUMBERS>
EXPT00763

>  <COMMON_NAME>
2-(Biphenyl-4-Sulfonyl)-1,2,3,4-Tetrahydro-Isoquinoline-3-Carboxylic Acid

$$$$
