
 OpenBabel10282417173D

 79 82  0  0  0  0  0  0  0  0999 V2000
    3.1721    1.5288    0.5080 C   0  0  0  0  0  0  0  0  0  0  0  0
    3.8767    0.1893    0.6753 C   0  0  2  0  0  0  0  0  0  0  0  0
    2.8879   -0.9625    0.5365 C   0  0  0  0  0  0  0  0  0  0  0  0
    2.1250   -0.9260   -0.8021 C   0  0  2  0  0  0  0  0  0  0  0  0
    1.4403    0.4517   -1.0732 C   0  0  2  0  0  0  0  0  0  0  0  0
    2.4759    1.5898   -0.8476 C   0  0  0  0  0  0  0  0  0  0  0  0
    1.1274   -2.0931   -0.8651 C   0  0  0  0  0  0  0  0  0  0  0  0
   -0.1057   -1.8912    0.0157 C   0  0  1  0  0  0  0  0  0  0  0  0
   -0.8199   -0.5723   -0.3271 C   0  0  2  0  0  0  0  0  0  0  0  0
    0.1916    0.6054   -0.1371 C   0  0  2  0  0  0  0  0  0  0  0  0
   -2.0529   -0.3194    0.5469 C   0  0  1  0  0  0  0  0  0  0  0  0
   -2.7371    1.0294    0.1927 C   0  0  2  0  0  0  0  0  0  0  0  0
   -1.7378    2.1279    0.6012 C   0  0  0  0  0  0  0  0  0  0  0  0
   -0.4448    2.0115   -0.2006 C   0  0  0  0  0  0  0  0  0  0  0  0
   -3.1908   -1.3226    0.5050 C   0  0  0  0  0  0  0  0  0  0  0  0
   -4.3518   -0.5740    1.1533 C   0  0  0  0  0  0  0  0  0  0  0  0
   -4.0058    0.9655    1.0811 C   0  0  2  0  0  0  0  0  0  0  0  0
    2.8719   -1.0940   -1.5909 H   0  0  0  0  0  0  0  0  0  0  0  0
    1.0223    0.5217   -2.5659 C   0  0  0  0  0  0  0  0  0  0  0  0
   -1.1606   -0.6358   -1.3670 H   0  0  0  0  0  0  0  0  0  0  0  0
   -0.9527   -3.0219   -0.1457 O   0  0  0  0  0  0  0  0  0  0  0  0
   -3.1056    1.1294   -1.3119 C   0  0  0  0  0  0  0  0  0  0  0  0
   -5.2160    1.8867    0.7029 C   0  0  2  0  0  0  0  0  0  0  0  0
    4.5106    0.1266    1.9473 O   0  0  0  0  0  0  0  0  0  0  0  0
   -1.7107   -0.2955    1.5931 H   0  0  0  0  0  0  0  0  0  0  0  0
    0.5394    0.5182    0.9018 H   0  0  0  0  0  0  0  0  0  0  0  0
   -6.2315    1.0879   -0.1131 C   0  0  0  0  0  0  0  0  0  0  0  0
   -4.9713    3.2499   -0.0199 C   0  0  0  0  0  0  0  0  0  0  0  0
   -5.5360    4.4612    0.7097 C   0  0  0  0  0  0  0  0  0  0  0  0
   -4.7596    4.6883    1.9898 C   0  0  0  0  0  0  0  0  0  0  0  0
   -4.1334    5.9020    2.1014 N   0  0  0  0  0  0  0  0  0  0  0  0
   -3.3009    6.2094    3.2538 C   0  0  0  0  0  0  0  0  0  0  0  0
   -1.8566    6.4971    2.8934 C   0  0  0  0  0  0  0  0  0  0  0  0
   -1.7007    7.9118    1.8207 S   0  0  0  0  0  0  0  0  0  0  0  0
   -4.6727    3.8372    2.8692 O   0  0  0  0  0  0  0  0  0  0  0  0
   -2.3126    9.0271    2.8199 O   0  0  0  0  0  0  0  0  0  0  0  0
   -0.3088    8.2003    1.6100 O   0  0  0  0  0  0  0  0  0  0  0  0
   -2.6444    7.7781    0.7220 O   0  0  0  0  0  0  0  0  0  0  0  0
    2.4607    1.6929    1.3269 H   0  0  0  0  0  0  0  0  0  0  0  0
    3.9015    2.3432    0.5886 H   0  0  0  0  0  0  0  0  0  0  0  0
    4.6633    0.0948   -0.0820 H   0  0  0  0  0  0  0  0  0  0  0  0
    3.4288   -1.9122    0.6305 H   0  0  0  0  0  0  0  0  0  0  0  0
    2.1971   -0.9410    1.3875 H   0  0  0  0  0  0  0  0  0  0  0  0
    2.0152    2.5746   -0.9777 H   0  0  0  0  0  0  0  0  0  0  0  0
    3.2471    1.5290   -1.6267 H   0  0  0  0  0  0  0  0  0  0  0  0
    0.8043   -2.2462   -1.9028 H   0  0  0  0  0  0  0  0  0  0  0  0
    1.6210   -3.0314   -0.5848 H   0  0  0  0  0  0  0  0  0  0  0  0
    0.1858   -1.8718    1.0710 H   0  0  0  0  0  0  0  0  0  0  0  0
   -1.4960    2.0511    1.6710 H   0  0  0  0  0  0  0  0  0  0  0  0
   -2.1322    3.1361    0.4669 H   0  0  0  0  0  0  0  0  0  0  0  0
    0.2529    2.7522    0.2046 H   0  0  0  0  0  0  0  0  0  0  0  0
   -0.6335    2.3126   -1.2339 H   0  0  0  0  0  0  0  0  0  0  0  0
   -3.4399   -1.6024   -0.5269 H   0  0  0  0  0  0  0  0  0  0  0  0
   -2.9871   -2.2443    1.0550 H   0  0  0  0  0  0  0  0  0  0  0  0
   -5.2522   -0.9169    0.6420 H   0  0  0  0  0  0  0  0  0  0  0  0
   -4.5141   -0.8778    2.1929 H   0  0  0  0  0  0  0  0  0  0  0  0
   -3.7003    1.2379    2.1064 H   0  0  0  0  0  0  0  0  0  0  0  0
    0.3135   -0.2605   -2.8487 H   0  0  0  0  0  0  0  0  0  0  0  0
    0.5640    1.4829   -2.8160 H   0  0  0  0  0  0  0  0  0  0  0  0
    1.8946    0.4035   -3.2184 H   0  0  0  0  0  0  0  0  0  0  0  0
   -1.2676   -3.0419   -1.0643 H   0  0  0  0  0  0  0  0  0  0  0  0
   -3.7289    0.2952   -1.6371 H   0  0  0  0  0  0  0  0  0  0  0  0
   -3.6553    2.0320   -1.5643 H   0  0  0  0  0  0  0  0  0  0  0  0
   -2.2380    1.1619   -1.9701 H   0  0  0  0  0  0  0  0  0  0  0  0
   -5.7095    2.1088    1.6577 H   0  0  0  0  0  0  0  0  0  0  0  0
    3.8207    0.0921    2.6315 H   0  0  0  0  0  0  0  0  0  0  0  0
   -6.7886    1.6734   -0.8404 H   0  0  0  0  0  0  0  0  0  0  0  0
   -5.7368    0.3222   -0.7125 H   0  0  0  0  0  0  0  0  0  0  0  0
   -6.9361    0.6150    0.5782 H   0  0  0  0  0  0  0  0  0  0  0  0
   -3.9262    3.4733   -0.2195 H   0  0  0  0  0  0  0  0  0  0  0  0
   -5.4511    3.2287   -1.0082 H   0  0  0  0  0  0  0  0  0  0  0  0
   -5.4701    5.3343    0.0467 H   0  0  0  0  0  0  0  0  0  0  0  0
   -6.5935    4.3115    0.9439 H   0  0  0  0  0  0  0  0  0  0  0  0
   -4.1585    6.5485    1.3113 H   0  0  0  0  0  0  0  0  0  0  0  0
   -3.7666    7.0543    3.7689 H   0  0  0  0  0  0  0  0  0  0  0  0
   -3.3154    5.3670    3.9543 H   0  0  0  0  0  0  0  0  0  0  0  0
   -1.2663    6.7030    3.7929 H   0  0  0  0  0  0  0  0  0  0  0  0
   -1.4049    5.6484    2.3709 H   0  0  0  0  0  0  0  0  0  0  0  0
   -3.2887    9.0692    2.7447 H   0  0  0  0  0  0  0  0  0  0  0  0
  1  2  1  0  0  0  0
  1  6  1  0  0  0  0
  1 39  1  0  0  0  0
  1 40  1  0  0  0  0
  2  3  1  0  0  0  0
  2 24  1  0  0  0  0
  2 41  1  6  0  0  0
  3  4  1  0  0  0  0
  3 42  1  0  0  0  0
  3 43  1  0  0  0  0
  4  5  1  0  0  0  0
  4  7  1  0  0  0  0
  4 18  1  6  0  0  0
  5  6  1  0  0  0  0
  5 10  1  0  0  0  0
  5 19  1  6  0  0  0
  6 44  1  0  0  0  0
  6 45  1  0  0  0  0
  7  8  1  0  0  0  0
  7 46  1  0  0  0  0
  7 47  1  0  0  0  0
  8  9  1  0  0  0  0
  8 21  1  0  0  0  0
  8 48  1  1  0  0  0
  9 10  1  0  0  0  0
  9 11  1  0  0  0  0
  9 20  1  6  0  0  0
 10 14  1  0  0  0  0
 10 26  1  1  0  0  0
 11 12  1  0  0  0  0
 11 15  1  0  0  0  0
 11 25  1  1  0  0  0
 12 13  1  0  0  0  0
 12 17  1  0  0  0  0
 12 22  1  6  0  0  0
 13 14  1  0  0  0  0
 13 49  1  0  0  0  0
 13 50  1  0  0  0  0
 14 51  1  0  0  0  0
 14 52  1  0  0  0  0
 15 16  1  0  0  0  0
 15 53  1  0  0  0  0
 15 54  1  0  0  0  0
 16 17  1  0  0  0  0
 16 55  1  0  0  0  0
 16 56  1  0  0  0  0
 17 57  1  1  0  0  0
 17 23  1  0  0  0  0
 19 58  1  0  0  0  0
 19 59  1  0  0  0  0
 19 60  1  0  0  0  0
 21 61  1  0  0  0  0
 22 62  1  0  0  0  0
 22 63  1  0  0  0  0
 22 64  1  0  0  0  0
 23 65  1  1  0  0  0
 23 28  1  0  0  0  0
 23 27  1  0  0  0  0
 24 66  1  0  0  0  0
 27 67  1  0  0  0  0
 27 68  1  0  0  0  0
 27 69  1  0  0  0  0
 28 29  1  0  0  0  0
 28 70  1  0  0  0  0
 28 71  1  0  0  0  0
 29 30  1  0  0  0  0
 29 72  1  0  0  0  0
 29 73  1  0  0  0  0
 30 31  1  0  0  0  0
 30 35  2  0  0  0  0
 31 32  1  0  0  0  0
 31 74  1  0  0  0  0
 32 33  1  0  0  0  0
 32 75  1  0  0  0  0
 32 76  1  0  0  0  0
 33 34  1  0  0  0  0
 33 77  1  0  0  0  0
 33 78  1  0  0  0  0
 34 36  1  0  0  0  0
 34 37  2  0  0  0  0
 34 38  2  0  0  0  0
 36 79  1  0  0  0  0
M  END
>  <DRUGBANK_ID>
DB08834

>  <COMMON_NAME>
Tauroursodeoxycholic acid

>  <CAS_NUMBER>
14605-22-2

>  <UNII>
60EUX8MN5X

>  <SYNONYMS>
Tauroursodeoxycholate; Tauroursodesoxycholic acid; Taurursodiol; TUDCA; Ursodeoxycholyltaurine; Ursodoxicoltaurine

$$$$
