
 OpenBabel10282417173D

 41 40  0  0  0  0  0  0  0  0999 V2000
    1.0971   -0.0123    0.0204 C   0  0  0  0  0  0  0  0  0  0  0  0
    0.3805    1.3614    1.5109 Sn  0  0  0  0  0  0  0  0  0  0  0  0
   -1.7695    1.3614    1.5109 C   0  0  0  0  0  0  0  0  0  0  0  0
    1.0971    0.7574    3.4459 C   0  0  0  0  0  0  0  0  0  0  0  0
   -2.2762   -0.0368    1.8251 C   0  0  0  0  0  0  0  0  0  0  0  0
   -1.7696   -0.4638    3.1931 C   0  0  0  0  0  0  0  0  0  0  0  0
   -2.2762    0.5074    4.2469 C   0  0  0  0  0  0  0  0  0  0  0  0
    0.5904   -1.4105    0.3346 C   0  0  0  0  0  0  0  0  0  0  0  0
    1.0971   -1.8375    1.7026 C   0  0  0  0  0  0  0  0  0  0  0  0
    0.5904   -0.8663    2.7563 C   0  0  0  0  0  0  0  0  0  0  0  0
    0.5904   -0.6408    3.7601 C   0  0  0  0  0  0  0  0  0  0  0  0
    1.0971   -1.6120    2.7063 C   0  0  0  0  0  0  0  0  0  0  0  0
    2.6171   -1.6120    2.7063 C   0  0  0  0  0  0  0  0  0  0  0  0
    0.9471    2.9252    1.1595 H   0  0  0  0  0  0  0  0  0  0  0  0
    0.7405    0.2882   -0.9426 H   0  0  0  0  0  0  0  0  0  0  0  0
    2.1671   -0.0123    0.0204 H   0  0  0  0  0  0  0  0  0  0  0  0
   -2.1262    2.0451    2.2527 H   0  0  0  0  0  0  0  0  0  0  0  0
   -2.1262    1.6620    0.5479 H   0  0  0  0  0  0  0  0  0  0  0  0
    2.1671    0.7574    3.4459 H   0  0  0  0  0  0  0  0  0  0  0  0
    0.7404    1.4411    4.1877 H   0  0  0  0  0  0  0  0  0  0  0  0
   -3.3462   -0.0368    1.8251 H   0  0  0  0  0  0  0  0  0  0  0  0
   -1.9196   -0.7205    1.0833 H   0  0  0  0  0  0  0  0  0  0  0  0
   -2.1262   -1.4481    3.4143 H   0  0  0  0  0  0  0  0  0  0  0  0
   -0.6996   -0.4638    3.1931 H   0  0  0  0  0  0  0  0  0  0  0  0
   -3.3462    0.5074    4.2469 H   0  0  0  0  0  0  0  0  0  0  0  0
   -1.9196    0.2068    5.2099 H   0  0  0  0  0  0  0  0  0  0  0  0
   -1.9196    1.4917    4.0257 H   0  0  0  0  0  0  0  0  0  0  0  0
   -0.4796   -1.4105    0.3346 H   0  0  0  0  0  0  0  0  0  0  0  0
    0.9471   -2.0942   -0.4072 H   0  0  0  0  0  0  0  0  0  0  0  0
    0.7404   -2.8218    1.9237 H   0  0  0  0  0  0  0  0  0  0  0  0
    2.1671   -1.8375    1.7026 H   0  0  0  0  0  0  0  0  0  0  0  0
   -0.4796   -0.8663    2.7563 H   0  0  0  0  0  0  0  0  0  0  0  0
    0.9471   -1.1669    3.7193 H   0  0  0  0  0  0  0  0  0  0  0  0
    0.9471    0.1179    2.5352 H   0  0  0  0  0  0  0  0  0  0  0  0
    0.9471   -0.9414    4.7231 H   0  0  0  0  0  0  0  0  0  0  0  0
   -0.4796   -0.6408    3.7601 H   0  0  0  0  0  0  0  0  0  0  0  0
    0.7404   -2.5963    2.9275 H   0  0  0  0  0  0  0  0  0  0  0  0
    0.7405   -1.3114    1.7433 H   0  0  0  0  0  0  0  0  0  0  0  0
    2.9738   -1.9126    3.6693 H   0  0  0  0  0  0  0  0  0  0  0  0
    2.9738   -2.2957    1.9645 H   0  0  0  0  0  0  0  0  0  0  0  0
    2.9738   -0.6277    2.4851 H   0  0  0  0  0  0  0  0  0  0  0  0
  1  8  1  0  0  0  0
  1 15  1  0  0  0  0
  1 16  1  0  0  0  0
  2  1  1  0  0  0  0
  2 14  1  0  0  0  0
  2  3  1  0  0  0  0
  2  4  1  0  0  0  0
  3  5  1  0  0  0  0
  3 17  1  0  0  0  0
  3 18  1  0  0  0  0
  4 11  1  0  0  0  0
  4 19  1  0  0  0  0
  4 20  1  0  0  0  0
  5  6  1  0  0  0  0
  5 21  1  0  0  0  0
  5 22  1  0  0  0  0
  6  7  1  0  0  0  0
  6 23  1  0  0  0  0
  6 24  1  0  0  0  0
  7 25  1  0  0  0  0
  7 26  1  0  0  0  0
  7 27  1  0  0  0  0
  8  9  1  0  0  0  0
  8 28  1  0  0  0  0
  8 29  1  0  0  0  0
  9 10  1  0  0  0  0
  9 30  1  0  0  0  0
  9 31  1  0  0  0  0
 10 32  1  0  0  0  0
 10 33  1  0  0  0  0
 10 34  1  0  0  0  0
 11 12  1  0  0  0  0
 11 35  1  0  0  0  0
 11 36  1  0  0  0  0
 12 13  1  0  0  0  0
 12 37  1  0  0  0  0
 12 38  1  0  0  0  0
 13 39  1  0  0  0  0
 13 40  1  0  0  0  0
 13 41  1  0  0  0  0
M  END
>  <DRUGBANK_ID>
DB08601

>  <COMMON_NAME>
Tributyltin

>  <CAS_NUMBER>
688-73-3

>  <UNII>
4XDX163P3D

>  <SYNONYMS>
Tri-n-butylstannane hydride; Tri-n-butyltin hydride; Tributylstannane; Tributylstannanyl; Tributyltin hydride

$$$$
