5NS
 OpenBabel10282417163D

 24 25  0  0  0  0  0  0  0  0999 V2000
    2.7465    0.3047    0.0160 C   0  0  0  0  0  0  0  0  0  0  0  0
    2.3851   -1.0374    0.0013 C   0  0  0  0  0  0  0  0  0  0  0  0
    1.0341   -1.3933   -0.0068 C   0  0  0  0  0  0  0  0  0  0  0  0
   -0.0004   -0.4232   -0.0001 C   0  0  0  0  0  0  0  0  0  0  0  0
    0.3768    0.9575    0.0014 C   0  0  0  0  0  0  0  0  0  0  0  0
    1.7558    1.3019    0.0063 C   0  0  0  0  0  0  0  0  0  0  0  0
   -2.0016    1.5674   -0.0149 C   0  0  0  0  0  0  0  0  0  0  0  0
   -0.6611    1.9087   -0.0094 C   0  0  0  0  0  0  0  0  0  0  0  0
    3.2403    3.0730    1.3401 O   0  0  0  0  0  0  0  0  0  0  0  0
    2.3736    2.9924   -0.0212 S   0  0  0  0  0  0  0  0  0  0  0  0
    3.2724    3.1045   -1.1441 O   0  0  0  0  0  0  0  0  0  0  0  0
    1.3157    3.9603    0.1851 O   0  0  0  0  0  0  0  0  0  0  0  0
   -2.3622    0.2375   -0.0092 C   0  0  0  0  0  0  0  0  0  0  0  0
   -1.3895   -0.7707   -0.0095 C   0  0  0  0  0  0  0  0  0  0  0  0
   -1.8576   -2.0818    0.0518 N   0  0  0  0  0  0  0  0  0  0  0  0
    3.8033    0.5713    0.0132 H   0  0  0  0  0  0  0  0  0  0  0  0
    3.1507   -1.8114   -0.0164 H   0  0  0  0  0  0  0  0  0  0  0  0
    0.7990   -2.4557   -0.0312 H   0  0  0  0  0  0  0  0  0  0  0  0
   -2.7455    2.3576   -0.0272 H   0  0  0  0  0  0  0  0  0  0  0  0
   -0.4859    2.9730   -0.0234 H   0  0  0  0  0  0  0  0  0  0  0  0
    2.6205    3.1817    2.0921 H   0  0  0  0  0  0  0  0  0  0  0  0
   -3.4201   -0.0061   -0.0131 H   0  0  0  0  0  0  0  0  0  0  0  0
   -1.2443   -2.8768   -0.0217 H   0  0  0  0  0  0  0  0  0  0  0  0
   -2.8547   -2.2510    0.0008 H   0  0  0  0  0  0  0  0  0  0  0  0
  1  2  1  0  0  0  0
  1 16  1  0  0  0  0
  2  3  2  0  0  0  0
  2 17  1  0  0  0  0
  3 18  1  0  0  0  0
  4  3  1  0  0  0  0
  4 14  2  0  0  0  0
  5  4  1  0  0  0  0
  6  1  2  0  0  0  0
  6  5  1  0  0  0  0
  7 13  2  0  0  0  0
  7 19  1  0  0  0  0
  8  5  2  0  0  0  0
  8  7  1  0  0  0  0
  8 20  1  0  0  0  0
  9 10  1  0  0  0  0
  9 21  1  0  0  0  0
 10  6  1  0  0  0  0
 11 10  2  0  0  0  0
 12 10  2  0  0  0  0
 13 14  1  0  0  0  0
 13 22  1  0  0  0  0
 14 15  1  0  0  0  0
 15 23  1  0  0  0  0
 15 24  1  0  0  0  0
M  END
>  <DRUGBANK_ID>
DB07176

>  <COMMON_NAME>
1-Naphthylamine-5-sulfonic acid

>  <CAS_NUMBER>
84-89-9

>  <UNII>
W70WC365OD

>  <SYNONYMS>
1-Amino-5-naphthalenesufonic acid; 1-Amino-5-sulfonaphthalene; 5-Naphthylamine-1-sulfonic acid; Laurent acid

$$$$
