
 OpenBabel10282417163D

 68 71  0  0  1  0  0  0  0  0999 V2000
   -3.3986   -0.1455   -0.5249 C   0  0  1  0  0  0  0  0  0  0  0  0
   -2.2193    0.5317   -0.9321 C   0  0  2  0  0  0  0  0  0  0  0  0
   -1.7229   -2.3757    0.5106 C   0  0  1  0  0  0  0  0  0  0  0  0
   -1.1708   -1.0162   -0.5787 C   0  0  1  0  0  0  0  0  0  0  0  0
   -0.8652   -3.8821    0.4168 C   0  0  1  0  0  0  0  0  0  0  0  0
   -3.9232    1.3395    0.3439 C   0  0  2  0  0  0  0  0  0  0  0  0
   -3.8805   -1.2311    0.4080 C   0  0  0  0  0  0  0  0  0  0  0  0
   -3.1812   -2.4623    0.0496 C   0  0  0  0  0  0  0  0  0  0  0  0
   -3.9899    1.2032   -1.5633 C   0  0  0  0  0  0  0  0  0  0  0  0
   -5.1097    1.1924   -0.4442 C   0  0  0  0  0  0  0  0  0  0  0  0
    0.3089   -1.0829   -0.0310 C   0  0  1  0  0  0  0  0  0  0  0  0
    0.5622   -3.6778    0.0683 C   0  0  2  0  0  0  0  0  0  0  0  0
    0.9542   -2.4183   -0.6207 C   0  0  0  0  0  0  0  0  0  0  0  0
   -3.7047    2.9296    0.5014 C   0  0  1  0  0  0  0  0  0  0  0  0
   -3.3113   -0.7345   -2.3081 C   0  0  0  0  0  0  0  0  0  0  0  0
   -1.6858   -4.4301   -0.9283 C   0  0  0  0  0  0  0  0  0  0  0  0
   -0.0662   -4.9784    1.7695 C   0  0  0  0  0  0  0  0  0  0  0  0
   -2.5134    3.8106   -1.7006 C   0  0  0  0  0  0  0  0  0  0  0  0
   -2.5295    3.6675   -0.1663 C   0  0  0  0  0  0  0  0  0  0  0  0
    0.9330   -5.1493   -0.5423 C   0  0  0  0  0  0  0  0  0  0  0  0
   -4.9948    3.7632    0.2986 C   0  0  0  0  0  0  0  0  0  0  0  0
   -3.5918    4.6857   -2.3826 C   0  0  0  0  0  0  0  0  0  0  0  0
   -0.5903   -6.3259    1.4980 C   0  0  0  0  0  0  0  0  0  0  0  0
   -0.0775   -6.5086    0.0209 C   0  0  1  0  0  0  0  0  0  0  0  0
   -1.7898    1.2275   -0.2192 H   0  0  0  0  0  0  0  0  0  0  0  0
   -1.0541   -1.4375   -1.5868 H   0  0  0  0  0  0  0  0  0  0  0  0
   -1.6656   -2.0743    1.5632 H   0  0  0  0  0  0  0  0  0  0  0  0
   -3.5583    1.0155    1.3161 H   0  0  0  0  0  0  0  0  0  0  0  0
    1.0636   -3.4078    1.0167 H   0  0  0  0  0  0  0  0  0  0  0  0
   -3.4793    5.8372   -2.6292 O   0  0  0  0  0  0  0  0  0  0  0  0
   -4.7630    4.0358   -2.6546 O   0  0  0  0  0  0  0  0  0  0  0  0
   -1.2748   -6.8178   -0.6719 O   0  0  0  0  0  0  0  0  0  0  0  0
    1.3987   -0.1897   -0.0125 O   0  0  0  0  0  0  0  0  0  0  0  0
   -4.9584   -1.3773    0.2590 H   0  0  0  0  0  0  0  0  0  0  0  0
   -3.7586   -0.9989    1.4683 H   0  0  0  0  0  0  0  0  0  0  0  0
   -3.8308   -3.3417    0.0225 H   0  0  0  0  0  0  0  0  0  0  0  0
   -3.0889   -2.3399   -1.0038 H   0  0  0  0  0  0  0  0  0  0  0  0
   -4.0185    2.1618   -2.0420 H   0  0  0  0  0  0  0  0  0  0  0  0
   -4.5353    0.7754   -2.4329 H   0  0  0  0  0  0  0  0  0  0  0  0
   -5.9154    1.8906   -0.6595 H   0  0  0  0  0  0  0  0  0  0  0  0
   -5.6453    0.3909    0.0669 H   0  0  0  0  0  0  0  0  0  0  0  0
    0.0704   -1.0193    1.0340 H   0  0  0  0  0  0  0  0  0  0  0  0
    2.0509   -2.3941   -0.5424 H   0  0  0  0  0  0  0  0  0  0  0  0
    0.7177   -2.5408   -1.6725 H   0  0  0  0  0  0  0  0  0  0  0  0
   -3.5499    3.0345    1.5886 H   0  0  0  0  0  0  0  0  0  0  0  0
   -4.2848   -0.9945   -2.7279 H   0  0  0  0  0  0  0  0  0  0  0  0
   -2.8300    0.0545   -2.9689 H   0  0  0  0  0  0  0  0  0  0  0  0
   -2.6256   -1.5459   -2.5435 H   0  0  0  0  0  0  0  0  0  0  0  0
   -1.0822   -4.5970   -1.8289 H   0  0  0  0  0  0  0  0  0  0  0  0
   -2.5055   -5.1255   -0.7021 H   0  0  0  0  0  0  0  0  0  0  0  0
   -2.3104   -3.7308   -1.4797 H   0  0  0  0  0  0  0  0  0  0  0  0
    0.9142   -5.5979    1.5539 H   0  0  0  0  0  0  0  0  0  0  0  0
    0.8633   -4.5632    2.2864 H   0  0  0  0  0  0  0  0  0  0  0  0
   -1.5684    4.2813   -1.9708 H   0  0  0  0  0  0  0  0  0  0  0  0
   -2.4119    2.8475   -2.1946 H   0  0  0  0  0  0  0  0  0  0  0  0
   -2.4729    4.6753    0.2713 H   0  0  0  0  0  0  0  0  0  0  0  0
   -1.6003    3.1875    0.1633 H   0  0  0  0  0  0  0  0  0  0  0  0
    1.9823   -5.4120   -0.3245 H   0  0  0  0  0  0  0  0  0  0  0  0
    0.8640   -5.0395   -1.6220 H   0  0  0  0  0  0  0  0  0  0  0  0
   -5.8619    3.3885    0.8504 H   0  0  0  0  0  0  0  0  0  0  0  0
   -4.8763    4.8325    0.4833 H   0  0  0  0  0  0  0  0  0  0  0  0
   -5.2895    3.6770   -0.7295 H   0  0  0  0  0  0  0  0  0  0  0  0
   -0.2708   -7.1252    2.1971 H   0  0  0  0  0  0  0  0  0  0  0  0
   -1.6428   -6.1434    1.7060 H   0  0  0  0  0  0  0  0  0  0  0  0
    0.5096   -7.4193   -0.1191 H   0  0  0  0  0  0  0  0  0  0  0  0
   -5.4909    4.6762   -2.5035 H   0  0  0  0  0  0  0  0  0  0  0  0
   -1.1895   -6.5640   -1.5990 H   0  0  0  0  0  0  0  0  0  0  0  0
    2.0235   -0.6461    0.6143 H   0  0  0  0  0  0  0  0  0  0  0  0
  1 15  1  1  0  0  0
  2  1  1  0  0  0  0
  2 25  1  6  0  0  0
  3 27  1  6  0  0  0
  4  2  1  0  0  0  0
  4  3  1  0  0  0  0
  4 26  1  1  0  0  0
  5  3  1  0  0  0  0
  5 16  1  1  0  0  0
  6  1  1  0  0  0  0
  6 28  1  1  0  0  0
  7  1  1  0  0  0  0
  7 34  1  0  0  0  0
  7 35  1  0  0  0  0
  8  3  1  0  0  0  0
  8  7  1  0  0  0  0
  8 36  1  0  0  0  0
  8 37  1  0  0  0  0
  9  2  1  0  0  0  0
  9 38  1  0  0  0  0
  9 39  1  0  0  0  0
 10  6  1  0  0  0  0
 10  9  1  0  0  0  0
 10 40  1  0  0  0  0
 10 41  1  0  0  0  0
 11  4  1  0  0  0  0
 11 33  1  0  0  0  0
 11 42  1  1  0  0  0
 12  5  1  0  0  0  0
 12 29  1  1  0  0  0
 13 11  1  0  0  0  0
 13 12  1  0  0  0  0
 13 43  1  0  0  0  0
 13 44  1  0  0  0  0
 14 21  1  0  0  0  0
 14 45  1  1  0  0  0
 14  6  1  0  0  0  0
 15 46  1  0  0  0  0
 15 47  1  0  0  0  0
 15 48  1  0  0  0  0
 16 49  1  0  0  0  0
 16 50  1  0  0  0  0
 16 51  1  0  0  0  0
 17  5  1  0  0  0  0
 17 52  1  0  0  0  0
 17 53  1  0  0  0  0
 18 54  1  0  0  0  0
 18 55  1  0  0  0  0
 19 14  1  0  0  0  0
 19 18  1  0  0  0  0
 19 56  1  0  0  0  0
 19 57  1  0  0  0  0
 20 12  1  0  0  0  0
 20 58  1  0  0  0  0
 20 59  1  0  0  0  0
 21 60  1  0  0  0  0
 21 61  1  0  0  0  0
 21 62  1  0  0  0  0
 22 18  1  0  0  0  0
 23 17  1  0  0  0  0
 23 63  1  0  0  0  0
 23 64  1  0  0  0  0
 24 20  1  0  0  0  0
 24 23  1  0  0  0  0
 24 65  1  6  0  0  0
 24 32  1  0  0  0  0
 30 22  2  0  0  0  0
 31 22  1  0  0  0  0
 31 66  1  0  0  0  0
 32 67  1  0  0  0  0
 33 68  1  0  0  0  0
M  END
>  <DRUGBANK_ID>
DB06777

>  <COMMON_NAME>
Chenodeoxycholic acid

>  <CAS_NUMBER>
474-25-9

>  <UNII>
0GEI24LG0J

>  <SYNONYMS>
3alpha,7alpha-Dihydroxy-5beta-cholanic acid; 7Î±-hydroxylithocholic acid; Acide chenodeoxycholique; Acido chenodeoxicholico; Acidum chenodeoxycholicum; Anthropodeoxycholic acid; Anthropodesoxycholic acid; CDCA; Chenic acid; Chenocholic acid; Chenodeoxycholate; Chenodeoxycholic acid; Chenodesoxycholic acid; Chenodiol; Gallodesoxycholic acid

$$$$
