
 OpenBabel10282417193D

 49 52  0  0  1  0  0  0  0  0999 V2000
    1.4353   -0.2332    0.0080 C   0  0  0  0  0  0  0  0  0  0  0  0
    0.5357   -1.3025    0.0071 C   0  0  0  0  0  0  0  0  0  0  0  0
   -0.8323   -1.0583   -0.0430 C   0  0  0  0  0  0  0  0  0  0  0  0
   -1.2836    0.2648   -0.0879 C   0  0  0  0  0  0  0  0  0  0  0  0
   -0.3788    1.3270   -0.0274 C   0  0  0  0  0  0  0  0  0  0  0  0
    0.9778    1.0814   -0.0076 C   0  0  0  0  0  0  0  0  0  0  0  0
   -2.7276    0.6166   -0.1962 C   0  0  0  0  0  0  0  0  0  0  0  0
   -3.0462    1.5482    0.9088 N   0  0  0  0  0  0  0  0  0  0  0  0
   -4.4396    1.9096    0.9537 C   0  0  0  0  0  0  0  0  0  0  0  0
   -5.1612    0.6107    1.1165 C   0  0  0  0  0  0  0  0  0  0  0  0
   -4.6680   -0.5437    2.2167 C   0  0  0  0  0  0  0  0  0  0  0  0
   -4.3624   -0.2382    3.4866 C   0  0  0  0  0  0  0  0  0  0  0  0
   -4.5079   -1.3416    4.2994 N   0  0  0  0  0  0  0  0  0  0  0  0
   -4.8857   -2.4642    3.5498 C   0  0  0  0  0  0  0  0  0  0  0  0
   -5.2438   -3.9233    4.2444 S   0  0  0  0  0  0  0  0  0  0  0  0
   -5.0025   -2.0085    2.2070 N   0  0  0  0  0  0  0  0  0  0  0  0
   -5.9186   -2.6329    1.1626 C   0  0  2  0  0  0  0  0  0  0  0  0
   -6.7052   -1.4335    0.7765 C   0  0  0  0  0  0  0  0  0  0  0  0
   -7.5065   -1.0464    2.0536 C   0  0  0  0  0  0  0  0  0  0  0  0
   -7.3757   -0.1539    3.1728 C   0  0  0  0  0  0  0  0  0  0  0  0
   -8.3107   -0.1328    4.2146 C   0  0  0  0  0  0  0  0  0  0  0  0
   -9.4769   -0.8300    4.0711 C   0  0  0  0  0  0  0  0  0  0  0  0
   -9.6029   -1.6967    2.9888 C   0  0  0  0  0  0  0  0  0  0  0  0
   -8.5350   -1.9420    2.1367 C   0  0  0  0  0  0  0  0  0  0  0  0
   -8.4692   -3.0547    1.3385 O   0  0  0  0  0  0  0  0  0  0  0  0
   -7.1049   -3.6367    1.3318 C   0  0  0  0  0  0  0  0  0  0  0  0
  -10.7786   -2.2594    2.7290 F   0  0  0  0  0  0  0  0  0  0  0  0
   -8.0996    0.6247    5.3072 F   0  0  0  0  0  0  0  0  0  0  0  0
    2.5027   -0.4219    0.0270 H   0  0  0  0  0  0  0  0  0  0  0  0
    0.9048   -2.3237    0.0330 H   0  0  0  0  0  0  0  0  0  0  0  0
   -1.5292   -1.8949   -0.0448 H   0  0  0  0  0  0  0  0  0  0  0  0
   -0.7592    2.3469    0.0148 H   0  0  0  0  0  0  0  0  0  0  0  0
    1.6624    1.9211   -0.0119 H   0  0  0  0  0  0  0  0  0  0  0  0
   -2.9245    1.0864   -1.1677 H   0  0  0  0  0  0  0  0  0  0  0  0
   -3.2870   -0.3303   -0.1911 H   0  0  0  0  0  0  0  0  0  0  0  0
   -2.8316    1.0351    1.7659 H   0  0  0  0  0  0  0  0  0  0  0  0
   -4.7203    2.5855    1.7630 H   0  0  0  0  0  0  0  0  0  0  0  0
   -4.7583    2.3951    0.0125 H   0  0  0  0  0  0  0  0  0  0  0  0
   -6.2223    0.8754    1.2205 H   0  0  0  0  0  0  0  0  0  0  0  0
   -5.0913    0.3054    0.0604 H   0  0  0  0  0  0  0  0  0  0  0  0
   -4.3089    0.7519    3.9342 H   0  0  0  0  0  0  0  0  0  0  0  0
   -4.6852   -1.3033    5.2927 H   0  0  0  0  0  0  0  0  0  0  0  0
   -5.2402   -3.0126    0.3763 H   0  0  0  0  0  0  0  0  0  0  0  0
   -7.3543   -1.4323   -0.0977 H   0  0  0  0  0  0  0  0  0  0  0  0
   -5.8721   -1.0348    0.2637 H   0  0  0  0  0  0  0  0  0  0  0  0
   -6.5700    0.5435    3.3675 H   0  0  0  0  0  0  0  0  0  0  0  0
  -10.2831   -0.7097    4.7836 H   0  0  0  0  0  0  0  0  0  0  0  0
   -7.1127   -4.2395    0.4098 H   0  0  0  0  0  0  0  0  0  0  0  0
   -7.0324   -4.3334    2.1574 H   0  0  0  0  0  0  0  0  0  0  0  0
  1  2  2  0  0  0  0
  1  6  1  0  0  0  0
  1 29  1  0  0  0  0
  2  3  1  0  0  0  0
  2 30  1  0  0  0  0
  3  4  2  0  0  0  0
  3 31  1  0  0  0  0
  4  5  1  0  0  0  0
  4  7  1  0  0  0  0
  5  6  2  0  0  0  0
  5 32  1  0  0  0  0
  6 33  1  0  0  0  0
  7  8  1  0  0  0  0
  7 34  1  0  0  0  0
  7 35  1  0  0  0  0
  8  9  1  0  0  0  0
  8 36  1  0  0  0  0
  9 10  1  0  0  0  0
  9 37  1  0  0  0  0
  9 38  1  0  0  0  0
 10 11  1  0  0  0  0
 10 39  1  0  0  0  0
 10 40  1  0  0  0  0
 11 12  2  0  0  0  0
 11 16  1  0  0  0  0
 12 13  1  0  0  0  0
 12 41  1  0  0  0  0
 13 14  1  0  0  0  0
 13 42  1  0  0  0  0
 14 15  2  0  0  0  0
 14 16  1  0  0  0  0
 17 16  1  0  0  0  0
 17 18  1  0  0  0  0
 17 26  1  0  0  0  0
 17 43  1  6  0  0  0
 18 19  1  0  0  0  0
 18 44  1  0  0  0  0
 18 45  1  0  0  0  0
 19 20  2  0  0  0  0
 19 24  1  0  0  0  0
 20 21  1  0  0  0  0
 20 46  1  0  0  0  0
 21 22  2  0  0  0  0
 21 28  1  0  0  0  0
 22 23  1  0  0  0  0
 22 47  1  0  0  0  0
 23 24  2  0  0  0  0
 23 27  1  0  0  0  0
 24 25  1  0  0  0  0
 25 26  1  0  0  0  0
 26 48  1  0  0  0  0
 26 49  1  0  0  0  0
M  END
>  <DRUGBANK_ID>
DB12389

>  <COMMON_NAME>
Zamicastat

>  <CAS_NUMBER>
1080028-80-3

>  <UNII>
YLU32D0DNV

>  <SYNONYMS>
Zamicastat

$$$$
