
 OpenBabel10282417203D

 37 37  0  0  0  0  0  0  0  0999 V2000
    0.8543    0.0434    0.2248 C   0  0  0  0  0  0  0  0  0  0  0  0
    0.3560   -1.3608   -0.1422 C   0  0  0  0  0  0  0  0  0  0  0  0
    0.6849   -2.3947    0.9336 C   0  0  0  0  0  0  0  0  0  0  0  0
   -1.1560   -1.3692   -0.3690 C   0  0  0  0  0  0  0  0  0  0  0  0
    0.9677   -1.7151   -1.4045 N   0  0  0  0  0  0  0  0  0  0  0  0
    2.4223   -1.7225   -1.3819 C   0  0  0  0  0  0  0  0  0  0  0  0
    3.1904   -2.9415   -0.8310 C   0  0  3  0  0  0  0  0  0  0  0  0
    2.7538   -4.2289   -1.5396 C   0  0  0  0  0  0  0  0  0  0  0  0
    3.4207   -4.4168   -2.8286 O   0  0  0  0  0  0  0  0  0  0  0  0
    2.9458   -3.6728   -3.8826 C   0  0  0  0  0  0  0  0  0  0  0  0
    2.0600   -4.2791   -4.7828 C   0  0  0  0  0  0  0  0  0  0  0  0
    1.4766   -3.4926   -5.7874 C   0  0  0  0  0  0  0  0  0  0  0  0
    1.6041   -2.1163   -5.7909 C   0  0  0  0  0  0  0  0  0  0  0  0
    2.5511   -1.5347   -4.9480 C   0  0  0  0  0  0  0  0  0  0  0  0
    3.3683   -2.3772   -4.1896 C   0  0  0  0  0  0  0  0  0  0  0  0
    4.8223   -1.6574   -3.5699 Cl  0  0  0  0  0  0  0  0  0  0  0  0
    0.6148   -4.2495   -7.0713 Cl  0  0  0  0  0  0  0  0  0  0  0  0
    4.6097   -2.7950   -0.9144 O   0  0  0  0  0  0  0  0  0  0  0  0
    0.4364    0.3808    1.1710 H   0  0  0  0  0  0  0  0  0  0  0  0
    0.6040    0.7655   -0.5641 H   0  0  0  0  0  0  0  0  0  0  0  0
    1.9432    0.0831    0.3500 H   0  0  0  0  0  0  0  0  0  0  0  0
    0.0532   -2.2792    1.8138 H   0  0  0  0  0  0  0  0  0  0  0  0
    0.5542   -3.4177    0.5522 H   0  0  0  0  0  0  0  0  0  0  0  0
    1.7047   -2.2773    1.2986 H   0  0  0  0  0  0  0  0  0  0  0  0
   -1.4619   -0.6384   -1.1257 H   0  0  0  0  0  0  0  0  0  0  0  0
   -1.5016   -2.3570   -0.7027 H   0  0  0  0  0  0  0  0  0  0  0  0
   -1.6737   -1.1348    0.5652 H   0  0  0  0  0  0  0  0  0  0  0  0
    0.5676   -2.5500   -1.8293 H   0  0  0  0  0  0  0  0  0  0  0  0
    2.5502   -1.6758   -2.4255 H   0  0  0  0  0  0  0  0  0  0  0  0
    2.9029   -0.7762   -1.1199 H   0  0  0  0  0  0  0  0  0  0  0  0
    3.0364   -3.0302    0.2399 H   0  0  0  0  0  0  0  0  0  0  0  0
    3.0702   -5.0617   -0.8945 H   0  0  0  0  0  0  0  0  0  0  0  0
    1.6598   -4.3234   -1.5980 H   0  0  0  0  0  0  0  0  0  0  0  0
    1.8792   -5.3399   -4.7328 H   0  0  0  0  0  0  0  0  0  0  0  0
    1.0469   -1.4794   -6.4704 H   0  0  0  0  0  0  0  0  0  0  0  0
    2.6412   -0.4594   -4.8828 H   0  0  0  0  0  0  0  0  0  0  0  0
    4.8588   -3.0116   -1.8341 H   0  0  0  0  0  0  0  0  0  0  0  0
  1  2  1  0  0  0  0
  1 19  1  0  0  0  0
  1 20  1  0  0  0  0
  1 21  1  0  0  0  0
  2  3  1  0  0  0  0
  2  4  1  0  0  0  0
  2  5  1  0  0  0  0
  3 22  1  0  0  0  0
  3 23  1  0  0  0  0
  3 24  1  0  0  0  0
  4 25  1  0  0  0  0
  4 26  1  0  0  0  0
  4 27  1  0  0  0  0
  5  6  1  0  0  0  0
  5 28  1  0  0  0  0
  6  7  1  0  0  0  0
  6 29  1  0  0  0  0
  6 30  1  0  0  0  0
  7  8  1  0  0  0  0
  7 18  1  0  0  0  0
  7 31  1  0  0  0  0
  8  9  1  0  0  0  0
  8 32  1  0  0  0  0
  8 33  1  0  0  0  0
  9 10  1  0  0  0  0
 10 11  2  0  0  0  0
 10 15  1  0  0  0  0
 11 12  1  0  0  0  0
 11 34  1  0  0  0  0
 12 13  2  0  0  0  0
 12 17  1  0  0  0  0
 13 14  1  0  0  0  0
 13 35  1  0  0  0  0
 14 15  2  0  0  0  0
 14 36  1  0  0  0  0
 15 16  1  0  0  0  0
 18 37  1  0  0  0  0
M  END
>  <DRUGBANK_ID>
DB13508

>  <COMMON_NAME>
Cloranolol

>  <CAS_NUMBER>
39563-28-5

>  <UNII>
Q3U058H86V

>  <SYNONYMS>
Cloranolol; Cloranololum; Tobanum

$$$$
