
 OpenBabel10282417123D

 19 19  0  0  1  0  0  0  0  0999 V2000
    3.5523    0.0943   -0.9532 C   0  0  0  0  0  0  0  0  0  0  0  0
    2.7495   -0.4954    0.1903 C   0  0  2  0  0  0  0  0  0  0  0  0
    3.4566    1.4657   -1.2404 C   0  0  0  0  0  0  0  0  0  0  0  0
    4.3641   -0.7073   -1.7731 C   0  0  0  0  0  0  0  0  0  0  0  0
    1.2314   -0.2816    0.0169 C   0  0  0  0  0  0  0  0  0  0  0  0
    3.1543    0.0717    1.4448 O   0  0  0  0  0  0  0  0  0  0  0  0
    4.1480    2.0243   -2.3120 C   0  0  0  0  0  0  0  0  0  0  0  0
    5.0976   -0.1338   -2.8173 C   0  0  0  0  0  0  0  0  0  0  0  0
    0.5335   -0.4815    1.1656 O   0  0  0  0  0  0  0  0  0  0  0  0
    0.6688    0.0488   -1.0223 O   0  0  0  0  0  0  0  0  0  0  0  0
    4.9695    1.2253   -3.1002 C   0  0  0  0  0  0  0  0  0  0  0  0
    2.9267   -1.5744    0.2651 H   0  0  0  0  0  0  0  0  0  0  0  0
    2.7991    2.1050   -0.6561 H   0  0  0  0  0  0  0  0  0  0  0  0
    4.4228   -1.7845   -1.6264 H   0  0  0  0  0  0  0  0  0  0  0  0
    3.2195    1.0360    1.3130 H   0  0  0  0  0  0  0  0  0  0  0  0
    4.0339    3.0821   -2.5317 H   0  0  0  0  0  0  0  0  0  0  0  0
    5.7654   -0.7460   -3.4192 H   0  0  0  0  0  0  0  0  0  0  0  0
    1.1264   -0.6957    1.9170 H   0  0  0  0  0  0  0  0  0  0  0  0
    5.4976    1.6609   -3.9442 H   0  0  0  0  0  0  0  0  0  0  0  0
  1  3  2  0  0  0  0
  1  4  1  0  0  0  0
  2  6  1  0  0  0  0
  2 12  1  1  0  0  0
  2  5  1  0  0  0  0
  2  1  1  0  0  0  0
  3  7  1  0  0  0  0
  3 13  1  0  0  0  0
  4  8  2  0  0  0  0
  4 14  1  0  0  0  0
  5  9  1  0  0  0  0
  5 10  2  0  0  0  0
  6 15  1  0  0  0  0
  7 11  2  0  0  0  0
  7 16  1  0  0  0  0
  8 11  1  0  0  0  0
  8 17  1  0  0  0  0
  9 18  1  0  0  0  0
 11 19  1  0  0  0  0
M  END
>  <DRUGBANK_ID>
DB02280

>  <SECONDARY_ACCESSION_NUMBERS>
EXPT02794

>  <COMMON_NAME>
(R)-Mandelic acid

>  <CAS_NUMBER>
611-71-2

>  <UNII>
PPL7YW1M9W

>  <SYNONYMS>
(−)-(R)-mandelic acid; (−)-mandelic acid; (−)-α-hydroxyphenylacetic acid; (2R)-2-hydroxy-2-phenylacetic acid; (R)-2-Hydroxy-2-phenylacetic acid; (R)-Mandelsäure; (R)-α-hydroxybenzeneacetic acid; (R)-α-hydroxyphenylacetic acid; D-2-phenylglycolic acid; D-mandelic acid; D(−)-mandelic acid

$$$$
