
 OpenBabel10282417143D

 61 63  0  0  1  0  0  0  0  0999 V2000
    2.0453    8.5720   -9.4040 C   0  0  0  0  0  0  0  0  0  0  0  0
    1.8857    9.3750   -8.1319 C   0  0  0  0  0  0  0  0  0  0  0  0
    3.0645    9.1579   -7.1746 C   0  0  1  0  0  0  0  0  0  0  0  0
    4.4115    9.5900   -7.7697 C   0  0  0  0  0  0  0  0  0  0  0  0
    2.8291    9.9397   -5.9035 C   0  0  0  0  0  0  0  0  0  0  0  0
    2.8863    9.3274   -4.6515 C   0  0  0  0  0  0  0  0  0  0  0  0
    3.0145    7.9600   -4.6188 O   0  0  0  0  0  0  0  0  0  0  0  0
    2.8989   10.1021   -3.4737 C   0  0  0  0  0  0  0  0  0  0  0  0
    3.0237    9.5520   -2.1798 C   0  0  0  0  0  0  0  0  0  0  0  0
    2.9042    8.1772   -2.0628 O   0  0  0  0  0  0  0  0  0  0  0  0
    3.1435   10.3872   -1.0538 C   0  0  0  0  0  0  0  0  0  0  0  0
    3.0354   11.8052   -1.1837 C   0  0  0  0  0  0  0  0  0  0  0  0
    2.5196   12.6402    0.0051 C   0  0  0  0  0  0  0  0  0  0  0  0
    1.7956   11.7480    1.0765 C   0  0  2  0  0  0  0  0  0  0  0  0
    2.8904   10.7363    1.4514 C   0  0  0  0  0  0  0  0  0  0  0  0
    2.9818    9.7721    0.2938 C   0  0  0  0  0  0  0  0  0  0  0  0
    2.7703    8.5809    0.4188 O   0  0  0  0  0  0  0  0  0  0  0  0
    0.4489   10.8865    0.8126 C   0  0  2  0  0  0  0  0  0  0  0  0
   -0.2422   10.8064   -0.4350 O   0  0  0  0  0  0  0  0  0  0  0  0
    0.1562   11.6948   -1.4269 C   0  0  0  0  0  0  0  0  0  0  0  0
   -0.6732   11.0538    1.8344 C   0  0  0  0  0  0  0  0  0  0  0  0
   -0.9141   10.1820    2.6749 O   0  0  0  0  0  0  0  0  0  0  0  0
   -1.5118   12.3156    1.7774 C   0  0  1  0  0  0  0  0  0  0  0  0
   -0.6448   13.4034    2.1080 O   0  0  0  0  0  0  0  0  0  0  0  0
   -2.1902   12.5224    0.4110 C   0  0  1  0  0  0  0  0  0  0  0  0
   -2.9984   11.3151   -0.0634 C   0  0  0  0  0  0  0  0  0  0  0  0
   -3.0021   13.6952    0.3738 O   0  0  0  0  0  0  0  0  0  0  0  0
    2.8734   12.3561   -2.4757 C   0  0  0  0  0  0  0  0  0  0  0  0
    2.7852   11.5183   -3.5978 C   0  0  0  0  0  0  0  0  0  0  0  0
    2.5492   12.1002   -4.8393 C   0  0  0  0  0  0  0  0  0  0  0  0
    2.6326   11.3260   -5.9804 C   0  0  0  0  0  0  0  0  0  0  0  0
    2.9402    8.8800   -9.9510 H   0  0  0  0  0  0  0  0  0  0  0  0
    1.1871    8.7342  -10.0586 H   0  0  0  0  0  0  0  0  0  0  0  0
    2.1255    7.5062   -9.1734 H   0  0  0  0  0  0  0  0  0  0  0  0
    1.7824   10.4323   -8.4013 H   0  0  0  0  0  0  0  0  0  0  0  0
    0.9499    9.0913   -7.6312 H   0  0  0  0  0  0  0  0  0  0  0  0
    3.1286    8.0845   -6.9575 H   0  0  0  0  0  0  0  0  0  0  0  0
    4.4020   10.6467   -8.0603 H   0  0  0  0  0  0  0  0  0  0  0  0
    5.2242    9.4530   -7.0469 H   0  0  0  0  0  0  0  0  0  0  0  0
    4.6647    9.0030   -8.6552 H   0  0  0  0  0  0  0  0  0  0  0  0
    2.9961    7.6866   -3.6774 H   0  0  0  0  0  0  0  0  0  0  0  0
    2.7611    7.9484   -1.1124 H   0  0  0  0  0  0  0  0  0  0  0  0
    1.8609   13.4604   -0.3102 H   0  0  0  0  0  0  0  0  0  0  0  0
    3.3862   13.1608    0.4377 H   0  0  0  0  0  0  0  0  0  0  0  0
    1.6304   12.3841    1.9552 H   0  0  0  0  0  0  0  0  0  0  0  0
    3.8729   11.1988    1.5885 H   0  0  0  0  0  0  0  0  0  0  0  0
    2.6242   10.2058    2.3676 H   0  0  0  0  0  0  0  0  0  0  0  0
    0.7024    9.8362    1.0026 H   0  0  0  0  0  0  0  0  0  0  0  0
    0.1922   12.7422   -1.1193 H   0  0  0  0  0  0  0  0  0  0  0  0
    1.1064   11.3111   -1.5708 H   0  0  0  0  0  0  0  0  0  0  0  0
   -0.2553   11.5772   -2.4258 H   0  0  0  0  0  0  0  0  0  0  0  0
   -2.2815   12.2586    2.5530 H   0  0  0  0  0  0  0  0  0  0  0  0
   -0.3406   13.2479    3.0221 H   0  0  0  0  0  0  0  0  0  0  0  0
   -1.4575   12.7806   -0.3273 H   0  0  0  0  0  0  0  0  0  0  0  0
   -3.8576   11.1565    0.5882 H   0  0  0  0  0  0  0  0  0  0  0  0
   -3.3629   11.4828   -1.0822 H   0  0  0  0  0  0  0  0  0  0  0  0
   -2.4348   10.3758   -0.0819 H   0  0  0  0  0  0  0  0  0  0  0  0
   -3.6662   13.6187    1.0711 H   0  0  0  0  0  0  0  0  0  0  0  0
    2.5669   13.4000   -2.5909 H   0  0  0  0  0  0  0  0  0  0  0  0
    2.3715   13.1669   -4.9525 H   0  0  0  0  0  0  0  0  0  0  0  0
    2.6023   11.8273   -6.9443 H   0  0  0  0  0  0  0  0  0  0  0  0
  1  2  1  0  0  0  0
  1 32  1  0  0  0  0
  1 33  1  0  0  0  0
  1 34  1  0  0  0  0
  2  3  1  0  0  0  0
  2 35  1  0  0  0  0
  2 36  1  0  0  0  0
  3  4  1  0  0  0  0
  3  5  1  0  0  0  0
  3 37  1  1  0  0  0
  4 38  1  0  0  0  0
  4 39  1  0  0  0  0
  4 40  1  0  0  0  0
  5  6  2  0  0  0  0
  5 31  1  0  0  0  0
  6  7  1  0  0  0  0
  6  8  1  0  0  0  0
  7 41  1  0  0  0  0
  8  9  2  0  0  0  0
  8 29  1  0  0  0  0
  9 10  1  0  0  0  0
  9 11  1  0  0  0  0
 10 42  1  0  0  0  0
 11 12  2  0  0  0  0
 11 16  1  0  0  0  0
 12 13  1  0  0  0  0
 12 28  1  0  0  0  0
 13 14  1  0  0  0  0
 13 43  1  0  0  0  0
 13 44  1  0  0  0  0
 14 15  1  0  0  0  0
 14 45  1  1  0  0  0
 15 16  1  0  0  0  0
 15 46  1  0  0  0  0
 15 47  1  0  0  0  0
 16 17  2  0  0  0  0
 18 21  1  0  0  0  0
 18 48  1  1  0  0  0
 18 19  1  0  0  0  0
 18 14  1  0  0  0  0
 19 20  1  0  0  0  0
 20 49  1  0  0  0  0
 20 50  1  0  0  0  0
 20 51  1  0  0  0  0
 21 22  2  0  0  0  0
 21 23  1  0  0  0  0
 23 24  1  0  0  0  0
 23 25  1  0  0  0  0
 23 52  1  1  0  0  0
 24 53  1  0  0  0  0
 25 26  1  0  0  0  0
 25 27  1  0  0  0  0
 25 54  1  6  0  0  0
 26 55  1  0  0  0  0
 26 56  1  0  0  0  0
 26 57  1  0  0  0  0
 27 58  1  0  0  0  0
 28 29  2  0  0  0  0
 28 59  1  0  0  0  0
 29 30  1  0  0  0  0
 30 31  2  0  0  0  0
 30 60  1  0  0  0  0
 31 61  1  0  0  0  0
M  END
>  <DRUGBANK_ID>
DB04240

>  <SECONDARY_ACCESSION_NUMBERS>
EXPT01305

>  <COMMON_NAME>
(1S)-1-C-{(2R)-6-[(2R)-2-Butanyl]-5,10-dihydroxy-4-oxo-1,2,3,4-tetrahydro-2-anthracenyl}-5-deoxy-1-O-methyl-D-xylulose

>  <SYNONYMS>
1,2-HYDRO-1-OXY-3,4-HYDRO-3-(1-METHOXY-2-OXY-3,4-DIHYDROXYPENTYL)-8,9-DIHYDROXY-7-(SEC-BUTYL)-ANTHRACENE

$$$$
