
 OpenBabel10282417183D

  7  6  0  0  0  0  0  0  0  0999 V2000
    0.9239    0.1439   -0.0438 O   0  0  0  0  0  0  0  0  0  0  0  0
    0.9633    1.7963   -1.9727 O   0  0  0  0  0  0  0  0  0  0  0  0
    0.9103   -0.6405   -2.3711 O   0  0  0  0  0  0  0  0  0  0  0  0
   -1.4457    0.4363   -1.5415 S   0  0  0  0  0  0  0  0  0  0  0  0
    0.3710    0.3841   -1.5214 S   0  0  0  0  0  0  0  0  0  0  0  0
    1.8909   -0.0028   -0.0811 H   0  0  0  0  0  0  0  0  0  0  0  0
    0.4907    2.5100   -1.4957 H   0  0  0  0  0  0  0  0  0  0  0  0
  1  6  1  0  0  0  0
  2  7  1  0  0  0  0
  5  1  1  0  0  0  0
  5  2  1  0  0  0  0
  5  3  2  0  0  0  0
  5  4  2  0  0  0  0
M  END
>  <DRUGBANK_ID>
DB09499

>  <COMMON_NAME>
Thiosulfuric acid

>  <CAS_NUMBER>
13686-28-7

>  <UNII>
7K79Y2EKKP

>  <SYNONYMS>
Monosulfanemonosulfonic acid; Sulfurothioic S-acid

$$$$
