
 OpenBabel10282417233D

 66 69  0  0  0  0  0  0  0  0999 V2000
    0.4993    0.3778    0.2633 C   0  0  0  0  0  0  0  0  0  0  0  0
    0.2449    0.5538   -1.1292 O   0  0  0  0  0  0  0  0  0  0  0  0
    0.8061    1.7088   -1.5892 C   0  0  0  0  0  0  0  0  0  0  0  0
    2.1581    2.0171   -1.5057 C   0  0  0  0  0  0  0  0  0  0  0  0
    3.1784    1.2084   -1.0527 O   0  0  0  0  0  0  0  0  0  0  0  0
    3.0480   -0.2238   -0.9873 C   0  0  0  0  0  0  0  0  0  0  0  0
    2.5225    3.3385   -1.8467 C   0  0  0  0  0  0  0  0  0  0  0  0
    1.5870    4.3212   -2.3185 C   0  0  0  0  0  0  0  0  0  0  0  0
    0.2658    3.9260   -2.4834 C   0  0  0  0  0  0  0  0  0  0  0  0
   -0.7907    4.8470   -3.0115 C   0  0  0  0  0  0  0  0  0  0  0  0
   -0.3641    6.2541   -3.3871 C   0  0  0  0  0  0  0  0  0  0  0  0
    1.0169    6.6203   -3.1852 N   0  0  0  0  0  0  0  0  0  0  0  0
    1.3286    7.9448   -3.5357 C   0  0  0  0  0  0  0  0  0  0  0  0
    0.4605    8.7114   -3.9635 O   0  0  0  0  0  0  0  0  0  0  0  0
    2.6573    8.3347   -3.3831 N   0  0  0  0  0  0  0  0  0  0  0  0
    3.0013    9.7287   -3.7942 C   0  0  0  0  0  0  0  0  0  0  0  0
    3.5646   10.6135   -2.6588 C   0  0  0  0  0  0  0  0  0  0  0  0
    4.8965   10.1909   -2.2942 N   0  0  0  0  0  0  0  0  0  0  0  0
    6.0578   10.8850   -2.3611 C   0  0  0  0  0  0  0  0  0  0  0  0
    7.1790   10.1300   -2.1805 N   0  0  0  0  0  0  0  0  0  0  0  0
    6.1317   12.0769   -2.4949 O   0  0  0  0  0  0  0  0  0  0  0  0
    3.6163    7.4631   -2.8958 C   0  0  0  0  0  0  0  0  0  0  0  0
    3.1655    6.1479   -2.4490 C   0  0  0  0  0  0  0  0  0  0  0  0
    1.9297    5.7287   -2.6618 C   0  0  0  0  0  0  0  0  0  0  0  0
    4.8627    7.8096   -2.8204 N   0  0  0  0  0  0  0  0  0  0  0  0
    5.8450    6.9712   -2.2639 C   0  0  0  0  0  0  0  0  0  0  0  0
    6.2657    5.8282   -2.9892 C   0  0  0  0  0  0  0  0  0  0  0  0
    5.5685    5.3365   -4.2405 C   0  0  0  0  0  0  0  0  0  0  0  0
    7.3141    5.0605   -2.4767 C   0  0  0  0  0  0  0  0  0  0  0  0
    8.0014    5.4703   -1.3322 C   0  0  0  0  0  0  0  0  0  0  0  0
    9.1550    4.7002   -0.7822 C   0  0  0  0  0  0  0  0  0  0  0  0
    7.6022    6.6125   -0.6461 C   0  0  0  0  0  0  0  0  0  0  0  0
    6.4754    7.3285   -1.0345 C   0  0  0  0  0  0  0  0  0  0  0  0
    6.1254    8.4605   -0.0829 C   0  0  0  0  0  0  0  0  0  0  0  0
   -0.1096    2.6253   -2.1259 C   0  0  0  0  0  0  0  0  0  0  0  0
    0.4702   -0.7015    0.4383 H   0  0  0  0  0  0  0  0  0  0  0  0
   -0.2311    0.8874    0.8860 H   0  0  0  0  0  0  0  0  0  0  0  0
    1.4642    0.7720    0.5963 H   0  0  0  0  0  0  0  0  0  0  0  0
    2.5719   -0.5972   -0.0763 H   0  0  0  0  0  0  0  0  0  0  0  0
    2.5494   -0.6526   -1.8601 H   0  0  0  0  0  0  0  0  0  0  0  0
    4.0483   -0.6500   -0.8714 H   0  0  0  0  0  0  0  0  0  0  0  0
    3.5749    3.5841   -1.7164 H   0  0  0  0  0  0  0  0  0  0  0  0
   -1.2228    4.3863   -3.9072 H   0  0  0  0  0  0  0  0  0  0  0  0
   -1.5932    4.9235   -2.2677 H   0  0  0  0  0  0  0  0  0  0  0  0
   -0.5856    6.4190   -4.4498 H   0  0  0  0  0  0  0  0  0  0  0  0
   -0.9830    6.9761   -2.8356 H   0  0  0  0  0  0  0  0  0  0  0  0
    3.7214    9.6695   -4.6188 H   0  0  0  0  0  0  0  0  0  0  0  0
    2.1115   10.2384   -4.1832 H   0  0  0  0  0  0  0  0  0  0  0  0
    3.6153   11.6598   -2.9615 H   0  0  0  0  0  0  0  0  0  0  0  0
    2.9210   10.5206   -1.7752 H   0  0  0  0  0  0  0  0  0  0  0  0
    4.9781    9.1906   -2.2197 H   0  0  0  0  0  0  0  0  0  0  0  0
    8.0216   10.6122   -1.9123 H   0  0  0  0  0  0  0  0  0  0  0  0
    7.2285    9.1239   -2.1954 H   0  0  0  0  0  0  0  0  0  0  0  0
    3.9168    5.5122   -2.0213 H   0  0  0  0  0  0  0  0  0  0  0  0
    6.2716    5.2048   -5.0656 H   0  0  0  0  0  0  0  0  0  0  0  0
    5.0749    4.3794   -4.0277 H   0  0  0  0  0  0  0  0  0  0  0  0
    4.7951    6.0140   -4.6119 H   0  0  0  0  0  0  0  0  0  0  0  0
    7.5975    4.1385   -2.9789 H   0  0  0  0  0  0  0  0  0  0  0  0
   10.0587    5.3163   -0.8143 H   0  0  0  0  0  0  0  0  0  0  0  0
    8.9377    4.4303    0.2566 H   0  0  0  0  0  0  0  0  0  0  0  0
    9.3261    3.7842   -1.3500 H   0  0  0  0  0  0  0  0  0  0  0  0
    8.1754    6.9536    0.2153 H   0  0  0  0  0  0  0  0  0  0  0  0
    5.8816    8.0864    0.9128 H   0  0  0  0  0  0  0  0  0  0  0  0
    6.9864    9.1355    0.0398 H   0  0  0  0  0  0  0  0  0  0  0  0
    5.2663    9.0588   -0.3587 H   0  0  0  0  0  0  0  0  0  0  0  0
   -1.1531    2.3344   -2.2240 H   0  0  0  0  0  0  0  0  0  0  0  0
  1  2  1  0  0  0  0
  1 36  1  0  0  0  0
  1 37  1  0  0  0  0
  1 38  1  0  0  0  0
  2  3  1  0  0  0  0
  3  4  2  0  0  0  0
  3 35  1  0  0  0  0
  4  5  1  0  0  0  0
  4  7  1  0  0  0  0
  5  6  1  0  0  0  0
  6 39  1  0  0  0  0
  6 40  1  0  0  0  0
  6 41  1  0  0  0  0
  7  8  2  0  0  0  0
  7 42  1  0  0  0  0
  8  9  1  0  0  0  0
  8 24  1  0  0  0  0
  9 10  1  0  0  0  0
  9 35  2  0  0  0  0
 10 11  1  0  0  0  0
 10 43  1  0  0  0  0
 10 44  1  0  0  0  0
 11 12  1  0  0  0  0
 11 45  1  0  0  0  0
 11 46  1  0  0  0  0
 12 13  1  0  0  0  0
 12 24  1  0  0  0  0
 13 14  2  0  0  0  0
 13 15  1  0  0  0  0
 15 16  1  0  0  0  0
 15 22  1  0  0  0  0
 16 17  1  0  0  0  0
 16 47  1  0  0  0  0
 16 48  1  0  0  0  0
 17 18  1  0  0  0  0
 17 49  1  0  0  0  0
 17 50  1  0  0  0  0
 18 19  1  0  0  0  0
 18 51  1  0  0  0  0
 19 20  1  0  0  0  0
 19 21  2  0  0  0  0
 20 52  1  0  0  0  0
 20 53  1  0  0  0  0
 22 23  1  0  0  0  0
 22 25  2  0  0  0  0
 23 24  2  0  0  0  0
 23 54  1  0  0  0  0
 25 26  1  0  0  0  0
 26 27  2  0  0  0  0
 26 33  1  0  0  0  0
 27 28  1  0  0  0  0
 27 29  1  0  0  0  0
 28 55  1  0  0  0  0
 28 56  1  0  0  0  0
 28 57  1  0  0  0  0
 29 30  2  0  0  0  0
 29 58  1  0  0  0  0
 30 31  1  0  0  0  0
 30 32  1  0  0  0  0
 31 59  1  0  0  0  0
 31 60  1  0  0  0  0
 31 61  1  0  0  0  0
 32 33  2  0  0  0  0
 32 62  1  0  0  0  0
 33 34  1  0  0  0  0
 34 63  1  0  0  0  0
 34 64  1  0  0  0  0
 34 65  1  0  0  0  0
 35 66  1  0  0  0  0
M  END
>  <DRUGBANK_ID>
DB16157

>  <COMMON_NAME>
Ensifentrine

>  <CAS_NUMBER>
1884461-72-6

>  <UNII>
3E3D8T1GIX

>  <SYNONYMS>
Ensifentrine

$$$$
