243
 OpenBabel10282417103D

 64 66  0  0  1  0  0  0  0  0999 V2000
    0.8606   -0.7021   -1.2476 O   0  0  0  0  0  0  0  0  0  0  0  0
    0.4396   -2.9022    1.1212 O   0  0  0  0  0  0  0  0  0  0  0  0
    6.0575    0.4370   -2.7608 O   0  0  0  0  0  0  0  0  0  0  0  0
   -0.6191    0.2571    1.1797 O   0  0  0  0  0  0  0  0  0  0  0  0
    2.6277   -0.7910   -2.8821 N   0  0  0  0  0  0  0  0  0  0  0  0
    3.6940    2.5072   -1.5806 N   0  0  0  0  0  0  0  0  0  0  0  0
    5.4255   -0.3982   -0.6378 N   0  0  0  0  0  0  0  0  0  0  0  0
    3.2973   -0.4138   -1.5481 C   0  0  0  0  0  0  0  0  0  0  0  0
    3.0286    0.4378   -3.6561 C   0  0  0  0  0  0  0  0  0  0  0  0
    3.5884    1.5117   -0.5607 C   0  0  0  0  0  0  0  0  0  0  0  0
    2.9139    2.1093   -3.0695 C   0  0  0  0  0  0  0  0  0  0  0  0
    1.1194   -1.2548   -2.9589 C   0  0  0  0  0  0  0  0  0  0  0  0
    5.1064    2.1550   -1.3835 C   0  0  0  0  0  0  0  0  0  0  0  0
    0.4041   -1.8525   -1.6902 C   0  0  3  0  0  0  0  0  0  0  0  0
    0.9099   -2.8920   -0.5201 C   0  0  0  0  0  0  0  0  0  0  0  0
    5.5915    0.6827   -1.6415 C   0  0  0  0  0  0  0  0  0  0  0  0
    4.2782   -0.5660    0.4616 C   0  0  0  0  0  0  0  0  0  0  0  0
    0.3381   -1.8902    2.2109 C   0  0  0  0  0  0  0  0  0  0  0  0
    2.6942   -0.0031    0.4596 C   0  0  0  0  0  0  0  0  0  0  0  0
    4.5360   -1.5251    1.4005 C   0  0  0  0  0  0  0  0  0  0  0  0
    2.3562    0.3494    1.6308 C   0  0  0  0  0  0  0  0  0  0  0  0
    3.7403   -1.4938    2.4900 C   0  0  0  0  0  0  0  0  0  0  0  0
   -0.1084   -0.4579    2.2113 C   0  0  0  0  0  0  0  0  0  0  0  0
    1.7058    1.0195   -0.9896 C   0  0  0  0  0  0  0  0  0  0  0  0
    5.6171   -2.5036    1.3113 C   0  0  0  0  0  0  0  0  0  0  0  0
    0.7426   -2.2278    3.4769 C   0  0  0  0  0  0  0  0  0  0  0  0
    2.8980   -0.4159    2.6324 C   0  0  0  0  0  0  0  0  0  0  0  0
    0.1005    0.5702    3.1688 C   0  0  0  0  0  0  0  0  0  0  0  0
    0.7114   -1.2276    4.5528 C   0  0  0  0  0  0  0  0  0  0  0  0
    0.5349    0.1761    4.3784 C   0  0  0  0  0  0  0  0  0  0  0  0
   -0.6259   -0.6967    0.2525 C   0  0  0  0  0  0  0  0  0  0  0  0
    0.9833   -0.2846   -0.4052 H   0  0  0  0  0  0  0  0  0  0  0  0
    5.5128   -1.3221   -1.1418 H   0  0  0  0  0  0  0  0  0  0  0  0
    3.0123   -1.3423   -0.9263 H   0  0  0  0  0  0  0  0  0  0  0  0
    4.1673   -0.7335   -1.9732 H   0  0  0  0  0  0  0  0  0  0  0  0
    4.0999    0.2958   -3.7020 H   0  0  0  0  0  0  0  0  0  0  0  0
    2.5871    0.2840   -4.6274 H   0  0  0  0  0  0  0  0  0  0  0  0
    2.5917    2.0626    0.0918 H   0  0  0  0  0  0  0  0  0  0  0  0
    3.9259    1.6977    0.5677 H   0  0  0  0  0  0  0  0  0  0  0  0
    1.7684    2.2904   -3.0033 H   0  0  0  0  0  0  0  0  0  0  0  0
    3.2358    2.8614   -3.7703 H   0  0  0  0  0  0  0  0  0  0  0  0
    0.8107   -1.9305   -3.7369 H   0  0  0  0  0  0  0  0  0  0  0  0
    0.5755   -0.2916   -3.2305 H   0  0  0  0  0  0  0  0  0  0  0  0
    5.4899    2.8632   -2.0629 H   0  0  0  0  0  0  0  0  0  0  0  0
    5.4008    2.3325   -0.3220 H   0  0  0  0  0  0  0  0  0  0  0  0
   -0.6839   -1.6508   -1.7792 H   0  0  0  0  0  0  0  0  0  0  0  0
    0.5278   -3.8303   -0.9293 H   0  0  0  0  0  0  0  0  0  0  0  0
    1.9987   -2.9571   -0.4292 H   0  0  0  0  0  0  0  0  0  0  0  0
    1.6176    1.1153    1.6356 H   0  0  0  0  0  0  0  0  0  0  0  0
    3.7878   -2.1825    3.3247 H   0  0  0  0  0  0  0  0  0  0  0  0
    2.4368    1.0946   -1.7307 H   0  0  0  0  0  0  0  0  0  0  0  0
    1.4083    0.7268   -2.0048 H   0  0  0  0  0  0  0  0  0  0  0  0
    1.0893    1.8615   -0.8807 H   0  0  0  0  0  0  0  0  0  0  0  0
    5.4232   -3.1892    0.4803 H   0  0  0  0  0  0  0  0  0  0  0  0
    6.5132   -1.9055    1.1699 H   0  0  0  0  0  0  0  0  0  0  0  0
    5.6518   -3.0389    2.2620 H   0  0  0  0  0  0  0  0  0  0  0  0
    1.2647   -3.1679    3.6224 H   0  0  0  0  0  0  0  0  0  0  0  0
    2.4553   -0.3524    3.5756 H   0  0  0  0  0  0  0  0  0  0  0  0
    0.2438    1.6183    2.8147 H   0  0  0  0  0  0  0  0  0  0  0  0
    1.0487   -1.5194    5.5335 H   0  0  0  0  0  0  0  0  0  0  0  0
    0.9914    0.9385    5.0173 H   0  0  0  0  0  0  0  0  0  0  0  0
    0.4374   -1.1599    0.4288 H   0  0  0  0  0  0  0  0  0  0  0  0
   -1.1918   -1.6148    0.2253 H   0  0  0  0  0  0  0  0  0  0  0  0
   -0.8142   -0.0608   -0.6267 H   0  0  0  0  0  0  0  0  0  0  0  0
  1 14  1  0  0  0  0
  1 32  1  0  0  0  0
  2 15  1  0  0  0  0
  2 18  1  0  0  0  0
  3 16  2  0  0  0  0
  4 23  1  0  0  0  0
  4 31  1  0  0  0  0
  5  8  1  0  0  0  0
  5  9  1  0  0  0  0
  5 12  1  0  0  0  0
  6 10  1  0  0  0  0
  6 11  1  0  0  0  0
  6 13  1  0  0  0  0
  7 16  1  0  0  0  0
  7 17  1  0  0  0  0
  7 33  1  0  0  0  0
  8 10  1  0  0  0  0
  8 34  1  0  0  0  0
  8 35  1  0  0  0  0
  9 11  1  0  0  0  0
  9 36  1  0  0  0  0
  9 37  1  0  0  0  0
 10 38  1  0  0  0  0
 10 39  1  0  0  0  0
 11 40  1  0  0  0  0
 11 41  1  0  0  0  0
 12 14  1  0  0  0  0
 12 42  1  0  0  0  0
 12 43  1  0  0  0  0
 13 16  1  0  0  0  0
 13 44  1  0  0  0  0
 13 45  1  0  0  0  0
 14 15  1  0  0  0  0
 14 46  1  0  0  0  0
 15 47  1  0  0  0  0
 15 48  1  0  0  0  0
 17 19  2  0  0  0  0
 17 20  1  0  0  0  0
 18 23  1  0  0  0  0
 18 26  2  0  0  0  0
 19 21  1  0  0  0  0
 19 24  1  0  0  0  0
 20 22  2  0  0  0  0
 20 25  1  0  0  0  0
 21 27  2  0  0  0  0
 21 49  1  0  0  0  0
 22 27  1  0  0  0  0
 22 50  1  0  0  0  0
 23 28  2  0  0  0  0
 24 51  1  0  0  0  0
 24 52  1  0  0  0  0
 24 53  1  0  0  0  0
 25 54  1  0  0  0  0
 25 55  1  0  0  0  0
 25 56  1  0  0  0  0
 26 29  1  0  0  0  0
 26 57  1  0  0  0  0
 27 58  1  0  0  0  0
 28 30  1  0  0  0  0
 28 59  1  0  0  0  0
 29 30  2  0  0  0  0
 29 60  1  0  0  0  0
 30 61  1  0  0  0  0
 31 62  1  0  0  0  0
 31 63  1  0  0  0  0
 31 64  1  0  0  0  0
M  END
>  <DRUGBANK_ID>
DB00243

>  <SECONDARY_ACCESSION_NUMBERS>
APRD01300

>  <COMMON_NAME>
Ranolazine

>  <CAS_NUMBER>
95635-55-5

>  <UNII>
A6IEZ5M406

>  <SYNONYMS>
Ranolazina; Ranolazine

$$$$
