DVP
 OpenBabel10282417163D

 56 59  0  0  0  0  0  0  0  0999 V2000
    1.0617    0.0133   -0.1247 C   0  0  0  0  0  0  0  0  0  0  0  0
    0.5878    0.4989   -1.3897 O   0  0  0  0  0  0  0  0  0  0  0  0
    0.9964    1.7686   -1.6515 C   0  0  0  0  0  0  0  0  0  0  0  0
    1.7047    2.4191   -0.8841 O   0  0  0  0  0  0  0  0  0  0  0  0
    0.4841    2.2876   -2.9920 C   0  0  0  0  0  0  0  0  0  0  0  0
    1.5820    2.2507   -4.0677 C   0  0  0  0  0  0  0  0  0  0  0  0
    2.6648    3.3074   -3.8145 C   0  0  0  0  0  0  0  0  0  0  0  0
   -0.0523    3.7203   -2.8363 C   0  0  0  0  0  0  0  0  0  0  0  0
    1.0666    4.7352   -2.6076 C   0  0  0  0  0  0  0  0  0  0  0  0
    2.0650    4.6372   -3.6635 N   0  0  0  0  0  0  0  0  0  0  0  0
    2.4206    5.6721   -4.5265 C   0  0  0  0  0  0  0  0  0  0  0  0
    3.2035    5.5285   -5.4646 O   0  0  0  0  0  0  0  0  0  0  0  0
    1.8283    7.0251   -4.3394 C   0  0  0  0  0  0  0  0  0  0  0  0
    2.0024    7.7464   -3.1559 C   0  0  0  0  0  0  0  0  0  0  0  0
    1.4810    9.0487   -3.0344 C   0  0  0  0  0  0  0  0  0  0  0  0
    1.1859    7.6363   -5.4120 C   0  0  0  0  0  0  0  0  0  0  0  0
    0.7363    8.9583   -5.2992 C   0  0  0  0  0  0  0  0  0  0  0  0
    0.8026    9.6717   -4.0961 C   0  0  0  0  0  0  0  0  0  0  0  0
    0.3336   10.9739   -3.9568 N   0  0  0  0  0  0  0  0  0  0  0  0
   -0.5140   11.6404   -4.9516 C   0  0  0  0  0  0  0  0  0  0  0  0
   -1.9600   11.8249   -4.5271 C   0  0  0  0  0  0  0  0  0  0  0  0
   -2.5121   13.0873   -4.4012 C   0  0  0  0  0  0  0  0  0  0  0  0
   -3.8171   13.3057   -4.0795 N   0  0  0  0  0  0  0  0  0  0  0  0
   -4.6154   12.2434   -3.8811 C   0  0  0  0  0  0  0  0  0  0  0  0
   -5.8918   12.4527   -3.5437 N   0  0  0  0  0  0  0  0  0  0  0  0
   -6.6715   11.3901   -3.3481 C   0  0  0  0  0  0  0  0  0  0  0  0
   -7.9741   11.6077   -2.9938 N   0  0  0  0  0  0  0  0  0  0  0  0
   -6.2659   10.1276   -3.4750 N   0  0  0  0  0  0  0  0  0  0  0  0
   -4.9784    9.9388   -3.8175 C   0  0  0  0  0  0  0  0  0  0  0  0
   -4.5545    8.6237   -3.9735 N   0  0  0  0  0  0  0  0  0  0  0  0
   -4.0688   10.9675   -4.0353 C   0  0  0  0  0  0  0  0  0  0  0  0
   -2.7518   10.7411   -4.3634 N   0  0  0  0  0  0  0  0  0  0  0  0
    0.6922   -1.0045    0.0240 H   0  0  0  0  0  0  0  0  0  0  0  0
    0.6871    0.6372    0.6956 H   0  0  0  0  0  0  0  0  0  0  0  0
    2.1573   -0.0125   -0.1086 H   0  0  0  0  0  0  0  0  0  0  0  0
   -0.3512    1.6484   -3.3091 H   0  0  0  0  0  0  0  0  0  0  0  0
    2.0323    1.2531   -4.1233 H   0  0  0  0  0  0  0  0  0  0  0  0
    1.1248    2.4515   -5.0471 H   0  0  0  0  0  0  0  0  0  0  0  0
    3.2004    3.0792   -2.8860 H   0  0  0  0  0  0  0  0  0  0  0  0
    3.4068    3.2872   -4.6193 H   0  0  0  0  0  0  0  0  0  0  0  0
   -0.5874    4.0007   -3.7546 H   0  0  0  0  0  0  0  0  0  0  0  0
   -0.7704    3.7786   -2.0119 H   0  0  0  0  0  0  0  0  0  0  0  0
    0.6215    5.7260   -2.5439 H   0  0  0  0  0  0  0  0  0  0  0  0
    1.5907    4.5733   -1.6625 H   0  0  0  0  0  0  0  0  0  0  0  0
    2.5401    7.2978   -2.3245 H   0  0  0  0  0  0  0  0  0  0  0  0
    1.6319    9.5738   -2.0931 H   0  0  0  0  0  0  0  0  0  0  0  0
    1.0419    7.1072   -6.3506 H   0  0  0  0  0  0  0  0  0  0  0  0
    0.3469    9.4105   -6.2030 H   0  0  0  0  0  0  0  0  0  0  0  0
    0.2383   11.3128   -3.0044 H   0  0  0  0  0  0  0  0  0  0  0  0
   -0.0577   12.6151   -5.1584 H   0  0  0  0  0  0  0  0  0  0  0  0
   -0.5354   11.1320   -5.9175 H   0  0  0  0  0  0  0  0  0  0  0  0
   -1.9239   13.9853   -4.5669 H   0  0  0  0  0  0  0  0  0  0  0  0
   -8.5758   10.8153   -2.8457 H   0  0  0  0  0  0  0  0  0  0  0  0
   -8.2977   12.5552   -2.8956 H   0  0  0  0  0  0  0  0  0  0  0  0
   -3.5766    8.4720   -4.1936 H   0  0  0  0  0  0  0  0  0  0  0  0
   -5.1928    7.8678   -3.7904 H   0  0  0  0  0  0  0  0  0  0  0  0
  1  2  1  0  0  0  0
  1 33  1  0  0  0  0
  1 34  1  0  0  0  0
  1 35  1  0  0  0  0
  2  3  1  0  0  0  0
  3  4  2  0  0  0  0
  3  5  1  0  0  0  0
  5  6  1  0  0  0  0
  5  8  1  0  0  0  0
  5 36  1  0  0  0  0
  6  7  1  0  0  0  0
  6 37  1  0  0  0  0
  6 38  1  0  0  0  0
  7 10  1  0  0  0  0
  7 39  1  0  0  0  0
  7 40  1  0  0  0  0
  8  9  1  0  0  0  0
  8 41  1  0  0  0  0
  8 42  1  0  0  0  0
  9 10  1  0  0  0  0
  9 43  1  0  0  0  0
  9 44  1  0  0  0  0
 10 11  1  0  0  0  0
 11 12  2  0  0  0  0
 11 13  1  0  0  0  0
 13 14  1  0  0  0  0
 13 16  2  0  0  0  0
 14 15  2  0  0  0  0
 14 45  1  0  0  0  0
 15 18  1  0  0  0  0
 15 46  1  0  0  0  0
 16 17  1  0  0  0  0
 16 47  1  0  0  0  0
 17 18  2  0  0  0  0
 17 48  1  0  0  0  0
 18 19  1  0  0  0  0
 19 20  1  0  0  0  0
 19 49  1  0  0  0  0
 20 21  1  0  0  0  0
 20 50  1  0  0  0  0
 20 51  1  0  0  0  0
 21 22  1  0  0  0  0
 21 32  2  0  0  0  0
 22 23  2  0  0  0  0
 22 52  1  0  0  0  0
 23 24  1  0  0  0  0
 24 25  1  0  0  0  0
 24 31  2  0  0  0  0
 25 26  2  0  0  0  0
 26 27  1  0  0  0  0
 26 28  1  0  0  0  0
 27 53  1  0  0  0  0
 27 54  1  0  0  0  0
 28 29  2  0  0  0  0
 29 30  1  0  0  0  0
 29 31  1  0  0  0  0
 30 55  1  0  0  0  0
 30 56  1  0  0  0  0
 31 32  1  0  0  0  0
M  END
>  <DRUGBANK_ID>
DB07689

>  <COMMON_NAME>
METHYL 1-(4-{[(2,4-DIAMINOPTERIDIN-6-YL)METHYL]AMINO}BENZOYL)PIPERIDINE-4-CARBOXYLATE

$$$$
