
 OpenBabel10282417203D

 29 30  0  0  0  0  0  0  0  0999 V2000
    1.4237   -0.2393   -0.0562 C   0  0  0  0  0  0  0  0  0  0  0  0
    0.5320   -1.2718   -0.3644 C   0  0  0  0  0  0  0  0  0  0  0  0
    2.7380   -0.2698    0.3368 O   0  0  0  0  0  0  0  0  0  0  0  0
    0.8987    1.0733   -0.0039 C   0  0  0  0  0  0  0  0  0  0  0  0
   -0.8479   -1.0274   -0.1972 C   0  0  0  0  0  0  0  0  0  0  0  0
    0.7057   -2.5505   -0.8281 O   0  0  0  0  0  0  0  0  0  0  0  0
    3.3776   -1.4854    0.7402 C   0  0  0  0  0  0  0  0  0  0  0  0
   -0.4802    1.3179    0.0253 C   0  0  0  0  0  0  0  0  0  0  0  0
   -1.3601    0.2519   -0.0215 C   0  0  0  0  0  0  0  0  0  0  0  0
    1.9617   -3.0845   -1.1350 C   0  0  0  0  0  0  0  0  0  0  0  0
    2.6829   -2.4245    1.8879 C   0  0  3  0  0  0  0  0  0  0  0  0
    2.9697   -3.9477    1.8217 C   0  0  0  0  0  0  0  0  0  0  0  0
    1.2284   -2.4180    2.0012 O   0  0  0  0  0  0  0  0  0  0  0  0
    1.7019   -4.5480    1.5231 N   0  0  0  0  0  0  0  0  0  0  0  0
    0.6876   -3.6354    1.6400 C   0  0  0  0  0  0  0  0  0  0  0  0
   -0.4673   -3.8647    1.3752 O   0  0  0  0  0  0  0  0  0  0  0  0
    1.5731    1.9277    0.0307 H   0  0  0  0  0  0  0  0  0  0  0  0
   -1.5340   -1.8748   -0.1922 H   0  0  0  0  0  0  0  0  0  0  0  0
    3.7362   -1.9292   -0.1976 H   0  0  0  0  0  0  0  0  0  0  0  0
    4.3883   -1.2370    1.1046 H   0  0  0  0  0  0  0  0  0  0  0  0
   -0.8647    2.3287    0.1303 H   0  0  0  0  0  0  0  0  0  0  0  0
   -2.4349    0.4026    0.0258 H   0  0  0  0  0  0  0  0  0  0  0  0
    2.5157   -2.5242   -1.8824 H   0  0  0  0  0  0  0  0  0  0  0  0
    2.5090   -3.1184   -0.2373 H   0  0  0  0  0  0  0  0  0  0  0  0
    1.9605   -4.1663   -1.2941 H   0  0  0  0  0  0  0  0  0  0  0  0
    3.0453   -2.0198    2.8361 H   0  0  0  0  0  0  0  0  0  0  0  0
    3.2555   -4.3639    2.7903 H   0  0  0  0  0  0  0  0  0  0  0  0
    3.7043   -4.2503    1.0716 H   0  0  0  0  0  0  0  0  0  0  0  0
    1.5097   -5.3640    0.9480 H   0  0  0  0  0  0  0  0  0  0  0  0
  1  2  2  0  0  0  0
  1  3  1  0  0  0  0
  1  4  1  0  0  0  0
  2  5  1  0  0  0  0
  2  6  1  0  0  0  0
  3  7  1  0  0  0  0
  4  8  2  0  0  0  0
  4 17  1  0  0  0  0
  5  9  2  0  0  0  0
  5 18  1  0  0  0  0
  6 10  1  0  0  0  0
  7 11  1  0  0  0  0
  7 19  1  0  0  0  0
  7 20  1  0  0  0  0
  8  9  1  0  0  0  0
  8 21  1  0  0  0  0
  9 22  1  0  0  0  0
 10 23  1  0  0  0  0
 10 24  1  0  0  0  0
 10 25  1  0  0  0  0
 11 12  1  0  0  0  0
 11 13  1  0  0  0  0
 11 26  1  0  0  0  0
 12 14  1  0  0  0  0
 12 27  1  0  0  0  0
 12 28  1  0  0  0  0
 13 15  1  0  0  0  0
 14 15  1  0  0  0  0
 14 29  1  0  0  0  0
 15 16  2  0  0  0  0
M  END
>  <DRUGBANK_ID>
DB13754

>  <COMMON_NAME>
Mephenoxalone

>  <CAS_NUMBER>
70-07-5

>  <UNII>
CZ87T54W8W

>  <SYNONYMS>
Mefenoxalona; Mephenoxalone; Mephenoxalonum

$$$$
