
 OpenBabel10282417183D

 77 80  0  0  0  0  0  0  0  0999 V2000
    4.7572   -4.0737   -0.2154 O   0  0  0  0  0  0  0  0  0  0  0  0
   10.8603   -3.7757   -0.4305 O   0  0  0  0  0  0  0  0  0  0  0  0
   11.6401   -1.0215   -2.0727 O   0  0  0  0  0  0  0  0  0  0  0  0
    9.9166   -0.1968   -3.0694 O   0  0  0  0  0  0  0  0  0  0  0  0
   10.5889    0.3316    1.7572 O   0  0  0  0  0  0  0  0  0  0  0  0
    4.9375   -1.9528   -1.1132 N   0  0  0  0  0  0  0  0  0  0  0  0
    2.1040   -1.6373   -1.3606 N   0  0  0  0  0  0  0  0  0  0  0  0
    2.1153    0.5421   -0.9694 N   0  0  0  0  0  0  0  0  0  0  0  0
    2.6110   -3.1416    1.3852 N   0  0  0  0  0  0  0  0  0  0  0  0
    9.3982    2.2103    2.0653 N   0  0  0  0  0  0  0  0  0  0  0  0
    4.4032   -0.5644   -1.1737 C   0  0  2  0  0  0  0  0  0  0  0  0
    2.8831   -0.5809   -1.2044 C   0  0  0  0  0  0  0  0  0  0  0  0
    4.5551   -2.8594   -0.1028 C   0  0  0  0  0  0  0  0  0  0  0  0
    5.6358   -2.5291   -2.2863 C   0  0  0  0  0  0  0  0  0  0  0  0
    3.8361   -2.3422    1.1765 C   0  0  2  0  0  0  0  0  0  0  0  0
    0.8177   -1.1775   -1.2998 C   0  0  0  0  0  0  0  0  0  0  0  0
    7.0816   -2.9095   -2.0115 C   0  0  0  0  0  0  0  0  0  0  0  0
    5.9309   -1.5731    2.3897 C   0  0  0  0  0  0  0  0  0  0  0  0
    4.6929   -2.4403    2.4407 C   0  0  0  0  0  0  0  0  0  0  0  0
    9.4658   -2.2236   -1.8803 C   0  0  0  0  0  0  0  0  0  0  0  0
    5.8453   -0.1774    2.5018 C   0  0  0  0  0  0  0  0  0  0  0  0
    7.1887   -2.1552    2.1939 C   0  0  0  0  0  0  0  0  0  0  0  0
    0.7998    0.1760   -1.0533 C   0  0  0  0  0  0  0  0  0  0  0  0
   -0.3563   -2.0102   -1.4312 C   0  0  0  0  0  0  0  0  0  0  0  0
    8.1286   -2.0252   -2.3165 C   0  0  0  0  0  0  0  0  0  0  0  0
    9.7396   -3.3675   -1.1037 C   0  0  0  0  0  0  0  0  0  0  0  0
    8.2673    0.0313    2.2026 C   0  0  0  0  0  0  0  0  0  0  0  0
    7.4137   -4.1008   -1.3793 C   0  0  0  0  0  0  0  0  0  0  0  0
    7.0119    0.6061    2.4217 C   0  0  0  0  0  0  0  0  0  0  0  0
    8.3510   -1.3580    2.1168 C   0  0  0  0  0  0  0  0  0  0  0  0
    4.9069    0.2824   -2.3472 C   0  0  0  0  0  0  0  0  0  0  0  0
    8.7110   -4.3006   -0.8956 C   0  0  0  0  0  0  0  0  0  0  0  0
   10.4455   -1.1530   -2.2851 C   0  0  0  0  0  0  0  0  0  0  0  0
   -0.5845   -3.0676   -0.5438 C   0  0  0  0  0  0  0  0  0  0  0  0
   -1.3109   -1.7261   -2.4122 C   0  0  0  0  0  0  0  0  0  0  0  0
    9.5039    0.8463    2.0000 C   0  0  0  0  0  0  0  0  0  0  0  0
    4.5331    0.5290    2.6847 C   0  0  0  0  0  0  0  0  0  0  0  0
    7.3114   -3.5920    1.8167 C   0  0  0  0  0  0  0  0  0  0  0  0
   -1.7628   -3.8113   -0.6131 C   0  0  0  0  0  0  0  0  0  0  0  0
   -2.5108   -2.4384   -2.4500 C   0  0  0  0  0  0  0  0  0  0  0  0
   -2.7273   -3.4936   -1.5647 C   0  0  0  0  0  0  0  0  0  0  0  0
   12.0756   -3.1423   -0.7540 C   0  0  0  0  0  0  0  0  0  0  0  0
   10.7375    0.3231   -3.2259 H   0  0  0  0  0  0  0  0  0  0  0  0
    2.4568    1.4748   -0.7765 H   0  0  0  0  0  0  0  0  0  0  0  0
    2.0545   -2.7385    2.1311 H   0  0  0  0  0  0  0  0  0  0  0  0
    2.0847   -3.0532    0.5127 H   0  0  0  0  0  0  0  0  0  0  0  0
    8.5517    2.7210    2.2496 H   0  0  0  0  0  0  0  0  0  0  0  0
   10.2459    2.7446    1.9256 H   0  0  0  0  0  0  0  0  0  0  0  0
    4.7328   -0.0685   -0.2534 H   0  0  0  0  0  0  0  0  0  0  0  0
    5.0667   -3.3832   -2.6671 H   0  0  0  0  0  0  0  0  0  0  0  0
    5.6614   -1.8186   -3.1132 H   0  0  0  0  0  0  0  0  0  0  0  0
    3.5107   -1.3183    1.0412 H   0  0  0  0  0  0  0  0  0  0  0  0
    4.1206   -2.1334    3.3250 H   0  0  0  0  0  0  0  0  0  0  0  0
    4.9231   -3.4836    2.6723 H   0  0  0  0  0  0  0  0  0  0  0  0
   -0.0117    0.8783   -0.9195 H   0  0  0  0  0  0  0  0  0  0  0  0
    7.8865   -1.1457   -2.9082 H   0  0  0  0  0  0  0  0  0  0  0  0
    6.6458   -4.8167   -1.0921 H   0  0  0  0  0  0  0  0  0  0  0  0
    6.9054    1.6771    2.5385 H   0  0  0  0  0  0  0  0  0  0  0  0
    9.3164   -1.8347    1.9333 H   0  0  0  0  0  0  0  0  0  0  0  0
    4.5487    1.3154   -2.2881 H   0  0  0  0  0  0  0  0  0  0  0  0
    5.9999    0.3117   -2.3686 H   0  0  0  0  0  0  0  0  0  0  0  0
    4.5409   -0.1155   -3.3016 H   0  0  0  0  0  0  0  0  0  0  0  0
    8.8648   -5.1099   -0.1747 H   0  0  0  0  0  0  0  0  0  0  0  0
    0.1362   -3.3203    0.2234 H   0  0  0  0  0  0  0  0  0  0  0  0
   -1.1231   -0.9511   -3.1508 H   0  0  0  0  0  0  0  0  0  0  0  0
    4.5322    1.0612    3.6356 H   0  0  0  0  0  0  0  0  0  0  0  0
    4.3639    1.2156    1.8494 H   0  0  0  0  0  0  0  0  0  0  0  0
    3.6766   -0.1445    2.7125 H   0  0  0  0  0  0  0  0  0  0  0  0
    7.6409   -3.4668    0.8124 H   0  0  0  0  0  0  0  0  0  0  0  0
    8.0466   -4.1654    2.3753 H   0  0  0  0  0  0  0  0  0  0  0  0
    6.3996   -4.1782    1.7096 H   0  0  0  0  0  0  0  0  0  0  0  0
   -1.9298   -4.6247    0.0885 H   0  0  0  0  0  0  0  0  0  0  0  0
   -3.2808   -2.1643   -3.1651 H   0  0  0  0  0  0  0  0  0  0  0  0
   -3.6450   -4.0724   -1.6201 H   0  0  0  0  0  0  0  0  0  0  0  0
   12.2131   -3.1531   -1.8399 H   0  0  0  0  0  0  0  0  0  0  0  0
   12.0914   -2.1564   -0.2824 H   0  0  0  0  0  0  0  0  0  0  0  0
   12.9184   -3.6949   -0.3376 H   0  0  0  0  0  0  0  0  0  0  0  0
  1 13  2  0  0  0  0
  2 26  1  0  0  0  0
  2 42  1  0  0  0  0
  3 33  2  0  0  0  0
  4 33  1  0  0  0  0
  4 43  1  0  0  0  0
  5 36  2  0  0  0  0
  6 13  1  0  0  0  0
  6 14  1  0  0  0  0
  7 12  2  0  0  0  0
  7 16  1  0  0  0  0
  8 12  1  0  0  0  0
  8 23  1  0  0  0  0
  8 44  1  0  0  0  0
  9 45  1  0  0  0  0
  9 46  1  0  0  0  0
 10 36  1  0  0  0  0
 10 47  1  0  0  0  0
 10 48  1  0  0  0  0
 11 31  1  0  0  0  0
 11 49  1  1  0  0  0
 11 12  1  0  0  0  0
 11  6  1  0  0  0  0
 13 15  1  0  0  0  0
 14 17  1  0  0  0  0
 14 50  1  0  0  0  0
 14 51  1  0  0  0  0
 15  9  1  0  0  0  0
 15 19  1  0  0  0  0
 15 52  1  6  0  0  0
 16 23  2  0  0  0  0
 16 24  1  0  0  0  0
 17 25  1  0  0  0  0
 17 28  2  0  0  0  0
 18 19  1  0  0  0  0
 18 21  2  0  0  0  0
 18 22  1  0  0  0  0
 19 53  1  0  0  0  0
 19 54  1  0  0  0  0
 20 25  2  0  0  0  0
 20 26  1  0  0  0  0
 20 33  1  0  0  0  0
 21 29  1  0  0  0  0
 21 37  1  0  0  0  0
 22 30  2  0  0  0  0
 22 38  1  0  0  0  0
 23 55  1  0  0  0  0
 24 34  2  0  0  0  0
 24 35  1  0  0  0  0
 25 56  1  0  0  0  0
 26 32  2  0  0  0  0
 27 29  2  0  0  0  0
 27 30  1  0  0  0  0
 27 36  1  0  0  0  0
 28 32  1  0  0  0  0
 28 57  1  0  0  0  0
 29 58  1  0  0  0  0
 30 59  1  0  0  0  0
 31 60  1  0  0  0  0
 31 61  1  0  0  0  0
 31 62  1  0  0  0  0
 32 63  1  0  0  0  0
 34 39  1  0  0  0  0
 34 64  1  0  0  0  0
 35 40  2  0  0  0  0
 35 65  1  0  0  0  0
 37 66  1  0  0  0  0
 37 67  1  0  0  0  0
 37 68  1  0  0  0  0
 38 69  1  0  0  0  0
 38 70  1  0  0  0  0
 38 71  1  0  0  0  0
 39 41  2  0  0  0  0
 39 72  1  0  0  0  0
 40 41  1  0  0  0  0
 40 73  1  0  0  0  0
 41 74  1  0  0  0  0
 42 75  1  0  0  0  0
 42 76  1  0  0  0  0
 42 77  1  0  0  0  0
M  END
>  <DRUGBANK_ID>
DB09272

>  <COMMON_NAME>
Eluxadoline

>  <CAS_NUMBER>
864821-90-9

>  <UNII>
45TPJ4MBQ1

>  <SYNONYMS>
5-({(4-carbamoyl-2,6-dimethyl-L-phenylalanyl)[(1S)-1-(4-phenyl-1H-imidazol-2-yl)ethyl]amino}methyl)-2-methoxybenzoic acid; Eluxadoline

$$$$
