
 OpenBabel10282417193D

 64 67  0  0  1  0  0  0  0  0999 V2000
    3.0081    2.8170   -1.1046 C   0  0  0  0  0  0  0  0  0  0  0  0
    2.5659    2.7892   -2.5453 C   0  0  0  0  0  0  0  0  0  0  0  0
    1.6203    3.9104   -3.0156 C   0  0  0  0  0  0  0  0  0  0  0  0
    2.2515    5.2944   -2.7572 C   0  0  0  0  0  0  0  0  0  0  0  0
    3.5336    5.5304   -3.5530 C   0  0  0  0  0  0  0  0  0  0  0  0
    1.2137    3.7546   -4.5108 C   0  0  0  0  0  0  0  0  0  0  0  0
    0.7009    2.4436   -4.8297 O   0  0  0  0  0  0  0  0  0  0  0  0
    1.7026    1.5514   -5.0838 C   0  0  0  0  0  0  0  0  0  0  0  0
    2.8838    1.8174   -5.0267 O   0  0  0  0  0  0  0  0  0  0  0  0
    1.2627    0.1260   -5.3542 C   0  0  2  0  0  0  0  0  0  0  0  0
    2.5502   -0.6615   -5.6613 C   0  0  0  0  0  0  0  0  0  0  0  0
    2.3363   -2.1381   -6.0039 C   0  0  1  0  0  0  0  0  0  0  0  0
    1.9418   -2.8938   -4.7210 C   0  0  0  0  0  0  0  0  0  0  0  0
    0.7934   -3.9093   -4.7134 C   0  0  2  0  0  0  0  0  0  0  0  0
    0.3588   -4.4432   -6.0734 C   0  0  0  0  0  0  0  0  0  0  0  0
    0.9608   -3.7450   -7.3037 C   0  0  0  0  0  0  0  0  0  0  0  0
    1.3374   -2.2576   -7.1468 C   0  0  1  0  0  0  0  0  0  0  0  0
    0.1395   -1.3888   -6.8369 C   0  0  0  0  0  0  0  0  0  0  0  0
    0.3125    0.0076   -6.4619 N   0  0  0  0  0  0  0  0  0  0  0  0
   -0.3179   -3.5182   -3.8068 O   0  0  0  0  0  0  0  0  0  0  0  0
   -1.1613   -2.4519   -4.0854 C   0  0  0  0  0  0  0  0  0  0  0  0
   -2.0523   -2.4926   -5.1937 C   0  0  0  0  0  0  0  0  0  0  0  0
   -2.6745   -1.3351   -5.6877 C   0  0  0  0  0  0  0  0  0  0  0  0
   -2.5486   -0.1459   -4.9952 C   0  0  0  0  0  0  0  0  0  0  0  0
   -1.8254   -0.1238   -3.7931 C   0  0  0  0  0  0  0  0  0  0  0  0
   -1.1057   -1.2629   -3.3134 C   0  0  0  0  0  0  0  0  0  0  0  0
   -0.3106   -1.1419   -2.0775 C   0  0  0  0  0  0  0  0  0  0  0  0
    1.0565   -1.1423   -1.9365 N   0  0  0  0  0  0  0  0  0  0  0  0
    1.4118   -0.9635   -0.6627 N   0  0  0  0  0  0  0  0  0  0  0  0
    0.2731   -0.7830   -0.0213 N   0  0  0  0  0  0  0  0  0  0  0  0
   -0.7946   -0.8720   -0.8791 N   0  0  0  0  0  0  0  0  0  0  0  0
   -1.7378    1.4238   -3.0115 Cl  0  0  0  0  0  0  0  0  0  0  0  0
    3.5486    3.7312   -0.8547 H   0  0  0  0  0  0  0  0  0  0  0  0
    3.6920    1.9766   -0.9435 H   0  0  0  0  0  0  0  0  0  0  0  0
    2.1429    2.6982   -0.4513 H   0  0  0  0  0  0  0  0  0  0  0  0
    3.4796    2.8070   -3.1457 H   0  0  0  0  0  0  0  0  0  0  0  0
    2.0722    1.8231   -2.6762 H   0  0  0  0  0  0  0  0  0  0  0  0
    0.7015    3.8257   -2.4196 H   0  0  0  0  0  0  0  0  0  0  0  0
    1.5285    6.0855   -2.9850 H   0  0  0  0  0  0  0  0  0  0  0  0
    2.4765    5.4013   -1.6899 H   0  0  0  0  0  0  0  0  0  0  0  0
    3.3362    5.5440   -4.6280 H   0  0  0  0  0  0  0  0  0  0  0  0
    3.9817    6.4902   -3.2874 H   0  0  0  0  0  0  0  0  0  0  0  0
    4.2848    4.7589   -3.3592 H   0  0  0  0  0  0  0  0  0  0  0  0
    0.4434    4.4946   -4.7630 H   0  0  0  0  0  0  0  0  0  0  0  0
    2.0482    3.9691   -5.1877 H   0  0  0  0  0  0  0  0  0  0  0  0
    0.8369   -0.2375   -4.4232 H   0  0  0  0  0  0  0  0  0  0  0  0
    3.0413   -0.1640   -6.5043 H   0  0  0  0  0  0  0  0  0  0  0  0
    3.2288   -0.5975   -4.8002 H   0  0  0  0  0  0  0  0  0  0  0  0
    3.2975   -2.5345   -6.3528 H   0  0  0  0  0  0  0  0  0  0  0  0
    1.6519   -2.1630   -3.9993 H   0  0  0  0  0  0  0  0  0  0  0  0
    2.8570   -3.3302   -4.2951 H   0  0  0  0  0  0  0  0  0  0  0  0
    1.2245   -4.7798   -4.1904 H   0  0  0  0  0  0  0  0  0  0  0  0
   -0.7196   -4.4549   -6.1390 H   0  0  0  0  0  0  0  0  0  0  0  0
    0.5780   -5.5182   -6.1366 H   0  0  0  0  0  0  0  0  0  0  0  0
    0.2607   -3.8639   -8.1384 H   0  0  0  0  0  0  0  0  0  0  0  0
    1.8732   -4.2880   -7.5763 H   0  0  0  0  0  0  0  0  0  0  0  0
    1.7695   -1.8810   -8.0803 H   0  0  0  0  0  0  0  0  0  0  0  0
   -0.1514   -1.8290   -5.9219 H   0  0  0  0  0  0  0  0  0  0  0  0
   -0.6764   -1.5278   -7.5489 H   0  0  0  0  0  0  0  0  0  0  0  0
    0.5957    0.5749   -7.2517 H   0  0  0  0  0  0  0  0  0  0  0  0
   -2.1188   -3.3386   -5.8645 H   0  0  0  0  0  0  0  0  0  0  0  0
   -3.1015   -1.3351   -6.6926 H   0  0  0  0  0  0  0  0  0  0  0  0
   -2.9443    0.7689   -5.4356 H   0  0  0  0  0  0  0  0  0  0  0  0
    1.8119   -1.1886   -2.6006 H   0  0  0  0  0  0  0  0  0  0  0  0
  1  2  1  0  0  0  0
  1 33  1  0  0  0  0
  1 34  1  0  0  0  0
  1 35  1  0  0  0  0
  2  3  1  0  0  0  0
  2 36  1  0  0  0  0
  2 37  1  0  0  0  0
  3  4  1  0  0  0  0
  3  6  1  0  0  0  0
  3 38  1  0  0  0  0
  4  5  1  0  0  0  0
  4 39  1  0  0  0  0
  4 40  1  0  0  0  0
  5 41  1  0  0  0  0
  5 42  1  0  0  0  0
  5 43  1  0  0  0  0
  6  7  1  0  0  0  0
  6 44  1  0  0  0  0
  6 45  1  0  0  0  0
  7  8  1  0  0  0  0
  8  9  2  0  0  0  0
 10 11  1  0  0  0  0
 10 19  1  0  0  0  0
 10 46  1  1  0  0  0
 10  8  1  0  0  0  0
 11 47  1  0  0  0  0
 11 48  1  0  0  0  0
 12 11  1  0  0  0  0
 12 13  1  0  0  0  0
 12 17  1  0  0  0  0
 12 49  1  6  0  0  0
 13 14  1  0  0  0  0
 13 50  1  0  0  0  0
 13 51  1  0  0  0  0
 14 15  1  0  0  0  0
 14 20  1  0  0  0  0
 14 52  1  1  0  0  0
 15 16  1  0  0  0  0
 15 53  1  0  0  0  0
 15 54  1  0  0  0  0
 16 55  1  0  0  0  0
 16 56  1  0  0  0  0
 17 16  1  0  0  0  0
 17 18  1  0  0  0  0
 17 57  1  6  0  0  0
 18 19  1  0  0  0  0
 18 58  1  0  0  0  0
 18 59  1  0  0  0  0
 19 60  1  0  0  0  0
 20 21  1  0  0  0  0
 21 22  2  0  0  0  0
 21 26  1  0  0  0  0
 22 23  1  0  0  0  0
 22 61  1  0  0  0  0
 23 24  2  0  0  0  0
 23 62  1  0  0  0  0
 24 25  1  0  0  0  0
 24 63  1  0  0  0  0
 25 26  2  0  0  0  0
 25 32  1  0  0  0  0
 26 27  1  0  0  0  0
 27 28  1  0  0  0  0
 27 31  2  0  0  0  0
 28 29  1  0  0  0  0
 28 64  1  0  0  0  0
 29 30  2  0  0  0  0
 30 31  1  0  0  0  0
M  END
>  <DRUGBANK_ID>
DB12049

>  <COMMON_NAME>
Dasolampanel etibutil

>  <CAS_NUMBER>
503291-52-9

>  <UNII>
M7BFC308LR

>  <SYNONYMS>
Dasolampanel etibutil

$$$$
