
 OpenBabel10282417153D

 63 62  0  0  0  0  0  0  0  0999 V2000
   -1.8910   -1.4080   -0.3820 C   0  0  0  0  0  0  0  0  0  0  0  0
   -2.8180   -0.2810    0.0080 C   0  0  0  0  0  0  0  0  0  0  0  0
    0.2620   -2.4290   -0.0350 C   0  0  0  0  0  0  0  0  0  0  0  0
    1.2380   -1.4550   -0.6670 C   0  0  0  0  0  0  0  0  0  0  0  0
   -1.2380    1.4550    0.6670 C   0  0  0  0  0  0  0  0  0  0  0  0
   -0.2620    2.4290    0.0350 C   0  0  0  0  0  0  0  0  0  0  0  0
    2.8180    0.2810   -0.0080 C   0  0  0  0  0  0  0  0  0  0  0  0
    1.8910    1.4080    0.3820 C   0  0  0  0  0  0  0  0  0  0  0  0
   -1.4458   -2.6298    1.6328 C   0  0  0  0  0  0  0  0  0  0  0  0
   -3.3795    2.0181   -0.2249 C   0  0  0  0  0  0  0  0  0  0  0  0
    1.7058   -1.0299    1.6357 C   0  0  0  0  0  0  0  0  0  0  0  0
    1.4458    2.6298   -1.6328 C   0  0  0  0  0  0  0  0  0  0  0  0
   -0.8630   -1.7460    0.6130 N   0  0  0  0  0  0  0  0  0  0  0  0
   -2.2810    1.0430   -0.2820 N   0  0  0  0  0  0  0  0  0  0  0  0
    2.2810   -1.0430    0.2830 N   0  0  0  0  0  0  0  0  0  0  0  0
    0.8630    1.7460   -0.6130 N   0  0  0  0  0  0  0  0  0  0  0  0
   -3.5798   -3.4334    0.5641 O   0  5  0  0  0  0  0  0  0  0  0  0
   -0.7908   -4.0353   -0.3515 O   0  5  0  0  0  0  0  0  0  0  0  0
   -2.5397   -5.4711    0.1686 O   0  0  0  0  0  0  0  0  0  0  0  0
   -5.4961    2.8308    0.8711 O   0  0  0  0  0  0  0  0  0  0  0  0
   -3.9766    0.3407    1.5559 O   0  0  0  0  0  0  0  0  0  0  0  0
   -4.6448    2.1072    2.9063 O   0  0  0  0  0  0  0  0  0  0  0  0
    0.8175    0.6753    3.2621 O   0  0  0  0  0  0  0  0  0  0  0  0
    0.9182    0.9401    0.2791 O   0  0  0  0  0  0  0  0  0  0  0  0
   -0.8719    1.1511    1.7424 O   0  0  0  0  0  0  0  0  0  0  0  0
    3.3315    4.2579   -2.0005 O   0  0  0  0  0  0  0  0  0  0  0  0
    0.5370    4.9288   -1.1524 O   0  0  0  0  0  0  0  0  0  0  0  0
    2.5703    5.4566   -0.1637 O   0  0  0  0  0  0  0  0  0  0  0  0
   -2.0383   -4.1689    0.8397 P   0  0  0  0  0  0  0  0  0  0  0  0
   -4.0649    2.0664    1.4712 P   0  0  0  0  0  0  0  0  0  0  0  0
    0.3095    0.1515    1.6935 P   0  0  0  0  0  0  0  0  0  0  0  0
    2.0549    4.1610   -0.8370 P   0  0  0  0  0  0  0  0  0  0  0  0
    1.0345    0.0938   -0.0043 Ho  0  2  0  0  0  0  0  0  0  0  0  0
   -1.3642   -1.0719   -1.2506 H   0  0  0  0  0  0  0  0  0  0  0  0
   -2.4853   -2.2811   -0.5535 H   0  0  0  0  0  0  0  0  0  0  0  0
   -3.7094   -0.3924   -0.5733 H   0  0  0  0  0  0  0  0  0  0  0  0
   -3.0069   -0.3467    1.0591 H   0  0  0  0  0  0  0  0  0  0  0  0
    0.7883   -2.9795    0.7165 H   0  0  0  0  0  0  0  0  0  0  0  0
   -0.1205   -3.0761   -0.7965 H   0  0  0  0  0  0  0  0  0  0  0  0
    0.6947   -0.5834   -0.9671 H   0  0  0  0  0  0  0  0  0  0  0  0
    1.7012   -1.9247   -1.5094 H   0  0  0  0  0  0  0  0  0  0  0  0
   -1.7110    1.9435    1.4932 H   0  0  0  0  0  0  0  0  0  0  0  0
   -0.7020    0.5879    0.9920 H   0  0  0  0  0  0  0  0  0  0  0  0
   -0.7883    2.9795   -0.7165 H   0  0  0  0  0  0  0  0  0  0  0  0
    0.1205    3.0761    0.7965 H   0  0  0  0  0  0  0  0  0  0  0  0
    2.9540    0.3387   -1.0677 H   0  0  0  0  0  0  0  0  0  0  0  0
    3.7372    0.3984    0.5270 H   0  0  0  0  0  0  0  0  0  0  0  0
    2.5063    2.2779    0.4803 H   0  0  0  0  0  0  0  0  0  0  0  0
    1.3954    1.1301    1.2887 H   0  0  0  0  0  0  0  0  0  0  0  0
   -0.7025   -2.8689    2.3645 H   0  0  0  0  0  0  0  0  0  0  0  0
   -2.2668   -2.1342    2.1073 H   0  0  0  0  0  0  0  0  0  0  0  0
   -3.0102    2.9873   -0.4881 H   0  0  0  0  0  0  0  0  0  0  0  0
   -4.1477    1.7306   -0.9120 H   0  0  0  0  0  0  0  0  0  0  0  0
    1.3545   -2.0097    1.8834 H   0  0  0  0  0  0  0  0  0  0  0  0
    2.4550   -0.7313    2.3390 H   0  0  0  0  0  0  0  0  0  0  0  0
    2.2600    2.1301   -2.1147 H   0  0  0  0  0  0  0  0  0  0  0  0
    0.6996    2.8776   -2.3586 H   0  0  0  0  0  0  0  0  0  0  0  0
   -5.3772    3.8235    0.8909 H   0  0  0  0  0  0  0  0  0  0  0  0
   -3.6065   -0.0166    0.6984 H   0  0  0  0  0  0  0  0  0  0  0  0
    0.3725    0.1152    3.9609 H   0  0  0  0  0  0  0  0  0  0  0  0
    1.7549    0.4833   -0.0232 H   0  0  0  0  0  0  0  0  0  0  0  0
    4.1310    3.7630   -1.6601 H   0  0  0  0  0  0  0  0  0  0  0  0
   -0.0693    4.2878   -1.6232 H   0  0  0  0  0  0  0  0  0  0  0  0
  1 34  1  0  0  0  0
  1 35  1  0  0  0  0
  2  1  1  0  0  0  0
  2 36  1  0  0  0  0
  2 37  1  0  0  0  0
  3 38  1  0  0  0  0
  3 39  1  0  0  0  0
  4  3  1  0  0  0  0
  4 40  1  0  0  0  0
  4 41  1  0  0  0  0
  5 42  1  0  0  0  0
  5 43  1  0  0  0  0
  6  5  1  0  0  0  0
  6 44  1  0  0  0  0
  6 45  1  0  0  0  0
  7 46  1  0  0  0  0
  7 47  1  0  0  0  0
  8  7  1  0  0  0  0
  8 48  1  0  0  0  0
  8 49  1  0  0  0  0
  9 50  1  0  0  0  0
  9 51  1  0  0  0  0
 10 52  1  0  0  0  0
 10 53  1  0  0  0  0
 11 54  1  0  0  0  0
 11 55  1  0  0  0  0
 12 56  1  0  0  0  0
 12 57  1  0  0  0  0
 13  1  1  0  0  0  0
 13  3  1  0  0  0  0
 13  9  1  0  0  0  0
 14  2  1  0  0  0  0
 14  5  1  0  0  0  0
 14 10  1  0  0  0  0
 15  4  1  0  0  0  0
 15  7  1  0  0  0  0
 15 11  1  0  0  0  0
 16  6  1  0  0  0  0
 16  8  1  0  0  0  0
 16 12  1  0  0  0  0
 20 58  1  0  0  0  0
 21 59  1  0  0  0  0
 23 60  1  0  0  0  0
 24 61  1  0  0  0  0
 26 62  1  0  0  0  0
 27 63  1  0  0  0  0
 29  9  1  0  0  0  0
 29 17  1  0  0  0  0
 29 18  1  0  0  0  0
 29 19  2  0  0  0  0
 30 10  1  0  0  0  0
 30 20  1  0  0  0  0
 30 21  1  0  0  0  0
 30 22  2  0  0  0  0
 31 11  1  0  0  0  0
 31 23  1  0  0  0  0
 31 24  1  0  0  0  0
 31 25  2  0  0  0  0
 32 12  1  0  0  0  0
 32 26  1  0  0  0  0
 32 27  1  0  0  0  0
 32 28  2  0  0  0  0
M  ISO  1  33 166
M  CHG  3  17  -1  18  -1  33   2
M  END
>  <DRUGBANK_ID>
DB05380

>  <COMMON_NAME>
DOTMP HO-166

>  <CAS_NUMBER>
633308-23-3

>  <UNII>
9F972459OC

>  <SYNONYMS>
166Ho-DOTMP; Chelating agent delivering Holmium-166; Holmium Ho-166 DOTMP; Holmium-166 DOTMP

$$$$
