P55
 OpenBabel10282417173D

 46 49  0  0  0  0  0  0  0  0999 V2000
    1.5347   -1.0560   -0.0837 N   0  0  0  0  0  0  0  0  0  0  0  0
    2.2950    0.0316   -0.0220 C   0  0  0  0  0  0  0  0  0  0  0  0
    1.5226    1.2022   -0.0048 C   0  0  0  0  0  0  0  0  0  0  0  0
    0.2059    0.7857   -0.0149 C   0  0  0  0  0  0  0  0  0  0  0  0
    0.2694   -0.5848   -0.0205 N   0  0  0  0  0  0  0  0  0  0  0  0
   -1.0051    1.4015   -0.0304 N   0  0  0  0  0  0  0  0  0  0  0  0
   -2.0780    0.6481    0.0258 C   0  0  0  0  0  0  0  0  0  0  0  0
   -2.0485   -0.7329    0.0869 N   0  0  0  0  0  0  0  0  0  0  0  0
   -0.9043   -1.3665    0.0370 C   0  0  0  0  0  0  0  0  0  0  0  0
   -0.8915   -2.7523    0.0167 N   0  0  0  0  0  0  0  0  0  0  0  0
    0.2273   -3.5981    0.0401 C   0  0  0  0  0  0  0  0  0  0  0  0
    1.1576   -3.5245    1.0859 C   0  0  0  0  0  0  0  0  0  0  0  0
    2.3552   -4.2365    1.0359 C   0  0  0  0  0  0  0  0  0  0  0  0
    2.6126   -5.0800   -0.0391 C   0  0  0  0  0  0  0  0  0  0  0  0
    1.6727   -5.2083   -1.0609 C   0  0  0  0  0  0  0  0  0  0  0  0
    0.4823   -4.4735   -1.0215 C   0  0  0  0  0  0  0  0  0  0  0  0
   -3.3188    1.2246   -0.0559 N   0  0  0  0  0  0  0  0  0  0  0  0
   -3.6243    2.1344   -1.1651 C   0  0  0  0  0  0  0  0  0  0  0  0
   -5.0480    1.8866   -1.7108 C   0  0  0  0  0  0  0  0  0  0  0  0
   -6.1123    1.8593   -0.6871 N   0  0  0  0  0  0  0  0  0  0  0  0
   -5.7532    0.8485    0.3310 C   0  0  0  0  0  0  0  0  0  0  0  0
   -4.3538    1.0143    0.9660 C   0  0  0  0  0  0  0  0  0  0  0  0
   -6.4513    3.1876   -0.1398 C   0  0  0  0  0  0  0  0  0  0  0  0
   -5.4023    3.9870    0.6307 C   0  0  0  0  0  0  0  0  0  0  0  0
    2.0243    2.5344    0.0038 C   0  0  0  0  0  0  0  0  0  0  0  0
    2.4955    3.5881    0.0041 N   0  0  0  0  0  0  0  0  0  0  0  0
    3.3726   -0.0916   -0.0108 H   0  0  0  0  0  0  0  0  0  0  0  0
   -1.7886   -3.2109   -0.0759 H   0  0  0  0  0  0  0  0  0  0  0  0
    0.9909   -2.8325    1.9082 H   0  0  0  0  0  0  0  0  0  0  0  0
    3.0954   -4.0992    1.8186 H   0  0  0  0  0  0  0  0  0  0  0  0
    3.5494   -5.6281   -0.0858 H   0  0  0  0  0  0  0  0  0  0  0  0
    1.8826   -5.8616   -1.9037 H   0  0  0  0  0  0  0  0  0  0  0  0
   -0.2081   -4.5495   -1.8575 H   0  0  0  0  0  0  0  0  0  0  0  0
   -3.4771    3.1623   -0.8575 H   0  0  0  0  0  0  0  0  0  0  0  0
   -2.9069    2.0302   -1.9862 H   0  0  0  0  0  0  0  0  0  0  0  0
   -5.0437    0.9086   -2.2177 H   0  0  0  0  0  0  0  0  0  0  0  0
   -5.3049    2.6096   -2.4939 H   0  0  0  0  0  0  0  0  0  0  0  0
   -5.7690   -0.1389   -0.1544 H   0  0  0  0  0  0  0  0  0  0  0  0
   -6.5391    0.8017    1.0952 H   0  0  0  0  0  0  0  0  0  0  0  0
   -4.1391    0.1650    1.6233 H   0  0  0  0  0  0  0  0  0  0  0  0
   -4.3452    1.8428    1.6696 H   0  0  0  0  0  0  0  0  0  0  0  0
   -6.7979    3.8171   -0.9693 H   0  0  0  0  0  0  0  0  0  0  0  0
   -7.3219    3.0717    0.5172 H   0  0  0  0  0  0  0  0  0  0  0  0
   -4.5563    4.2668    0.0144 H   0  0  0  0  0  0  0  0  0  0  0  0
   -5.7805    4.9385    0.9987 H   0  0  0  0  0  0  0  0  0  0  0  0
   -5.0643    3.4732    1.5223 H   0  0  0  0  0  0  0  0  0  0  0  0
  1  2  2  0  0  0  0
  1  5  1  0  0  0  0
  2  3  1  0  0  0  0
  2 27  1  0  0  0  0
  3 25  1  0  0  0  0
  3  4  2  0  0  0  0
  4  6  1  0  0  0  0
  4  5  1  0  0  0  0
  5  9  1  0  0  0  0
  6  7  2  0  0  0  0
  7 17  1  0  0  0  0
  7  8  1  0  0  0  0
  8  9  2  0  0  0  0
  9 10  1  0  0  0  0
 10 11  1  0  0  0  0
 10 28  1  0  0  0  0
 11 12  2  0  0  0  0
 11 16  1  0  0  0  0
 12 13  1  0  0  0  0
 12 29  1  0  0  0  0
 13 14  2  0  0  0  0
 13 30  1  0  0  0  0
 14 15  1  0  0  0  0
 14 31  1  0  0  0  0
 15 16  2  0  0  0  0
 15 32  1  0  0  0  0
 16 33  1  0  0  0  0
 17 22  1  0  0  0  0
 17 18  1  0  0  0  0
 18 19  1  0  0  0  0
 18 34  1  0  0  0  0
 18 35  1  0  0  0  0
 19 20  1  0  0  0  0
 19 36  1  0  0  0  0
 19 37  1  0  0  0  0
 20 21  1  0  0  0  0
 20 23  1  0  0  0  0
 21 22  1  0  0  0  0
 21 38  1  0  0  0  0
 21 39  1  0  0  0  0
 22 40  1  0  0  0  0
 22 41  1  0  0  0  0
 23 24  1  0  0  0  0
 23 42  1  0  0  0  0
 23 43  1  0  0  0  0
 24 44  1  0  0  0  0
 24 45  1  0  0  0  0
 24 46  1  0  0  0  0
 25 26  3  0  0  0  0
M  END
>  <DRUGBANK_ID>
DB08360

>  <COMMON_NAME>
2-(4-ETHYLPIPERAZIN-1-YL)-4-(PHENYLAMINO)PYRAZOLO[1,5-A][1,3,5]TRIAZINE-8-CARBONITRILE

$$$$
