
 OpenBabel10282417213D

 77 83  0  0  0  0  0  0  0  0999 V2000
   -2.5882    1.7324   -0.1970 C   0  0  0  0  0  0  0  0  0  0  0  0
   -1.7818    0.5703   -0.2717 N   0  0  0  0  0  0  0  0  0  0  0  0
   -2.1608   -0.7201   -0.3150 C   0  0  0  0  0  0  0  0  0  0  0  0
   -1.2691   -1.4659   -0.8445 N   0  0  0  0  0  0  0  0  0  0  0  0
   -0.2355   -0.9863   -0.0991 C   0  0  0  0  0  0  0  0  0  0  0  0
   -0.4948    0.5399   -0.7112 C   0  0  0  0  0  0  0  0  0  0  0  0
    0.5935    1.6045   -1.0402 C   0  0  0  0  0  0  0  0  0  0  0  0
    2.2242    1.0519   -1.1252 C   0  0  0  0  0  0  0  0  0  0  0  0
    2.9795    2.6469   -0.3593 C   0  0  0  0  0  0  0  0  0  0  0  0
    4.2710    3.0803    0.2072 C   0  0  0  0  0  0  0  0  0  0  0  0
    5.5554    4.0024    0.1522 C   0  0  0  0  0  0  0  0  0  0  0  0
    6.9294    3.6716   -0.0617 O   0  0  0  0  0  0  0  0  0  0  0  0
    5.2945    5.1641   -0.0683 O   0  0  0  0  0  0  0  0  0  0  0  0
    2.8011   -0.7013   -0.5600 C   0  0  0  0  0  0  0  0  0  0  0  0
    1.5843   -1.7536    0.4301 C   0  0  0  0  0  0  0  0  0  0  0  0
   -3.3542   -1.4422    0.0329 C   0  0  0  0  0  0  0  0  0  0  0  0
   -4.2144   -1.0863   -1.2297 C   0  0  0  0  0  0  0  0  0  0  0  0
   -5.3940   -0.9260   -0.2749 C   0  0  0  0  0  0  0  0  0  0  0  0
   -4.3961   -0.7409    0.8990 C   0  0  0  0  0  0  0  0  0  0  0  0
   -2.9983   -2.8961    0.3848 N   0  0  0  0  0  0  0  0  0  0  0  0
   -1.7497   -3.5390    0.6702 C   0  0  0  0  0  0  0  0  0  0  0  0
   -1.6264   -4.7628    0.7220 O   0  0  0  0  0  0  0  0  0  0  0  0
   -0.4339   -2.8900    0.8576 C   0  0  0  0  0  0  0  0  0  0  0  0
   -0.4319   -1.5383    1.9814 C   0  0  0  0  0  0  0  0  0  0  0  0
    0.6019   -0.2262    1.7898 C   0  0  0  0  0  0  0  0  0  0  0  0
    1.2906    0.0171    0.3141 C   0  0  0  0  0  0  0  0  0  0  0  0
    1.1263   -1.3070   -1.2945 C   0  0  0  0  0  0  0  0  0  0  0  0
    0.3455   -2.9074   -0.7375 C   0  0  0  0  0  0  0  0  0  0  0  0
    2.6733    0.7578    0.9885 C   0  0  0  0  0  0  0  0  0  0  0  0
    4.2119    0.7531   -0.2196 C   0  0  0  0  0  0  0  0  0  0  0  0
    5.2611    0.7021    0.8297 C   0  0  0  0  0  0  0  0  0  0  0  0
    6.3742    1.2784   -0.0623 C   0  0  0  0  0  0  0  0  0  0  0  0
    5.8201    2.0408   -1.7119 C   0  0  0  0  0  0  0  0  0  0  0  0
    4.3385    1.8344   -1.8275 C   0  0  0  0  0  0  0  0  0  0  0  0
    1.8903    1.7304    1.7231 C   0  0  0  0  0  0  0  0  0  0  0  0
    0.6800    1.1238    2.0823 N   0  0  0  0  0  0  0  0  0  0  0  0
   -0.4554    1.9022    2.4647 C   0  0  0  0  0  0  0  0  0  0  0  0
    1.9927    3.2240    1.9083 C   0  0  0  0  0  0  0  0  0  0  0  0
    2.4949    3.4215    3.0782 N   0  0  0  0  0  0  0  0  0  0  0  0
    3.1027    4.5967    3.1587 C   0  0  0  0  0  0  0  0  0  0  0  0
    3.4117    5.4839    2.1412 C   0  0  0  0  0  0  0  0  0  0  0  0
    4.4728    6.9723    2.4968 Br  0  0  0  0  0  0  0  0  0  0  0  0
    2.8008    5.2447    0.9571 C   0  0  0  0  0  0  0  0  0  0  0  0
    1.8937    4.2190    0.9286 N   0  0  0  0  0  0  0  0  0  0  0  0
   -2.4504    2.3540    0.6802 H   0  0  0  0  0  0  0  0  0  0  0  0
   -2.3280    2.2924   -1.0793 H   0  0  0  0  0  0  0  0  0  0  0  0
   -3.6187    1.4340   -0.1912 H   0  0  0  0  0  0  0  0  0  0  0  0
    0.3730    2.5395   -0.4063 H   0  0  0  0  0  0  0  0  0  0  0  0
    2.3725    3.3977   -0.7939 H   0  0  0  0  0  0  0  0  0  0  0  0
    4.9155    2.3658   -0.0008 H   0  0  0  0  0  0  0  0  0  0  0  0
    7.5446    2.8802   -0.1695 H   0  0  0  0  0  0  0  0  0  0  0  0
    3.6722   -1.1189   -0.0390 H   0  0  0  0  0  0  0  0  0  0  0  0
    2.0585   -2.7442    0.5579 H   0  0  0  0  0  0  0  0  0  0  0  0
   -3.9027   -0.1441   -1.7431 H   0  0  0  0  0  0  0  0  0  0  0  0
   -4.2470   -1.8152   -2.0385 H   0  0  0  0  0  0  0  0  0  0  0  0
   -6.0790   -0.1001   -0.4770 H   0  0  0  0  0  0  0  0  0  0  0  0
   -5.9546   -1.8569   -0.2251 H   0  0  0  0  0  0  0  0  0  0  0  0
   -4.6385   -1.1912    1.8616 H   0  0  0  0  0  0  0  0  0  0  0  0
   -4.1673    0.2922    1.1729 H   0  0  0  0  0  0  0  0  0  0  0  0
   -3.7359   -3.5790    0.3216 H   0  0  0  0  0  0  0  0  0  0  0  0
   -1.4620   -1.0889    2.0810 H   0  0  0  0  0  0  0  0  0  0  0  0
    2.1076   -1.9833   -1.6903 H   0  0  0  0  0  0  0  0  0  0  0  0
    0.6700   -3.8949   -1.0889 H   0  0  0  0  0  0  0  0  0  0  0  0
    4.5299   -0.0696   -0.9482 H   0  0  0  0  0  0  0  0  0  0  0  0
    4.8842    1.3357    1.7079 H   0  0  0  0  0  0  0  0  0  0  0  0
    5.4083   -0.2762    1.2791 H   0  0  0  0  0  0  0  0  0  0  0  0
    6.6890    1.9287    0.8190 H   0  0  0  0  0  0  0  0  0  0  0  0
    7.1424    0.5953   -0.3341 H   0  0  0  0  0  0  0  0  0  0  0  0
    5.9143    3.1657   -1.8753 H   0  0  0  0  0  0  0  0  0  0  0  0
    6.2202    1.5683   -2.5828 H   0  0  0  0  0  0  0  0  0  0  0  0
    3.5901    1.7287   -2.6798 H   0  0  0  0  0  0  0  0  0  0  0  0
    4.0061    2.9751   -1.8831 H   0  0  0  0  0  0  0  0  0  0  0  0
   -1.1734    1.8685    1.6829 H   0  0  0  0  0  0  0  0  0  0  0  0
   -0.8604    1.4052    3.3240 H   0  0  0  0  0  0  0  0  0  0  0  0
   -0.2011    2.9540    2.5562 H   0  0  0  0  0  0  0  0  0  0  0  0
    3.3002    4.8001    4.1844 H   0  0  0  0  0  0  0  0  0  0  0  0
    3.1386    5.7225    0.0068 H   0  0  0  0  0  0  0  0  0  0  0  0
  1  2  1  0  0  0  0
  1 45  1  0  0  0  0
  1 46  1  0  0  0  0
  1 47  1  0  0  0  0
  2  3  1  0  0  0  0
  2  6  1  0  0  0  0
  3  4  2  0  0  0  0
  3 16  1  0  0  0  0
  4  5  1  0  0  0  0
  5  6  2  0  0  0  0
  5 15  1  0  0  0  0
  6  7  1  0  0  0  0
  7  8  2  0  0  0  0
  7 48  1  0  0  0  0
  8  9  1  0  0  0  0
  8 14  1  0  0  0  0
  9 10  2  0  0  0  0
  9 49  1  0  0  0  0
 10 11  1  0  0  0  0
 10 50  1  0  0  0  0
 11 12  1  0  0  0  0
 11 13  2  0  0  0  0
 12 51  1  0  0  0  0
 14 15  2  0  0  0  0
 14 52  1  0  0  0  0
 15 53  1  0  0  0  0
 16 17  1  0  0  0  0
 16 19  1  0  0  0  0
 16 20  1  0  0  0  0
 17 18  1  0  0  0  0
 17 54  1  0  0  0  0
 17 55  1  0  0  0  0
 18 19  1  0  0  0  0
 18 56  1  0  0  0  0
 18 57  1  0  0  0  0
 19 58  1  0  0  0  0
 19 59  1  0  0  0  0
 20 21  1  0  0  0  0
 20 60  1  0  0  0  0
 21 22  2  0  0  0  0
 21 23  1  0  0  0  0
 23 24  2  0  0  0  0
 23 28  1  0  0  0  0
 24 25  1  0  0  0  0
 24 61  1  0  0  0  0
 25 26  2  0  0  0  0
 25 36  1  0  0  0  0
 26 27  1  0  0  0  0
 26 29  1  0  0  0  0
 27 28  2  0  0  0  0
 27 62  1  0  0  0  0
 28 63  1  0  0  0  0
 29 30  1  0  0  0  0
 29 35  2  0  0  0  0
 30 31  1  0  0  0  0
 30 34  1  0  0  0  0
 30 64  1  0  0  0  0
 31 32  1  0  0  0  0
 31 65  1  0  0  0  0
 31 66  1  0  0  0  0
 32 33  1  0  0  0  0
 32 67  1  0  0  0  0
 32 68  1  0  0  0  0
 33 34  1  0  0  0  0
 33 69  1  0  0  0  0
 33 70  1  0  0  0  0
 34 71  1  0  0  0  0
 34 72  1  0  0  0  0
 35 36  1  0  0  0  0
 35 38  1  0  0  0  0
 36 37  1  0  0  0  0
 37 73  1  0  0  0  0
 37 74  1  0  0  0  0
 37 75  1  0  0  0  0
 38 39  2  0  0  0  0
 38 44  1  0  0  0  0
 39 40  1  0  0  0  0
 40 41  2  0  0  0  0
 40 76  1  0  0  0  0
 41 42  1  0  0  0  0
 41 43  1  0  0  0  0
 43 44  2  0  0  0  0
 43 77  1  0  0  0  0
M  END
>  <DRUGBANK_ID>
DB14850

>  <COMMON_NAME>
Deleobuvir

>  <CAS_NUMBER>
863884-77-9

>  <UNII>
58BU988K90

>  <SYNONYMS>
Deleobuvir

$$$$
