
 OpenBabel10282417123D

 92 98  0  0  1  0  0  0  0  0999 V2000
    1.4689   -0.2065   -0.4078 C   0  0  0  0  0  0  0  0  0  0  0  0
   -8.1945    1.6733    3.9740 C   0  0  0  0  0  0  0  0  0  0  0  0
    0.5948   -1.2899   -0.5151 C   0  0  0  0  0  0  0  0  0  0  0  0
    0.9879    1.0826   -0.2849 C   0  0  0  0  0  0  0  0  0  0  0  0
   -7.0578    1.1081    4.5061 C   0  0  0  0  0  0  0  0  0  0  0  0
   -8.1936    3.0330    3.6621 C   0  0  0  0  0  0  0  0  0  0  0  0
   -0.3721   -0.8978    5.3555 C   0  0  0  0  0  0  0  0  0  0  0  0
   -3.9295   -0.6596    7.4181 C   0  0  0  0  0  0  0  0  0  0  0  0
   -0.7792   -1.0722   -0.5418 C   0  0  0  0  0  0  0  0  0  0  0  0
   -0.3727    1.2937   -0.3302 C   0  0  0  0  0  0  0  0  0  0  0  0
   -5.9823    1.9357    4.8026 C   0  0  0  0  0  0  0  0  0  0  0  0
   -7.0183    3.7888    3.7426 C   0  0  0  0  0  0  0  0  0  0  0  0
   -1.3734   -1.0842    4.4015 C   0  0  0  0  0  0  0  0  0  0  0  0
   -3.4715   -0.0452    6.2771 C   0  0  0  0  0  0  0  0  0  0  0  0
    0.9300   -0.8403    4.9393 C   0  0  0  0  0  0  0  0  0  0  0  0
   -3.7737    0.0143    8.5936 C   0  0  0  0  0  0  0  0  0  0  0  0
    6.3938    0.4237    1.9591 C   0  0  0  0  0  0  0  0  0  0  0  0
   -4.6242    4.5539   12.8641 C   0  0  0  0  0  0  0  0  0  0  0  0
    7.1357   -0.3454    2.8313 C   0  0  0  0  0  0  0  0  0  0  0  0
   -4.3629    3.7152   13.9276 C   0  0  0  0  0  0  0  0  0  0  0  0
    0.1042   -1.1631    2.6775 C   0  0  0  0  0  0  0  0  0  0  0  0
   -2.4612    1.7410    7.4497 C   0  0  0  0  0  0  0  0  0  0  0  0
   -2.7485    0.5127   -0.3546 C   0  0  0  0  0  0  0  0  0  0  0  0
   -4.5609    3.9617    4.3915 C   0  0  0  0  0  0  0  0  0  0  0  0
   -2.4637   -0.9808    2.1878 C   0  0  0  0  0  0  0  0  0  0  0  0
   -2.1306    1.7766    4.9735 C   0  0  0  0  0  0  0  0  0  0  0  0
   -1.2763    0.2346   -0.4410 C   0  0  0  0  0  0  0  0  0  0  0  0
   -5.8881    3.2429    4.3364 C   0  0  0  0  0  0  0  0  0  0  0  0
   -1.2151   -1.1483    3.0478 C   0  0  0  0  0  0  0  0  0  0  0  0
   -2.6838    1.1301    6.2331 C   0  0  0  0  0  0  0  0  0  0  0  0
    1.1766   -0.9566    3.5825 C   0  0  0  0  0  0  0  0  0  0  0  0
   -3.1253    1.2588    8.5916 C   0  0  0  0  0  0  0  0  0  0  0  0
   -3.1971    1.1855    0.9520 C   0  0  2  0  0  0  0  0  0  0  0  0
   -3.4422    3.3407    3.5209 C   0  0  2  0  0  0  0  0  0  0  0  0
   -2.7172    2.6687    1.1560 C   0  0  1  0  0  0  0  0  0  0  0  0
   -3.6925    3.5007    1.9990 C   0  0  1  0  0  0  0  0  0  0  0  0
    2.5385   -0.8162    3.0032 C   0  0  0  0  0  0  0  0  0  0  0  0
   -3.2745    2.2168    9.7069 C   0  0  0  0  0  0  0  0  0  0  0  0
    4.7844   -0.2370    3.2831 C   0  0  0  0  0  0  0  0  0  0  0  0
   -4.2884    2.7030   11.7630 C   0  0  0  0  0  0  0  0  0  0  0  0
   -3.6243    0.8341    3.2427 C   0  0  0  0  0  0  0  0  0  0  0  0
    5.0403    0.4520    2.2014 N   0  0  0  0  0  0  0  0  0  0  0  0
   -4.5625    3.9716   11.6232 N   0  0  0  0  0  0  0  0  0  0  0  0
    3.5589   -0.4302    3.8576 N   0  0  0  0  0  0  0  0  0  0  0  0
   -4.0560    1.8099   10.7636 N   0  0  0  0  0  0  0  0  0  0  0  0
   -2.8483    0.4480    2.1786 N   0  0  0  0  0  0  0  0  0  0  0  0
   -3.1241    1.9479    3.9175 N   0  0  0  0  0  0  0  0  0  0  0  0
   -1.4465    2.7085    1.8373 O   0  0  0  0  0  0  0  0  0  0  0  0
   -5.0228    3.1823    1.6185 O   0  0  0  0  0  0  0  0  0  0  0  0
    2.7078   -1.1235    1.8521 O   0  0  0  0  0  0  0  0  0  0  0  0
   -2.6965    3.2957    9.6117 O   0  0  0  0  0  0  0  0  0  0  0  0
   -4.5321    0.0908    3.5901 O   0  0  0  0  0  0  0  0  0  0  0  0
    6.1101   -0.9591    4.0699 S   0  0  0  0  0  0  0  0  0  0  0  0
   -4.1687    2.1043   13.3515 S   0  0  0  0  0  0  0  0  0  0  0  0
   -4.2939    1.1906    0.8448 H   0  0  0  0  0  0  0  0  0  0  0  0
   -2.5285    3.9266    3.7289 H   0  0  0  0  0  0  0  0  0  0  0  0
   -2.6093    3.1624    0.1865 H   0  0  0  0  0  0  0  0  0  0  0  0
   -3.5379    4.5593    1.7506 H   0  0  0  0  0  0  0  0  0  0  0  0
    2.5336   -0.3740   -0.2840 H   0  0  0  0  0  0  0  0  0  0  0  0
   -9.0720    1.0564    3.8173 H   0  0  0  0  0  0  0  0  0  0  0  0
    0.9791   -2.2979   -0.3581 H   0  0  0  0  0  0  0  0  0  0  0  0
    1.6537    1.9214   -0.1138 H   0  0  0  0  0  0  0  0  0  0  0  0
   -6.9754    0.0372    4.6811 H   0  0  0  0  0  0  0  0  0  0  0  0
   -9.1115    3.5052    3.3339 H   0  0  0  0  0  0  0  0  0  0  0  0
   -0.6296   -0.6576    6.3830 H   0  0  0  0  0  0  0  0  0  0  0  0
   -4.4835   -1.5896    7.3236 H   0  0  0  0  0  0  0  0  0  0  0  0
   -1.4362   -1.9401   -0.4796 H   0  0  0  0  0  0  0  0  0  0  0  0
   -0.6995    2.3173   -0.2158 H   0  0  0  0  0  0  0  0  0  0  0  0
   -5.1328    1.4973    5.2970 H   0  0  0  0  0  0  0  0  0  0  0  0
   -6.9845    4.7847    3.3104 H   0  0  0  0  0  0  0  0  0  0  0  0
   -2.3918   -0.9927    4.6456 H   0  0  0  0  0  0  0  0  0  0  0  0
   -3.8319   -0.5838    5.4153 H   0  0  0  0  0  0  0  0  0  0  0  0
    1.6960   -0.6947    5.6853 H   0  0  0  0  0  0  0  0  0  0  0  0
   -4.2374   -0.4322    9.4582 H   0  0  0  0  0  0  0  0  0  0  0  0
    6.7881    0.9824    1.1198 H   0  0  0  0  0  0  0  0  0  0  0  0
   -4.8433    5.6110   12.9301 H   0  0  0  0  0  0  0  0  0  0  0  0
    8.1980   -0.5386    2.8110 H   0  0  0  0  0  0  0  0  0  0  0  0
   -4.3046    3.9691   14.9754 H   0  0  0  0  0  0  0  0  0  0  0  0
    0.3364   -1.3391    1.6596 H   0  0  0  0  0  0  0  0  0  0  0  0
   -1.8656    2.6524    7.4983 H   0  0  0  0  0  0  0  0  0  0  0  0
   -3.0441    1.1202   -1.2158 H   0  0  0  0  0  0  0  0  0  0  0  0
   -3.3233   -0.4219   -0.4543 H   0  0  0  0  0  0  0  0  0  0  0  0
   -4.2310    3.9692    5.4379 H   0  0  0  0  0  0  0  0  0  0  0  0
   -4.6840    5.0109    4.0971 H   0  0  0  0  0  0  0  0  0  0  0  0
   -3.2826   -1.6019    2.5836 H   0  0  0  0  0  0  0  0  0  0  0  0
   -2.3409   -1.3786    1.2012 H   0  0  0  0  0  0  0  0  0  0  0  0
   -1.2736    1.2668    4.5338 H   0  0  0  0  0  0  0  0  0  0  0  0
   -1.6672    2.7438    5.2189 H   0  0  0  0  0  0  0  0  0  0  0  0
    3.5143   -0.5966    4.8427 H   0  0  0  0  0  0  0  0  0  0  0  0
   -4.3565    0.8620   10.9042 H   0  0  0  0  0  0  0  0  0  0  0  0
   -1.4936    1.9620    2.4747 H   0  0  0  0  0  0  0  0  0  0  0  0
   -5.2963    2.4151    2.1648 H   0  0  0  0  0  0  0  0  0  0  0  0
  1 59  1  0  0  0  0
  2 60  1  0  0  0  0
  3  1  2  0  0  0  0
  3 61  1  0  0  0  0
  4  1  1  0  0  0  0
  4 62  1  0  0  0  0
  5  2  2  0  0  0  0
  5 63  1  0  0  0  0
  6  2  1  0  0  0  0
  6 64  1  0  0  0  0
  7 65  1  0  0  0  0
  8 66  1  0  0  0  0
  9  3  1  0  0  0  0
  9 67  1  0  0  0  0
 10  4  2  0  0  0  0
 10 68  1  0  0  0  0
 11  5  1  0  0  0  0
 11 69  1  0  0  0  0
 12  6  2  0  0  0  0
 12 70  1  0  0  0  0
 13  7  2  0  0  0  0
 13 71  1  0  0  0  0
 14  8  2  0  0  0  0
 14 72  1  0  0  0  0
 15  7  1  0  0  0  0
 15 73  1  0  0  0  0
 16  8  1  0  0  0  0
 16 74  1  0  0  0  0
 17 75  1  0  0  0  0
 18 76  1  0  0  0  0
 19 17  2  0  0  0  0
 19 77  1  0  0  0  0
 20 18  2  0  0  0  0
 20 78  1  0  0  0  0
 21 79  1  0  0  0  0
 22 80  1  0  0  0  0
 23 81  1  0  0  0  0
 23 82  1  0  0  0  0
 24 83  1  0  0  0  0
 24 84  1  0  0  0  0
 25 85  1  0  0  0  0
 25 86  1  0  0  0  0
 26 87  1  0  0  0  0
 26 88  1  0  0  0  0
 27  9  2  0  0  0  0
 27 10  1  0  0  0  0
 27 23  1  0  0  0  0
 28 11  2  0  0  0  0
 28 12  1  0  0  0  0
 28 24  1  0  0  0  0
 29 13  1  0  0  0  0
 29 21  2  0  0  0  0
 29 25  1  0  0  0  0
 30 14  1  0  0  0  0
 30 22  2  0  0  0  0
 30 26  1  0  0  0  0
 31 15  2  0  0  0  0
 31 21  1  0  0  0  0
 32 16  2  0  0  0  0
 32 22  1  0  0  0  0
 33 23  1  0  0  0  0
 33 55  1  6  0  0  0
 34 56  1  1  0  0  0
 34 24  1  0  0  0  0
 35 33  1  0  0  0  0
 35 48  1  0  0  0  0
 35 57  1  6  0  0  0
 36 34  1  0  0  0  0
 36 35  1  0  0  0  0
 36 58  1  6  0  0  0
 36 49  1  0  0  0  0
 37 31  1  0  0  0  0
 38 32  1  0  0  0  0
 42 17  1  0  0  0  0
 42 39  2  0  0  0  0
 43 18  1  0  0  0  0
 43 40  2  0  0  0  0
 44 37  1  0  0  0  0
 44 39  1  0  0  0  0
 44 89  1  0  0  0  0
 45 38  1  0  0  0  0
 45 40  1  0  0  0  0
 45 90  1  0  0  0  0
 46 25  1  0  0  0  0
 46 33  1  0  0  0  0
 46 41  1  0  0  0  0
 47 26  1  0  0  0  0
 47 34  1  0  0  0  0
 47 41  1  0  0  0  0
 48 91  1  0  0  0  0
 49 92  1  0  0  0  0
 50 37  2  0  0  0  0
 51 38  2  0  0  0  0
 52 41  2  0  0  0  0
 53 19  1  0  0  0  0
 53 39  1  0  0  0  0
 54 20  1  0  0  0  0
 54 40  1  0  0  0  0
M  END
>  <DRUGBANK_ID>
DB02702

>  <SECONDARY_ACCESSION_NUMBERS>
EXPT00267

>  <COMMON_NAME>
XV638

>  <CAS_NUMBER>
183854-11-7

$$$$
