
 OpenBabel10282417193D

 80 85  0  0  0  0  0  0  0  0999 V2000
   -0.1500    0.9054    0.0496 C   0  0  0  0  0  0  0  0  0  0  0  0
    2.3571   -0.0751   -0.7290 C   0  0  0  0  0  0  0  0  0  0  0  0
    1.1223   -0.8746   -0.5070 C   0  0  0  0  0  0  0  0  0  0  0  0
   -0.1068   -0.4844   -0.0785 C   0  0  0  0  0  0  0  0  0  0  0  0
   -1.2427   -1.3804   -0.0497 C   0  0  0  0  0  0  0  0  0  0  0  0
   -2.4635   -0.7198    0.0224 C   0  0  0  0  0  0  0  0  0  0  0  0
   -2.4554    0.6797    0.0509 C   0  0  0  0  0  0  0  0  0  0  0  0
   -1.3527    1.4806    0.0926 N   0  0  0  0  0  0  0  0  0  0  0  0
   -1.3552   -2.7835   -0.3208 O   0  0  0  0  0  0  0  0  0  0  0  0
    3.3338   -0.6518   -1.5833 O   0  0  0  0  0  0  0  0  0  0  0  0
    4.7568   -0.4810   -1.4603 C   0  0  0  0  0  0  0  0  0  0  0  0
    5.6845   -2.7357    0.0188 C   0  0  0  0  0  0  0  0  0  0  0  0
    4.4277   -1.9364    0.2692 N   0  0  0  0  0  0  0  0  0  0  0  0
    4.0498   -0.8737    1.4477 C   0  0  0  0  0  0  0  0  0  0  0  0
    4.9703    0.3680    1.5230 C   0  0  0  0  0  0  0  0  0  0  0  0
    4.7627    1.5247    0.3956 C   0  0  0  0  0  0  0  0  0  0  0  0
    3.4113    2.0105    0.2406 O   0  0  0  0  0  0  0  0  0  0  0  0
    2.3797    1.1774   -0.1575 C   0  0  0  0  0  0  0  0  0  0  0  0
    1.0755    1.6738    0.0609 C   0  0  0  0  0  0  0  0  0  0  0  0
    3.2207   -3.3776    0.7797 C   0  0  0  0  0  0  0  0  0  0  0  0
    4.3408   -4.2079    0.7833 O   0  0  0  0  0  0  0  0  0  0  0  0
    5.7088   -3.8752    0.8902 C   0  0  0  0  0  0  0  0  0  0  0  0
    3.3738   -2.7282   -0.4172 C   0  0  0  0  0  0  0  0  0  0  0  0
   -0.3586   -3.7693   -0.3115 C   0  0  0  0  0  0  0  0  0  0  0  0
    0.0251   -4.5390   -1.4310 C   0  0  0  0  0  0  0  0  0  0  0  0
    0.2542   -4.2084    0.8358 C   0  0  0  0  0  0  0  0  0  0  0  0
    1.1923   -5.3364    0.8518 C   0  0  0  0  0  0  0  0  0  0  0  0
    1.9061   -5.7239   -0.2663 C   0  0  0  0  0  0  0  0  0  0  0  0
    1.2240   -5.4172   -1.4512 C   0  0  0  0  0  0  0  0  0  0  0  0
    0.2701   -3.3447    1.8705 F   0  0  0  0  0  0  0  0  0  0  0  0
    3.2662   -6.2370   -0.0537 N   0  0  0  0  0  0  0  0  0  0  0  0
    4.1748   -6.1597    1.1813 C   0  0  0  0  0  0  0  0  0  0  0  0
    5.3148   -6.6350    0.9483 O   0  0  0  0  0  0  0  0  0  0  0  0
    3.9811   -5.1880    2.7493 C   0  0  0  0  0  0  0  0  0  0  0  0
    4.5120   -5.9579    3.8487 C   0  0  0  0  0  0  0  0  0  0  0  0
    5.1290   -7.0596    3.5783 O   0  0  0  0  0  0  0  0  0  0  0  0
    4.4345   -5.5366    5.1356 N   0  0  0  0  0  0  0  0  0  0  0  0
    3.9581   -4.3061    5.6798 C   0  0  0  0  0  0  0  0  0  0  0  0
    4.7936   -3.5516    6.4656 C   0  0  0  0  0  0  0  0  0  0  0  0
    4.3614   -2.2865    6.8997 C   0  0  0  0  0  0  0  0  0  0  0  0
    2.6815   -3.7748    5.4522 C   0  0  0  0  0  0  0  0  0  0  0  0
    2.4158   -2.3891    5.5360 C   0  0  0  0  0  0  0  0  0  0  0  0
    3.2228   -1.6779    6.3725 C   0  0  0  0  0  0  0  0  0  0  0  0
    2.8330   -0.4637    6.7771 F   0  0  0  0  0  0  0  0  0  0  0  0
    3.1726   -3.9350    3.0706 C   0  0  0  0  0  0  0  0  0  0  0  0
    4.5454   -3.4497    3.0674 C   0  0  0  0  0  0  0  0  0  0  0  0
    0.9842   -1.9246   -0.6843 H   0  0  0  0  0  0  0  0  0  0  0  0
   -3.4100   -1.2501   -0.0129 H   0  0  0  0  0  0  0  0  0  0  0  0
   -3.3830    1.2440    0.0253 H   0  0  0  0  0  0  0  0  0  0  0  0
    5.2960   -0.1130   -2.2957 H   0  0  0  0  0  0  0  0  0  0  0  0
    4.7765   -0.1285   -0.4911 H   0  0  0  0  0  0  0  0  0  0  0  0
    5.6366   -1.0233   -1.0354 H   0  0  0  0  0  0  0  0  0  0  0  0
    5.6043   -3.2080   -0.9890 H   0  0  0  0  0  0  0  0  0  0  0  0
    6.6171   -2.2208    0.1393 H   0  0  0  0  0  0  0  0  0  0  0  0
    3.8821   -1.2317    2.4868 H   0  0  0  0  0  0  0  0  0  0  0  0
    3.0061   -0.5330    1.3850 H   0  0  0  0  0  0  0  0  0  0  0  0
    5.9824   -0.0664    1.5527 H   0  0  0  0  0  0  0  0  0  0  0  0
    4.8409    0.8404    2.5098 H   0  0  0  0  0  0  0  0  0  0  0  0
    5.0403    1.4041   -0.6597 H   0  0  0  0  0  0  0  0  0  0  0  0
    5.5850    2.2464    0.5046 H   0  0  0  0  0  0  0  0  0  0  0  0
    0.9884    2.7526    0.1426 H   0  0  0  0  0  0  0  0  0  0  0  0
    2.8810   -2.5529    1.4309 H   0  0  0  0  0  0  0  0  0  0  0  0
    2.3640   -3.8816    1.0242 H   0  0  0  0  0  0  0  0  0  0  0  0
    6.3576   -4.7173    0.6745 H   0  0  0  0  0  0  0  0  0  0  0  0
    6.1586   -3.5970    1.8461 H   0  0  0  0  0  0  0  0  0  0  0  0
    3.4158   -3.3929   -1.2916 H   0  0  0  0  0  0  0  0  0  0  0  0
    2.4479   -2.3250   -0.4968 H   0  0  0  0  0  0  0  0  0  0  0  0
   -0.5942   -4.4767   -2.3222 H   0  0  0  0  0  0  0  0  0  0  0  0
    1.7605   -5.5695    1.7439 H   0  0  0  0  0  0  0  0  0  0  0  0
    1.5509   -5.8373   -2.4052 H   0  0  0  0  0  0  0  0  0  0  0  0
    3.8398   -6.4578   -0.8843 H   0  0  0  0  0  0  0  0  0  0  0  0
    5.0842   -6.0818    5.6705 H   0  0  0  0  0  0  0  0  0  0  0  0
    5.7560   -3.9550    6.7509 H   0  0  0  0  0  0  0  0  0  0  0  0
    4.9030   -1.7810    7.6822 H   0  0  0  0  0  0  0  0  0  0  0  0
    1.9577   -4.4162    4.9451 H   0  0  0  0  0  0  0  0  0  0  0  0
    1.6130   -1.8907    4.9816 H   0  0  0  0  0  0  0  0  0  0  0  0
    2.3204   -3.3531    2.6645 H   0  0  0  0  0  0  0  0  0  0  0  0
    2.2311   -3.5837    3.5042 H   0  0  0  0  0  0  0  0  0  0  0  0
    4.9946   -2.8238    3.8469 H   0  0  0  0  0  0  0  0  0  0  0  0
    4.7817   -2.6794    2.3532 H   0  0  0  0  0  0  0  0  0  0  0  0
  1 19  2  0  0  0  0
  1  4  1  0  0  0  0
  1  8  1  0  0  0  0
  2  3  1  0  0  0  0
  2 10  1  0  0  0  0
  3  4  2  0  0  0  0
  3 47  1  0  0  0  0
  4  5  1  0  0  0  0
  5  6  2  0  0  0  0
  6  7  1  0  0  0  0
  6 48  1  0  0  0  0
  7  8  2  0  0  0  0
  7 49  1  0  0  0  0
  9  5  1  0  0  0  0
  9 24  1  0  0  0  0
 10 11  1  0  0  0  0
 11 50  1  0  0  0  0
 11 51  1  0  0  0  0
 11 52  1  0  0  0  0
 12 13  1  0  0  0  0
 12 53  1  0  0  0  0
 12 54  1  0  0  0  0
 13 14  1  0  0  0  0
 13 23  1  0  0  0  0
 14 15  1  0  0  0  0
 14 55  1  0  0  0  0
 14 56  1  0  0  0  0
 15 16  1  0  0  0  0
 15 57  1  0  0  0  0
 15 58  1  0  0  0  0
 16 17  1  0  0  0  0
 16 59  1  0  0  0  0
 16 60  1  0  0  0  0
 17 18  1  0  0  0  0
 18  2  2  0  0  0  0
 19 18  1  0  0  0  0
 19 61  1  0  0  0  0
 20 21  1  0  0  0  0
 20 23  1  0  0  0  0
 20 62  1  0  0  0  0
 20 63  1  0  0  0  0
 21 22  1  0  0  0  0
 22 12  1  0  0  0  0
 22 64  1  0  0  0  0
 22 65  1  0  0  0  0
 23 66  1  0  0  0  0
 23 67  1  0  0  0  0
 24 26  1  0  0  0  0
 25 24  2  0  0  0  0
 25 29  1  0  0  0  0
 25 68  1  0  0  0  0
 26 27  2  0  0  0  0
 26 30  1  0  0  0  0
 27 28  1  0  0  0  0
 27 69  1  0  0  0  0
 28 29  2  0  0  0  0
 28 31  1  0  0  0  0
 29 70  1  0  0  0  0
 31 32  1  0  0  0  0
 31 71  1  0  0  0  0
 32 34  1  0  0  0  0
 33 32  2  0  0  0  0
 34 35  1  0  0  0  0
 34 45  1  0  0  0  0
 35 37  1  0  0  0  0
 36 35  2  0  0  0  0
 37 38  1  0  0  0  0
 37 72  1  0  0  0  0
 38 41  2  0  0  0  0
 39 38  1  0  0  0  0
 39 73  1  0  0  0  0
 40 39  2  0  0  0  0
 40 43  1  0  0  0  0
 40 74  1  0  0  0  0
 41 42  1  0  0  0  0
 41 75  1  0  0  0  0
 42 43  2  0  0  0  0
 42 76  1  0  0  0  0
 43 44  1  0  0  0  0
 45 46  1  0  0  0  0
 45 77  1  0  0  0  0
 45 78  1  0  0  0  0
 46 34  1  0  0  0  0
 46 79  1  0  0  0  0
 46 80  1  0  0  0  0
M  END
>  <DRUGBANK_ID>
DB12307

>  <SECONDARY_ACCESSION_NUMBERS>
DB05030

>  <COMMON_NAME>
Foretinib

>  <CAS_NUMBER>
849217-64-7

>  <UNII>
81FH7VK1C4

>  <SYNONYMS>
Foretinib

$$$$
