
 OpenBabel10282417183D

 97100  0  0  0  0  0  0  0  0999 V2000
   -1.4747   -2.9789   -0.1134 C   0  0  1  0  0  0  0  0  0  0  0  0
   -0.1697   -3.6228   -0.7236 C   0  0  1  0  0  0  0  0  0  0  0  0
    1.0597   -2.6806   -0.5784 C   0  0  1  0  0  0  0  0  0  0  0  0
   -2.7285   -3.7667   -0.5608 C   0  0  1  0  0  0  0  0  0  0  0  0
   -4.0739   -3.2717    0.0343 C   0  0  1  0  0  0  0  0  0  0  0  0
   -4.3306   -1.7609   -0.1999 C   0  0  2  0  0  0  0  0  0  0  0  0
   -5.6806   -1.2325    0.3630 C   0  0  2  0  0  0  0  0  0  0  0  0
   -5.8357    0.2785    0.3729 C   0  0  0  0  0  0  0  0  0  0  0  0
   -4.8915    1.1899    0.0971 C   0  0  0  0  0  0  0  0  0  0  0  0
   -5.0971    2.5924    0.3770 C   0  0  0  0  0  0  0  0  0  0  0  0
   -4.1792    3.5759    0.4062 C   0  0  0  0  0  0  0  0  0  0  0  0
   -4.5949    4.9960    0.6691 C   0  0  0  0  0  0  0  0  0  0  0  0
   -2.7270    3.4018    0.1322 C   0  0  0  0  0  0  0  0  0  0  0  0
   -2.1305    4.2523   -0.5202 O   0  0  0  0  0  0  0  0  0  0  0  0
    5.3917   -0.4861    0.7749 C   0  0  1  0  0  0  0  0  0  0  0  0
    5.5209   -1.8396    0.3500 O   0  0  0  0  0  0  0  0  0  0  0  0
    4.4901   -2.1052   -0.4830 C   0  0  0  0  0  0  0  0  0  0  0  0
    3.5355   -2.9707   -0.1871 C   0  0  0  0  0  0  0  0  0  0  0  0
    2.3948   -3.3016   -1.0779 C   0  0  2  0  0  0  0  0  0  0  0  0
    3.7443    1.8305   -1.3893 C   0  0  0  0  0  0  0  0  0  0  0  0
    2.4254    2.2859   -1.3434 C   0  0  0  0  0  0  0  0  0  0  0  0
    1.5043    1.9249   -0.3079 C   0  0  0  0  0  0  0  0  0  0  0  0
    1.9569    1.1025    0.7679 C   0  0  0  0  0  0  0  0  0  0  0  0
    1.0169    0.7364    1.7658 C   0  0  0  0  0  0  0  0  0  0  0  0
   -0.3141    1.1492    1.7039 C   0  0  0  0  0  0  0  0  0  0  0  0
   -0.7702    1.9541    0.6627 C   0  0  0  0  0  0  0  0  0  0  0  0
    0.1375    2.3136   -0.3433 C   0  0  0  0  0  0  0  0  0  0  0  0
    3.3014    0.6868    0.6920 C   0  0  0  0  0  0  0  0  0  0  0  0
    4.1569    1.0274   -0.3489 C   0  0  0  0  0  0  0  0  0  0  0  0
    5.4141    0.4686   -0.3108 O   0  0  0  0  0  0  0  0  0  0  0  0
    4.0653   -0.2484    1.5044 C   0  0  0  0  0  0  0  0  0  0  0  0
   -5.9091   -1.6859    1.8153 C   0  0  0  0  0  0  0  0  0  0  0  0
   -2.7917   -3.7134   -1.9908 O   0  0  0  0  0  0  0  0  0  0  0  0
    0.0769   -4.8571    0.0036 O   0  0  0  0  0  0  0  0  0  0  0  0
   -1.4078   -2.8220    1.4159 C   0  0  0  0  0  0  0  0  0  0  0  0
   -4.2279   -1.4712   -1.6015 O   0  0  0  0  0  0  0  0  0  0  0  0
   -5.2263   -4.1399   -0.4902 C   0  0  0  0  0  0  0  0  0  0  0  0
    2.5690   -2.9968   -2.4702 O   0  0  0  0  0  0  0  0  0  0  0  0
    0.6252   -5.9887   -0.4988 C   0  0  0  0  0  0  0  0  0  0  0  0
    0.8216   -6.9487    0.2435 O   0  0  0  0  0  0  0  0  0  0  0  0
    1.0065   -6.0490   -1.9577 C   0  0  0  0  0  0  0  0  0  0  0  0
    2.0588    3.1114   -2.3842 O   0  0  0  0  0  0  0  0  0  0  0  0
   -0.2671    2.9543   -1.4967 O   0  0  0  0  0  0  0  0  0  0  0  0
   -2.1370    2.3082    0.7120 N   0  0  0  0  0  0  0  0  0  0  0  0
    6.5727   -0.2285    1.6688 C   0  0  0  0  0  0  0  0  0  0  0  0
    3.8157   -3.2751   -3.0973 C   0  0  0  0  0  0  0  0  0  0  0  0
    1.2868   -0.0375    2.8622 O   0  0  0  0  0  0  0  0  0  0  0  0
    3.6504   -0.8038    2.4974 O   0  0  0  0  0  0  0  0  0  0  0  0
    4.6326    2.1731   -2.5437 C   0  0  0  0  0  0  0  0  0  0  0  0
    0.8021   -1.3590   -1.3113 C   0  0  0  0  0  0  0  0  0  0  0  0
   -1.5853   -1.9792   -0.5427 H   0  0  0  0  0  0  0  0  0  0  0  0
   -0.3432   -3.8466   -1.7796 H   0  0  0  0  0  0  0  0  0  0  0  0
    1.1828   -2.4759    0.4918 H   0  0  0  0  0  0  0  0  0  0  0  0
   -2.6072   -4.8200   -0.2850 H   0  0  0  0  0  0  0  0  0  0  0  0
   -4.0206   -3.4407    1.1153 H   0  0  0  0  0  0  0  0  0  0  0  0
   -3.5219   -1.2040    0.2841 H   0  0  0  0  0  0  0  0  0  0  0  0
   -6.4916   -1.6168   -0.2679 H   0  0  0  0  0  0  0  0  0  0  0  0
   -6.8092    0.6224    0.7225 H   0  0  0  0  0  0  0  0  0  0  0  0
   -3.9291    0.8740   -0.2951 H   0  0  0  0  0  0  0  0  0  0  0  0
   -6.1262    2.8694    0.6056 H   0  0  0  0  0  0  0  0  0  0  0  0
   -5.2942    5.3337   -0.1024 H   0  0  0  0  0  0  0  0  0  0  0  0
   -5.0759    5.0772    1.6491 H   0  0  0  0  0  0  0  0  0  0  0  0
   -3.7471    5.6889    0.6707 H   0  0  0  0  0  0  0  0  0  0  0  0
    4.4659   -1.4620   -1.3503 H   0  0  0  0  0  0  0  0  0  0  0  0
    3.5770   -3.5148    0.7551 H   0  0  0  0  0  0  0  0  0  0  0  0
    2.3853   -4.3686   -0.9280 H   0  0  0  0  0  0  0  0  0  0  0  0
   -0.9808    0.8423    2.5070 H   0  0  0  0  0  0  0  0  0  0  0  0
   -6.8971   -1.3741    2.1713 H   0  0  0  0  0  0  0  0  0  0  0  0
   -5.8750   -2.7715    1.9325 H   0  0  0  0  0  0  0  0  0  0  0  0
   -5.1551   -1.2567    2.4862 H   0  0  0  0  0  0  0  0  0  0  0  0
   -2.9415   -2.7722   -2.2255 H   0  0  0  0  0  0  0  0  0  0  0  0
   -0.5483   -2.2204    1.7207 H   0  0  0  0  0  0  0  0  0  0  0  0
   -2.2825   -2.2980    1.8149 H   0  0  0  0  0  0  0  0  0  0  0  0
   -1.3508   -3.7918    1.9178 H   0  0  0  0  0  0  0  0  0  0  0  0
   -5.0230   -1.8297   -2.0375 H   0  0  0  0  0  0  0  0  0  0  0  0
   -5.0489   -5.1892   -0.2355 H   0  0  0  0  0  0  0  0  0  0  0  0
   -6.1829   -3.8655   -0.0363 H   0  0  0  0  0  0  0  0  0  0  0  0
   -5.3401   -4.0606   -1.5746 H   0  0  0  0  0  0  0  0  0  0  0  0
    0.1448   -5.8923   -2.5997 H   0  0  0  0  0  0  0  0  0  0  0  0
    1.7903   -5.3694   -2.2709 H   0  0  0  0  0  0  0  0  0  0  0  0
    1.4481   -7.0310   -2.1485 H   0  0  0  0  0  0  0  0  0  0  0  0
    1.1108    3.3311   -2.2616 H   0  0  0  0  0  0  0  0  0  0  0  0
   -1.1502    3.3501   -1.3490 H   0  0  0  0  0  0  0  0  0  0  0  0
   -2.7105    1.7721    1.3521 H   0  0  0  0  0  0  0  0  0  0  0  0
    6.5667    0.8025    2.0231 H   0  0  0  0  0  0  0  0  0  0  0  0
    6.5662   -0.9184    2.5183 H   0  0  0  0  0  0  0  0  0  0  0  0
    7.5001   -0.4006    1.1100 H   0  0  0  0  0  0  0  0  0  0  0  0
    4.5963   -2.5733   -2.8128 H   0  0  0  0  0  0  0  0  0  0  0  0
    4.1640   -4.2897   -2.9023 H   0  0  0  0  0  0  0  0  0  0  0  0
    3.7155   -3.0911   -4.1695 H   0  0  0  0  0  0  0  0  0  0  0  0
    2.2113   -0.3659    2.8659 H   0  0  0  0  0  0  0  0  0  0  0  0
    4.1980    1.8013   -3.4785 H   0  0  0  0  0  0  0  0  0  0  0  0
    4.7572    3.2581   -2.6073 H   0  0  0  0  0  0  0  0  0  0  0  0
    5.6254    1.7271   -2.4427 H   0  0  0  0  0  0  0  0  0  0  0  0
   -0.0066   -0.7835   -0.8590 H   0  0  0  0  0  0  0  0  0  0  0  0
    1.6976   -0.7406   -1.2855 H   0  0  0  0  0  0  0  0  0  0  0  0
    0.5452   -1.5227   -2.3633 H   0  0  0  0  0  0  0  0  0  0  0  0
  1 35  1  0  0  0  0
  1  4  1  0  0  0  0
  1 51  1  6  0  0  0
  2  3  1  0  0  0  0
  2  1  1  0  0  0  0
  2 52  1  6  0  0  0
  2 34  1  0  0  0  0
  3 50  1  0  0  0  0
  3 53  1  1  0  0  0
  4 33  1  0  0  0  0
  4  5  1  0  0  0  0
  4 54  1  1  0  0  0
  5  6  1  0  0  0  0
  5 37  1  0  0  0  0
  5 55  1  1  0  0  0
  6 36  1  0  0  0  0
  6  7  1  0  0  0  0
  6 56  1  1  0  0  0
  7 32  1  0  0  0  0
  7  8  1  0  0  0  0
  7 57  1  6  0  0  0
  8  9  2  0  0  0  0
  8 58  1  0  0  0  0
  9 10  1  0  0  0  0
  9 59  1  0  0  0  0
 10 11  2  0  0  0  0
 10 60  1  0  0  0  0
 11 12  1  0  0  0  0
 11 13  1  0  0  0  0
 12 61  1  0  0  0  0
 12 62  1  0  0  0  0
 12 63  1  0  0  0  0
 13 14  2  0  0  0  0
 15 16  1  0  0  0  0
 15 31  1  0  0  0  0
 15 45  1  1  0  0  0
 16 17  1  0  0  0  0
 17 18  2  0  0  0  0
 17 64  1  0  0  0  0
 18 19  1  0  0  0  0
 18 65  1  0  0  0  0
 19  3  1  0  0  0  0
 19 66  1  1  0  0  0
 19 38  1  0  0  0  0
 20 29  2  0  0  0  0
 20 49  1  0  0  0  0
 21 20  1  0  0  0  0
 21 42  1  0  0  0  0
 22 21  2  0  0  0  0
 22 23  1  0  0  0  0
 23 24  1  0  0  0  0
 24 25  2  0  0  0  0
 24 47  1  0  0  0  0
 25 26  1  0  0  0  0
 25 67  1  0  0  0  0
 26 27  2  0  0  0  0
 26 44  1  0  0  0  0
 27 22  1  0  0  0  0
 27 43  1  0  0  0  0
 28 29  1  0  0  0  0
 28 23  2  0  0  0  0
 29 30  1  0  0  0  0
 30 15  1  0  0  0  0
 31 28  1  0  0  0  0
 31 48  2  0  0  0  0
 32 68  1  0  0  0  0
 32 69  1  0  0  0  0
 32 70  1  0  0  0  0
 33 71  1  0  0  0  0
 34 39  1  0  0  0  0
 35 72  1  0  0  0  0
 35 73  1  0  0  0  0
 35 74  1  0  0  0  0
 36 75  1  0  0  0  0
 37 76  1  0  0  0  0
 37 77  1  0  0  0  0
 37 78  1  0  0  0  0
 38 46  1  0  0  0  0
 39 40  2  0  0  0  0
 39 41  1  0  0  0  0
 41 79  1  0  0  0  0
 41 80  1  0  0  0  0
 41 81  1  0  0  0  0
 42 82  1  0  0  0  0
 43 83  1  0  0  0  0
 44 13  1  0  0  0  0
 44 84  1  0  0  0  0
 45 85  1  0  0  0  0
 45 86  1  0  0  0  0
 45 87  1  0  0  0  0
 46 88  1  0  0  0  0
 46 89  1  0  0  0  0
 46 90  1  0  0  0  0
 47 91  1  0  0  0  0
 49 92  1  0  0  0  0
 49 93  1  0  0  0  0
 49 94  1  0  0  0  0
 50 95  1  0  0  0  0
 50 96  1  0  0  0  0
 50 97  1  0  0  0  0
M  END
>  <DRUGBANK_ID>
DB11753

>  <SECONDARY_ACCESSION_NUMBERS>
DB05378

>  <COMMON_NAME>
Rifamycin

>  <CAS_NUMBER>
6998-60-3

>  <UNII>
DU69T8ZZPA

>  <SYNONYMS>
Rifamicina; Rifamicine SV; Rifamycin; Rifamycin SV; Rifamycine; Rifamycinum; Rifomycin SV

$$$$
