
 OpenBabel10282417123D

249256  0  0  0  0  0  0  0  0999 V2000
    7.7920   -9.0150   -0.7702 O   0  0  0  0  0  0  0  0  0  0  0  0
    0.5836   -6.3353   -2.1936 O   0  0  0  0  0  0  0  0  0  0  0  0
    7.3927  -11.1866    0.3443 O   0  0  0  0  0  0  0  0  0  0  0  0
   -1.6786   -7.2013   -2.3803 O   0  0  0  0  0  0  0  0  0  0  0  0
    5.2753   -7.2378   -1.2645 O   0  0  0  0  0  0  0  0  0  0  0  0
    3.7710   -8.9474    0.4020 O   0  0  0  0  0  0  0  0  0  0  0  0
    0.8602   -4.1760   -0.2871 O   0  0  0  0  0  0  0  0  0  0  0  0
   -1.7229   -4.5069    0.7365 O   0  0  0  0  0  0  0  0  0  0  0  0
    6.2030   -7.7976    1.1807 O   0  0  0  0  0  0  0  0  0  0  0  0
   -1.8635   -7.2866    0.4216 O   0  0  0  0  0  0  0  0  0  0  0  0
    8.4953   -8.8413   -3.5225 O   0  0  0  0  0  0  0  0  0  0  0  0
    1.6952   -4.7893   -4.3593 O   0  0  0  0  0  0  0  0  0  0  0  0
    5.9676  -12.9385   -4.6097 O   0  0  0  0  0  0  0  0  0  0  0  0
    0.9538   -9.6244   -6.4996 O   0  0  0  0  0  0  0  0  0  0  0  0
    8.8683  -10.1649  -10.5246 O   0  0  0  0  0  0  0  0  0  0  0  0
    4.6669   -6.4724  -10.0162 O   0  0  0  0  0  0  0  0  0  0  0  0
    8.9193   -9.4036  -14.1764 O   0  0  0  0  0  0  0  0  0  0  0  0
    6.6122   -7.3722  -12.3112 O   0  0  0  0  0  0  0  0  0  0  0  0
    4.3955  -15.0865    0.2583 O   0  5  0  0  0  0  0  0  0  0  0  0
    3.9829  -15.4125   -1.8787 O   0  0  0  0  0  0  0  0  0  0  0  0
   -4.9604   -8.8484   -5.6881 O   0  5  0  0  0  0  0  0  0  0  0  0
   -3.7769  -10.0648   -7.0794 O   0  0  0  0  0  0  0  0  0  0  0  0
    7.3550  -15.4038  -16.9653 O   0  0  0  0  0  0  0  0  0  0  0  0
    9.7409  -14.0577  -10.9852 O   0  0  0  0  0  0  0  0  0  0  0  0
    7.4629  -14.6147  -14.9822 O   0  0  0  0  0  0  0  0  0  0  0  0
   10.7798  -10.5718  -11.3216 O   0  0  0  0  0  0  0  0  0  0  0  0
    5.6258  -17.6384  -15.3120 O   0  0  0  0  0  0  0  0  0  0  0  0
   11.7697  -12.4892  -12.2512 O   0  0  0  0  0  0  0  0  0  0  0  0
    7.2414  -14.4054  -13.2661 O   0  0  0  0  0  0  0  0  0  0  0  0
    7.3870   -9.2430  -12.1084 O   0  0  0  0  0  0  0  0  0  0  0  0
    6.2937  -15.9381  -14.6220 O   0  0  0  0  0  0  0  0  0  0  0  0
    9.6139  -11.2964  -11.7800 O   0  0  0  0  0  0  0  0  0  0  0  0
    4.9440  -15.4883   -8.5257 N   0  0  0  0  0  0  0  0  0  0  0  0
    4.7565  -10.6745   -5.1596 N   0  0  0  0  0  0  0  0  0  0  0  0
    5.8849  -13.1304   -7.2804 N   0  0  0  0  0  0  0  0  0  0  0  0
    2.8056  -10.5749   -7.3971 N   0  0  0  0  0  0  0  0  0  0  0  0
    7.6257  -13.3518  -10.5048 N   0  0  0  0  0  0  0  0  0  0  0  0
    5.7540   -9.0918   -8.2601 N   0  0  0  0  0  0  0  0  0  0  0  0
    7.5985  -11.0800   -4.3275 N   0  0  0  0  0  0  0  0  0  0  0  0
    1.2734  -10.6672   -4.2612 N   0  0  0  0  0  0  0  0  0  0  0  0
    8.2302  -12.5437  -14.7055 N   0  0  0  0  0  0  0  0  0  0  0  0
    7.2130   -9.9648   -9.9531 N   0  0  0  0  0  0  0  0  0  0  0  0
    4.3970  -14.7369   -0.9217 N   0  3  0  0  0  0  0  0  0  0  0  0
   -3.8858   -9.2528   -6.1485 N   0  3  0  0  0  0  0  0  0  0  0  0
    6.1410  -15.6630  -12.1646 N   0  0  0  0  0  0  0  0  0  0  0  0
   10.0820   -8.4850  -11.9603 N   0  0  0  0  0  0  0  0  0  0  0  0
    4.2497  -12.8861  -12.5001 N   0  0  0  0  0  0  0  0  0  0  0  0
    4.0463  -14.9438   -7.5029 C   0  0  0  0  0  0  0  0  0  0  0  0
    6.4381  -15.2253   -8.2152 C   0  0  0  0  0  0  0  0  0  0  0  0
    4.5333  -11.5742   -6.1831 C   0  0  0  0  0  0  0  0  0  0  0  0
    3.7686   -9.7441   -5.1603 C   0  0  0  0  0  0  0  0  0  0  0  0
    4.2054  -13.5472   -7.5743 C   0  0  0  0  0  0  0  0  0  0  0  0
    6.6818  -13.8492   -8.0964 C   0  0  0  0  0  0  0  0  0  0  0  0
    4.0261  -11.1316   -7.5584 C   0  0  0  0  0  0  0  0  0  0  0  0
    3.3498   -9.3944   -6.4871 C   0  0  0  0  0  0  0  0  0  0  0  0
    4.4739  -14.9102   -9.8075 C   0  0  0  0  0  0  0  0  0  0  0  0
    5.7975   -9.8504   -5.5137 C   0  0  0  0  0  0  0  0  0  0  0  0
    7.2576  -13.0854   -6.5688 C   0  0  0  0  0  0  0  0  0  0  0  0
    1.9488  -11.8144   -6.8989 C   0  0  0  0  0  0  0  0  0  0  0  0
    5.3714   -8.6339   -1.3708 C   0  0  3  0  0  0  0  0  0  0  0  0
    5.0157   -9.3952   -0.0914 C   0  0  3  0  0  0  0  0  0  0  0  0
   -0.2632   -4.2910   -1.1821 C   0  0  2  0  0  0  0  0  0  0  0  0
   -1.3663   -5.1035   -0.5088 C   0  0  1  0  0  0  0  0  0  0  0  0
    4.3634  -13.4880  -10.0794 C   0  0  0  0  0  0  0  0  0  0  0  0
    6.5460  -10.4750   -6.6864 C   0  0  0  0  0  0  0  0  0  0  0  0
    6.7785   -8.9483   -1.7734 C   0  0  3  0  0  0  0  0  0  0  0  0
    6.0945   -9.2045    0.9468 C   0  0  3  0  0  0  0  0  0  0  0  0
    0.1616   -4.9790   -2.4789 C   0  0  1  0  0  0  0  0  0  0  0  0
   -0.8746   -6.5166   -0.2619 C   0  0  2  0  0  0  0  0  0  0  0  0
    8.4753  -11.7085   -6.7336 C   0  0  0  0  0  0  0  0  0  0  0  0
    2.1868  -12.5128   -5.5004 C   0  0  0  0  0  0  0  0  0  0  0  0
    7.4151   -9.7495    0.4133 C   0  0  3  0  0  0  0  0  0  0  0  0
   -0.4696   -7.1272   -1.5884 C   0  0  2  0  0  0  0  0  0  0  0  0
    5.7714  -13.1295   -9.8445 C   0  0  0  0  0  0  0  0  0  0  0  0
    6.2916  -10.3687   -8.0016 C   0  0  0  0  0  0  0  0  0  0  0  0
    7.2716   -8.3322   -3.0421 C   0  0  0  0  0  0  0  0  0  0  0  0
    1.2999   -4.1875   -3.1299 C   0  0  0  0  0  0  0  0  0  0  0  0
    8.1955  -10.2789   -5.5758 C   0  0  0  0  0  0  0  0  0  0  0  0
    2.3084  -11.7079   -4.2493 C   0  0  0  0  0  0  0  0  0  0  0  0
    7.9972  -12.2156  -11.7774 C   0  0  0  0  0  0  0  0  0  0  0  0
    5.9094   -8.4168   -9.3102 C   0  0  0  0  0  0  0  0  0  0  0  0
    6.6410  -11.8164   -0.5788 C   0  0  0  0  0  0  0  0  0  0  0  0
   -1.5723   -7.8277   -3.5764 C   0  0  0  0  0  0  0  0  0  0  0  0
    8.3556  -11.8204  -13.5006 C   0  0  0  0  0  0  0  0  0  0  0  0
    6.8802   -8.7050  -10.1216 C   0  0  0  0  0  0  0  0  0  0  0  0
    6.9303  -11.6934   -1.8778 C   0  0  0  0  0  0  0  0  0  0  0  0
    6.6086  -11.9121   -4.0363 C   0  0  0  0  0  0  0  0  0  0  0  0
    0.7747   -9.9373   -5.2070 C   0  0  0  0  0  0  0  0  0  0  0  0
   -0.3903   -8.3765   -3.9749 C   0  0  0  0  0  0  0  0  0  0  0  0
    6.0465  -12.1746   -2.7781 C   0  0  0  0  0  0  0  0  0  0  0  0
   -0.3733   -9.1293   -5.1020 C   0  0  0  0  0  0  0  0  0  0  0  0
    8.0700  -10.7421  -11.5751 C   0  0  0  0  0  0  0  0  0  0  0  0
    5.4195   -7.3826  -10.1460 C   0  0  0  0  0  0  0  0  0  0  0  0
    5.6425  -12.7093   -0.2353 C   0  0  0  0  0  0  0  0  0  0  0  0
   -2.7059   -7.9656   -4.3768 C   0  0  0  0  0  0  0  0  0  0  0  0
    8.2161  -10.2593  -13.5230 C   0  0  0  0  0  0  0  0  0  0  0  0
    6.4308   -7.6979  -11.1526 C   0  0  0  0  0  0  0  0  0  0  0  0
    5.0431  -13.0812   -2.4950 C   0  0  0  0  0  0  0  0  0  0  0  0
    4.9905  -13.4596   -1.2089 C   0  0  0  0  0  0  0  0  0  0  0  0
   -1.4585   -9.3061   -5.9485 C   0  0  0  0  0  0  0  0  0  0  0  0
   -2.6568   -8.7928   -5.5075 C   0  0  0  0  0  0  0  0  0  0  0  0
    8.7652  -12.7974  -15.9319 C   0  0  0  0  0  0  0  0  0  0  0  0
    6.8070  -11.6552  -10.4505 C   0  0  0  0  0  0  0  0  0  0  0  0
    9.4950  -14.1019  -16.0937 C   0  0  0  0  0  0  0  0  0  0  0  0
    6.6878  -13.2359  -11.7588 C   0  0  0  0  0  0  0  0  0  0  0  0
    8.7799  -15.3599  -16.4069 C   0  0  0  0  0  0  0  0  0  0  0  0
    8.6749  -13.9118  -12.0416 C   0  0  0  0  0  0  0  0  0  0  0  0
    6.2488  -14.3717  -16.7283 C   0  0  0  0  0  0  0  0  0  0  0  0
    9.7566  -13.1648   -9.8295 C   0  0  0  0  0  0  0  0  0  0  0  0
    5.9193  -14.0546  -15.3541 C   0  0  0  0  0  0  0  0  0  0  0  0
   10.0419  -11.6221   -9.9139 C   0  0  0  0  0  0  0  0  0  0  0  0
    8.0687  -16.3282  -14.2491 C   0  0  0  0  0  0  0  0  0  0  0  0
   10.4473  -11.0479  -13.2176 C   0  0  0  0  0  0  0  0  0  0  0  0
    6.9917  -17.7177  -14.3940 C   0  0  0  0  0  0  0  0  0  0  0  0
   11.4272  -11.9362  -13.5393 C   0  0  0  0  0  0  0  0  0  0  0  0
    4.4421  -16.6578  -14.9204 C   0  0  0  0  0  0  0  0  0  0  0  0
   12.3769  -11.6788  -11.0500 C   0  0  0  0  0  0  0  0  0  0  0  0
    4.2835  -16.3828  -13.4052 C   0  0  0  0  0  0  0  0  0  0  0  0
   12.4870   -9.9763  -11.2390 C   0  0  0  0  0  0  0  0  0  0  0  0
    5.2770  -16.6788  -12.3060 C   0  0  0  0  0  0  0  0  0  0  0  0
   11.4515   -9.0086  -12.2993 C   0  0  0  0  0  0  0  0  0  0  0  0
    6.4943  -15.4212  -13.3104 C   0  0  0  0  0  0  0  0  0  0  0  0
    9.2271   -9.4530  -12.0656 C   0  0  0  0  0  0  0  0  0  0  0  0
    5.4828  -11.6314  -12.7061 C   0  0  3  0  0  0  0  0  0  0  0  0
    6.7916  -12.8363  -13.6054 C   0  0  0  0  0  0  0  0  0  0  0  0
    5.8319  -10.2381  -11.5867 C   0  0  0  0  0  0  0  0  0  0  0  0
    6.0692   -6.9140   -0.8177 H   0  0  0  0  0  0  0  0  0  0  0  0
    3.9258   -7.9985    0.5608 H   0  0  0  0  0  0  0  0  0  0  0  0
    1.2528   -5.0593   -0.1580 H   0  0  0  0  0  0  0  0  0  0  0  0
   -0.9241   -4.5209    1.2969 H   0  0  0  0  0  0  0  0  0  0  0  0
    6.7884   -7.4975    0.4674 H   0  0  0  0  0  0  0  0  0  0  0  0
   -2.3831   -7.8036   -0.2217 H   0  0  0  0  0  0  0  0  0  0  0  0
    9.1701   -8.8101   -2.8339 H   0  0  0  0  0  0  0  0  0  0  0  0
    1.9870   -5.6930   -4.1454 H   0  0  0  0  0  0  0  0  0  0  0  0
    5.0759  -13.3192   -4.6669 H   0  0  0  0  0  0  0  0  0  0  0  0
    1.7327  -10.0286   -6.9022 H   0  0  0  0  0  0  0  0  0  0  0  0
    6.9359  -15.6103  -15.4138 H   0  0  0  0  0  0  0  0  0  0  0  0
    9.6176  -12.3258  -11.5708 H   0  0  0  0  0  0  0  0  0  0  0  0
    7.5224  -14.5060  -10.6284 H   0  0  0  0  0  0  0  0  0  0  0  0
    5.0735   -8.7834   -7.6917 H   0  0  0  0  0  0  0  0  0  0  0  0
    7.9228  -13.5309  -14.5833 H   0  0  0  0  0  0  0  0  0  0  0  0
    8.1724  -10.0696   -9.6560 H   0  0  0  0  0  0  0  0  0  0  0  0
    4.7524  -12.9930  -11.6350 H   0  0  0  0  0  0  0  0  0  0  0  0
    4.8139  -14.0429  -12.6273 H   0  0  0  0  0  0  0  0  0  0  0  0
    2.9783  -14.9914   -7.7366 H   0  0  0  0  0  0  0  0  0  0  0  0
    4.3260  -14.9549   -6.4576 H   0  0  0  0  0  0  0  0  0  0  0  0
    6.6934  -15.3465   -7.1756 H   0  0  0  0  0  0  0  0  0  0  0  0
    7.1963  -15.2568   -8.9871 H   0  0  0  0  0  0  0  0  0  0  0  0
    5.4135  -12.0510   -6.0813 H   0  0  0  0  0  0  0  0  0  0  0  0
    4.3011  -12.5410   -5.8405 H   0  0  0  0  0  0  0  0  0  0  0  0
    2.8822  -10.1977   -5.1374 H   0  0  0  0  0  0  0  0  0  0  0  0
    3.8211   -9.1925   -4.2542 H   0  0  0  0  0  0  0  0  0  0  0  0
    3.4428  -13.1304   -8.3102 H   0  0  0  0  0  0  0  0  0  0  0  0
    3.4796  -13.0701   -7.0273 H   0  0  0  0  0  0  0  0  0  0  0  0
    5.7406  -13.7165   -8.3614 H   0  0  0  0  0  0  0  0  0  0  0  0
    7.4831  -13.1478   -8.4155 H   0  0  0  0  0  0  0  0  0  0  0  0
    4.3975  -10.4116   -8.2152 H   0  0  0  0  0  0  0  0  0  0  0  0
    4.2391  -11.6961   -8.3987 H   0  0  0  0  0  0  0  0  0  0  0  0
    4.1148   -8.7708   -6.7619 H   0  0  0  0  0  0  0  0  0  0  0  0
    2.6386   -8.6621   -6.2680 H   0  0  0  0  0  0  0  0  0  0  0  0
    5.2679  -15.1906  -10.4404 H   0  0  0  0  0  0  0  0  0  0  0  0
    3.5310  -15.2692  -10.1310 H   0  0  0  0  0  0  0  0  0  0  0  0
    6.2891   -9.7599   -4.5690 H   0  0  0  0  0  0  0  0  0  0  0  0
    5.5914   -8.8115   -5.6497 H   0  0  0  0  0  0  0  0  0  0  0  0
    7.9530  -13.8987   -6.7771 H   0  0  0  0  0  0  0  0  0  0  0  0
    7.1595  -13.3766   -5.6122 H   0  0  0  0  0  0  0  0  0  0  0  0
    0.9124  -11.5434   -6.9048 H   0  0  0  0  0  0  0  0  0  0  0  0
    1.8272  -12.4974   -7.7579 H   0  0  0  0  0  0  0  0  0  0  0  0
    4.6727   -8.9636   -2.1520 H   0  0  0  0  0  0  0  0  0  0  0  0
    4.8737  -10.4519   -0.2686 H   0  0  0  0  0  0  0  0  0  0  0  0
   -0.6273   -3.2797   -1.3789 H   0  0  0  0  0  0  0  0  0  0  0  0
   -2.2564   -5.1336   -1.1466 H   0  0  0  0  0  0  0  0  0  0  0  0
    3.6179  -13.0137  -10.7443 H   0  0  0  0  0  0  0  0  0  0  0  0
    3.8074  -12.6735   -9.6494 H   0  0  0  0  0  0  0  0  0  0  0  0
    6.7959  -11.3891   -6.2044 H   0  0  0  0  0  0  0  0  0  0  0  0
    7.6089  -10.0147   -7.2723 H   0  0  0  0  0  0  0  0  0  0  0  0
    6.4226   -9.8740   -2.0769 H   0  0  0  0  0  0  0  0  0  0  0  0
    5.8193   -9.7001    1.8733 H   0  0  0  0  0  0  0  0  0  0  0  0
   -0.6727   -5.0129   -3.1885 H   0  0  0  0  0  0  0  0  0  0  0  0
    0.0114   -6.4594    0.3732 H   0  0  0  0  0  0  0  0  0  0  0  0
    8.5658  -11.4637   -7.8263 H   0  0  0  0  0  0  0  0  0  0  0  0
    9.3274  -12.0852   -6.2518 H   0  0  0  0  0  0  0  0  0  0  0  0
    1.4356  -13.2329   -5.3476 H   0  0  0  0  0  0  0  0  0  0  0  0
    2.9795  -13.2358   -5.4619 H   0  0  0  0  0  0  0  0  0  0  0  0
    8.1553   -9.5058    1.1959 H   0  0  0  0  0  0  0  0  0  0  0  0
   -0.1027   -8.1399   -1.3440 H   0  0  0  0  0  0  0  0  0  0  0  0
    5.3376  -12.1427   -9.4642 H   0  0  0  0  0  0  0  0  0  0  0  0
    6.1290  -12.4560   -9.0939 H   0  0  0  0  0  0  0  0  0  0  0  0
    5.8302  -11.2588   -7.8913 H   0  0  0  0  0  0  0  0  0  0  0  0
    7.0726  -10.9051   -8.4644 H   0  0  0  0  0  0  0  0  0  0  0  0
    6.4774   -8.3726   -3.7693 H   0  0  0  0  0  0  0  0  0  0  0  0
    7.3649   -7.2826   -2.9319 H   0  0  0  0  0  0  0  0  0  0  0  0
    0.9713   -3.1627   -3.3429 H   0  0  0  0  0  0  0  0  0  0  0  0
    2.1730   -4.1368   -2.4738 H   0  0  0  0  0  0  0  0  0  0  0  0
    7.3728   -9.1802   -6.0821 H   0  0  0  0  0  0  0  0  0  0  0  0
    8.5111   -9.1907   -5.7036 H   0  0  0  0  0  0  0  0  0  0  0  0
    2.7269  -12.0629   -3.3000 H   0  0  0  0  0  0  0  0  0  0  0  0
    3.3416  -11.4256   -4.1709 H   0  0  0  0  0  0  0  0  0  0  0  0
    7.6954  -11.0185   -2.2695 H   0  0  0  0  0  0  0  0  0  0  0  0
    0.5327   -8.2694   -3.4254 H   0  0  0  0  0  0  0  0  0  0  0  0
    5.3733  -12.8268    0.7954 H   0  0  0  0  0  0  0  0  0  0  0  0
   -3.6136   -7.4230   -4.1361 H   0  0  0  0  0  0  0  0  0  0  0  0
    4.4530  -13.6117   -3.2352 H   0  0  0  0  0  0  0  0  0  0  0  0
   -1.3661   -9.8488   -6.8894 H   0  0  0  0  0  0  0  0  0  0  0  0
    7.8780  -12.6004  -16.4618 H   0  0  0  0  0  0  0  0  0  0  0  0
    9.3933  -12.0089  -15.8487 H   0  0  0  0  0  0  0  0  0  0  0  0
    5.7531  -11.7691  -10.8027 H   0  0  0  0  0  0  0  0  0  0  0  0
    7.5249  -11.9224   -9.6705 H   0  0  0  0  0  0  0  0  0  0  0  0
    9.9090  -14.0381  -17.0379 H   0  0  0  0  0  0  0  0  0  0  0  0
   10.1912  -14.3162  -15.2153 H   0  0  0  0  0  0  0  0  0  0  0  0
    5.7024  -13.2421  -12.8597 H   0  0  0  0  0  0  0  0  0  0  0  0
    6.1594  -14.0894  -11.3679 H   0  0  0  0  0  0  0  0  0  0  0  0
    9.2514  -16.3854  -16.4210 H   0  0  0  0  0  0  0  0  0  0  0  0
    8.8985  -15.2563  -15.3250 H   0  0  0  0  0  0  0  0  0  0  0  0
    9.6997  -13.4981  -12.6398 H   0  0  0  0  0  0  0  0  0  0  0  0
    9.0831  -14.0053  -13.2930 H   0  0  0  0  0  0  0  0  0  0  0  0
    6.7301  -13.4962  -16.9847 H   0  0  0  0  0  0  0  0  0  0  0  0
    5.3587  -14.4383  -17.3118 H   0  0  0  0  0  0  0  0  0  0  0  0
   10.1937  -13.7202   -9.0471 H   0  0  0  0  0  0  0  0  0  0  0  0
    8.8639  -13.0511   -9.3325 H   0  0  0  0  0  0  0  0  0  0  0  0
    5.2136  -13.3373  -14.8472 H   0  0  0  0  0  0  0  0  0  0  0  0
    5.4119  -14.5655  -14.6011 H   0  0  0  0  0  0  0  0  0  0  0  0
   10.6823  -12.1776  -10.4316 H   0  0  0  0  0  0  0  0  0  0  0  0
    9.9816  -10.9714   -9.0379 H   0  0  0  0  0  0  0  0  0  0  0  0
    8.3312  -16.7557  -15.1525 H   0  0  0  0  0  0  0  0  0  0  0  0
    8.8358  -16.1218  -13.4728 H   0  0  0  0  0  0  0  0  0  0  0  0
    9.6342  -10.9406  -14.4007 H   0  0  0  0  0  0  0  0  0  0  0  0
    9.9907  -12.0245  -13.1021 H   0  0  0  0  0  0  0  0  0  0  0  0
    7.7158  -18.4119  -14.7624 H   0  0  0  0  0  0  0  0  0  0  0  0
    6.6885  -17.9502  -13.4339 H   0  0  0  0  0  0  0  0  0  0  0  0
   11.6675  -10.9574  -13.8280 H   0  0  0  0  0  0  0  0  0  0  0  0
   10.7875  -12.4753  -14.3282 H   0  0  0  0  0  0  0  0  0  0  0  0
    4.4844  -15.5879  -15.0987 H   0  0  0  0  0  0  0  0  0  0  0  0
    3.9417  -16.2576  -15.8309 H   0  0  0  0  0  0  0  0  0  0  0  0
   12.3118  -12.4925  -10.2812 H   0  0  0  0  0  0  0  0  0  0  0  0
   11.8776  -11.3573   -9.9545 H   0  0  0  0  0  0  0  0  0  0  0  0
    3.8270  -15.3817  -13.2170 H   0  0  0  0  0  0  0  0  0  0  0  0
    3.6685  -17.1934  -13.2317 H   0  0  0  0  0  0  0  0  0  0  0  0
   13.3534  -10.1424  -11.7566 H   0  0  0  0  0  0  0  0  0  0  0  0
   12.1326   -9.6118  -10.2448 H   0  0  0  0  0  0  0  0  0  0  0  0
    4.9334  -16.6580  -11.3233 H   0  0  0  0  0  0  0  0  0  0  0  0
    6.0593  -17.3673  -12.2061 H   0  0  0  0  0  0  0  0  0  0  0  0
   11.3318   -9.4073  -13.2818 H   0  0  0  0  0  0  0  0  0  0  0  0
   11.9164   -8.1174  -12.4769 H   0  0  0  0  0  0  0  0  0  0  0  0
    5.5136  -10.9169  -13.4857 H   0  0  0  0  0  0  0  0  0  0  0  0
    7.3808  -13.9015  -12.7864 H   0  0  0  0  0  0  0  0  0  0  0  0
    6.8384  -11.6415  -13.0166 H   0  0  0  0  0  0  0  0  0  0  0  0
    5.0280  -10.0363  -10.7710 H   0  0  0  0  0  0  0  0  0  0  0  0
    5.6863  -10.5221  -10.1280 H   0  0  0  0  0  0  0  0  0  0  0  0
  1 66  1  0  0  0  0
  1 72  1  0  0  0  0
  2 68  1  0  0  0  0
  2 73  1  0  0  0  0
  3 72  1  0  0  0  0
  3 82  1  0  0  0  0
  4 83  1  0  0  0  0
  5 60  1  0  0  0  0
  5127  1  0  0  0  0
  6 61  1  0  0  0  0
  6128  1  0  0  0  0
  7129  1  0  0  0  0
  8130  1  0  0  0  0
  9 67  1  0  0  0  0
  9131  1  0  0  0  0
 10132  1  0  0  0  0
 11 76  1  0  0  0  0
 11133  1  0  0  0  0
 12 77  1  0  0  0  0
 12134  1  0  0  0  0
 13 87  1  0  0  0  0
 13135  1  0  0  0  0
 14 88  1  0  0  0  0
 14136  1  0  0  0  0
 15 92  2  0  0  0  0
 16 93  2  0  0  0  0
 17 96  2  0  0  0  0
 18 97  2  0  0  0  0
 19 43  1  0  0  0  0
 20 43  2  0  0  0  0
 21 44  1  0  0  0  0
 22 44  2  0  0  0  0
 23106  1  0  0  0  0
 23108  1  0  0  0  0
 24107  1  0  0  0  0
 24109  1  0  0  0  0
 25110  1  0  0  0  0
 25112  1  0  0  0  0
 26111  1  0  0  0  0
 26113  1  0  0  0  0
 27114  1  0  0  0  0
 27116  1  0  0  0  0
 28115  1  0  0  0  0
 28117  1  0  0  0  0
 29122  1  0  0  0  0
 29125  1  0  0  0  0
 30123  1  0  0  0  0
 30126  1  0  0  0  0
 31122  1  0  0  0  0
 31137  1  0  0  0  0
 32123  1  0  0  0  0
 32138  1  0  0  0  0
 33 48  1  0  0  0  0
 33 49  1  0  0  0  0
 33 56  1  0  0  0  0
 34 50  1  0  0  0  0
 34 51  1  0  0  0  0
 34 57  1  0  0  0  0
 35 52  1  0  0  0  0
 35 53  1  0  0  0  0
 35 58  1  0  0  0  0
 36 54  1  0  0  0  0
 36 55  1  0  0  0  0
 36 59  1  0  0  0  0
 37 74  1  0  0  0  0
 37 80  1  0  0  0  0
 37139  1  0  0  0  0
 38 75  1  0  0  0  0
 38 81  1  0  0  0  0
 38140  1  0  0  0  0
 39 78  1  0  0  0  0
 39 87  2  0  0  0  0
 40 79  1  0  0  0  0
 40 88  2  0  0  0  0
 41 84  1  0  0  0  0
 41102  1  0  0  0  0
 41141  1  0  0  0  0
 42 85  1  0  0  0  0
 42103  1  0  0  0  0
 42142  1  0  0  0  0
 43 99  1  0  0  0  0
 44101  1  0  0  0  0
 45120  1  0  0  0  0
 45122  2  0  0  0  0
 46121  1  0  0  0  0
 46123  2  0  0  0  0
 47124  1  0  0  0  0
 47143  1  0  0  0  0
 47144  1  0  0  0  0
 48 52  1  0  0  0  0
 48145  1  0  0  0  0
 48146  1  0  0  0  0
 49 53  1  0  0  0  0
 49147  1  0  0  0  0
 49148  1  0  0  0  0
 50 54  1  0  0  0  0
 50149  1  0  0  0  0
 50150  1  0  0  0  0
 51 55  1  0  0  0  0
 51151  1  0  0  0  0
 51152  1  0  0  0  0
 52153  1  0  0  0  0
 52154  1  0  0  0  0
 53155  1  0  0  0  0
 53156  1  0  0  0  0
 54157  1  0  0  0  0
 54158  1  0  0  0  0
 55159  1  0  0  0  0
 55160  1  0  0  0  0
 56 64  1  0  0  0  0
 56161  1  0  0  0  0
 56162  1  0  0  0  0
 57 65  1  0  0  0  0
 57163  1  0  0  0  0
 57164  1  0  0  0  0
 58 70  1  0  0  0  0
 58165  1  0  0  0  0
 58166  1  0  0  0  0
 59 71  1  0  0  0  0
 59167  1  0  0  0  0
 59168  1  0  0  0  0
 60 61  1  0  0  0  0
 60 66  1  0  0  0  0
 60169  1  0  0  0  0
 61 67  1  0  0  0  0
 61170  1  0  0  0  0
 62  7  1  0  0  0  0
 62 63  1  0  0  0  0
 62 68  1  0  0  0  0
 62171  1  6  0  0  0
 63  8  1  0  0  0  0
 63 69  1  0  0  0  0
 63172  1  6  0  0  0
 64 74  1  0  0  0  0
 64173  1  0  0  0  0
 64174  1  0  0  0  0
 65 75  1  0  0  0  0
 65175  1  0  0  0  0
 65176  1  0  0  0  0
 66 76  1  0  0  0  0
 66177  1  0  0  0  0
 67 72  1  0  0  0  0
 67178  1  0  0  0  0
 68 77  1  0  0  0  0
 68179  1  6  0  0  0
 69 73  1  0  0  0  0
 69180  1  1  0  0  0
 69 10  1  0  0  0  0
 70 78  1  0  0  0  0
 70181  1  0  0  0  0
 70182  1  0  0  0  0
 71 79  1  0  0  0  0
 71183  1  0  0  0  0
 71184  1  0  0  0  0
 72185  1  0  0  0  0
 73186  1  1  0  0  0
 73  4  1  0  0  0  0
 74187  1  0  0  0  0
 74188  1  0  0  0  0
 75189  1  0  0  0  0
 75190  1  0  0  0  0
 76191  1  0  0  0  0
 76192  1  0  0  0  0
 77193  1  0  0  0  0
 77194  1  0  0  0  0
 78195  1  0  0  0  0
 78196  1  0  0  0  0
 79197  1  0  0  0  0
 79198  1  0  0  0  0
 80 84  2  0  0  0  0
 80 92  1  0  0  0  0
 81 85  2  0  0  0  0
 81 93  1  0  0  0  0
 82 86  2  0  0  0  0
 82 94  1  0  0  0  0
 83 89  2  0  0  0  0
 83 95  1  0  0  0  0
 84 96  1  0  0  0  0
 85 97  1  0  0  0  0
 86 90  1  0  0  0  0
 86199  1  0  0  0  0
 87 90  1  0  0  0  0
 88 91  1  0  0  0  0
 89 91  1  0  0  0  0
 89200  1  0  0  0  0
 90 98  2  0  0  0  0
 91100  2  0  0  0  0
 92 96  1  0  0  0  0
 93 97  1  0  0  0  0
 94 99  2  0  0  0  0
 94201  1  0  0  0  0
 95101  2  0  0  0  0
 95202  1  0  0  0  0
 98 99  1  0  0  0  0
 98203  1  0  0  0  0
100101  1  0  0  0  0
100204  1  0  0  0  0
102104  1  0  0  0  0
102205  1  0  0  0  0
102206  1  0  0  0  0
103105  1  0  0  0  0
103207  1  0  0  0  0
103208  1  0  0  0  0
104106  1  0  0  0  0
104209  1  0  0  0  0
104210  1  0  0  0  0
105107  1  0  0  0  0
105211  1  0  0  0  0
105212  1  0  0  0  0
106213  1  0  0  0  0
106214  1  0  0  0  0
107215  1  0  0  0  0
107216  1  0  0  0  0
108110  1  0  0  0  0
108217  1  0  0  0  0
108218  1  0  0  0  0
109111  1  0  0  0  0
109219  1  0  0  0  0
109220  1  0  0  0  0
110221  1  0  0  0  0
110222  1  0  0  0  0
111223  1  0  0  0  0
111224  1  0  0  0  0
112114  1  0  0  0  0
112225  1  0  0  0  0
112226  1  0  0  0  0
113115  1  0  0  0  0
113227  1  0  0  0  0
113228  1  0  0  0  0
114229  1  0  0  0  0
114230  1  0  0  0  0
115231  1  0  0  0  0
115232  1  0  0  0  0
116118  1  0  0  0  0
116233  1  0  0  0  0
116234  1  0  0  0  0
117119  1  0  0  0  0
117235  1  0  0  0  0
117236  1  0  0  0  0
118120  1  0  0  0  0
118237  1  0  0  0  0
118238  1  0  0  0  0
119121  1  0  0  0  0
119239  1  0  0  0  0
119240  1  0  0  0  0
120241  1  0  0  0  0
120242  1  0  0  0  0
121243  1  0  0  0  0
121244  1  0  0  0  0
124125  1  0  0  0  0
124126  1  0  0  0  0
124245  1  0  0  0  0
125246  1  0  0  0  0
125247  1  0  0  0  0
126248  1  0  0  0  0
126249  1  0  0  0  0
M  CHG  4  19  -1  21  -1  43   1  44   1
M  END
>  <DRUGBANK_ID>
DB02572

>  <SECONDARY_ACCESSION_NUMBERS>
EXPT00782

>  <COMMON_NAME>
1,3-bis-([3-[3-[3-(4-{3-[3-nitro-5-(galactopyranosyloxy)-benzoylamino]-propyl}-piperazin-1-yl)-propylamino-3,4-dioxo-cyclobutenyl]-amino-propoxy-ethoxy-ethoxy]-propyl-]amino-carbonyloxy)-2-amino-propane

$$$$
