
 OpenBabel10282417143D

 15 14  0  0  1  0  0  0  0  0999 V2000
    1.0765    2.0494    1.1493 C   0  0  0  0  0  0  0  0  0  0  0  0
    1.5451    2.3956    2.5376 C   0  0  0  0  0  0  0  0  0  0  0  0
    0.3981    0.6737    1.1425 C   0  0  2  0  0  0  0  0  0  0  0  0
    0.8692   -0.1483   -0.0578 C   0  0  0  0  0  0  0  0  0  0  0  0
   -1.0775    0.7507    1.1569 N   0  0  0  0  0  0  0  0  0  0  0  0
    1.0236    1.9747    3.5652 O   0  0  0  0  0  0  0  0  0  0  0  0
    1.4751    0.2661   -1.0367 O   0  0  0  0  0  0  0  0  0  0  0  0
    0.5436   -1.4533    0.0408 O   0  0  0  0  0  0  0  0  0  0  0  0
    0.7173    0.1030    2.0225 H   0  0  0  0  0  0  0  0  0  0  0  0
    1.9789    2.0460    0.5269 H   0  0  0  0  0  0  0  0  0  0  0  0
    0.4416    2.8611    0.7730 H   0  0  0  0  0  0  0  0  0  0  0  0
    2.3788    3.1148    2.5907 H   0  0  0  0  0  0  0  0  0  0  0  0
   -1.3771    1.2849    1.9734 H   0  0  0  0  0  0  0  0  0  0  0  0
   -1.4260    1.2287    0.3297 H   0  0  0  0  0  0  0  0  0  0  0  0
    0.8413   -1.8548   -0.7990 H   0  0  0  0  0  0  0  0  0  0  0  0
  1 10  1  0  0  0  0
  1 11  1  0  0  0  0
  2  1  1  0  0  0  0
  2 12  1  0  0  0  0
  3  5  1  0  0  0  0
  3  9  1  1  0  0  0
  3  4  1  0  0  0  0
  3  1  1  0  0  0  0
  5 13  1  0  0  0  0
  5 14  1  0  0  0  0
  6  2  2  0  0  0  0
  7  4  2  0  0  0  0
  8  4  1  0  0  0  0
  8 15  1  0  0  0  0
M  END
>  <DRUGBANK_ID>
DB04498

>  <SECONDARY_ACCESSION_NUMBERS>
EXPT00566

>  <COMMON_NAME>
Aspartate Semialdehyde

$$$$
