
 OpenBabel10282417133D

 20 20  0  0  0  0  0  0  0  0999 V2000
    0.9002   -0.0947    0.1152 C   0  0  0  0  0  0  0  0  0  0  0  0
    0.3994   -1.4770   -0.3760 C   0  0  1  0  0  0  0  0  0  0  0  0
    1.0028   -2.6184    0.4699 C   0  0  0  0  0  0  0  0  0  0  0  0
    0.0931   -3.4499    1.0428 O   0  0  0  0  0  0  0  0  0  0  0  0
    2.2061   -2.7654    0.6643 O   0  0  0  0  0  0  0  0  0  0  0  0
   -1.0822   -1.5226   -0.4275 N   0  0  0  0  0  0  0  0  0  0  0  0
    0.4334    0.2393    1.5206 C   0  0  0  0  0  0  0  0  0  0  0  0
   -0.0079   -0.6205    2.5065 C   0  0  0  0  0  0  0  0  0  0  0  0
   -0.3869    0.0081    3.7062 C   0  0  0  0  0  0  0  0  0  0  0  0
   -0.1968    1.3631    3.6337 C   0  0  0  0  0  0  0  0  0  0  0  0
    0.4105    1.8534    2.1031 S   0  0  0  0  0  0  0  0  0  0  0  0
    0.5550    0.6760   -0.5915 H   0  0  0  0  0  0  0  0  0  0  0  0
    1.9981   -0.0655    0.0853 H   0  0  0  0  0  0  0  0  0  0  0  0
    0.7574   -1.6505   -1.3976 H   0  0  0  0  0  0  0  0  0  0  0  0
   -0.8223   -3.1222    0.9525 H   0  0  0  0  0  0  0  0  0  0  0  0
   -1.4449   -2.4147   -0.7447 H   0  0  0  0  0  0  0  0  0  0  0  0
   -1.5103   -1.1998    0.4382 H   0  0  0  0  0  0  0  0  0  0  0  0
   -0.0772   -1.6855    2.4191 H   0  0  0  0  0  0  0  0  0  0  0  0
   -0.7565   -0.5369    4.5648 H   0  0  0  0  0  0  0  0  0  0  0  0
   -0.3854    2.0797    4.4184 H   0  0  0  0  0  0  0  0  0  0  0  0
  1  2  1  0  0  0  0
  1  7  1  0  0  0  0
  1 12  1  0  0  0  0
  1 13  1  0  0  0  0
  2  3  1  0  0  0  0
  2  6  1  0  0  0  0
  2 14  1  6  0  0  0
  3  4  1  0  0  0  0
  3  5  2  0  0  0  0
  4 15  1  0  0  0  0
  6 16  1  0  0  0  0
  6 17  1  0  0  0  0
  7  8  2  0  0  0  0
  7 11  1  0  0  0  0
  8  9  1  0  0  0  0
  8 18  1  0  0  0  0
  9 10  2  0  0  0  0
  9 19  1  0  0  0  0
 10 20  1  0  0  0  0
 11 10  1  0  0  0  0
M  END
>  <DRUGBANK_ID>
DB03673

>  <SECONDARY_ACCESSION_NUMBERS>
EXPT03063

>  <COMMON_NAME>
beta-2-Thienyl-L-alanine

>  <CAS_NUMBER>
22951-96-8

>  <UNII>
2EMW41BM77

>  <SYNONYMS>
beta-(2-Thienyl)-L-alanine; L-3-(2-thienyl)alanine

$$$$
