MPE
 OpenBabel10282417133D

 32 33  0  0  0  0  0  0  0  0999 V2000
    2.1633    2.7125   -2.4568 O   0  0  0  0  0  0  0  0  0  0  0  0
    2.2286    1.5826   -1.9529 C   0  0  0  0  0  0  0  0  0  0  0  0
    2.3504    0.5108   -2.7780 O   0  0  0  0  0  0  0  0  0  0  0  0
    2.4620    1.2928   -0.4731 C   0  0  2  0  0  0  0  0  0  0  0  0
    2.1763   -0.0742    0.0337 N   0  0  0  0  0  0  0  0  0  0  0  0
    3.1335   -0.9704   -0.6324 O   0  0  0  0  0  0  0  0  0  0  0  0
    4.4232   -1.0220    0.0509 C   0  0  0  0  0  0  0  0  0  0  0  0
    5.4536    0.0875   -0.3259 C   0  0  0  0  0  0  0  0  0  0  0  0
    5.5712    1.6443    0.6409 S   0  0  0  0  0  0  0  0  0  0  0  0
    2.3447    2.4019    0.5712 C   0  0  0  0  0  0  0  0  0  0  0  0
    2.0167    2.3051    1.9204 C   0  0  0  0  0  0  0  0  0  0  0  0
    2.1488    3.5439    2.5105 N   0  0  0  0  0  0  0  0  0  0  0  0
    2.6094    4.4662    1.5990 C   0  0  0  0  0  0  0  0  0  0  0  0
    2.8906    5.8406    1.7281 C   0  0  0  0  0  0  0  0  0  0  0  0
    2.8228    3.7711    0.4088 C   0  0  0  0  0  0  0  0  0  0  0  0
    3.4905    4.4703   -0.6274 C   0  0  0  0  0  0  0  0  0  0  0  0
    3.7355    5.8388   -0.5408 C   0  0  0  0  0  0  0  0  0  0  0  0
    3.4071    6.5228    0.6165 C   0  0  0  0  0  0  0  0  0  0  0  0
    3.5121    1.2052   -0.5979 H   0  0  0  0  0  0  0  0  0  0  0  0
    2.5358   -0.3209   -2.2925 H   0  0  0  0  0  0  0  0  0  0  0  0
    1.2509   -0.3718   -0.2918 H   0  0  0  0  0  0  0  0  0  0  0  0
    4.3135   -1.1811    1.1281 H   0  0  0  0  0  0  0  0  0  0  0  0
    4.8682   -1.9430   -0.3519 H   0  0  0  0  0  0  0  0  0  0  0  0
    6.4555   -0.2926   -0.1455 H   0  0  0  0  0  0  0  0  0  0  0  0
    5.3571    0.3350   -1.3906 H   0  0  0  0  0  0  0  0  0  0  0  0
    4.7489    2.3831   -0.1311 H   0  0  0  0  0  0  0  0  0  0  0  0
    1.7472    1.4517    2.5324 H   0  0  0  0  0  0  0  0  0  0  0  0
    1.9836    3.7439    3.4886 H   0  0  0  0  0  0  0  0  0  0  0  0
    2.7051    6.3802    2.6511 H   0  0  0  0  0  0  0  0  0  0  0  0
    3.8425    3.9604   -1.5179 H   0  0  0  0  0  0  0  0  0  0  0  0
    4.1798    6.3497   -1.3916 H   0  0  0  0  0  0  0  0  0  0  0  0
    3.5789    7.5957    0.6575 H   0  0  0  0  0  0  0  0  0  0  0  0
  1  2  2  0  0  0  0
  2  3  1  0  0  0  0
  3 20  1  0  0  0  0
  4 10  1  0  0  0  0
  4 19  1  6  0  0  0
  4  5  1  0  0  0  0
  4  2  1  0  0  0  0
  5  6  1  0  0  0  0
  5 21  1  0  0  0  0
  6  7  1  0  0  0  0
  7  8  1  0  0  0  0
  7 22  1  0  0  0  0
  7 23  1  0  0  0  0
  8  9  1  0  0  0  0
  8 24  1  0  0  0  0
  8 25  1  0  0  0  0
  9 26  1  0  0  0  0
 10 11  2  0  0  0  0
 10 15  1  0  0  0  0
 11 12  1  0  0  0  0
 11 27  1  0  0  0  0
 12 13  1  0  0  0  0
 12 28  1  0  0  0  0
 13 14  1  0  0  0  0
 13 15  2  0  0  0  0
 14 18  2  0  0  0  0
 14 29  1  0  0  0  0
 15 16  1  0  0  0  0
 16 17  2  0  0  0  0
 16 30  1  0  0  0  0
 17 18  1  0  0  0  0
 17 31  1  0  0  0  0
 18 32  1  0  0  0  0
M  END
>  <DRUGBANK_ID>
DB03455

>  <SECONDARY_ACCESSION_NUMBERS>
EXPT02219

>  <COMMON_NAME>
(1H-indol-3-yl)-(2-mercapto-ethoxyimino)-acetic acid

$$$$
