
 OpenBabel10282417203D

 43 45  0  0  1  0  0  0  0  0999 V2000
    8.5406    0.0632   -4.1844 C   0  0  0  0  0  0  0  0  0  0  0  0
    8.3703   -0.5281   -2.8899 O   0  0  0  0  0  0  0  0  0  0  0  0
    7.0542   -0.6831   -2.5089 C   0  0  0  0  0  0  0  0  0  0  0  0
    6.1532   -1.2884   -3.3730 C   0  0  0  0  0  0  0  0  0  0  0  0
    4.8120   -1.4358   -3.0014 C   0  0  0  0  0  0  0  0  0  0  0  0
    4.3828   -1.0059   -1.7568 C   0  0  0  0  0  0  0  0  0  0  0  0
    5.2830   -0.4580   -0.8474 C   0  0  0  0  0  0  0  0  0  0  0  0
    6.6427   -0.2997   -1.2056 C   0  0  0  0  0  0  0  0  0  0  0  0
    7.6724    0.1947   -0.4477 O   0  0  0  0  0  0  0  0  0  0  0  0
    7.3949    0.6289    0.8666 C   0  0  0  0  0  0  0  0  0  0  0  0
    4.4021   -0.0154    0.7879 Br  0  0  0  0  0  0  0  0  0  0  0  0
    3.8078   -2.0399   -3.9497 C   0  0  2  0  0  0  0  0  0  0  0  0
    4.1920   -3.4656   -4.2492 C   0  0  0  0  0  0  0  0  0  0  0  0
    4.2613   -4.4042   -3.2099 C   0  0  0  0  0  0  0  0  0  0  0  0
    4.7390   -5.6860   -3.4493 C   0  0  0  0  0  0  0  0  0  0  0  0
    5.1497   -6.0653   -4.7328 C   0  0  0  0  0  0  0  0  0  0  0  0
    5.0524   -5.1375   -5.8021 C   0  0  0  0  0  0  0  0  0  0  0  0
    4.5911   -3.8285   -5.5383 C   0  0  0  0  0  0  0  0  0  0  0  0
    4.5656   -2.9161   -6.5784 O   0  0  0  0  0  0  0  0  0  0  0  0
    4.1112   -1.6119   -6.3706 C   0  0  0  0  0  0  0  0  0  0  0  0
    3.7389   -1.1649   -5.1481 C   0  0  0  0  0  0  0  0  0  0  0  0
    3.2665    0.2724   -5.0018 C   0  0  0  0  0  0  0  0  0  0  0  0
    2.8745    1.4647   -4.8804 N   0  0  0  0  0  0  0  0  0  0  0  0
    4.0971   -0.8438   -7.4961 N   0  0  0  0  0  0  0  0  0  0  0  0
    5.6031   -5.4501   -7.0572 N   0  0  0  0  0  0  0  0  0  0  0  0
    5.5742   -7.3764   -4.9246 N   0  0  0  0  0  0  0  0  0  0  0  0
    9.6133    0.2020   -4.3558 H   0  0  0  0  0  0  0  0  0  0  0  0
    8.0614    1.0471   -4.2297 H   0  0  0  0  0  0  0  0  0  0  0  0
    8.1757   -0.5736   -4.9984 H   0  0  0  0  0  0  0  0  0  0  0  0
    6.4862   -1.6673   -4.3371 H   0  0  0  0  0  0  0  0  0  0  0  0
    3.3315   -1.1143   -1.4941 H   0  0  0  0  0  0  0  0  0  0  0  0
    6.7045    1.4771    0.8464 H   0  0  0  0  0  0  0  0  0  0  0  0
    7.0420   -0.2038    1.4828 H   0  0  0  0  0  0  0  0  0  0  0  0
    8.3198    0.9857    1.3224 H   0  0  0  0  0  0  0  0  0  0  0  0
    2.8047   -2.0705   -3.5010 H   0  0  0  0  0  0  0  0  0  0  0  0
    3.9898   -4.1248   -2.1928 H   0  0  0  0  0  0  0  0  0  0  0  0
    4.8153   -6.3816   -2.6179 H   0  0  0  0  0  0  0  0  0  0  0  0
    4.4334   -1.2469   -8.3668 H   0  0  0  0  0  0  0  0  0  0  0  0
    3.8241    0.1314   -7.4815 H   0  0  0  0  0  0  0  0  0  0  0  0
    5.3773   -4.8251   -7.8218 H   0  0  0  0  0  0  0  0  0  0  0  0
    5.7556   -6.4203   -7.2835 H   0  0  0  0  0  0  0  0  0  0  0  0
    5.9390   -7.6711   -5.8156 H   0  0  0  0  0  0  0  0  0  0  0  0
    5.6783   -7.9973   -4.1351 H   0  0  0  0  0  0  0  0  0  0  0  0
  1  2  1  0  0  0  0
  1 27  1  0  0  0  0
  1 28  1  0  0  0  0
  1 29  1  0  0  0  0
  2  3  1  0  0  0  0
  3  4  2  0  0  0  0
  3  8  1  0  0  0  0
  4  5  1  0  0  0  0
  4 30  1  0  0  0  0
  5  6  2  0  0  0  0
  6  7  1  0  0  0  0
  6 31  1  0  0  0  0
  7  8  2  0  0  0  0
  7 11  1  0  0  0  0
  8  9  1  0  0  0  0
  9 10  1  0  0  0  0
 10 32  1  0  0  0  0
 10 33  1  0  0  0  0
 10 34  1  0  0  0  0
 12 13  1  0  0  0  0
 12 21  1  0  0  0  0
 12 35  1  1  0  0  0
 12  5  1  0  0  0  0
 13 14  2  0  0  0  0
 13 18  1  0  0  0  0
 14 15  1  0  0  0  0
 14 36  1  0  0  0  0
 15 16  2  0  0  0  0
 15 37  1  0  0  0  0
 16 17  1  0  0  0  0
 16 26  1  0  0  0  0
 17 18  2  0  0  0  0
 17 25  1  0  0  0  0
 18 19  1  0  0  0  0
 19 20  1  0  0  0  0
 20 21  2  0  0  0  0
 20 24  1  0  0  0  0
 21 22  1  0  0  0  0
 22 23  3  0  0  0  0
 24 38  1  0  0  0  0
 24 39  1  0  0  0  0
 25 40  1  0  0  0  0
 25 41  1  0  0  0  0
 26 42  1  0  0  0  0
 26 43  1  0  0  0  0
M  END
>  <DRUGBANK_ID>
DB12925

>  <COMMON_NAME>
Crolibulin

>  <CAS_NUMBER>
1000852-17-4

>  <UNII>
9ENT43KY91

>  <SYNONYMS>
Crolibulin

$$$$
