
 OpenBabel10282417133D

  8  7  0  0  0  0  0  0  0  0999 V2000
    0.9427   -0.0359   -0.0402 N   0  0  0  0  0  0  0  0  0  0  0  0
    0.3253   -1.1183    0.4672 C   0  0  0  0  0  0  0  0  0  0  0  0
   -1.0187   -1.0613    0.4405 N   0  0  0  0  0  0  0  0  0  0  0  0
    0.9360   -2.0761    0.9162 O   0  0  0  0  0  0  0  0  0  0  0  0
    0.4577    0.7621   -0.4143 H   0  0  0  0  0  0  0  0  0  0  0  0
    1.9536   -0.0407   -0.0379 H   0  0  0  0  0  0  0  0  0  0  0  0
   -1.5195   -1.8563    0.8132 H   0  0  0  0  0  0  0  0  0  0  0  0
   -1.5395   -0.2820    0.0752 H   0  0  0  0  0  0  0  0  0  0  0  0
  1  2  1  0  0  0  0
  1  5  1  0  0  0  0
  1  6  1  0  0  0  0
  2  3  1  0  0  0  0
  2  4  2  0  0  0  0
  3  7  1  0  0  0  0
  3  8  1  0  0  0  0
M  END
>  <DRUGBANK_ID>
DB03904

>  <SECONDARY_ACCESSION_NUMBERS>
EXPT03203

>  <COMMON_NAME>
Urea

>  <CAS_NUMBER>
57-13-6

>  <UNII>
8W8T17847W

>  <SYNONYMS>
Carbamide; Carbonyldiamide; Harnstoff; Karbamid; Urea; UrÃ©e

$$$$
