FL8
 OpenBabel10282417123D

 32 34  0  0  0  0  0  0  0  0999 V2000
   -2.8661    0.3719   -0.0054 Br  0  0  0  0  0  0  0  0  0  0  0  0
    2.8731    0.4014   -0.0200 Br  0  0  0  0  0  0  0  0  0  0  0  0
    0.6907   -4.7449    1.1395 O   0  0  0  0  0  0  0  0  0  0  0  0
    0.0327   -4.1133    0.0859 C   0  0  0  0  0  0  0  0  0  0  0  0
   -0.5535   -4.7554   -0.9435 C   0  0  0  0  0  0  0  0  0  0  0  0
   -0.5546   -6.2322   -0.9411 C   0  0  0  0  0  0  0  0  0  0  0  0
    0.0678   -6.8958    0.1987 C   0  0  0  0  0  0  0  0  0  0  0  0
    0.0342   -8.2888    0.2860 C   0  0  0  0  0  0  0  0  0  0  0  0
    0.4185   -8.8945    1.4685 C   0  0  0  0  0  0  0  0  0  0  0  0
    0.8923   -8.1299    2.5309 C   0  0  0  0  0  0  0  0  0  0  0  0
    1.1129   -6.7557    2.3530 C   0  0  0  0  0  0  0  0  0  0  0  0
    0.6330   -6.1202    1.2066 C   0  0  0  0  0  0  0  0  0  0  0  0
    0.0298   -2.6342    0.1388 C   0  0  0  0  0  0  0  0  0  0  0  0
   -1.1855   -1.9218    0.1325 C   0  0  0  0  0  0  0  0  0  0  0  0
   -1.1976   -0.5264    0.0742 C   0  0  0  0  0  0  0  0  0  0  0  0
    0.0013    0.1848    0.0525 C   0  0  0  0  0  0  0  0  0  0  0  0
    1.2124   -0.5141    0.0473 C   0  0  0  0  0  0  0  0  0  0  0  0
    1.2290   -1.9156    0.0838 C   0  0  0  0  0  0  0  0  0  0  0  0
    0.0059    1.5548    0.0410 O   0  0  0  0  0  0  0  0  0  0  0  0
   -1.2184   -4.1355   -2.1313 C   0  0  0  0  0  0  0  0  0  0  0  0
   -1.1010   -6.8796   -1.8349 O   0  0  0  0  0  0  0  0  0  0  0  0
    0.3132  -10.2501    1.5390 O   0  0  0  0  0  0  0  0  0  0  0  0
   -0.3281   -8.8879   -0.5456 H   0  0  0  0  0  0  0  0  0  0  0  0
    1.0809   -8.5812    3.5007 H   0  0  0  0  0  0  0  0  0  0  0  0
    1.6330   -6.1907    3.1220 H   0  0  0  0  0  0  0  0  0  0  0  0
   -2.1302   -2.4638    0.1132 H   0  0  0  0  0  0  0  0  0  0  0  0
    2.1768   -2.4482    0.0407 H   0  0  0  0  0  0  0  0  0  0  0  0
   -0.9171    1.8638    0.0909 H   0  0  0  0  0  0  0  0  0  0  0  0
   -0.7404   -4.4867   -3.0491 H   0  0  0  0  0  0  0  0  0  0  0  0
   -2.2807   -4.3983   -2.1450 H   0  0  0  0  0  0  0  0  0  0  0  0
   -1.1484   -3.0474   -2.1518 H   0  0  0  0  0  0  0  0  0  0  0  0
    0.7111  -10.5633    2.3671 H   0  0  0  0  0  0  0  0  0  0  0  0
  1 15  1  0  0  0  0
  2 17  1  0  0  0  0
  3  4  1  0  0  0  0
  3 12  1  0  0  0  0
  4  5  2  0  0  0  0
  4 13  1  0  0  0  0
  5  6  1  0  0  0  0
  5 20  1  0  0  0  0
  6  7  1  0  0  0  0
  6 21  2  0  0  0  0
  7  8  2  0  0  0  0
  7 12  1  0  0  0  0
  8  9  1  0  0  0  0
  8 23  1  0  0  0  0
  9 10  2  0  0  0  0
  9 22  1  0  0  0  0
 10 11  1  0  0  0  0
 10 24  1  0  0  0  0
 11 12  2  0  0  0  0
 11 25  1  0  0  0  0
 13 14  2  0  0  0  0
 13 18  1  0  0  0  0
 14 15  1  0  0  0  0
 14 26  1  0  0  0  0
 15 16  2  0  0  0  0
 16 17  1  0  0  0  0
 16 19  1  0  0  0  0
 17 18  2  0  0  0  0
 18 27  1  0  0  0  0
 19 28  1  0  0  0  0
 20 29  1  0  0  0  0
 20 30  1  0  0  0  0
 20 31  1  0  0  0  0
 22 32  1  0  0  0  0
M  END
>  <DRUGBANK_ID>
DB01838

>  <SECONDARY_ACCESSION_NUMBERS>
EXPT01439

>  <COMMON_NAME>
6,4'-Dihydroxy-3-Methyl-3',5'-Dibromoflavone

>  <UNII>
41L058NWH3

$$$$
