4RB
 OpenBabel10282417163D

 42 44  0  0  0  0  0  0  0  0999 V2000
   -0.5726   -1.3290   -1.6643 C   0  0  0  0  0  0  0  0  0  0  0  0
   -0.0004   -1.6741   -0.4313 C   0  0  0  0  0  0  0  0  0  0  0  0
    0.1659   -3.0200   -0.0588 C   0  0  0  0  0  0  0  0  0  0  0  0
    0.7874   -3.3064    1.2676 C   0  0  0  0  0  0  0  0  0  0  0  0
    0.9256   -4.5962    1.6223 O   0  0  0  0  0  0  0  0  0  0  0  0
    1.1462   -2.3992    2.0233 O   0  0  0  0  0  0  0  0  0  0  0  0
   -0.2906   -4.0127   -0.9323 C   0  0  0  0  0  0  0  0  0  0  0  0
   -0.9014   -3.6616   -2.1441 C   0  0  0  0  0  0  0  0  0  0  0  0
   -0.9834   -2.3244   -2.5527 C   0  0  0  0  0  0  0  0  0  0  0  0
   -1.4787   -2.0054   -3.8885 C   0  0  0  0  0  0  0  0  0  0  0  0
   -2.6829   -2.3262   -4.4872 C   0  0  0  0  0  0  0  0  0  0  0  0
   -2.7368   -1.9153   -5.7925 N   0  0  0  0  0  0  0  0  0  0  0  0
   -1.5694   -1.3546   -6.0177 C   0  0  0  0  0  0  0  0  0  0  0  0
   -1.0426   -0.7714   -7.1880 C   0  0  0  0  0  0  0  0  0  0  0  0
    0.2041   -0.2891   -7.1759 C   0  0  0  0  0  0  0  0  0  0  0  0
   -0.7560   -1.3821   -4.8965 N   0  0  0  0  0  0  0  0  0  0  0  0
    0.5217   -0.9127   -4.8098 N   0  0  0  0  0  0  0  0  0  0  0  0
    0.9916   -0.3787   -5.9056 C   0  0  0  0  0  0  0  0  0  0  0  0
    2.2639    0.1393   -5.9066 N   0  0  0  0  0  0  0  0  0  0  0  0
    3.1753    0.0290   -4.7696 C   0  0  2  0  0  0  0  0  0  0  0  0
    3.9251    1.3907   -4.6439 C   0  0  0  0  0  0  0  0  0  0  0  0
    5.3438    1.0951   -4.2614 C   0  0  0  0  0  0  0  0  0  0  0  0
    4.0579   -1.2758   -4.9430 C   0  0  0  0  0  0  0  0  0  0  0  0
    4.8939   -1.6528   -3.8385 O   0  0  0  0  0  0  0  0  0  0  0  0
    2.6119   -0.0832   -3.8348 H   0  0  0  0  0  0  0  0  0  0  0  0
   -0.6997   -0.2786   -1.9190 H   0  0  0  0  0  0  0  0  0  0  0  0
    0.3282   -0.8774    0.2361 H   0  0  0  0  0  0  0  0  0  0  0  0
    0.6292   -5.2795    0.9991 H   0  0  0  0  0  0  0  0  0  0  0  0
   -0.1859   -5.0699   -0.7254 H   0  0  0  0  0  0  0  0  0  0  0  0
   -1.2980   -4.4526   -2.7778 H   0  0  0  0  0  0  0  0  0  0  0  0
   -3.5153   -2.8448   -4.0311 H   0  0  0  0  0  0  0  0  0  0  0  0
   -1.6627   -0.7308   -8.0753 H   0  0  0  0  0  0  0  0  0  0  0  0
    0.6567    0.1655   -8.0475 H   0  0  0  0  0  0  0  0  0  0  0  0
    2.6602    0.4870   -6.7727 H   0  0  0  0  0  0  0  0  0  0  0  0
    3.8880    1.9978   -5.5597 H   0  0  0  0  0  0  0  0  0  0  0  0
    3.4646    2.0106   -3.8591 H   0  0  0  0  0  0  0  0  0  0  0  0
    5.7675    0.4631   -5.0489 H   0  0  0  0  0  0  0  0  0  0  0  0
    6.0404    1.9147   -4.1270 H   0  0  0  0  0  0  0  0  0  0  0  0
    5.2641    0.5956   -3.2922 H   0  0  0  0  0  0  0  0  0  0  0  0
    3.4019   -2.1386   -5.0740 H   0  0  0  0  0  0  0  0  0  0  0  0
    4.6663   -1.2167   -5.8554 H   0  0  0  0  0  0  0  0  0  0  0  0
    5.7188   -1.1378   -3.8155 H   0  0  0  0  0  0  0  0  0  0  0  0
  1  2  2  0  0  0  0
  1  9  1  0  0  0  0
  1 26  1  0  0  0  0
  2  3  1  0  0  0  0
  2 27  1  0  0  0  0
  3  4  1  0  0  0  0
  3  7  2  0  0  0  0
  4  5  1  0  0  0  0
  4  6  2  0  0  0  0
  5 28  1  0  0  0  0
  7  8  1  0  0  0  0
  7 29  1  0  0  0  0
  8  9  2  0  0  0  0
  8 30  1  0  0  0  0
  9 10  1  0  0  0  0
 10 11  2  0  0  0  0
 10 16  1  0  0  0  0
 11 12  1  0  0  0  0
 11 31  1  0  0  0  0
 12 13  2  0  0  0  0
 13 14  1  0  0  0  0
 13 16  1  0  0  0  0
 14 15  2  0  0  0  0
 14 32  1  0  0  0  0
 15 18  1  0  0  0  0
 15 33  1  0  0  0  0
 16 17  1  0  0  0  0
 17 18  2  0  0  0  0
 18 19  1  0  0  0  0
 19 34  1  0  0  0  0
 20 23  1  0  0  0  0
 20 25  1  1  0  0  0
 20 21  1  0  0  0  0
 20 19  1  0  0  0  0
 21 22  1  0  0  0  0
 21 35  1  0  0  0  0
 21 36  1  0  0  0  0
 22 37  1  0  0  0  0
 22 38  1  0  0  0  0
 22 39  1  0  0  0  0
 23 24  1  0  0  0  0
 23 40  1  0  0  0  0
 23 41  1  0  0  0  0
 24 42  1  0  0  0  0
M  END
>  <DRUGBANK_ID>
DB07125

>  <COMMON_NAME>
4-(6-{[(1R)-1-(hydroxymethyl)propyl]amino}imidazo[1,2-b]pyridazin-3-yl)benzoic acid

$$$$
