SM3
 OpenBabel10282417173D

 33 34  0  0  0  0  0  0  0  0999 V2000
   -2.0491   -3.4542    3.0968 C   0  0  0  0  0  0  0  0  0  0  0  0
   -2.9379   -3.4929    2.0172 C   0  0  0  0  0  0  0  0  0  0  0  0
   -3.5606   -2.2860    1.7985 C   0  0  0  0  0  0  0  0  0  0  0  0
   -3.0390   -1.0943    2.9280 S   0  0  0  0  0  0  0  0  0  0  0  0
   -2.0010   -2.2328    3.6938 C   0  0  0  0  0  0  0  0  0  0  0  0
   -1.1311   -1.9110    4.8980 C   0  0  0  0  0  0  0  0  0  0  0  0
   -0.1615   -0.7967    4.5393 C   0  0  0  0  0  0  0  0  0  0  0  0
   -0.1838    0.2975    5.1854 O   0  0  0  0  0  0  0  0  0  0  0  0
    0.8021   -0.9848    3.4452 N   0  0  0  0  0  0  0  0  0  0  0  0
    0.9059   -2.2474    2.6997 C   0  0  2  0  0  0  0  0  0  0  0  0
   -0.5485   -2.8956    2.5432 B   0  0  0  0  0  0  0  0  0  0  0  0
   -1.6757   -2.2273    3.2732 O   0  0  0  0  0  0  0  0  0  0  0  0
   -0.8180   -4.0958    1.6849 O   0  0  0  0  0  0  0  0  0  0  0  0
    1.8104   -3.2083    3.4540 C   0  0  0  0  0  0  0  0  0  0  0  0
    2.6876   -2.7810    4.3547 C   0  0  0  0  0  0  0  0  0  0  0  0
    1.6154   -4.5606    3.2262 C   0  0  0  0  0  0  0  0  0  0  0  0
    2.1913   -5.3968    4.2116 C   0  0  0  0  0  0  0  0  0  0  0  0
    3.1240   -5.0157    5.0654 C   0  0  0  0  0  0  0  0  0  0  0  0
    3.3157   -3.6682    5.1950 C   0  0  0  0  0  0  0  0  0  0  0  0
    1.3175   -2.0566    1.7306 H   0  0  0  0  0  0  0  0  0  0  0  0
   -1.4697   -4.2945    3.4183 H   0  0  0  0  0  0  0  0  0  0  0  0
   -3.1143   -4.3669    1.4255 H   0  0  0  0  0  0  0  0  0  0  0  0
   -4.2782   -2.1096    1.0246 H   0  0  0  0  0  0  0  0  0  0  0  0
   -1.7506   -1.5965    5.7117 H   0  0  0  0  0  0  0  0  0  0  0  0
   -0.5817   -2.7834    5.1844 H   0  0  0  0  0  0  0  0  0  0  0  0
    1.4528   -0.2370    3.2045 H   0  0  0  0  0  0  0  0  0  0  0  0
   -1.3216   -1.4502    3.7935 H   0  0  0  0  0  0  0  0  0  0  0  0
   -1.7937   -4.3131    1.7124 H   0  0  0  0  0  0  0  0  0  0  0  0
    2.9072   -1.7362    4.4267 H   0  0  0  0  0  0  0  0  0  0  0  0
    1.0780   -4.9385    2.3817 H   0  0  0  0  0  0  0  0  0  0  0  0
    1.8472   -6.4084    4.2691 H   0  0  0  0  0  0  0  0  0  0  0  0
    3.6987   -5.7234    5.6255 H   0  0  0  0  0  0  0  0  0  0  0  0
    3.9643   -3.2992    5.9619 H   0  0  0  0  0  0  0  0  0  0  0  0
  1  2  1  0  0  0  0
  1  5  2  0  0  0  0
  1 21  1  0  0  0  0
  2  3  2  0  0  0  0
  2 22  1  0  0  0  0
  3  4  1  0  0  0  0
  3 23  1  0  0  0  0
  4  5  1  0  0  0  0
  5  6  1  0  0  0  0
  6  7  1  0  0  0  0
  6 24  1  0  0  0  0
  6 25  1  0  0  0  0
  7  8  2  0  0  0  0
  7  9  1  0  0  0  0
  9 26  1  0  0  0  0
 10 14  1  0  0  0  0
 10 20  1  6  0  0  0
 10 11  1  0  0  0  0
 10  9  1  0  0  0  0
 11 12  1  0  0  0  0
 11 13  1  0  0  0  0
 12 27  1  0  0  0  0
 13 28  1  0  0  0  0
 14 15  2  0  0  0  0
 14 16  1  0  0  0  0
 15 19  1  0  0  0  0
 15 29  1  0  0  0  0
 16 17  2  0  0  0  0
 16 30  1  0  0  0  0
 17 18  1  0  0  0  0
 17 31  1  0  0  0  0
 18 19  2  0  0  0  0
 18 32  1  0  0  0  0
 19 33  1  0  0  0  0
M  END
>  <DRUGBANK_ID>
DB08552

>  <COMMON_NAME>
(1R)-1-(2-thienylacetylamino)-1-phenylmethylboronic acid

$$$$
