
 OpenBabel10282417103D

 53 56  0  0  1  0  0  0  0  0999 V2000
    0.6520   -1.9816   -1.7556 C   0  0  0  0  0  0  0  0  0  0  0  0
    4.5256   -1.8195   -3.6288 N   0  0  0  0  0  0  0  0  0  0  0  0
    2.9931   -0.9310   -1.8867 C   0  0  2  0  0  0  0  0  0  0  0  0
    2.9795    0.2281   -0.1799 C   0  0  2  0  0  0  0  0  0  0  0  0
    4.0494   -0.7235   -2.7846 C   0  0  1  0  0  0  0  0  0  0  0  0
    2.9246   -2.9162   -1.1229 C   0  0  0  0  0  0  0  0  0  0  0  0
    3.5122   -0.7598    1.1664 C   0  0  0  0  0  0  0  0  0  0  0  0
    1.5765   -0.0002   -0.0393 C   0  0  0  0  0  0  0  0  0  0  0  0
    3.7257    1.3628   -0.3495 O   0  0  0  0  0  0  0  0  0  0  0  0
    3.5376   -1.1563   -1.3436 C   0  0  0  0  0  0  0  0  0  0  0  0
    3.9212   -3.1806    0.0247 C   0  0  1  0  0  0  0  0  0  0  0  0
    3.8613   -2.1129    1.1723 C   0  0  0  0  0  0  0  0  0  0  0  0
    3.3877   -0.0573    2.3497 O   0  0  0  0  0  0  0  0  0  0  0  0
    1.8451   -1.2903   -0.6273 C   0  0  0  0  0  0  0  0  0  0  0  0
    0.6634    0.5933    0.4619 O   0  0  0  0  0  0  0  0  0  0  0  0
    4.9847   -1.5392   -1.0117 O   0  0  0  0  0  0  0  0  0  0  0  0
    3.6160   -4.6136    0.2521 C   0  0  1  0  0  0  0  0  0  0  0  0
    4.4164   -2.7198    2.3949 C   0  0  0  0  0  0  0  0  0  0  0  0
    4.4887   -5.0600    1.3113 C   0  0  0  0  0  0  0  0  0  0  0  0
    2.2861   -4.8546    0.6243 O   0  0  0  0  0  0  0  0  0  0  0  0
    4.8273   -4.1612    2.3479 C   0  0  0  0  0  0  0  0  0  0  0  0
    4.6587   -2.0610    3.4002 O   0  0  0  0  0  0  0  0  0  0  0  0
    4.8815   -6.3899    1.2545 C   0  0  0  0  0  0  0  0  0  0  0  0
    5.5878   -4.6512    3.3749 C   0  0  0  0  0  0  0  0  0  0  0  0
    5.6162   -6.8586    2.2997 C   0  0  0  0  0  0  0  0  0  0  0  0
    4.4231   -7.4571   -0.0373 Cl  0  0  0  0  0  0  0  0  0  0  0  0
    5.9611   -5.9929    3.3493 C   0  0  0  0  0  0  0  0  0  0  0  0
    5.9894   -3.8737    4.4217 O   0  0  0  0  0  0  0  0  0  0  0  0
    2.1305   -0.4478   -2.5216 H   0  0  0  0  0  0  0  0  0  0  0  0
    4.9693   -3.3110   -0.3096 H   0  0  0  0  0  0  0  0  0  0  0  0
    5.8323   -1.5516   -4.2026 C   0  0  0  0  0  0  0  0  0  0  0  0
    4.4028   -3.2646   -3.4057 C   0  0  0  0  0  0  0  0  0  0  0  0
   -0.4098   -2.5305   -1.4943 O   0  0  0  0  0  0  0  0  0  0  0  0
    1.2457   -2.3915   -2.9531 N   0  0  0  0  0  0  0  0  0  0  0  0
    4.5747    0.2458   -2.7114 H   0  0  0  0  0  0  0  0  0  0  0  0
    1.9845   -3.1513   -0.5398 H   0  0  0  0  0  0  0  0  0  0  0  0
    2.8455   -3.7634   -1.7696 H   0  0  0  0  0  0  0  0  0  0  0  0
    4.5806    0.9689   -0.5976 H   0  0  0  0  0  0  0  0  0  0  0  0
    2.9559    0.7916    2.1452 H   0  0  0  0  0  0  0  0  0  0  0  0
    5.3790   -1.8664   -1.8882 H   0  0  0  0  0  0  0  0  0  0  0  0
    3.8516   -5.1103   -0.7081 H   0  0  0  0  0  0  0  0  0  0  0  0
    2.2314   -5.7989    0.8278 H   0  0  0  0  0  0  0  0  0  0  0  0
    5.9029   -7.8997    2.2999 H   0  0  0  0  0  0  0  0  0  0  0  0
    6.5329   -6.3820    4.1759 H   0  0  0  0  0  0  0  0  0  0  0  0
    5.6143   -2.9618    4.3008 H   0  0  0  0  0  0  0  0  0  0  0  0
    6.6445   -1.8275   -3.5210 H   0  0  0  0  0  0  0  0  0  0  0  0
    5.9377   -2.1606   -5.1041 H   0  0  0  0  0  0  0  0  0  0  0  0
    5.9375   -0.4931   -4.4432 H   0  0  0  0  0  0  0  0  0  0  0  0
    5.0186   -3.6696   -2.5873 H   0  0  0  0  0  0  0  0  0  0  0  0
    3.3846   -3.5586   -3.2722 H   0  0  0  0  0  0  0  0  0  0  0  0
    4.5766   -3.8906   -4.2791 H   0  0  0  0  0  0  0  0  0  0  0  0
    2.2202   -2.2417   -2.8970 H   0  0  0  0  0  0  0  0  0  0  0  0
    1.2956   -3.3912   -3.1018 H   0  0  0  0  0  0  0  0  0  0  0  0
  1 33  2  0  0  0  0
  1 34  1  0  0  0  0
  2 31  1  0  0  0  0
  2 32  1  0  0  0  0
  3 29  1  1  0  0  0
  3  4  1  0  0  0  0
  3  5  1  0  0  0  0
  3  6  1  0  0  0  0
  4  7  1  0  0  0  0
  4  8  1  0  0  0  0
  4  9  1  6  0  0  0
  5 10  1  0  0  0  0
  5  2  1  0  0  0  0
  5 35  1  6  0  0  0
  6 11  1  0  0  0  0
  6 36  1  0  0  0  0
  6 37  1  0  0  0  0
  7 12  2  0  0  0  0
  7 13  1  0  0  0  0
  8 14  1  0  0  0  0
  8 15  2  0  0  0  0
  9 38  1  0  0  0  0
 10 14  2  0  0  0  0
 10 16  1  0  0  0  0
 11 12  1  0  0  0  0
 11 30  1  6  0  0  0
 11 17  1  0  0  0  0
 12 18  1  0  0  0  0
 13 39  1  0  0  0  0
 14  1  1  0  0  0  0
 16 40  1  0  0  0  0
 17 19  1  0  0  0  0
 17 41  1  6  0  0  0
 17 20  1  0  0  0  0
 18 21  1  0  0  0  0
 18 22  2  0  0  0  0
 19 23  1  0  0  0  0
 19 21  2  0  0  0  0
 20 42  1  0  0  0  0
 21 24  1  0  0  0  0
 23 25  2  0  0  0  0
 23 26  1  0  0  0  0
 24 27  2  0  0  0  0
 24 28  1  0  0  0  0
 25 27  1  0  0  0  0
 25 43  1  0  0  0  0
 27 44  1  0  0  0  0
 28 45  1  0  0  0  0
 31 46  1  0  0  0  0
 31 47  1  0  0  0  0
 31 48  1  0  0  0  0
 32 49  1  0  0  0  0
 32 50  1  0  0  0  0
 32 51  1  0  0  0  0
 34 52  1  0  0  0  0
 34 53  1  0  0  0  0
M  END
>  <DRUGBANK_ID>
DB00618

>  <SECONDARY_ACCESSION_NUMBERS>
APRD00272

>  <COMMON_NAME>
Demeclocycline

>  <CAS_NUMBER>
127-33-3

>  <UNII>
5R5W9ICI6O

>  <SYNONYMS>
[4S-(4α,4aα,5aα,6β,12aα)]-7-chloro-4-(dimethylamino)1,4,4a,5,5a,6,11,12a-octahydro-3,6,10,12,12a-pentahydroxy-1,11-dioxo-2-naphthacenecarboxamide; 6-demethyl-7-chlorotetracycline; 7-chloro-6-demethyltetracycline; Demeclociclina; Demeclocycline; Demeclocyclinum; Demethylchlortetracyclin; Demethylchlortetracycline; DMCT; DMCTC

$$$$
