
 OpenBabel10282417113D

 76 79  0  0  0  0  0  0  0  0999 V2000
    1.3038   -0.4844    0.7523 C   0  0  0  0  0  0  0  0  0  0  0  0
    0.4016   -1.5162    0.6334 C   0  0  0  0  0  0  0  0  0  0  0  0
   -0.9694   -1.2347    0.5305 C   0  0  0  0  0  0  0  0  0  0  0  0
   -1.4346    0.0926    0.4670 C   0  0  0  0  0  0  0  0  0  0  0  0
   -0.5342    1.1653    0.5421 C   0  0  0  0  0  0  0  0  0  0  0  0
    0.8226    0.8153    0.7421 C   0  0  0  0  0  0  0  0  0  0  0  0
    0.8453    3.5018    2.0294 C   0  0  0  0  0  0  0  0  0  0  0  0
   -0.5263    3.2687    1.7896 C   0  0  0  0  0  0  0  0  0  0  0  0
   -0.9908    2.6446    0.4586 C   0  0  0  0  0  0  0  0  0  0  0  0
    1.3564    3.8268    3.2673 C   0  0  0  0  0  0  0  0  0  0  0  0
    0.4823    3.9351    4.3254 C   0  0  0  0  0  0  0  0  0  0  0  0
   -0.8887    3.7596    4.1249 C   0  0  0  0  0  0  0  0  0  0  0  0
   -1.3925    3.4045    2.8747 C   0  0  0  0  0  0  0  0  0  0  0  0
   -0.6440    3.6102   -0.7875 C   0  0  3  0  0  0  0  0  0  0  0  0
   -1.3202    3.2283   -2.1274 C   0  0  0  0  0  0  0  0  0  0  0  0
   -0.5876    2.0580   -2.7502 C   0  0  0  0  0  0  0  0  0  0  0  0
    0.8580    2.2064   -2.9893 N   0  0  0  0  0  0  0  0  0  0  0  0
    1.5109    2.6907   -1.7779 C   0  0  0  0  0  0  0  0  0  0  0  0
    0.8298    3.8853   -1.1381 C   0  0  0  0  0  0  0  0  0  0  0  0
   -2.4447    2.6123    0.4545 O   0  0  0  0  0  0  0  0  0  0  0  0
    1.5121    0.9282   -3.3877 C   0  0  0  0  0  0  0  0  0  0  0  0
    1.4128   -0.2866   -2.4466 C   0  0  0  0  0  0  0  0  0  0  0  0
    0.0099   -0.8720   -2.2852 C   0  0  0  0  0  0  0  0  0  0  0  0
   -0.8320   -1.1186   -3.5195 C   0  0  3  0  0  0  0  0  0  0  0  0
   -0.2520   -2.3910   -4.0412 C   0  0  0  0  0  0  0  0  0  0  0  0
   -2.2020   -1.2556   -3.1332 O   0  0  0  0  0  0  0  0  0  0  0  0
    1.0397   -2.3439   -4.5765 C   0  0  0  0  0  0  0  0  0  0  0  0
    1.7606   -3.4947   -4.7481 C   0  0  0  0  0  0  0  0  0  0  0  0
    1.1572   -4.7267   -4.4962 C   0  0  0  0  0  0  0  0  0  0  0  0
   -0.1115   -4.7697   -3.8967 C   0  0  0  0  0  0  0  0  0  0  0  0
   -0.8276   -3.6111   -3.7015 C   0  0  0  0  0  0  0  0  0  0  0  0
    1.7836   -6.0225   -4.9870 C   0  0  0  0  0  0  0  0  0  0  0  0
    2.0314   -6.9592   -3.8007 C   0  0  0  0  0  0  0  0  0  0  0  0
    1.3946   -8.1438   -3.8048 O   0  0  0  0  0  0  0  0  0  0  0  0
    2.7753   -6.6604   -2.8471 O   0  0  0  0  0  0  0  0  0  0  0  0
    0.8159   -6.5851   -6.0510 C   0  0  0  0  0  0  0  0  0  0  0  0
    3.1310   -5.7577   -5.6878 C   0  0  0  0  0  0  0  0  0  0  0  0
    2.3776   -0.6376    0.6398 H   0  0  0  0  0  0  0  0  0  0  0  0
    0.7862   -2.5044    0.3926 H   0  0  0  0  0  0  0  0  0  0  0  0
   -1.6491   -2.0405    0.2684 H   0  0  0  0  0  0  0  0  0  0  0  0
   -2.4720    0.2716    0.1835 H   0  0  0  0  0  0  0  0  0  0  0  0
    1.6137    1.5495    0.7327 H   0  0  0  0  0  0  0  0  0  0  0  0
    1.6082    3.3194    1.2887 H   0  0  0  0  0  0  0  0  0  0  0  0
    2.4304    3.9457    3.3739 H   0  0  0  0  0  0  0  0  0  0  0  0
    0.8781    4.1309    5.3131 H   0  0  0  0  0  0  0  0  0  0  0  0
   -1.5729    3.8660    4.9583 H   0  0  0  0  0  0  0  0  0  0  0  0
   -2.4501    3.1668    2.7835 H   0  0  0  0  0  0  0  0  0  0  0  0
   -1.0876    4.5819   -0.5204 H   0  0  0  0  0  0  0  0  0  0  0  0
   -2.3674    2.9437   -1.9668 H   0  0  0  0  0  0  0  0  0  0  0  0
   -1.3204    4.0675   -2.8301 H   0  0  0  0  0  0  0  0  0  0  0  0
   -0.7386    1.3530   -1.9677 H   0  0  0  0  0  0  0  0  0  0  0  0
   -1.1155    1.6941   -3.6326 H   0  0  0  0  0  0  0  0  0  0  0  0
    2.5856    2.8622   -1.8975 H   0  0  0  0  0  0  0  0  0  0  0  0
    1.4550    1.8766   -1.0961 H   0  0  0  0  0  0  0  0  0  0  0  0
    0.8912    4.7323   -1.8285 H   0  0  0  0  0  0  0  0  0  0  0  0
    1.3944    4.2296   -0.2808 H   0  0  0  0  0  0  0  0  0  0  0  0
   -2.7585    3.5114    0.6425 H   0  0  0  0  0  0  0  0  0  0  0  0
    1.1549    0.6568   -4.3815 H   0  0  0  0  0  0  0  0  0  0  0  0
    2.5876    1.1151   -3.5140 H   0  0  0  0  0  0  0  0  0  0  0  0
    2.0960   -1.0931   -2.7322 H   0  0  0  0  0  0  0  0  0  0  0  0
    1.8673   -0.0168   -1.5000 H   0  0  0  0  0  0  0  0  0  0  0  0
    0.0808   -1.8134   -1.7339 H   0  0  0  0  0  0  0  0  0  0  0  0
   -0.5917   -0.2679   -1.6495 H   0  0  0  0  0  0  0  0  0  0  0  0
   -0.7883   -0.3230   -4.2605 H   0  0  0  0  0  0  0  0  0  0  0  0
   -2.2275   -1.8207   -2.3417 H   0  0  0  0  0  0  0  0  0  0  0  0
    1.5555   -1.4069   -4.7614 H   0  0  0  0  0  0  0  0  0  0  0  0
    2.7836   -3.3811   -5.0936 H   0  0  0  0  0  0  0  0  0  0  0  0
   -0.5680   -5.7070   -3.5947 H   0  0  0  0  0  0  0  0  0  0  0  0
   -1.8116   -3.6644   -3.2480 H   0  0  0  0  0  0  0  0  0  0  0  0
    0.8050   -8.3309   -4.5586 H   0  0  0  0  0  0  0  0  0  0  0  0
    0.6487   -5.8672   -6.8649 H   0  0  0  0  0  0  0  0  0  0  0  0
    1.2091   -7.5060   -6.4883 H   0  0  0  0  0  0  0  0  0  0  0  0
   -0.1728   -6.8150   -5.6331 H   0  0  0  0  0  0  0  0  0  0  0  0
    3.0080   -5.0682   -6.5360 H   0  0  0  0  0  0  0  0  0  0  0  0
    3.8579   -5.3065   -4.9996 H   0  0  0  0  0  0  0  0  0  0  0  0
    3.5718   -6.6773   -6.0742 H   0  0  0  0  0  0  0  0  0  0  0  0
  1  2  2  0  0  0  0
  1  6  1  0  0  0  0
  1 38  1  0  0  0  0
  2  3  1  0  0  0  0
  2 39  1  0  0  0  0
  3  4  2  0  0  0  0
  3 40  1  0  0  0  0
  4  5  1  0  0  0  0
  4 41  1  0  0  0  0
  5  6  2  0  0  0  0
  5  9  1  0  0  0  0
  6 42  1  0  0  0  0
  7  8  1  0  0  0  0
  7 10  2  0  0  0  0
  7 43  1  0  0  0  0
  8  9  1  0  0  0  0
  8 13  2  0  0  0  0
  9 14  1  0  0  0  0
  9 20  1  0  0  0  0
 10 11  1  0  0  0  0
 10 44  1  0  0  0  0
 11 12  2  0  0  0  0
 11 45  1  0  0  0  0
 12 13  1  0  0  0  0
 12 46  1  0  0  0  0
 13 47  1  0  0  0  0
 14 15  1  0  0  0  0
 14 19  1  0  0  0  0
 14 48  1  0  0  0  0
 15 16  1  0  0  0  0
 15 49  1  0  0  0  0
 15 50  1  0  0  0  0
 16 17  1  0  0  0  0
 16 51  1  0  0  0  0
 16 52  1  0  0  0  0
 17 18  1  0  0  0  0
 17 21  1  0  0  0  0
 18 19  1  0  0  0  0
 18 53  1  0  0  0  0
 18 54  1  0  0  0  0
 19 55  1  0  0  0  0
 19 56  1  0  0  0  0
 20 57  1  0  0  0  0
 21 22  1  0  0  0  0
 21 58  1  0  0  0  0
 21 59  1  0  0  0  0
 22 23  1  0  0  0  0
 22 60  1  0  0  0  0
 22 61  1  0  0  0  0
 23 24  1  0  0  0  0
 23 62  1  0  0  0  0
 23 63  1  0  0  0  0
 24 25  1  0  0  0  0
 24 26  1  0  0  0  0
 24 64  1  0  0  0  0
 25 27  2  0  0  0  0
 25 31  1  0  0  0  0
 26 65  1  0  0  0  0
 27 28  1  0  0  0  0
 27 66  1  0  0  0  0
 28 29  2  0  0  0  0
 28 67  1  0  0  0  0
 29 30  1  0  0  0  0
 29 32  1  0  0  0  0
 30 31  2  0  0  0  0
 30 68  1  0  0  0  0
 31 69  1  0  0  0  0
 32 33  1  0  0  0  0
 32 36  1  0  0  0  0
 32 37  1  0  0  0  0
 33 34  1  0  0  0  0
 33 35  2  0  0  0  0
 34 70  1  0  0  0  0
 36 71  1  0  0  0  0
 36 72  1  0  0  0  0
 36 73  1  0  0  0  0
 37 74  1  0  0  0  0
 37 75  1  0  0  0  0
 37 76  1  0  0  0  0
M  END
>  <DRUGBANK_ID>
DB00950

>  <SECONDARY_ACCESSION_NUMBERS>
APRD00349

>  <COMMON_NAME>
Fexofenadine

>  <CAS_NUMBER>
83799-24-0

>  <UNII>
E6582LOH6V

>  <SYNONYMS>
4-(1-Hydroxy-4-(4-(hydroxydiphenylmethyl)-1-piperidinyl)butyl)-alpha,alpha-dimethylbenzeneacetic acid; Carboxyterfenadine; Fexofenadina; Fexofenadine; Terfenadine acid metabolite; Terfenadine carboxylate; Terfenadine-COOH

$$$$
