
 OpenBabel10282417193D

 57 61  0  0  0  0  0  0  0  0999 V2000
   -3.3739    0.0477    0.0012 C   0  0  0  0  0  0  0  0  0  0  0  0
   -1.8861    0.0236   -0.0019 C   0  0  0  0  0  0  0  0  0  0  0  0
   -1.1144    1.1692   -0.0044 N   0  0  0  0  0  0  0  0  0  0  0  0
    0.2325    0.8453   -0.0079 C   0  0  0  0  0  0  0  0  0  0  0  0
    1.4643    1.6591   -0.0069 C   0  0  0  0  0  0  0  0  0  0  0  0
    2.7163    1.0413   -0.0317 C   0  0  0  0  0  0  0  0  0  0  0  0
    2.5332   -0.4668   -0.0385 C   0  0  0  0  0  0  0  0  0  0  0  0
    1.3491   -1.2610   -0.0190 C   0  0  0  0  0  0  0  0  0  0  0  0
    0.1688   -0.5521   -0.0089 C   0  0  0  0  0  0  0  0  0  0  0  0
   -1.1192   -1.0401   -0.0011 N   0  0  0  0  0  0  0  0  0  0  0  0
    4.2783    1.5219    0.1165 C   0  0  0  0  0  0  0  0  0  0  0  0
    4.5935    0.4206    0.5345 O   0  0  0  0  0  0  0  0  0  0  0  0
    5.5900    2.6785   -0.0290 N   0  0  0  0  0  0  0  0  0  0  0  0
    7.4900    2.6432    0.5808 C   0  0  0  0  0  0  0  0  0  0  0  0
    7.7405    1.8290    1.8946 C   0  0  0  0  0  0  0  0  0  0  0  0
    6.3647    1.5787    1.5953 C   0  0  0  0  0  0  0  0  0  0  0  0
    5.7480    3.4320    1.6724 C   0  0  0  0  0  0  0  0  0  0  0  0
    5.3395    3.9141    0.2614 C   0  0  0  0  0  0  0  0  0  0  0  0
    5.8480    0.6516    2.6750 C   0  0  0  0  0  0  0  0  0  0  0  0
    6.0744   -0.7579    2.2381 C   0  0  0  0  0  0  0  0  0  0  0  0
    6.0595   -1.8873    3.0493 C   0  0  0  0  0  0  0  0  0  0  0  0
    6.1960   -3.0209    2.3519 N   0  0  0  0  0  0  0  0  0  0  0  0
    6.2908   -2.5952    1.0750 N   0  0  0  0  0  0  0  0  0  0  0  0
    6.3791   -1.2653    0.9720 C   0  0  0  0  0  0  0  0  0  0  0  0
    6.5696   -0.6039   -0.2607 C   0  0  0  0  0  0  0  0  0  0  0  0
    6.5426   -0.9939   -1.4559 O   0  0  0  0  0  0  0  0  0  0  0  0
    6.7142    0.7761   -0.1522 C   0  0  0  0  0  0  0  0  0  0  0  0
    6.3484   -3.4720   -0.0871 C   0  0  0  0  0  0  0  0  0  0  0  0
    5.1173   -3.2815   -1.0037 C   0  0  0  0  0  0  0  0  0  0  0  0
    7.6969   -3.3195   -0.8270 C   0  0  0  0  0  0  0  0  0  0  0  0
   -3.7478    0.5606    0.8927 H   0  0  0  0  0  0  0  0  0  0  0  0
   -3.7528    0.5676   -0.8843 H   0  0  0  0  0  0  0  0  0  0  0  0
   -3.7943   -0.9654   -0.0016 H   0  0  0  0  0  0  0  0  0  0  0  0
   -1.4869    2.1021   -0.0086 H   0  0  0  0  0  0  0  0  0  0  0  0
    1.3643    2.7309    0.0357 H   0  0  0  0  0  0  0  0  0  0  0  0
    3.4008   -1.1366   -0.0265 H   0  0  0  0  0  0  0  0  0  0  0  0
    1.3559   -2.3528   -0.0083 H   0  0  0  0  0  0  0  0  0  0  0  0
    7.9135    3.5964    0.9274 H   0  0  0  0  0  0  0  0  0  0  0  0
    8.2555    2.4080   -0.1493 H   0  0  0  0  0  0  0  0  0  0  0  0
    7.7921    2.3187    2.8857 H   0  0  0  0  0  0  0  0  0  0  0  0
    8.3144    0.8825    1.9270 H   0  0  0  0  0  0  0  0  0  0  0  0
    6.5554    4.1560    1.9173 H   0  0  0  0  0  0  0  0  0  0  0  0
    5.0174    3.5589    2.4522 H   0  0  0  0  0  0  0  0  0  0  0  0
    5.8852    4.1816   -0.6679 H   0  0  0  0  0  0  0  0  0  0  0  0
    4.5751    4.7162    0.2858 H   0  0  0  0  0  0  0  0  0  0  0  0
    6.4062    0.7689    3.6124 H   0  0  0  0  0  0  0  0  0  0  0  0
    4.8141    0.9222    2.9327 H   0  0  0  0  0  0  0  0  0  0  0  0
    5.9603   -1.8761    4.1256 H   0  0  0  0  0  0  0  0  0  0  0  0
    6.0287    1.0796   -0.9900 H   0  0  0  0  0  0  0  0  0  0  0  0
    7.6208    1.0155   -0.7321 H   0  0  0  0  0  0  0  0  0  0  0  0
    6.3052   -4.4798    0.3240 H   0  0  0  0  0  0  0  0  0  0  0  0
    4.9866   -2.2913   -1.4440 H   0  0  0  0  0  0  0  0  0  0  0  0
    5.1645   -3.9629   -1.8527 H   0  0  0  0  0  0  0  0  0  0  0  0
    4.1873   -3.4296   -0.4484 H   0  0  0  0  0  0  0  0  0  0  0  0
    8.5343   -3.4405   -0.1372 H   0  0  0  0  0  0  0  0  0  0  0  0
    7.7537   -4.0071   -1.6669 H   0  0  0  0  0  0  0  0  0  0  0  0
    7.9211   -2.3538   -1.2747 H   0  0  0  0  0  0  0  0  0  0  0  0
  1  2  1  0  0  0  0
  1 31  1  0  0  0  0
  1 32  1  0  0  0  0
  1 33  1  0  0  0  0
  2  3  1  0  0  0  0
  2 10  2  0  0  0  0
  3  4  1  0  0  0  0
  3 34  1  0  0  0  0
  4  5  2  0  0  0  0
  4  9  1  0  0  0  0
  5  6  1  0  0  0  0
  5 35  1  0  0  0  0
  6  7  2  0  0  0  0
  6 11  1  0  0  0  0
  7  8  1  0  0  0  0
  7 36  1  0  0  0  0
  8  9  2  0  0  0  0
  8 37  1  0  0  0  0
  9 10  1  0  0  0  0
 11 12  2  0  0  0  0
 11 13  1  0  0  0  0
 13 14  1  0  0  0  0
 13 18  1  0  0  0  0
 14 15  1  0  0  0  0
 14 38  1  0  0  0  0
 14 39  1  0  0  0  0
 15 16  1  0  0  0  0
 15 40  1  0  0  0  0
 15 41  1  0  0  0  0
 16 17  1  0  0  0  0
 16 19  1  0  0  0  0
 16 27  1  0  0  0  0
 17 18  1  0  0  0  0
 17 42  1  0  0  0  0
 17 43  1  0  0  0  0
 18 44  1  0  0  0  0
 18 45  1  0  0  0  0
 19 20  1  0  0  0  0
 19 46  1  0  0  0  0
 19 47  1  0  0  0  0
 20 21  1  0  0  0  0
 20 24  2  0  0  0  0
 21 22  2  0  0  0  0
 21 48  1  0  0  0  0
 22 23  1  0  0  0  0
 23 24  1  0  0  0  0
 23 28  1  0  0  0  0
 24 25  1  0  0  0  0
 25 26  2  0  0  0  0
 25 27  1  0  0  0  0
 27 49  1  0  0  0  0
 27 50  1  0  0  0  0
 28 29  1  0  0  0  0
 28 30  1  0  0  0  0
 28 51  1  0  0  0  0
 29 52  1  0  0  0  0
 29 53  1  0  0  0  0
 29 54  1  0  0  0  0
 30 55  1  0  0  0  0
 30 56  1  0  0  0  0
 30 57  1  0  0  0  0
M  END
>  <DRUGBANK_ID>
DB12096

>  <COMMON_NAME>
PF-05175157

>  <CAS_NUMBER>
1301214-47-0

>  <UNII>
P826WR56FI

$$$$
