
 OpenBabel10282417223D

 40 36  0  0  0  0  0  0  0  0999 V2000
    0.3775    0.7608    0.8727 C   0  0  0  0  0  0  0  0  0  0  0  0
   -0.2587   -0.8163    1.8293 C   0  0  0  0  0  0  0  0  0  0  0  0
   -1.1499   -0.9488    2.5324 O   0  0  0  0  0  0  0  0  0  0  0  0
    0.3794   -2.1406    1.4945 O   0  0  0  0  0  0  0  0  0  0  0  0
    0.0603    2.2766    0.5265 C   0  0  0  0  0  0  0  0  0  0  0  0
    0.8700    3.1451   -0.9295 C   0  0  0  0  0  0  0  0  0  0  0  0
    0.7871    2.6384   -2.6431 C   0  0  0  0  0  0  0  0  0  0  0  0
    0.1046    3.1945   -3.4989 O   0  0  0  0  0  0  0  0  0  0  0  0
    1.3461    1.3905   -2.9838 O   0  0  0  0  0  0  0  0  0  0  0  0
   -1.5553    2.0796    0.7446 C   0  0  0  0  0  0  0  0  0  0  0  0
   -2.1039    2.2969    1.8194 O   0  0  0  0  0  0  0  0  0  0  0  0
   -2.2353    1.1939   -0.0320 O   0  0  0  0  0  0  0  0  0  0  0  0
    0.9585    2.9202    1.5206 O   0  0  0  0  0  0  0  0  0  0  0  0
    2.6637   -0.0940    0.0380 C   0  0  0  0  0  0  0  0  0  0  0  0
    2.3906   -0.3405    1.9278 C   0  0  0  0  0  0  0  0  0  0  0  0
    1.6718    0.3286    2.7285 O   0  0  0  0  0  0  0  0  0  0  0  0
    2.5673   -1.6270    2.0289 O   0  5  0  0  0  0  0  0  0  0  0  0
    2.3696    1.1287   -0.7269 N   0  0  0  0  0  0  0  0  0  0  0  0
    2.0030   -2.5770    0.4911 Zn  0  2  0  0  0  0  0  0  0  0  0  0
   -0.6420   -0.8138   -0.7596 C   0  0  0  0  0  0  0  0  0  0  0  0
   -0.8360    0.2137   -1.9396 C   0  0  0  0  0  0  0  0  0  0  0  0
   -0.8341   -0.2635   -3.0919 O   0  0  0  0  0  0  0  0  0  0  0  0
   -0.8127    1.4361   -1.6587 O   0  5  0  0  0  0  0  0  0  0  0  0
   -0.3263   -2.2052   -0.9861 N   0  0  0  0  0  0  0  0  0  0  0  0
    0.5807    0.4678   -0.1000 H   0  0  0  0  0  0  0  0  0  0  0  0
    1.3620    1.0459    1.1172 H   0  0  0  0  0  0  0  0  0  0  0  0
    0.0842   -2.7722    2.2408 H   0  0  0  0  0  0  0  0  0  0  0  0
    0.5595    4.1916   -0.7830 H   0  0  0  0  0  0  0  0  0  0  0  0
    1.9991    3.3642   -0.7802 H   0  0  0  0  0  0  0  0  0  0  0  0
    0.6570    0.8534   -3.4996 H   0  0  0  0  0  0  0  0  0  0  0  0
   -2.9243    1.4453   -0.6804 H   0  0  0  0  0  0  0  0  0  0  0  0
    0.4678    3.1660    2.3153 H   0  0  0  0  0  0  0  0  0  0  0  0
    2.2081   -0.8309   -0.6608 H   0  0  0  0  0  0  0  0  0  0  0  0
    3.7067   -0.2216   -0.1468 H   0  0  0  0  0  0  0  0  0  0  0  0
    1.4016    1.2284   -1.1911 H   0  0  0  0  0  0  0  0  0  0  0  0
    2.3160    1.8941   -0.0587 H   0  0  0  0  0  0  0  0  0  0  0  0
   -1.2789   -0.5438    0.0799 H   0  0  0  0  0  0  0  0  0  0  0  0
    0.3429   -0.9688   -0.3378 H   0  0  0  0  0  0  0  0  0  0  0  0
   -1.3147   -2.4361   -0.9989 H   0  0  0  0  0  0  0  0  0  0  0  0
    0.1492   -2.0968   -1.8850 H   0  0  0  0  0  0  0  0  0  0  0  0
  1  2  1  0  0  0  0
  1  5  1  0  0  0  0
  1 25  1  0  0  0  0
  1 26  1  0  0  0  0
  2  3  2  0  0  0  0
  2  4  1  0  0  0  0
  4 27  1  0  0  0  0
  5  6  1  0  0  0  0
  5 10  1  0  0  0  0
  5 13  1  0  0  0  0
  6  7  1  0  0  0  0
  6 28  1  0  0  0  0
  6 29  1  0  0  0  0
  7  8  2  0  0  0  0
  7  9  1  0  0  0  0
  9 30  1  0  0  0  0
 10 11  2  0  0  0  0
 10 12  1  0  0  0  0
 12 31  1  0  0  0  0
 13 32  1  0  0  0  0
 14 15  1  0  0  0  0
 14 18  1  0  0  0  0
 14 33  1  0  0  0  0
 14 34  1  0  0  0  0
 15 16  2  0  0  0  0
 15 17  1  0  0  0  0
 18 35  1  0  0  0  0
 18 36  1  0  0  0  0
 20 21  1  0  0  0  0
 20 24  1  0  0  0  0
 20 37  1  0  0  0  0
 20 38  1  0  0  0  0
 21 22  2  0  0  0  0
 21 23  1  0  0  0  0
 24 39  1  0  0  0  0
 24 40  1  0  0  0  0
M  CHG  3  17  -1  19   2  23  -1
M  END
>  <DRUGBANK_ID>
DB15556

>  <COMMON_NAME>
Zinc glycinate citrate

>  <CAS_NUMBER>
955009-96-8

>  <UNII>
H3472PJ7YA

$$$$
