
 OpenBabel10282417213D

 84 87  0  0  0  0  0  0  0  0999 V2000
    7.1101    9.5888    3.1460 C   0  0  0  0  0  0  0  0  0  0  0  0
    9.0385    8.2858    1.9818 C   0  0  0  0  0  0  0  0  0  0  0  0
    8.9002   11.3259   -1.9401 C   0  0  0  0  0  0  0  0  0  0  0  0
    8.9195   10.5345   -4.3783 C   0  0  0  0  0  0  0  0  0  0  0  0
    8.4314    5.9499   -4.1080 C   0  0  0  0  0  0  0  0  0  0  0  0
    3.1968    9.4371   -1.3084 C   0  0  0  0  0  0  0  0  0  0  0  0
    6.1073    9.3172   -0.1016 C   0  0  0  0  0  0  0  0  0  0  0  0
    4.2237    4.2962    1.7477 C   0  0  0  0  0  0  0  0  0  0  0  0
    5.4695    7.0308    2.9337 C   0  0  0  0  0  0  0  0  0  0  0  0
    6.9397    7.2125    2.5162 C   0  0  0  0  0  0  0  0  0  0  0  0
    5.5407    5.0838   -1.5935 C   0  0  0  0  0  0  0  0  0  0  0  0
    6.4078    5.5832   -2.6080 C   0  0  0  0  0  0  0  0  0  0  0  0
    2.4764    6.4529   -1.0009 C   0  0  0  0  0  0  0  0  0  0  0  0
    6.5599    9.9270   -3.2788 C   0  0  0  0  0  0  0  0  0  0  0  0
   10.1978    8.1201   -3.2453 C   0  0  0  0  0  0  0  0  0  0  0  0
    4.5109    6.7998    1.7833 C   0  0  0  0  0  0  0  0  0  0  0  0
    9.5484    7.0155   -2.4910 C   0  0  0  0  0  0  0  0  0  0  0  0
    3.0393    7.6426   -0.3933 C   0  0  0  0  0  0  0  0  0  0  0  0
    5.4937    9.6863   -2.3299 C   0  0  0  0  0  0  0  0  0  0  0  0
    7.6412    8.2798    2.5766 C   0  0  0  0  0  0  0  0  0  0  0  0
    4.3894    6.0955   -1.5798 C   0  0  3  0  0  0  0  0  0  0  0  0
    3.5367    5.5130   -0.4949 C   0  0  1  0  0  0  0  0  0  0  0  0
    7.7767    9.0650   -2.9291 C   0  0  1  0  0  0  0  0  0  0  0  0
    6.8622    7.0012   -2.0005 C   0  0  2  0  0  0  0  0  0  0  0  0
   10.0766    9.2929   -2.3424 C   0  0  1  0  0  0  0  0  0  0  0  0
    8.9366   10.0881   -2.9070 C   0  0  0  0  0  0  0  0  0  0  0  0
    8.0412    7.2928   -2.9976 C   0  0  2  0  0  0  0  0  0  0  0  0
    4.1823    7.9229   -1.3759 C   0  0  1  0  0  0  0  0  0  0  0  0
    5.6714    8.3928   -1.4059 C   0  0  1  0  0  0  0  0  0  0  0  0
    4.4757    5.5383    0.9447 C   0  0  3  0  0  0  0  0  0  0  0  0
    9.7724    8.9560   -0.9601 O   0  0  0  0  0  0  0  0  0  0  0  0
    5.8910    5.4488    0.7716 O   0  0  0  0  0  0  0  0  0  0  0  0
    4.0177    5.8766   -2.5995 H   0  0  0  0  0  0  0  0  0  0  0  0
    3.1394    4.5071   -0.6400 H   0  0  0  0  0  0  0  0  0  0  0  0
    7.6460    9.0640   -1.8614 H   0  0  0  0  0  0  0  0  0  0  0  0
    7.3616    6.7635   -1.0416 H   0  0  0  0  0  0  0  0  0  0  0  0
   11.0113    9.8230   -2.2724 H   0  0  0  0  0  0  0  0  0  0  0  0
    7.8497   10.3819    3.1470 H   0  0  0  0  0  0  0  0  0  0  0  0
    6.7825    9.3853    4.1673 H   0  0  0  0  0  0  0  0  0  0  0  0
    6.2360    9.9609    2.5966 H   0  0  0  0  0  0  0  0  0  0  0  0
    9.6466    7.5278    2.4815 H   0  0  0  0  0  0  0  0  0  0  0  0
    8.9697    7.9699    0.9424 H   0  0  0  0  0  0  0  0  0  0  0  0
    9.5397    9.2486    2.0284 H   0  0  0  0  0  0  0  0  0  0  0  0
    9.8961   11.7850   -1.9681 H   0  0  0  0  0  0  0  0  0  0  0  0
    8.1944   12.1229   -2.1788 H   0  0  0  0  0  0  0  0  0  0  0  0
    8.7339   11.0616   -0.8852 H   0  0  0  0  0  0  0  0  0  0  0  0
    8.4284    9.7742   -5.0170 H   0  0  0  0  0  0  0  0  0  0  0  0
    8.2860   11.4222   -4.5118 H   0  0  0  0  0  0  0  0  0  0  0  0
    9.9124   10.6997   -4.7628 H   0  0  0  0  0  0  0  0  0  0  0  0
    7.6769    5.3856   -4.6653 H   0  0  0  0  0  0  0  0  0  0  0  0
    9.2967    6.1107   -4.7716 H   0  0  0  0  0  0  0  0  0  0  0  0
    8.8507    5.0849   -3.4845 H   0  0  0  0  0  0  0  0  0  0  0  0
    2.8509    9.8410   -2.2556 H   0  0  0  0  0  0  0  0  0  0  0  0
    2.2882    9.5677   -0.6804 H   0  0  0  0  0  0  0  0  0  0  0  0
    3.7378   10.2120   -0.7334 H   0  0  0  0  0  0  0  0  0  0  0  0
    5.3774   10.1122    0.1501 H   0  0  0  0  0  0  0  0  0  0  0  0
    6.1706    8.8273    0.8363 H   0  0  0  0  0  0  0  0  0  0  0  0
    7.0092    9.9346   -0.2313 H   0  0  0  0  0  0  0  0  0  0  0  0
    3.1967    4.2554    2.0817 H   0  0  0  0  0  0  0  0  0  0  0  0
    4.4829    3.4199    1.1391 H   0  0  0  0  0  0  0  0  0  0  0  0
    4.9176    4.2719    2.5975 H   0  0  0  0  0  0  0  0  0  0  0  0
    5.3567    6.2566    3.6770 H   0  0  0  0  0  0  0  0  0  0  0  0
    5.1314    7.9844    3.3576 H   0  0  0  0  0  0  0  0  0  0  0  0
    7.3944    6.3396    1.9963 H   0  0  0  0  0  0  0  0  0  0  0  0
    5.2323    4.0203   -1.6124 H   0  0  0  0  0  0  0  0  0  0  0  0
    6.3519    4.9927   -0.8905 H   0  0  0  0  0  0  0  0  0  0  0  0
    7.1896    4.7849   -2.6031 H   0  0  0  0  0  0  0  0  0  0  0  0
    5.9580    5.5419   -3.6049 H   0  0  0  0  0  0  0  0  0  0  0  0
    1.4149    6.2410   -0.9829 H   0  0  0  0  0  0  0  0  0  0  0  0
    2.4848    6.6844   -2.1245 H   0  0  0  0  0  0  0  0  0  0  0  0
    6.7766   10.9851   -3.0275 H   0  0  0  0  0  0  0  0  0  0  0  0
    6.1827   10.0457   -4.2942 H   0  0  0  0  0  0  0  0  0  0  0  0
   11.1658    8.0056   -3.7171 H   0  0  0  0  0  0  0  0  0  0  0  0
    9.6087    8.2345   -4.1804 H   0  0  0  0  0  0  0  0  0  0  0  0
    3.4996    7.0551    2.1047 H   0  0  0  0  0  0  0  0  0  0  0  0
    4.9454    7.5234    1.1026 H   0  0  0  0  0  0  0  0  0  0  0  0
    9.6510    6.8606   -1.4151 H   0  0  0  0  0  0  0  0  0  0  0  0
   10.1660    6.1649   -2.8313 H   0  0  0  0  0  0  0  0  0  0  0  0
    3.4537    7.9150    0.5260 H   0  0  0  0  0  0  0  0  0  0  0  0
    2.0777    8.0707   -0.0918 H   0  0  0  0  0  0  0  0  0  0  0  0
    5.4459   10.6246   -1.7109 H   0  0  0  0  0  0  0  0  0  0  0  0
    4.5800    9.8136   -2.9017 H   0  0  0  0  0  0  0  0  0  0  0  0
    8.9170    8.4811   -0.8788 H   0  0  0  0  0  0  0  0  0  0  0  0
    6.2245    4.5386    0.8193 H   0  0  0  0  0  0  0  0  0  0  0  0
  1 38  1  0  0  0  0
  1 39  1  0  0  0  0
  1 40  1  0  0  0  0
  2 41  1  0  0  0  0
  2 42  1  0  0  0  0
  2 43  1  0  0  0  0
  3 44  1  0  0  0  0
  3 45  1  0  0  0  0
  3 46  1  0  0  0  0
  4 47  1  0  0  0  0
  4 48  1  0  0  0  0
  4 49  1  0  0  0  0
  5 50  1  0  0  0  0
  5 51  1  0  0  0  0
  5 52  1  0  0  0  0
  6 53  1  0  0  0  0
  6 54  1  0  0  0  0
  6 55  1  0  0  0  0
  7 56  1  0  0  0  0
  7 57  1  0  0  0  0
  7 58  1  0  0  0  0
  8 59  1  0  0  0  0
  8 60  1  0  0  0  0
  8 61  1  0  0  0  0
  9 62  1  0  0  0  0
  9 63  1  0  0  0  0
 10  9  1  0  0  0  0
 10 64  1  0  0  0  0
 11 65  1  0  0  0  0
 11 66  1  0  0  0  0
 12 11  1  0  0  0  0
 12 67  1  0  0  0  0
 12 68  1  0  0  0  0
 13 69  1  0  0  0  0
 13 70  1  0  0  0  0
 14 71  1  0  0  0  0
 14 72  1  0  0  0  0
 15 73  1  0  0  0  0
 15 74  1  0  0  0  0
 16  9  1  0  0  0  0
 16 75  1  0  0  0  0
 16 76  1  0  0  0  0
 17 15  1  0  0  0  0
 17 77  1  0  0  0  0
 17 78  1  0  0  0  0
 18 13  1  0  0  0  0
 18 79  1  0  0  0  0
 18 80  1  0  0  0  0
 19 14  1  0  0  0  0
 19 81  1  0  0  0  0
 19 82  1  0  0  0  0
 20  1  1  0  0  0  0
 20  2  1  0  0  0  0
 20 10  2  0  0  0  0
 21 11  1  0  0  0  0
 22 13  1  0  0  0  0
 22 21  1  0  0  0  0
 22 34  1  6  0  0  0
 22 30  1  0  0  0  0
 23 14  1  0  0  0  0
 23 26  1  0  0  0  0
 23 35  1  6  0  0  0
 24 12  1  0  0  0  0
 24 27  1  0  0  0  0
 24 29  1  0  0  0  0
 24 36  1  6  0  0  0
 25 15  1  0  0  0  0
 25 26  1  0  0  0  0
 25 31  1  0  0  0  0
 25 37  1  6  0  0  0
 26  3  1  0  0  0  0
 26  4  1  0  0  0  0
 27  5  1  1  0  0  0
 27 17  1  0  0  0  0
 27 23  1  0  0  0  0
 28  6  1  6  0  0  0
 28 18  1  0  0  0  0
 28 21  1  0  0  0  0
 29  7  1  1  0  0  0
 29 19  1  0  0  0  0
 29 28  1  0  0  0  0
 30  8  1  0  0  0  0
 30 16  1  0  0  0  0
 31 83  1  0  0  0  0
 32 30  1  0  0  0  0
 32 84  1  0  0  0  0
 33 21  1  0  0  0  0
M  END
>  <DRUGBANK_ID>
DB14152

>  <COMMON_NAME>
Ginsenosides

>  <CAS_NUMBER>
74749-74-9

>  <UNII>
3K198YD54P

>  <SYNONYMS>
Ginseng root-neutral saponins; Ginsenoside; Neutral saponins of panax ginseng root

$$$$
