
 OpenBabel10282417123D

 37 38  0  0  1  0  0  0  0  0999 V2000
   -0.2097   -1.1228   -0.1194 N   0  0  0  0  0  0  0  0  0  0  0  0
   -0.6006   -2.5320   -0.0588 C   0  0  2  0  0  0  0  0  0  0  0  0
    1.0879   -0.6867   -0.0176 C   0  0  0  0  0  0  0  0  0  0  0  0
   -0.9593    0.0113   -0.3342 C   0  0  0  0  0  0  0  0  0  0  0  0
   -1.5395   -2.8419   -1.0990 O   0  0  0  0  0  0  0  0  0  0  0  0
   -1.1591   -3.0412    1.2705 C   0  0  1  0  0  0  0  0  0  0  0  0
    1.0456    0.6971   -0.0336 C   0  0  0  0  0  0  0  0  0  0  0  0
    2.1439   -1.5153    0.0582 N   0  0  0  0  0  0  0  0  0  0  0  0
   -0.2614    1.1209   -0.1674 N   0  0  0  0  0  0  0  0  0  0  0  0
   -2.5209   -3.7904   -0.6312 C   0  0  1  0  0  0  0  0  0  0  0  0
   -2.1511   -4.1466    0.8372 C   0  0  1  0  0  0  0  0  0  0  0  0
   -0.2383   -3.3460    2.2979 O   0  0  0  0  0  0  0  0  0  0  0  0
    2.2124    1.5705    0.0137 C   0  0  0  0  0  0  0  0  0  0  0  0
   -3.9085   -3.1443   -0.8990 C   0  0  0  0  0  0  0  0  0  0  0  0
   -1.5282   -5.4225    0.9333 O   0  0  0  0  0  0  0  0  0  0  0  0
    1.9805    2.9076    0.0207 N   0  0  0  0  0  0  0  0  0  0  0  0
    3.3814    1.1402    0.0261 O   0  0  0  0  0  0  0  0  0  0  0  0
   -4.0271   -1.8331   -0.3298 O   0  0  0  0  0  0  0  0  0  0  0  0
   -3.7567   -1.9608    1.3742 P   0  0  0  0  0  0  0  0  0  0  0  0
   -3.1284   -0.4646    1.2947 O   0  0  0  0  0  0  0  0  0  0  0  0
   -5.3157   -1.4989    1.5210 O   0  0  0  0  0  0  0  0  0  0  0  0
   -3.5147   -2.0750    2.8993 O   0  0  0  0  0  0  0  0  0  0  0  0
    0.2833   -3.1302   -0.2599 H   0  0  0  0  0  0  0  0  0  0  0  0
   -2.0156    0.0176   -0.5804 H   0  0  0  0  0  0  0  0  0  0  0  0
   -1.6337   -2.2081    1.7318 H   0  0  0  0  0  0  0  0  0  0  0  0
    3.0768   -1.0971    0.0120 H   0  0  0  0  0  0  0  0  0  0  0  0
    2.1411   -2.5202   -0.0455 H   0  0  0  0  0  0  0  0  0  0  0  0
   -2.4582   -4.6930   -1.2513 H   0  0  0  0  0  0  0  0  0  0  0  0
   -3.0561   -4.2556    1.4485 H   0  0  0  0  0  0  0  0  0  0  0  0
    0.0298   -4.2731    2.2853 H   0  0  0  0  0  0  0  0  0  0  0  0
   -4.0614   -3.0203   -1.9773 H   0  0  0  0  0  0  0  0  0  0  0  0
   -4.7239   -3.7692   -0.5169 H   0  0  0  0  0  0  0  0  0  0  0  0
   -0.6281   -5.3649    0.5810 H   0  0  0  0  0  0  0  0  0  0  0  0
    2.7760    3.5289    0.0171 H   0  0  0  0  0  0  0  0  0  0  0  0
    1.0355    3.2723   -0.0009 H   0  0  0  0  0  0  0  0  0  0  0  0
   -2.2437   -0.4117    1.7134 H   0  0  0  0  0  0  0  0  0  0  0  0
   -5.6285   -1.0785    0.6998 H   0  0  0  0  0  0  0  0  0  0  0  0
  1  3  1  0  0  0  0
  1  4  1  0  0  0  0
  2  1  1  0  0  0  0
  2  5  1  0  0  0  0
  2  6  1  0  0  0  0
  2 23  1  6  0  0  0
  3  7  2  0  0  0  0
  3  8  1  0  0  0  0
  4  9  2  0  0  0  0
  4 24  1  0  0  0  0
  5 10  1  0  0  0  0
  6 11  1  0  0  0  0
  6 12  1  0  0  0  0
  6 25  1  1  0  0  0
  7 13  1  0  0  0  0
  7  9  1  0  0  0  0
  8 26  1  0  0  0  0
  8 27  1  0  0  0  0
 10 11  1  0  0  0  0
 10 28  1  6  0  0  0
 10 14  1  0  0  0  0
 11 15  1  0  0  0  0
 11 29  1  1  0  0  0
 12 30  1  0  0  0  0
 13 16  1  0  0  0  0
 13 17  2  0  0  0  0
 14 18  1  0  0  0  0
 14 31  1  0  0  0  0
 14 32  1  0  0  0  0
 15 33  1  0  0  0  0
 16 34  1  0  0  0  0
 16 35  1  0  0  0  0
 18 19  1  0  0  0  0
 19 20  1  0  0  0  0
 19 21  1  0  0  0  0
 19 22  2  0  0  0  0
 20 36  1  0  0  0  0
 21 37  1  0  0  0  0
M  END
>  <DRUGBANK_ID>
DB01700

>  <SECONDARY_ACCESSION_NUMBERS>
EXPT00407

>  <COMMON_NAME>
AICA ribonucleotide

>  <CAS_NUMBER>
3031-94-5

>  <UNII>
F0X88YW0YK

>  <SYNONYMS>
1-(5'-phosphoribosyl)-5-amino-4-imidazolecarboxamide; 5-amino-1-(5-phospho-D-ribosyl)imidazole-4-carboxamide; 5-aminoimidazole-4-carboxamide ribotide; 5-phosphoribosyl-4-carbamoyl-5-aminoimidazole; 5'-phospho-ribosyl-5-amino-4-imidazole carboxamide; 5'-phosphoribosyl-5-amino-4-imidazolecarboxamide; acadesine 5'-monophosphate; AICA-ribonucleotide; AICAR

$$$$
