
 OpenBabel10282417203D

 56 57  0  0  0  0  0  0  0  0999 V2000
    1.2501   -0.0957   -0.3425 C   0  0  0  0  0  0  0  0  0  0  0  0
   -1.0414   -2.9307    2.6408 C   0  0  0  0  0  0  0  0  0  0  0  0
    0.9443    1.7779    1.8620 C   0  0  0  0  0  0  0  0  0  0  0  0
   -1.7653    0.7699    2.8554 C   0  0  0  0  0  0  0  0  0  0  0  0
    0.7844   -0.5738    1.0081 C   0  0  0  0  0  0  0  0  0  0  0  0
   -1.6754   -1.5776    2.4931 C   0  0  0  0  0  0  0  0  0  0  0  0
   -1.2962    5.8383    1.1830 C   0  0  0  0  0  0  0  0  0  0  0  0
   -2.6416    5.9903    0.8697 C   0  0  0  0  0  0  0  0  0  0  0  0
   -3.2373    1.3216    5.4595 C   0  0  0  0  0  0  0  0  0  0  0  0
   -0.9200    5.3235    2.4318 C   0  0  0  0  0  0  0  0  0  0  0  0
   -3.6004    5.7352    1.8419 C   0  0  0  0  0  0  0  0  0  0  0  0
   -1.9432    0.9928    5.9082 C   0  0  0  0  0  0  0  0  0  0  0  0
   -3.1774    2.6314    5.0165 C   0  0  0  0  0  0  0  0  0  0  0  0
   -1.4156    4.4499    4.7569 C   0  0  0  0  0  0  0  0  0  0  0  0
    0.8871    0.4586    4.7285 C   0  0  0  0  0  0  0  0  0  0  0  0
    1.1518    0.2969    2.2233 C   0  0  3  0  0  0  0  0  0  0  0  0
   -1.0075   -0.4609    3.3333 C   0  0  3  0  0  0  0  0  0  0  0  0
   -1.8803    5.0176    3.4239 C   0  0  0  0  0  0  0  0  0  0  0  0
   -3.2139    5.3568    3.1324 C   0  0  0  0  0  0  0  0  0  0  0  0
   -1.0828    2.0087    5.5013 C   0  0  0  0  0  0  0  0  0  0  0  0
    0.3839    1.9017    5.1428 C   0  0  3  0  0  0  0  0  0  0  0  0
   -4.4291    5.5564    4.3531 Cl  0  0  0  0  0  0  0  0  0  0  0  0
   -1.8857    3.0919    5.1198 N   0  0  0  0  0  0  0  0  0  0  0  0
    0.4585   -0.2148    3.4348 N   0  0  0  0  0  0  0  0  0  0  0  0
    1.1299    2.4606    6.2189 O   0  0  0  0  0  0  0  0  0  0  0  0
    0.7930    0.8724   -0.5723 H   0  0  0  0  0  0  0  0  0  0  0  0
    0.8830   -0.7858   -1.1070 H   0  0  0  0  0  0  0  0  0  0  0  0
    2.3345   -0.0206   -0.3812 H   0  0  0  0  0  0  0  0  0  0  0  0
   -1.3639   -3.3802    3.5814 H   0  0  0  0  0  0  0  0  0  0  0  0
   -1.3635   -3.5662    1.8113 H   0  0  0  0  0  0  0  0  0  0  0  0
    0.0475   -2.8784    2.6370 H   0  0  0  0  0  0  0  0  0  0  0  0
   -0.0879    2.0149    1.6104 H   0  0  0  0  0  0  0  0  0  0  0  0
    1.2910    2.4634    2.6252 H   0  0  0  0  0  0  0  0  0  0  0  0
    1.5191    2.0595    0.9797 H   0  0  0  0  0  0  0  0  0  0  0  0
   -1.7682    0.9109    1.7761 H   0  0  0  0  0  0  0  0  0  0  0  0
   -2.8149    0.6968    3.1314 H   0  0  0  0  0  0  0  0  0  0  0  0
   -1.3249    1.6763    3.2369 H   0  0  0  0  0  0  0  0  0  0  0  0
   -0.2835   -0.5329    0.8696 H   0  0  0  0  0  0  0  0  0  0  0  0
    1.0773   -1.6170    1.1688 H   0  0  0  0  0  0  0  0  0  0  0  0
   -2.7247   -1.6494    2.8184 H   0  0  0  0  0  0  0  0  0  0  0  0
   -1.7936   -1.3146    1.4378 H   0  0  0  0  0  0  0  0  0  0  0  0
   -0.5404    6.1196    0.4520 H   0  0  0  0  0  0  0  0  0  0  0  0
   -2.9470    6.3568   -0.1069 H   0  0  0  0  0  0  0  0  0  0  0  0
   -4.0720    0.6614    5.2764 H   0  0  0  0  0  0  0  0  0  0  0  0
    0.1452    5.2060    2.6313 H   0  0  0  0  0  0  0  0  0  0  0  0
   -4.6523    5.8866    1.6116 H   0  0  0  0  0  0  0  0  0  0  0  0
   -1.6394   -0.0180    6.1607 H   0  0  0  0  0  0  0  0  0  0  0  0
   -3.9552    3.1603    4.5172 H   0  0  0  0  0  0  0  0  0  0  0  0
   -1.6984    5.1034    5.5856 H   0  0  0  0  0  0  0  0  0  0  0  0
   -0.3202    4.4124    4.7564 H   0  0  0  0  0  0  0  0  0  0  0  0
    0.6589   -0.2203    5.5658 H   0  0  0  0  0  0  0  0  0  0  0  0
    1.9892    0.4767    4.7486 H   0  0  0  0  0  0  0  0  0  0  0  0
    2.2296    0.1636    2.3935 H   0  0  0  0  0  0  0  0  0  0  0  0
   -1.2792   -0.7989    4.3343 H   0  0  0  0  0  0  0  0  0  0  0  0
    0.5854    2.5646    4.3134 H   0  0  0  0  0  0  0  0  0  0  0  0
    0.6618    2.2445    7.0407 H   0  0  0  0  0  0  0  0  0  0  0  0
  1 26  1  0  0  0  0
  1 27  1  0  0  0  0
  1 28  1  0  0  0  0
  2 29  1  0  0  0  0
  2 30  1  0  0  0  0
  2 31  1  0  0  0  0
  3 32  1  0  0  0  0
  3 33  1  0  0  0  0
  3 34  1  0  0  0  0
  4 35  1  0  0  0  0
  4 36  1  0  0  0  0
  4 37  1  0  0  0  0
  5  1  1  0  0  0  0
  5 38  1  0  0  0  0
  5 39  1  0  0  0  0
  6  2  1  0  0  0  0
  6 40  1  0  0  0  0
  6 41  1  0  0  0  0
  7 42  1  0  0  0  0
  8  7  2  0  0  0  0
  8 43  1  0  0  0  0
  9 44  1  0  0  0  0
 10  7  1  0  0  0  0
 10 45  1  0  0  0  0
 11  8  1  0  0  0  0
 11 46  1  0  0  0  0
 12  9  1  0  0  0  0
 12 47  1  0  0  0  0
 13  9  2  0  0  0  0
 13 48  1  0  0  0  0
 14 49  1  0  0  0  0
 14 50  1  0  0  0  0
 15 51  1  0  0  0  0
 15 52  1  0  0  0  0
 16  3  1  0  0  0  0
 16  5  1  0  0  0  0
 16 53  1  0  0  0  0
 17  4  1  0  0  0  0
 17  6  1  0  0  0  0
 17 54  1  0  0  0  0
 18 10  2  0  0  0  0
 18 14  1  0  0  0  0
 19 11  2  0  0  0  0
 19 18  1  0  0  0  0
 20 12  2  0  0  0  0
 21 15  1  0  0  0  0
 21 20  1  0  0  0  0
 21 55  1  0  0  0  0
 22 19  1  0  0  0  0
 23 13  1  0  0  0  0
 23 14  1  0  0  0  0
 23 20  1  0  0  0  0
 24 15  1  0  0  0  0
 24 16  1  0  0  0  0
 24 17  1  0  0  0  0
 25 21  1  0  0  0  0
 25 56  1  0  0  0  0
M  END
>  <DRUGBANK_ID>
DB13353

>  <COMMON_NAME>
Viminol

>  <CAS_NUMBER>
21363-18-8

>  <UNII>
TPV54G6XBG

>  <SYNONYMS>
Viminol

$$$$
