
 OpenBabel10282417173D

 28 30  0  0  1  0  0  0  0  0999 V2000
    2.8593   -0.8766    0.1792 C   0  0  0  0  0  0  0  0  0  0  0  0
    1.5838   -1.3598   -0.2791 C   0  0  0  0  0  0  0  0  0  0  0  0
    3.0374    0.4193    0.4575 C   0  0  0  0  0  0  0  0  0  0  0  0
   -1.7377    0.0470   -1.3968 C   0  0  0  0  0  0  0  0  0  0  0  0
   -2.1503    0.6273    1.0544 C   0  0  0  0  0  0  0  0  0  0  0  0
   -1.5548   -1.7018    0.3345 C   0  0  0  0  0  0  0  0  0  0  0  0
   -0.3823    1.7849   -0.2985 C   0  0  0  0  0  0  0  0  0  0  0  0
   -1.7657    1.1456   -0.3472 C   0  0  1  0  0  0  0  0  0  0  0  0
   -0.8252   -1.0472   -0.8521 C   0  0  2  0  0  0  0  0  0  0  0  0
    0.5419   -0.5225   -0.4278 C   0  0  0  0  0  0  0  0  0  0  0  0
    1.9180    1.3726    0.2926 C   0  0  0  0  0  0  0  0  0  0  0  0
   -2.0581   -0.7964    1.3610 N   0  0  0  0  0  0  0  0  0  0  0  0
    0.7066    0.8358   -0.1379 N   0  0  0  0  0  0  0  0  0  0  0  0
    2.1057    2.5651    0.5412 O   0  0  0  0  0  0  0  0  0  0  0  0
   -2.4846    1.9191   -0.6440 H   0  0  0  0  0  0  0  0  0  0  0  0
   -0.6908   -1.8049   -1.6364 H   0  0  0  0  0  0  0  0  0  0  0  0
    3.6676   -1.5875    0.3038 H   0  0  0  0  0  0  0  0  0  0  0  0
    1.4834   -2.4258   -0.4613 H   0  0  0  0  0  0  0  0  0  0  0  0
    3.9730    0.8317    0.8071 H   0  0  0  0  0  0  0  0  0  0  0  0
   -2.7493   -0.3366   -1.5798 H   0  0  0  0  0  0  0  0  0  0  0  0
   -1.3624    0.4269   -2.3555 H   0  0  0  0  0  0  0  0  0  0  0  0
   -1.5409    1.1399    1.8105 H   0  0  0  0  0  0  0  0  0  0  0  0
   -3.1768    0.9500    1.2582 H   0  0  0  0  0  0  0  0  0  0  0  0
   -0.9039   -2.4394    0.8204 H   0  0  0  0  0  0  0  0  0  0  0  0
   -2.4055   -2.2743   -0.0576 H   0  0  0  0  0  0  0  0  0  0  0  0
   -0.3453    2.5145    0.5207 H   0  0  0  0  0  0  0  0  0  0  0  0
   -0.1862    2.3484   -1.2199 H   0  0  0  0  0  0  0  0  0  0  0  0
   -2.9458   -1.1353    1.7288 H   0  0  0  0  0  0  0  0  0  0  0  0
  1 17  1  0  0  0  0
  2  1  1  0  0  0  0
  2 18  1  0  0  0  0
  3  1  2  0  0  0  0
  3 19  1  0  0  0  0
  4 20  1  0  0  0  0
  4 21  1  0  0  0  0
  5 22  1  0  0  0  0
  5 23  1  0  0  0  0
  6 24  1  0  0  0  0
  6 25  1  0  0  0  0
  7 26  1  0  0  0  0
  7 27  1  0  0  0  0
  8  4  1  0  0  0  0
  8  5  1  0  0  0  0
  8  7  1  0  0  0  0
  8 15  1  6  0  0  0
  9  4  1  0  0  0  0
  9  6  1  0  0  0  0
  9 16  1  6  0  0  0
 10  2  2  0  0  0  0
 10  9  1  0  0  0  0
 11  3  1  0  0  0  0
 12  5  1  0  0  0  0
 12  6  1  0  0  0  0
 12 28  1  0  0  0  0
 13  7  1  0  0  0  0
 13 10  1  0  0  0  0
 13 11  1  0  0  0  0
 14 11  2  0  0  0  0
M  END
>  <DRUGBANK_ID>
DB09028

>  <COMMON_NAME>
Cytisine

>  <CAS_NUMBER>
485-35-8

>  <UNII>
53S5U404NU

>  <SYNONYMS>
(1R,5S)-1,2,3,4,5,6-Hexahydro-1,5-methano-8H-pyrido[1,2a][1,5]diazocin-8-one; Baptitoxine; Sophorine; Ulexin

$$$$
