
 OpenBabel10282417193D

 94 99  0  0  1  0  0  0  0  0999 V2000
   11.6311  -10.4596    0.9837 C   0  0  0  0  0  0  0  0  0  0  0  0
   12.4025   -9.1333    0.6763 C   0  0  0  0  0  0  0  0  0  0  0  0
   13.6336   -8.6703    0.4093 C   0  0  0  0  0  0  0  0  0  0  0  0
   13.9385   -7.2214   -0.0853 C   0  0  0  0  0  0  0  0  0  0  0  0
   12.9786   -6.1642   -0.3689 C   0  0  0  0  0  0  0  0  0  0  0  0
   12.7354   -4.7648   -0.9715 C   0  0  0  0  0  0  0  0  0  0  0  0
   11.3697   -4.2820   -1.0125 C   0  0  0  0  0  0  0  0  0  0  0  0
   11.0899   -4.7207    0.6389 S   0  0  0  0  0  0  0  0  0  0  0  0
   11.9865   -6.4216    0.5349 C   0  0  0  0  0  0  0  0  0  0  0  0
   11.8292   -7.9604    1.0218 C   0  0  0  0  0  0  0  0  0  0  0  0
   10.6110   -3.0026   -1.6426 C   0  0  0  0  0  0  0  0  0  0  0  0
   11.2707   -2.0303   -1.9470 O   0  0  0  0  0  0  0  0  0  0  0  0
    9.1726   -2.7907   -1.9646 N   0  0  0  0  0  0  0  0  0  0  0  0
    7.8497   -3.5474   -1.8423 C   0  0  0  0  0  0  0  0  0  0  0  0
    8.3813   -4.8483   -1.5300 C   0  0  0  0  0  0  0  0  0  0  0  0
    7.5509   -5.7961   -2.2809 C   0  0  0  0  0  0  0  0  0  0  0  0
    6.4290   -5.1132   -3.0286 C   0  0  0  0  0  0  0  0  0  0  0  0
    7.0226   -3.7413   -3.1479 C   0  0  0  0  0  0  0  0  0  0  0  0
    6.9587   -3.2309   -0.5782 C   0  0  0  0  0  0  0  0  0  0  0  0
    7.1849   -2.1850    0.0289 O   0  0  0  0  0  0  0  0  0  0  0  0
    6.0631   -4.0907    0.0474 N   0  0  0  0  0  0  0  0  0  0  0  0
    5.2245   -5.3946   -0.2016 C   0  0  2  0  0  0  0  0  0  0  0  0
    4.8966   -6.5325    0.8417 C   0  0  0  0  0  0  0  0  0  0  0  0
    4.2058   -5.9855    1.9476 C   0  0  0  0  0  0  0  0  0  0  0  0
    3.9145   -6.8950    2.9282 C   0  0  0  0  0  0  0  0  0  0  0  0
    2.9999   -6.4230    3.8017 C   0  0  0  0  0  0  0  0  0  0  0  0
    2.7077   -5.0423    3.8324 C   0  0  0  0  0  0  0  0  0  0  0  0
    3.2858   -4.1174    2.9871 C   0  0  0  0  0  0  0  0  0  0  0  0
    3.8857   -4.6438    1.9194 C   0  0  0  0  0  0  0  0  0  0  0  0
    6.0954   -6.4696   -0.5864 C   0  0  0  0  0  0  0  0  0  0  0  0
    5.7077   -7.3489   -1.3062 O   0  0  0  0  0  0  0  0  0  0  0  0
    7.2731   -6.3824    0.1338 N   0  0  0  0  0  0  0  0  0  0  0  0
    7.6844   -5.9791    1.4351 C   0  0  0  0  0  0  0  0  0  0  0  0
    8.2948   -7.2916    1.8879 C   0  0  0  0  0  0  0  0  0  0  0  0
    9.6482   -7.0646    1.4333 C   0  0  0  0  0  0  0  0  0  0  0  0
    9.9251   -7.5032   -0.3316 C   0  0  0  0  0  0  0  0  0  0  0  0
    9.6453   -8.8468   -0.7777 N   0  0  0  0  0  0  0  0  0  0  0  0
    8.3245   -9.1098   -0.2580 C   0  0  0  0  0  0  0  0  0  0  0  0
    8.0277   -8.7248    1.2733 C   0  0  0  0  0  0  0  0  0  0  0  0
   10.1253   -9.1192   -2.2160 C   0  0  0  0  0  0  0  0  0  0  0  0
    9.6528   -8.2553   -3.4143 C   0  0  0  0  0  0  0  0  0  0  0  0
   10.2497   -6.8257   -3.4533 C   0  0  0  0  0  0  0  0  0  0  0  0
    9.4457   -5.8492   -4.3095 C   0  0  0  0  0  0  0  0  0  0  0  0
    8.1068   -6.2379   -4.6745 O   0  0  0  0  0  0  0  0  0  0  0  0
    7.4654   -7.5053   -4.3836 C   0  0  0  0  0  0  0  0  0  0  0  0
    8.1644   -8.5081   -3.5172 C   0  0  0  0  0  0  0  0  0  0  0  0
   11.8903  -10.9063    1.9472 H   0  0  0  0  0  0  0  0  0  0  0  0
   11.6410  -11.2019    0.1715 H   0  0  0  0  0  0  0  0  0  0  0  0
   10.5186  -10.3563    1.1072 H   0  0  0  0  0  0  0  0  0  0  0  0
   14.4213   -9.2939    0.8127 H   0  0  0  0  0  0  0  0  0  0  0  0
   14.9560   -6.8974    0.0569 H   0  0  0  0  0  0  0  0  0  0  0  0
   13.5337   -4.1143   -1.2917 H   0  0  0  0  0  0  0  0  0  0  0  0
   10.9002   -8.4458    1.3065 H   0  0  0  0  0  0  0  0  0  0  0  0
    8.9919   -1.8309   -2.2319 H   0  0  0  0  0  0  0  0  0  0  0  0
    9.3767   -4.9857   -1.8826 H   0  0  0  0  0  0  0  0  0  0  0  0
    8.5520   -4.8564   -0.4740 H   0  0  0  0  0  0  0  0  0  0  0  0
    8.3482   -6.3447   -2.6694 H   0  0  0  0  0  0  0  0  0  0  0  0
    7.3491   -6.7924   -1.9854 H   0  0  0  0  0  0  0  0  0  0  0  0
    6.1041   -5.5417   -3.9776 H   0  0  0  0  0  0  0  0  0  0  0  0
    5.4692   -5.0823   -2.5209 H   0  0  0  0  0  0  0  0  0  0  0  0
    6.2072   -3.0385   -3.3035 H   0  0  0  0  0  0  0  0  0  0  0  0
    7.6471   -3.7596   -4.0439 H   0  0  0  0  0  0  0  0  0  0  0  0
    5.8441   -3.6199    0.9144 H   0  0  0  0  0  0  0  0  0  0  0  0
    4.4153   -5.2179   -0.9038 H   0  0  0  0  0  0  0  0  0  0  0  0
    4.3681   -7.4021    0.3963 H   0  0  0  0  0  0  0  0  0  0  0  0
    5.7226   -7.0849    1.3490 H   0  0  0  0  0  0  0  0  0  0  0  0
    4.2673   -7.9291    2.8665 H   0  0  0  0  0  0  0  0  0  0  0  0
    2.4870   -7.1396    4.4179 H   0  0  0  0  0  0  0  0  0  0  0  0
    1.9442   -4.6761    4.4897 H   0  0  0  0  0  0  0  0  0  0  0  0
    3.1620   -3.0468    2.9894 H   0  0  0  0  0  0  0  0  0  0  0  0
    4.0295   -3.9914    1.0700 H   0  0  0  0  0  0  0  0  0  0  0  0
    8.0046   -6.8344   -0.3356 H   0  0  0  0  0  0  0  0  0  0  0  0
    8.4093   -5.1413    1.3736 H   0  0  0  0  0  0  0  0  0  0  0  0
    6.9180   -5.5337    2.0587 H   0  0  0  0  0  0  0  0  0  0  0  0
    8.3213   -7.3057    2.9834 H   0  0  0  0  0  0  0  0  0  0  0  0
    9.9550   -6.0957    1.7848 H   0  0  0  0  0  0  0  0  0  0  0  0
   10.1932   -7.5190    2.2903 H   0  0  0  0  0  0  0  0  0  0  0  0
    9.4762   -6.7399   -0.9090 H   0  0  0  0  0  0  0  0  0  0  0  0
   10.8962   -7.4185   -0.8229 H   0  0  0  0  0  0  0  0  0  0  0  0
    7.9979  -10.1179   -0.4996 H   0  0  0  0  0  0  0  0  0  0  0  0
    7.6611   -8.4727   -0.7869 H   0  0  0  0  0  0  0  0  0  0  0  0
    8.6022   -9.4277    1.8878 H   0  0  0  0  0  0  0  0  0  0  0  0
    6.9711   -8.9043    1.4200 H   0  0  0  0  0  0  0  0  0  0  0  0
   11.2284   -9.0467   -2.2702 H   0  0  0  0  0  0  0  0  0  0  0  0
    9.9345  -10.1680   -2.4887 H   0  0  0  0  0  0  0  0  0  0  0  0
   10.0025   -8.6235   -4.3822 H   0  0  0  0  0  0  0  0  0  0  0  0
   10.3658   -6.4174   -2.4592 H   0  0  0  0  0  0  0  0  0  0  0  0
   11.3127   -6.7622   -3.7070 H   0  0  0  0  0  0  0  0  0  0  0  0
    9.4490   -4.8687   -3.7882 H   0  0  0  0  0  0  0  0  0  0  0  0
    9.9169   -5.5459   -5.2281 H   0  0  0  0  0  0  0  0  0  0  0  0
    7.1848   -7.8688   -5.3549 H   0  0  0  0  0  0  0  0  0  0  0  0
    6.4766   -7.4054   -3.8829 H   0  0  0  0  0  0  0  0  0  0  0  0
    7.9034   -9.5359   -3.7980 H   0  0  0  0  0  0  0  0  0  0  0  0
    7.6887   -8.5360   -2.5438 H   0  0  0  0  0  0  0  0  0  0  0  0
  1  2  1  0  0  0  0
  1 47  1  0  0  0  0
  1 48  1  0  0  0  0
  1 49  1  0  0  0  0
  2  3  2  0  0  0  0
  2 10  1  0  0  0  0
  3  4  1  0  0  0  0
  3 50  1  0  0  0  0
  4  5  2  0  0  0  0
  4 51  1  0  0  0  0
  5  6  1  0  0  0  0
  5  9  1  0  0  0  0
  6  7  2  0  0  0  0
  6 52  1  0  0  0  0
  7  8  1  0  0  0  0
  7 11  1  0  0  0  0
  8  9  1  0  0  0  0
  9 10  2  0  0  0  0
 10 53  1  0  0  0  0
 11 12  2  0  0  0  0
 11 13  1  0  0  0  0
 13 14  1  0  0  0  0
 13 54  1  0  0  0  0
 14 15  1  0  0  0  0
 14 18  1  0  0  0  0
 14 19  1  0  0  0  0
 15 16  1  0  0  0  0
 15 55  1  0  0  0  0
 15 56  1  0  0  0  0
 16 17  1  0  0  0  0
 16 57  1  0  0  0  0
 16 58  1  0  0  0  0
 17 18  1  0  0  0  0
 17 59  1  0  0  0  0
 17 60  1  0  0  0  0
 18 61  1  0  0  0  0
 18 62  1  0  0  0  0
 19 20  2  0  0  0  0
 19 21  1  0  0  0  0
 21 63  1  0  0  0  0
 22 30  1  0  0  0  0
 22 64  1  6  0  0  0
 22 23  1  0  0  0  0
 22 21  1  0  0  0  0
 23 24  1  0  0  0  0
 23 65  1  0  0  0  0
 23 66  1  0  0  0  0
 24 25  2  0  0  0  0
 24 29  1  0  0  0  0
 25 26  1  0  0  0  0
 25 67  1  0  0  0  0
 26 27  2  0  0  0  0
 26 68  1  0  0  0  0
 27 28  1  0  0  0  0
 27 69  1  0  0  0  0
 28 29  2  0  0  0  0
 28 70  1  0  0  0  0
 29 71  1  0  0  0  0
 30 31  2  0  0  0  0
 30 32  1  0  0  0  0
 32 33  1  0  0  0  0
 32 72  1  0  0  0  0
 33 34  1  0  0  0  0
 33 73  1  0  0  0  0
 33 74  1  0  0  0  0
 34 35  1  0  0  0  0
 34 39  1  0  0  0  0
 34 75  1  0  0  0  0
 35 36  1  0  0  0  0
 35 76  1  0  0  0  0
 35 77  1  0  0  0  0
 36 37  1  0  0  0  0
 36 78  1  0  0  0  0
 36 79  1  0  0  0  0
 37 38  1  0  0  0  0
 37 40  1  0  0  0  0
 38 39  1  0  0  0  0
 38 80  1  0  0  0  0
 38 81  1  0  0  0  0
 39 82  1  0  0  0  0
 39 83  1  0  0  0  0
 40 41  1  0  0  0  0
 40 84  1  0  0  0  0
 40 85  1  0  0  0  0
 41 42  1  0  0  0  0
 41 46  1  0  0  0  0
 41 86  1  0  0  0  0
 42 43  1  0  0  0  0
 42 87  1  0  0  0  0
 42 88  1  0  0  0  0
 43 44  1  0  0  0  0
 43 89  1  0  0  0  0
 43 90  1  0  0  0  0
 44 45  1  0  0  0  0
 45 46  1  0  0  0  0
 45 91  1  0  0  0  0
 45 92  1  0  0  0  0
 46 93  1  0  0  0  0
 46 94  1  0  0  0  0
M  END
>  <DRUGBANK_ID>
DB12042

>  <COMMON_NAME>
Ibodutant

>  <CAS_NUMBER>
522664-63-7

>  <UNII>
1H7RSQ28BJ

>  <SYNONYMS>
Ibodutant

$$$$
