
 OpenBabel10282417133D

 35 35  0  0  0  0  0  0  0  0999 V2000
    0.9578    0.1001    0.1572 N   0  0  0  0  0  0  0  0  0  0  0  0
    0.5163    1.1632   -0.7384 C   0  0  0  0  0  0  0  0  0  0  0  0
    1.0053    0.9340   -2.1709 C   0  0  0  0  0  0  0  0  0  0  0  0
    0.4924   -0.3700   -2.7700 C   0  0  0  0  0  0  0  0  0  0  0  0
   -1.0208   -0.4399   -2.7736 C   0  0  0  0  0  0  0  0  0  0  0  0
   -1.6226    0.5417   -3.6587 N   0  0  0  0  0  0  0  0  0  0  0  0
   -2.3852    0.3084   -4.7777 C   0  0  0  0  0  0  0  0  0  0  0  0
   -2.7117    1.2322   -5.5150 O   0  0  0  0  0  0  0  0  0  0  0  0
   -2.8398   -1.0757   -5.0655 C   0  0  0  0  0  0  0  0  0  0  0  0
   -3.3593   -1.8623   -4.0287 C   0  0  0  0  0  0  0  0  0  0  0  0
   -3.7294   -3.1826   -4.2559 C   0  0  0  0  0  0  0  0  0  0  0  0
   -3.6885   -3.6906   -5.5545 C   0  0  0  0  0  0  0  0  0  0  0  0
   -3.2715   -2.8825   -6.6201 C   0  0  0  0  0  0  0  0  0  0  0  0
   -2.7977   -1.5856   -6.3671 C   0  0  0  0  0  0  0  0  0  0  0  0
   -4.0473   -5.4099   -5.8009 S   0  0  0  0  0  0  0  0  0  0  0  0
   -5.3907   -5.4066   -6.8116 N   0  0  0  0  0  0  0  0  0  0  0  0
   -2.9503   -5.9957   -6.5439 O   0  0  0  0  0  0  0  0  0  0  0  0
   -4.5097   -5.9689   -4.5569 O   0  0  0  0  0  0  0  0  0  0  0  0
    0.6080   -0.8044   -0.1568 H   0  0  0  0  0  0  0  0  0  0  0  0
    1.9741    0.0277    0.1118 H   0  0  0  0  0  0  0  0  0  0  0  0
   -0.5759    1.2354   -0.6989 H   0  0  0  0  0  0  0  0  0  0  0  0
    0.8912    2.1227   -0.3736 H   0  0  0  0  0  0  0  0  0  0  0  0
    0.6845    1.7733   -2.7993 H   0  0  0  0  0  0  0  0  0  0  0  0
    2.1007    0.9281   -2.1991 H   0  0  0  0  0  0  0  0  0  0  0  0
    0.8702   -0.4933   -3.7916 H   0  0  0  0  0  0  0  0  0  0  0  0
    0.8738   -1.2276   -2.2024 H   0  0  0  0  0  0  0  0  0  0  0  0
   -1.2485   -1.4551   -3.0826 H   0  0  0  0  0  0  0  0  0  0  0  0
   -1.4693   -0.3022   -1.7855 H   0  0  0  0  0  0  0  0  0  0  0  0
   -1.4367    1.5270   -3.4968 H   0  0  0  0  0  0  0  0  0  0  0  0
   -3.4237   -1.4666   -3.0180 H   0  0  0  0  0  0  0  0  0  0  0  0
   -4.0298   -3.7976   -3.4112 H   0  0  0  0  0  0  0  0  0  0  0  0
   -3.2972   -3.2606   -7.6396 H   0  0  0  0  0  0  0  0  0  0  0  0
   -2.3862   -0.9845   -7.1768 H   0  0  0  0  0  0  0  0  0  0  0  0
   -5.5834   -6.3755   -7.0818 H   0  0  0  0  0  0  0  0  0  0  0  0
   -6.2040   -4.9978   -6.3514 H   0  0  0  0  0  0  0  0  0  0  0  0
  1  2  1  0  0  0  0
  1 19  1  0  0  0  0
  1 20  1  0  0  0  0
  2  3  1  0  0  0  0
  2 21  1  0  0  0  0
  2 22  1  0  0  0  0
  3  4  1  0  0  0  0
  3 23  1  0  0  0  0
  3 24  1  0  0  0  0
  4  5  1  0  0  0  0
  4 25  1  0  0  0  0
  4 26  1  0  0  0  0
  5  6  1  0  0  0  0
  5 27  1  0  0  0  0
  5 28  1  0  0  0  0
  6  7  1  0  0  0  0
  6 29  1  0  0  0  0
  7  8  2  0  0  0  0
  7  9  1  0  0  0  0
  9 10  2  0  0  0  0
  9 14  1  0  0  0  0
 10 11  1  0  0  0  0
 10 30  1  0  0  0  0
 11 12  2  0  0  0  0
 11 31  1  0  0  0  0
 12 13  1  0  0  0  0
 12 15  1  0  0  0  0
 13 14  2  0  0  0  0
 13 32  1  0  0  0  0
 14 33  1  0  0  0  0
 15 16  1  0  0  0  0
 15 17  2  0  0  0  0
 15 18  2  0  0  0  0
 16 34  1  0  0  0  0
 16 35  1  0  0  0  0
M  END
>  <DRUGBANK_ID>
DB03697

>  <SECONDARY_ACCESSION_NUMBERS>
EXPT02838

>  <COMMON_NAME>
4-Sulfonamide-[1-(4-Aminobutane)]Benzamide

$$$$
