
 OpenBabel10282417183D

 48 51  0  0  0  0  0  0  0  0999 V2000
    1.1177    0.0682   -2.5312 C   0  0  0  0  0  0  0  0  0  0  0  0
    0.2104   -4.2430   -0.3302 C   0  0  0  0  0  0  0  0  0  0  0  0
   -1.8524   -2.2756    5.7257 C   0  0  0  0  0  0  0  0  0  0  0  0
   -1.0362   -1.1550    6.3018 C   0  0  0  0  0  0  0  0  0  0  0  0
   -1.1368   -0.2901   -1.3985 C   0  0  0  0  0  0  0  0  0  0  0  0
   -1.5388   -2.4719   -0.3323 C   0  0  0  0  0  0  0  0  0  0  0  0
   -3.6693    0.2606    5.4050 C   0  0  0  0  0  0  0  0  0  0  0  0
    0.3992   -0.6012   -1.3593 C   0  0  1  0  0  0  0  0  0  0  0  0
   -0.0180   -2.7361   -0.2697 C   0  0  2  0  0  0  0  0  0  0  0  0
   -1.6017   -1.0256    4.9160 C   0  0  0  0  0  0  0  0  0  0  0  0
   -4.8198    0.9085    5.1604 C   0  0  0  0  0  0  0  0  0  0  0  0
   -4.2688    0.5596    2.6959 C   0  0  0  0  0  0  0  0  0  0  0  0
   -4.5823    0.7415    1.3447 C   0  0  0  0  0  0  0  0  0  0  0  0
   -3.7451    0.2546    0.3456 C   0  0  0  0  0  0  0  0  0  0  0  0
   -2.3075   -0.6533    2.0227 C   0  0  0  0  0  0  0  0  0  0  0  0
   -3.1006   -0.1269    3.0717 C   0  0  0  0  0  0  0  0  0  0  0  0
   -2.5956   -0.4718    0.6514 C   0  0  0  0  0  0  0  0  0  0  0  0
   -5.1814    1.0958    3.7342 C   0  0  0  0  0  0  0  0  0  0  0  0
   -5.6858    1.4180    6.2444 C   0  0  0  0  0  0  0  0  0  0  0  0
   -5.6996    1.3802    0.9691 F   0  0  0  0  0  0  0  0  0  0  0  0
   -4.0982    0.4364   -0.9371 F   0  0  0  0  0  0  0  0  0  0  0  0
   -1.1975   -1.3567    2.3020 F   0  0  0  0  0  0  0  0  0  0  0  0
    0.6964   -2.0609   -1.3804 N   0  0  0  0  0  0  0  0  0  0  0  0
   -1.7996   -1.0347   -0.3241 N   0  0  0  0  0  0  0  0  0  0  0  0
   -2.7775   -0.2390    4.4645 N   0  0  0  0  0  0  0  0  0  0  0  0
   -6.2115    1.6719    3.4099 O   0  0  0  0  0  0  0  0  0  0  0  0
   -6.7345    2.0302    6.1240 O   0  0  0  0  0  0  0  0  0  0  0  0
   -5.2191    1.1631    7.4828 O   0  0  0  0  0  0  0  0  0  0  0  0
    0.8145   -0.1911   -0.4279 H   0  0  0  0  0  0  0  0  0  0  0  0
    0.3832   -2.3621    0.6818 H   0  0  0  0  0  0  0  0  0  0  0  0
    2.0931   -0.3919   -2.7278 H   0  0  0  0  0  0  0  0  0  0  0  0
    1.3017    1.1251   -2.3090 H   0  0  0  0  0  0  0  0  0  0  0  0
    0.5294    0.0126   -3.4530 H   0  0  0  0  0  0  0  0  0  0  0  0
    1.2713   -4.4939   -0.2438 H   0  0  0  0  0  0  0  0  0  0  0  0
   -0.3193   -4.7376    0.4929 H   0  0  0  0  0  0  0  0  0  0  0  0
   -0.1717   -4.6627   -1.2673 H   0  0  0  0  0  0  0  0  0  0  0  0
   -1.3630   -3.1922    5.4236 H   0  0  0  0  0  0  0  0  0  0  0  0
   -2.8592   -2.4293    6.1011 H   0  0  0  0  0  0  0  0  0  0  0  0
   -1.4172   -0.5292    7.0940 H   0  0  0  0  0  0  0  0  0  0  0  0
    0.0382   -1.3120    6.3743 H   0  0  0  0  0  0  0  0  0  0  0  0
   -1.3074    0.7897   -1.3213 H   0  0  0  0  0  0  0  0  0  0  0  0
   -1.5500   -0.6244   -2.3591 H   0  0  0  0  0  0  0  0  0  0  0  0
   -1.9352   -2.8797   -1.2720 H   0  0  0  0  0  0  0  0  0  0  0  0
   -2.0586   -2.9942    0.4789 H   0  0  0  0  0  0  0  0  0  0  0  0
   -3.3673    0.0803    6.4320 H   0  0  0  0  0  0  0  0  0  0  0  0
   -0.7718   -0.9648    4.2202 H   0  0  0  0  0  0  0  0  0  0  0  0
    1.7000   -2.2062   -1.2752 H   0  0  0  0  0  0  0  0  0  0  0  0
   -5.9004    1.5747    8.0596 H   0  0  0  0  0  0  0  0  0  0  0  0
  1 31  1  0  0  0  0
  1 32  1  0  0  0  0
  1 33  1  0  0  0  0
  2 34  1  0  0  0  0
  2 35  1  0  0  0  0
  2 36  1  0  0  0  0
  3 37  1  0  0  0  0
  3 38  1  0  0  0  0
  4  3  1  0  0  0  0
  4 39  1  0  0  0  0
  4 40  1  0  0  0  0
  5 41  1  0  0  0  0
  5 42  1  0  0  0  0
  6 43  1  0  0  0  0
  6 44  1  0  0  0  0
  7 45  1  0  0  0  0
  8  5  1  0  0  0  0
  8 29  1  1  0  0  0
  8  1  1  0  0  0  0
  9  2  1  0  0  0  0
  9  6  1  0  0  0  0
  9 30  1  1  0  0  0
 10  3  1  0  0  0  0
 10  4  1  0  0  0  0
 10 46  1  0  0  0  0
 11  7  2  0  0  0  0
 13 12  2  0  0  0  0
 14 13  1  0  0  0  0
 16 12  1  0  0  0  0
 16 15  2  0  0  0  0
 17 14  2  0  0  0  0
 17 15  1  0  0  0  0
 18 11  1  0  0  0  0
 18 12  1  0  0  0  0
 19 11  1  0  0  0  0
 20 13  1  0  0  0  0
 21 14  1  0  0  0  0
 22 15  1  0  0  0  0
 23  8  1  0  0  0  0
 23  9  1  0  0  0  0
 23 47  1  0  0  0  0
 24  5  1  0  0  0  0
 24  6  1  0  0  0  0
 24 17  1  0  0  0  0
 25  7  1  0  0  0  0
 25 10  1  0  0  0  0
 25 16  1  0  0  0  0
 26 18  2  0  0  0  0
 27 19  2  0  0  0  0
 28 19  1  0  0  0  0
 28 48  1  0  0  0  0
M  END
>  <DRUGBANK_ID>
DB11443

>  <COMMON_NAME>
Orbifloxacin

>  <CAS_NUMBER>
113617-63-3

>  <UNII>
660932TPY6

>  <SYNONYMS>
Orbifloxacin

$$$$
