1178
 OpenBabel10282417113D

 29 30  0  0  1  0  0  0  0  0999 V2000
   -2.1680   -0.0980    0.0114 Cl  0  0  0  0  0  0  0  0  0  0  0  0
    4.5297    0.6159    1.5368 S   0  0  0  0  0  0  0  0  0  0  0  0
    3.8005    0.0117    2.6421 O   0  0  0  0  0  0  0  0  0  0  0  0
    5.9770    0.5756    1.5106 O   0  0  0  0  0  0  0  0  0  0  0  0
    3.7241    2.7280   -2.1904 O   0  0  0  0  0  0  0  0  0  0  0  0
    4.4075    0.7886   -1.1859 N   0  0  0  0  0  0  0  0  0  0  0  0
    3.9070    0.0017   -0.0560 C   0  0  3  0  0  0  0  0  0  0  0  0
    4.0642    2.3214    1.4018 C   0  0  0  0  0  0  0  0  0  0  0  0
    4.5526    2.8917    0.0746 C   0  0  0  0  0  0  0  0  0  0  0  0
    2.3710   -0.0196   -0.0425 C   0  0  0  0  0  0  0  0  0  0  0  0
    4.1687    2.1463   -1.2059 C   0  0  0  0  0  0  0  0  0  0  0  0
    5.2057    0.1676   -2.2248 C   0  0  0  0  0  0  0  0  0  0  0  0
    1.5846    1.1537   -0.1044 C   0  0  0  0  0  0  0  0  0  0  0  0
    1.6851   -1.2384   -0.0049 C   0  0  0  0  0  0  0  0  0  0  0  0
    0.1985    1.1393   -0.0465 C   0  0  0  0  0  0  0  0  0  0  0  0
    0.2821   -1.2621   -0.0037 C   0  0  0  0  0  0  0  0  0  0  0  0
   -0.4523   -0.0756   -0.0059 C   0  0  0  0  0  0  0  0  0  0  0  0
    4.2982   -1.0211   -0.1291 H   0  0  0  0  0  0  0  0  0  0  0  0
    2.9847    2.3934    1.5397 H   0  0  0  0  0  0  0  0  0  0  0  0
    4.5023    2.8570    2.2466 H   0  0  0  0  0  0  0  0  0  0  0  0
    5.6480    2.9066    0.0745 H   0  0  0  0  0  0  0  0  0  0  0  0
    4.2100    3.9272   -0.0208 H   0  0  0  0  0  0  0  0  0  0  0  0
    4.7109    0.2601   -3.1937 H   0  0  0  0  0  0  0  0  0  0  0  0
    6.1668    0.6937   -2.2732 H   0  0  0  0  0  0  0  0  0  0  0  0
    5.4012   -0.8845   -1.9983 H   0  0  0  0  0  0  0  0  0  0  0  0
    2.0006    2.1470   -0.2145 H   0  0  0  0  0  0  0  0  0  0  0  0
    2.2265   -2.1828    0.0101 H   0  0  0  0  0  0  0  0  0  0  0  0
   -0.3397    2.0839   -0.0576 H   0  0  0  0  0  0  0  0  0  0  0  0
   -0.2375   -2.2152   -0.0036 H   0  0  0  0  0  0  0  0  0  0  0  0
  1 17  1  0  0  0  0
  2  3  2  0  0  0  0
  2  4  2  0  0  0  0
  2  7  1  0  0  0  0
  2  8  1  0  0  0  0
  5 11  2  0  0  0  0
  6  7  1  0  0  0  0
  6 11  1  0  0  0  0
  6 12  1  0  0  0  0
  7 10  1  0  0  0  0
  7 18  1  0  0  0  0
  8  9  1  0  0  0  0
  8 19  1  0  0  0  0
  8 20  1  0  0  0  0
  9 11  1  0  0  0  0
  9 21  1  0  0  0  0
  9 22  1  0  0  0  0
 10 13  2  0  0  0  0
 10 14  1  0  0  0  0
 12 23  1  0  0  0  0
 12 24  1  0  0  0  0
 12 25  1  0  0  0  0
 13 15  1  0  0  0  0
 13 26  1  0  0  0  0
 14 16  2  0  0  0  0
 14 27  1  0  0  0  0
 15 17  2  0  0  0  0
 15 28  1  0  0  0  0
 16 17  1  0  0  0  0
 16 29  1  0  0  0  0
M  END
>  <DRUGBANK_ID>
DB01178

>  <SECONDARY_ACCESSION_NUMBERS>
APRD00865

>  <COMMON_NAME>
Chlormezanone

>  <CAS_NUMBER>
80-77-3

>  <UNII>
GP568V9G19

>  <SYNONYMS>
(±)-chlormezanone; 2-(p-chlorophenyl)tetrahydro-3-methyl-4H-1,3-thiazin-4-one 1,1-dioxide; 2-(p-chlorphenyl)-3-methyl-1,3-perhydrothiazin-4-on-1,1-dioxide; Chlormethazanone; Chlormezanona; Chlormézanone; Chlormezanone; Chlormezanonum; Clormezanona

$$$$
