S91
 OpenBabel10282417173D

 47 49  0  0  0  0  0  0  0  0999 V2000
    1.3912   -0.2256    0.0487 C   0  0  0  0  0  0  0  0  0  0  0  0
    0.4814   -1.2918    0.0245 C   0  0  0  0  0  0  0  0  0  0  0  0
   -0.9012   -1.0517   -0.0363 C   0  0  0  0  0  0  0  0  0  0  0  0
   -1.3971    0.2575   -0.0533 C   0  0  0  0  0  0  0  0  0  0  0  0
   -0.4705    1.3054    0.0286 C   0  0  0  0  0  0  0  0  0  0  0  0
    0.9000    1.0782    0.0233 C   0  0  0  0  0  0  0  0  0  0  0  0
    2.8762   -0.4528    0.1419 C   0  0  0  0  0  0  0  0  0  0  0  0
    3.6241    0.0591   -1.0727 C   0  0  0  0  0  0  0  0  0  0  0  0
    4.5539    1.0080   -0.7979 O   0  0  0  0  0  0  0  0  0  0  0  0
    3.4320   -0.3367   -2.2079 O   0  0  0  0  0  0  0  0  0  0  0  0
   -4.2447    2.1293    0.6019 N   0  0  0  0  0  0  0  0  0  0  0  0
   -4.6713    3.4221    0.6651 C   0  0  0  0  0  0  0  0  0  0  0  0
   -4.2854    4.3828   -0.2581 C   0  0  0  0  0  0  0  0  0  0  0  0
   -3.4017    3.9177   -1.2114 C   0  0  0  0  0  0  0  0  0  0  0  0
   -2.9090    2.6602   -1.2491 N   0  0  0  0  0  0  0  0  0  0  0  0
   -3.3440    1.7929   -0.3255 C   0  0  0  0  0  0  0  0  0  0  0  0
   -4.7318    5.8005   -0.3476 C   0  0  0  0  0  0  0  0  0  0  0  0
   -4.2959    6.5158   -1.2553 O   0  0  0  0  0  0  0  0  0  0  0  0
   -5.4583    3.8030    1.7760 N   0  0  0  0  0  0  0  0  0  0  0  0
   -2.7630    0.5233   -0.2640 N   0  0  0  0  0  0  0  0  0  0  0  0
   -5.6399    6.3702    0.5136 N   0  0  0  0  0  0  0  0  0  0  0  0
   -7.1657    1.2422    4.6049 C   0  0  0  0  0  0  0  0  0  0  0  0
   -5.7846    1.4496    4.6002 C   0  0  0  0  0  0  0  0  0  0  0  0
   -5.2121    2.2846    3.6499 C   0  0  0  0  0  0  0  0  0  0  0  0
   -6.0185    2.9054    2.7010 C   0  0  0  0  0  0  0  0  0  0  0  0
   -7.3966    2.6559    2.6733 C   0  0  0  0  0  0  0  0  0  0  0  0
   -7.9884    1.8790    3.6690 C   0  0  0  0  0  0  0  0  0  0  0  0
   -9.4823    1.8126    3.7725 C   0  0  0  0  0  0  0  0  0  0  0  0
    0.8419   -2.3188    0.0267 H   0  0  0  0  0  0  0  0  0  0  0  0
   -1.5775   -1.9027   -0.0678 H   0  0  0  0  0  0  0  0  0  0  0  0
   -0.8088    2.3353    0.0886 H   0  0  0  0  0  0  0  0  0  0  0  0
    1.5640    1.9375   -0.0199 H   0  0  0  0  0  0  0  0  0  0  0  0
    3.2395    0.0247    1.0603 H   0  0  0  0  0  0  0  0  0  0  0  0
    3.1044   -1.5191    0.2458 H   0  0  0  0  0  0  0  0  0  0  0  0
    4.6283    1.2758    0.1359 H   0  0  0  0  0  0  0  0  0  0  0  0
   -3.0230    4.5577   -2.0058 H   0  0  0  0  0  0  0  0  0  0  0  0
   -6.1885    4.4183    1.4641 H   0  0  0  0  0  0  0  0  0  0  0  0
   -3.4225   -0.2066   -0.0491 H   0  0  0  0  0  0  0  0  0  0  0  0
   -5.9639    6.0616    1.4160 H   0  0  0  0  0  0  0  0  0  0  0  0
   -5.8260    7.3537    0.3451 H   0  0  0  0  0  0  0  0  0  0  0  0
   -7.5959    0.5839    5.3541 H   0  0  0  0  0  0  0  0  0  0  0  0
   -5.1542    0.9857    5.3521 H   0  0  0  0  0  0  0  0  0  0  0  0
   -4.1437    2.4822    3.6577 H   0  0  0  0  0  0  0  0  0  0  0  0
   -8.0148    3.0908    1.8902 H   0  0  0  0  0  0  0  0  0  0  0  0
   -9.8814    2.8221    3.9318 H   0  0  0  0  0  0  0  0  0  0  0  0
   -9.9226    1.3942    2.8637 H   0  0  0  0  0  0  0  0  0  0  0  0
   -9.7936    1.2030    4.6260 H   0  0  0  0  0  0  0  0  0  0  0  0
  1  2  1  0  0  0  0
  1  6  2  0  0  0  0
  1  7  1  0  0  0  0
  2  3  2  0  0  0  0
  2 29  1  0  0  0  0
  3  4  1  0  0  0  0
  3 30  1  0  0  0  0
  4  5  2  0  0  0  0
  4 20  1  0  0  0  0
  5  6  1  0  0  0  0
  5 31  1  0  0  0  0
  6 32  1  0  0  0  0
  7  8  1  0  0  0  0
  7 33  1  0  0  0  0
  7 34  1  0  0  0  0
  8  9  1  0  0  0  0
  8 10  2  0  0  0  0
  9 35  1  0  0  0  0
 11 12  2  0  0  0  0
 11 16  1  0  0  0  0
 12 13  1  0  0  0  0
 12 19  1  0  0  0  0
 13 14  2  0  0  0  0
 13 17  1  0  0  0  0
 14 15  1  0  0  0  0
 14 36  1  0  0  0  0
 15 16  2  0  0  0  0
 16 20  1  0  0  0  0
 17 18  2  0  0  0  0
 17 21  1  0  0  0  0
 19 25  1  0  0  0  0
 19 37  1  0  0  0  0
 20 38  1  0  0  0  0
 21 39  1  0  0  0  0
 21 40  1  0  0  0  0
 22 23  2  0  0  0  0
 22 27  1  0  0  0  0
 22 41  1  0  0  0  0
 23 24  1  0  0  0  0
 23 42  1  0  0  0  0
 24 25  2  0  0  0  0
 24 43  1  0  0  0  0
 25 26  1  0  0  0  0
 26 27  2  0  0  0  0
 26 44  1  0  0  0  0
 27 28  1  0  0  0  0
 28 45  1  0  0  0  0
 28 46  1  0  0  0  0
 28 47  1  0  0  0  0
M  END
>  <DRUGBANK_ID>
DB08513

>  <COMMON_NAME>
[4-({5-(AMINOCARBONYL)-4-[(3-METHYLPHENYL)AMINO]PYRIMIDIN-2-YL}AMINO)PHENYL]ACETIC ACID

$$$$
