
 OpenBabel10282417173D

 70 73  0  0  1  0  0  0  0  0999 V2000
    1.9550   -0.7326    0.0064 C   0  0  0  0  0  0  0  0  0  0  0  0
    1.9463    0.6937    0.0127 C   0  0  0  0  0  0  0  0  0  0  0  0
    0.6964    1.3579    0.0181 C   0  0  0  0  0  0  0  0  0  0  0  0
   -0.4618    0.6198    0.0316 C   0  0  0  0  0  0  0  0  0  0  0  0
   -0.4552   -0.7407    0.0030 C   0  0  0  0  0  0  0  0  0  0  0  0
    0.7206   -1.4331   -0.0150 C   0  0  0  0  0  0  0  0  0  0  0  0
   -1.9567    0.6921    0.0713 C   0  0  2  0  0  0  0  0  0  0  0  0
   -1.9460   -0.8614    0.0257 C   0  0  0  0  0  0  0  0  0  0  0  0
    2.9395   -1.6865    0.0134 O   0  0  0  0  0  0  0  0  0  0  0  0
    2.9188    1.6610    0.0325 O   0  0  0  0  0  0  0  0  0  0  0  0
   -2.5823    1.3724   -1.1298 C   0  0  0  0  0  0  0  0  0  0  0  0
   -2.5838    2.8319   -0.9880 N   0  0  0  0  0  0  0  0  0  0  0  0
   -3.1887    3.4299   -2.1842 C   0  0  0  0  0  0  0  0  0  0  0  0
   -3.1552    3.2584    0.2939 C   0  0  0  0  0  0  0  0  0  0  0  0
    4.2581    1.3698   -0.2619 C   0  0  0  0  0  0  0  0  0  0  0  0
    4.2537   -1.3730    0.3799 C   0  0  0  0  0  0  0  0  0  0  0  0
   -4.6767    3.1533   -2.4420 C   0  0  0  0  0  0  0  0  0  0  0  0
   -5.6445    3.6272   -1.3726 C   0  0  0  0  0  0  0  0  0  0  0  0
   -5.5833    5.0379   -0.9881 N   0  0  0  0  0  0  0  0  0  0  0  0
   -6.0035    8.0698   -1.8192 C   0  0  0  0  0  0  0  0  0  0  0  0
   -5.2426    6.9544   -2.5017 C   0  0  0  0  0  0  0  0  0  0  0  0
   -4.6812    6.0005   -1.4555 C   0  0  0  0  0  0  0  0  0  0  0  0
   -7.1494    7.7593   -1.0658 C   0  0  0  0  0  0  0  0  0  0  0  0
   -6.6492    5.5194   -0.1336 C   0  0  0  0  0  0  0  0  0  0  0  0
   -7.6397    6.3345   -0.9565 C   0  0  0  0  0  0  0  0  0  0  0  0
   -3.5856    6.2031   -0.9573 O   0  0  0  0  0  0  0  0  0  0  0  0
   -5.5258    9.3905   -1.8281 C   0  0  0  0  0  0  0  0  0  0  0  0
   -6.1673   10.3966   -1.0866 C   0  0  0  0  0  0  0  0  0  0  0  0
   -7.2962   10.0736   -0.3117 C   0  0  0  0  0  0  0  0  0  0  0  0
   -7.7710    8.7575   -0.3099 C   0  0  0  0  0  0  0  0  0  0  0  0
   -5.7453   11.6946   -1.0582 O   0  0  0  0  0  0  0  0  0  0  0  0
   -4.6224   12.0875   -1.8205 C   0  0  0  0  0  0  0  0  0  0  0  0
   -8.0353   10.9055    0.4958 O   0  0  0  0  0  0  0  0  0  0  0  0
   -7.6612   12.2761    0.5630 C   0  0  0  0  0  0  0  0  0  0  0  0
    0.6416    2.4454    0.0078 H   0  0  0  0  0  0  0  0  0  0  0  0
    0.6968   -2.5184   -0.0179 H   0  0  0  0  0  0  0  0  0  0  0  0
   -2.3913    1.0083    1.0256 H   0  0  0  0  0  0  0  0  0  0  0  0
   -2.4444   -1.2984   -0.8461 H   0  0  0  0  0  0  0  0  0  0  0  0
   -2.3911   -1.3007    0.9261 H   0  0  0  0  0  0  0  0  0  0  0  0
   -2.0454    1.1089   -2.0529 H   0  0  0  0  0  0  0  0  0  0  0  0
   -3.6049    0.9984   -1.2423 H   0  0  0  0  0  0  0  0  0  0  0  0
   -2.9741    4.4941   -2.2119 H   0  0  0  0  0  0  0  0  0  0  0  0
   -2.6345    3.0839   -3.0681 H   0  0  0  0  0  0  0  0  0  0  0  0
   -4.0650    2.7069    0.5391 H   0  0  0  0  0  0  0  0  0  0  0  0
   -2.4816    3.0574    1.1324 H   0  0  0  0  0  0  0  0  0  0  0  0
   -3.3481    4.3264    0.3614 H   0  0  0  0  0  0  0  0  0  0  0  0
    4.7024    0.8901    0.6055 H   0  0  0  0  0  0  0  0  0  0  0  0
    4.3277    0.8342   -1.2118 H   0  0  0  0  0  0  0  0  0  0  0  0
    4.8670    2.2711   -0.3665 H   0  0  0  0  0  0  0  0  0  0  0  0
    4.7300   -0.8888   -0.4668 H   0  0  0  0  0  0  0  0  0  0  0  0
    4.2666   -0.8346    1.3311 H   0  0  0  0  0  0  0  0  0  0  0  0
    4.8659   -2.2667    0.5162 H   0  0  0  0  0  0  0  0  0  0  0  0
   -4.9684    3.6183   -3.3897 H   0  0  0  0  0  0  0  0  0  0  0  0
   -4.8281    2.0764   -2.5967 H   0  0  0  0  0  0  0  0  0  0  0  0
   -6.6657    3.4211   -1.7181 H   0  0  0  0  0  0  0  0  0  0  0  0
   -5.5907    3.0224   -0.4643 H   0  0  0  0  0  0  0  0  0  0  0  0
   -4.4064    7.3352   -3.1022 H   0  0  0  0  0  0  0  0  0  0  0  0
   -5.8843    6.4077   -3.2013 H   0  0  0  0  0  0  0  0  0  0  0  0
   -7.1413    4.6608    0.3352 H   0  0  0  0  0  0  0  0  0  0  0  0
   -6.1904    6.1134    0.6681 H   0  0  0  0  0  0  0  0  0  0  0  0
   -8.6293    6.2999   -0.4958 H   0  0  0  0  0  0  0  0  0  0  0  0
   -7.7522    5.9098   -1.9636 H   0  0  0  0  0  0  0  0  0  0  0  0
   -4.6276    9.6123   -2.3971 H   0  0  0  0  0  0  0  0  0  0  0  0
   -8.6248    8.5044    0.3153 H   0  0  0  0  0  0  0  0  0  0  0  0
   -3.7188   11.5804   -1.4726 H   0  0  0  0  0  0  0  0  0  0  0  0
   -4.7986   11.9274   -2.8874 H   0  0  0  0  0  0  0  0  0  0  0  0
   -4.4872   13.1620   -1.6606 H   0  0  0  0  0  0  0  0  0  0  0  0
   -6.6614   12.3913    0.9964 H   0  0  0  0  0  0  0  0  0  0  0  0
   -7.7477   12.7555   -0.4183 H   0  0  0  0  0  0  0  0  0  0  0  0
   -8.3557   12.7946    1.2294 H   0  0  0  0  0  0  0  0  0  0  0  0
  1  2  2  0  0  0  0
  1  6  1  0  0  0  0
  1  9  1  0  0  0  0
  2  3  1  0  0  0  0
  2 10  1  0  0  0  0
  3  4  2  0  0  0  0
  3 35  1  0  0  0  0
  4  5  1  0  0  0  0
  4  7  1  0  0  0  0
  5  6  2  0  0  0  0
  5  8  1  0  0  0  0
  6 36  1  0  0  0  0
  7  8  1  0  0  0  0
  7 37  1  1  0  0  0
  7 11  1  0  0  0  0
  8 38  1  0  0  0  0
  8 39  1  0  0  0  0
  9 16  1  0  0  0  0
 10 15  1  0  0  0  0
 11 12  1  0  0  0  0
 11 40  1  0  0  0  0
 11 41  1  0  0  0  0
 12 13  1  0  0  0  0
 12 14  1  0  0  0  0
 13 17  1  0  0  0  0
 13 42  1  0  0  0  0
 13 43  1  0  0  0  0
 14 44  1  0  0  0  0
 14 45  1  0  0  0  0
 14 46  1  0  0  0  0
 15 47  1  0  0  0  0
 15 48  1  0  0  0  0
 15 49  1  0  0  0  0
 16 50  1  0  0  0  0
 16 51  1  0  0  0  0
 16 52  1  0  0  0  0
 17 18  1  0  0  0  0
 17 53  1  0  0  0  0
 17 54  1  0  0  0  0
 18 19  1  0  0  0  0
 18 55  1  0  0  0  0
 18 56  1  0  0  0  0
 19 24  1  0  0  0  0
 20 23  1  0  0  0  0
 20 21  1  0  0  0  0
 20 27  2  0  0  0  0
 21 22  1  0  0  0  0
 21 57  1  0  0  0  0
 21 58  1  0  0  0  0
 22 19  1  0  0  0  0
 22 26  2  0  0  0  0
 23 25  1  0  0  0  0
 23 30  2  0  0  0  0
 24 25  1  0  0  0  0
 24 59  1  0  0  0  0
 24 60  1  0  0  0  0
 25 61  1  0  0  0  0
 25 62  1  0  0  0  0
 27 28  1  0  0  0  0
 27 63  1  0  0  0  0
 28 29  2  0  0  0  0
 28 31  1  0  0  0  0
 29 30  1  0  0  0  0
 29 33  1  0  0  0  0
 30 64  1  0  0  0  0
 31 32  1  0  0  0  0
 32 65  1  0  0  0  0
 32 66  1  0  0  0  0
 32 67  1  0  0  0  0
 33 34  1  0  0  0  0
 34 68  1  0  0  0  0
 34 69  1  0  0  0  0
 34 70  1  0  0  0  0
M  END
>  <DRUGBANK_ID>
DB09083

>  <COMMON_NAME>
Ivabradine

>  <CAS_NUMBER>
155974-00-8

>  <UNII>
3H48L0LPZQ

>  <SYNONYMS>
3-[3-({[(7S)-3,4-dimethoxybicyclo[4.2.0]octa-1,3,5-trien-7-yl]methyl}(methyl)amino)propyl]-7,8-dimethoxy-2,3,4,5-tetrahydro-1H-3-benzazepin-2-one; Ivabradin; Ivabradina; Ivabradine; Ivabradinum

$$$$
