8ST
 OpenBabel10282417163D

 40 42  0  0  0  0  0  0  0  0999 V2000
   -2.1007    0.0623   -0.0113 Cl  0  0  0  0  0  0  0  0  0  0  0  0
   -0.3821    0.0278   -0.0132 C   0  0  0  0  0  0  0  0  0  0  0  0
    0.2696   -1.1930   -0.0126 C   0  0  0  0  0  0  0  0  0  0  0  0
    1.6624   -1.2306   -0.0007 C   0  0  0  0  0  0  0  0  0  0  0  0
    0.3572    1.2103   -0.0116 C   0  0  0  0  0  0  0  0  0  0  0  0
    1.7658    1.1670   -0.0064 C   0  0  0  0  0  0  0  0  0  0  0  0
    2.4368   -0.0657   -0.0034 C   0  0  0  0  0  0  0  0  0  0  0  0
    3.8587   -0.1130   -0.0049 N   0  0  0  0  0  0  0  0  0  0  0  0
    4.6226   -1.2781   -0.0040 C   0  0  0  0  0  0  0  0  0  0  0  0
    4.1887   -2.4337   -0.0412 O   0  0  0  0  0  0  0  0  0  0  0  0
    6.1012   -1.1707    0.0707 C   0  0  0  0  0  0  0  0  0  0  0  0
    6.7522   -0.3373    0.9983 C   0  0  0  0  0  0  0  0  0  0  0  0
    8.1512   -0.4682    1.0878 C   0  0  0  0  0  0  0  0  0  0  0  0
    8.8692   -1.4106    0.3487 C   0  0  0  0  0  0  0  0  0  0  0  0
    8.2044   -2.2525   -0.5246 C   0  0  0  0  0  0  0  0  0  0  0  0
    6.8301   -2.1110   -0.6890 C   0  0  0  0  0  0  0  0  0  0  0  0
    6.0510    0.5983    1.7385 N   0  0  0  0  0  0  0  0  0  0  0  0
    6.6487    1.5377    2.6596 C   0  0  0  0  0  0  0  0  0  0  0  0
    6.4514    2.9523    2.1849 C   0  0  0  0  0  0  0  0  0  0  0  0
    6.8941    3.9899    3.0068 C   0  0  0  0  0  0  0  0  0  0  0  0
    6.7835    5.2908    2.5500 C   0  0  0  0  0  0  0  0  0  0  0  0
    6.2535    5.6268    1.3553 N   0  0  0  0  0  0  0  0  0  0  0  0
    5.8305    4.6143    0.5734 C   0  0  0  0  0  0  0  0  0  0  0  0
    5.9176    3.2823    0.9339 C   0  0  0  0  0  0  0  0  0  0  0  0
   -0.2775   -2.1312   -0.0238 H   0  0  0  0  0  0  0  0  0  0  0  0
    2.1058   -2.2176    0.0033 H   0  0  0  0  0  0  0  0  0  0  0  0
   -0.1631    2.1655   -0.0176 H   0  0  0  0  0  0  0  0  0  0  0  0
    2.3050    2.1115   -0.0043 H   0  0  0  0  0  0  0  0  0  0  0  0
    4.3553    0.7690   -0.0537 H   0  0  0  0  0  0  0  0  0  0  0  0
    8.7412    0.1261    1.7756 H   0  0  0  0  0  0  0  0  0  0  0  0
    9.9466   -1.4826    0.4750 H   0  0  0  0  0  0  0  0  0  0  0  0
    8.7492   -3.0293   -1.0531 H   0  0  0  0  0  0  0  0  0  0  0  0
    6.3106   -2.7649   -1.3876 H   0  0  0  0  0  0  0  0  0  0  0  0
    5.0429    0.4967    1.8168 H   0  0  0  0  0  0  0  0  0  0  0  0
    6.1936    1.3985    3.6462 H   0  0  0  0  0  0  0  0  0  0  0  0
    7.7225    1.3980    2.7950 H   0  0  0  0  0  0  0  0  0  0  0  0
    7.3391    3.7865    3.9756 H   0  0  0  0  0  0  0  0  0  0  0  0
    7.1388    6.1211    3.1515 H   0  0  0  0  0  0  0  0  0  0  0  0
    5.4151    4.9042   -0.3872 H   0  0  0  0  0  0  0  0  0  0  0  0
    5.5962    2.5266    0.2289 H   0  0  0  0  0  0  0  0  0  0  0  0
  1  2  1  0  0  0  0
  2  5  2  0  0  0  0
  2  3  1  0  0  0  0
  3  4  2  0  0  0  0
  3 25  1  0  0  0  0
  4  7  1  0  0  0  0
  4 26  1  0  0  0  0
  5  6  1  0  0  0  0
  5 27  1  0  0  0  0
  6  7  2  0  0  0  0
  6 28  1  0  0  0  0
  7  8  1  0  0  0  0
  8 29  1  0  0  0  0
  9  8  1  0  0  0  0
  9 11  1  0  0  0  0
 10  9  2  0  0  0  0
 11 12  2  0  0  0  0
 11 16  1  0  0  0  0
 12 13  1  0  0  0  0
 13 14  2  0  0  0  0
 13 30  1  0  0  0  0
 14 31  1  0  0  0  0
 15 14  1  0  0  0  0
 15 32  1  0  0  0  0
 16 15  2  0  0  0  0
 16 33  1  0  0  0  0
 17 12  1  0  0  0  0
 17 34  1  0  0  0  0
 18 17  1  0  0  0  0
 18 19  1  0  0  0  0
 18 35  1  0  0  0  0
 18 36  1  0  0  0  0
 19 24  2  0  0  0  0
 19 20  1  0  0  0  0
 20 21  2  0  0  0  0
 20 37  1  0  0  0  0
 21 22  1  0  0  0  0
 21 38  1  0  0  0  0
 23 22  2  0  0  0  0
 23 39  1  0  0  0  0
 24 23  1  0  0  0  0
 24 40  1  0  0  0  0
M  END
>  <DRUGBANK_ID>
DB07288

>  <COMMON_NAME>
N-(4-chlorophenyl)-2-[(pyridin-4-ylmethyl)amino]benzamide

$$$$
