
 OpenBabel10282417183D

 36 37  0  0  0  0  0  0  0  0999 V2000
    0.9345   -0.1169   -0.0722 C   0  0  0  0  0  0  0  0  0  0  0  0
    0.5110    0.6178   -1.3382 C   0  0  0  0  0  0  0  0  0  0  0  0
   -0.1461    0.0333   -2.2014 O   0  0  0  0  0  0  0  0  0  0  0  0
    0.7866    1.9649   -1.4907 N   0  0  0  0  0  0  0  0  0  0  0  0
    1.6734    2.7490   -0.7400 C   0  0  0  0  0  0  0  0  0  0  0  0
    2.7676    2.1404   -0.1862 C   0  0  0  0  0  0  0  0  0  0  0  0
    3.5112    2.7986    0.7587 C   0  0  0  0  0  0  0  0  0  0  0  0
    3.5080    4.1688    0.8630 C   0  0  0  0  0  0  0  0  0  0  0  0
    2.4888    4.8573    0.1995 C   0  0  0  0  0  0  0  0  0  0  0  0
    1.5133    4.1247   -0.5283 C   0  0  0  0  0  0  0  0  0  0  0  0
    4.7705    4.9986    1.8129 S   0  0  0  0  0  0  0  0  0  0  0  0
    5.4708    5.8908    0.9231 O   0  0  0  0  0  0  0  0  0  0  0  0
    4.0918    5.5154    2.9919 O   0  0  0  0  0  0  0  0  0  0  0  0
    5.9260    3.9008    2.4158 N   0  0  0  0  0  0  0  0  0  0  0  0
    6.2737    2.6164    1.8965 C   0  0  0  0  0  0  0  0  0  0  0  0
    6.2827    2.3098    0.5319 C   0  0  0  0  0  0  0  0  0  0  0  0
    6.2074    0.9656    0.1196 C   0  0  0  0  0  0  0  0  0  0  0  0
    6.3477   -0.0648    1.0580 C   0  0  0  0  0  0  0  0  0  0  0  0
    6.5474    0.2441    2.4082 C   0  0  0  0  0  0  0  0  0  0  0  0
    6.4497    1.5801    2.8299 C   0  0  0  0  0  0  0  0  0  0  0  0
    6.2196   -1.4683    0.6328 N   0  3  0  0  0  0  0  0  0  0  0  0
    6.4383   -2.3482    1.4765 O   0  0  0  0  0  0  0  0  0  0  0  0
    5.8769   -1.6836   -0.5384 O   0  5  0  0  0  0  0  0  0  0  0  0
    0.4535   -1.0972   -0.0298 H   0  0  0  0  0  0  0  0  0  0  0  0
    0.6399    0.4493    0.8167 H   0  0  0  0  0  0  0  0  0  0  0  0
    2.0016   -0.3388   -0.0471 H   0  0  0  0  0  0  0  0  0  0  0  0
    0.3271    2.3956   -2.2847 H   0  0  0  0  0  0  0  0  0  0  0  0
    3.0731    1.1375   -0.4444 H   0  0  0  0  0  0  0  0  0  0  0  0
    4.1118    2.1638    1.3741 H   0  0  0  0  0  0  0  0  0  0  0  0
    2.4043    5.9389    0.2916 H   0  0  0  0  0  0  0  0  0  0  0  0
    0.6142    4.6342   -0.8669 H   0  0  0  0  0  0  0  0  0  0  0  0
    6.6575    4.3765    2.9479 H   0  0  0  0  0  0  0  0  0  0  0  0
    6.1113    3.0895   -0.2075 H   0  0  0  0  0  0  0  0  0  0  0  0
    5.9511    0.7475   -0.9174 H   0  0  0  0  0  0  0  0  0  0  0  0
    6.7230   -0.5397    3.1434 H   0  0  0  0  0  0  0  0  0  0  0  0
    6.4190    1.7867    3.9000 H   0  0  0  0  0  0  0  0  0  0  0  0
  1  2  1  0  0  0  0
  1 24  1  0  0  0  0
  1 25  1  0  0  0  0
  1 26  1  0  0  0  0
  2  3  2  0  0  0  0
  2  4  1  0  0  0  0
  4  5  1  0  0  0  0
  4 27  1  0  0  0  0
  5  6  2  0  0  0  0
  5 10  1  0  0  0  0
  6  7  1  0  0  0  0
  6 28  1  0  0  0  0
  7  8  2  0  0  0  0
  7 29  1  0  0  0  0
  8  9  1  0  0  0  0
  8 11  1  0  0  0  0
  9 10  2  0  0  0  0
  9 30  1  0  0  0  0
 10 31  1  0  0  0  0
 11 12  2  0  0  0  0
 11 13  2  0  0  0  0
 11 14  1  0  0  0  0
 14 15  1  0  0  0  0
 14 32  1  0  0  0  0
 15 16  2  0  0  0  0
 15 20  1  0  0  0  0
 16 17  1  0  0  0  0
 16 33  1  0  0  0  0
 17 18  2  0  0  0  0
 17 34  1  0  0  0  0
 18 19  1  0  0  0  0
 18 21  1  0  0  0  0
 19 20  2  0  0  0  0
 19 35  1  0  0  0  0
 20 36  1  0  0  0  0
 21 22  2  0  0  0  0
 21 23  1  0  0  0  0
M  CHG  2  21   1  23  -1
M  END
>  <DRUGBANK_ID>
DB11463

>  <COMMON_NAME>
Sulfanitran

>  <CAS_NUMBER>
122-16-7

>  <UNII>
QT35T5T35Q

>  <SYNONYMS>
Sulfanitran

$$$$
