
 OpenBabel10282417233D

 17 16  0  0  0  0  0  0  0  0999 V2000
    1.1268    0.1053   -0.0931 S   0  0  0  0  0  0  0  0  0  0  0  0
    0.4914   -1.4001   -0.8382 C   0  0  0  0  0  0  0  0  0  0  0  0
    0.3828    0.0497    1.3384 O   0  0  0  0  0  0  0  0  0  0  0  0
    0.5863    1.2430   -0.8052 O   0  0  0  0  0  0  0  0  0  0  0  0
    2.5343   -0.0466    0.1761 O   0  0  0  0  0  0  0  0  0  0  0  0
    0.9350   -2.6749   -0.1196 C   0  0  3  0  0  0  0  0  0  0  0  0
    0.4074   -2.8342    1.3146 C   0  0  0  0  0  0  0  0  0  0  0  0
    0.4537   -4.1550   -1.1114 S   0  0  0  0  0  0  0  0  0  0  0  0
   -1.4150   -2.7597    1.4986 S   0  0  0  0  0  0  0  0  0  0  0  0
   -0.5938   -1.2988   -0.9156 H   0  0  0  0  0  0  0  0  0  0  0  0
    0.8843   -1.3878   -1.8622 H   0  0  0  0  0  0  0  0  0  0  0  0
    1.0417   -0.1134    2.0508 H   0  0  0  0  0  0  0  0  0  0  0  0
    2.0311   -2.6997   -0.0869 H   0  0  0  0  0  0  0  0  0  0  0  0
    0.7551   -3.7717    1.7602 H   0  0  0  0  0  0  0  0  0  0  0  0
    0.8509   -2.0733    1.9551 H   0  0  0  0  0  0  0  0  0  0  0  0
   -0.8707   -4.0821   -0.8881 H   0  0  0  0  0  0  0  0  0  0  0  0
   -1.6519   -1.6225    0.8195 H   0  0  0  0  0  0  0  0  0  0  0  0
  1  2  1  0  0  0  0
  1  3  1  0  0  0  0
  1  4  2  0  0  0  0
  1  5  2  0  0  0  0
  2  6  1  0  0  0  0
  2 10  1  0  0  0  0
  2 11  1  0  0  0  0
  3 12  1  0  0  0  0
  6  7  1  0  0  0  0
  6  8  1  0  0  0  0
  6 13  1  0  0  0  0
  7  9  1  0  0  0  0
  7 14  1  0  0  0  0
  7 15  1  0  0  0  0
  8 16  1  0  0  0  0
  9 17  1  0  0  0  0
M  END
>  <DRUGBANK_ID>
DB15967

>  <COMMON_NAME>
2,3-Dimercapto-1-propanesulfonic acid

>  <CAS_NUMBER>
74-61-3

>  <UNII>
086L82361J

>  <SYNONYMS>
2,3-Dimercapto-1-propane sulfonate; 2,3-Dimercaptopropan-1-sulfonsaeure; 2,3-Dimercaptopropanesulfonic acid; DMPS

$$$$
