400
 OpenBabel10282417103D

 41 43  0  0  1  0  0  0  0  0999 V2000
   -3.3021    1.8871    0.0843 Cl  0  0  0  0  0  0  0  0  0  0  0  0
   -0.4237    0.9865    0.1115 O   0  0  0  0  0  0  0  0  0  0  0  0
    0.8029    0.6895    2.5450 O   0  0  0  0  0  0  0  0  0  0  0  0
    1.4252   -2.0040    0.0438 O   0  0  0  0  0  0  0  0  0  0  0  0
    5.0056    0.4491    0.3613 O   0  0  0  0  0  0  0  0  0  0  0  0
   -1.4481   -3.7403    0.0822 O   0  0  0  0  0  0  0  0  0  0  0  0
   -4.9797   -0.5229    0.1064 O   0  0  0  0  0  0  0  0  0  0  0  0
    0.8596    0.3285    0.1209 C   0  0  2  0  0  0  0  0  0  0  0  0
    1.6659    0.7458   -1.1304 C   0  0  1  0  0  0  0  0  0  0  0  0
    3.1098    0.2317   -1.0863 C   0  0  0  0  0  0  0  0  0  0  0  0
    0.5584   -1.1447    0.0964 C   0  0  0  0  0  0  0  0  0  0  0  0
    1.6139    0.5866    1.4227 C   0  0  0  0  0  0  0  0  0  0  0  0
    1.0189    0.3061   -2.4533 C   0  0  0  0  0  0  0  0  0  0  0  0
   -0.8865   -1.3113    0.1055 C   0  0  0  0  0  0  0  0  0  0  0  0
   -1.3786   -0.0104    0.1106 C   0  0  0  0  0  0  0  0  0  0  0  0
    3.7821    0.4628    0.2428 C   0  0  0  0  0  0  0  0  0  0  0  0
    2.9566    0.6572    1.4529 C   0  0  0  0  0  0  0  0  0  0  0  0
   -1.7407   -2.4052    0.0982 C   0  0  0  0  0  0  0  0  0  0  0  0
   -2.7448    0.2504    0.1047 C   0  0  0  0  0  0  0  0  0  0  0  0
   -3.1270   -2.1415    0.1086 C   0  0  0  0  0  0  0  0  0  0  0  0
   -3.6417   -0.8296    0.1075 C   0  0  0  0  0  0  0  0  0  0  0  0
    1.4523    0.9384    3.7911 C   0  0  0  0  0  0  0  0  0  0  0  0
   -0.0775   -4.1120    0.0553 C   0  0  0  0  0  0  0  0  0  0  0  0
   -5.9096   -1.5997    0.1116 C   0  0  0  0  0  0  0  0  0  0  0  0
    1.6897    1.8442   -1.1433 H   0  0  0  0  0  0  0  0  0  0  0  0
    3.6961    0.7554   -1.8494 H   0  0  0  0  0  0  0  0  0  0  0  0
    3.1656   -0.8406   -1.3058 H   0  0  0  0  0  0  0  0  0  0  0  0
   -0.0087    0.6702   -2.5407 H   0  0  0  0  0  0  0  0  0  0  0  0
    1.5866    0.7007   -3.3025 H   0  0  0  0  0  0  0  0  0  0  0  0
    1.0031   -0.7855   -2.5557 H   0  0  0  0  0  0  0  0  0  0  0  0
    3.5336    0.8097    2.3551 H   0  0  0  0  0  0  0  0  0  0  0  0
   -3.7975   -2.9980    0.1164 H   0  0  0  0  0  0  0  0  0  0  0  0
    2.1165    0.1084    4.0572 H   0  0  0  0  0  0  0  0  0  0  0  0
    2.0051    1.8832    3.7539 H   0  0  0  0  0  0  0  0  0  0  0  0
    0.6904    1.0234    4.5699 H   0  0  0  0  0  0  0  0  0  0  0  0
    0.3888   -3.7591   -0.8710 H   0  0  0  0  0  0  0  0  0  0  0  0
    0.4215   -3.7712    0.9687 H   0  0  0  0  0  0  0  0  0  0  0  0
    0.0122   -5.1998    0.0464 H   0  0  0  0  0  0  0  0  0  0  0  0
   -5.8047   -2.2133   -0.7890 H   0  0  0  0  0  0  0  0  0  0  0  0
   -5.8054   -2.2035    1.0188 H   0  0  0  0  0  0  0  0  0  0  0  0
   -6.9200   -1.1779    0.1087 H   0  0  0  0  0  0  0  0  0  0  0  0
  1 19  1  0  0  0  0
  2 15  1  0  0  0  0
  3 12  1  0  0  0  0
  3 22  1  0  0  0  0
  4 11  2  0  0  0  0
  5 16  2  0  0  0  0
  6 18  1  0  0  0  0
  6 23  1  0  0  0  0
  7 21  1  0  0  0  0
  7 24  1  0  0  0  0
  8  2  1  1  0  0  0
  8  9  1  0  0  0  0
  8 11  1  0  0  0  0
  8 12  1  0  0  0  0
  9 10  1  0  0  0  0
  9 13  1  0  0  0  0
  9 25  1  6  0  0  0
 10 16  1  0  0  0  0
 10 26  1  0  0  0  0
 10 27  1  0  0  0  0
 11 14  1  0  0  0  0
 12 17  2  0  0  0  0
 13 28  1  0  0  0  0
 13 29  1  0  0  0  0
 13 30  1  0  0  0  0
 14 15  2  0  0  0  0
 14 18  1  0  0  0  0
 15 19  1  0  0  0  0
 16 17  1  0  0  0  0
 17 31  1  0  0  0  0
 18 20  2  0  0  0  0
 19 21  2  0  0  0  0
 20 21  1  0  0  0  0
 20 32  1  0  0  0  0
 22 33  1  0  0  0  0
 22 34  1  0  0  0  0
 22 35  1  0  0  0  0
 23 36  1  0  0  0  0
 23 37  1  0  0  0  0
 23 38  1  0  0  0  0
 24 39  1  0  0  0  0
 24 40  1  0  0  0  0
 24 41  1  0  0  0  0
M  END
>  <DRUGBANK_ID>
DB00400

>  <SECONDARY_ACCESSION_NUMBERS>
APRD01004

>  <COMMON_NAME>
Griseofulvin

>  <CAS_NUMBER>
126-07-8

>  <UNII>
32HRV3E3D5

>  <SYNONYMS>
(+)-griseofulvin; Amudane; Griseofulvin; Griseofulvin, microcrystalline; Griseofulvin, ultramicrosize; Griseofulvina; Gris√©ofulvine; Griseofulvinum

$$$$
