
 OpenBabel10282417123D

 27 27  0  0  1  0  0  0  0  0999 V2000
   -0.9316    0.0962    2.5188 C   0  0  0  0  0  0  0  0  0  0  0  0
   -0.1754    1.2822    2.9235 N   0  0  0  0  0  0  0  0  0  0  0  0
   -1.0870    2.4168    3.0629 C   0  0  0  0  0  0  0  0  0  0  0  0
    0.9629    1.5485    2.0007 C   0  0  2  0  0  0  0  0  0  0  0  0
    2.0953    0.5269    2.2426 C   0  0  0  0  0  0  0  0  0  0  0  0
    2.6645    0.6451    3.6593 C   0  0  0  0  0  0  0  0  0  0  0  0
    2.8543    2.0691    4.1249 C   0  0  0  0  0  0  0  0  0  0  0  0
    3.5975    2.2178    5.4159 C   0  0  0  0  0  0  0  0  0  0  0  0
    2.3703    3.1208    3.4333 C   0  0  0  0  0  0  0  0  0  0  0  0
    1.5939    2.9614    2.1539 C   0  0  0  0  0  0  0  0  0  0  0  0
   -1.3858    0.2252    1.5304 H   0  0  0  0  0  0  0  0  0  0  0  0
   -1.7275   -0.1126    3.2422 H   0  0  0  0  0  0  0  0  0  0  0  0
   -0.3061   -0.8006    2.4975 H   0  0  0  0  0  0  0  0  0  0  0  0
   -1.9071    2.1767    3.7472 H   0  0  0  0  0  0  0  0  0  0  0  0
   -0.5920    3.2799    3.5195 H   0  0  0  0  0  0  0  0  0  0  0  0
   -1.5076    2.7165    2.0972 H   0  0  0  0  0  0  0  0  0  0  0  0
    0.6148    1.4571    0.9627 H   0  0  0  0  0  0  0  0  0  0  0  0
    1.7664   -0.5034    2.0697 H   0  0  0  0  0  0  0  0  0  0  0  0
    2.9010    0.7014    1.5164 H   0  0  0  0  0  0  0  0  0  0  0  0
    3.6242    0.1160    3.6948 H   0  0  0  0  0  0  0  0  0  0  0  0
    1.9948    0.1360    4.3645 H   0  0  0  0  0  0  0  0  0  0  0  0
    3.0743    1.6837    6.2162 H   0  0  0  0  0  0  0  0  0  0  0  0
    4.6007    1.7911    5.3140 H   0  0  0  0  0  0  0  0  0  0  0  0
    3.7037    3.2637    5.7176 H   0  0  0  0  0  0  0  0  0  0  0  0
    2.4992    4.1328    3.8045 H   0  0  0  0  0  0  0  0  0  0  0  0
    0.8312    3.7440    2.0777 H   0  0  0  0  0  0  0  0  0  0  0  0
    2.2703    3.1573    1.3122 H   0  0  0  0  0  0  0  0  0  0  0  0
  1  2  1  0  0  0  0
  1 11  1  0  0  0  0
  1 12  1  0  0  0  0
  1 13  1  0  0  0  0
  2  3  1  0  0  0  0
  3 14  1  0  0  0  0
  3 15  1  0  0  0  0
  3 16  1  0  0  0  0
  4  5  1  0  0  0  0
  4 10  1  0  0  0  0
  4 17  1  6  0  0  0
  4  2  1  0  0  0  0
  5  6  1  0  0  0  0
  5 18  1  0  0  0  0
  5 19  1  0  0  0  0
  6  7  1  0  0  0  0
  6 20  1  0  0  0  0
  6 21  1  0  0  0  0
  7  8  1  0  0  0  0
  7  9  2  0  0  0  0
  8 22  1  0  0  0  0
  8 23  1  0  0  0  0
  8 24  1  0  0  0  0
  9 10  1  0  0  0  0
  9 25  1  0  0  0  0
 10 26  1  0  0  0  0
 10 27  1  0  0  0  0
M  END
>  <DRUGBANK_ID>
DB01802

>  <SECONDARY_ACCESSION_NUMBERS>
EXPT00307

>  <COMMON_NAME>
(4R)-7-Aza-7,8-dihydrolimonene

$$$$
