
 OpenBabel10282417193D

 58 61  0  0  0  0  0  0  0  0999 V2000
    0.8435   -0.3965    0.1204 C   0  0  0  0  0  0  0  0  0  0  0  0
    0.4320    0.1392    1.3892 N   0  0  0  0  0  0  0  0  0  0  0  0
   -0.2677    1.2858    1.7033 C   0  0  0  0  0  0  0  0  0  0  0  0
   -0.5818    1.4423    2.8707 O   0  0  0  0  0  0  0  0  0  0  0  0
   -0.7239    2.3155    0.6270 C   0  0  0  0  0  0  0  0  0  0  0  0
    0.4114    3.0448    0.0279 N   0  0  0  0  0  0  0  0  0  0  0  0
    0.7666    2.3485   -1.1731 C   0  0  0  0  0  0  0  0  0  0  0  0
    1.9908    2.9125   -1.7300 C   0  0  0  0  0  0  0  0  0  0  0  0
    2.0452    4.3706   -2.0453 C   0  0  0  0  0  0  0  0  0  0  0  0
    1.4241    5.1372   -0.8912 C   0  0  0  0  0  0  0  0  0  0  0  0
    0.1391    4.4375   -0.3722 C   0  0  0  0  0  0  0  0  0  0  0  0
    3.3629    4.8374   -2.4447 O   0  0  0  0  0  0  0  0  0  0  0  0
    4.4168    4.7251   -1.5699 C   0  0  0  0  0  0  0  0  0  0  0  0
    4.9672    5.9555   -1.1997 C   0  0  0  0  0  0  0  0  0  0  0  0
    6.0332    6.0482   -0.2668 C   0  0  0  0  0  0  0  0  0  0  0  0
    6.5205    4.8740    0.3217 C   0  0  0  0  0  0  0  0  0  0  0  0
    6.0001    3.6609   -0.0887 C   0  0  0  0  0  0  0  0  0  0  0  0
    5.0487    3.5608   -1.1142 C   0  0  0  0  0  0  0  0  0  0  0  0
    4.9399    2.2653   -1.5544 O   0  0  0  0  0  0  0  0  0  0  0  0
    4.3200    2.0218   -2.8004 C   0  0  0  0  0  0  0  0  0  0  0  0
    7.5052    4.8557    1.2215 N   0  0  0  0  0  0  0  0  0  0  0  0
    8.0408    6.0349    1.5384 C   0  0  0  0  0  0  0  0  0  0  0  0
    7.6587    7.2211    1.0631 N   0  0  0  0  0  0  0  0  0  0  0  0
    6.6589    7.2359    0.1582 C   0  0  0  0  0  0  0  0  0  0  0  0
    6.2926    8.4844   -0.3993 N   0  0  0  0  0  0  0  0  0  0  0  0
    6.8152    9.7271    0.0167 C   0  0  0  0  0  0  0  0  0  0  0  0
    6.0049   10.6617    0.6809 C   0  0  0  0  0  0  0  0  0  0  0  0
    6.5507   11.8568    1.1662 C   0  0  0  0  0  0  0  0  0  0  0  0
    7.9089   12.1288    0.9904 C   0  0  0  0  0  0  0  0  0  0  0  0
    8.7210   11.2044    0.3347 C   0  0  0  0  0  0  0  0  0  0  0  0
    8.1797   10.0127   -0.1384 C   0  0  0  0  0  0  0  0  0  0  0  0
    8.9605    9.1410   -0.8001 F   0  0  0  0  0  0  0  0  0  0  0  0
   10.3932   11.5504    0.1140 Cl  0  0  0  0  0  0  0  0  0  0  0  0
    0.1773   -0.0194   -0.6558 H   0  0  0  0  0  0  0  0  0  0  0  0
    0.7454   -1.4773    0.0687 H   0  0  0  0  0  0  0  0  0  0  0  0
    1.9053   -0.1445   -0.0255 H   0  0  0  0  0  0  0  0  0  0  0  0
    0.7221   -0.3740    2.2124 H   0  0  0  0  0  0  0  0  0  0  0  0
   -1.3449    1.8072   -0.1207 H   0  0  0  0  0  0  0  0  0  0  0  0
   -1.3739    3.0318    1.1392 H   0  0  0  0  0  0  0  0  0  0  0  0
   -0.0290    2.2268   -1.9152 H   0  0  0  0  0  0  0  0  0  0  0  0
    1.1771    1.3871   -0.9702 H   0  0  0  0  0  0  0  0  0  0  0  0
    2.0476    2.3231   -2.6427 H   0  0  0  0  0  0  0  0  0  0  0  0
    2.7513    2.6702   -0.9826 H   0  0  0  0  0  0  0  0  0  0  0  0
    1.4232    4.5015   -2.9418 H   0  0  0  0  0  0  0  0  0  0  0  0
    2.1544    5.2184   -0.0788 H   0  0  0  0  0  0  0  0  0  0  0  0
    1.2097    6.1550   -1.2313 H   0  0  0  0  0  0  0  0  0  0  0  0
   -0.2345    5.0097    0.4774 H   0  0  0  0  0  0  0  0  0  0  0  0
   -0.6170    4.4498   -1.1685 H   0  0  0  0  0  0  0  0  0  0  0  0
    4.5612    6.8473   -1.6669 H   0  0  0  0  0  0  0  0  0  0  0  0
    6.3899    2.7483    0.3622 H   0  0  0  0  0  0  0  0  0  0  0  0
    3.6793    2.8279   -3.0938 H   0  0  0  0  0  0  0  0  0  0  0  0
    4.9734    2.0050   -3.6623 H   0  0  0  0  0  0  0  0  0  0  0  0
    3.7282    1.0984   -2.7060 H   0  0  0  0  0  0  0  0  0  0  0  0
    8.8658    6.0295    2.2420 H   0  0  0  0  0  0  0  0  0  0  0  0
    5.3753    8.5325   -0.8118 H   0  0  0  0  0  0  0  0  0  0  0  0
    4.9521   10.4542    0.8601 H   0  0  0  0  0  0  0  0  0  0  0  0
    5.9224   12.5691    1.6975 H   0  0  0  0  0  0  0  0  0  0  0  0
    8.3311   13.0551    1.3713 H   0  0  0  0  0  0  0  0  0  0  0  0
  1  2  1  0  0  0  0
  1 34  1  0  0  0  0
  1 35  1  0  0  0  0
  1 36  1  0  0  0  0
  2  3  1  0  0  0  0
  2 37  1  0  0  0  0
  3  4  2  0  0  0  0
  3  5  1  0  0  0  0
  5  6  1  0  0  0  0
  5 38  1  0  0  0  0
  5 39  1  0  0  0  0
  6  7  1  0  0  0  0
  6 11  1  0  0  0  0
  7  8  1  0  0  0  0
  7 40  1  0  0  0  0
  7 41  1  0  0  0  0
  8  9  1  0  0  0  0
  8 42  1  0  0  0  0
  8 43  1  0  0  0  0
  9 10  1  0  0  0  0
  9 12  1  0  0  0  0
  9 44  1  0  0  0  0
 10 11  1  0  0  0  0
 10 45  1  0  0  0  0
 10 46  1  0  0  0  0
 11 47  1  0  0  0  0
 11 48  1  0  0  0  0
 12 13  1  0  0  0  0
 13 14  1  0  0  0  0
 13 18  2  0  0  0  0
 14 15  2  0  0  0  0
 14 49  1  0  0  0  0
 15 16  1  0  0  0  0
 15 24  1  0  0  0  0
 16 17  2  0  0  0  0
 16 21  1  0  0  0  0
 17 18  1  0  0  0  0
 17 50  1  0  0  0  0
 18 19  1  0  0  0  0
 19 20  1  0  0  0  0
 20 51  1  0  0  0  0
 20 52  1  0  0  0  0
 20 53  1  0  0  0  0
 21 22  2  0  0  0  0
 22 23  1  0  0  0  0
 22 54  1  0  0  0  0
 23 24  2  0  0  0  0
 24 25  1  0  0  0  0
 25 26  1  0  0  0  0
 25 55  1  0  0  0  0
 26 27  2  0  0  0  0
 26 31  1  0  0  0  0
 27 28  1  0  0  0  0
 27 56  1  0  0  0  0
 28 29  2  0  0  0  0
 28 57  1  0  0  0  0
 29 30  1  0  0  0  0
 29 58  1  0  0  0  0
 30 31  2  0  0  0  0
 30 33  1  0  0  0  0
 31 32  1  0  0  0  0
M  END
>  <DRUGBANK_ID>
DB12183

>  <COMMON_NAME>
Sapitinib

>  <CAS_NUMBER>
848942-61-0

>  <UNII>
3499328002

>  <SYNONYMS>
Sapitinib

$$$$
