
 OpenBabel10282417203D

 19 19  0  0  0  0  0  0  0  0999 V2000
    0.0567   -1.5372   -0.3238 C   0  0  3  0  0  0  0  0  0  0  0  0
    0.8463   -0.2579   -0.0688 C   0  0  0  0  0  0  0  0  0  0  0  0
   -1.3124   -1.2699    0.2941 C   0  0  0  0  0  0  0  0  0  0  0  0
   -0.0324   -1.8884   -1.7456 N   0  0  0  0  0  0  0  0  0  0  0  0
   -0.2400    1.1336    0.0286 S   0  0  0  0  0  0  0  0  0  0  0  0
    2.0579   -0.1448   -0.0219 O   0  0  0  0  0  0  0  0  0  0  0  0
   -1.7429    0.1296   -0.1048 C   0  0  0  0  0  0  0  0  0  0  0  0
    0.4842   -3.0752   -2.2141 C   0  0  0  0  0  0  0  0  0  0  0  0
    0.3517   -3.3135   -3.6971 C   0  0  0  0  0  0  0  0  0  0  0  0
    0.9946   -3.9159   -1.4805 O   0  0  0  0  0  0  0  0  0  0  0  0
    0.5441   -2.3460    0.2301 H   0  0  0  0  0  0  0  0  0  0  0  0
   -2.0541   -2.0146   -0.0125 H   0  0  0  0  0  0  0  0  0  0  0  0
   -1.2347   -1.3242    1.3892 H   0  0  0  0  0  0  0  0  0  0  0  0
   -0.3734   -1.2000   -2.4067 H   0  0  0  0  0  0  0  0  0  0  0  0
   -2.1117    0.1525   -1.1347 H   0  0  0  0  0  0  0  0  0  0  0  0
   -2.5208    0.5177    0.5582 H   0  0  0  0  0  0  0  0  0  0  0  0
    1.3474   -3.4644   -4.1245 H   0  0  0  0  0  0  0  0  0  0  0  0
   -0.2439   -4.2185   -3.8552 H   0  0  0  0  0  0  0  0  0  0  0  0
   -0.1329   -2.4836   -4.2168 H   0  0  0  0  0  0  0  0  0  0  0  0
  1  2  1  0  0  0  0
  1  3  1  0  0  0  0
  1  4  1  0  0  0  0
  1 11  1  0  0  0  0
  2  5  1  0  0  0  0
  2  6  2  0  0  0  0
  3  7  1  0  0  0  0
  3 12  1  0  0  0  0
  3 13  1  0  0  0  0
  4  8  1  0  0  0  0
  4 14  1  0  0  0  0
  5  7  1  0  0  0  0
  7 15  1  0  0  0  0
  7 16  1  0  0  0  0
  8  9  1  0  0  0  0
  8 10  2  0  0  0  0
  9 17  1  0  0  0  0
  9 18  1  0  0  0  0
  9 19  1  0  0  0  0
M  END
>  <DRUGBANK_ID>
DB13442

>  <COMMON_NAME>
Citiolone

>  <CAS_NUMBER>
1195-16-0

>  <UNII>
70JKL15MUH

>  <SYNONYMS>
Citiolona; Citiolone; Citiolonum

$$$$
