
 OpenBabel10282417163D

 39 38  0  0  0  0  0  0  0  0999 V2000
    0.7802   -0.0925   -0.1500 O   0  0  0  0  0  0  0  0  0  0  0  0
    0.3343    1.1870    0.2659 C   0  0  0  0  0  0  0  0  0  0  0  0
    0.9208    1.5369    1.6292 C   0  0  0  0  0  0  0  0  0  0  0  0
    2.4523    1.5999    1.5932 C   0  0  0  0  0  0  0  0  0  0  0  0
    6.5765    7.3729    3.0812 C   0  0  0  0  0  0  0  0  0  0  0  0
    5.0488    7.3714    3.0058 C   0  0  0  0  0  0  0  0  0  0  0  0
    2.9484    2.6444    0.5876 C   0  0  0  0  0  0  0  0  0  0  0  0
    4.5439    6.9021    1.6368 C   0  0  0  0  0  0  0  0  0  0  0  0
    2.4511    4.0454    0.9594 C   0  0  0  0  0  0  0  0  0  0  0  0
    2.9761    4.4573    2.3388 C   0  0  0  0  0  0  0  0  0  0  0  0
    5.0351    5.4860    1.3164 C   0  0  0  0  0  0  0  0  0  0  0  0
    4.5081    4.4821    2.3466 C   0  0  0  0  0  0  0  0  0  0  0  0
    7.1688    8.3091    2.0402 C   0  0  0  0  0  0  0  0  0  0  0  0
    1.7596   -0.0607   -0.2160 H   0  0  0  0  0  0  0  0  0  0  0  0
    0.5991    1.9203   -0.5029 H   0  0  0  0  0  0  0  0  0  0  0  0
   -0.7580    1.1685    0.3169 H   0  0  0  0  0  0  0  0  0  0  0  0
    0.5019    2.4894    1.9743 H   0  0  0  0  0  0  0  0  0  0  0  0
    0.6214    0.7891    2.3699 H   0  0  0  0  0  0  0  0  0  0  0  0
    2.8283    1.8147    2.6003 H   0  0  0  0  0  0  0  0  0  0  0  0
    2.8798    0.6234    1.3487 H   0  0  0  0  0  0  0  0  0  0  0  0
    6.8916    7.6780    4.0833 H   0  0  0  0  0  0  0  0  0  0  0  0
    6.9793    6.3628    2.9405 H   0  0  0  0  0  0  0  0  0  0  0  0
    4.6594    8.3732    3.2129 H   0  0  0  0  0  0  0  0  0  0  0  0
    4.6478    6.7354    3.8045 H   0  0  0  0  0  0  0  0  0  0  0  0
    4.0418    2.6094    0.5368 H   0  0  0  0  0  0  0  0  0  0  0  0
    2.6342    2.4014   -0.4311 H   0  0  0  0  0  0  0  0  0  0  0  0
    4.8553    7.5866    0.8431 H   0  0  0  0  0  0  0  0  0  0  0  0
    3.4503    6.9583    1.6153 H   0  0  0  0  0  0  0  0  0  0  0  0
    2.7539    4.7578    0.1851 H   0  0  0  0  0  0  0  0  0  0  0  0
    1.3588    4.1024    0.9497 H   0  0  0  0  0  0  0  0  0  0  0  0
    2.5560    5.4287    2.6164 H   0  0  0  0  0  0  0  0  0  0  0  0
    2.6152    3.7874    3.1245 H   0  0  0  0  0  0  0  0  0  0  0  0
    6.1270    5.4349    1.2787 H   0  0  0  0  0  0  0  0  0  0  0  0
    4.7300    5.2157    0.3002 H   0  0  0  0  0  0  0  0  0  0  0  0
    4.8673    4.7117    3.3540 H   0  0  0  0  0  0  0  0  0  0  0  0
    4.9278    3.4922    2.1414 H   0  0  0  0  0  0  0  0  0  0  0  0
    6.7987    9.3262    2.1995 H   0  0  0  0  0  0  0  0  0  0  0  0
    8.2582    8.3115    2.0982 H   0  0  0  0  0  0  0  0  0  0  0  0
    6.9045    8.0095    1.0209 H   0  0  0  0  0  0  0  0  0  0  0  0
  1  2  1  0  0  0  0
  1 14  1  0  0  0  0
  2 15  1  0  0  0  0
  2 16  1  0  0  0  0
  3  2  1  0  0  0  0
  3 17  1  0  0  0  0
  3 18  1  0  0  0  0
  4  3  1  0  0  0  0
  4 19  1  0  0  0  0
  4 20  1  0  0  0  0
  5 13  1  0  0  0  0
  5 21  1  0  0  0  0
  5 22  1  0  0  0  0
  6  5  1  0  0  0  0
  6 23  1  0  0  0  0
  6 24  1  0  0  0  0
  7  4  1  0  0  0  0
  7 25  1  0  0  0  0
  7 26  1  0  0  0  0
  8  6  1  0  0  0  0
  8 27  1  0  0  0  0
  8 28  1  0  0  0  0
  9  7  1  0  0  0  0
  9 29  1  0  0  0  0
  9 30  1  0  0  0  0
 10  9  1  0  0  0  0
 10 31  1  0  0  0  0
 10 32  1  0  0  0  0
 11  8  1  0  0  0  0
 11 33  1  0  0  0  0
 11 34  1  0  0  0  0
 12 10  1  0  0  0  0
 12 11  1  0  0  0  0
 12 35  1  0  0  0  0
 12 36  1  0  0  0  0
 13 37  1  0  0  0  0
 13 38  1  0  0  0  0
 13 39  1  0  0  0  0
M  END
>  <DRUGBANK_ID>
DB06894

>  <COMMON_NAME>
1-Dodecanol

>  <CAS_NUMBER>
112-53-8

>  <UNII>
178A96NLP2

>  <SYNONYMS>
Dodecan-1-ol; Dodecanol; Dodecyl alcohol; Dodecylalcohol; Lauroyl alcohol; Lauryl alcohol; Undecyl carbinol

$$$$
