
 OpenBabel10282417123D

 77 84  0  0  0  0  0  0  0  0999 V2000
    1.4050   -0.1383   -1.2233 C   0  0  0  0  0  0  0  0  0  0  0  0
    0.3174  -10.6794   -4.0078 C   0  0  0  0  0  0  0  0  0  0  0  0
   -0.0624   -0.7134    0.9013 C   0  0  0  0  0  0  0  0  0  0  0  0
   -3.0113  -10.7320   -0.9792 C   0  0  0  0  0  0  0  0  0  0  0  0
    4.5337   -3.0260    4.1980 C   0  0  0  0  0  0  0  0  0  0  0  0
    4.7142   -8.6109   -4.1871 C   0  0  0  0  0  0  0  0  0  0  0  0
    1.7312   -1.5807   -1.5749 C   0  0  0  0  0  0  0  0  0  0  0  0
   -0.7175  -10.7347   -3.1266 C   0  0  0  0  0  0  0  0  0  0  0  0
    6.2798   -4.0341    1.7881 C   0  0  0  0  0  0  0  0  0  0  0  0
    6.2955   -6.6065   -2.3555 C   0  0  0  0  0  0  0  0  0  0  0  0
    7.1952   -5.2471    1.8198 C   0  0  0  0  0  0  0  0  0  0  0  0
    6.2589   -5.0923   -2.4825 C   0  0  0  0  0  0  0  0  0  0  0  0
    1.4014   -4.7675    3.6115 C   0  0  0  0  0  0  0  0  0  0  0  0
    2.7191   -4.3035   -1.4901 C   0  0  0  0  0  0  0  0  0  0  0  0
    1.5064   -9.1298   -2.3503 C   0  0  0  0  0  0  0  0  0  0  0  0
    4.8831   -5.7473    0.0693 C   0  0  0  0  0  0  0  0  0  0  0  0
    0.5386   -2.0827    0.6292 C   0  0  0  0  0  0  0  0  0  0  0  0
   -1.6939   -9.9770   -0.9100 C   0  0  0  0  0  0  0  0  0  0  0  0
    4.1125   -3.9981    3.1080 C   0  0  0  0  0  0  0  0  0  0  0  0
    4.2454   -8.0107   -2.8716 C   0  0  0  0  0  0  0  0  0  0  0  0
    1.3801   -2.4801   -0.4009 C   0  0  0  0  0  0  0  0  0  0  0  0
   -0.6554   -9.9427   -1.8307 C   0  0  0  0  0  0  0  0  0  0  0  0
    4.8455   -4.4753    2.0299 C   0  0  0  0  0  0  0  0  0  0  0  0
    4.9025   -7.1216   -2.0319 C   0  0  0  0  0  0  0  0  0  0  0  0
    0.3466   -3.5982    1.5504 C   0  0  0  0  0  0  0  0  0  0  0  0
    2.5474   -4.8232    2.8805 C   0  0  0  0  0  0  0  0  0  0  0  0
   -1.0790   -8.9038    0.3755 C   0  0  0  0  0  0  0  0  0  0  0  0
    2.7075   -8.2650   -2.0042 C   0  0  0  0  0  0  0  0  0  0  0  0
    1.7872   -3.7906   -0.4044 C   0  0  0  0  0  0  0  0  0  0  0  0
    0.4297   -9.1624   -1.5195 C   0  0  0  0  0  0  0  0  0  0  0  0
    4.2182   -5.3628    1.1921 C   0  0  0  0  0  0  0  0  0  0  0  0
    4.2391   -6.7283   -0.8969 C   0  0  0  0  0  0  0  0  0  0  0  0
    6.7766   -6.2262    0.7352 C   0  0  0  0  0  0  0  0  0  0  0  0
    5.7861   -4.4852   -1.1717 C   0  0  0  0  0  0  0  0  0  0  0  0
    1.7607   -6.5957    0.8335 Fe  0  0  3  0  0  0  0  0  0  0  0  0
    1.3469   -4.6252    0.5755 N   0  0  0  0  0  0  0  0  0  0  0  0
    0.4419   -8.4817   -0.3418 N   0  0  0  0  0  0  0  0  0  0  0  0
    2.9296   -5.7175    1.4454 N   0  0  0  0  0  0  0  0  0  0  0  0
    2.9984   -7.2267   -0.6466 N   0  0  0  0  0  0  0  0  0  0  0  0
    7.6922   -6.5851   -0.2892 O   0  0  0  0  0  0  0  0  0  0  0  0
    5.6072   -6.7238    0.7451 O   0  0  0  0  0  0  0  0  0  0  0  0
    6.6253   -3.5859   -0.4621 O   0  0  0  0  0  0  0  0  0  0  0  0
    4.6396   -4.7824   -0.7107 O   0  0  0  0  0  0  0  0  0  0  0  0
    0.3607   -0.0513   -1.0072 H   0  0  0  0  0  0  0  0  0  0  0  0
    1.6521    0.4948   -2.0497 H   0  0  0  0  0  0  0  0  0  0  0  0
    1.9725    0.1569   -0.3656 H   0  0  0  0  0  0  0  0  0  0  0  0
    0.2737  -11.2369   -4.9201 H   0  0  0  0  0  0  0  0  0  0  0  0
    1.1751  -10.0784   -3.7888 H   0  0  0  0  0  0  0  0  0  0  0  0
   -1.1301   -0.7832    0.8867 H   0  0  0  0  0  0  0  0  0  0  0  0
    0.2593   -0.3669    1.8611 H   0  0  0  0  0  0  0  0  0  0  0  0
    0.2603   -0.0260    0.1474 H   0  0  0  0  0  0  0  0  0  0  0  0
   -3.0794  -11.4070   -0.1518 H   0  0  0  0  0  0  0  0  0  0  0  0
   -3.8234  -10.0365   -0.9400 H   0  0  0  0  0  0  0  0  0  0  0  0
   -3.0583  -11.2840   -1.8946 H   0  0  0  0  0  0  0  0  0  0  0  0
    3.8945   -2.1682    4.1774 H   0  0  0  0  0  0  0  0  0  0  0  0
    4.4575   -3.5048    5.1519 H   0  0  0  0  0  0  0  0  0  0  0  0
    5.5458   -2.7207    4.0320 H   0  0  0  0  0  0  0  0  0  0  0  0
    4.7453   -9.6770   -4.1017 H   0  0  0  0  0  0  0  0  0  0  0  0
    4.0353   -8.3352   -4.9669 H   0  0  0  0  0  0  0  0  0  0  0  0
    5.6918   -8.2429   -4.4187 H   0  0  0  0  0  0  0  0  0  0  0  0
    1.1637   -1.8759   -2.4326 H   0  0  0  0  0  0  0  0  0  0  0  0
    2.7755   -1.6677   -1.7910 H   0  0  0  0  0  0  0  0  0  0  0  0
   -1.5752  -11.3358   -3.3457 H   0  0  0  0  0  0  0  0  0  0  0  0
    6.3505   -3.5589    0.8321 H   0  0  0  0  0  0  0  0  0  0  0  0
    6.5745   -3.3448    2.5517 H   0  0  0  0  0  0  0  0  0  0  0  0
    6.9689   -6.8825   -1.5712 H   0  0  0  0  0  0  0  0  0  0  0  0
    6.6283   -7.0339   -3.2783 H   0  0  0  0  0  0  0  0  0  0  0  0
    8.2049   -4.9365    1.6497 H   0  0  0  0  0  0  0  0  0  0  0  0
    7.1246   -5.7223    2.7759 H   0  0  0  0  0  0  0  0  0  0  0  0
    7.2395   -4.7297   -2.7103 H   0  0  0  0  0  0  0  0  0  0  0  0
    5.5854   -4.8163   -3.2668 H   0  0  0  0  0  0  0  0  0  0  0  0
    1.3519   -4.1480    4.4825 H   0  0  0  0  0  0  0  0  0  0  0  0
    3.0617   -3.6416   -2.2578 H   0  0  0  0  0  0  0  0  0  0  0  0
    1.5077   -9.7130   -3.2474 H   0  0  0  0  0  0  0  0  0  0  0  0
    5.8593   -5.3592   -0.1338 H   0  0  0  0  0  0  0  0  0  0  0  0
    8.6124   -6.1936   -0.2970 H   0  0  0  0  0  0  0  0  0  0  0  0
    7.5274   -3.3521   -0.8249 H   0  0  0  0  0  0  0  0  0  0  0  0
  1 44  1  0  0  0  0
  1 45  1  0  0  0  0
  1 46  1  0  0  0  0
  2 47  1  0  0  0  0
  2 48  1  0  0  0  0
  3 49  1  0  0  0  0
  3 50  1  0  0  0  0
  3 51  1  0  0  0  0
  4 52  1  0  0  0  0
  4 53  1  0  0  0  0
  4 54  1  0  0  0  0
  5 55  1  0  0  0  0
  5 56  1  0  0  0  0
  5 57  1  0  0  0  0
  6 58  1  0  0  0  0
  6 59  1  0  0  0  0
  6 60  1  0  0  0  0
  7  1  1  0  0  0  0
  7 61  1  0  0  0  0
  7 62  1  0  0  0  0
  8  2  2  0  0  0  0
  8 63  1  0  0  0  0
  9 64  1  0  0  0  0
  9 65  1  0  0  0  0
 10 66  1  0  0  0  0
 10 67  1  0  0  0  0
 11  9  1  0  0  0  0
 11 68  1  0  0  0  0
 11 69  1  0  0  0  0
 12 10  1  0  0  0  0
 12 70  1  0  0  0  0
 12 71  1  0  0  0  0
 13 72  1  0  0  0  0
 14 73  1  0  0  0  0
 15 74  1  0  0  0  0
 16 75  1  0  0  0  0
 17  3  1  0  0  0  0
 18  4  1  0  0  0  0
 19  5  1  0  0  0  0
 20  6  1  0  0  0  0
 21  7  1  0  0  0  0
 21 17  1  0  0  0  0
 22  8  1  0  0  0  0
 22 18  2  0  0  0  0
 23  9  1  0  0  0  0
 23 19  2  0  0  0  0
 24 10  1  0  0  0  0
 24 20  1  0  0  0  0
 25 13  1  0  0  0  0
 25 17  2  0  0  0  0
 26 13  2  0  0  0  0
 26 19  1  0  0  0  0
 27 14  2  0  0  0  0
 27 18  1  0  0  0  0
 28 15  1  0  0  0  0
 28 20  2  0  0  0  0
 29 14  1  0  0  0  0
 29 21  2  0  0  0  0
 30 15  2  0  0  0  0
 30 22  1  0  0  0  0
 31 16  2  0  0  0  0
 31 23  1  0  0  0  0
 32 16  1  0  0  0  0
 32 24  2  0  0  0  0
 33 11  1  0  0  0  0
 34 12  1  0  0  0  0
 36 25  1  0  0  0  0
 36 29  1  0  0  0  0
 36 35  1  0  0  0  0
 37 27  1  0  0  0  0
 37 30  1  0  0  0  0
 37 35  1  0  0  0  0
 38 26  1  0  0  0  0
 38 31  1  0  0  0  0
 38 35  1  0  0  0  0
 39 28  1  0  0  0  0
 39 32  1  0  0  0  0
 39 35  1  0  0  0  0
 40 33  1  0  0  0  0
 40 76  1  0  0  0  0
 41 33  2  0  0  0  0
 42 34  1  0  0  0  0
 42 77  1  0  0  0  0
 43 34  2  0  0  0  0
M  END
>  <DRUGBANK_ID>
DB02182

>  <SECONDARY_ACCESSION_NUMBERS>
EXPT01721

>  <COMMON_NAME>
Hybrid Between B and C Type Hemes (Protoporphyrin Ixcontaining Fe)

$$$$
