
 OpenBabel10282417243D

 54 48  0  0  1  0  0  0  0  0999 V2000
    0.3130    2.5197    1.5675 Na  0  3  0  0  0  0  0  0  0  0  0  0
   -1.8071    0.5108   -1.4027 Na  0  3  0  0  0  0  0  0  0  0  0  0
    2.5667   -2.3969   -0.3571 Na  0  3  0  0  0  0  0  0  0  0  0  0
    2.3948    1.0757   -2.8619 Na  0  3  0  0  0  0  0  0  0  0  0  0
   -0.9255   -0.9696    2.1976 Na  0  3  0  0  0  0  0  0  0  0  0  0
    3.2781    1.3034    2.2035 Na  0  3  0  0  0  0  0  0  0  0  0  0
   -0.0165    1.0380   -2.3241 O   0  0  0  0  0  0  0  0  0  0  0  0
    0.3817    2.6196   -1.7472 P   0  0  3  0  0  0  0  0  0  0  0  0
    1.0569    1.7398   -0.6316 O   0  5  0  0  0  0  0  0  0  0  0  0
    1.0291    2.5800   -3.1092 O   0  0  0  0  0  0  0  0  0  0  0  0
    0.7799    4.2011   -1.1702 O   0  0  0  0  0  0  0  0  0  0  0  0
    0.4033    4.4823   -0.0299 C   0  0  1  0  0  0  0  0  0  0  0  0
    1.9434    4.0174    0.6920 C   0  0  2  0  0  0  0  0  0  0  0  0
    1.9783    3.8118    2.2459 O   0  0  0  0  0  0  0  0  0  0  0  0
    1.4866    5.3628    2.8337 P   0  0  3  0  0  0  0  0  0  0  0  0
    0.3855    6.5509    1.9813 O   0  0  0  0  0  0  0  0  0  0  0  0
    2.2970    5.1948    4.5188 O   0  5  0  0  0  0  0  0  0  0  0  0
    1.0466    6.7509    3.3598 O   0  0  0  0  0  0  0  0  0  0  0  0
    2.8883    5.1077    0.4550 C   0  0  1  0  0  0  0  0  0  0  0  0
    3.2915    4.9123   -0.9506 O   0  0  0  0  0  0  0  0  0  0  0  0
    4.9414    5.1766   -0.5026 P   0  0  3  0  0  0  0  0  0  0  0  0
    4.7962    3.6927    0.5562 O   0  0  0  0  0  0  0  0  0  0  0  0
    5.3807    3.9733   -1.5317 O   0  5  0  0  0  0  0  0  0  0  0  0
    6.4181    5.4131   -0.1015 O   0  0  0  0  0  0  0  0  0  0  0  0
    2.5866    6.5652    0.9088 C   0  0  2  0  0  0  0  0  0  0  0  0
    2.6454    6.2965    2.3465 O   0  0  0  0  0  0  0  0  0  0  0  0
    1.4606    5.1453    2.8603 P   0  0  3  0  0  0  0  0  0  0  0  0
   -0.3371    5.7095    3.8510 O   0  0  0  0  0  0  0  0  0  0  0  0
    0.1788    4.4419    1.7637 O   0  5  0  0  0  0  0  0  0  0  0  0
    0.4002    4.1150    3.3201 O   0  0  0  0  0  0  0  0  0  0  0  0
    1.1745    7.0695    0.1467 C   0  0  1  0  0  0  0  0  0  0  0  0
    1.4854    6.7413   -1.0665 O   0  0  0  0  0  0  0  0  0  0  0  0
    3.0940    6.3272   -1.5502 P   0  0  3  0  0  0  0  0  0  0  0  0
    2.3920    5.5376   -2.8487 O   0  0  0  0  0  0  0  0  0  0  0  0
    3.2460    7.7955   -1.9591 O   0  5  0  0  0  0  0  0  0  0  0  0
    4.5336    5.9566   -1.9831 O   0  0  0  0  0  0  0  0  0  0  0  0
   -0.2191    5.9228   -0.0506 C   0  0  1  0  0  0  0  0  0  0  0  0
   -1.2899    5.9912   -0.9018 O   0  0  0  0  0  0  0  0  0  0  0  0
   -1.1609    6.4852   -2.3696 P   0  0  3  0  0  0  0  0  0  0  0  0
   -2.6727    7.0165   -2.3348 O   0  0  0  0  0  0  0  0  0  0  0  0
   -0.3506    7.7945   -2.4861 O   0  5  0  0  0  0  0  0  0  0  0  0
   -1.1975    5.2523   -3.1906 O   0  0  0  0  0  0  0  0  0  0  0  0
   -0.0738    1.4234   -3.2680 H   0  0  0  0  0  0  0  0  0  0  0  0
   -0.4154    3.7551    0.1251 H   0  0  0  0  0  0  0  0  0  0  0  0
    2.3791    3.0841    0.3269 H   0  0  0  0  0  0  0  0  0  0  0  0
    0.5990    5.9240    1.3331 H   0  0  0  0  0  0  0  0  0  0  0  0
    3.6575    4.9025    1.2159 H   0  0  0  0  0  0  0  0  0  0  0  0
    5.7506    3.6786    0.7540 H   0  0  0  0  0  0  0  0  0  0  0  0
    3.4510    7.2225    0.7029 H   0  0  0  0  0  0  0  0  0  0  0  0
    0.0416    6.5879    4.1030 H   0  0  0  0  0  0  0  0  0  0  0  0
    0.8917    8.1153    0.3178 H   0  0  0  0  0  0  0  0  0  0  0  0
    2.4378    4.6414   -2.4768 H   0  0  0  0  0  0  0  0  0  0  0  0
   -0.9133    5.9451    0.8178 H   0  0  0  0  0  0  0  0  0  0  0  0
   -3.1091    6.1748   -2.1557 H   0  0  0  0  0  0  0  0  0  0  0  0
  7  8  1  0  0  0  0
  7 43  1  0  0  0  0
  8  9  1  0  0  0  0
  8 10  2  0  0  0  0
  8 11  1  0  0  0  0
 12 13  1  0  0  0  0
 12 37  1  0  0  0  0
 12 44  1  1  0  0  0
 12 11  1  0  0  0  0
 13 14  1  0  0  0  0
 13 19  1  0  0  0  0
 13 45  1  6  0  0  0
 14 15  1  0  0  0  0
 15 16  1  0  0  0  0
 15 17  1  0  0  0  0
 15 18  2  0  0  0  0
 16 46  1  0  0  0  0
 19 25  1  0  0  0  0
 19 47  1  1  0  0  0
 19 20  1  0  0  0  0
 20 21  1  0  0  0  0
 21 22  1  0  0  0  0
 21 23  1  0  0  0  0
 21 24  2  0  0  0  0
 22 48  1  0  0  0  0
 25 26  1  0  0  0  0
 25 49  1  6  0  0  0
 26 27  1  0  0  0  0
 27 28  1  0  0  0  0
 27 29  1  0  0  0  0
 27 30  2  0  0  0  0
 28 50  1  0  0  0  0
 31 25  1  0  0  0  0
 31 51  1  1  0  0  0
 31 32  1  0  0  0  0
 32 33  1  0  0  0  0
 33 34  1  0  0  0  0
 33 35  1  0  0  0  0
 33 36  2  0  0  0  0
 34 52  1  0  0  0  0
 37 31  1  0  0  0  0
 37 38  1  0  0  0  0
 37 53  1  1  0  0  0
 38 39  1  0  0  0  0
 39 40  1  0  0  0  0
 39 41  1  0  0  0  0
 39 42  2  0  0  0  0
 40 54  1  0  0  0  0
M  CHG  8   1   1   2   1   3   1   4   1   5   1   6   1   9  -1  17  -1
M  CHG  4  23  -1  29  -1  35  -1  41  -1
M  END
>  <DRUGBANK_ID>
DB18232

>  <COMMON_NAME>
Hexasodium phytate

>  <CAS_NUMBER>
34367-89-0

>  <UNII>
ZBX50UG81V

>  <SYNONYMS>
(1r,2r,3s,4s,5r,6s)-cyclohexane-1,2,3,4,5,6-hexayl-hexakis(dihydrogen phosphate); Hexasodium fytate; Inositol, hexakis(dihydrogen phosphate) hexasodium salt, myo-; Myo-inositol, hexakis(dihydrogen phosphate), hexasodium salt

$$$$
