
 OpenBabel10282417123D

 89 91  0  0  0  0  0  0  0  0999 V2000
    1.0480    0.2076   -0.1974 O   0  0  0  0  0  0  0  0  0  0  0  0
    0.0826   -1.8349    0.9160 O   0  0  0  0  0  0  0  0  0  0  0  0
    0.6362   -6.5734  -11.5799 O   0  0  0  0  0  0  0  0  0  0  0  0
    1.3813  -10.5973   -7.1377 O   0  0  0  0  0  0  0  0  0  0  0  0
   -3.0074   -8.8653   -6.0963 O   0  0  0  0  0  0  0  0  0  0  0  0
    3.4158   -9.4568   -6.3052 O   0  0  0  0  0  0  0  0  0  0  0  0
    0.4708   -4.5079   -7.2913 O   0  0  0  0  0  0  0  0  0  0  0  0
   -0.7236  -10.3775   -6.7259 O   0  0  0  0  0  0  0  0  0  0  0  0
   -0.1889   -5.4609   -9.1542 O   0  0  0  0  0  0  0  0  0  0  0  0
   -1.9214   -8.2122  -11.6288 O   0  0  0  0  0  0  0  0  0  0  0  0
   -3.1741  -10.0052  -11.1611 O   0  0  0  0  0  0  0  0  0  0  0  0
    0.0783  -12.8218  -11.5676 O   0  0  0  0  0  0  0  0  0  0  0  0
   -1.9593  -12.2565  -10.7428 O   0  0  0  0  0  0  0  0  0  0  0  0
    2.1943   -2.4795    0.0654 N   0  0  0  0  0  0  0  0  0  0  0  0
    4.9968   -2.4636    0.2350 N   0  0  0  0  0  0  0  0  0  0  0  0
    4.1370   -4.8597   -2.0486 N   0  0  0  0  0  0  0  0  0  0  0  0
    4.9681   -0.0799    0.0129 N   0  0  0  0  0  0  0  0  0  0  0  0
    3.0333    1.2274    0.0867 N   0  0  0  0  0  0  0  0  0  0  0  0
    0.3536   -7.6249   -9.5933 N   0  0  0  0  0  0  0  0  0  0  0  0
    2.8532   -7.6827   -7.5466 N   0  0  0  0  0  0  0  0  0  0  0  0
   -2.2987   -9.4275   -8.2142 N   0  0  0  0  0  0  0  0  0  0  0  0
    5.0729    2.2169    0.0333 N   0  0  0  0  0  0  0  0  0  0  0  0
    2.9747   -3.6793   -0.3101 C   0  0  2  0  0  0  0  0  0  0  0  0
    4.2765   -3.7040    0.5111 C   0  0  0  0  0  0  0  0  0  0  0  0
    3.3331   -3.6710   -1.8095 C   0  0  0  0  0  0  0  0  0  0  0  0
    2.9221   -1.2639    0.1150 C   0  0  0  0  0  0  0  0  0  0  0  0
    4.2927   -1.2678    0.1171 C   0  0  0  0  0  0  0  0  0  0  0  0
    2.2462    0.0985    0.0250 C   0  0  0  0  0  0  0  0  0  0  0  0
    0.8529   -2.6322    0.4040 C   0  0  0  0  0  0  0  0  0  0  0  0
    3.8547   -5.6982   -3.0824 C   0  0  0  0  0  0  0  0  0  0  0  0
    4.3148    1.1041    0.0547 C   0  0  0  0  0  0  0  0  0  0  0  0
    0.3498   -8.3530   -8.0248 C   0  0  1  0  0  0  0  0  0  0  0  0
   -0.1939   -7.4982   -6.8864 C   0  0  0  0  0  0  0  0  0  0  0  0
    3.0119   -6.0756   -9.3477 C   0  0  0  0  0  0  0  0  0  0  0  0
    2.2260   -6.2902   -8.0983 C   0  0  1  0  0  0  0  0  0  0  0  0
    2.6420   -7.0655  -10.4302 C   0  0  0  0  0  0  0  0  0  0  0  0
   -1.6763   -7.2037   -7.1103 C   0  0  0  0  0  0  0  0  0  0  0  0
    3.2566   -5.2093   -4.2037 C   0  0  0  0  0  0  0  0  0  0  0  0
    4.1249   -7.0669   -2.9709 C   0  0  0  0  0  0  0  0  0  0  0  0
    3.2718   -7.4222   -5.1531 C   0  0  0  0  0  0  0  0  0  0  0  0
    1.1640   -7.1261  -10.6095 C   0  0  0  0  0  0  0  0  0  0  0  0
   -1.5285   -9.3794   -9.5173 C   0  0  1  0  0  0  0  0  0  0  0  0
    2.9316   -6.0823   -5.1830 C   0  0  0  0  0  0  0  0  0  0  0  0
    3.8346   -7.9469   -4.0043 C   0  0  0  0  0  0  0  0  0  0  0  0
   -2.4330   -8.5294   -7.1361 C   0  0  0  0  0  0  0  0  0  0  0  0
   -0.0291  -10.2202   -9.7917 C   0  0  0  0  0  0  0  0  0  0  0  0
    3.1695   -8.2506   -6.3400 C   0  0  0  0  0  0  0  0  0  0  0  0
    0.2678   -9.8551   -7.2074 C   0  0  0  0  0  0  0  0  0  0  0  0
    0.6950   -5.3775   -8.3090 C   0  0  0  0  0  0  0  0  0  0  0  0
   -0.0403  -11.7078   -9.4885 C   0  0  0  0  0  0  0  0  0  0  0  0
   -2.2688   -9.2590  -10.8359 C   0  0  0  0  0  0  0  0  0  0  0  0
   -0.7172  -12.3171  -10.6285 C   0  0  0  0  0  0  0  0  0  0  0  0
    5.9522   -2.5097   -0.1040 H   0  0  0  0  0  0  0  0  0  0  0  0
    5.1066   -4.8723   -1.7533 H   0  0  0  0  0  0  0  0  0  0  0  0
    5.9708   -0.1116    0.0979 H   0  0  0  0  0  0  0  0  0  0  0  0
   -0.4656   -7.0221   -9.7485 H   0  0  0  0  0  0  0  0  0  0  0  0
    3.0268   -8.4325   -8.2285 H   0  0  0  0  0  0  0  0  0  0  0  0
   -2.5489  -10.3573   -7.8951 H   0  0  0  0  0  0  0  0  0  0  0  0
    4.5677    3.0967    0.0744 H   0  0  0  0  0  0  0  0  0  0  0  0
    6.0766    2.2501    0.0839 H   0  0  0  0  0  0  0  0  0  0  0  0
    2.2440  -10.3128   -7.4833 H   0  0  0  0  0  0  0  0  0  0  0  0
    0.1100   -4.8978   -6.4679 H   0  0  0  0  0  0  0  0  0  0  0  0
   -1.3707   -7.4566  -11.3334 H   0  0  0  0  0  0  0  0  0  0  0  0
    0.9447  -13.0959  -11.2112 H   0  0  0  0  0  0  0  0  0  0  0  0
    2.3941   -4.5913   -0.1055 H   0  0  0  0  0  0  0  0  0  0  0  0
    4.0342   -3.7257    1.5768 H   0  0  0  0  0  0  0  0  0  0  0  0
    4.8924   -4.5881    0.3104 H   0  0  0  0  0  0  0  0  0  0  0  0
    2.3949   -3.6443   -2.3843 H   0  0  0  0  0  0  0  0  0  0  0  0
    3.8873   -2.7786   -2.1265 H   0  0  0  0  0  0  0  0  0  0  0  0
    0.4939   -3.6609    0.2278 H   0  0  0  0  0  0  0  0  0  0  0  0
    1.3549   -8.4865   -8.1988 H   0  0  0  0  0  0  0  0  0  0  0  0
   -0.0716   -8.0202   -5.9286 H   0  0  0  0  0  0  0  0  0  0  0  0
    0.4147   -6.6570   -6.6142 H   0  0  0  0  0  0  0  0  0  0  0  0
    2.8314   -5.0342   -9.6208 H   0  0  0  0  0  0  0  0  0  0  0  0
    4.0690   -6.1896   -9.0833 H   0  0  0  0  0  0  0  0  0  0  0  0
    2.6948   -5.5902   -7.4705 H   0  0  0  0  0  0  0  0  0  0  0  0
    3.1351   -6.7301  -11.3496 H   0  0  0  0  0  0  0  0  0  0  0  0
    2.9591   -8.0866  -10.2296 H   0  0  0  0  0  0  0  0  0  0  0  0
   -2.0217   -6.5750   -6.2722 H   0  0  0  0  0  0  0  0  0  0  0  0
   -1.9234   -6.6390   -8.0085 H   0  0  0  0  0  0  0  0  0  0  0  0
    3.0261   -4.1631   -4.3797 H   0  0  0  0  0  0  0  0  0  0  0  0
    4.5532   -7.4515   -2.0537 H   0  0  0  0  0  0  0  0  0  0  0  0
   -1.4226   -8.3307   -9.3893 H   0  0  0  0  0  0  0  0  0  0  0  0
    2.3957   -5.5473   -5.9149 H   0  0  0  0  0  0  0  0  0  0  0  0
    4.0644   -9.0063   -3.9102 H   0  0  0  0  0  0  0  0  0  0  0  0
    0.4089   -9.9712  -10.7727 H   0  0  0  0  0  0  0  0  0  0  0  0
    0.8822   -9.9419   -9.2548 H   0  0  0  0  0  0  0  0  0  0  0  0
    0.9741  -12.1230   -9.3408 H   0  0  0  0  0  0  0  0  0  0  0  0
   -0.5780  -11.9394   -8.5683 H   0  0  0  0  0  0  0  0  0  0  0  0
  1 28  2  0  0  0  0
  2 29  2  0  0  0  0
  3 41  2  0  0  0  0
  4 48  1  0  0  0  0
  4 61  1  0  0  0  0
  5 45  2  0  0  0  0
  6 47  2  0  0  0  0
  7 49  1  0  0  0  0
  7 62  1  0  0  0  0
  8 48  2  0  0  0  0
  9 49  2  0  0  0  0
 10 51  1  0  0  0  0
 10 63  1  0  0  0  0
 11 51  2  0  0  0  0
 12 52  1  0  0  0  0
 12 64  1  0  0  0  0
 13 52  2  0  0  0  0
 14 23  1  0  0  0  0
 14 26  1  0  0  0  0
 14 29  1  0  0  0  0
 15 24  1  0  0  0  0
 15 27  1  0  0  0  0
 15 53  1  0  0  0  0
 16 25  1  0  0  0  0
 16 30  1  0  0  0  0
 16 54  1  0  0  0  0
 17 27  1  0  0  0  0
 17 31  1  0  0  0  0
 17 55  1  0  0  0  0
 18 28  1  0  0  0  0
 18 31  2  0  0  0  0
 19 41  1  0  0  0  0
 19 56  1  0  0  0  0
 20 47  1  0  0  0  0
 20 57  1  0  0  0  0
 21 45  1  0  0  0  0
 21 58  1  0  0  0  0
 22 31  1  0  0  0  0
 22 59  1  0  0  0  0
 22 60  1  0  0  0  0
 23 24  1  0  0  0  0
 23 25  1  0  0  0  0
 23 65  1  1  0  0  0
 24 66  1  0  0  0  0
 24 67  1  0  0  0  0
 25 68  1  0  0  0  0
 25 69  1  0  0  0  0
 26 27  2  0  0  0  0
 26 28  1  0  0  0  0
 29 70  1  0  0  0  0
 30 38  2  0  0  0  0
 30 39  1  0  0  0  0
 32 19  1  0  0  0  0
 32 33  1  0  0  0  0
 32 48  1  0  0  0  0
 32 71  1  1  0  0  0
 33 37  1  0  0  0  0
 33 72  1  0  0  0  0
 33 73  1  0  0  0  0
 34 35  1  0  0  0  0
 34 36  1  0  0  0  0
 34 74  1  0  0  0  0
 34 75  1  0  0  0  0
 35 20  1  0  0  0  0
 35 49  1  0  0  0  0
 35 76  1  1  0  0  0
 36 41  1  0  0  0  0
 36 77  1  0  0  0  0
 36 78  1  0  0  0  0
 37 45  1  0  0  0  0
 37 79  1  0  0  0  0
 37 80  1  0  0  0  0
 38 43  1  0  0  0  0
 38 81  1  0  0  0  0
 39 44  2  0  0  0  0
 39 82  1  0  0  0  0
 40 43  2  0  0  0  0
 40 44  1  0  0  0  0
 40 47  1  0  0  0  0
 42 21  1  0  0  0  0
 42 46  1  0  0  0  0
 42 51  1  0  0  0  0
 42 83  1  1  0  0  0
 43 84  1  0  0  0  0
 44 85  1  0  0  0  0
 46 50  1  0  0  0  0
 46 86  1  0  0  0  0
 46 87  1  0  0  0  0
 50 52  1  0  0  0  0
 50 88  1  0  0  0  0
 50 89  1  0  0  0  0
M  END
>  <DRUGBANK_ID>
DB02067

>  <SECONDARY_ACCESSION_NUMBERS>
EXPT03045

>  <COMMON_NAME>
Triglu-5-formyl-tetrahydrofolate

$$$$
