
 OpenBabel10282417123D

 47 47  0  0  0  0  0  0  0  0999 V2000
    1.0093    0.0501    0.0006 C   0  0  0  0  0  0  0  0  0  0  0  0
    0.3623    1.0653   -0.8177 N   0  0  0  0  0  0  0  0  0  0  0  0
   -0.3183    0.6799   -2.0430 C   0  0  0  0  0  0  0  0  0  0  0  0
    0.7779    2.3823   -0.7347 C   0  0  0  0  0  0  0  0  0  0  0  0
    2.1045    2.6798   -0.5152 C   0  0  0  0  0  0  0  0  0  0  0  0
    2.5420    3.9828   -0.6298 C   0  0  0  0  0  0  0  0  0  0  0  0
    1.6817    5.0770   -0.6897 C   0  0  0  0  0  0  0  0  0  0  0  0
    0.3463    4.7975   -0.9341 C   0  0  0  0  0  0  0  0  0  0  0  0
   -0.0917    3.4631   -0.9613 C   0  0  0  0  0  0  0  0  0  0  0  0
    2.0731    6.5100   -0.4778 C   0  0  0  0  0  0  0  0  0  0  0  0
    1.2891    7.4193   -0.6685 O   0  0  0  0  0  0  0  0  0  0  0  0
    3.3123    6.8217    0.0181 N   0  0  0  0  0  0  0  0  0  0  0  0
    4.4038    5.9541    0.3531 C   0  0  0  0  0  0  0  0  0  0  0  0
    5.4732    6.0618   -0.7045 C   0  0  0  0  0  0  0  0  0  0  0  0
    6.1547    7.3789   -0.4486 C   0  0  0  0  0  0  0  0  0  0  0  0
    6.7165    7.4449    1.0027 C   0  0  0  0  0  0  0  0  0  0  0  0
    7.8501    6.4555    1.1992 C   0  0  0  0  0  0  0  0  0  0  0  0
    8.9985    6.7522    0.2392 C   0  0  0  0  0  0  0  0  0  0  0  0
    9.7152    8.0795    0.5042 C   0  0  0  0  0  0  0  0  0  0  0  0
   10.8845    8.0475    0.9008 O   0  0  0  0  0  0  0  0  0  0  0  0
    9.1468    9.3023    0.3521 N   0  0  0  0  0  0  0  0  0  0  0  0
    7.9758    9.6683   -0.3059 O   0  0  0  0  0  0  0  0  0  0  0  0
    0.6695   -0.9541   -0.2641 H   0  0  0  0  0  0  0  0  0  0  0  0
    0.7348    0.2306    1.0449 H   0  0  0  0  0  0  0  0  0  0  0  0
    2.1036    0.0359   -0.0665 H   0  0  0  0  0  0  0  0  0  0  0  0
   -1.3061    1.1478   -2.0745 H   0  0  0  0  0  0  0  0  0  0  0  0
    0.2392    0.9749   -2.9421 H   0  0  0  0  0  0  0  0  0  0  0  0
   -0.4686   -0.4021   -2.0887 H   0  0  0  0  0  0  0  0  0  0  0  0
    2.8614    1.9192   -0.3612 H   0  0  0  0  0  0  0  0  0  0  0  0
    3.6100    4.0270   -0.7456 H   0  0  0  0  0  0  0  0  0  0  0  0
   -0.3526    5.6070   -1.1304 H   0  0  0  0  0  0  0  0  0  0  0  0
   -1.1476    3.2764   -1.1232 H   0  0  0  0  0  0  0  0  0  0  0  0
    3.4488    7.8245    0.1218 H   0  0  0  0  0  0  0  0  0  0  0  0
    4.6910    6.1961    1.3642 H   0  0  0  0  0  0  0  0  0  0  0  0
    4.1643    4.9327    0.5578 H   0  0  0  0  0  0  0  0  0  0  0  0
    6.1971    5.2412   -0.6466 H   0  0  0  0  0  0  0  0  0  0  0  0
    5.0872    6.0359   -1.7354 H   0  0  0  0  0  0  0  0  0  0  0  0
    6.8978    7.4374   -1.2496 H   0  0  0  0  0  0  0  0  0  0  0  0
    5.4774    8.2245   -0.6203 H   0  0  0  0  0  0  0  0  0  0  0  0
    7.0342    8.4412    1.2986 H   0  0  0  0  0  0  0  0  0  0  0  0
    5.9628    7.2926    1.7744 H   0  0  0  0  0  0  0  0  0  0  0  0
    8.1933    6.4909    2.2389 H   0  0  0  0  0  0  0  0  0  0  0  0
    7.4858    5.4273    1.0545 H   0  0  0  0  0  0  0  0  0  0  0  0
    9.7357    5.9493    0.3792 H   0  0  0  0  0  0  0  0  0  0  0  0
    8.7077    6.6646   -0.8113 H   0  0  0  0  0  0  0  0  0  0  0  0
    9.7065   10.1048    0.6135 H   0  0  0  0  0  0  0  0  0  0  0  0
    7.6694    8.8400   -0.6763 H   0  0  0  0  0  0  0  0  0  0  0  0
  1  2  1  0  0  0  0
  1 23  1  0  0  0  0
  1 24  1  0  0  0  0
  1 25  1  0  0  0  0
  2  3  1  0  0  0  0
  2  4  1  0  0  0  0
  3 26  1  0  0  0  0
  3 27  1  0  0  0  0
  3 28  1  0  0  0  0
  4  5  2  0  0  0  0
  5  6  1  0  0  0  0
  5 29  1  0  0  0  0
  6  7  2  0  0  0  0
  6 30  1  0  0  0  0
  7  8  1  0  0  0  0
  7 10  1  0  0  0  0
  8  9  2  0  0  0  0
  8 31  1  0  0  0  0
  9  4  1  0  0  0  0
  9 32  1  0  0  0  0
 10 11  2  0  0  0  0
 10 12  1  0  0  0  0
 12 13  1  0  0  0  0
 12 33  1  0  0  0  0
 13 14  1  0  0  0  0
 13 34  1  0  0  0  0
 13 35  1  0  0  0  0
 14 15  1  0  0  0  0
 14 36  1  0  0  0  0
 14 37  1  0  0  0  0
 15 16  1  0  0  0  0
 15 38  1  0  0  0  0
 15 39  1  0  0  0  0
 16 17  1  0  0  0  0
 16 40  1  0  0  0  0
 16 41  1  0  0  0  0
 17 18  1  0  0  0  0
 17 42  1  0  0  0  0
 17 43  1  0  0  0  0
 18 19  1  0  0  0  0
 18 44  1  0  0  0  0
 18 45  1  0  0  0  0
 19 20  2  0  0  0  0
 19 21  1  0  0  0  0
 21 22  1  0  0  0  0
 21 46  1  0  0  0  0
 22 47  1  0  0  0  0
M  END
>  <DRUGBANK_ID>
DB02565

>  <SECONDARY_ACCESSION_NUMBERS>
EXPT00611

>  <COMMON_NAME>
4-(dimethylamino)-N-[7-(hydroxyamino)-7-oxoheptyl]benzamide

>  <CAS_NUMBER>
251456-60-7

>  <UNII>
J8W4VF5ZEJ

>  <SYNONYMS>
4-dimethylamino-N-(6-hydroxycarbamoylhexyl)benzamide; histone deacetylase inhibitor III; N-hydroxy-7-(4-dimethylaminobenzoyl)aminoheptanamide

$$$$
