
 OpenBabel10282417153D

  2  0  0  0  0  0  0  0  0  0999 V2000
    0.9988   -0.0766    0.0643 K   0  3  0  0  0  0  0  0  0  0  0  0
    1.0179    0.0584   -0.0792 I   0  5  0  0  0  0  0  0  0  0  0  0
M  CHG  2   1   1   2  -1
M  END
>  <DRUGBANK_ID>
DB06715

>  <COMMON_NAME>
Potassium Iodide

>  <CAS_NUMBER>
7681-11-0

>  <UNII>
1C4QK22F9J

>  <SYNONYMS>
Kaliumiodid; KI; Potasio ioduro; Potassium Iodide

$$$$
