
 OpenBabel10282417133D

125128  0  0  1  0  0  0  0  0999 V2000
    4.9849   -1.3994   -3.0820 C   0  0  0  0  0  0  0  0  0  0  0  0
    9.7948    0.0485   -2.5559 C   0  0  0  0  0  0  0  0  0  0  0  0
    8.8765   -6.1508   -4.0703 C   0  0  0  0  0  0  0  0  0  0  0  0
    2.2576   -3.6623  -10.0465 C   0  0  0  0  0  0  0  0  0  0  0  0
   15.9216   -7.6715   -4.5075 C   0  0  0  0  0  0  0  0  0  0  0  0
   12.6453   -5.1750   -2.3873 C   0  0  0  0  0  0  0  0  0  0  0  0
    9.3442    0.5673    0.1608 C   0  0  0  0  0  0  0  0  0  0  0  0
    0.5456   -2.7864  -12.0658 C   0  0  0  0  0  0  0  0  0  0  0  0
    8.5095    2.5149   -7.0218 C   0  0  0  0  0  0  0  0  0  0  0  0
    9.6196    3.3800   -8.7368 C   0  0  0  0  0  0  0  0  0  0  0  0
   12.2217   -7.3396   -3.9959 C   0  0  0  0  0  0  0  0  0  0  0  0
    7.4813    1.4339   -5.2736 C   0  0  0  0  0  0  0  0  0  0  0  0
   11.1707   -7.6207   -2.9567 C   0  0  0  0  0  0  0  0  0  0  0  0
    9.8240    4.1554  -10.2837 C   0  0  0  0  0  0  0  0  0  0  0  0
   10.5450   -2.1861   -1.7296 C   0  0  0  0  0  0  0  0  0  0  0  0
   10.0609   -3.5797   -1.4332 C   0  0  0  0  0  0  0  0  0  0  0  0
   13.5119   -7.7047   -3.8692 C   0  0  0  0  0  0  0  0  0  0  0  0
    3.0271   -0.7983   -6.2762 C   0  0  0  0  0  0  0  0  0  0  0  0
    3.2054   -2.7286   -7.7489 C   0  0  0  0  0  0  0  0  0  0  0  0
    4.9999   -1.8573   -5.2692 C   0  0  0  0  0  0  0  0  0  0  0  0
    7.2052   -0.4354   -1.3011 C   0  0  0  0  0  0  0  0  0  0  0  0
    0.8672    0.4581   -9.8698 C   0  0  0  0  0  0  0  0  0  0  0  0
    8.2386    1.4635  -10.0686 C   0  0  0  0  0  0  0  0  0  0  0  0
    4.6689    0.3215  -12.5032 C   0  0  0  0  0  0  0  0  0  0  0  0
   14.2732   -6.3288   -5.7972 C   0  0  0  0  0  0  0  0  0  0  0  0
    6.3322    0.1449   -3.7037 C   0  0  2  0  0  0  0  0  0  0  0  0
    9.3767   -1.3153   -2.0736 C   0  0  1  0  0  0  0  0  0  0  0  0
    9.9647   -5.4293   -3.2953 C   0  0  1  0  0  0  0  0  0  0  0  0
    1.0988   -3.1936   -9.2003 C   0  0  1  0  0  0  0  0  0  0  0  0
    3.6862   -1.3301   -7.4902 C   0  0  1  0  0  0  0  0  0  0  0  0
    3.3732   -1.7192   -5.1911 C   0  0  1  0  0  0  0  0  0  0  0  0
    1.1265   -0.8500  -10.1374 C   0  0  0  0  0  0  0  0  0  0  0  0
    7.4629    1.9743  -11.0591 C   0  0  0  0  0  0  0  0  0  0  0  0
    4.2230    0.6133  -11.2437 C   0  0  0  0  0  0  0  0  0  0  0  0
    9.3780   -4.2150   -2.6273 C   0  0  0  0  0  0  0  0  0  0  0  0
    1.6837   -2.7557   -7.8911 C   0  0  0  0  0  0  0  0  0  0  0  0
   10.6015   -6.3711   -2.2824 C   0  0  2  0  0  0  0  0  0  0  0  0
    8.3807   -1.2822   -0.8936 C   0  0  1  0  0  0  0  0  0  0  0  0
    6.9351   -0.9493   -2.7704 C   0  0  1  0  0  0  0  0  0  0  0  0
    9.1502    3.1370  -10.9622 C   0  0  0  0  0  0  0  0  0  0  0  0
    5.5382   -0.4985   -5.2943 C   0  0  0  0  0  0  0  0  0  0  0  0
    0.2928   -2.0492   -9.8379 C   0  0  1  0  0  0  0  0  0  0  0  0
    6.1975    1.3439  -11.3982 C   0  0  0  0  0  0  0  0  0  0  0  0
    2.8479    0.3020  -10.7749 C   0  0  0  0  0  0  0  0  0  0  0  0
    8.0516    3.0670  -11.6733 N   0  0  0  0  0  0  0  0  0  0  0  0
    2.3756   -0.9290  -10.7287 N   0  0  0  0  0  0  0  0  0  0  0  0
    5.2136    1.2270  -10.5299 N   0  0  0  0  0  0  0  0  0  0  0  0
   14.5371   -7.2360   -4.6813 N   0  0  0  0  0  0  0  0  0  0  0  0
   13.2983   -6.8921   -6.6656 O   0  0  0  0  0  0  0  0  0  0  0  0
    3.4105   -0.4517   -8.4970 O   0  0  0  0  0  0  0  0  0  0  0  0
    2.6283   -1.0275   -4.1047 O   0  0  0  0  0  0  0  0  0  0  0  0
    8.3561   -3.7110   -3.0992 O   0  0  0  0  0  0  0  0  0  0  0  0
    0.9346   -2.3944   -6.9814 O   0  0  0  0  0  0  0  0  0  0  0  0
    5.1526    0.5830   -5.7215 O   0  0  0  0  0  0  0  0  0  0  0  0
   11.6730   -5.7717   -1.5487 O   0  0  0  0  0  0  0  0  0  0  0  0
    8.9747   -0.7837    0.2984 O   0  0  0  0  0  0  0  0  0  0  0  0
   -0.3727   -2.4789  -11.0387 O   0  0  0  0  0  0  0  0  0  0  0  0
    9.4338    1.9899  -10.3057 O   0  0  0  0  0  0  0  0  0  0  0  0
    1.9615    1.1964  -10.2090 O   0  0  0  0  0  0  0  0  0  0  0  0
    5.9273    0.8161  -12.6349 O   0  0  0  0  0  0  0  0  0  0  0  0
    6.9136   -0.6324   -4.3061 O   0  0  0  0  0  0  0  0  0  0  0  0
   10.9788    3.5419   -9.2165 H   0  0  0  0  0  0  0  0  0  0  0  0
   11.9859   -6.5712   -4.7384 H   0  0  0  0  0  0  0  0  0  0  0  0
    9.8342    4.8084  -11.5581 H   0  0  0  0  0  0  0  0  0  0  0  0
   13.8025   -8.2656   -2.9716 H   0  0  0  0  0  0  0  0  0  0  0  0
    5.7545   -0.4102   -2.5682 H   0  0  0  0  0  0  0  0  0  0  0  0
    8.9087   -1.7237   -2.9643 H   0  0  0  0  0  0  0  0  0  0  0  0
   10.6933   -5.0823   -4.0287 H   0  0  0  0  0  0  0  0  0  0  0  0
    0.4302   -4.0398   -9.0069 H   0  0  0  0  0  0  0  0  0  0  0  0
    4.7715   -1.3157   -7.4395 H   0  0  0  0  0  0  0  0  0  0  0  0
    3.0314   -2.7417   -5.2059 H   0  0  0  0  0  0  0  0  0  0  0  0
    9.8278   -6.6555   -1.5499 H   0  0  0  0  0  0  0  0  0  0  0  0
    8.0131   -2.2997   -0.6762 H   0  0  0  0  0  0  0  0  0  0  0  0
    7.0555   -2.0110   -2.8839 H   0  0  0  0  0  0  0  0  0  0  0  0
   -0.5072   -1.7555   -9.1383 H   0  0  0  0  0  0  0  0  0  0  0  0
    3.7314   -1.9286   -2.7094 H   0  0  0  0  0  0  0  0  0  0  0  0
    4.8987   -2.7994   -3.1817 H   0  0  0  0  0  0  0  0  0  0  0  0
    4.2817   -1.0796   -3.7027 H   0  0  0  0  0  0  0  0  0  0  0  0
   10.5024    0.5397   -1.9389 H   0  0  0  0  0  0  0  0  0  0  0  0
   10.4699    0.0222   -3.3826 H   0  0  0  0  0  0  0  0  0  0  0  0
    8.9485    0.7172   -2.7033 H   0  0  0  0  0  0  0  0  0  0  0  0
    8.1569   -5.4362   -4.4603 H   0  0  0  0  0  0  0  0  0  0  0  0
    9.2912   -6.7020   -4.9188 H   0  0  0  0  0  0  0  0  0  0  0  0
    8.3514   -6.8552   -3.4198 H   0  0  0  0  0  0  0  0  0  0  0  0
    2.7505   -4.5392   -9.6736 H   0  0  0  0  0  0  0  0  0  0  0  0
    2.0609   -4.1153  -10.9647 H   0  0  0  0  0  0  0  0  0  0  0  0
    2.9454   -2.8652  -10.3159 H   0  0  0  0  0  0  0  0  0  0  0  0
   16.2518   -8.2382   -5.3848 H   0  0  0  0  0  0  0  0  0  0  0  0
   16.6100   -6.8289   -4.3668 H   0  0  0  0  0  0  0  0  0  0  0  0
   16.0159   -8.3253   -3.6345 H   0  0  0  0  0  0  0  0  0  0  0  0
   13.1845   -5.9657   -2.8094 H   0  0  0  0  0  0  0  0  0  0  0  0
   12.2520   -4.5513   -3.1897 H   0  0  0  0  0  0  0  0  0  0  0  0
   13.4274   -4.6740   -1.8540 H   0  0  0  0  0  0  0  0  0  0  0  0
   10.1903    0.5986   -0.4563 H   0  0  0  0  0  0  0  0  0  0  0  0
    8.5721    1.2229   -0.2394 H   0  0  0  0  0  0  0  0  0  0  0  0
    9.8760    0.9889    0.9851 H   0  0  0  0  0  0  0  0  0  0  0  0
    1.3404   -2.0556  -12.2202 H   0  0  0  0  0  0  0  0  0  0  0  0
    0.9173   -3.7460  -11.8515 H   0  0  0  0  0  0  0  0  0  0  0  0
    0.1304   -3.1440  -12.9837 H   0  0  0  0  0  0  0  0  0  0  0  0
    9.8198    3.1502   -7.2125 H   0  0  0  0  0  0  0  0  0  0  0  0
    8.7596    3.8240   -7.6245 H   0  0  0  0  0  0  0  0  0  0  0  0
    6.4516    2.1543   -4.7880 H   0  0  0  0  0  0  0  0  0  0  0  0
    6.5249    1.5518   -4.3683 H   0  0  0  0  0  0  0  0  0  0  0  0
   11.5876   -8.2533   -2.1719 H   0  0  0  0  0  0  0  0  0  0  0  0
   10.3726   -8.1484   -3.4630 H   0  0  0  0  0  0  0  0  0  0  0  0
   11.2514   -2.2015   -2.5610 H   0  0  0  0  0  0  0  0  0  0  0  0
   11.0562   -1.7816   -0.8521 H   0  0  0  0  0  0  0  0  0  0  0  0
   10.9217   -4.1011   -1.0940 H   0  0  0  0  0  0  0  0  0  0  0  0
    9.3971   -3.6343   -0.5741 H   0  0  0  0  0  0  0  0  0  0  0  0
    1.9584   -0.7087   -6.3202 H   0  0  0  0  0  0  0  0  0  0  0  0
    3.3015    0.2286   -6.0493 H   0  0  0  0  0  0  0  0  0  0  0  0
    3.7334   -3.0944   -8.6159 H   0  0  0  0  0  0  0  0  0  0  0  0
    3.4904   -3.4188   -6.9567 H   0  0  0  0  0  0  0  0  0  0  0  0
    5.5235   -2.2543   -6.0871 H   0  0  0  0  0  0  0  0  0  0  0  0
    5.5435   -2.4584   -4.5382 H   0  0  0  0  0  0  0  0  0  0  0  0
    7.4271    0.5949   -1.4671 H   0  0  0  0  0  0  0  0  0  0  0  0
    6.4550   -0.4647   -0.4605 H   0  0  0  0  0  0  0  0  0  0  0  0
    0.0201    0.9241   -9.4079 H   0  0  0  0  0  0  0  0  0  0  0  0
    8.2295    0.7098   -9.3102 H   0  0  0  0  0  0  0  0  0  0  0  0
    4.1963   -0.1389  -13.3531 H   0  0  0  0  0  0  0  0  0  0  0  0
   13.8821   -5.3702   -5.4263 H   0  0  0  0  0  0  0  0  0  0  0  0
   15.1628   -6.1096   -6.3893 H   0  0  0  0  0  0  0  0  0  0  0  0
   13.6416   -7.7561   -6.9416 H   0  0  0  0  0  0  0  0  0  0  0  0
    2.4492   -0.4386   -8.5741 H   0  0  0  0  0  0  0  0  0  0  0  0
    1.7477   -1.3804   -3.9589 H   0  0  0  0  0  0  0  0  0  0  0  0
  1 76  1  0  0  0  0
  1 77  1  0  0  0  0
  1 78  1  0  0  0  0
  2 79  1  0  0  0  0
  2 80  1  0  0  0  0
  2 81  1  0  0  0  0
  3 82  1  0  0  0  0
  3 83  1  0  0  0  0
  3 84  1  0  0  0  0
  4 85  1  0  0  0  0
  4 86  1  0  0  0  0
  4 87  1  0  0  0  0
  5 88  1  0  0  0  0
  5 89  1  0  0  0  0
  5 90  1  0  0  0  0
  6 91  1  0  0  0  0
  6 92  1  0  0  0  0
  6 93  1  0  0  0  0
  7 94  1  0  0  0  0
  7 95  1  0  0  0  0
  7 96  1  0  0  0  0
  8 97  1  0  0  0  0
  8 98  1  0  0  0  0
  8 99  1  0  0  0  0
  9100  1  0  0  0  0
  9101  1  0  0  0  0
 10  9  1  0  0  0  0
 12  9  1  0  0  0  0
 12102  1  0  0  0  0
 12103  1  0  0  0  0
 13 11  1  0  0  0  0
 13104  1  0  0  0  0
 13105  1  0  0  0  0
 14 10  2  0  0  0  0
 15106  1  0  0  0  0
 15107  1  0  0  0  0
 16 15  1  0  0  0  0
 16108  1  0  0  0  0
 16109  1  0  0  0  0
 17 11  2  0  0  0  0
 18110  1  0  0  0  0
 18111  1  0  0  0  0
 19112  1  0  0  0  0
 19113  1  0  0  0  0
 20114  1  0  0  0  0
 20115  1  0  0  0  0
 21116  1  0  0  0  0
 21117  1  0  0  0  0
 22118  1  0  0  0  0
 23119  1  0  0  0  0
 24120  1  0  0  0  0
 25121  1  0  0  0  0
 25122  1  0  0  0  0
 26 12  1  0  0  0  0
 26 66  1  1  0  0  0
 26  1  1  0  0  0  0
 27  2  1  0  0  0  0
 27 15  1  0  0  0  0
 27 67  1  6  0  0  0
 28 68  1  6  0  0  0
 28 35  1  0  0  0  0
 28  3  1  0  0  0  0
 29 69  1  1  0  0  0
 29  4  1  0  0  0  0
 30 18  1  0  0  0  0
 30 19  1  0  0  0  0
 30 50  1  0  0  0  0
 30 70  1  1  0  0  0
 31 18  1  0  0  0  0
 31 20  1  0  0  0  0
 31 71  1  6  0  0  0
 31 51  1  0  0  0  0
 32 22  2  0  0  0  0
 33 23  2  0  0  0  0
 34 24  2  0  0  0  0
 35 16  1  0  0  0  0
 36 19  1  0  0  0  0
 36 29  1  0  0  0  0
 37 13  1  0  0  0  0
 37 28  1  0  0  0  0
 37 55  1  0  0  0  0
 37 72  1  1  0  0  0
 38 21  1  0  0  0  0
 38 27  1  0  0  0  0
 38 56  1  0  0  0  0
 38 73  1  1  0  0  0
 39 26  1  0  0  0  0
 39 74  1  1  0  0  0
 39 21  1  0  0  0  0
 40 14  1  0  0  0  0
 41 20  1  0  0  0  0
 42 29  1  0  0  0  0
 42 32  1  0  0  0  0
 42 57  1  0  0  0  0
 42 75  1  1  0  0  0
 43 33  1  0  0  0  0
 44 34  1  0  0  0  0
 45 33  1  0  0  0  0
 45 40  2  0  0  0  0
 46 32  1  0  0  0  0
 46 44  2  0  0  0  0
 47 34  1  0  0  0  0
 47 43  2  0  0  0  0
 48  5  1  0  0  0  0
 48 17  1  0  0  0  0
 48 25  1  0  0  0  0
 49 25  1  0  0  0  0
 49123  1  0  0  0  0
 50124  1  0  0  0  0
 51125  1  0  0  0  0
 52 35  2  0  0  0  0
 53 36  2  0  0  0  0
 54 41  2  0  0  0  0
 55  6  1  0  0  0  0
 56  7  1  0  0  0  0
 57  8  1  0  0  0  0
 58 23  1  0  0  0  0
 58 40  1  0  0  0  0
 59 22  1  0  0  0  0
 59 44  1  0  0  0  0
 60 24  1  0  0  0  0
 60 43  1  0  0  0  0
 61 39  1  0  0  0  0
 61 41  1  0  0  0  0
 62 10  1  0  0  0  0
 63 11  1  0  0  0  0
 64 14  1  0  0  0  0
 65 17  1  0  0  0  0
M  END
>  <DRUGBANK_ID>
DB03850

>  <SECONDARY_ACCESSION_NUMBERS>
EXPT01955

>  <COMMON_NAME>
Jaspisamide A

$$$$
