9913
 OpenBabel10282417173D

 43 44  0  0  1  0  0  0  0  0999 V2000
    0.7357   -0.2779    0.0462 O   0  0  0  0  0  0  0  0  0  0  0  0
    1.7872   -2.6227    4.5352 O   0  0  0  0  0  0  0  0  0  0  0  0
    6.3561   -3.1402    5.0775 O   0  0  0  0  0  0  0  0  0  0  0  0
    3.1197    3.9750   -0.3462 O   0  0  0  0  0  0  0  0  0  0  0  0
    2.4904   -0.6422    2.3831 N   0  0  0  0  0  0  0  0  0  0  0  0
    0.4034    2.7405    0.5563 N   0  0  0  0  0  0  0  0  0  0  0  0
    5.6261   -1.6637    3.4992 N   0  0  0  0  0  0  0  0  0  0  0  0
    4.0766   -2.8959    4.8293 N   0  0  0  0  0  0  0  0  0  0  0  0
    4.6301   -0.1914    1.8843 N   0  0  0  0  0  0  0  0  0  0  0  0
    0.3966    0.2813    1.3228 C   0  0  3  0  0  0  0  0  0  0  0  0
    1.0275   -0.6215    2.3809 C   0  0  0  0  0  0  0  0  0  0  0  0
    0.7864    1.7628    1.5763 C   0  0  0  0  0  0  0  0  0  0  0  0
    3.2668   -1.4017    3.2139 C   0  0  0  0  0  0  0  0  0  0  0  0
    4.5506   -1.0945    2.8810 C   0  0  0  0  0  0  0  0  0  0  0  0
    3.3780    0.0417    1.5824 C   0  0  0  0  0  0  0  0  0  0  0  0
    0.9751    4.0708    0.8751 C   0  0  0  0  0  0  0  0  0  0  0  0
    2.9368   -2.3420    4.2296 C   0  0  0  0  0  0  0  0  0  0  0  0
    5.4105   -2.5974    4.5006 C   0  0  0  0  0  0  0  0  0  0  0  0
    0.7272    2.3219   -0.8059 C   0  0  0  0  0  0  0  0  0  0  0  0
    2.5163    4.1945    0.9222 C   0  0  0  0  0  0  0  0  0  0  0  0
    6.9730   -1.3013    3.1056 C   0  0  0  0  0  0  0  0  0  0  0  0
    3.8547   -3.8614    5.8817 C   0  0  0  0  0  0  0  0  0  0  0  0
    1.6796   -0.1744   -0.1444 H   0  0  0  0  0  0  0  0  0  0  0  0
    3.2502    3.0184   -0.4432 H   0  0  0  0  0  0  0  0  0  0  0  0
   -0.6957    0.2254    1.3769 H   0  0  0  0  0  0  0  0  0  0  0  0
    0.6957   -0.3224    3.3823 H   0  0  0  0  0  0  0  0  0  0  0  0
    0.7061   -1.6530    2.1925 H   0  0  0  0  0  0  0  0  0  0  0  0
    0.3763    2.0638    2.5520 H   0  0  0  0  0  0  0  0  0  0  0  0
    1.8550    1.8470    1.7269 H   0  0  0  0  0  0  0  0  0  0  0  0
    3.1159    0.7235    0.7875 H   0  0  0  0  0  0  0  0  0  0  0  0
    0.5788    4.7901    0.1493 H   0  0  0  0  0  0  0  0  0  0  0  0
    0.5799    4.3835    1.8517 H   0  0  0  0  0  0  0  0  0  0  0  0
    1.7601    1.9791   -0.9044 H   0  0  0  0  0  0  0  0  0  0  0  0
    0.0929    1.4962   -1.1355 H   0  0  0  0  0  0  0  0  0  0  0  0
    0.5480    3.1217   -1.5274 H   0  0  0  0  0  0  0  0  0  0  0  0
    2.7889    5.2057    1.2315 H   0  0  0  0  0  0  0  0  0  0  0  0
    2.9710    3.5173    1.6524 H   0  0  0  0  0  0  0  0  0  0  0  0
    7.1174   -1.5409    2.0474 H   0  0  0  0  0  0  0  0  0  0  0  0
    7.1187   -0.2286    3.2677 H   0  0  0  0  0  0  0  0  0  0  0  0
    7.7165   -1.8458    3.6907 H   0  0  0  0  0  0  0  0  0  0  0  0
    3.2816   -3.3867    6.6831 H   0  0  0  0  0  0  0  0  0  0  0  0
    3.2809   -4.7011    5.4798 H   0  0  0  0  0  0  0  0  0  0  0  0
    4.7902   -4.2420    6.2982 H   0  0  0  0  0  0  0  0  0  0  0  0
  1 10  1  0  0  0  0
  1 23  1  0  0  0  0
  2 17  2  0  0  0  0
  3 18  2  0  0  0  0
  4 20  1  0  0  0  0
  4 24  1  0  0  0  0
  5 11  1  0  0  0  0
  5 13  1  0  0  0  0
  5 15  1  0  0  0  0
  6 12  1  0  0  0  0
  6 16  1  0  0  0  0
  6 19  1  0  0  0  0
  7 14  1  0  0  0  0
  7 18  1  0  0  0  0
  7 21  1  0  0  0  0
  8 17  1  0  0  0  0
  8 18  1  0  0  0  0
  8 22  1  0  0  0  0
  9 14  1  0  0  0  0
  9 15  2  0  0  0  0
 10 11  1  0  0  0  0
 10 12  1  0  0  0  0
 10 25  1  0  0  0  0
 11 26  1  0  0  0  0
 11 27  1  0  0  0  0
 12 28  1  0  0  0  0
 12 29  1  0  0  0  0
 13 14  2  0  0  0  0
 13 17  1  0  0  0  0
 15 30  1  0  0  0  0
 16 20  1  0  0  0  0
 16 31  1  0  0  0  0
 16 32  1  0  0  0  0
 19 33  1  0  0  0  0
 19 34  1  0  0  0  0
 19 35  1  0  0  0  0
 20 36  1  0  0  0  0
 20 37  1  0  0  0  0
 21 38  1  0  0  0  0
 21 39  1  0  0  0  0
 21 40  1  0  0  0  0
 22 41  1  0  0  0  0
 22 42  1  0  0  0  0
 22 43  1  0  0  0  0
M  END
>  <DRUGBANK_ID>
DB09092

>  <COMMON_NAME>
Xanthinol

>  <CAS_NUMBER>
2530-97-4

>  <UNII>
TN1B5910V2

>  <SYNONYMS>
Xantinol

$$$$
