1628
 OpenBabel10282417123D

 39 41  0  0  0  0  0  0  0  0999 V2000
    2.1113    0.0154   -0.0009 Cl  0  0  0  0  0  0  0  0  0  0  0  0
   -4.9766   -6.3558    0.0045 S   0  0  0  0  0  0  0  0  0  0  0  0
   -6.3619   -5.9863    0.2329 O   0  0  0  0  0  0  0  0  0  0  0  0
   -4.5688   -7.0356   -1.2083 O   0  0  0  0  0  0  0  0  0  0  0  0
   -1.7086    1.1537   -0.0067 N   0  0  0  0  0  0  0  0  0  0  0  0
   -5.9550    0.6428   -0.8863 N   0  0  0  0  0  0  0  0  0  0  0  0
   -2.4044   -2.5637   -0.0669 C   0  0  0  0  0  0  0  0  0  0  0  0
   -1.6756   -1.2832   -0.0433 C   0  0  0  0  0  0  0  0  0  0  0  0
   -4.0274   -4.8532    0.0668 C   0  0  0  0  0  0  0  0  0  0  0  0
   -2.3552   -0.0428    0.0039 C   0  0  0  0  0  0  0  0  0  0  0  0
   -2.2672   -3.4802    0.9868 C   0  0  0  0  0  0  0  0  0  0  0  0
   -3.3557   -2.8325   -1.0674 C   0  0  0  0  0  0  0  0  0  0  0  0
   -3.0697   -4.6228    1.0550 C   0  0  0  0  0  0  0  0  0  0  0  0
   -4.2028   -3.9371   -0.9728 C   0  0  0  0  0  0  0  0  0  0  0  0
   -3.8198    0.0426    0.1153 C   0  0  0  0  0  0  0  0  0  0  0  0
   -0.2725   -1.2547   -0.0366 C   0  0  0  0  0  0  0  0  0  0  0  0
   -4.4576   -7.3616    1.3682 C   0  0  0  0  0  0  0  0  0  0  0  0
   -4.5167   -0.5526    1.1767 C   0  0  0  0  0  0  0  0  0  0  0  0
    0.3961   -0.0363   -0.0188 C   0  0  0  0  0  0  0  0  0  0  0  0
   -4.5968    0.6278   -0.8783 C   0  0  0  0  0  0  0  0  0  0  0  0
   -0.3532    1.1280   -0.0174 C   0  0  0  0  0  0  0  0  0  0  0  0
   -5.9089   -0.5632    1.1932 C   0  0  0  0  0  0  0  0  0  0  0  0
   -6.5924    0.0515    0.1525 C   0  0  0  0  0  0  0  0  0  0  0  0
   -8.0901    0.1041    0.1512 C   0  0  0  0  0  0  0  0  0  0  0  0
   -1.5486   -3.2906    1.7824 H   0  0  0  0  0  0  0  0  0  0  0  0
   -3.4753   -2.1521   -1.9106 H   0  0  0  0  0  0  0  0  0  0  0  0
   -2.9285   -5.2956    1.8928 H   0  0  0  0  0  0  0  0  0  0  0  0
   -4.9959   -4.0702   -1.7071 H   0  0  0  0  0  0  0  0  0  0  0  0
    0.2936   -2.1829   -0.0484 H   0  0  0  0  0  0  0  0  0  0  0  0
   -3.3906   -7.5756    1.2761 H   0  0  0  0  0  0  0  0  0  0  0  0
   -4.6785   -6.8462    2.3045 H   0  0  0  0  0  0  0  0  0  0  0  0
   -5.0157   -8.3001    1.3317 H   0  0  0  0  0  0  0  0  0  0  0  0
   -3.9775   -1.0456    1.9819 H   0  0  0  0  0  0  0  0  0  0  0  0
   -4.1352    1.0872   -1.7491 H   0  0  0  0  0  0  0  0  0  0  0  0
    0.1250    2.1040   -0.0184 H   0  0  0  0  0  0  0  0  0  0  0  0
   -6.4403   -1.0502    2.0042 H   0  0  0  0  0  0  0  0  0  0  0  0
   -8.4203    1.1474    0.1566 H   0  0  0  0  0  0  0  0  0  0  0  0
   -8.4844   -0.3928   -0.7399 H   0  0  0  0  0  0  0  0  0  0  0  0
   -8.5126   -0.3887    1.0332 H   0  0  0  0  0  0  0  0  0  0  0  0
  1 19  1  0  0  0  0
  2  3  2  0  0  0  0
  2  4  2  0  0  0  0
  2  9  1  0  0  0  0
  2 17  1  0  0  0  0
  5 10  1  0  0  0  0
  5 21  2  0  0  0  0
  6 20  1  0  0  0  0
  6 23  2  0  0  0  0
  7  8  1  0  0  0  0
  7 11  2  0  0  0  0
  7 12  1  0  0  0  0
  8 10  2  0  0  0  0
  8 16  1  0  0  0  0
  9 13  2  0  0  0  0
  9 14  1  0  0  0  0
 10 15  1  0  0  0  0
 11 13  1  0  0  0  0
 11 25  1  0  0  0  0
 12 14  2  0  0  0  0
 12 26  1  0  0  0  0
 13 27  1  0  0  0  0
 14 28  1  0  0  0  0
 15 18  1  0  0  0  0
 15 20  2  0  0  0  0
 16 19  2  0  0  0  0
 16 29  1  0  0  0  0
 17 30  1  0  0  0  0
 17 31  1  0  0  0  0
 17 32  1  0  0  0  0
 18 22  2  0  0  0  0
 18 33  1  0  0  0  0
 19 21  1  0  0  0  0
 20 34  1  0  0  0  0
 21 35  1  0  0  0  0
 22 23  1  0  0  0  0
 22 36  1  0  0  0  0
 23 24  1  0  0  0  0
 24 37  1  0  0  0  0
 24 38  1  0  0  0  0
 24 39  1  0  0  0  0
M  END
>  <DRUGBANK_ID>
DB01628

>  <SECONDARY_ACCESSION_NUMBERS>
DB07166

>  <COMMON_NAME>
Etoricoxib

>  <CAS_NUMBER>
202409-33-4

>  <UNII>
WRX4NFY03R

>  <SYNONYMS>
5-chloro-2-(6-methylpyridin-3-yl)-3-(4-(methylsulfonyl)phenyl)pyridine; 5-Chloro-3-(4-methanesulfonyl-phenyl)-6'-methyl-[2,3']bipyridinyl; 5-chloro-6'-methyl-3-(p-(methylsulfonyl)phenyl)-2,3'-bipyridine; Ã©toricoxib; Etoricoxib; Etoricoxibum

$$$$
