
 OpenBabel10282417203D

 51 52  0  0  0  0  0  0  0  0999 V2000
    1.4767   -0.1560    0.0272 C   0  0  0  0  0  0  0  0  0  0  0  0
    0.6217   -1.2966   -0.0173 C   0  0  0  0  0  0  0  0  0  0  0  0
    0.8932    1.1301    0.0161 C   0  0  0  0  0  0  0  0  0  0  0  0
    2.9605   -0.2598    0.1881 C   0  0  0  0  0  0  0  0  0  0  0  0
   -0.7914   -1.1121   -0.0134 C   0  0  0  0  0  0  0  0  0  0  0  0
    0.9525   -2.6187   -0.0937 O   0  0  0  0  0  0  0  0  0  0  0  0
   -0.4989    1.2844    0.0767 C   0  0  0  0  0  0  0  0  0  0  0  0
    3.8094    0.7991    0.2868 N   0  0  0  0  0  0  0  0  0  0  0  0
    3.5499   -1.3302    0.2983 O   0  0  0  0  0  0  0  0  0  0  0  0
   -1.3400    0.1761    0.0153 C   0  0  0  0  0  0  0  0  0  0  0  0
   -1.7575   -2.1035   -0.0012 O   0  0  0  0  0  0  0  0  0  0  0  0
    2.2502   -3.1441   -0.0877 C   0  0  0  0  0  0  0  0  0  0  0  0
   -1.1966    2.8941    0.3628 S   0  0  0  0  0  0  0  0  0  0  0  0
    5.2309    0.4380    0.4006 C   0  0  0  0  0  0  0  0  0  0  0  0
   -1.3350   -3.4654    0.0930 C   0  0  0  0  0  0  0  0  0  0  0  0
   -0.5096    3.3403    1.8435 N   0  0  0  0  0  0  0  0  0  0  0  0
   -0.6862    3.8012   -0.6332 O   0  0  0  0  0  0  0  0  0  0  0  0
   -2.6086    2.7569    0.6427 O   0  0  0  0  0  0  0  0  0  0  0  0
    5.9968    1.0065   -0.7792 C   0  0  3  0  0  0  0  0  0  0  0  0
    6.1548    2.4696   -0.6702 N   0  0  0  0  0  0  0  0  0  0  0  0
    7.3987    0.4515   -1.0193 C   0  0  0  0  0  0  0  0  0  0  0  0
    7.2464    2.8112   -1.5911 C   0  0  0  0  0  0  0  0  0  0  0  0
    6.4122    2.9434    0.7061 C   0  0  0  0  0  0  0  0  0  0  0  0
    8.0079    1.5221   -1.9083 C   0  0  0  0  0  0  0  0  0  0  0  0
    7.6171    2.3359    1.3785 C   0  0  0  0  0  0  0  0  0  0  0  0
    8.7276    3.0091    1.6841 C   0  0  0  0  0  0  0  0  0  0  0  0
    1.5038    2.0269   -0.0260 H   0  0  0  0  0  0  0  0  0  0  0  0
    3.5455    1.7681    0.1704 H   0  0  0  0  0  0  0  0  0  0  0  0
   -2.4230    0.3010   -0.0007 H   0  0  0  0  0  0  0  0  0  0  0  0
    2.7894   -2.7509   -0.9575 H   0  0  0  0  0  0  0  0  0  0  0  0
    2.6687   -2.9943    0.9149 H   0  0  0  0  0  0  0  0  0  0  0  0
    2.2615   -4.2241   -0.2148 H   0  0  0  0  0  0  0  0  0  0  0  0
    5.5335    0.7472    1.4006 H   0  0  0  0  0  0  0  0  0  0  0  0
    5.4427   -0.6375    0.4242 H   0  0  0  0  0  0  0  0  0  0  0  0
   -0.7954   -3.7634   -0.8144 H   0  0  0  0  0  0  0  0  0  0  0  0
   -0.7512   -3.6378    1.0073 H   0  0  0  0  0  0  0  0  0  0  0  0
   -2.2054   -4.1212    0.1540 H   0  0  0  0  0  0  0  0  0  0  0  0
   -0.7794    4.3087    2.0429 H   0  0  0  0  0  0  0  0  0  0  0  0
   -0.8252    2.7329    2.6017 H   0  0  0  0  0  0  0  0  0  0  0  0
    5.4209    0.7764   -1.6913 H   0  0  0  0  0  0  0  0  0  0  0  0
    7.9958    0.3336   -0.1141 H   0  0  0  0  0  0  0  0  0  0  0  0
    7.3996   -0.5374   -1.4895 H   0  0  0  0  0  0  0  0  0  0  0  0
    7.9066    3.5802   -1.1790 H   0  0  0  0  0  0  0  0  0  0  0  0
    6.8272    3.2284   -2.5141 H   0  0  0  0  0  0  0  0  0  0  0  0
    6.4828    4.0338    0.6917 H   0  0  0  0  0  0  0  0  0  0  0  0
    5.5307    2.7614    1.3354 H   0  0  0  0  0  0  0  0  0  0  0  0
    9.0811    1.6347   -1.7295 H   0  0  0  0  0  0  0  0  0  0  0  0
    7.8590    1.2477   -2.9584 H   0  0  0  0  0  0  0  0  0  0  0  0
    7.6134    1.2697    1.5954 H   0  0  0  0  0  0  0  0  0  0  0  0
    9.5958    2.4827    2.0656 H   0  0  0  0  0  0  0  0  0  0  0  0
    8.7814    4.0771    1.5221 H   0  0  0  0  0  0  0  0  0  0  0  0
  1  2  2  0  0  0  0
  1  3  1  0  0  0  0
  1  4  1  0  0  0  0
  2  5  1  0  0  0  0
  2  6  1  0  0  0  0
  3  7  2  0  0  0  0
  3 27  1  0  0  0  0
  4  8  1  0  0  0  0
  4  9  2  0  0  0  0
  5 10  2  0  0  0  0
  5 11  1  0  0  0  0
  6 12  1  0  0  0  0
  7 13  1  0  0  0  0
  7 10  1  0  0  0  0
  8 14  1  0  0  0  0
  8 28  1  0  0  0  0
 10 29  1  0  0  0  0
 11 15  1  0  0  0  0
 12 30  1  0  0  0  0
 12 31  1  0  0  0  0
 12 32  1  0  0  0  0
 13 16  1  0  0  0  0
 13 17  2  0  0  0  0
 13 18  2  0  0  0  0
 14 19  1  0  0  0  0
 14 33  1  0  0  0  0
 14 34  1  0  0  0  0
 15 35  1  0  0  0  0
 15 36  1  0  0  0  0
 15 37  1  0  0  0  0
 16 38  1  0  0  0  0
 16 39  1  0  0  0  0
 19 20  1  0  0  0  0
 19 21  1  0  0  0  0
 19 40  1  0  0  0  0
 20 22  1  0  0  0  0
 20 23  1  0  0  0  0
 21 24  1  0  0  0  0
 21 41  1  0  0  0  0
 21 42  1  0  0  0  0
 22 24  1  0  0  0  0
 22 43  1  0  0  0  0
 22 44  1  0  0  0  0
 23 25  1  0  0  0  0
 23 45  1  0  0  0  0
 23 46  1  0  0  0  0
 24 47  1  0  0  0  0
 24 48  1  0  0  0  0
 25 26  2  0  0  0  0
 25 49  1  0  0  0  0
 26 50  1  0  0  0  0
 26 51  1  0  0  0  0
M  END
>  <DRUGBANK_ID>
DB13523

>  <COMMON_NAME>
Veralipride

>  <CAS_NUMBER>
66644-81-3

>  <UNII>
S7064109UD

>  <SYNONYMS>
Veraliprida; Veralipride; Veralipridum

$$$$
