
 OpenBabel10282417223D

 64 69  0  0  0  0  0  0  0  0999 V2000
   -4.1883  -16.8840   -7.7749 C   0  0  0  0  0  0  0  0  0  0  0  0
   -5.0227  -16.2334   -8.5366 N   0  0  0  0  0  0  0  0  0  0  0  0
   -5.1021  -14.9287   -8.2448 N   0  0  0  0  0  0  0  0  0  0  0  0
   -4.4151  -14.3252   -7.2353 C   0  0  0  0  0  0  0  0  0  0  0  0
   -3.5492  -15.1249   -6.4044 C   0  0  0  0  0  0  0  0  0  0  0  0
   -3.4226  -16.3850   -6.7450 N   0  0  0  0  0  0  0  0  0  0  0  0
   -5.8899  -14.0025   -8.8867 C   0  0  0  0  0  0  0  0  0  0  0  0
   -4.7351  -12.9777   -7.2530 C   0  0  0  0  0  0  0  0  0  0  0  0
   -5.6757  -12.7766   -8.2937 C   0  0  0  0  0  0  0  0  0  0  0  0
   -6.2659  -11.4905   -8.6346 C   0  0  0  0  0  0  0  0  0  0  0  0
   -5.6313  -10.3158   -8.9694 C   0  0  0  0  0  0  0  0  0  0  0  0
   -6.6215   -9.3931   -9.1653 N   0  0  0  0  0  0  0  0  0  0  0  0
   -7.8602   -9.8956   -8.9934 N   0  0  0  0  0  0  0  0  0  0  0  0
   -7.6388  -11.1763   -8.6700 C   0  0  0  0  0  0  0  0  0  0  0  0
   -6.4600   -7.9896   -9.4670 C   0  0  0  0  0  0  0  0  0  0  0  0
   -2.9666  -14.6387   -5.2426 N   0  0  0  0  0  0  0  0  0  0  0  0
   -1.5178  -14.5855   -4.9409 C   0  0  0  0  0  0  0  0  0  0  0  0
   -1.2429  -14.9444   -3.4522 C   0  0  0  0  0  0  0  0  0  0  0  0
   -2.1311  -14.2084   -2.5561 N   0  0  0  0  0  0  0  0  0  0  0  0
   -3.5496  -14.2696   -2.8558 C   0  0  0  0  0  0  0  0  0  0  0  0
   -3.7665  -13.8169   -4.3161 C   0  0  0  0  0  0  0  0  0  0  0  0
   -1.6337  -13.4838   -1.5131 C   0  0  0  0  0  0  0  0  0  0  0  0
   -2.1210  -13.6867   -0.2803 N   0  0  0  0  0  0  0  0  0  0  0  0
   -1.5267  -13.0329    0.7497 C   0  0  0  0  0  0  0  0  0  0  0  0
   -0.4957  -12.1270    0.6032 C   0  0  0  0  0  0  0  0  0  0  0  0
   -0.1220  -11.9497   -0.7221 C   0  0  0  0  0  0  0  0  0  0  0  0
   -0.6481  -12.6164   -1.7709 N   0  0  0  0  0  0  0  0  0  0  0  0
    0.0109  -11.1818    1.7051 C   0  0  2  0  0  0  0  0  0  0  0  0
   -0.5695   -9.7465    1.5121 C   0  0  0  0  0  0  0  0  0  0  0  0
   -1.5638   -9.5624    0.5246 C   0  0  0  0  0  0  0  0  0  0  0  0
   -2.4013   -8.4663    0.4826 C   0  0  0  0  0  0  0  0  0  0  0  0
   -2.2430   -7.4812    1.4258 C   0  0  0  0  0  0  0  0  0  0  0  0
   -1.2080   -7.5486    2.3568 C   0  0  0  0  0  0  0  0  0  0  0  0
   -0.3521   -8.6688    2.3952 C   0  0  0  0  0  0  0  0  0  0  0  0
   -3.1225   -6.4736    1.4526 F   0  0  0  0  0  0  0  0  0  0  0  0
    1.4816  -11.2245    1.7210 N   0  0  0  0  0  0  0  0  0  0  0  0
   -0.4419  -11.6377    3.1173 C   0  0  0  0  0  0  0  0  0  0  0  0
   -4.1075  -17.9710   -7.9582 H   0  0  0  0  0  0  0  0  0  0  0  0
   -6.5093  -14.2989   -9.7209 H   0  0  0  0  0  0  0  0  0  0  0  0
   -4.3479  -12.2301   -6.5778 H   0  0  0  0  0  0  0  0  0  0  0  0
   -4.5873  -10.0651   -9.0865 H   0  0  0  0  0  0  0  0  0  0  0  0
   -8.4883  -11.8116   -8.4565 H   0  0  0  0  0  0  0  0  0  0  0  0
   -7.0280   -7.7510  -10.3702 H   0  0  0  0  0  0  0  0  0  0  0  0
   -6.8365   -7.4115   -8.6185 H   0  0  0  0  0  0  0  0  0  0  0  0
   -5.4015   -7.7680   -9.6249 H   0  0  0  0  0  0  0  0  0  0  0  0
   -0.9247  -15.2344   -5.5946 H   0  0  0  0  0  0  0  0  0  0  0  0
   -1.1714  -13.5555   -5.1069 H   0  0  0  0  0  0  0  0  0  0  0  0
   -1.4464  -16.0125   -3.3070 H   0  0  0  0  0  0  0  0  0  0  0  0
   -0.1861  -14.7894   -3.2008 H   0  0  0  0  0  0  0  0  0  0  0  0
   -3.8909  -15.3062   -2.7465 H   0  0  0  0  0  0  0  0  0  0  0  0
   -4.1568  -13.6403   -2.1966 H   0  0  0  0  0  0  0  0  0  0  0  0
   -3.4669  -12.7690   -4.4366 H   0  0  0  0  0  0  0  0  0  0  0  0
   -4.8316  -13.9028   -4.5502 H   0  0  0  0  0  0  0  0  0  0  0  0
   -1.9758  -13.2455    1.7162 H   0  0  0  0  0  0  0  0  0  0  0  0
    0.5455  -11.1381   -1.0088 H   0  0  0  0  0  0  0  0  0  0  0  0
   -1.8007  -10.3160   -0.2148 H   0  0  0  0  0  0  0  0  0  0  0  0
   -3.1992   -8.4471   -0.2498 H   0  0  0  0  0  0  0  0  0  0  0  0
   -1.1154   -6.7424    3.0788 H   0  0  0  0  0  0  0  0  0  0  0  0
    0.4189   -8.7048    3.1655 H   0  0  0  0  0  0  0  0  0  0  0  0
    1.7678  -12.2040    1.8075 H   0  0  0  0  0  0  0  0  0  0  0  0
    1.8528  -10.9202    0.8240 H   0  0  0  0  0  0  0  0  0  0  0  0
    0.0413  -11.0614    3.9183 H   0  0  0  0  0  0  0  0  0  0  0  0
   -1.5232  -11.4952    3.2467 H   0  0  0  0  0  0  0  0  0  0  0  0
   -0.2201  -12.6947    3.3035 H   0  0  0  0  0  0  0  0  0  0  0  0
  1  6  1  0  0  0  0
  1 38  1  0  0  0  0
  2  1  2  0  0  0  0
  3  2  1  0  0  0  0
  3  7  1  0  0  0  0
  4  3  1  0  0  0  0
  4  8  2  0  0  0  0
  5  4  1  0  0  0  0
  5 16  1  0  0  0  0
  6  5  2  0  0  0  0
  7 39  1  0  0  0  0
  8  9  1  0  0  0  0
  8 40  1  0  0  0  0
  9  7  2  0  0  0  0
  9 10  1  0  0  0  0
 11 10  2  0  0  0  0
 11 12  1  0  0  0  0
 11 41  1  0  0  0  0
 12 13  1  0  0  0  0
 12 15  1  0  0  0  0
 13 14  2  0  0  0  0
 14 10  1  0  0  0  0
 14 42  1  0  0  0  0
 15 43  1  0  0  0  0
 15 44  1  0  0  0  0
 15 45  1  0  0  0  0
 16 21  1  0  0  0  0
 17 16  1  0  0  0  0
 17 46  1  0  0  0  0
 17 47  1  0  0  0  0
 18 17  1  0  0  0  0
 18 48  1  0  0  0  0
 18 49  1  0  0  0  0
 19 18  1  0  0  0  0
 19 22  1  0  0  0  0
 20 19  1  0  0  0  0
 20 50  1  0  0  0  0
 20 51  1  0  0  0  0
 21 20  1  0  0  0  0
 21 52  1  0  0  0  0
 21 53  1  0  0  0  0
 22 27  1  0  0  0  0
 23 22  2  0  0  0  0
 24 23  1  0  0  0  0
 24 54  1  0  0  0  0
 25 24  2  0  0  0  0
 26 25  1  0  0  0  0
 26 55  1  0  0  0  0
 27 26  2  0  0  0  0
 28 36  1  6  0  0  0
 28 37  1  0  0  0  0
 28 29  1  0  0  0  0
 28 25  1  0  0  0  0
 29 34  1  0  0  0  0
 30 29  2  0  0  0  0
 30 56  1  0  0  0  0
 31 30  1  0  0  0  0
 31 57  1  0  0  0  0
 32 31  2  0  0  0  0
 32 35  1  0  0  0  0
 33 32  1  0  0  0  0
 33 58  1  0  0  0  0
 34 33  2  0  0  0  0
 34 59  1  0  0  0  0
 36 60  1  0  0  0  0
 36 61  1  0  0  0  0
 37 62  1  0  0  0  0
 37 63  1  0  0  0  0
 37 64  1  0  0  0  0
M  END
>  <DRUGBANK_ID>
DB15233

>  <COMMON_NAME>
Avapritinib

>  <CAS_NUMBER>
1703793-34-3

>  <UNII>
513P80B4YJ

>  <SYNONYMS>
Avapritinib

$$$$
