
 OpenBabel10282417113D

 38 38  0  0  0  0  0  0  0  0999 V2000
    0.6925    0.5698   -0.6171 C   0  0  0  0  0  0  0  0  0  0  0  0
    0.3841   -0.0162   -1.9501 C   0  0  0  0  0  0  0  0  0  0  0  0
    1.0035   -1.4112   -2.1028 C   0  0  0  0  0  0  0  0  0  0  0  0
    0.2433   -2.6660   -0.9946 S   0  0  0  0  0  0  0  0  0  0  0  0
    1.1402   -2.7104    0.5862 C   0  0  0  0  0  0  0  0  0  0  0  0
    1.3882   -1.5100    1.2710 C   0  0  0  0  0  0  0  0  0  0  0  0
    1.5127   -1.3108    2.6371 C   0  0  0  0  0  0  0  0  0  0  0  0
    1.7469   -2.4411    3.3622 C   0  0  0  0  0  0  0  0  0  0  0  0
    1.7199   -3.7055    2.6918 C   0  0  0  0  0  0  0  0  0  0  0  0
    1.3807   -3.8536    1.3204 C   0  0  0  0  0  0  0  0  0  0  0  0
    1.3981   -5.1581    0.8875 O   0  0  0  0  0  0  0  0  0  0  0  0
    1.3907   -5.3993   -0.5174 C   0  0  0  0  0  0  0  0  0  0  0  0
    2.1763   -2.3056    4.8050 C   0  0  0  0  0  0  0  0  0  0  0  0
    1.1677   -2.8844    5.7893 C   0  0  0  0  0  0  0  0  0  0  0  0
    0.9860   -4.3235    5.6146 N   0  0  0  0  0  0  0  0  0  0  0  0
    1.5579   -0.0695    3.2229 O   0  0  0  0  0  0  0  0  0  0  0  0
    1.1899    1.0736    2.4431 C   0  0  0  0  0  0  0  0  0  0  0  0
    0.0985   -0.0027    0.1014 H   0  0  0  0  0  0  0  0  0  0  0  0
    0.4221    1.6014   -0.4271 H   0  0  0  0  0  0  0  0  0  0  0  0
    1.7825    0.5130   -0.4999 H   0  0  0  0  0  0  0  0  0  0  0  0
   -0.7032   -0.0612   -2.0572 H   0  0  0  0  0  0  0  0  0  0  0  0
    0.7873    0.6681   -2.6988 H   0  0  0  0  0  0  0  0  0  0  0  0
    0.7745   -1.7350   -3.1269 H   0  0  0  0  0  0  0  0  0  0  0  0
    2.0954   -1.4213   -2.0123 H   0  0  0  0  0  0  0  0  0  0  0  0
    1.7992   -0.7124    0.7262 H   0  0  0  0  0  0  0  0  0  0  0  0
    1.9747   -4.6066    3.2388 H   0  0  0  0  0  0  0  0  0  0  0  0
    0.3753   -5.2884   -0.9087 H   0  0  0  0  0  0  0  0  0  0  0  0
    2.1175   -4.7766   -1.0549 H   0  0  0  0  0  0  0  0  0  0  0  0
    1.6669   -6.4401   -0.7044 H   0  0  0  0  0  0  0  0  0  0  0  0
    3.1751   -2.7417    4.9144 H   0  0  0  0  0  0  0  0  0  0  0  0
    2.3080   -1.2451    5.0673 H   0  0  0  0  0  0  0  0  0  0  0  0
    1.5198   -2.6885    6.8066 H   0  0  0  0  0  0  0  0  0  0  0  0
    0.2009   -2.3816    5.6676 H   0  0  0  0  0  0  0  0  0  0  0  0
    0.3281   -4.6746    6.3030 H   0  0  0  0  0  0  0  0  0  0  0  0
    0.5217   -4.4685    4.7157 H   0  0  0  0  0  0  0  0  0  0  0  0
    1.9250    1.2548    1.6525 H   0  0  0  0  0  0  0  0  0  0  0  0
    0.1728    0.9868    2.0425 H   0  0  0  0  0  0  0  0  0  0  0  0
    1.2018    1.9713    3.0705 H   0  0  0  0  0  0  0  0  0  0  0  0
  1  2  1  0  0  0  0
  1 18  1  0  0  0  0
  1 19  1  0  0  0  0
  1 20  1  0  0  0  0
  2  3  1  0  0  0  0
  2 21  1  0  0  0  0
  2 22  1  0  0  0  0
  3  4  1  0  0  0  0
  3 23  1  0  0  0  0
  3 24  1  0  0  0  0
  4  5  1  0  0  0  0
  5  6  2  0  0  0  0
  5 10  1  0  0  0  0
  6  7  1  0  0  0  0
  6 25  1  0  0  0  0
  7  8  2  0  0  0  0
  7 16  1  0  0  0  0
  8  9  1  0  0  0  0
  8 13  1  0  0  0  0
  9 10  2  0  0  0  0
  9 26  1  0  0  0  0
 10 11  1  0  0  0  0
 11 12  1  0  0  0  0
 12 27  1  0  0  0  0
 12 28  1  0  0  0  0
 12 29  1  0  0  0  0
 13 14  1  0  0  0  0
 13 30  1  0  0  0  0
 13 31  1  0  0  0  0
 14 15  1  0  0  0  0
 14 32  1  0  0  0  0
 14 33  1  0  0  0  0
 15 34  1  0  0  0  0
 15 35  1  0  0  0  0
 16 17  1  0  0  0  0
 17 36  1  0  0  0  0
 17 37  1  0  0  0  0
 17 38  1  0  0  0  0
M  END
>  <DRUGBANK_ID>
DB01458

>  <COMMON_NAME>
2,5-Dimethoxy-4-(n)-propylthiophenethylamine

>  <CAS_NUMBER>
207740-26-9

>  <UNII>
TJG366J9BA

>  <SYNONYMS>
2,5-dimethoxy-4-propylthiophenethylamine

$$$$
