1467
 OpenBabel10282417113D

 37 37  0  0  1  0  0  0  0  0999 V2000
    0.8702   -0.0542   -0.0059 O   0  0  0  0  0  0  0  0  0  0  0  0
   -1.7306    1.1770    4.7430 O   0  0  0  0  0  0  0  0  0  0  0  0
    0.8737    4.3510    2.6729 N   0  0  0  0  0  0  0  0  0  0  0  0
    1.7946    2.1955    1.7807 C   0  0  0  0  0  0  0  0  0  0  0  0
    0.6662    1.2418    2.0529 C   0  0  0  0  0  0  0  0  0  0  0  0
    1.4631    3.6704    1.5235 C   0  0  3  0  0  0  0  0  0  0  0  0
   -1.5984   -0.3742    2.7590 C   0  0  0  0  0  0  0  0  0  0  0  0
    0.3050    0.1880    1.2270 C   0  0  0  0  0  0  0  0  0  0  0  0
   -0.0592    1.4297    3.2431 C   0  0  0  0  0  0  0  0  0  0  0  0
   -1.1799    0.6647    3.5947 C   0  0  0  0  0  0  0  0  0  0  0  0
   -0.8272   -0.5934    1.5698 C   0  0  0  0  0  0  0  0  0  0  0  0
   -2.8713   -1.2045    2.9245 C   0  0  0  0  0  0  0  0  0  0  0  0
    2.7679    4.3672    1.1263 C   0  0  0  0  0  0  0  0  0  0  0  0
   -2.9321   -2.2475    4.0501 C   0  0  0  0  0  0  0  0  0  0  0  0
    2.2760   -0.3245   -0.0499 C   0  0  0  0  0  0  0  0  0  0  0  0
   -2.4395    0.2739    5.5489 C   0  0  0  0  0  0  0  0  0  0  0  0
    0.6990    5.3254    2.4382 H   0  0  0  0  0  0  0  0  0  0  0  0
   -0.0534    3.9514    2.8314 H   0  0  0  0  0  0  0  0  0  0  0  0
    2.5565    2.0632    2.5586 H   0  0  0  0  0  0  0  0  0  0  0  0
    2.2651    1.9277    0.8509 H   0  0  0  0  0  0  0  0  0  0  0  0
    0.7604    3.7331    0.6831 H   0  0  0  0  0  0  0  0  0  0  0  0
    0.2392    2.2159    3.9307 H   0  0  0  0  0  0  0  0  0  0  0  0
   -1.1331   -1.3697    0.8724 H   0  0  0  0  0  0  0  0  0  0  0  0
   -3.7301   -0.5229    2.9825 H   0  0  0  0  0  0  0  0  0  0  0  0
   -3.0367   -1.7698    1.9987 H   0  0  0  0  0  0  0  0  0  0  0  0
    3.1906    3.9079    0.2235 H   0  0  0  0  0  0  0  0  0  0  0  0
    2.6068    5.4265    0.9144 H   0  0  0  0  0  0  0  0  0  0  0  0
    3.5207    4.2768    1.9187 H   0  0  0  0  0  0  0  0  0  0  0  0
   -3.2524   -1.8555    5.0157 H   0  0  0  0  0  0  0  0  0  0  0  0
   -3.7061   -2.9922    3.8439 H   0  0  0  0  0  0  0  0  0  0  0  0
   -1.9703   -2.7430    4.1999 H   0  0  0  0  0  0  0  0  0  0  0  0
    2.5049   -0.7076   -1.0489 H   0  0  0  0  0  0  0  0  0  0  0  0
    2.9190    0.5537    0.0164 H   0  0  0  0  0  0  0  0  0  0  0  0
    2.5849   -1.0526    0.7026 H   0  0  0  0  0  0  0  0  0  0  0  0
   -3.4223    0.1247    5.0996 H   0  0  0  0  0  0  0  0  0  0  0  0
   -1.8439   -0.6322    5.6998 H   0  0  0  0  0  0  0  0  0  0  0  0
   -2.6254    0.6877    6.5419 H   0  0  0  0  0  0  0  0  0  0  0  0
  1  8  1  0  0  0  0
  1 15  1  0  0  0  0
  2 10  1  0  0  0  0
  2 16  1  0  0  0  0
  3  6  1  0  0  0  0
  3 17  1  0  0  0  0
  3 18  1  0  0  0  0
  4  5  1  0  0  0  0
  4  6  1  0  0  0  0
  4 19  1  0  0  0  0
  4 20  1  0  0  0  0
  5  8  2  0  0  0  0
  5  9  1  0  0  0  0
  6 13  1  0  0  0  0
  6 21  1  0  0  0  0
  7 10  1  0  0  0  0
  7 11  2  0  0  0  0
  7 12  1  0  0  0  0
  8 11  1  0  0  0  0
  9 10  2  0  0  0  0
  9 22  1  0  0  0  0
 11 23  1  0  0  0  0
 12 14  1  0  0  0  0
 12 24  1  0  0  0  0
 12 25  1  0  0  0  0
 13 26  1  0  0  0  0
 13 27  1  0  0  0  0
 13 28  1  0  0  0  0
 14 29  1  0  0  0  0
 14 30  1  0  0  0  0
 14 31  1  0  0  0  0
 15 32  1  0  0  0  0
 15 33  1  0  0  0  0
 15 34  1  0  0  0  0
 16 35  1  0  0  0  0
 16 36  1  0  0  0  0
 16 37  1  0  0  0  0
M  END
>  <DRUGBANK_ID>
DB01467

>  <COMMON_NAME>
2,5-Dimethoxy-4-ethylamphetamine

>  <CAS_NUMBER>
22004-32-6

>  <UNII>
9SK6K682UL

$$$$
