
 OpenBabel10282417123D

 57 59  0  0  0  0  0  0  0  0999 V2000
    0.9512   -0.0132   -0.0305 O   0  0  0  0  0  0  0  0  0  0  0  0
    1.0172   -0.8776   -2.0784 O   0  0  0  0  0  0  0  0  0  0  0  0
   -4.4299    5.2407   -0.9634 O   0  0  0  0  0  0  0  0  0  0  0  0
    0.4549    5.6992    1.1980 O   0  0  0  0  0  0  0  0  0  0  0  0
   -0.0840   -3.1522    4.5855 O   0  0  0  0  0  0  0  0  0  0  0  0
   -1.0020    7.3654    1.2479 O   0  0  0  0  0  0  0  0  0  0  0  0
    1.2926    9.5706   -1.4755 O   0  0  0  0  0  0  0  0  0  0  0  0
   -0.5743    9.3011   -0.2921 O   0  0  0  0  0  0  0  0  0  0  0  0
   -2.3355    6.0532   -0.9919 N   0  0  0  0  0  0  0  0  0  0  0  0
   -0.5727    0.7497    5.2733 N   0  0  0  0  0  0  0  0  0  0  0  0
    0.1086   -1.3820    6.0305 N   0  0  0  0  0  0  0  0  0  0  0  0
    0.2673    0.4850    7.3398 N   0  0  0  0  0  0  0  0  0  0  0  0
   -1.2047   -0.4548   -1.1059 C   0  0  1  0  0  0  0  0  0  0  0  0
   -1.6962   -1.2921    0.0840 C   0  0  0  0  0  0  0  0  0  0  0  0
   -1.8206    0.9425   -1.1523 C   0  0  0  0  0  0  0  0  0  0  0  0
   -1.3405   -0.7667    1.4573 C   0  0  0  0  0  0  0  0  0  0  0  0
   -0.8767    6.0952   -0.8546 C   0  0  1  0  0  0  0  0  0  0  0  0
   -1.0739   -1.6411    2.4923 C   0  0  0  0  0  0  0  0  0  0  0  0
   -3.1911    1.2115   -0.9036 C   0  0  0  0  0  0  0  0  0  0  0  0
   -0.9524    2.0142   -1.1704 C   0  0  0  0  0  0  0  0  0  0  0  0
    0.3377   -0.5064   -1.1341 C   0  0  0  0  0  0  0  0  0  0  0  0
   -1.3025    0.6029    1.7548 C   0  0  0  0  0  0  0  0  0  0  0  0
   -0.7549   -1.1036    3.7405 C   0  0  0  0  0  0  0  0  0  0  0  0
   -0.1739    6.6480   -2.0863 C   0  0  0  0  0  0  0  0  0  0  0  0
   -2.7712    3.5822   -0.8161 C   0  0  0  0  0  0  0  0  0  0  0  0
   -0.8762    0.2651    4.0157 C   0  0  0  0  0  0  0  0  0  0  0  0
   -3.6740    2.5316   -0.8500 C   0  0  0  0  0  0  0  0  0  0  0  0
   -1.4418    3.2181   -0.7406 C   0  0  0  0  0  0  0  0  0  0  0  0
   -1.2500    1.1223    3.0215 C   0  0  0  0  0  0  0  0  0  0  0  0
   -3.2256    5.0032   -0.8938 C   0  0  0  0  0  0  0  0  0  0  0  0
   -0.4115    8.1104   -2.3601 C   0  0  0  0  0  0  0  0  0  0  0  0
   -0.2305   -1.9567    4.8236 C   0  0  0  0  0  0  0  0  0  0  0  0
   -0.4717    6.4836    0.5953 C   0  0  0  0  0  0  0  0  0  0  0  0
   -0.0676   -0.1104    6.1830 C   0  0  0  0  0  0  0  0  0  0  0  0
    0.0731    9.0340   -1.2683 C   0  0  0  0  0  0  0  0  0  0  0  0
   -2.8092    6.9546   -0.9773 H   0  0  0  0  0  0  0  0  0  0  0  0
   -0.5932    1.7454    5.4257 H   0  0  0  0  0  0  0  0  0  0  0  0
    0.1149    1.4600    7.5376 H   0  0  0  0  0  0  0  0  0  0  0  0
    0.5788   -0.1250    8.0829 H   0  0  0  0  0  0  0  0  0  0  0  0
    1.9191   -0.1064   -0.1501 H   0  0  0  0  0  0  0  0  0  0  0  0
    0.4093    4.7432    1.0384 H   0  0  0  0  0  0  0  0  0  0  0  0
    1.5248    9.6742   -2.4127 H   0  0  0  0  0  0  0  0  0  0  0  0
   -1.5399   -0.9344   -2.0323 H   0  0  0  0  0  0  0  0  0  0  0  0
   -2.7900   -1.3777    0.0600 H   0  0  0  0  0  0  0  0  0  0  0  0
   -1.3149   -2.3144   -0.0356 H   0  0  0  0  0  0  0  0  0  0  0  0
   -0.4917    5.1187   -1.0050 H   0  0  0  0  0  0  0  0  0  0  0  0
   -1.0552   -2.7150    2.3256 H   0  0  0  0  0  0  0  0  0  0  0  0
   -3.8931    0.4128   -0.6739 H   0  0  0  0  0  0  0  0  0  0  0  0
    0.1280    1.9053   -1.1783 H   0  0  0  0  0  0  0  0  0  0  0  0
   -1.2215    1.3579    1.0078 H   0  0  0  0  0  0  0  0  0  0  0  0
    0.8959    6.4014   -2.0380 H   0  0  0  0  0  0  0  0  0  0  0  0
   -0.5537    6.0760   -2.9561 H   0  0  0  0  0  0  0  0  0  0  0  0
   -4.7413    2.7276   -0.7701 H   0  0  0  0  0  0  0  0  0  0  0  0
   -0.7262    3.7505   -0.1494 H   0  0  0  0  0  0  0  0  0  0  0  0
   -1.4143    2.1843    3.1652 H   0  0  0  0  0  0  0  0  0  0  0  0
    0.0476    8.3746   -3.3153 H   0  0  0  0  0  0  0  0  0  0  0  0
   -1.4868    8.2758   -2.4698 H   0  0  0  0  0  0  0  0  0  0  0  0
  1 21  1  0  0  0  0
  1 40  1  0  0  0  0
  2 21  2  0  0  0  0
  3 30  2  0  0  0  0
  4 33  1  0  0  0  0
  4 41  1  0  0  0  0
  5 32  2  0  0  0  0
  6 33  2  0  0  0  0
  7 35  1  0  0  0  0
  7 42  1  0  0  0  0
  8 35  2  0  0  0  0
  9 30  1  0  0  0  0
  9 36  1  0  0  0  0
 10 26  1  0  0  0  0
 10 34  1  0  0  0  0
 10 37  1  0  0  0  0
 11 32  1  0  0  0  0
 11 34  2  0  0  0  0
 12 34  1  0  0  0  0
 12 38  1  0  0  0  0
 12 39  1  0  0  0  0
 13 14  1  0  0  0  0
 13 15  1  0  0  0  0
 13 21  1  0  0  0  0
 13 43  1  6  0  0  0
 14 16  1  0  0  0  0
 14 44  1  0  0  0  0
 14 45  1  0  0  0  0
 15 19  2  0  0  0  0
 15 20  1  0  0  0  0
 16 18  2  0  0  0  0
 16 22  1  0  0  0  0
 17  9  1  0  0  0  0
 17 24  1  0  0  0  0
 17 33  1  0  0  0  0
 17 46  1  6  0  0  0
 18 23  1  0  0  0  0
 18 47  1  0  0  0  0
 19 27  1  0  0  0  0
 19 48  1  0  0  0  0
 20 28  2  0  0  0  0
 20 49  1  0  0  0  0
 22 29  2  0  0  0  0
 22 50  1  0  0  0  0
 23 26  2  0  0  0  0
 23 32  1  0  0  0  0
 24 31  1  0  0  0  0
 24 51  1  0  0  0  0
 24 52  1  0  0  0  0
 25 27  2  0  0  0  0
 25 28  1  0  0  0  0
 25 30  1  0  0  0  0
 26 29  1  0  0  0  0
 27 53  1  0  0  0  0
 28 54  1  0  0  0  0
 29 55  1  0  0  0  0
 31 35  1  0  0  0  0
 31 56  1  0  0  0  0
 31 57  1  0  0  0  0
M  END
>  <DRUGBANK_ID>
DB02540

>  <SECONDARY_ACCESSION_NUMBERS>
EXPT02348

>  <COMMON_NAME>
10-formyl-5,8,10-trideazafolic acid

$$$$
