
 OpenBabel10282417203D

 63 50  0  0  0  0  0  0  0  0999 V2000
    0.7270    1.4040    0.0120 C   0  0  0  0  0  0  0  0  0  0  0  0
    1.9380    0.6990   -0.0170 C   0  0  0  0  0  0  0  0  0  0  0  0
    1.9540   -0.6790    0.0000 C   0  0  0  0  0  0  0  0  0  0  0  0
    0.7570   -1.3910    0.0120 C   0  0  0  0  0  0  0  0  0  0  0  0
   -0.4460   -0.7160   -0.0000 C   0  0  0  0  0  0  0  0  0  0  0  0
   -0.4680    0.6800    0.0030 C   0  0  0  0  0  0  0  0  0  0  0  0
   -1.6730    1.3100   -0.0010 O   0  5  0  0  0  0  0  0  0  0  0  0
   -1.6770   -1.3090   -0.0070 O   0  5  0  0  0  0  0  0  0  0  0  0
    0.7799   -3.2006    0.0433 S   0  0  0  0  0  0  0  0  0  0  0  0
    0.0646   -3.6981    1.3015 O   0  0  0  0  0  0  0  0  0  0  0  0
    0.0652   -3.7414   -1.1973 O   0  0  0  0  0  0  0  0  0  0  0  0
    2.3992   -3.7501    0.0533 O   0  5  0  0  0  0  0  0  0  0  0  0
    3.5009    1.6099   -0.0776 S   0  0  0  0  0  0  0  0  0  0  0  0
    4.3437    1.2592    1.1508 O   0  0  0  0  0  0  0  0  0  0  0  0
    4.2654    1.2275   -1.3470 O   0  0  0  0  0  0  0  0  0  0  0  0
    3.1814    3.2898   -0.0889 O   0  5  0  0  0  0  0  0  0  0  0  0
    0.7270    1.4040    0.0120 C   0  0  0  0  0  0  0  0  0  0  0  0
    1.9380    0.6990   -0.0170 C   0  0  0  0  0  0  0  0  0  0  0  0
    1.9540   -0.6790    0.0000 C   0  0  0  0  0  0  0  0  0  0  0  0
    0.7570   -1.3910    0.0120 C   0  0  0  0  0  0  0  0  0  0  0  0
   -0.4460   -0.7160   -0.0000 C   0  0  0  0  0  0  0  0  0  0  0  0
   -0.4680    0.6800    0.0030 C   0  0  0  0  0  0  0  0  0  0  0  0
   -1.6730    1.3100   -0.0010 O   0  5  0  0  0  0  0  0  0  0  0  0
   -1.6770   -1.3090   -0.0070 O   0  5  0  0  0  0  0  0  0  0  0  0
    0.7799   -3.2006    0.0433 S   0  0  0  0  0  0  0  0  0  0  0  0
    0.0646   -3.6981    1.3015 O   0  0  0  0  0  0  0  0  0  0  0  0
    0.0652   -3.7414   -1.1973 O   0  0  0  0  0  0  0  0  0  0  0  0
    2.3992   -3.7501    0.0533 O   0  5  0  0  0  0  0  0  0  0  0  0
    3.5009    1.6099   -0.0776 S   0  0  0  0  0  0  0  0  0  0  0  0
    4.3437    1.2592    1.1508 O   0  0  0  0  0  0  0  0  0  0  0  0
    4.2654    1.2275   -1.3470 O   0  0  0  0  0  0  0  0  0  0  0  0
    3.1814    3.2898   -0.0889 O   0  5  0  0  0  0  0  0  0  0  0  0
    0.9426   -0.0814   -0.0087 O   0  0  0  0  0  0  0  0  0  0  0  0
    0.9508   -0.0278   -0.0825 O   0  0  0  0  0  0  0  0  0  0  0  0
    0.9479    0.0161    0.0838 O   0  0  0  0  0  0  0  0  0  0  0  0
    0.9316    0.0709    0.0168 O   0  0  0  0  0  0  0  0  0  0  0  0
    0.9781   -0.0282    0.0934 O   0  0  0  0  0  0  0  0  0  0  0  0
    0.9360   -0.0272    0.0719 O   0  0  0  0  0  0  0  0  0  0  0  0
    1.0435   -0.0876   -0.0208 O   0  0  0  0  0  0  0  0  0  0  0  0
    0.9757   -0.0716   -0.0654 Na  0  3  0  0  0  0  0  0  0  0  0  0
    0.9313    0.0569   -0.0452 Na  0  3  0  0  0  0  0  0  0  0  0  0
    1.0845   -0.0288    0.0451 Na  0  3  0  0  0  0  0  0  0  0  0  0
    0.9546   -0.0160    0.0876 Na  0  3  0  0  0  0  0  0  0  0  0  0
    1.0633   -0.0773    0.0024 Na  0  3  0  0  0  0  0  0  0  0  0  0
    0.9968    0.0712    0.0702 Sb  0  1  0  0  0  0  0  0  0  0  0  0
    0.7178    2.4736    0.0404 H   0  0  0  0  0  0  0  0  0  0  0  0
    2.8872   -1.2025    0.0040 H   0  0  0  0  0  0  0  0  0  0  0  0
    0.7178    2.4736    0.0404 H   0  0  0  0  0  0  0  0  0  0  0  0
    2.8872   -1.2025    0.0040 H   0  0  0  0  0  0  0  0  0  0  0  0
    0.6093   -0.7949    0.6077 H   0  0  0  0  0  0  0  0  0  0  0  0
    1.9426   -0.0814   -0.0087 H   0  0  0  0  0  0  0  0  0  0  0  0
    0.6174   -0.6879    0.5907 H   0  0  0  0  0  0  0  0  0  0  0  0
    1.9508   -0.0278   -0.0825 H   0  0  0  0  0  0  0  0  0  0  0  0
    0.6146    0.7963    0.6131 H   0  0  0  0  0  0  0  0  0  0  0  0
    1.9479    0.0161    0.0838 H   0  0  0  0  0  0  0  0  0  0  0  0
    0.5982   -0.3357   -0.8338 H   0  0  0  0  0  0  0  0  0  0  0  0
    1.9316    0.0709    0.0168 H   0  0  0  0  0  0  0  0  0  0  0  0
    0.6447    0.8966    0.2768 H   0  0  0  0  0  0  0  0  0  0  0  0
    1.9781   -0.0282    0.0934 H   0  0  0  0  0  0  0  0  0  0  0  0
    0.6027   -0.8196    0.5828 H   0  0  0  0  0  0  0  0  0  0  0  0
    1.9360   -0.0272    0.0719 H   0  0  0  0  0  0  0  0  0  0  0  0
    0.7102   -0.9900    0.2522 H   0  0  0  0  0  0  0  0  0  0  0  0
    2.0435   -0.0876   -0.0208 H   0  0  0  0  0  0  0  0  0  0  0  0
  1  2  2  0  0  0  0
  1  6  1  0  0  0  0
  1 46  1  0  0  0  0
  2  3  1  0  0  0  0
  2 13  1  0  0  0  0
  3  4  2  0  0  0  0
  3 47  1  0  0  0  0
  4  5  1  0  0  0  0
  4  9  1  0  0  0  0
  5  6  2  0  0  0  0
  5  8  1  0  0  0  0
  6  7  1  0  0  0  0
  9 10  2  0  0  0  0
  9 11  2  0  0  0  0
  9 12  1  0  0  0  0
 13 14  2  0  0  0  0
 13 15  2  0  0  0  0
 13 16  1  0  0  0  0
 17 18  2  0  0  0  0
 17 22  1  0  0  0  0
 17 48  1  0  0  0  0
 18 19  1  0  0  0  0
 18 29  1  0  0  0  0
 19 20  2  0  0  0  0
 19 49  1  0  0  0  0
 20 21  1  0  0  0  0
 20 25  1  0  0  0  0
 21 22  2  0  0  0  0
 21 24  1  0  0  0  0
 22 23  1  0  0  0  0
 25 26  2  0  0  0  0
 25 27  2  0  0  0  0
 25 28  1  0  0  0  0
 29 30  2  0  0  0  0
 29 31  2  0  0  0  0
 29 32  1  0  0  0  0
 33 50  1  0  0  0  0
 33 51  1  0  0  0  0
 34 52  1  0  0  0  0
 34 53  1  0  0  0  0
 35 54  1  0  0  0  0
 35 55  1  0  0  0  0
 36 56  1  0  0  0  0
 36 57  1  0  0  0  0
 37 58  1  0  0  0  0
 37 59  1  0  0  0  0
 38 60  1  0  0  0  0
 38 61  1  0  0  0  0
 39 62  1  0  0  0  0
 39 63  1  0  0  0  0
M  CHG  8   7  -1   8  -1  12  -1  16  -1  23  -1  24  -1  28  -1  32  -1
M  CHG  6  40   1  41   1  42   1  43   1  44   1  45   3
M  END
>  <DRUGBANK_ID>
DB13236

>  <COMMON_NAME>
Stibophen

>  <CAS_NUMBER>
15489-16-4

>  <UNII>
6CM08O30EH

$$$$
