
 OpenBabel10282417123D

 22 21  0  0  1  0  0  0  0  0999 V2000
    0.9776   -0.0931   -0.3189 N   0  0  0  0  0  0  0  0  0  0  0  0
    0.3937   -1.3094    0.2717 C   0  0  1  0  0  0  0  0  0  0  0  0
    0.8048   -1.6558    1.7098 C   0  0  0  0  0  0  0  0  0  0  0  0
    0.4169   -0.4230    3.0991 S   0  0  0  0  0  0  0  0  0  0  0  0
    1.0103    1.2543    2.4733 C   0  0  0  0  0  0  0  0  0  0  0  0
    2.8403    1.2543    2.4733 P   0  0  0  0  0  0  0  0  0  0  0  0
    2.8718   -0.2458    1.8668 O   0  0  0  0  0  0  0  0  0  0  0  0
    2.7485    2.0432    1.0259 O   0  0  0  0  0  0  0  0  0  0  0  0
    4.3886    1.2543    2.4733 O   0  0  0  0  0  0  0  0  0  0  0  0
   -1.1313   -1.2335    0.2427 C   0  0  0  0  0  0  0  0  0  0  0  0
   -1.7241   -2.1422   -0.5570 O   0  0  0  0  0  0  0  0  0  0  0  0
   -1.7890   -0.4175    0.8898 O   0  0  0  0  0  0  0  0  0  0  0  0
    0.5024    0.7017    0.0944 H   0  0  0  0  0  0  0  0  0  0  0  0
    1.9594   -0.0013   -0.0091 H   0  0  0  0  0  0  0  0  0  0  0  0
    0.7349   -2.1237   -0.3782 H   0  0  0  0  0  0  0  0  0  0  0  0
    0.3106   -2.5853    2.0139 H   0  0  0  0  0  0  0  0  0  0  0  0
    1.8491   -1.9886    1.7087 H   0  0  0  0  0  0  0  0  0  0  0  0
    0.4448    1.6266    1.6230 H   0  0  0  0  0  0  0  0  0  0  0  0
    0.7457    1.9460    3.2822 H   0  0  0  0  0  0  0  0  0  0  0  0
    3.2208   -0.8133    2.5863 H   0  0  0  0  0  0  0  0  0  0  0  0
    2.0595    2.7210    0.9005 H   0  0  0  0  0  0  0  0  0  0  0  0
   -1.1006   -2.6549   -1.1052 H   0  0  0  0  0  0  0  0  0  0  0  0
  1 13  1  0  0  0  0
  1 14  1  0  0  0  0
  2  1  1  0  0  0  0
  2  3  1  0  0  0  0
  2 10  1  0  0  0  0
  2 15  1  6  0  0  0
  3  4  1  0  0  0  0
  3 16  1  0  0  0  0
  3 17  1  0  0  0  0
  4  5  1  0  0  0  0
  5  6  1  0  0  0  0
  5 18  1  0  0  0  0
  5 19  1  0  0  0  0
  6  7  1  0  0  0  0
  6  8  1  0  0  0  0
  6  9  2  0  0  0  0
  7 20  1  0  0  0  0
  8 21  1  0  0  0  0
 10 11  1  0  0  0  0
 10 12  2  0  0  0  0
 11 22  1  0  0  0  0
M  END
>  <DRUGBANK_ID>
DB02461

>  <SECONDARY_ACCESSION_NUMBERS>
EXPT01078

>  <COMMON_NAME>
S-Methyl Phosphocysteine

>  <UNII>
R021QK26O0

$$$$
