
 OpenBabel10282417193D

 64 65  0  0  0  0  0  0  0  0999 V2000
    0.9672    0.2893    0.3968 C   0  0  0  0  0  0  0  0  0  0  0  0
    0.4497   -0.8176    1.2046 N   0  0  0  0  0  0  0  0  0  0  0  0
   -1.0134   -0.8135    1.1599 C   0  0  0  0  0  0  0  0  0  0  0  0
    0.9816   -2.1497    0.8763 C   0  0  0  0  0  0  0  0  0  0  0  0
    0.5686   -2.6763   -0.4661 C   0  0  0  0  0  0  0  0  0  0  0  0
    1.0791   -1.8507   -1.5964 C   0  0  0  0  0  0  0  0  0  0  0  0
    2.5039   -1.8254   -1.7865 N   0  0  0  0  0  0  0  0  0  0  0  0
    3.2434   -2.1116   -2.9056 C   0  0  0  0  0  0  0  0  0  0  0  0
    4.4502   -2.0262   -2.8404 O   0  0  0  0  0  0  0  0  0  0  0  0
    2.5574   -2.5372   -4.1776 C   0  0  0  0  0  0  0  0  0  0  0  0
    1.2404   -2.5082   -4.3829 C   0  0  0  0  0  0  0  0  0  0  0  0
    0.4298   -2.9312   -5.5091 C   0  0  0  0  0  0  0  0  0  0  0  0
   -0.4682   -4.0885   -5.0456 C   0  0  0  0  0  0  0  0  0  0  0  0
   -1.5893   -3.6800   -4.0837 C   0  0  0  0  0  0  0  0  0  0  0  0
   -2.4596   -2.5338   -4.6047 C   0  0  0  0  0  0  0  0  0  0  0  0
   -3.3226   -2.8784   -5.8238 C   0  0  0  0  0  0  0  0  0  0  0  0
   -4.5509   -2.8883   -5.7004 O   0  0  0  0  0  0  0  0  0  0  0  0
   -2.8170   -3.1923   -7.0431 N   0  0  0  0  0  0  0  0  0  0  0  0
   -1.5295   -2.9915   -7.5266 O   0  0  0  0  0  0  0  0  0  0  0  0
    3.4240   -2.7114   -5.3886 C   0  0  0  0  0  0  0  0  0  0  0  0
    4.1457   -1.5215   -5.7744 O   0  0  0  0  0  0  0  0  0  0  0  0
    3.4310   -0.3880   -6.1169 C   0  0  0  0  0  0  0  0  0  0  0  0
    2.4646    0.1759   -5.2739 C   0  0  0  0  0  0  0  0  0  0  0  0
    1.7954    1.3530   -5.5738 C   0  0  0  0  0  0  0  0  0  0  0  0
    2.1513    2.0565   -6.7056 C   0  0  0  0  0  0  0  0  0  0  0  0
    3.1726    1.5822   -7.5370 C   0  0  0  0  0  0  0  0  0  0  0  0
    3.8170    0.3408   -7.2638 C   0  0  0  0  0  0  0  0  0  0  0  0
    4.8335   -0.0812   -8.1453 C   0  0  0  0  0  0  0  0  0  0  0  0
    5.2147    0.7036   -9.2377 C   0  0  0  0  0  0  0  0  0  0  0  0
    4.5879    1.9223   -9.4764 C   0  0  0  0  0  0  0  0  0  0  0  0
    3.5716    2.3573   -8.6311 C   0  0  0  0  0  0  0  0  0  0  0  0
    0.7778    1.2534    0.8721 H   0  0  0  0  0  0  0  0  0  0  0  0
    0.4502    0.3936   -0.5578 H   0  0  0  0  0  0  0  0  0  0  0  0
    2.0459    0.2091    0.2201 H   0  0  0  0  0  0  0  0  0  0  0  0
   -1.4118   -1.0327    0.1613 H   0  0  0  0  0  0  0  0  0  0  0  0
   -1.4144   -1.5532    1.8589 H   0  0  0  0  0  0  0  0  0  0  0  0
   -1.3994    0.1677    1.4437 H   0  0  0  0  0  0  0  0  0  0  0  0
    2.0759   -2.1694    0.9432 H   0  0  0  0  0  0  0  0  0  0  0  0
    0.6336   -2.8822    1.6159 H   0  0  0  0  0  0  0  0  0  0  0  0
    0.9285   -3.7019   -0.6266 H   0  0  0  0  0  0  0  0  0  0  0  0
   -0.5237   -2.7560   -0.5642 H   0  0  0  0  0  0  0  0  0  0  0  0
    0.6049   -2.4768   -2.3057 H   0  0  0  0  0  0  0  0  0  0  0  0
    0.6734   -0.8608   -1.8108 H   0  0  0  0  0  0  0  0  0  0  0  0
    3.0854   -1.4583   -1.0380 H   0  0  0  0  0  0  0  0  0  0  0  0
    0.5551   -1.9242   -3.7959 H   0  0  0  0  0  0  0  0  0  0  0  0
   -0.0734   -1.9787   -5.7082 H   0  0  0  0  0  0  0  0  0  0  0  0
    0.9623   -3.1901   -6.4179 H   0  0  0  0  0  0  0  0  0  0  0  0
   -0.9264   -4.5800   -5.9048 H   0  0  0  0  0  0  0  0  0  0  0  0
    0.1476   -4.8714   -4.5832 H   0  0  0  0  0  0  0  0  0  0  0  0
   -2.2165   -4.5546   -3.8730 H   0  0  0  0  0  0  0  0  0  0  0  0
   -1.1652   -3.4023   -3.1098 H   0  0  0  0  0  0  0  0  0  0  0  0
   -3.1574   -2.2784   -3.7910 H   0  0  0  0  0  0  0  0  0  0  0  0
   -1.8944   -1.6099   -4.7620 H   0  0  0  0  0  0  0  0  0  0  0  0
   -3.4746   -3.4227   -7.7779 H   0  0  0  0  0  0  0  0  0  0  0  0
   -1.1504   -2.4490   -6.8364 H   0  0  0  0  0  0  0  0  0  0  0  0
    4.1157   -3.5397   -5.2138 H   0  0  0  0  0  0  0  0  0  0  0  0
    2.8546   -3.0192   -6.2688 H   0  0  0  0  0  0  0  0  0  0  0  0
    2.2242   -0.2326   -4.3090 H   0  0  0  0  0  0  0  0  0  0  0  0
    1.0413    1.7307   -4.8897 H   0  0  0  0  0  0  0  0  0  0  0  0
    1.6484    2.9979   -6.9091 H   0  0  0  0  0  0  0  0  0  0  0  0
    5.3464   -1.0254   -7.9745 H   0  0  0  0  0  0  0  0  0  0  0  0
    6.0104    0.3664   -9.8963 H   0  0  0  0  0  0  0  0  0  0  0  0
    4.8894    2.5392  -10.3182 H   0  0  0  0  0  0  0  0  0  0  0  0
    3.1017    3.3195   -8.8228 H   0  0  0  0  0  0  0  0  0  0  0  0
  1  2  1  0  0  0  0
  1 32  1  0  0  0  0
  1 33  1  0  0  0  0
  1 34  1  0  0  0  0
  2  3  1  0  0  0  0
  2  4  1  0  0  0  0
  3 35  1  0  0  0  0
  3 36  1  0  0  0  0
  3 37  1  0  0  0  0
  4  5  1  0  0  0  0
  4 38  1  0  0  0  0
  4 39  1  0  0  0  0
  5  6  1  0  0  0  0
  5 40  1  0  0  0  0
  5 41  1  0  0  0  0
  6  7  1  0  0  0  0
  6 42  1  0  0  0  0
  6 43  1  0  0  0  0
  7  8  1  0  0  0  0
  7 44  1  0  0  0  0
  8  9  2  0  0  0  0
  8 10  1  0  0  0  0
 10 11  2  0  0  0  0
 10 20  1  0  0  0  0
 11 12  1  0  0  0  0
 11 45  1  0  0  0  0
 12 13  1  0  0  0  0
 12 46  1  0  0  0  0
 12 47  1  0  0  0  0
 13 14  1  0  0  0  0
 13 48  1  0  0  0  0
 13 49  1  0  0  0  0
 14 15  1  0  0  0  0
 14 50  1  0  0  0  0
 14 51  1  0  0  0  0
 15 16  1  0  0  0  0
 15 52  1  0  0  0  0
 15 53  1  0  0  0  0
 16 17  2  0  0  0  0
 16 18  1  0  0  0  0
 18 19  1  0  0  0  0
 18 54  1  0  0  0  0
 19 55  1  0  0  0  0
 20 21  1  0  0  0  0
 20 56  1  0  0  0  0
 20 57  1  0  0  0  0
 21 22  1  0  0  0  0
 22 23  1  0  0  0  0
 22 27  2  0  0  0  0
 23 24  2  0  0  0  0
 23 58  1  0  0  0  0
 24 25  1  0  0  0  0
 24 59  1  0  0  0  0
 25 26  2  0  0  0  0
 25 60  1  0  0  0  0
 26 27  1  0  0  0  0
 26 31  1  0  0  0  0
 27 28  1  0  0  0  0
 28 29  2  0  0  0  0
 28 61  1  0  0  0  0
 29 30  1  0  0  0  0
 29 62  1  0  0  0  0
 30 31  2  0  0  0  0
 30 63  1  0  0  0  0
 31 64  1  0  0  0  0
M  END
>  <DRUGBANK_ID>
DB12259

>  <COMMON_NAME>
CG-200745

>  <CAS_NUMBER>
936221-33-9

>  <UNII>
4I8MLM7L2H

$$$$
