4828
 OpenBabel10282417143D

 34 35  0  0  0  0  0  0  0  0999 V2000
   -2.1073   -0.0373    0.0037 Cl  0  0  0  0  0  0  0  0  0  0  0  0
    4.4844   -1.0929    0.0532 O   0  0  0  0  0  0  0  0  0  0  0  0
    3.6972    5.4981    2.8488 O   0  0  0  0  0  0  0  0  0  0  0  0
    3.5548    5.6701    0.6119 O   0  0  0  0  0  0  0  0  0  0  0  0
    4.5491    2.2280    1.0617 N   0  0  0  0  0  0  0  0  0  0  0  0
    4.6329    1.2523    0.0824 C   0  0  0  0  0  0  0  0  0  0  0  0
    5.3673    3.2894    0.7306 C   0  0  0  0  0  0  0  0  0  0  0  0
    5.5622    1.6806   -0.8577 C   0  0  0  0  0  0  0  0  0  0  0  0
    6.0087    2.9622   -0.4498 C   0  0  0  0  0  0  0  0  0  0  0  0
    5.4971    4.5403    1.5479 C   0  0  0  0  0  0  0  0  0  0  0  0
    3.9065   -0.0058    0.0516 C   0  0  0  0  0  0  0  0  0  0  0  0
    3.7351    2.1206    2.2563 C   0  0  0  0  0  0  0  0  0  0  0  0
    5.9778    0.9389   -2.0805 C   0  0  0  0  0  0  0  0  0  0  0  0
    2.4109    0.0099   -0.0234 C   0  0  0  0  0  0  0  0  0  0  0  0
    4.1783    5.2927    1.5987 C   0  0  0  0  0  0  0  0  0  0  0  0
    1.6792    1.2040   -0.1127 C   0  0  0  0  0  0  0  0  0  0  0  0
    1.7183   -1.2084    0.0010 C   0  0  0  0  0  0  0  0  0  0  0  0
    0.2854    1.1911   -0.0673 C   0  0  0  0  0  0  0  0  0  0  0  0
    0.3200   -1.2240   -0.0141 C   0  0  0  0  0  0  0  0  0  0  0  0
   -0.3893   -0.0238   -0.0240 C   0  0  0  0  0  0  0  0  0  0  0  0
    4.2442    5.1514    3.5786 H   0  0  0  0  0  0  0  0  0  0  0  0
    6.7232    3.5862   -0.9748 H   0  0  0  0  0  0  0  0  0  0  0  0
    5.8520    4.2869    2.5531 H   0  0  0  0  0  0  0  0  0  0  0  0
    6.2444    5.2131    1.1119 H   0  0  0  0  0  0  0  0  0  0  0  0
    2.6815    2.1028    1.9849 H   0  0  0  0  0  0  0  0  0  0  0  0
    4.0139    1.2135    2.7923 H   0  0  0  0  0  0  0  0  0  0  0  0
    3.8844    2.9799    2.9042 H   0  0  0  0  0  0  0  0  0  0  0  0
    6.4287   -0.0214   -1.8104 H   0  0  0  0  0  0  0  0  0  0  0  0
    5.1103    0.7459   -2.7211 H   0  0  0  0  0  0  0  0  0  0  0  0
    6.7094    1.5063   -2.6639 H   0  0  0  0  0  0  0  0  0  0  0  0
    2.1722    2.1706   -0.1873 H   0  0  0  0  0  0  0  0  0  0  0  0
    2.2639   -2.1510    0.0248 H   0  0  0  0  0  0  0  0  0  0  0  0
   -0.2573    2.1332   -0.0699 H   0  0  0  0  0  0  0  0  0  0  0  0
   -0.2071   -2.1742   -0.0133 H   0  0  0  0  0  0  0  0  0  0  0  0
  1 20  1  0  0  0  0
  2 11  2  0  0  0  0
  3 15  1  0  0  0  0
  3 21  1  0  0  0  0
  4 15  2  0  0  0  0
  5  6  1  0  0  0  0
  5  7  1  0  0  0  0
  5 12  1  0  0  0  0
  6  8  2  0  0  0  0
  6 11  1  0  0  0  0
  7  9  2  0  0  0  0
  7 10  1  0  0  0  0
  8  9  1  0  0  0  0
  8 13  1  0  0  0  0
  9 22  1  0  0  0  0
 10 15  1  0  0  0  0
 10 23  1  0  0  0  0
 10 24  1  0  0  0  0
 11 14  1  0  0  0  0
 12 25  1  0  0  0  0
 12 26  1  0  0  0  0
 12 27  1  0  0  0  0
 13 28  1  0  0  0  0
 13 29  1  0  0  0  0
 13 30  1  0  0  0  0
 14 16  2  0  0  0  0
 14 17  1  0  0  0  0
 16 18  1  0  0  0  0
 16 31  1  0  0  0  0
 17 19  2  0  0  0  0
 17 32  1  0  0  0  0
 18 20  2  0  0  0  0
 18 33  1  0  0  0  0
 19 20  1  0  0  0  0
 19 34  1  0  0  0  0
M  END
>  <DRUGBANK_ID>
DB04828

>  <COMMON_NAME>
Zomepirac

>  <CAS_NUMBER>
33369-31-2

>  <UNII>
822G987U9J

>  <SYNONYMS>
5-(4-Chlorobenzoyl)-1,4-dimethyl-1H-pyrrole-2-acetic acid; Zomepirac; Zomepiracum

$$$$
