
 OpenBabel10282417143D

265272  0  0  1  0  0  0  0  0999 V2000
   -6.0246   -0.5875   -3.6375 C   0  0  1  0  0  0  0  0  0  0  0  0
   -3.9631   -1.9603    3.0981 N   0  0  0  0  0  0  0  0  0  0  0  0
   -2.8201   -2.5670    0.6361 C   0  0  2  0  0  0  0  0  0  0  0  0
   -1.4030   -4.0487   -1.7745 C   0  0  2  0  0  0  0  0  0  0  0  0
   -0.5081   -5.7373   -3.7658 C   0  0  0  0  0  0  0  0  0  0  0  0
    0.1357   -5.3977   -4.4114 S   0  0  0  0  0  0  0  0  0  0  0  0
   -5.3440   -0.3125   -0.8430 N   0  0  0  0  0  0  0  0  0  0  0  0
   -4.8513   -2.0621    5.2264 C   0  0  0  0  0  0  0  0  0  0  0  0
   -5.9215   -3.3056    6.6354 C   0  0  1  0  0  0  0  0  0  0  0  0
   -6.5175   -4.2194    5.6646 N   0  0  0  0  0  0  0  0  0  0  0  0
   -6.2302   -5.6118    5.7128 C   0  0  0  0  0  0  0  0  0  0  0  0
   -6.9081   -6.4638    4.6133 C   0  0  0  0  0  0  0  0  0  0  0  0
   -6.0327   -7.0736    3.4973 N   0  0  0  0  0  0  0  0  0  0  0  0
   -5.8333   -9.1730    3.8135 C   0  0  0  0  0  0  0  0  0  0  0  0
   -4.5343   -9.5153    3.4029 C   0  0  1  0  0  0  0  0  0  0  0  0
   -3.7373  -10.1355    4.2016 N   0  0  0  0  0  0  0  0  0  0  0  0
   -3.5875  -11.5525    3.8410 C   0  0  0  0  0  0  0  0  0  0  0  0
   -3.0148   -9.7849    3.5865 C   0  0  1  0  0  0  0  0  0  0  0  0
   -4.2130   -7.6195    2.8122 N   0  0  0  0  0  0  0  0  0  0  0  0
   -4.8138   -6.5922    1.2391 C   0  0  0  0  0  0  0  0  0  0  0  0
   -5.8531   -7.4975    1.6630 C   0  0  1  0  0  0  0  0  0  0  0  0
   -6.4253   -8.3849    0.8067 N   0  0  0  0  0  0  0  0  0  0  0  0
   -6.3268   -9.7712    0.7521 C   0  0  0  0  0  0  0  0  0  0  0  0
   -6.8590  -10.9928   -0.0920 C   0  0  1  0  0  0  0  0  0  0  0  0
   -5.8051  -11.9141   -0.7874 N   0  0  0  0  0  0  0  0  0  0  0  0
   -5.4490  -13.0503   -1.0493 C   0  0  0  0  0  0  0  0  0  0  0  0
   -4.2395  -13.8139   -1.6897 C   0  0  1  0  0  0  0  0  0  0  0  0
   -3.4148  -14.4174   -0.7897 C   0  0  2  0  0  0  0  0  0  0  0  0
   -2.3247  -15.0364   -1.5633 C   0  0  0  0  0  0  0  0  0  0  0  0
   -4.4666  -15.6019   -0.0272 S   0  0  0  0  0  0  0  0  0  0  0  0
   -3.0952  -12.7343   -2.4919 N   0  0  0  0  0  0  0  0  0  0  0  0
   -3.1635  -12.7635   -3.9078 C   0  0  0  0  0  0  0  0  0  0  0  0
   -2.2315  -11.5088   -4.6672 C   0  0  1  0  0  0  0  0  0  0  0  0
   -1.2775  -12.1006   -5.3049 N   0  0  0  0  0  0  0  0  0  0  0  0
   -1.2178  -11.8643   -6.6915 C   0  0  0  0  0  0  0  0  0  0  0  0
   -0.0876  -12.5379   -7.4672 C   0  0  1  0  0  0  0  0  0  0  0  0
    0.1958  -11.9547   -8.8209 N   0  0  0  0  0  0  0  0  0  0  0  0
    0.5088  -12.9371   -9.8163 C   0  0  0  0  0  0  0  0  0  0  0  0
    0.4558  -14.2570   -9.0681 C   0  0  0  0  0  0  0  0  0  0  0  0
   -0.4564  -13.9743   -7.8639 C   0  0  0  0  0  0  0  0  0  0  0  0
   -0.1969  -10.8871   -9.4525 C   0  0  0  0  0  0  0  0  0  0  0  0
    0.2737   -9.8581  -10.7230 C   0  0  0  0  0  0  0  0  0  0  0  0
   -0.8613   -9.1122  -10.9935 N   0  0  0  0  0  0  0  0  0  0  0  0
   -0.7345   -7.7176  -11.3046 C   0  0  0  0  0  0  0  0  0  0  0  0
   -1.9875   -6.9719  -11.8254 C   0  0  1  0  0  0  0  0  0  0  0  0
   -2.3216   -5.9139  -10.8757 N   0  0  0  0  0  0  0  0  0  0  0  0
   -2.5996   -4.8428  -10.0597 C   0  0  0  0  0  0  0  0  0  0  0  0
   -3.2444   -5.6808   -7.6060 C   0  0  1  0  0  0  0  0  0  0  0  0
   -3.4677   -7.3878   -5.1423 N   0  0  0  0  0  0  0  0  0  0  0  0
   -4.0248   -9.0969   -2.9005 C   0  0  0  0  0  0  0  0  0  0  0  0
   -4.3272  -11.2858   -0.7734 C   0  0  1  0  0  0  0  0  0  0  0  0
   -4.2126  -12.6547    1.0363 N   0  0  0  0  0  0  0  0  0  0  0  0
   -2.9412  -12.7841    1.5808 C   0  0  0  0  0  0  0  0  0  0  0  0
   -2.0907  -11.7321    1.0108 C   0  0  2  0  0  0  0  0  0  0  0  0
   -2.7498  -10.9491    0.0656 N   0  0  0  0  0  0  0  0  0  0  0  0
   -2.3774  -10.7798   -1.2223 C   0  0  0  0  0  0  0  0  0  0  0  0
   -2.9417  -10.3196   -2.3402 C   0  0  1  0  0  0  0  0  0  0  0  0
   -2.3515   -9.0265   -2.9479 N   0  0  0  0  0  0  0  0  0  0  0  0
   -2.2478   -8.8466   -4.2275 C   0  0  0  0  0  0  0  0  0  0  0  0
   -1.5350   -8.0301   -5.0295 C   0  0  1  0  0  0  0  0  0  0  0  0
   -0.5054   -8.7359   -5.7789 N   0  0  0  0  0  0  0  0  0  0  0  0
   -0.3509   -8.3527   -7.2510 C   0  0  0  0  0  0  0  0  0  0  0  0
    0.9695   -8.8730   -7.8316 C   0  0  1  0  0  0  0  0  0  0  0  0
    0.6001   -9.4575   -8.9598 N   0  0  0  0  0  0  0  0  0  0  0  0
    1.1911   -6.9549   -7.0935 C   0  0  0  0  0  0  0  0  0  0  0  0
   -1.1520   -7.6464   -7.8866 O   0  0  0  0  0  0  0  0  0  0  0  0
   -2.2924   -7.1579   -6.0700 C   0  0  0  0  0  0  0  0  0  0  0  0
   -4.0036   -6.0066   -4.9269 C   0  0  0  0  0  0  0  0  0  0  0  0
   -2.9521   -5.4784   -4.1128 C   0  0  0  0  0  0  0  0  0  0  0  0
   -2.1122   -4.4640   -4.8298 C   0  0  0  0  0  0  0  0  0  0  0  0
   -2.8878   -3.6829   -5.7483 N   0  0  0  0  0  0  0  0  0  0  0  0
   -2.8418   -9.5729   -4.7864 O   0  0  0  0  0  0  0  0  0  0  0  0
   -3.8414  -10.9550   -3.1457 C   0  0  0  0  0  0  0  0  0  0  0  0
   -5.0414  -12.2067   -2.7255 C   0  0  0  0  0  0  0  0  0  0  0  0
   -6.2641  -11.3569   -2.2710 C   0  0  0  0  0  0  0  0  0  0  0  0
   -7.3600  -11.7651   -2.2229 O   0  0  0  0  0  0  0  0  0  0  0  0
   -5.9565  -10.0332   -1.3849 N   0  0  0  0  0  0  0  0  0  0  0  0
   -1.5409  -11.5158   -1.7371 O   0  0  0  0  0  0  0  0  0  0  0  0
   -1.4809  -10.8484    2.0522 C   0  0  0  0  0  0  0  0  0  0  0  0
   -2.6021  -13.6585    2.2805 O   0  0  0  0  0  0  0  0  0  0  0  0
   -5.2441  -13.5193    0.5050 C   0  0  0  0  0  0  0  0  0  0  0  0
   -4.5214  -10.2767   -1.4026 O   0  0  0  0  0  0  0  0  0  0  0  0
   -3.5669   -3.7814   -9.6003 C   0  0  0  0  0  0  0  0  0  0  0  0
   -2.2390   -4.4093  -11.8809 O   0  0  0  0  0  0  0  0  0  0  0  0
   -1.7128   -6.4611  -13.2265 C   0  0  0  0  0  0  0  0  0  0  0  0
   -1.3861   -7.5784  -14.1583 C   0  0  0  0  0  0  0  0  0  0  0  0
   -1.7024   -8.8504  -13.7779 C   0  0  0  0  0  0  0  0  0  0  0  0
   -1.5878   -9.8968  -14.6458 C   0  0  0  0  0  0  0  0  0  0  0  0
   -1.0899   -9.7166  -15.8998 C   0  0  0  0  0  0  0  0  0  0  0  0
   -0.8553   -8.4357  -16.2863 C   0  0  0  0  0  0  0  0  0  0  0  0
   -0.8236   -7.3671  -15.3945 C   0  0  0  0  0  0  0  0  0  0  0  0
    0.3334   -7.0971  -11.2061 O   0  0  0  0  0  0  0  0  0  0  0  0
   -0.6861   -9.8678   -8.0869 O   0  0  0  0  0  0  0  0  0  0  0  0
   -2.0168  -11.1658   -7.3297 O   0  0  0  0  0  0  0  0  0  0  0  0
   -3.3609  -10.8605   -5.6437 C   0  0  0  0  0  0  0  0  0  0  0  0
   -4.6847   -9.8916   -5.1013 C   0  0  0  0  0  0  0  0  0  0  0  0
   -4.7741   -8.6673   -4.9506 C   0  0  0  0  0  0  0  0  0  0  0  0
   -5.7990   -8.0528   -4.3205 C   0  0  0  0  0  0  0  0  0  0  0  0
   -6.5875   -8.6840   -3.5084 C   0  0  0  0  0  0  0  0  0  0  0  0
   -6.4627   -9.9408   -3.4900 C   0  0  0  0  0  0  0  0  0  0  0  0
   -5.6505  -10.6866   -4.1006 C   0  0  0  0  0  0  0  0  0  0  0  0
   -3.8936  -13.4051   -4.6011 O   0  0  0  0  0  0  0  0  0  0  0  0
   -6.4454  -13.4242   -0.6508 O   0  0  0  0  0  0  0  0  0  0  0  0
   -7.5864  -11.8625    0.5164 C   0  0  0  0  0  0  0  0  0  0  0  0
   -8.4918  -10.8686    1.0732 C   0  0  0  0  0  0  0  0  0  0  0  0
   -9.1952  -10.0259    0.2655 C   0  0  0  0  0  0  0  0  0  0  0  0
  -10.2404   -9.3169    0.7696 C   0  0  0  0  0  0  0  0  0  0  0  0
  -10.5423   -9.3497    2.0968 C   0  0  0  0  0  0  0  0  0  0  0  0
   -9.8465  -10.2265    2.8632 C   0  0  0  0  0  0  0  0  0  0  0  0
   -8.7138  -10.8685    2.4287 C   0  0  0  0  0  0  0  0  0  0  0  0
   -5.6125  -10.5492    1.1838 O   0  0  0  0  0  0  0  0  0  0  0  0
   -5.3182   -8.3358    2.5247 C   0  0  0  0  0  0  0  0  0  0  0  0
   -2.9036   -7.8615    2.9816 C   0  0  0  0  0  0  0  0  0  0  0  0
   -5.4104   -7.8920    4.7153 C   0  0  0  0  0  0  0  0  0  0  0  0
   -3.8861   -6.7564    0.4698 O   0  0  0  0  0  0  0  0  0  0  0  0
   -2.0561  -12.0256    3.9165 C   0  0  0  0  0  0  0  0  0  0  0  0
   -0.4890  -11.7707    3.2061 S   0  0  0  0  0  0  0  0  0  0  0  0
   -4.1087  -12.2453    3.0537 O   0  0  0  0  0  0  0  0  0  0  0  0
   -4.5496  -10.3553    2.3420 C   0  0  2  0  0  0  0  0  0  0  0  0
   -4.3446   -9.4054    0.8143 C   0  0  0  0  0  0  0  0  0  0  0  0
   -3.3834   -8.8808    0.5179 O   0  0  0  0  0  0  0  0  0  0  0  0
   -5.0134   -9.0668   -0.2794 O   0  0  0  0  0  0  0  0  0  0  0  0
   -6.6055  -10.2860    2.4416 O   0  0  0  0  0  0  0  0  0  0  0  0
   -6.5459   -9.6328    4.6113 O   0  0  0  0  0  0  0  0  0  0  0  0
   -5.4963   -6.1342    6.5723 O   0  0  0  0  0  0  0  0  0  0  0  0
   -5.0959   -4.1158    7.6659 C   0  0  0  0  0  0  0  0  0  0  0  0
   -4.5129   -3.2278    8.7495 C   0  0  0  0  0  0  0  0  0  0  0  0
   -4.7885   -3.4363    9.9399 O   0  0  0  0  0  0  0  0  0  0  0  0
   -3.6597   -2.1475    8.3555 N   0  0  0  0  0  0  0  0  0  0  0  0
   -3.9249   -2.7123    5.3682 O   0  0  0  0  0  0  0  0  0  0  0  0
   -5.9661   -1.5030   -6.5972 C   0  0  0  0  0  0  0  0  0  0  0  0
   -5.7039   -2.2670   -9.7440 C   0  0  0  0  0  0  0  0  0  0  0  0
   -5.8963   -2.1958  -12.2632 C   0  0  0  0  0  0  0  0  0  0  0  0
   -6.5378   -2.7719  -11.2568 C   0  0  0  0  0  0  0  0  0  0  0  0
   -4.7863   -3.8603  -10.8505 N   0  0  0  0  0  0  0  0  0  0  0  0
   -6.5939    1.6761    0.6748 O   0  0  0  0  0  0  0  0  0  0  0  0
   -7.6639    1.5261    1.1549 O   0  0  0  0  0  0  0  0  0  0  0  0
   -6.7185    0.6905   -0.9447 C   0  0  0  0  0  0  0  0  0  0  0  0
   -5.1576    0.2678    3.0408 O   0  0  0  0  0  0  0  0  0  0  0  0
   -4.5293   -0.6517    1.3799 C   0  0  0  0  0  0  0  0  0  0  0  0
   -5.8342    0.4701   -2.0014 H   0  0  0  0  0  0  0  0  0  0  0  0
   -4.8389   -1.2417    4.6487 H   0  0  0  0  0  0  0  0  0  0  0  0
   -3.0458   -1.6231    2.3830 H   0  0  0  0  0  0  0  0  0  0  0  0
   -0.2125   -4.4337   -3.1900 H   0  0  0  0  0  0  0  0  0  0  0  0
    0.4478   -7.1712   -4.7277 H   0  0  0  0  0  0  0  0  0  0  0  0
   -0.7536   -6.5967   -5.2665 H   0  0  0  0  0  0  0  0  0  0  0  0
   -0.2519   -6.7915   -5.4477 H   0  0  0  0  0  0  0  0  0  0  0  0
   -4.9650    0.2454    0.8849 H   0  0  0  0  0  0  0  0  0  0  0  0
   -6.7452   -2.8421    7.2387 H   0  0  0  0  0  0  0  0  0  0  0  0
   -7.1086   -3.8118    4.9415 H   0  0  0  0  0  0  0  0  0  0  0  0
   -7.4433   -7.2799    5.0934 H   0  0  0  0  0  0  0  0  0  0  0  0
   -7.4290   -5.9396    3.9341 H   0  0  0  0  0  0  0  0  0  0  0  0
   -5.0225   -6.6119    3.3965 H   0  0  0  0  0  0  0  0  0  0  0  0
   -3.8739   -8.9922    2.5251 H   0  0  0  0  0  0  0  0  0  0  0  0
   -3.2080   -9.6436    4.9867 H   0  0  0  0  0  0  0  0  0  0  0  0
   -2.6092  -11.0328    4.8669 H   0  0  0  0  0  0  0  0  0  0  0  0
   -5.1215   -6.1983    2.3378 H   0  0  0  0  0  0  0  0  0  0  0  0
   -6.6722   -7.0475    2.1991 H   0  0  0  0  0  0  0  0  0  0  0  0
   -6.9329   -8.0035    0.0786 H   0  0  0  0  0  0  0  0  0  0  0  0
   -7.4200  -10.2319   -0.9142 H   0  0  0  0  0  0  0  0  0  0  0  0
   -4.9316  -11.2143   -1.7681 H   0  0  0  0  0  0  0  0  0  0  0  0
   -4.7102  -14.2154   -2.5292 H   0  0  0  0  0  0  0  0  0  0  0  0
   -3.0255  -13.7375   -0.0706 H   0  0  0  0  0  0  0  0  0  0  0  0
   -1.3932  -14.5297   -1.3571 H   0  0  0  0  0  0  0  0  0  0  0  0
   -2.2436  -16.0652   -1.2746 H   0  0  0  0  0  0  0  0  0  0  0  0
   -2.5189  -14.9822   -2.6278 H   0  0  0  0  0  0  0  0  0  0  0  0
   -2.9936  -11.9788   -1.8747 H   0  0  0  0  0  0  0  0  0  0  0  0
   -1.9383  -10.8205   -3.7838 H   0  0  0  0  0  0  0  0  0  0  0  0
   -0.6660  -12.6712   -4.7634 H   0  0  0  0  0  0  0  0  0  0  0  0
    0.7903  -12.5002   -6.8305 H   0  0  0  0  0  0  0  0  0  0  0  0
   -0.1892  -12.9207  -10.6562 H   0  0  0  0  0  0  0  0  0  0  0  0
    1.4930  -12.7591  -10.2402 H   0  0  0  0  0  0  0  0  0  0  0  0
    0.1046  -15.0739   -9.6845 H   0  0  0  0  0  0  0  0  0  0  0  0
    1.4474  -14.5455   -8.7391 H   0  0  0  0  0  0  0  0  0  0  0  0
   -0.3458  -14.6874   -7.0582 H   0  0  0  0  0  0  0  0  0  0  0  0
   -1.5026  -14.0393   -8.1472 H   0  0  0  0  0  0  0  0  0  0  0  0
    1.1986   -9.1554  -10.5119 H   0  0  0  0  0  0  0  0  0  0  0  0
    0.5940  -10.6792  -11.1847 H   0  0  0  0  0  0  0  0  0  0  0  0
   -1.7227   -9.6312  -11.0526 H   0  0  0  0  0  0  0  0  0  0  0  0
   -2.8267   -7.6602  -11.8524 H   0  0  0  0  0  0  0  0  0  0  0  0
   -2.5095   -6.0999   -9.9458 H   0  0  0  0  0  0  0  0  0  0  0  0
   -2.9069   -4.2059   -8.8908 H   0  0  0  0  0  0  0  0  0  0  0  0
   -2.8488   -6.0467   -6.1037 H   0  0  0  0  0  0  0  0  0  0  0  0
   -4.5039  -12.7334    0.7995 H   0  0  0  0  0  0  0  0  0  0  0  0
   -4.9800  -11.9796    0.5748 H   0  0  0  0  0  0  0  0  0  0  0  0
   -1.3071  -12.2143    0.4702 H   0  0  0  0  0  0  0  0  0  0  0  0
   -3.5590  -10.5476    0.4153 H   0  0  0  0  0  0  0  0  0  0  0  0
   -3.6801  -10.1790   -2.0996 H   0  0  0  0  0  0  0  0  0  0  0  0
   -2.0926   -8.3256   -2.3485 H   0  0  0  0  0  0  0  0  0  0  0  0
   -1.1817   -7.3917   -4.2368 H   0  0  0  0  0  0  0  0  0  0  0  0
    0.2122   -9.2142   -5.2939 H   0  0  0  0  0  0  0  0  0  0  0  0
    1.4110   -9.6527   -7.3055 H   0  0  0  0  0  0  0  0  0  0  0  0
    1.2247  -10.3113   -9.4771 H   0  0  0  0  0  0  0  0  0  0  0  0
   -0.3920  -10.6246   -8.2890 H   0  0  0  0  0  0  0  0  0  0  0  0
    2.1420   -8.0331   -8.5884 H   0  0  0  0  0  0  0  0  0  0  0  0
    1.0832   -7.3155   -9.0085 H   0  0  0  0  0  0  0  0  0  0  0  0
   -1.6842   -6.4233   -6.4936 H   0  0  0  0  0  0  0  0  0  0  0  0
   -2.8204   -7.7848   -6.7962 H   0  0  0  0  0  0  0  0  0  0  0  0
   -4.1967   -5.8333   -5.9155 H   0  0  0  0  0  0  0  0  0  0  0  0
   -4.5374   -7.0384   -4.4905 H   0  0  0  0  0  0  0  0  0  0  0  0
   -3.7328   -5.0514   -3.5950 H   0  0  0  0  0  0  0  0  0  0  0  0
   -2.3601   -6.1321   -3.4791 H   0  0  0  0  0  0  0  0  0  0  0  0
   -1.6672   -3.8372   -4.0735 H   0  0  0  0  0  0  0  0  0  0  0  0
   -1.3262   -4.9259   -5.3996 H   0  0  0  0  0  0  0  0  0  0  0  0
   -2.3027   -2.9790   -6.1898 H   0  0  0  0  0  0  0  0  0  0  0  0
   -3.2844   -4.2758   -6.4524 H   0  0  0  0  0  0  0  0  0  0  0  0
   -4.1811  -10.3927   -3.7777 H   0  0  0  0  0  0  0  0  0  0  0  0
   -3.3760  -11.2631   -3.8055 H   0  0  0  0  0  0  0  0  0  0  0  0
   -5.3417  -12.7884   -3.4693 H   0  0  0  0  0  0  0  0  0  0  0  0
   -4.4662  -12.3965   -2.0215 H   0  0  0  0  0  0  0  0  0  0  0  0
   -4.3821   -9.6463   -0.7939 H   0  0  0  0  0  0  0  0  0  0  0  0
   -6.3356   -9.6846   -0.5882 H   0  0  0  0  0  0  0  0  0  0  0  0
   -2.2320  -10.3841    2.5234 H   0  0  0  0  0  0  0  0  0  0  0  0
   -0.9039  -10.0739    1.6185 H   0  0  0  0  0  0  0  0  0  0  0  0
   -6.2006  -15.1424    1.1969 H   0  0  0  0  0  0  0  0  0  0  0  0
   -6.4805  -14.4105    0.3722 H   0  0  0  0  0  0  0  0  0  0  0  0
   -4.0126   -2.0348  -10.2268 H   0  0  0  0  0  0  0  0  0  0  0  0
   -3.6110   -2.6814  -11.3179 H   0  0  0  0  0  0  0  0  0  0  0  0
   -2.5941   -5.9359  -13.5897 H   0  0  0  0  0  0  0  0  0  0  0  0
   -0.8836   -5.7674  -13.1949 H   0  0  0  0  0  0  0  0  0  0  0  0
   -2.0351   -9.0244  -12.7810 H   0  0  0  0  0  0  0  0  0  0  0  0
   -1.9058  -10.8695  -14.3378 H   0  0  0  0  0  0  0  0  0  0  0  0
   -0.8845  -10.5373  -16.5589 H   0  0  0  0  0  0  0  0  0  0  0  0
   -0.7040   -8.2657  -17.3275 H   0  0  0  0  0  0  0  0  0  0  0  0
   -0.3831   -6.4120  -15.6600 H   0  0  0  0  0  0  0  0  0  0  0  0
   -2.6252   -9.9237   -6.1821 H   0  0  0  0  0  0  0  0  0  0  0  0
   -3.7481  -11.3223   -6.3268 H   0  0  0  0  0  0  0  0  0  0  0  0
   -4.1274   -8.3322   -5.6385 H   0  0  0  0  0  0  0  0  0  0  0  0
   -5.9685   -7.0043   -4.5352 H   0  0  0  0  0  0  0  0  0  0  0  0
   -7.3655   -8.2452   -2.9571 H   0  0  0  0  0  0  0  0  0  0  0  0
   -7.2133  -10.4857   -3.0927 H   0  0  0  0  0  0  0  0  0  0  0  0
   -5.0736  -11.5383   -3.9656 H   0  0  0  0  0  0  0  0  0  0  0  0
   -8.0498  -12.6501    0.0158 H   0  0  0  0  0  0  0  0  0  0  0  0
   -6.8130  -12.1767    1.1738 H   0  0  0  0  0  0  0  0  0  0  0  0
   -8.9320   -9.9401   -0.7688 H   0  0  0  0  0  0  0  0  0  0  0  0
  -10.8438   -8.7387    0.1044 H   0  0  0  0  0  0  0  0  0  0  0  0
  -11.2905   -8.7164    2.5308 H   0  0  0  0  0  0  0  0  0  0  0  0
  -10.2294  -10.4375    3.8331 H   0  0  0  0  0  0  0  0  0  0  0  0
   -8.0067  -11.3459    3.1196 H   0  0  0  0  0  0  0  0  0  0  0  0
   -5.3915   -9.1887    2.2679 H   0  0  0  0  0  0  0  0  0  0  0  0
   -3.2103   -6.7189    3.1693 H   0  0  0  0  0  0  0  0  0  0  0  0
   -2.8819   -8.3620    3.7524 H   0  0  0  0  0  0  0  0  0  0  0  0
   -2.8816   -8.0796    1.9269 H   0  0  0  0  0  0  0  0  0  0  0  0
   -6.7898   -8.1726    4.1560 H   0  0  0  0  0  0  0  0  0  0  0  0
   -4.9767   -8.6190    5.0880 H   0  0  0  0  0  0  0  0  0  0  0  0
   -5.2738   -6.9167    4.7850 H   0  0  0  0  0  0  0  0  0  0  0  0
   -1.1181  -13.4066    4.6057 H   0  0  0  0  0  0  0  0  0  0  0  0
   -1.8518  -13.6317    3.5031 H   0  0  0  0  0  0  0  0  0  0  0  0
   -4.6525  -11.2532    2.1378 H   0  0  0  0  0  0  0  0  0  0  0  0
   -5.1240   -9.5926   -1.5767 H   0  0  0  0  0  0  0  0  0  0  0  0
   -6.8322   -9.3151    1.9819 H   0  0  0  0  0  0  0  0  0  0  0  0
   -5.7200   -4.8907    8.1356 H   0  0  0  0  0  0  0  0  0  0  0  0
   -4.2981   -4.6146    7.1267 H   0  0  0  0  0  0  0  0  0  0  0  0
   -3.4152   -1.9662    7.3769 H   0  0  0  0  0  0  0  0  0  0  0  0
   -3.2508   -1.5248    9.0679 H   0  0  0  0  0  0  0  0  0  0  0  0
   -6.2055   -2.4498   -8.4466 H   0  0  0  0  0  0  0  0  0  0  0  0
   -6.3512   -2.5323   -8.3760 H   0  0  0  0  0  0  0  0  0  0  0  0
   -5.4935   -2.7083  -11.8527 H   0  0  0  0  0  0  0  0  0  0  0  0
   -5.3135   -3.0673  -11.6895 H   0  0  0  0  0  0  0  0  0  0  0  0
   -6.8196   -1.7837  -13.2797 H   0  0  0  0  0  0  0  0  0  0  0  0
   -5.0985   -1.5879  -12.9100 H   0  0  0  0  0  0  0  0  0  0  0  0
   -7.2011   -3.3842  -11.6043 H   0  0  0  0  0  0  0  0  0  0  0  0
   -6.6621   -1.7936  -10.9252 H   0  0  0  0  0  0  0  0  0  0  0  0
   -4.7632   -4.3882  -11.6943 H   0  0  0  0  0  0  0  0  0  0  0  0
   -8.5539    2.1542    2.6666 H   0  0  0  0  0  0  0  0  0  0  0  0
  1131  1  0  0  0  0
  1  7  1  0  0  0  0
  1141  1  6  0  0  0
  1138  1  0  0  0  0
  2  8  1  0  0  0  0
  2  3  1  0  0  0  0
  2142  1  0  0  0  0
  3  4  1  0  0  0  0
  3140  1  0  0  0  0
  3143  1  6  0  0  0
  4  5  1  0  0  0  0
  4  6  1  0  0  0  0
  4144  1  6  0  0  0
  5145  1  0  0  0  0
  5146  1  0  0  0  0
  5147  1  0  0  0  0
  7148  1  0  0  0  0
  8  9  1  0  0  0  0
  8130  2  0  0  0  0
  9126  1  0  0  0  0
  9149  1  1  0  0  0
 10  9  1  0  0  0  0
 10 11  1  0  0  0  0
 10150  1  0  0  0  0
 11 12  1  0  0  0  0
 11125  2  0  0  0  0
 12151  1  0  0  0  0
 12152  1  0  0  0  0
 13 12  1  0  0  0  0
 13 14  1  0  0  0  0
 13153  1  0  0  0  0
 14 15  1  0  0  0  0
 14124  2  0  0  0  0
 15 16  1  0  0  0  0
 15154  1  6  0  0  0
 16 17  1  0  0  0  0
 16155  1  0  0  0  0
 17 18  1  0  0  0  0
 17118  2  0  0  0  0
 18116  1  0  0  0  0
 18156  1  6  0  0  0
 19 18  1  0  0  0  0
 19 20  1  0  0  0  0
 19157  1  0  0  0  0
 20 21  1  0  0  0  0
 20115  2  0  0  0  0
 21158  1  1  0  0  0
 21112  1  0  0  0  0
 22 21  1  0  0  0  0
 22 23  1  0  0  0  0
 22159  1  0  0  0  0
 23 24  1  0  0  0  0
 23111  2  0  0  0  0
 24160  1  6  0  0  0
 24104  1  0  0  0  0
 25 24  1  0  0  0  0
 25 26  1  0  0  0  0
 25161  1  0  0  0  0
 26 27  1  0  0  0  0
 26103  2  0  0  0  0
 27 28  1  0  0  0  0
 27 31  1  0  0  0  0
 27162  1  1  0  0  0
 28 30  1  0  0  0  0
 28163  1  1  0  0  0
 28 29  1  0  0  0  0
 29164  1  0  0  0  0
 29165  1  0  0  0  0
 29166  1  0  0  0  0
 31 32  1  0  0  0  0
 31167  1  0  0  0  0
 32 33  1  0  0  0  0
 32102  2  0  0  0  0
 33 95  1  0  0  0  0
 33168  1  1  0  0  0
 34 33  1  0  0  0  0
 34 35  1  0  0  0  0
 34169  1  0  0  0  0
 35 94  2  0  0  0  0
 36 35  1  0  0  0  0
 36 40  1  0  0  0  0
 36170  1  6  0  0  0
 37 36  1  0  0  0  0
 37 38  1  0  0  0  0
 37 41  1  0  0  0  0
 38171  1  0  0  0  0
 38172  1  0  0  0  0
 39 38  1  0  0  0  0
 39173  1  0  0  0  0
 39174  1  0  0  0  0
 40 39  1  0  0  0  0
 40175  1  0  0  0  0
 40176  1  0  0  0  0
 41 42  1  0  0  0  0
 41 93  2  0  0  0  0
 42177  1  0  0  0  0
 42178  1  0  0  0  0
 43 42  1  0  0  0  0
 43 44  1  0  0  0  0
 43179  1  0  0  0  0
 44 45  1  0  0  0  0
 44 92  2  0  0  0  0
 45 46  1  0  0  0  0
 45 85  1  0  0  0  0
 45180  1  6  0  0  0
 46 47  1  0  0  0  0
 46181  1  0  0  0  0
 47 48  1  0  0  0  0
 47 84  2  0  0  0  0
 48 49  1  0  0  0  0
 48 83  1  0  0  0  0
 48182  1  6  0  0  0
 49 50  1  0  0  0  0
 49183  1  0  0  0  0
 50 51  1  0  0  0  0
 50 82  2  0  0  0  0
 51 52  1  0  0  0  0
 51 81  1  0  0  0  0
 51184  1  6  0  0  0
 52 53  1  0  0  0  0
 52185  1  0  0  0  0
 53 54  1  0  0  0  0
 53 80  2  0  0  0  0
 54 55  1  0  0  0  0
 54 79  1  0  0  0  0
 54186  1  1  0  0  0
 55 56  1  0  0  0  0
 55187  1  0  0  0  0
 56 57  1  0  0  0  0
 56 78  2  0  0  0  0
 57 58  1  0  0  0  0
 57 73  1  0  0  0  0
 57188  1  1  0  0  0
 58 59  1  0  0  0  0
 58189  1  0  0  0  0
 59 60  1  0  0  0  0
 59 72  2  0  0  0  0
 60 61  1  0  0  0  0
 60 67  1  0  0  0  0
 60190  1  1  0  0  0
 61 62  1  0  0  0  0
 61191  1  0  0  0  0
 62 63  1  0  0  0  0
 62 66  2  0  0  0  0
 63 64  1  0  0  0  0
 63 65  1  0  0  0  0
 63192  1  1  0  0  0
 64193  1  0  0  0  0
 64194  1  0  0  0  0
 65  6  1  0  0  0  0
 65195  1  0  0  0  0
 65196  1  0  0  0  0
 67 68  1  0  0  0  0
 67197  1  0  0  0  0
 67198  1  0  0  0  0
 68 69  1  0  0  0  0
 68199  1  0  0  0  0
 68200  1  0  0  0  0
 69 70  1  0  0  0  0
 69201  1  0  0  0  0
 69202  1  0  0  0  0
 70 71  1  0  0  0  0
 70203  1  0  0  0  0
 70204  1  0  0  0  0
 71205  1  0  0  0  0
 71206  1  0  0  0  0
 73 74  1  0  0  0  0
 73207  1  0  0  0  0
 73208  1  0  0  0  0
 74 75  1  0  0  0  0
 74209  1  0  0  0  0
 74210  1  0  0  0  0
 75 76  2  0  0  0  0
 75 77  1  0  0  0  0
 77211  1  0  0  0  0
 77212  1  0  0  0  0
 79117  1  0  0  0  0
 79213  1  0  0  0  0
 79214  1  0  0  0  0
 81 30  1  0  0  0  0
 81215  1  0  0  0  0
 81216  1  0  0  0  0
 83135  1  0  0  0  0
 83217  1  0  0  0  0
 83218  1  0  0  0  0
 85 86  1  0  0  0  0
 85219  1  0  0  0  0
 85220  1  0  0  0  0
 86 87  1  0  0  0  0
 86 91  2  0  0  0  0
 87 88  2  0  0  0  0
 87221  1  0  0  0  0
 88 89  1  0  0  0  0
 88222  1  0  0  0  0
 89 90  2  0  0  0  0
 89223  1  0  0  0  0
 90 91  1  0  0  0  0
 90224  1  0  0  0  0
 91225  1  0  0  0  0
 95 96  1  0  0  0  0
 95226  1  0  0  0  0
 95227  1  0  0  0  0
 96 97  1  0  0  0  0
 96101  2  0  0  0  0
 97 98  2  0  0  0  0
 97228  1  0  0  0  0
 98 99  1  0  0  0  0
 98229  1  0  0  0  0
 99100  2  0  0  0  0
 99230  1  0  0  0  0
100101  1  0  0  0  0
100231  1  0  0  0  0
101232  1  0  0  0  0
104105  1  0  0  0  0
104233  1  0  0  0  0
104234  1  0  0  0  0
105106  1  0  0  0  0
105110  2  0  0  0  0
106107  2  0  0  0  0
106235  1  0  0  0  0
107108  1  0  0  0  0
107236  1  0  0  0  0
108109  2  0  0  0  0
108237  1  0  0  0  0
109110  1  0  0  0  0
109238  1  0  0  0  0
110239  1  0  0  0  0
112113  1  0  0  0  0
112114  1  0  0  0  0
112240  1  0  0  0  0
113241  1  0  0  0  0
113242  1  0  0  0  0
113243  1  0  0  0  0
114244  1  0  0  0  0
114245  1  0  0  0  0
114246  1  0  0  0  0
116117  1  0  0  0  0
116247  1  0  0  0  0
116248  1  0  0  0  0
119123  1  0  0  0  0
119249  1  1  0  0  0
119120  1  0  0  0  0
119 15  1  0  0  0  0
120121  2  0  0  0  0
120122  1  0  0  0  0
122250  1  0  0  0  0
123251  1  0  0  0  0
126127  1  0  0  0  0
126252  1  0  0  0  0
126253  1  0  0  0  0
127128  2  0  0  0  0
127129  1  0  0  0  0
129254  1  0  0  0  0
129255  1  0  0  0  0
131132  1  0  0  0  0
131256  1  0  0  0  0
131257  1  0  0  0  0
132133  1  0  0  0  0
132258  1  0  0  0  0
132259  1  0  0  0  0
133134  1  0  0  0  0
133260  1  0  0  0  0
133261  1  0  0  0  0
134135  1  0  0  0  0
134262  1  0  0  0  0
134263  1  0  0  0  0
135264  1  0  0  0  0
137265  1  0  0  0  0
138136  2  0  0  0  0
138137  1  0  0  0  0
140139  2  0  0  0  0
140  7  1  0  0  0  0
M  END
>  <DRUGBANK_ID>
DB05029

>  <COMMON_NAME>
Lancovutide

>  <CAS_NUMBER>
1391-36-2

>  <UNII>
BPR0F3X56H

>  <SYNONYMS>
Duramycin; Lancovutide; Leucopeptin

$$$$
