
 OpenBabel10282417213D

 34 35  0  0  0  0  0  0  0  0999 V2000
   -0.2181    1.0703   -0.0069 N   0  0  0  0  0  0  0  0  0  0  0  0
   -0.5399    2.5034    0.0858 C   0  0  1  0  0  0  0  0  0  0  0  0
    1.0179   -0.6399   -0.0278 C   0  0  0  0  0  0  0  0  0  0  0  0
    1.0756    0.7048   -0.0503 N   0  0  0  0  0  0  0  0  0  0  0  0
   -0.2651   -1.1359    0.0193 N   0  0  0  0  0  0  0  0  0  0  0  0
   -1.2172    3.1351   -1.1332 C   0  0  1  0  0  0  0  0  0  0  0  0
   -1.4076    2.6997    1.2242 O   0  0  0  0  0  0  0  0  0  0  0  0
   -0.9984   -0.0493    0.0897 C   0  0  0  0  0  0  0  0  0  0  0  0
   -2.2501    4.1004   -0.5294 C   0  0  1  0  0  0  0  0  0  0  0  0
   -2.5119    3.5667    0.8993 C   0  0  1  0  0  0  0  0  0  0  0  0
    2.2064   -1.5062   -0.0217 C   0  0  0  0  0  0  0  0  0  0  0  0
    3.3703   -1.0852   -0.0176 O   0  0  0  0  0  0  0  0  0  0  0  0
   -0.4324    3.6525   -2.1881 O   0  0  0  0  0  0  0  0  0  0  0  0
    1.9744   -2.8560   -0.0113 N   0  0  0  0  0  0  0  0  0  0  0  0
   -1.6781    5.4131   -0.4792 O   0  0  0  0  0  0  0  0  0  0  0  0
   -3.8326    2.8008    1.2061 C   0  0  0  0  0  0  0  0  0  0  0  0
   -3.9221    1.4690    0.6555 O   0  0  0  0  0  0  0  0  0  0  0  0
   -3.4793    1.4308   -1.0164 P   0  0  0  0  0  0  0  0  0  0  0  0
   -4.2457    0.1359   -1.2310 O   0  0  0  0  0  0  0  0  0  0  0  0
   -4.5107    2.6465   -1.3392 O   0  0  0  0  0  0  0  0  0  0  0  0
   -3.0365    1.3926   -2.6883 O   0  0  0  0  0  0  0  0  0  0  0  0
    0.3967    3.0353    0.2592 H   0  0  0  0  0  0  0  0  0  0  0  0
   -1.6265    2.3039   -1.6411 H   0  0  0  0  0  0  0  0  0  0  0  0
   -2.0641   -0.0932    0.2366 H   0  0  0  0  0  0  0  0  0  0  0  0
   -3.1632    4.2584   -1.1032 H   0  0  0  0  0  0  0  0  0  0  0  0
   -2.4892    4.4141    1.5965 H   0  0  0  0  0  0  0  0  0  0  0  0
   -0.1446    4.5536   -1.9949 H   0  0  0  0  0  0  0  0  0  0  0  0
    1.0344   -3.2344   -0.0133 H   0  0  0  0  0  0  0  0  0  0  0  0
    2.7751   -3.4700   -0.0160 H   0  0  0  0  0  0  0  0  0  0  0  0
   -0.7866    5.3560   -0.1045 H   0  0  0  0  0  0  0  0  0  0  0  0
   -3.9585    2.6846    2.2885 H   0  0  0  0  0  0  0  0  0  0  0  0
   -4.6988    3.3904    0.8789 H   0  0  0  0  0  0  0  0  0  0  0  0
   -5.4076    2.5165   -0.9780 H   0  0  0  0  0  0  0  0  0  0  0  0
   -3.8250    1.0431   -3.1490 H   0  0  0  0  0  0  0  0  0  0  0  0
  2  1  1  0  0  0  0
  2 22  1  1  0  0  0
  3  4  2  0  0  0  0
  3  5  1  0  0  0  0
  4  1  1  0  0  0  0
  5  8  2  0  0  0  0
  6  2  1  0  0  0  0
  6 13  1  0  0  0  0
  6 23  1  6  0  0  0
  7  2  1  0  0  0  0
  8  1  1  0  0  0  0
  8 24  1  0  0  0  0
  9  6  1  0  0  0  0
  9 15  1  0  0  0  0
  9 25  1  6  0  0  0
 10  7  1  0  0  0  0
 10  9  1  0  0  0  0
 10 26  1  1  0  0  0
 10 16  1  0  0  0  0
 11  3  1  0  0  0  0
 12 11  2  0  0  0  0
 13 27  1  0  0  0  0
 14 11  1  0  0  0  0
 14 28  1  0  0  0  0
 14 29  1  0  0  0  0
 15 30  1  0  0  0  0
 16 31  1  0  0  0  0
 16 32  1  0  0  0  0
 17 16  1  0  0  0  0
 17 18  1  0  0  0  0
 18 19  2  0  0  0  0
 18 20  1  0  0  0  0
 18 21  1  0  0  0  0
 20 33  1  0  0  0  0
 21 34  1  0  0  0  0
M  END
>  <DRUGBANK_ID>
DB14663

>  <SECONDARY_ACCESSION_NUMBERS>
DBSALT001876

>  <COMMON_NAME>
Ribavirin monophosphate

>  <CAS_NUMBER>
40925-28-8

>  <UNII>
O9FVV27P11

>  <SYNONYMS>
Ribavirin 5'-monophosphate; Virazole 5'-phosphate

$$$$
