
 OpenBabel10282417223D

 62 66  0  0  0  0  0  0  0  0999 V2000
   -1.2406    0.2707   -0.9642 C   0  0  2  0  0  0  0  0  0  0  0  0
   -1.4907   -1.1394   -0.0922 C   0  0  2  0  0  0  0  0  0  0  0  0
   -2.2463    0.9152    1.1760 C   0  0  1  0  0  0  0  0  0  0  0  0
    0.2756    0.4069   -0.6781 C   0  0  0  0  0  0  0  0  0  0  0  0
   -2.1838    1.2943   -0.3122 C   0  0  1  0  0  0  0  0  0  0  0  0
   -1.3811   -0.3888    1.3364 C   0  0  1  0  0  0  0  0  0  0  0  0
   -0.2765   -1.8697   -0.4524 O   0  0  0  0  0  0  0  0  0  0  0  0
    0.7084   -0.9104   -0.4806 C   0  0  0  0  0  0  0  0  0  0  0  0
    1.1540    1.4535   -0.3224 C   0  0  0  0  0  0  0  0  0  0  0  0
   -1.9346    2.0214    2.2225 C   0  0  0  0  0  0  0  0  0  0  0  0
   -2.6205   -2.3058    0.0660 C   0  0  0  0  0  0  0  0  0  0  0  0
    1.9412   -1.2569    0.0133 C   0  0  0  0  0  0  0  0  0  0  0  0
    2.4141    1.0995    0.2172 C   0  0  0  0  0  0  0  0  0  0  0  0
    2.8036   -0.2426    0.3853 C   0  0  0  0  0  0  0  0  0  0  0  0
   -1.5080   -1.1953    2.5967 C   0  0  0  0  0  0  0  0  0  0  0  0
   -1.4012    0.2185   -2.3810 O   0  0  0  0  0  0  0  0  0  0  0  0
   -2.1879    1.9339    3.4062 O   0  0  0  0  0  0  0  0  0  0  0  0
   -1.8869    2.6604   -0.5733 O   0  0  0  0  0  0  0  0  0  0  0  0
   -3.9419   -2.1002    0.5175 C   0  0  0  0  0  0  0  0  0  0  0  0
   -2.2672   -3.7045    0.0997 C   0  0  0  0  0  0  0  0  0  0  0  0
    0.7443    2.7592   -0.4056 O   0  0  0  0  0  0  0  0  0  0  0  0
   -4.3986   -4.5072    1.0283 C   0  0  0  0  0  0  0  0  0  0  0  0
   -3.1448   -4.7755    0.5102 C   0  0  0  0  0  0  0  0  0  0  0  0
   -4.7812   -3.1621    1.0286 C   0  0  0  0  0  0  0  0  0  0  0  0
    4.0209   -0.4586    0.9772 O   0  0  0  0  0  0  0  0  0  0  0  0
   -5.2933   -5.4131    1.5454 O   0  0  0  0  0  0  0  0  0  0  0  0
   -0.6369   -2.2520    2.8832 C   0  0  0  0  0  0  0  0  0  0  0  0
   -2.4012   -0.7848    3.5810 C   0  0  0  0  0  0  0  0  0  0  0  0
    1.6687    3.7967   -0.0398 C   0  0  0  0  0  0  0  0  0  0  0  0
    4.3819   -1.8325    1.1334 C   0  0  0  0  0  0  0  0  0  0  0  0
   -4.9412   -6.8018    1.5686 C   0  0  0  0  0  0  0  0  0  0  0  0
   -0.7521   -2.9192    4.1006 C   0  0  0  0  0  0  0  0  0  0  0  0
   -2.3406   -1.2827    4.8631 C   0  0  0  0  0  0  0  0  0  0  0  0
   -1.5849   -2.4140    5.0989 C   0  0  0  0  0  0  0  0  0  0  0  0
   -1.4434    3.2313    1.8437 N   0  0  0  0  0  0  0  0  0  0  0  0
   -3.2975    0.6501    1.3407 H   0  0  0  0  0  0  0  0  0  0  0  0
   -3.1735    1.1661   -0.7665 H   0  0  0  0  0  0  0  0  0  0  0  0
   -0.3670   -0.0060    1.4936 H   0  0  0  0  0  0  0  0  0  0  0  0
    2.1216   -2.3037    0.2166 H   0  0  0  0  0  0  0  0  0  0  0  0
    3.1115    1.8537    0.5757 H   0  0  0  0  0  0  0  0  0  0  0  0
   -0.5459    0.4625   -2.7898 H   0  0  0  0  0  0  0  0  0  0  0  0
   -2.3367    3.1851    0.1204 H   0  0  0  0  0  0  0  0  0  0  0  0
   -4.3686   -1.1062    0.5652 H   0  0  0  0  0  0  0  0  0  0  0  0
   -1.2509   -4.0272   -0.1287 H   0  0  0  0  0  0  0  0  0  0  0  0
   -2.7995   -5.8054    0.4398 H   0  0  0  0  0  0  0  0  0  0  0  0
   -5.7533   -2.9159    1.4609 H   0  0  0  0  0  0  0  0  0  0  0  0
    0.1237   -2.5697    2.1729 H   0  0  0  0  0  0  0  0  0  0  0  0
   -3.1322   -0.0101    3.3966 H   0  0  0  0  0  0  0  0  0  0  0  0
    1.8993    3.7671    1.0325 H   0  0  0  0  0  0  0  0  0  0  0  0
    2.5864    3.7583   -0.6373 H   0  0  0  0  0  0  0  0  0  0  0  0
    1.1957    4.7669   -0.2342 H   0  0  0  0  0  0  0  0  0  0  0  0
    3.7183   -2.3314    1.8506 H   0  0  0  0  0  0  0  0  0  0  0  0
    4.3753   -2.3556    0.1693 H   0  0  0  0  0  0  0  0  0  0  0  0
    5.3989   -1.8811    1.5273 H   0  0  0  0  0  0  0  0  0  0  0  0
   -4.8307   -7.1969    0.5537 H   0  0  0  0  0  0  0  0  0  0  0  0
   -4.0386   -6.9832    2.1620 H   0  0  0  0  0  0  0  0  0  0  0  0
   -5.7529   -7.3722    2.0451 H   0  0  0  0  0  0  0  0  0  0  0  0
   -0.1775   -3.8201    4.2843 H   0  0  0  0  0  0  0  0  0  0  0  0
   -2.9079   -0.7829    5.6404 H   0  0  0  0  0  0  0  0  0  0  0  0
   -1.6648   -2.9034    6.0609 H   0  0  0  0  0  0  0  0  0  0  0  0
   -0.7821    3.3264    1.0780 H   0  0  0  0  0  0  0  0  0  0  0  0
   -1.2864    3.8315    2.6481 H   0  0  0  0  0  0  0  0  0  0  0  0
  1 16  1  6  0  0  0
  2  1  1  0  0  0  0
  2 11  1  6  0  0  0
  3  5  1  0  0  0  0
  3  6  1  0  0  0  0
  3 36  1  1  0  0  0
  3 10  1  0  0  0  0
  4  1  1  0  0  0  0
  5  1  1  0  0  0  0
  5 37  1  6  0  0  0
  5 18  1  0  0  0  0
  6  2  1  0  0  0  0
  6 38  1  1  0  0  0
  6 15  1  0  0  0  0
  7  2  1  0  0  0  0
  7  8  1  0  0  0  0
  8  4  1  0  0  0  0
  9  4  2  0  0  0  0
 12  8  2  0  0  0  0
 12 39  1  0  0  0  0
 13  9  1  0  0  0  0
 13 40  1  0  0  0  0
 14 12  1  0  0  0  0
 14 13  2  0  0  0  0
 16 41  1  0  0  0  0
 17 10  2  0  0  0  0
 18 42  1  0  0  0  0
 19 11  1  0  0  0  0
 19 43  1  0  0  0  0
 20 11  2  0  0  0  0
 20 44  1  0  0  0  0
 21  9  1  0  0  0  0
 22 23  2  0  0  0  0
 23 20  1  0  0  0  0
 23 45  1  0  0  0  0
 24 19  2  0  0  0  0
 24 22  1  0  0  0  0
 24 46  1  0  0  0  0
 25 14  1  0  0  0  0
 26 22  1  0  0  0  0
 27 15  1  0  0  0  0
 27 47  1  0  0  0  0
 28 15  2  0  0  0  0
 28 48  1  0  0  0  0
 29 21  1  0  0  0  0
 29 49  1  0  0  0  0
 29 50  1  0  0  0  0
 29 51  1  0  0  0  0
 30 25  1  0  0  0  0
 30 52  1  0  0  0  0
 30 53  1  0  0  0  0
 30 54  1  0  0  0  0
 31 26  1  0  0  0  0
 31 55  1  0  0  0  0
 31 56  1  0  0  0  0
 31 57  1  0  0  0  0
 32 27  2  0  0  0  0
 32 58  1  0  0  0  0
 33 28  1  0  0  0  0
 33 59  1  0  0  0  0
 34 32  1  0  0  0  0
 34 33  2  0  0  0  0
 34 60  1  0  0  0  0
 35 10  1  0  0  0  0
 35 61  1  0  0  0  0
 35 62  1  0  0  0  0
M  END
>  <DRUGBANK_ID>
DB15496

>  <COMMON_NAME>
Didesmethylrocaglamide

>  <SYNONYMS>
RocB

$$$$
