
 OpenBabel10282417243D

 21 20  0  0  1  0  0  0  0  0999 V2000
    1.0636    0.1524   -0.2613 N   0  0  0  0  0  0  0  0  0  0  0  0
    0.5446    0.1744   -1.6560 C   0  0  1  0  0  0  0  0  0  0  0  0
    0.9285   -1.1653   -2.2842 C   0  0  0  0  0  0  0  0  0  0  0  0
    0.4275   -2.4229   -1.5364 C   0  0  0  0  0  0  0  0  0  0  0  0
   -1.0711   -2.6267   -1.3621 C   0  0  0  0  0  0  0  0  0  0  0  0
   -1.6901   -3.3990   -2.0931 O   0  0  0  0  0  0  0  0  0  0  0  0
   -1.9340   -1.9091   -0.3444 C   0  0  0  0  0  0  0  0  0  0  0  0
   -1.5187   -0.9714    0.4539 N   0  3  0  0  0  0  0  0  0  0  0  0
   -1.2716   -0.0646    1.1320 N   0  5  0  0  0  0  0  0  0  0  0  0
   -0.9740    0.4574   -1.9655 C   0  0  0  0  0  0  0  0  0  0  0  0
   -1.4173    1.7222   -1.9550 O   0  0  0  0  0  0  0  0  0  0  0  0
   -1.7713   -0.3938   -2.3372 O   0  0  0  0  0  0  0  0  0  0  0  0
    0.7532   -0.6666    0.2697 H   0  0  0  0  0  0  0  0  0  0  0  0
    2.0804    0.0168   -0.2615 H   0  0  0  0  0  0  0  0  0  0  0  0
    1.0794    0.9984   -2.1309 H   0  0  0  0  0  0  0  0  0  0  0  0
    0.5866   -1.1734   -3.3260 H   0  0  0  0  0  0  0  0  0  0  0  0
    2.0271   -1.2185   -2.3305 H   0  0  0  0  0  0  0  0  0  0  0  0
    0.7753   -3.2773   -2.1426 H   0  0  0  0  0  0  0  0  0  0  0  0
    0.9163   -2.5680   -0.5700 H   0  0  0  0  0  0  0  0  0  0  0  0
   -3.0180   -2.0138   -0.4823 H   0  0  0  0  0  0  0  0  0  0  0  0
   -0.7789    2.3684   -2.2905 H   0  0  0  0  0  0  0  0  0  0  0  0
  1 13  1  0  0  0  0
  1 14  1  0  0  0  0
  2  1  1  0  0  0  0
  2  3  1  0  0  0  0
  2 10  1  0  0  0  0
  2 15  1  6  0  0  0
  3  4  1  0  0  0  0
  3 16  1  0  0  0  0
  3 17  1  0  0  0  0
  4  5  1  0  0  0  0
  4 18  1  0  0  0  0
  4 19  1  0  0  0  0
  5  6  2  0  0  0  0
  5  7  1  0  0  0  0
  7  8  2  0  0  0  0
  7 20  1  0  0  0  0
  8  9  2  0  0  0  0
 10 11  1  0  0  0  0
 10 12  2  0  0  0  0
 11 21  1  0  0  0  0
M  CHG  2   8   1   9  -1
M  END
>  <DRUGBANK_ID>
DB17537

>  <COMMON_NAME>
6-diazo-5-oxo-L-norleucine

>  <CAS_NUMBER>
157-03-9

>  <UNII>
03J0H273KZ

$$$$
