
 OpenBabel10282417213D

  3  0  0  0  0  0  0  0  0  0999 V2000
    0.9268   -0.0287   -0.0618 Sr  0  2  0  0  0  0  0  0  0  0  0  0
    0.9571    0.0892   -0.0142 Cl  0  5  0  0  0  0  0  0  0  0  0  0
    1.0374   -0.0747   -0.0549 Cl  0  5  0  0  0  0  0  0  0  0  0  0
M  CHG  3   1   2   2  -1   3  -1
M  END
>  <DRUGBANK_ID>
DB13987

>  <COMMON_NAME>
Strontium chloride

>  <CAS_NUMBER>
10476-85-4

>  <UNII>
EKE8PS9J6Z

>  <SYNONYMS>
strontium dichloride

$$$$
