
 OpenBabel10282417123D

 14 14  0  0  0  0  0  0  0  0999 V2000
    2.5000   -0.1134    0.0045 C   0  0  0  0  0  0  0  0  0  0  0  0
    1.0092   -0.0022    0.0020 C   0  0  0  0  0  0  0  0  0  0  0  0
    0.3615    1.2338    0.0040 C   0  0  0  0  0  0  0  0  0  0  0  0
   -1.0296    1.2819    0.0017 C   0  0  0  0  0  0  0  0  0  0  0  0
   -1.7281    0.0859   -0.0049 C   0  0  0  0  0  0  0  0  0  0  0  0
   -1.1381   -1.1280   -0.0045 N   0  0  0  0  0  0  0  0  0  0  0  0
    0.2138   -1.1439    0.0005 C   0  0  0  0  0  0  0  0  0  0  0  0
    2.8381   -0.6372    0.9043 H   0  0  0  0  0  0  0  0  0  0  0  0
    2.8398   -0.6614   -0.8802 H   0  0  0  0  0  0  0  0  0  0  0  0
    2.9753    0.8729   -0.0093 H   0  0  0  0  0  0  0  0  0  0  0  0
    0.9306    2.1596    0.0072 H   0  0  0  0  0  0  0  0  0  0  0  0
   -1.5563    2.2292    0.0046 H   0  0  0  0  0  0  0  0  0  0  0  0
   -2.8141    0.0723   -0.0109 H   0  0  0  0  0  0  0  0  0  0  0  0
    0.6557   -2.1369    0.0036 H   0  0  0  0  0  0  0  0  0  0  0  0
  1  2  1  0  0  0  0
  1  8  1  0  0  0  0
  1  9  1  0  0  0  0
  1 10  1  0  0  0  0
  2  3  2  0  0  0  0
  2  7  1  0  0  0  0
  3  4  1  0  0  0  0
  3 11  1  0  0  0  0
  4  5  2  0  0  0  0
  4 12  1  0  0  0  0
  5  6  1  0  0  0  0
  5 13  1  0  0  0  0
  6  7  2  0  0  0  0
  7 14  1  0  0  0  0
M  END
>  <DRUGBANK_ID>
DB01996

>  <SECONDARY_ACCESSION_NUMBERS>
EXPT00181

>  <COMMON_NAME>
3-Methylpyridine

>  <CAS_NUMBER>
108-99-6

>  <UNII>
B083J4KF7F

$$$$
