466
 OpenBabel10282417103D

 77 85  0  0  1  0  0  0  0  0999 V2000
   -0.9390    1.5130   -0.1400 O   0  0  0  0  0  0  0  0  0  0  0  0
   -0.9390    1.5130   -0.1400 O   0  0  0  0  0  0  0  0  0  0  0  0
    2.4700    0.0000    0.0040 O   0  0  0  0  0  0  0  0  0  0  0  0
    2.4700    0.0000    0.0040 O   0  0  0  0  0  0  0  0  0  0  0  0
   -1.1471   -1.8970    1.4912 O   0  0  0  0  0  0  0  0  0  0  0  0
   -2.9777   -2.7453   -1.7718 O   0  0  0  0  0  0  0  0  0  0  0  0
   -1.1471   -1.8970    1.4912 O   0  0  0  0  0  0  0  0  0  0  0  0
   -2.9777   -2.7453   -1.7718 O   0  0  0  0  0  0  0  0  0  0  0  0
    1.8736    2.4189    0.0189 O   0  0  0  0  0  0  0  0  0  0  0  0
    1.8736    2.4189    0.0189 O   0  0  0  0  0  0  0  0  0  0  0  0
    0.2105   -1.9351   -4.1835 O   0  0  0  0  0  0  0  0  0  0  0  0
   -2.5435   -4.4636    0.0534 O   0  0  0  0  0  0  0  0  0  0  0  0
   -2.5435   -4.4636    0.0534 O   0  0  0  0  0  0  0  0  0  0  0  0
    0.2860   -0.7000    0.0270 C   0  0  1  0  0  0  0  0  0  0  0  0
    0.2860    0.7000   -0.0370 C   0  0  1  0  0  0  0  0  0  0  0  0
    0.2860   -0.7000    0.0270 C   0  0  1  0  0  0  0  0  0  0  0  0
   -0.9390   -1.5130    0.1400 C   0  0  2  0  0  0  0  0  0  0  0  0
    0.2860    0.7000   -0.0370 C   0  0  1  0  0  0  0  0  0  0  0  0
   -2.1200    0.6760    0.3630 C   0  0  1  0  0  0  0  0  0  0  0  0
   -0.9390   -1.5130    0.1400 C   0  0  2  0  0  0  0  0  0  0  0  0
   -2.1200    0.6760    0.3630 C   0  0  3  0  0  0  0  0  0  0  0  0
    1.5390   -1.1930    0.0070 C   0  0  1  0  0  0  0  0  0  0  0  0
   -2.1220   -0.6760   -0.3580 C   0  0  0  0  0  0  0  0  0  0  0  0
   -0.8034   -2.7665   -0.7089 C   0  0  3  0  0  0  0  0  0  0  0  0
    1.5390   -1.1930    0.0070 C   0  0  1  0  0  0  0  0  0  0  0  0
   -2.1220   -0.6760   -0.3580 C   0  0  0  0  0  0  0  0  0  0  0  0
   -1.9427   -2.4604   -2.8798 C   0  0  3  0  0  0  0  0  0  0  0  0
   -0.5601   -2.4738   -2.2043 C   0  0  1  0  0  0  0  0  0  0  0  0
   -0.8034   -2.7665   -0.7089 C   0  0  3  0  0  0  0  0  0  0  0  0
   -1.9427   -2.4604   -2.8798 C   0  0  3  0  0  0  0  0  0  0  0  0
    1.5390    1.1930   -0.0030 C   0  0  0  0  0  0  0  0  0  0  0  0
   -0.5601   -2.4738   -2.2043 C   0  0  1  0  0  0  0  0  0  0  0  0
   -0.8817   -1.6546   -0.1617 C   0  0  0  0  0  0  0  0  0  0  0  0
    1.5390    1.1930   -0.0030 C   0  0  0  0  0  0  0  0  0  0  0  0
   -0.8817   -1.6546   -0.1617 C   0  0  0  0  0  0  0  0  0  0  0  0
   -2.1737   -3.4946   -0.6811 C   0  0  0  0  0  0  0  0  0  0  0  0
    0.1182   -1.1238   -2.3710 C   0  0  0  0  0  0  0  0  0  0  0  0
   -2.1737   -3.4946   -0.6811 C   0  0  0  0  0  0  0  0  0  0  0  0
    0.1182   -1.1238   -2.3710 C   0  0  0  0  0  0  0  0  0  0  0  0
   -0.7521    0.7467   -2.5143 C   0  0  0  0  0  0  0  0  0  0  0  0
    2.2034   -1.5714   -2.5937 C   0  0  0  0  0  0  0  0  0  0  0  0
   -0.3801   -0.1169   -4.1683 C   0  0  0  0  0  0  0  0  0  0  0  0
    1.2403    0.1053   -3.2231 C   0  0  0  0  0  0  0  0  0  0  0  0
   -3.0460    0.8481    0.8708 H   0  0  0  0  0  0  0  0  0  0  0  0
    1.6904   -1.7823   -0.8732 H   0  0  0  0  0  0  0  0  0  0  0  0
    1.6904   -1.7823   -0.8732 H   0  0  0  0  0  0  0  0  0  0  0  0
   -1.2379   -1.0795    2.0598 H   0  0  0  0  0  0  0  0  0  0  0  0
   -1.2379   -1.0795    2.0598 H   0  0  0  0  0  0  0  0  0  0  0  0
    1.1139   -2.2455   -4.3553 H   0  0  0  0  0  0  0  0  0  0  0  0
   -3.0460    0.8481    0.8708 H   0  0  0  0  0  0  0  0  0  0  0  0
   -3.0379   -1.1908   -0.1552 H   0  0  0  0  0  0  0  0  0  0  0  0
   -2.0312   -0.5196   -1.4126 H   0  0  0  0  0  0  0  0  0  0  0  0
    0.0219   -3.3191   -0.3110 H   0  0  0  0  0  0  0  0  0  0  0  0
   -3.0379   -1.1908   -0.1552 H   0  0  0  0  0  0  0  0  0  0  0  0
   -2.0312   -0.5196   -1.4126 H   0  0  0  0  0  0  0  0  0  0  0  0
   -2.1286   -1.5037   -3.3214 H   0  0  0  0  0  0  0  0  0  0  0  0
    0.0771   -3.2126   -2.6437 H   0  0  0  0  0  0  0  0  0  0  0  0
    0.0219   -3.3191   -0.3110 H   0  0  0  0  0  0  0  0  0  0  0  0
   -2.1286   -1.5037   -3.3214 H   0  0  0  0  0  0  0  0  0  0  0  0
    0.0771   -3.2126   -2.6437 H   0  0  0  0  0  0  0  0  0  0  0  0
   -1.6336   -1.4476    0.5709 H   0  0  0  0  0  0  0  0  0  0  0  0
   -1.2929   -1.5259   -1.1411 H   0  0  0  0  0  0  0  0  0  0  0  0
   -0.5405   -2.6624   -0.0478 H   0  0  0  0  0  0  0  0  0  0  0  0
   -1.6336   -1.4476    0.5709 H   0  0  0  0  0  0  0  0  0  0  0  0
   -1.2929   -1.5259   -1.1411 H   0  0  0  0  0  0  0  0  0  0  0  0
   -0.5405   -2.6624   -0.0478 H   0  0  0  0  0  0  0  0  0  0  0  0
   -0.9528    0.6117   -1.5895 H   0  0  0  0  0  0  0  0  0  0  0  0
   -0.1183    1.6413   -2.3665 H   0  0  0  0  0  0  0  0  0  0  0  0
   -1.8158    0.8376   -2.8045 H   0  0  0  0  0  0  0  0  0  0  0  0
    2.2989   -0.6726   -1.9384 H   0  0  0  0  0  0  0  0  0  0  0  0
    2.4700   -2.5745   -2.2842 H   0  0  0  0  0  0  0  0  0  0  0  0
    3.1950   -1.0586   -2.2743 H   0  0  0  0  0  0  0  0  0  0  0  0
   -0.4591    1.0826   -4.1941 H   0  0  0  0  0  0  0  0  0  0  0  0
    0.3614    0.0875   -5.0032 H   0  0  0  0  0  0  0  0  0  0  0  0
   -1.3868   -0.2921   -4.5343 H   0  0  0  0  0  0  0  0  0  0  0  0
    1.7795   -0.3964   -4.0719 H   0  0  0  0  0  0  0  0  0  0  0  0
    1.7963    0.8292   -2.6646 H   0  0  0  0  0  0  0  0  0  0  0  0
  1 19  1  0  0  0  0
  2 21  1  0  0  0  0
  3 22  1  0  0  0  0
  3 31  1  0  0  0  0
  4 25  1  0  0  0  0
  4 34  1  0  0  0  0
  5 47  1  0  0  0  0
  6 27  1  0  0  0  0
  6 36  1  0  0  0  0
  7 48  1  0  0  0  0
  8 30  1  0  0  0  0
  8 38  1  0  0  0  0
  9 31  2  0  0  0  0
 10 34  2  0  0  0  0
 11 37  1  0  0  0  0
 11 49  1  0  0  0  0
 12 36  2  0  0  0  0
 13 38  2  0  0  0  0
 14 15  1  0  0  0  0
 14 17  1  0  0  0  0
 14 22  1  0  0  0  0
 14 33  1  1  0  0  0
 15  1  1  1  0  0  0
 15 19  1  0  0  0  0
 15 31  1  0  0  0  0
 16 18  1  0  0  0  0
 16 20  1  0  0  0  0
 16 25  1  0  0  0  0
 16 35  1  1  0  0  0
 17  5  1  1  0  0  0
 17 23  1  0  0  0  0
 17 24  1  0  0  0  0
 18  2  1  1  0  0  0
 18 21  1  0  0  0  0
 18 34  1  0  0  0  0
 19 23  1  0  0  0  0
 19 44  1  6  0  0  0
 20  7  1  1  0  0  0
 20 26  1  0  0  0  0
 20 29  1  0  0  0  0
 21 26  1  0  0  0  0
 21 50  1  0  0  0  0
 22 27  1  0  0  0  0
 22 45  1  1  0  0  0
 23 51  1  0  0  0  0
 23 52  1  0  0  0  0
 24 28  1  0  0  0  0
 24 36  1  0  0  0  0
 24 53  1  0  0  0  0
 25 30  1  0  0  0  0
 25 46  1  1  0  0  0
 26 54  1  0  0  0  0
 26 55  1  0  0  0  0
 27 28  1  0  0  0  0
 27 56  1  0  0  0  0
 28 57  1  6  0  0  0
 28 37  1  0  0  0  0
 29 32  1  0  0  0  0
 29 38  1  0  0  0  0
 29 58  1  0  0  0  0
 30 32  1  0  0  0  0
 30 59  1  0  0  0  0
 32 60  1  6  0  0  0
 32 39  1  0  0  0  0
 33 61  1  0  0  0  0
 33 62  1  0  0  0  0
 33 63  1  0  0  0  0
 35 64  1  0  0  0  0
 35 65  1  0  0  0  0
 35 66  1  0  0  0  0
 37 40  1  0  0  0  0
 37 41  1  0  0  0  0
 39 42  1  0  0  0  0
 39 43  2  0  0  0  0
 40 67  1  0  0  0  0
 40 68  1  0  0  0  0
 40 69  1  0  0  0  0
 41 70  1  0  0  0  0
 41 71  1  0  0  0  0
 41 72  1  0  0  0  0
 42 73  1  0  0  0  0
 42 74  1  0  0  0  0
 42 75  1  0  0  0  0
 43 76  1  0  0  0  0
 43 77  1  0  0  0  0
M  END
>  <DRUGBANK_ID>
DB00466

>  <SECONDARY_ACCESSION_NUMBERS>
APRD00269

>  <COMMON_NAME>
Picrotoxin

>  <CAS_NUMBER>
124-87-8

>  <UNII>
ZLT174DL7U

>  <SYNONYMS>
cocculin

$$$$
