M3C
 OpenBabel10282417173D

 28 28  0  0  0  0  0  0  0  0999 V2000
    1.5662    0.0706    0.1584 N   0  0  0  0  0  0  0  0  0  0  0  0
    0.9589    1.1639   -0.5951 C   0  0  1  0  0  0  0  0  0  0  0  0
    1.2513    1.3264   -2.1134 C   0  0  0  0  0  0  0  0  0  0  0  0
    0.3478    0.4639   -3.0169 C   0  0  0  0  0  0  0  0  0  0  0  0
   -1.6882    1.2857   -3.2698 S   0  0  0  0  0  0  0  0  0  0  0  0
   -2.9996    0.9122   -1.4594 C   0  0  0  0  0  0  0  0  0  0  0  0
   -0.5285    0.9390   -0.4187 C   0  0  0  0  0  0  0  0  0  0  0  0
   -0.9916    1.0588    0.9091 O   0  0  0  0  0  0  0  0  0  0  0  0
   -1.0646    2.1689   -0.9871 O   0  0  0  0  0  0  0  0  0  0  0  0
   -1.0099   -0.7096   -1.1099 C   0  0  0  0  0  0  0  0  0  0  0  0
   -1.8317   -0.8704   -2.1414 N   0  0  0  0  0  0  0  0  0  0  0  0
   -2.1220   -2.0743   -2.7009 C   0  0  0  0  0  0  0  0  0  0  0  0
   -1.4879   -3.0145   -2.0575 C   0  0  0  0  0  0  0  0  0  0  0  0
   -0.5073   -2.3335   -0.7137 S   0  0  0  0  0  0  0  0  0  0  0  0
    1.2538    2.1163   -0.1218 H   0  0  0  0  0  0  0  0  0  0  0  0
    1.1634   -0.8138   -0.1501 H   0  0  0  0  0  0  0  0  0  0  0  0
    2.5641    0.0199    0.0403 H   0  0  0  0  0  0  0  0  0  0  0  0
    1.0627    2.3502   -2.4584 H   0  0  0  0  0  0  0  0  0  0  0  0
    2.3301    1.1681   -2.2692 H   0  0  0  0  0  0  0  0  0  0  0  0
    0.7821    0.4022   -4.0272 H   0  0  0  0  0  0  0  0  0  0  0  0
    0.5009   -0.5898   -2.7070 H   0  0  0  0  0  0  0  0  0  0  0  0
   -2.7746    0.1519   -0.6587 H   0  0  0  0  0  0  0  0  0  0  0  0
   -3.0946    1.7685   -0.7802 H   0  0  0  0  0  0  0  0  0  0  0  0
   -3.9460    0.4863   -1.7845 H   0  0  0  0  0  0  0  0  0  0  0  0
   -0.9541    0.1743    1.2772 H   0  0  0  0  0  0  0  0  0  0  0  0
   -0.7746    2.9797   -0.5382 H   0  0  0  0  0  0  0  0  0  0  0  0
   -2.8293   -2.0607   -3.5781 H   0  0  0  0  0  0  0  0  0  0  0  0
   -1.5455   -4.0980   -2.2802 H   0  0  0  0  0  0  0  0  0  0  0  0
  1 16  1  0  0  0  0
  1 17  1  0  0  0  0
  2  1  1  0  0  0  0
  2  3  1  0  0  0  0
  2  7  1  0  0  0  0
  2 15  1  1  0  0  0
  3  4  1  0  0  0  0
  3 18  1  0  0  0  0
  3 19  1  0  0  0  0
  4  5  1  0  0  0  0
  4 20  1  0  0  0  0
  4 21  1  0  0  0  0
  5  6  1  0  0  0  0
  6 22  1  0  0  0  0
  6 23  1  0  0  0  0
  6 24  1  0  0  0  0
  7  8  1  0  0  0  0
  7  9  1  0  0  0  0
  7 10  1  0  0  0  0
  8 25  1  0  0  0  0
  9 26  1  0  0  0  0
 10 11  2  0  0  0  0
 10 14  1  0  0  0  0
 11 12  1  0  0  0  0
 12 13  2  0  0  0  0
 12 27  1  0  0  0  0
 13 14  1  0  0  0  0
 13 28  1  0  0  0  0
M  END
>  <DRUGBANK_ID>
DB08160

>  <COMMON_NAME>
(2S)-2-AMINO-4-(METHYLSULFANYL)-1-(1,3-THIAZOL-2-YL)BUTANE-1,1-DIOL

$$$$
