
 OpenBabel10282417233D

 46 49  0  0  0  0  0  0  0  0999 V2000
    2.6720   -0.1356    0.0186 C   0  0  0  0  0  0  0  0  0  0  0  0
    1.2087    0.0554   -0.0287 C   0  0  0  0  0  0  0  0  0  0  0  0
    0.6834    1.3235   -0.0101 C   0  0  0  0  0  0  0  0  0  0  0  0
   -0.6848    1.4834   -0.0878 C   0  0  0  0  0  0  0  0  0  0  0  0
   -1.1182    2.4721    0.7823 N   0  0  0  0  0  0  0  0  0  0  0  0
   -2.7502    2.4172    0.9934 S   0  0  0  0  0  0  0  0  0  0  0  0
   -3.0962    3.2128    2.1078 O   0  0  0  0  0  0  0  0  0  0  0  0
   -2.8039    3.1141   -0.3315 O   0  0  0  0  0  0  0  0  0  0  0  0
   -3.8495    0.3769    0.9517 C   0  0  0  0  0  0  0  0  0  0  0  0
   -5.3666    0.0243    0.3947 C   0  0  0  0  0  0  0  0  0  0  0  0
   -6.0611   -1.1535    0.1852 C   0  0  0  0  0  0  0  0  0  0  0  0
   -5.2847   -2.2546    0.2485 C   0  0  0  0  0  0  0  0  0  0  0  0
   -6.0516   -3.7454   -0.0505 Cl  0  0  0  0  0  0  0  0  0  0  0  0
   -3.9158   -2.1055    0.5205 C   0  0  0  0  0  0  0  0  0  0  0  0
   -3.2731   -0.8422    0.9202 C   0  0  0  0  0  0  0  0  0  0  0  0
   -2.8779   -3.1124    0.0225 C   0  0  0  0  0  0  0  0  0  0  0  0
   -2.3080   -2.7923   -1.1770 F   0  0  0  0  0  0  0  0  0  0  0  0
   -1.8372   -3.1567    0.9101 F   0  0  0  0  0  0  0  0  0  0  0  0
   -3.3063   -4.3843   -0.1128 F   0  0  0  0  0  0  0  0  0  0  0  0
   -1.4832    0.5804   -0.7418 C   0  0  0  0  0  0  0  0  0  0  0  0
   -0.9241   -0.7100   -0.6818 N   0  0  0  0  0  0  0  0  0  0  0  0
    0.3242   -0.9744   -0.1708 C   0  0  0  0  0  0  0  0  0  0  0  0
   -3.1871    0.7662   -1.3241 C   0  0  0  0  0  0  0  0  0  0  0  0
   -3.5406   -0.1612   -2.0565 O   0  0  0  0  0  0  0  0  0  0  0  0
   -4.5618    1.9146   -0.8381 C   0  0  0  0  0  0  0  0  0  0  0  0
   -5.2683    2.3311    0.6775 C   0  0  0  0  0  0  0  0  0  0  0  0
   -5.5245    1.6926    2.1667 C   0  0  0  0  0  0  0  0  0  0  0  0
   -6.3636    2.5029    2.8496 C   0  0  0  0  0  0  0  0  0  0  0  0
   -6.3887    3.6557    2.1101 N   0  0  0  0  0  0  0  0  0  0  0  0
   -5.8402    3.5501    0.8267 C   0  0  0  0  0  0  0  0  0  0  0  0
   -5.7198    4.4809   -0.1246 N   0  0  0  0  0  0  0  0  0  0  0  0
   -5.1823    3.9997   -1.3127 C   0  0  0  0  0  0  0  0  0  0  0  0
   -4.8317    2.7837   -1.7966 N   0  0  0  0  0  0  0  0  0  0  0  0
    2.9585   -0.6656    0.9254 H   0  0  0  0  0  0  0  0  0  0  0  0
    2.9730   -0.6841   -0.8788 H   0  0  0  0  0  0  0  0  0  0  0  0
    3.1591    0.8451   -0.0036 H   0  0  0  0  0  0  0  0  0  0  0  0
    1.3044    2.2020    0.1367 H   0  0  0  0  0  0  0  0  0  0  0  0
   -1.0043    3.3453    0.2084 H   0  0  0  0  0  0  0  0  0  0  0  0
   -6.1768    0.7309    0.0670 H   0  0  0  0  0  0  0  0  0  0  0  0
   -7.1270   -1.1160   -0.0673 H   0  0  0  0  0  0  0  0  0  0  0  0
   -2.4581   -0.9259    0.2765 H   0  0  0  0  0  0  0  0  0  0  0  0
    0.6346   -2.0169   -0.0211 H   0  0  0  0  0  0  0  0  0  0  0  0
   -5.3092    0.6833    2.5763 H   0  0  0  0  0  0  0  0  0  0  0  0
   -6.8775    2.3176    3.7938 H   0  0  0  0  0  0  0  0  0  0  0  0
   -6.8089    4.4887    2.4663 H   0  0  0  0  0  0  0  0  0  0  0  0
   -4.7325    4.7631   -1.9377 H   0  0  0  0  0  0  0  0  0  0  0  0
  1  2  1  0  0  0  0
  1 34  1  0  0  0  0
  1 35  1  0  0  0  0
  1 36  1  0  0  0  0
  2  3  2  0  0  0  0
  2 22  1  0  0  0  0
  3  4  1  0  0  0  0
  3 37  1  0  0  0  0
  4  5  1  0  0  0  0
  4 20  2  0  0  0  0
  5  6  1  0  0  0  0
  5 38  1  0  0  0  0
  6  7  2  0  0  0  0
  6  8  2  0  0  0  0
  6  9  1  0  0  0  0
  9 10  2  0  0  0  0
  9 15  1  0  0  0  0
 10 11  1  0  0  0  0
 10 39  1  0  0  0  0
 11 12  2  0  0  0  0
 11 40  1  0  0  0  0
 12 13  1  0  0  0  0
 12 14  1  0  0  0  0
 14 15  2  0  0  0  0
 14 16  1  0  0  0  0
 15 41  1  0  0  0  0
 16 17  1  0  0  0  0
 16 18  1  0  0  0  0
 16 19  1  0  0  0  0
 20 21  1  0  0  0  0
 20 23  1  0  0  0  0
 21 22  2  0  0  0  0
 22 42  1  0  0  0  0
 23 24  2  0  0  0  0
 23 25  1  0  0  0  0
 25 26  2  0  0  0  0
 25 33  1  0  0  0  0
 26 27  1  0  0  0  0
 26 30  1  0  0  0  0
 27 28  2  0  0  0  0
 27 43  1  0  0  0  0
 28 29  1  0  0  0  0
 28 44  1  0  0  0  0
 29 30  1  0  0  0  0
 29 45  1  0  0  0  0
 30 31  2  0  0  0  0
 31 32  1  0  0  0  0
 32 33  2  0  0  0  0
 32 46  1  0  0  0  0
M  END
>  <DRUGBANK_ID>
DB16066

>  <COMMON_NAME>
Ilacirnon

>  <CAS_NUMBER>
1100318-47-5

>  <UNII>
380F68J5PH

>  <SYNONYMS>
4-Chloro-N-[5-methyl-2-(7H-pyrrolo[2,3-d]pyrimidin-4-ylcarbonyl)-3-pyridinyl]-3-(trifluoromethyl)benzenesulfonamide

$$$$
