
 OpenBabel10282417153D

 61 63  0  0  0  0  0  0  0  0999 V2000
   -2.2022    1.7481   -0.6744 C   0  0  0  0  0  0  0  0  0  0  0  0
   -1.4750    0.5270   -0.3385 C   0  0  0  0  0  0  0  0  0  0  0  0
   -2.3713   -0.4817   -0.1312 C   0  0  0  0  0  0  0  0  0  0  0  0
   -1.9078   -1.7489    0.0251 C   0  0  0  0  0  0  0  0  0  0  0  0
   -0.5842   -1.9917    0.0424 N   0  0  0  0  0  0  0  0  0  0  0  0
    0.3170   -0.9446    0.0088 C   0  0  0  0  0  0  0  0  0  0  0  0
   -0.0939    0.4272   -0.0967 C   0  0  0  0  0  0  0  0  0  0  0  0
    0.8713    1.5166    0.0193 C   0  0  0  0  0  0  0  0  0  0  0  0
    2.2354    1.1877    0.0726 C   0  0  0  0  0  0  0  0  0  0  0  0
    2.6165   -0.1599    0.0935 C   0  0  0  0  0  0  0  0  0  0  0  0
    1.6984   -1.2207    0.0480 C   0  0  0  0  0  0  0  0  0  0  0  0
    2.1206   -2.5595    0.0577 N   0  0  0  0  0  0  0  0  0  0  0  0
    3.4876   -3.0532   -0.0371 C   0  0  3  0  0  0  0  0  0  0  0  0
    3.7835   -3.9289    1.1726 C   0  0  0  0  0  0  0  0  0  0  0  0
    3.7200   -3.8305   -1.3433 C   0  0  0  0  0  0  0  0  0  0  0  0
    3.5085   -2.9725   -2.5985 C   0  0  0  0  0  0  0  0  0  0  0  0
    4.3999   -1.7299   -2.6572 C   0  0  0  0  0  0  0  0  0  0  0  0
    5.8191   -2.0701   -2.6484 N   0  0  0  0  0  0  0  0  0  0  0  0
    3.3312    2.0233    0.0710 O   0  0  0  0  0  0  0  0  0  0  0  0
    3.1312    3.4302    0.0758 C   0  0  0  0  0  0  0  0  0  0  0  0
    0.6598    2.8949   -0.0376 O   0  0  0  0  0  0  0  0  0  0  0  0
   -0.4352    3.6334    0.3394 C   0  0  0  0  0  0  0  0  0  0  0  0
   -1.1487    3.4836    1.5380 C   0  0  0  0  0  0  0  0  0  0  0  0
   -2.5148    3.8690    1.5515 C   0  0  0  0  0  0  0  0  0  0  0  0
   -3.0766    4.5559    0.4646 C   0  0  0  0  0  0  0  0  0  0  0  0
   -2.2635    4.9603   -0.6032 C   0  0  0  0  0  0  0  0  0  0  0  0
   -0.9505    4.4577   -0.6812 C   0  0  0  0  0  0  0  0  0  0  0  0
   -2.7857    5.9070   -1.6494 C   0  0  0  0  0  0  0  0  0  0  0  0
   -2.0174    7.0287   -1.7095 F   0  0  0  0  0  0  0  0  0  0  0  0
   -2.8074    5.3927   -2.9080 F   0  0  0  0  0  0  0  0  0  0  0  0
   -4.0534    6.3372   -1.3965 F   0  0  0  0  0  0  0  0  0  0  0  0
   -2.8019   -2.7931    0.0993 O   0  0  0  0  0  0  0  0  0  0  0  0
   -4.1861   -2.3869    0.0402 C   0  0  0  0  0  0  0  0  0  0  0  0
   -2.0633    2.1314    0.2928 H   0  0  0  0  0  0  0  0  0  0  0  0
   -1.7704    2.2630   -1.5235 H   0  0  0  0  0  0  0  0  0  0  0  0
   -3.2922    1.7707   -0.6915 H   0  0  0  0  0  0  0  0  0  0  0  0
   -3.4149   -0.2151   -0.1153 H   0  0  0  0  0  0  0  0  0  0  0  0
    3.6830   -0.3515    0.1403 H   0  0  0  0  0  0  0  0  0  0  0  0
    1.3513   -3.2229   -0.0617 H   0  0  0  0  0  0  0  0  0  0  0  0
    4.2212   -2.2484    0.0122 H   0  0  0  0  0  0  0  0  0  0  0  0
    3.1652   -4.8312    1.1816 H   0  0  0  0  0  0  0  0  0  0  0  0
    4.8371   -4.2289    1.1706 H   0  0  0  0  0  0  0  0  0  0  0  0
    3.5946   -3.3729    2.0970 H   0  0  0  0  0  0  0  0  0  0  0  0
    4.7457   -4.2242   -1.3466 H   0  0  0  0  0  0  0  0  0  0  0  0
    3.0685   -4.7116   -1.3949 H   0  0  0  0  0  0  0  0  0  0  0  0
    3.6857   -3.5881   -3.4891 H   0  0  0  0  0  0  0  0  0  0  0  0
    2.4573   -2.6627   -2.6479 H   0  0  0  0  0  0  0  0  0  0  0  0
    4.1641   -1.1465   -3.5520 H   0  0  0  0  0  0  0  0  0  0  0  0
    4.2048   -1.0712   -1.8144 H   0  0  0  0  0  0  0  0  0  0  0  0
    6.3631   -1.2107   -2.5823 H   0  0  0  0  0  0  0  0  0  0  0  0
    6.0452   -2.5977   -1.8070 H   0  0  0  0  0  0  0  0  0  0  0  0
    2.6270    3.7575   -0.8404 H   0  0  0  0  0  0  0  0  0  0  0  0
    2.6003    3.7363    0.9830 H   0  0  0  0  0  0  0  0  0  0  0  0
    4.1027    3.9307    0.0914 H   0  0  0  0  0  0  0  0  0  0  0  0
   -0.8019    2.7808    2.2923 H   0  0  0  0  0  0  0  0  0  0  0  0
   -3.1902    3.4214    2.2838 H   0  0  0  0  0  0  0  0  0  0  0  0
   -4.1582    4.6989    0.4057 H   0  0  0  0  0  0  0  0  0  0  0  0
   -0.4015    4.5476   -1.6213 H   0  0  0  0  0  0  0  0  0  0  0  0
   -4.4520   -1.7670    0.9110 H   0  0  0  0  0  0  0  0  0  0  0  0
   -4.4189   -1.8408   -0.8896 H   0  0  0  0  0  0  0  0  0  0  0  0
   -4.8257   -3.2669    0.0554 H   0  0  0  0  0  0  0  0  0  0  0  0
  1  2  1  0  0  0  0
  1 34  1  0  0  0  0
  1 35  1  0  0  0  0
  1 36  1  0  0  0  0
  2  3  1  0  0  0  0
  2  7  2  0  0  0  0
  3  4  2  0  0  0  0
  3 37  1  0  0  0  0
  4  5  1  0  0  0  0
  4 32  1  0  0  0  0
  5  6  2  0  0  0  0
  6  7  1  0  0  0  0
  6 11  1  0  0  0  0
  7  8  1  0  0  0  0
  8  9  2  0  0  0  0
  8 21  1  0  0  0  0
  9 10  1  0  0  0  0
  9 19  1  0  0  0  0
 10 11  2  0  0  0  0
 10 38  1  0  0  0  0
 11 12  1  0  0  0  0
 12 13  1  0  0  0  0
 12 39  1  0  0  0  0
 13 14  1  0  0  0  0
 13 15  1  0  0  0  0
 13 40  1  0  0  0  0
 14 41  1  0  0  0  0
 14 42  1  0  0  0  0
 14 43  1  0  0  0  0
 15 16  1  0  0  0  0
 15 44  1  0  0  0  0
 15 45  1  0  0  0  0
 16 17  1  0  0  0  0
 16 46  1  0  0  0  0
 16 47  1  0  0  0  0
 17 18  1  0  0  0  0
 17 48  1  0  0  0  0
 17 49  1  0  0  0  0
 18 50  1  0  0  0  0
 18 51  1  0  0  0  0
 19 20  1  0  0  0  0
 20 52  1  0  0  0  0
 20 53  1  0  0  0  0
 20 54  1  0  0  0  0
 21 22  1  0  0  0  0
 22 23  2  0  0  0  0
 22 27  1  0  0  0  0
 23 24  1  0  0  0  0
 23 55  1  0  0  0  0
 24 25  2  0  0  0  0
 24 56  1  0  0  0  0
 25 26  1  0  0  0  0
 25 57  1  0  0  0  0
 26 27  2  0  0  0  0
 26 28  1  0  0  0  0
 27 58  1  0  0  0  0
 28 29  1  0  0  0  0
 28 30  1  0  0  0  0
 28 31  1  0  0  0  0
 32 33  1  0  0  0  0
 33 59  1  0  0  0  0
 33 60  1  0  0  0  0
 33 61  1  0  0  0  0
M  END
>  <DRUGBANK_ID>
DB06608

>  <COMMON_NAME>
Tafenoquine

>  <CAS_NUMBER>
106635-80-7

>  <UNII>
262P8GS9L9

>  <SYNONYMS>
Tafenoquine

$$$$
