
 OpenBabel10282417133D

 26 26  0  0  0  0  0  0  0  0999 V2000
   -0.2014    1.6682   -0.1322 C   0  0  2  0  0  0  0  0  0  0  0  0
   -1.2023    0.5629    0.2779 C   0  0  2  0  0  0  0  0  0  0  0  0
   -0.8134   -0.7690   -0.3792 C   0  0  1  0  0  0  0  0  0  0  0  0
    0.6923   -1.0763   -0.1776 C   0  0  1  0  0  0  0  0  0  0  0  0
    1.6139    0.1478   -0.4060 C   0  0  2  0  0  0  0  0  0  0  0  0
    3.0867   -0.0581   -0.0782 C   0  0  0  0  0  0  0  0  0  0  0  0
   -0.3131    2.1994   -1.4638 O   0  0  0  0  0  0  0  0  0  0  0  0
   -2.5559    0.9372    0.0038 O   0  0  0  0  0  0  0  0  0  0  0  0
   -1.6435   -1.8462    0.0906 O   0  0  0  0  0  0  0  0  0  0  0  0
    0.8605   -1.5843    1.1517 O   0  0  0  0  0  0  0  0  0  0  0  0
    1.1301    1.3086    0.2624 O   0  0  0  0  0  0  0  0  0  0  0  0
   -0.2588    1.3892   -2.6233 C   0  0  0  0  0  0  0  0  0  0  0  0
   -0.4498    2.5362    0.4931 H   0  0  0  0  0  0  0  0  0  0  0  0
   -1.1494    0.4242    1.3666 H   0  0  0  0  0  0  0  0  0  0  0  0
   -1.0415   -0.7452   -1.4363 H   0  0  0  0  0  0  0  0  0  0  0  0
    0.9807   -1.8767   -0.8685 H   0  0  0  0  0  0  0  0  0  0  0  0
    1.6724    0.3790   -1.4546 H   0  0  0  0  0  0  0  0  0  0  0  0
    3.4953   -0.8593   -0.7030 H   0  0  0  0  0  0  0  0  0  0  0  0
    3.6438    0.8586   -0.3175 H   0  0  0  0  0  0  0  0  0  0  0  0
    3.2709   -0.2783    0.9742 H   0  0  0  0  0  0  0  0  0  0  0  0
   -2.6126    1.2019   -0.9281 H   0  0  0  0  0  0  0  0  0  0  0  0
   -1.3781   -2.0552    0.9929 H   0  0  0  0  0  0  0  0  0  0  0  0
    0.8305   -0.8232    1.7616 H   0  0  0  0  0  0  0  0  0  0  0  0
    0.7019    0.9119   -2.7992 H   0  0  0  0  0  0  0  0  0  0  0  0
   -1.0593    0.6561   -2.6595 H   0  0  0  0  0  0  0  0  0  0  0  0
   -0.3942    2.0248   -3.4990 H   0  0  0  0  0  0  0  0  0  0  0  0
  1  2  1  0  0  0  0
  1  7  1  0  0  0  0
  1 11  1  0  0  0  0
  1 13  1  1  0  0  0
  2  3  1  0  0  0  0
  2  8  1  0  0  0  0
  2 14  1  1  0  0  0
  3  4  1  0  0  0  0
  3  9  1  0  0  0  0
  3 15  1  6  0  0  0
  4  5  1  0  0  0  0
  4 10  1  0  0  0  0
  4 16  1  6  0  0  0
  5  6  1  0  0  0  0
  5 11  1  0  0  0  0
  5 17  1  6  0  0  0
  6 18  1  0  0  0  0
  6 19  1  0  0  0  0
  6 20  1  0  0  0  0
  8 21  1  0  0  0  0
  9 22  1  0  0  0  0
 10 23  1  0  0  0  0
 12  7  1  0  0  0  0
 12 24  1  0  0  0  0
 12 25  1  0  0  0  0
 12 26  1  0  0  0  0
M  END
>  <DRUGBANK_ID>
DB03879

>  <SECONDARY_ACCESSION_NUMBERS>
EXPT02163; EXPT02160; DB04091

>  <COMMON_NAME>
alpha-L-methyl-fucose

>  <CAS_NUMBER>
14687-15-1

>  <UNII>
EZI2C7VVU0

>  <SYNONYMS>
alpha-L-1-Methyl-fucose; Methyl alpha-L-fucopyranoside; Î±-L-Methyl-Fucose

$$$$
