
 OpenBabel10282417183D

 57 60  0  0  0  0  0  0  0  0999 V2000
   -0.5567    0.9127   -1.1330 C   0  0  0  0  0  0  0  0  0  0  0  0
    0.3807    1.9979   -0.8753 C   0  0  0  0  0  0  0  0  0  0  0  0
    1.1829    1.6807   -2.2015 C   0  0  2  0  0  0  0  0  0  0  0  0
    0.7059    0.0813   -2.9863 C   0  0  0  0  0  0  0  0  0  0  0  0
   -0.9407   -0.1844   -2.9796 C   0  0  2  0  0  0  0  0  0  0  0  0
   -1.6624   -1.1720   -3.8316 C   0  0  0  0  0  0  0  0  0  0  0  0
   -3.2471   -0.9510   -3.8815 C   0  0  0  0  0  0  0  0  0  0  0  0
   -3.6334    0.4145   -4.5688 C   0  0  2  0  0  0  0  0  0  0  0  0
   -2.9996    1.5228   -3.3800 C   0  0  1  0  0  0  0  0  0  0  0  0
   -1.3197    1.2339   -2.8849 C   0  0  1  0  0  0  0  0  0  0  0  0
   -3.2244    2.9202   -4.0652 C   0  0  0  0  0  0  0  0  0  0  0  0
   -4.6759    3.1314   -4.3960 C   0  0  0  0  0  0  0  0  0  0  0  0
   -5.2354    2.0223   -5.1814 C   0  0  1  0  0  0  0  0  0  0  0  0
   -5.1907    0.6275   -5.6396 C   0  0  1  0  0  0  0  0  0  0  0  0
   -6.3159    1.8827   -6.8023 C   0  0  0  0  0  0  0  0  0  0  0  0
   -7.3661    2.6905   -5.9883 C   0  0  0  0  0  0  0  0  0  0  0  0
   -6.9368    1.7615   -4.9925 C   0  0  2  0  0  0  0  0  0  0  0  0
   -4.0909    1.9841   -6.6978 C   0  0  0  0  0  0  0  0  0  0  0  0
   -0.6303    1.7790   -4.3051 C   0  0  0  0  0  0  0  0  0  0  0  0
   -7.6875    1.6077   -3.7238 C   0  0  0  0  0  0  0  0  0  0  0  0
   -7.0174    1.9577   -2.4758 C   0  0  0  0  0  0  0  0  0  0  0  0
   -5.8341   -0.1698   -5.3089 H   0  0  0  0  0  0  0  0  0  0  0  0
   -2.8865    0.3625   -5.3556 H   0  0  0  0  0  0  0  0  0  0  0  0
   -3.5863    1.4880   -2.4541 H   0  0  0  0  0  0  0  0  0  0  0  0
   -7.3357    0.7908   -5.4249 H   0  0  0  0  0  0  0  0  0  0  0  0
    2.5849    1.6610   -1.9808 O   0  0  0  0  0  0  0  0  0  0  0  0
   -1.4247   -0.5818   -2.0766 H   0  0  0  0  0  0  0  0  0  0  0  0
   -8.8600    1.1623   -3.7301 O   0  0  0  0  0  0  0  0  0  0  0  0
   -0.7521   -0.0857   -0.6235 H   0  0  0  0  0  0  0  0  0  0  0  0
    0.4271    0.2873   -1.0093 H   0  0  0  0  0  0  0  0  0  0  0  0
   -0.4267    2.7121   -0.6928 H   0  0  0  0  0  0  0  0  0  0  0  0
    0.9986    2.0015    0.0423 H   0  0  0  0  0  0  0  0  0  0  0  0
    0.9913    2.5596   -2.8193 H   0  0  0  0  0  0  0  0  0  0  0  0
    1.0942    0.1047   -4.0072 H   0  0  0  0  0  0  0  0  0  0  0  0
    1.2307   -0.7492   -2.5027 H   0  0  0  0  0  0  0  0  0  0  0  0
   -1.4697   -2.1262   -3.3128 H   0  0  0  0  0  0  0  0  0  0  0  0
   -1.1896   -1.2094   -4.8043 H   0  0  0  0  0  0  0  0  0  0  0  0
   -3.6252   -0.9457   -2.8432 H   0  0  0  0  0  0  0  0  0  0  0  0
   -3.6634   -1.8204   -4.3822 H   0  0  0  0  0  0  0  0  0  0  0  0
   -2.7334    2.9845   -5.0397 H   0  0  0  0  0  0  0  0  0  0  0  0
   -2.8512    3.7735   -3.4985 H   0  0  0  0  0  0  0  0  0  0  0  0
   -4.8177    4.0409   -5.0031 H   0  0  0  0  0  0  0  0  0  0  0  0
   -5.1936    3.3981   -3.4769 H   0  0  0  0  0  0  0  0  0  0  0  0
   -6.7013    1.5937   -7.7794 H   0  0  0  0  0  0  0  0  0  0  0  0
   -5.8141    2.8098   -7.1524 H   0  0  0  0  0  0  0  0  0  0  0  0
   -8.4124    2.6535   -6.3079 H   0  0  0  0  0  0  0  0  0  0  0  0
   -7.1075    3.7222   -5.6935 H   0  0  0  0  0  0  0  0  0  0  0  0
   -3.0685    1.6827   -6.5037 H   0  0  0  0  0  0  0  0  0  0  0  0
   -4.3882    1.2019   -7.4689 H   0  0  0  0  0  0  0  0  0  0  0  0
   -4.0291    2.9290   -7.2338 H   0  0  0  0  0  0  0  0  0  0  0  0
   -0.9407    1.0809   -5.1012 H   0  0  0  0  0  0  0  0  0  0  0  0
   -0.9626    2.7606   -4.6213 H   0  0  0  0  0  0  0  0  0  0  0  0
    0.4470    1.8657   -4.4771 H   0  0  0  0  0  0  0  0  0  0  0  0
   -7.4026    2.9276   -2.1680 H   0  0  0  0  0  0  0  0  0  0  0  0
   -7.1373    1.1559   -1.7555 H   0  0  0  0  0  0  0  0  0  0  0  0
   -5.9528    1.9887   -2.6487 H   0  0  0  0  0  0  0  0  0  0  0  0
    2.7754    0.9825   -1.3142 H   0  0  0  0  0  0  0  0  0  0  0  0
  1 10  1  0  0  0  0
  1 29  1  0  0  0  0
  1 30  1  0  0  0  0
  2  1  1  0  0  0  0
  2 31  1  0  0  0  0
  2 32  1  0  0  0  0
  3  4  1  0  0  0  0
  3  2  1  0  0  0  0
  3 33  1  6  0  0  0
  3 26  1  0  0  0  0
  4  5  1  0  0  0  0
  4 34  1  0  0  0  0
  4 35  1  0  0  0  0
  5 10  1  0  0  0  0
  5 27  1  1  0  0  0
  6  7  1  0  0  0  0
  6  5  1  0  0  0  0
  6 36  1  0  0  0  0
  6 37  1  0  0  0  0
  7  8  1  0  0  0  0
  7 38  1  0  0  0  0
  7 39  1  0  0  0  0
  8 14  1  0  0  0  0
  8  9  1  0  0  0  0
  8 23  1  6  0  0  0
  9 24  1  1  0  0  0
 10  9  1  0  0  0  0
 10 19  1  6  0  0  0
 11  9  1  0  0  0  0
 11 12  1  0  0  0  0
 11 40  1  0  0  0  0
 11 41  1  0  0  0  0
 12 13  1  0  0  0  0
 12 42  1  0  0  0  0
 12 43  1  0  0  0  0
 13 18  1  6  0  0  0
 14 13  1  0  0  0  0
 14 22  1  1  0  0  0
 15 14  1  0  0  0  0
 15 44  1  0  0  0  0
 15 45  1  0  0  0  0
 16 17  1  0  0  0  0
 16 15  1  0  0  0  0
 16 46  1  0  0  0  0
 16 47  1  0  0  0  0
 17 13  1  0  0  0  0
 17 25  1  6  0  0  0
 17 20  1  0  0  0  0
 18 48  1  0  0  0  0
 18 49  1  0  0  0  0
 18 50  1  0  0  0  0
 19 51  1  0  0  0  0
 19 52  1  0  0  0  0
 19 53  1  0  0  0  0
 21 20  1  0  0  0  0
 21 54  1  0  0  0  0
 21 55  1  0  0  0  0
 21 56  1  0  0  0  0
 26 57  1  0  0  0  0
 28 20  2  0  0  0  0
M  END
>  <DRUGBANK_ID>
DB11859

>  <COMMON_NAME>
Brexanolone

>  <CAS_NUMBER>
516-54-1

>  <UNII>
S39XZ5QV8Y

>  <SYNONYMS>
3alpha-OH DHP; allopregnan-3Î±-ol-20-one; Allopregnanolone; Brexanolone

$$$$
