
 OpenBabel10282417213D

 46 47  0  0  0  0  0  0  0  0999 V2000
    1.0740    0.1854    0.5052 C   0  0  0  0  0  0  0  0  0  0  0  0
    0.4993   -1.2440    0.4774 C   0  0  0  0  0  0  0  0  0  0  0  0
    1.1452   -2.4317    1.0613 N   0  0  0  0  0  0  0  0  0  0  0  0
    0.5470   -3.7613    0.6736 C   0  0  0  0  0  0  0  0  0  0  0  0
    0.9794   -4.7163   -0.4903 C   0  0  0  0  0  0  0  0  0  0  0  0
    2.5845   -2.3981    0.8142 C   0  0  0  0  0  0  0  0  0  0  0  0
    3.0744   -2.6744   -0.6379 C   0  0  0  0  0  0  0  0  0  0  0  0
    2.4038   -1.9839   -1.7683 O   0  0  0  0  0  0  0  0  0  0  0  0
    1.1282   -2.0616   -2.2563 C   0  0  0  0  0  0  0  0  0  0  0  0
    0.1162   -2.7240   -1.9616 O   0  0  0  0  0  0  0  0  0  0  0  0
    0.7958   -0.9003   -3.0273 C   0  0  0  0  0  0  0  0  0  0  0  0
   -0.2216    0.0002   -2.6323 C   0  0  0  0  0  0  0  0  0  0  0  0
   -0.6215    1.0104   -3.4802 C   0  0  0  0  0  0  0  0  0  0  0  0
   -0.0842    1.0188   -4.7575 C   0  0  0  0  0  0  0  0  0  0  0  0
    0.8618    0.0447   -5.1716 C   0  0  0  0  0  0  0  0  0  0  0  0
    1.3267   -0.9065   -4.2832 C   0  0  0  0  0  0  0  0  0  0  0  0
    2.1950   -1.9176   -4.5937 O   0  0  0  0  0  0  0  0  0  0  0  0
    1.2876   -0.0044   -6.5473 C   0  0  0  0  0  0  0  0  0  0  0  0
    1.0389   -1.1535   -7.3157 C   0  0  0  0  0  0  0  0  0  0  0  0
    1.4372   -1.1949   -8.6391 C   0  0  0  0  0  0  0  0  0  0  0  0
    2.0452   -0.0745   -9.2013 C   0  0  0  0  0  0  0  0  0  0  0  0
    2.2834    1.0710   -8.4391 C   0  0  0  0  0  0  0  0  0  0  0  0
    1.9516    1.0881   -7.0967 C   0  0  0  0  0  0  0  0  0  0  0  0
    0.8217    0.7316    1.4046 H   0  0  0  0  0  0  0  0  0  0  0  0
    0.6943    0.7650   -0.3497 H   0  0  0  0  0  0  0  0  0  0  0  0
    2.1537    0.2032    0.3148 H   0  0  0  0  0  0  0  0  0  0  0  0
   -0.5942   -1.2841    0.4195 H   0  0  0  0  0  0  0  0  0  0  0  0
    0.7655   -1.3713   -0.5100 H   0  0  0  0  0  0  0  0  0  0  0  0
    0.7711   -4.3902    1.5431 H   0  0  0  0  0  0  0  0  0  0  0  0
   -0.5459   -3.6744    0.6647 H   0  0  0  0  0  0  0  0  0  0  0  0
    1.9787   -5.1199   -0.3411 H   0  0  0  0  0  0  0  0  0  0  0  0
    0.3047   -5.5737   -0.5486 H   0  0  0  0  0  0  0  0  0  0  0  0
    0.9944   -4.3661   -1.5159 H   0  0  0  0  0  0  0  0  0  0  0  0
    2.9811   -1.4313    1.1508 H   0  0  0  0  0  0  0  0  0  0  0  0
    3.0556   -3.0956    1.5208 H   0  0  0  0  0  0  0  0  0  0  0  0
    4.1185   -2.3317   -0.6588 H   0  0  0  0  0  0  0  0  0  0  0  0
    3.1826   -3.7348   -0.8525 H   0  0  0  0  0  0  0  0  0  0  0  0
   -0.7359   -0.1034   -1.6800 H   0  0  0  0  0  0  0  0  0  0  0  0
   -1.3731    1.7330   -3.1711 H   0  0  0  0  0  0  0  0  0  0  0  0
   -0.4496    1.7585   -5.4657 H   0  0  0  0  0  0  0  0  0  0  0  0
    2.5464   -1.8096   -5.4889 H   0  0  0  0  0  0  0  0  0  0  0  0
    0.5430   -2.0184   -6.8712 H   0  0  0  0  0  0  0  0  0  0  0  0
    1.2495   -2.0863   -9.2292 H   0  0  0  0  0  0  0  0  0  0  0  0
    2.3356   -0.0911  -10.2457 H   0  0  0  0  0  0  0  0  0  0  0  0
    2.7169    1.9574   -8.8883 H   0  0  0  0  0  0  0  0  0  0  0  0
    2.1957    1.9467   -6.4736 H   0  0  0  0  0  0  0  0  0  0  0  0
  1  2  1  0  0  0  0
  1 24  1  0  0  0  0
  1 25  1  0  0  0  0
  1 26  1  0  0  0  0
  2  3  1  0  0  0  0
  2 27  1  0  0  0  0
  2 28  1  0  0  0  0
  3  4  1  0  0  0  0
  3  6  1  0  0  0  0
  4  5  1  0  0  0  0
  4 29  1  0  0  0  0
  4 30  1  0  0  0  0
  5 31  1  0  0  0  0
  5 32  1  0  0  0  0
  5 33  1  0  0  0  0
  6  7  1  0  0  0  0
  6 34  1  0  0  0  0
  6 35  1  0  0  0  0
  7  8  1  0  0  0  0
  7 36  1  0  0  0  0
  7 37  1  0  0  0  0
  8  9  1  0  0  0  0
  9 10  2  0  0  0  0
  9 11  1  0  0  0  0
 11 12  2  0  0  0  0
 11 16  1  0  0  0  0
 12 13  1  0  0  0  0
 12 38  1  0  0  0  0
 13 14  2  0  0  0  0
 13 39  1  0  0  0  0
 14 15  1  0  0  0  0
 14 40  1  0  0  0  0
 15 16  2  0  0  0  0
 15 18  1  0  0  0  0
 16 17  1  0  0  0  0
 17 41  1  0  0  0  0
 18 19  2  0  0  0  0
 18 23  1  0  0  0  0
 19 20  1  0  0  0  0
 19 42  1  0  0  0  0
 20 21  2  0  0  0  0
 20 43  1  0  0  0  0
 21 22  1  0  0  0  0
 21 44  1  0  0  0  0
 22 23  2  0  0  0  0
 22 45  1  0  0  0  0
 23 46  1  0  0  0  0
M  END
>  <DRUGBANK_ID>
DB13815

>  <COMMON_NAME>
Xenysalate

>  <CAS_NUMBER>
3572-52-9

>  <UNII>
65X88IL51X

>  <SYNONYMS>
Biphenamine; Xenysalate

$$$$
