Pregnenolone.mol
 OpenBabel10282417123D

 30 30  0  0  0  0  0  0  0  0999 V2000
   -1.1448    0.0084   -0.0146 N   0  0  0  0  0  0  0  0  0  0  0  0
   -0.2927    1.0853   -0.0029 C   0  0  0  0  0  0  0  0  0  0  0  0
    1.0218    0.6306   -0.0107 C   0  0  0  0  0  0  0  0  0  0  0  0
    0.9278   -0.8130   -0.0506 C   0  0  0  0  0  0  0  0  0  0  0  0
   -0.4156   -1.1473   -0.0404 C   0  0  0  0  0  0  0  0  0  0  0  0
    3.9030    0.2241    1.4022 C   0  0  0  0  0  0  0  0  0  0  0  0
    3.1396    1.4825    1.2293 C   0  0  0  0  0  0  0  0  0  0  0  0
    2.2491    1.5275   -0.0115 C   0  0  0  0  0  0  0  0  0  0  0  0
    5.0068   -0.0867    0.9552 O   0  0  0  0  0  0  0  0  0  0  0  0
    3.2203   -0.6616    2.1084 O   0  0  0  0  0  0  0  0  0  0  0  0
    1.9809   -1.8839   -0.0816 C   0  0  0  0  0  0  0  0  0  0  0  0
    1.8999   -2.8736    1.1195 C   0  0  0  0  0  0  0  0  0  0  0  0
    2.2256   -4.0519    1.0760 O   0  0  0  0  0  0  0  0  0  0  0  0
    1.5678   -2.3359    2.3165 O   0  0  0  0  0  0  0  0  0  0  0  0
   -1.0159   -2.5085   -0.0239 C   0  0  0  0  0  0  0  0  0  0  0  0
   -1.7567   -2.7125    1.2066 N   0  0  0  0  0  0  0  0  0  0  0  0
   -2.1559    0.0462    0.0296 H   0  0  0  0  0  0  0  0  0  0  0  0
   -0.7033    2.0884    0.0232 H   0  0  0  0  0  0  0  0  0  0  0  0
    3.8994    2.2706    1.2018 H   0  0  0  0  0  0  0  0  0  0  0  0
    2.5452    1.6401    2.1366 H   0  0  0  0  0  0  0  0  0  0  0  0
    2.8322    1.3355   -0.9192 H   0  0  0  0  0  0  0  0  0  0  0  0
    1.9030    2.5706   -0.0890 H   0  0  0  0  0  0  0  0  0  0  0  0
    3.6552   -1.5077    1.8904 H   0  0  0  0  0  0  0  0  0  0  0  0
    1.8530   -2.4756   -0.9972 H   0  0  0  0  0  0  0  0  0  0  0  0
    2.9717   -1.4442   -0.2000 H   0  0  0  0  0  0  0  0  0  0  0  0
    1.9711   -2.8423    3.0544 H   0  0  0  0  0  0  0  0  0  0  0  0
   -1.6296   -2.6769   -0.9094 H   0  0  0  0  0  0  0  0  0  0  0  0
   -0.2289   -3.2685   -0.0667 H   0  0  0  0  0  0  0  0  0  0  0  0
   -2.0135   -3.6974    1.2546 H   0  0  0  0  0  0  0  0  0  0  0  0
   -1.1122   -2.5685    1.9892 H   0  0  0  0  0  0  0  0  0  0  0  0
  1  2  1  0  0  0  0
  1  5  1  0  0  0  0
  1 17  1  0  0  0  0
  2  3  2  0  0  0  0
  2 18  1  0  0  0  0
  3  4  1  0  0  0  0
  3  8  1  0  0  0  0
  4  5  2  0  0  0  0
  4 11  1  0  0  0  0
  5 15  1  0  0  0  0
  6  7  1  0  0  0  0
  6  9  2  0  0  0  0
  6 10  1  0  0  0  0
  7  8  1  0  0  0  0
  7 19  1  0  0  0  0
  7 20  1  0  0  0  0
  8 21  1  0  0  0  0
  8 22  1  0  0  0  0
 10 23  1  0  0  0  0
 11 12  1  0  0  0  0
 11 24  1  0  0  0  0
 11 25  1  0  0  0  0
 12 13  2  0  0  0  0
 12 14  1  0  0  0  0
 14 26  1  0  0  0  0
 15 16  1  0  0  0  0
 15 27  1  0  0  0  0
 15 28  1  0  0  0  0
 16 29  1  0  0  0  0
 16 30  1  0  0  0  0
M  END
>  <DRUGBANK_ID>
DB02272

>  <SECONDARY_ACCESSION_NUMBERS>
EXPT02507

>  <COMMON_NAME>
Porphobilinogen

>  <CAS_NUMBER>
487-90-1

>  <UNII>
74KHC72QXK

>  <SYNONYMS>
5-(Aminomethyl)-4-(carboxymethyl)-1H-pyrrole-3-propionic acid; Porphobilinogen

$$$$
