
 OpenBabel10282417113D

 48 51  0  0  0  0  0  0  0  0999 V2000
   -2.9391    1.5917   -0.0200 C   0  0  0  0  0  0  0  0  0  0  0  0
   -3.6771    0.2695   -0.2058 C   0  0  1  0  0  0  0  0  0  0  0  0
   -2.9371   -0.9338    0.4000 C   0  0  0  0  0  0  0  0  0  0  0  0
   -1.4346   -0.9170    0.2131 C   0  0  0  0  0  0  0  0  0  0  0  0
   -0.7503    0.4305    0.3383 C   0  0  2  0  0  0  0  0  0  0  0  0
   -1.5092    1.4748   -0.5078 C   0  0  0  0  0  0  0  0  0  0  0  0
    0.7296    0.4028   -0.0879 C   0  0  2  0  0  0  0  0  0  0  0  0
    1.4938   -0.9220    0.3561 C   0  0  1  0  0  0  0  0  0  0  0  0
    0.7182   -2.0874   -0.3065 C   0  0  0  0  0  0  0  0  0  0  0  0
   -0.7623   -2.0373   -0.0640 C   0  0  0  0  0  0  0  0  0  0  0  0
    2.9325   -0.8616   -0.1881 C   0  0  1  0  0  0  0  0  0  0  0  0
    3.5094    0.4969   -0.0933 C   0  0  2  0  0  0  0  0  0  0  0  0
    2.7796    1.7876   -0.2372 C   0  0  0  0  0  0  0  0  0  0  0  0
    1.4324    1.6735    0.4140 C   0  0  0  0  0  0  0  0  0  0  0  0
    4.4534    0.2050   -1.3929 C   0  0  2  0  0  0  0  0  0  0  0  0
    5.5426   -0.1940   -0.4812 C   0  0  0  0  0  0  0  0  0  0  0  0
    4.4440   -1.4875    0.0260 C   0  0  0  0  0  0  0  0  0  0  0  0
    4.5034    1.0802   -2.4372 O   0  0  0  0  0  0  0  0  0  0  0  0
    4.0309    0.4997    1.5626 C   0  0  0  0  0  0  0  0  0  0  0  0
    2.6963   -1.0757   -1.2553 H   0  0  0  0  0  0  0  0  0  0  0  0
    1.4757   -1.0144    1.4456 H   0  0  0  0  0  0  0  0  0  0  0  0
    0.7505    0.4401   -1.1914 H   0  0  0  0  0  0  0  0  0  0  0  0
   -0.7990    0.7299    1.3944 H   0  0  0  0  0  0  0  0  0  0  0  0
   -4.9766    0.3682    0.3769 O   0  0  0  0  0  0  0  0  0  0  0  0
   -3.4621    2.3886   -0.5611 H   0  0  0  0  0  0  0  0  0  0  0  0
   -2.9436    1.8913    1.0362 H   0  0  0  0  0  0  0  0  0  0  0  0
   -3.8192    0.0937   -1.2790 H   0  0  0  0  0  0  0  0  0  0  0  0
   -3.3561   -1.8398   -0.0596 H   0  0  0  0  0  0  0  0  0  0  0  0
   -3.1601   -1.0138    1.4700 H   0  0  0  0  0  0  0  0  0  0  0  0
   -1.4983    1.1898   -1.5692 H   0  0  0  0  0  0  0  0  0  0  0  0
   -1.0461    2.4642   -0.4499 H   0  0  0  0  0  0  0  0  0  0  0  0
    0.8328   -2.0553   -1.4015 H   0  0  0  0  0  0  0  0  0  0  0  0
    1.1299   -3.0432    0.0233 H   0  0  0  0  0  0  0  0  0  0  0  0
   -1.2950   -2.9845   -0.1606 H   0  0  0  0  0  0  0  0  0  0  0  0
    3.3760    2.5666    0.2559 H   0  0  0  0  0  0  0  0  0  0  0  0
    2.6892    2.0855   -1.2806 H   0  0  0  0  0  0  0  0  0  0  0  0
    1.5204    1.6372    1.5046 H   0  0  0  0  0  0  0  0  0  0  0  0
    0.8985    2.5957    0.1785 H   0  0  0  0  0  0  0  0  0  0  0  0
    4.4196   -0.7753   -1.9351 H   0  0  0  0  0  0  0  0  0  0  0  0
    6.4788   -0.3943   -0.9569 H   0  0  0  0  0  0  0  0  0  0  0  0
    5.6764    0.7891    0.0498 H   0  0  0  0  0  0  0  0  0  0  0  0
    4.2486   -2.2952   -0.6739 H   0  0  0  0  0  0  0  0  0  0  0  0
    5.0107   -2.1433    0.6931 H   0  0  0  0  0  0  0  0  0  0  0  0
    5.0164    0.6044   -3.1577 H   0  0  0  0  0  0  0  0  0  0  0  0
    3.1792    0.4859    2.2553 H   0  0  0  0  0  0  0  0  0  0  0  0
    4.6226   -0.3702    1.9085 H   0  0  0  0  0  0  0  0  0  0  0  0
    4.6626    1.3628    1.7914 H   0  0  0  0  0  0  0  0  0  0  0  0
   -4.9748    1.1133    1.0023 H   0  0  0  0  0  0  0  0  0  0  0  0
  1  2  1  0  0  0  0
  1  6  1  0  0  0  0
  1 25  1  0  0  0  0
  1 26  1  0  0  0  0
  2  3  1  0  0  0  0
  2 27  1  6  0  0  0
  2 24  1  0  0  0  0
  3  4  1  0  0  0  0
  3 28  1  0  0  0  0
  3 29  1  0  0  0  0
  4  5  1  0  0  0  0
  4 10  2  0  0  0  0
  5  6  1  0  0  0  0
  5  7  1  0  0  0  0
  5 23  1  1  0  0  0
  6 30  1  0  0  0  0
  6 31  1  0  0  0  0
  7 14  1  0  0  0  0
  7 22  1  6  0  0  0
  8  7  1  0  0  0  0
  8 11  1  0  0  0  0
  8 21  1  1  0  0  0
  9  8  1  0  0  0  0
  9 32  1  0  0  0  0
  9 33  1  0  0  0  0
 10  9  1  0  0  0  0
 10 34  1  0  0  0  0
 11 12  1  0  0  0  0
 11 17  1  0  0  0  0
 11 20  1  6  0  0  0
 12 13  1  0  0  0  0
 12 15  1  0  0  0  0
 12 19  1  1  0  0  0
 13 14  1  0  0  0  0
 13 35  1  0  0  0  0
 13 36  1  0  0  0  0
 14 37  1  0  0  0  0
 14 38  1  0  0  0  0
 15 39  1  6  0  0  0
 15 18  1  0  0  0  0
 16 15  1  0  0  0  0
 16 40  1  0  0  0  0
 16 41  1  0  0  0  0
 17 16  1  0  0  0  0
 17 42  1  0  0  0  0
 17 43  1  0  0  0  0
 18 44  1  0  0  0  0
 19 45  1  0  0  0  0
 19 46  1  0  0  0  0
 19 47  1  0  0  0  0
 24 48  1  0  0  0  0
M  END
>  <DRUGBANK_ID>
DB01455

>  <COMMON_NAME>
19-Nor-5-androstenediol

>  <CAS_NUMBER>
25975-59-1

>  <UNII>
5N0V272KSA

$$$$
