65781
 OpenBabel10282417143D

 54 56  0  0  1  0  0  0  0  0999 V2000
    0.8903   -0.3258   -0.1174 S   0  0  0  0  0  0  0  0  0  0  0  0
    7.1907   -1.7317   -3.3815 O   0  0  0  0  0  0  0  0  0  0  0  0
    9.2801   -1.5928   -2.7485 O   0  0  0  0  0  0  0  0  0  0  0  0
    0.7945   -1.0229   -1.5702 O   0  0  0  0  0  0  0  0  0  0  0  0
    0.6450   -1.2928    0.9031 O   0  0  0  0  0  0  0  0  0  0  0  0
   -0.0386    0.7875   -0.3191 O   0  0  0  0  0  0  0  0  0  0  0  0
    7.2525   -2.2466   -0.4010 C   0  0  2  0  0  0  0  0  0  0  0  0
    5.6740   -2.4275   -0.4354 C   0  0  2  0  0  0  0  0  0  0  0  0
    7.9188   -3.1907   -1.4809 C   0  0  2  0  0  0  0  0  0  0  0  0
    5.0427   -3.1641   -1.7117 C   0  0  0  0  0  0  0  0  0  0  0  0
    7.7813   -0.7937   -0.4494 C   0  0  0  0  0  0  0  0  0  0  0  0
    7.1236   -4.5727   -1.6118 C   0  0  0  0  0  0  0  0  0  0  0  0
    5.6410   -4.5305   -1.9706 C   0  0  0  0  0  0  0  0  0  0  0  0
    4.9021   -1.1202   -0.1514 C   0  0  0  0  0  0  0  0  0  0  0  0
    7.0229    0.3106    0.2094 C   0  0  0  0  0  0  0  0  0  0  0  0
    5.5071   -3.4567    0.7325 C   0  0  0  0  0  0  0  0  0  0  0  0
    5.5430    0.0742    0.2113 C   0  0  0  0  0  0  0  0  0  0  0  0
    9.3950   -3.6495   -1.2561 C   0  0  0  0  0  0  0  0  0  0  0  0
    8.2076   -2.1933   -2.6507 C   0  0  0  0  0  0  0  0  0  0  0  0
    3.4828   -1.0759   -0.2702 C   0  0  0  0  0  0  0  0  0  0  0  0
    4.7694    1.2325    0.3737 C   0  0  0  0  0  0  0  0  0  0  0  0
    2.6884    0.0839   -0.0429 C   0  0  0  0  0  0  0  0  0  0  0  0
    3.3567    1.2762    0.2870 C   0  0  0  0  0  0  0  0  0  0  0  0
    2.8128    2.6442    0.6516 C   0  0  0  0  0  0  0  0  0  0  0  0
    1.3360    2.7115    0.4911 C   0  0  0  0  0  0  0  0  0  0  0  0
    3.1227    2.9725    2.1123 C   0  0  0  0  0  0  0  0  0  0  0  0
    7.6039   -2.5413    0.6054 H   0  0  0  0  0  0  0  0  0  0  0  0
    6.3302   -1.8636   -2.9837 H   0  0  0  0  0  0  0  0  0  0  0  0
    0.6655   -0.2865   -2.2095 H   0  0  0  0  0  0  0  0  0  0  0  0
    4.9513   -2.6344   -2.6641 H   0  0  0  0  0  0  0  0  0  0  0  0
    3.9798   -3.3281   -1.5173 H   0  0  0  0  0  0  0  0  0  0  0  0
    8.8203   -0.7998   -0.0954 H   0  0  0  0  0  0  0  0  0  0  0  0
    7.7744   -0.4032   -1.4603 H   0  0  0  0  0  0  0  0  0  0  0  0
    7.6652   -5.2896   -2.2399 H   0  0  0  0  0  0  0  0  0  0  0  0
    7.1287   -5.1263   -0.6513 H   0  0  0  0  0  0  0  0  0  0  0  0
    5.4717   -4.9237   -2.9810 H   0  0  0  0  0  0  0  0  0  0  0  0
    5.0426   -5.2181   -1.3490 H   0  0  0  0  0  0  0  0  0  0  0  0
    7.6149    0.7848    1.0104 H   0  0  0  0  0  0  0  0  0  0  0  0
    7.0679    1.1541   -0.4932 H   0  0  0  0  0  0  0  0  0  0  0  0
    6.4165   -4.0644    0.8591 H   0  0  0  0  0  0  0  0  0  0  0  0
    5.3636   -2.9674    1.6912 H   0  0  0  0  0  0  0  0  0  0  0  0
    4.7326   -4.2025    0.5476 H   0  0  0  0  0  0  0  0  0  0  0  0
    9.5330   -4.6187   -0.7722 H   0  0  0  0  0  0  0  0  0  0  0  0
    9.8444   -3.7935   -2.2566 H   0  0  0  0  0  0  0  0  0  0  0  0
   10.0004   -2.8967   -0.7429 H   0  0  0  0  0  0  0  0  0  0  0  0
    2.9337   -1.9859   -0.5119 H   0  0  0  0  0  0  0  0  0  0  0  0
    5.3101    2.1645    0.5693 H   0  0  0  0  0  0  0  0  0  0  0  0
    3.2592    3.3985   -0.0140 H   0  0  0  0  0  0  0  0  0  0  0  0
    0.9249    1.9826    1.2006 H   0  0  0  0  0  0  0  0  0  0  0  0
    0.8567    3.6549    0.7304 H   0  0  0  0  0  0  0  0  0  0  0  0
    1.1397    2.5092   -0.5658 H   0  0  0  0  0  0  0  0  0  0  0  0
    4.1901    3.1354    2.2844 H   0  0  0  0  0  0  0  0  0  0  0  0
    2.5903    3.8788    2.4129 H   0  0  0  0  0  0  0  0  0  0  0  0
    2.8003    2.1514    2.7642 H   0  0  0  0  0  0  0  0  0  0  0  0
  1  4  1  0  0  0  0
  1  5  2  0  0  0  0
  1  6  2  0  0  0  0
  1 22  1  0  0  0  0
  2 19  1  0  0  0  0
  2 28  1  0  0  0  0
  3 19  2  0  0  0  0
  4 29  1  0  0  0  0
  7  8  1  0  0  0  0
  7  9  1  0  0  0  0
  7 11  1  0  0  0  0
  7 27  1  6  0  0  0
  8 10  1  0  0  0  0
  8 14  1  0  0  0  0
  8 16  1  1  0  0  0
  9 12  1  0  0  0  0
  9 18  1  0  0  0  0
  9 19  1  6  0  0  0
 10 13  1  0  0  0  0
 10 30  1  0  0  0  0
 10 31  1  0  0  0  0
 11 15  1  0  0  0  0
 11 32  1  0  0  0  0
 11 33  1  0  0  0  0
 12 13  1  0  0  0  0
 12 34  1  0  0  0  0
 12 35  1  0  0  0  0
 13 36  1  0  0  0  0
 13 37  1  0  0  0  0
 14 17  1  0  0  0  0
 14 20  2  0  0  0  0
 15 17  1  0  0  0  0
 15 38  1  0  0  0  0
 15 39  1  0  0  0  0
 16 40  1  0  0  0  0
 16 41  1  0  0  0  0
 16 42  1  0  0  0  0
 17 21  2  0  0  0  0
 18 43  1  0  0  0  0
 18 44  1  0  0  0  0
 18 45  1  0  0  0  0
 20 22  1  0  0  0  0
 20 46  1  0  0  0  0
 21 23  1  0  0  0  0
 21 47  1  0  0  0  0
 22 23  2  0  0  0  0
 23 24  1  0  0  0  0
 24 25  1  0  0  0  0
 24 26  1  0  0  0  0
 24 48  1  0  0  0  0
 25 49  1  0  0  0  0
 25 50  1  0  0  0  0
 25 51  1  0  0  0  0
 26 52  1  0  0  0  0
 26 53  1  0  0  0  0
 26 54  1  0  0  0  0
M  END
>  <DRUGBANK_ID>
DB05265

>  <COMMON_NAME>
Ecabet

>  <CAS_NUMBER>
33159-27-2

>  <UNII>
2K02669KWP

>  <SYNONYMS>
Ecabet; Ecabetum

$$$$
