OAI
 OpenBabel10282417133D

 26 27  0  0  0  0  0  0  0  0999 V2000
   -0.2410    0.6150    0.0139 C   0  0  0  0  0  0  0  0  0  0  0  0
    0.9216    1.3916    0.0057 C   0  0  0  0  0  0  0  0  0  0  0  0
    2.1857    0.7707   -0.0323 C   0  0  0  0  0  0  0  0  0  0  0  0
    2.2434   -0.6420   -0.0196 C   0  0  0  0  0  0  0  0  0  0  0  0
    1.0476   -1.4085    0.0170 C   0  0  0  0  0  0  0  0  0  0  0  0
   -0.2098   -0.7710    0.0144 C   0  0  0  0  0  0  0  0  0  0  0  0
   -1.5630   -1.2097   -0.0052 C   0  0  0  0  0  0  0  0  0  0  0  0
   -2.3716   -0.0944   -0.0378 C   0  0  0  0  0  0  0  0  0  0  0  0
   -1.5613    1.0077    0.0103 N   0  0  0  0  0  0  0  0  0  0  0  0
    3.3723    1.5661   -0.0925 N   0  0  0  0  0  0  0  0  0  0  0  0
    3.4228    2.9553   -0.1190 C   0  0  0  0  0  0  0  0  0  0  0  0
    4.8156    3.6128   -0.1909 C   0  0  0  0  0  0  0  0  0  0  0  0
    4.9859    4.8202   -0.2128 O   0  0  0  0  0  0  0  0  0  0  0  0
    5.8548    2.7749   -0.2285 O   0  0  0  0  0  0  0  0  0  0  0  0
    2.4691    3.7258   -0.0906 O   0  0  0  0  0  0  0  0  0  0  0  0
    3.5093   -1.4323   -0.0557 C   0  0  0  0  0  0  0  0  0  0  0  0
    3.5907   -2.6505   -0.0478 O   0  0  0  0  0  0  0  0  0  0  0  0
    4.6271   -0.6784   -0.1047 O   0  0  0  0  0  0  0  0  0  0  0  0
    0.7958    2.4647    0.0097 H   0  0  0  0  0  0  0  0  0  0  0  0
    1.0810   -2.4958    0.0265 H   0  0  0  0  0  0  0  0  0  0  0  0
   -1.9109   -2.2336   -0.0224 H   0  0  0  0  0  0  0  0  0  0  0  0
   -3.4476    0.0102   -0.0902 H   0  0  0  0  0  0  0  0  0  0  0  0
   -1.8760    1.9701    0.0103 H   0  0  0  0  0  0  0  0  0  0  0  0
    4.2583    1.0545   -0.1293 H   0  0  0  0  0  0  0  0  0  0  0  0
    6.6129    3.4025   -0.2697 H   0  0  0  0  0  0  0  0  0  0  0  0
    5.3599   -1.3337   -0.1235 H   0  0  0  0  0  0  0  0  0  0  0  0
  1  2  1  0  0  0  0
  1  6  2  0  0  0  0
  1  9  1  0  0  0  0
  2  3  2  0  0  0  0
  2 19  1  0  0  0  0
  3  4  1  0  0  0  0
  3 10  1  0  0  0  0
  4  5  2  0  0  0  0
  4 16  1  0  0  0  0
  5  6  1  0  0  0  0
  5 20  1  0  0  0  0
  6  7  1  0  0  0  0
  7  8  2  0  0  0  0
  7 21  1  0  0  0  0
  8  9  1  0  0  0  0
  8 22  1  0  0  0  0
  9 23  1  0  0  0  0
 10 11  1  0  0  0  0
 10 24  1  0  0  0  0
 11 12  1  0  0  0  0
 11 15  2  0  0  0  0
 12 13  2  0  0  0  0
 12 14  1  0  0  0  0
 14 25  1  0  0  0  0
 16 17  2  0  0  0  0
 16 18  1  0  0  0  0
 18 26  1  0  0  0  0
M  END
>  <DRUGBANK_ID>
DB04001

>  <SECONDARY_ACCESSION_NUMBERS>
EXPT02409

>  <COMMON_NAME>
6-(Oxalyl-Amino)-1h-Indole-5-Carboxylic Acid

>  <UNII>
WM8KMK01TA

$$$$
