
 OpenBabel10282417193D

119123  0  0  1  0  0  0  0  0999 V2000
   -2.8206   -1.5671    1.0128 C   0  0  0  0  0  0  0  0  0  0  0  0
   -2.8450   -1.0135   -0.8015 C   0  0  0  0  0  0  0  0  0  0  0  0
   -3.6095   -0.5488   -1.9058 C   0  0  0  0  0  0  0  0  0  0  0  0
   -5.4647   -0.0245   -1.7735 C   0  0  2  0  0  0  0  0  0  0  0  0
   -6.6297   -1.7608   -2.1327 C   0  0  0  0  0  0  0  0  0  0  0  0
   -7.6528   -1.5558   -2.7033 O   0  0  0  0  0  0  0  0  0  0  0  0
   -5.3019   -3.5358   -1.9003 C   0  0  2  0  0  0  0  0  0  0  0  0
   -5.8656   -4.3013   -2.8942 C   0  0  2  0  0  0  0  0  0  0  0  0
   -5.4945   -5.5647   -2.1293 C   0  0  0  0  0  0  0  0  0  0  0  0
   -4.1088   -5.9305   -2.6196 C   0  0  2  0  0  0  0  0  0  0  0  0
   -2.4879   -5.9185   -2.3132 C   0  0  2  0  0  0  0  0  0  0  0  0
   -3.3102   -4.2391   -2.0802 C   0  0  1  0  0  0  0  0  0  0  0  0
   -1.5242   -4.2873   -1.3796 C   0  0  1  0  0  0  0  0  0  0  0  0
   -1.2727   -2.8507   -2.5596 C   0  0  1  0  0  0  0  0  0  0  0  0
   -2.8270   -1.5334   -3.4170 C   0  0  0  0  0  0  0  0  0  0  0  0
   -2.6629   -0.3129   -4.6349 C   0  0  0  0  0  0  0  0  0  0  0  0
   -4.1291   -0.0866   -4.0450 C   0  0  0  0  0  0  0  0  0  0  0  0
   -1.2667   -2.7027   -1.1202 C   0  0  0  0  0  0  0  0  0  0  0  0
   -1.9502   -1.5698   -1.5731 C   0  0  2  0  0  0  0  0  0  0  0  0
   -1.4626   -0.3971   -2.7252 O   0  0  0  0  0  0  0  0  0  0  0  0
   -0.8027    0.7737   -2.6196 C   0  0  0  0  0  0  0  0  0  0  0  0
   -0.1137    1.2762   -3.5096 O   0  0  0  0  0  0  0  0  0  0  0  0
   -0.7537    0.5962   -0.9326 C   0  0  1  0  0  0  0  0  0  0  0  0
   -2.2137    1.2201   -0.5531 C   0  0  2  0  0  0  0  0  0  0  0  0
   -2.1793    2.7198   -0.2597 C   0  0  0  0  0  0  0  0  0  0  0  0
   -0.9021    3.5080   -0.5802 C   0  0  0  0  0  0  0  0  0  0  0  0
   -3.2539    3.2905   -1.1651 C   0  0  0  0  0  0  0  0  0  0  0  0
   -2.4878    2.8607    1.2134 C   0  0  0  0  0  0  0  0  0  0  0  0
   -3.1123    0.6120    0.5181 N   0  0  0  0  0  0  0  0  0  0  0  0
   -4.3899   -0.3082    0.7282 C   0  0  0  0  0  0  0  0  0  0  0  0
   -4.8557   -0.8572    1.7489 O   0  0  0  0  0  0  0  0  0  0  0  0
   -4.6072   -1.3205    0.0024 O   0  0  0  0  0  0  0  0  0  0  0  0
   -5.1305   -1.8828   -0.9994 C   0  0  0  0  0  0  0  0  0  0  0  0
   -4.4180   -3.4054   -0.1490 C   0  0  0  0  0  0  0  0  0  0  0  0
   -6.8077   -1.1205   -0.2520 C   0  0  0  0  0  0  0  0  0  0  0  0
   -5.1405   -1.6529   -3.1410 C   0  0  0  0  0  0  0  0  0  0  0  0
    0.7814   -0.2787   -0.0309 O   0  0  0  0  0  0  0  0  0  0  0  0
    0.5725   -3.1426   -2.2554 O   0  0  0  0  0  0  0  0  0  0  0  0
   -1.3442   -4.3174    0.3020 O   0  0  0  0  0  0  0  0  0  0  0  0
   -1.1976   -3.1545    1.1951 C   0  0  0  0  0  0  0  0  0  0  0  0
   -1.9046   -3.3827    2.1956 O   0  0  0  0  0  0  0  0  0  0  0  0
   -0.5996   -1.4653    0.3974 C   0  0  0  0  0  0  0  0  0  0  0  0
    0.1952   -1.2707   -1.3690 C   0  0  0  0  0  0  0  0  0  0  0  0
    1.2104   -0.1849   -1.9672 C   0  0  0  0  0  0  0  0  0  0  0  0
    1.3418    1.2366   -0.8823 C   0  0  0  0  0  0  0  0  0  0  0  0
    0.5381    1.2316    0.8491 C   0  0  0  0  0  0  0  0  0  0  0  0
   -0.4154   -0.1929    1.4357 C   0  0  0  0  0  0  0  0  0  0  0  0
   -2.6955   -6.6936   -3.5760 C   0  0  0  0  0  0  0  0  0  0  0  0
   -3.8062   -7.3012   -2.6590 O   0  0  0  0  0  0  0  0  0  0  0  0
   -0.9346   -6.6723   -1.8347 O   0  0  0  0  0  0  0  0  0  0  0  0
   -0.4124   -8.1747   -1.7263 C   0  0  0  0  0  0  0  0  0  0  0  0
    0.7262   -8.5702   -1.3978 O   0  0  0  0  0  0  0  0  0  0  0  0
   -1.4010   -9.0651   -1.9645 O   0  0  0  0  0  0  0  0  0  0  0  0
   -1.2512  -10.4921   -1.6890 C   0  0  0  0  0  0  0  0  0  0  0  0
   -4.7932   -3.8103   -3.7640 O   0  0  0  0  0  0  0  0  0  0  0  0
   -6.5601   -3.4521   -0.2474 C   0  0  0  0  0  0  0  0  0  0  0  0
   -5.8046    1.4325   -1.0196 O   0  0  0  0  0  0  0  0  0  0  0  0
   -5.8793    1.8998    0.3754 C   0  0  0  0  0  0  0  0  0  0  0  0
   -6.2629    3.0514    0.5846 O   0  0  0  0  0  0  0  0  0  0  0  0
   -5.4578    1.2761    1.7259 C   0  0  0  0  0  0  0  0  0  0  0  0
   -3.1481   -0.9541    1.8956 H   0  0  0  0  0  0  0  0  0  0  0  0
   -2.0959   -1.4201    1.7555 H   0  0  0  0  0  0  0  0  0  0  0  0
   -3.3206   -2.4816    1.1196 H   0  0  0  0  0  0  0  0  0  0  0  0
   -5.3744    0.0571   -0.7636 H   0  0  0  0  0  0  0  0  0  0  0  0
   -6.8195   -3.9771   -3.3169 H   0  0  0  0  0  0  0  0  0  0  0  0
   -6.3120   -6.2380   -2.2341 H   0  0  0  0  0  0  0  0  0  0  0  0
   -5.4740   -5.6161   -1.0478 H   0  0  0  0  0  0  0  0  0  0  0  0
   -4.4219   -5.6190   -3.6790 H   0  0  0  0  0  0  0  0  0  0  0  0
   -2.6303   -4.0375   -3.1420 H   0  0  0  0  0  0  0  0  0  0  0  0
   -0.3869   -4.8412   -1.3912 H   0  0  0  0  0  0  0  0  0  0  0  0
   -3.4088   -0.8674   -5.4983 H   0  0  0  0  0  0  0  0  0  0  0  0
   -2.8660    1.0353   -4.2284 H   0  0  0  0  0  0  0  0  0  0  0  0
   -1.9010   -0.0249   -5.2769 H   0  0  0  0  0  0  0  0  0  0  0  0
   -4.2130    0.5889   -5.0964 H   0  0  0  0  0  0  0  0  0  0  0  0
   -4.9982   -0.4941   -4.6981 H   0  0  0  0  0  0  0  0  0  0  0  0
   -4.6006    0.7305   -3.4229 H   0  0  0  0  0  0  0  0  0  0  0  0
   -0.1447   -2.9595   -0.4035 H   0  0  0  0  0  0  0  0  0  0  0  0
   -2.0686   -2.8521   -0.4236 H   0  0  0  0  0  0  0  0  0  0  0  0
   -2.8186   -2.2830   -1.8234 H   0  0  0  0  0  0  0  0  0  0  0  0
   -0.4968    1.5915   -0.8371 H   0  0  0  0  0  0  0  0  0  0  0  0
   -2.7006    1.2191   -1.5392 H   0  0  0  0  0  0  0  0  0  0  0  0
   -0.6244    3.3757   -1.6320 H   0  0  0  0  0  0  0  0  0  0  0  0
   -0.9794    4.5413   -0.3033 H   0  0  0  0  0  0  0  0  0  0  0  0
   -0.0325    3.2223    0.0010 H   0  0  0  0  0  0  0  0  0  0  0  0
   -4.1849    2.7688   -1.0292 H   0  0  0  0  0  0  0  0  0  0  0  0
   -3.3859    4.3305   -0.9195 H   0  0  0  0  0  0  0  0  0  0  0  0
   -2.9945    3.1588   -2.2263 H   0  0  0  0  0  0  0  0  0  0  0  0
   -3.4633    2.4840    1.3956 H   0  0  0  0  0  0  0  0  0  0  0  0
   -1.8516    2.2721    1.8839 H   0  0  0  0  0  0  0  0  0  0  0  0
   -2.5604    3.8729    1.5274 H   0  0  0  0  0  0  0  0  0  0  0  0
   -2.4915    0.5283    1.3056 H   0  0  0  0  0  0  0  0  0  0  0  0
   -4.5142   -3.4691    0.9132 H   0  0  0  0  0  0  0  0  0  0  0  0
   -4.8917   -4.3598   -0.2553 H   0  0  0  0  0  0  0  0  0  0  0  0
   -3.4709   -3.5361   -0.4852 H   0  0  0  0  0  0  0  0  0  0  0  0
   -7.1498   -0.1347   -0.5916 H   0  0  0  0  0  0  0  0  0  0  0  0
   -7.7276   -1.5965   -0.6501 H   0  0  0  0  0  0  0  0  0  0  0  0
   -6.7103   -1.0524    0.8060 H   0  0  0  0  0  0  0  0  0  0  0  0
   -5.8277   -0.6614   -3.3952 H   0  0  0  0  0  0  0  0  0  0  0  0
   -4.5475   -1.9603   -3.9933 H   0  0  0  0  0  0  0  0  0  0  0  0
   -6.0123   -2.1625   -3.7897 H   0  0  0  0  0  0  0  0  0  0  0  0
    1.0513   -1.2368    0.0725 H   0  0  0  0  0  0  0  0  0  0  0  0
    1.1300   -3.3215   -1.2903 H   0  0  0  0  0  0  0  0  0  0  0  0
   -0.0950   -1.5352   -2.4652 H   0  0  0  0  0  0  0  0  0  0  0  0
    0.9735   -0.3892   -3.1444 H   0  0  0  0  0  0  0  0  0  0  0  0
    1.0284    2.0357   -1.6023 H   0  0  0  0  0  0  0  0  0  0  0  0
   -0.1964    1.9648    1.1502 H   0  0  0  0  0  0  0  0  0  0  0  0
   -0.4388   -0.6735    2.4143 H   0  0  0  0  0  0  0  0  0  0  0  0
   -2.0576   -7.4247   -4.0209 H   0  0  0  0  0  0  0  0  0  0  0  0
   -2.8516   -5.9068   -4.3312 H   0  0  0  0  0  0  0  0  0  0  0  0
   -0.5279  -11.0079   -2.3362 H   0  0  0  0  0  0  0  0  0  0  0  0
   -1.0343  -10.7173   -0.6349 H   0  0  0  0  0  0  0  0  0  0  0  0
   -2.2387  -10.9151   -1.9092 H   0  0  0  0  0  0  0  0  0  0  0  0
   -4.1502   -3.2255   -3.2671 H   0  0  0  0  0  0  0  0  0  0  0  0
   -6.0758   -2.9656    0.6939 H   0  0  0  0  0  0  0  0  0  0  0  0
   -7.4445   -2.8539    0.1775 H   0  0  0  0  0  0  0  0  0  0  0  0
   -7.0636   -4.3178    0.0246 H   0  0  0  0  0  0  0  0  0  0  0  0
   -6.0123    0.4018    2.0580 H   0  0  0  0  0  0  0  0  0  0  0  0
   -4.3923    1.1570    1.7438 H   0  0  0  0  0  0  0  0  0  0  0  0
   -5.1866    1.7748    2.6403 H   0  0  0  0  0  0  0  0  0  0  0  0
  1 61  1  0  0  0  0
  1 62  1  0  0  0  0
  1 63  1  0  0  0  0
  1  2  1  0  0  0  0
  2  3  2  0  0  0  0
  2 19  1  0  0  0  0
  3  4  1  0  0  0  0
  3 15  1  0  0  0  0
  4  5  1  0  0  0  0
  4 57  1  0  0  0  0
  4 64  1  1  0  0  0
  5  7  1  0  0  0  0
  5  6  2  0  0  0  0
  7  8  1  0  0  0  0
  7 12  1  0  0  0  0
  7 56  1  6  0  0  0
  8  9  1  0  0  0  0
  8 65  1  6  0  0  0
  8 55  1  0  0  0  0
  9 10  1  0  0  0  0
  9 66  1  0  0  0  0
  9 67  1  0  0  0  0
 10 11  1  0  0  0  0
 10 49  1  0  0  0  0
 10 68  1  1  0  0  0
 11 48  1  0  0  0  0
 11 50  1  1  0  0  0
 12 11  1  0  0  0  0
 12 13  1  0  0  0  0
 12 69  1  1  0  0  0
 13 14  1  0  0  0  0
 13 70  1  6  0  0  0
 13 39  1  0  0  0  0
 14 15  1  0  0  0  0
 14 18  1  0  0  0  0
 14 38  1  6  0  0  0
 15 16  1  0  0  0  0
 15 17  1  0  0  0  0
 16 71  1  0  0  0  0
 16 72  1  0  0  0  0
 16 73  1  0  0  0  0
 17 74  1  0  0  0  0
 17 75  1  0  0  0  0
 17 76  1  0  0  0  0
 18 19  1  0  0  0  0
 18 77  1  0  0  0  0
 18 78  1  0  0  0  0
 19 20  1  0  0  0  0
 19 79  1  6  0  0  0
 20 21  1  0  0  0  0
 21 22  2  0  0  0  0
 21 23  1  0  0  0  0
 23 37  1  0  0  0  0
 23 80  1  1  0  0  0
 24 29  1  0  0  0  0
 24 81  1  6  0  0  0
 24 25  1  0  0  0  0
 24 23  1  0  0  0  0
 25 26  1  0  0  0  0
 25 27  1  0  0  0  0
 25 28  1  0  0  0  0
 26 82  1  0  0  0  0
 26 83  1  0  0  0  0
 26 84  1  0  0  0  0
 27 85  1  0  0  0  0
 27 86  1  0  0  0  0
 27 87  1  0  0  0  0
 28 88  1  0  0  0  0
 28 89  1  0  0  0  0
 28 90  1  0  0  0  0
 29 30  1  0  0  0  0
 29 91  1  0  0  0  0
 30 31  2  0  0  0  0
 30 32  1  0  0  0  0
 32 33  1  0  0  0  0
 33 34  1  0  0  0  0
 33 35  1  0  0  0  0
 33 36  1  0  0  0  0
 34 92  1  0  0  0  0
 34 93  1  0  0  0  0
 34 94  1  0  0  0  0
 35 95  1  0  0  0  0
 35 96  1  0  0  0  0
 35 97  1  0  0  0  0
 36 98  1  0  0  0  0
 36 99  1  0  0  0  0
 36100  1  0  0  0  0
 37101  1  0  0  0  0
 38102  1  0  0  0  0
 39 40  1  0  0  0  0
 40 41  2  0  0  0  0
 40 42  1  0  0  0  0
 42 43  2  0  0  0  0
 42 47  1  0  0  0  0
 43 44  1  0  0  0  0
 43103  1  0  0  0  0
 44 45  2  0  0  0  0
 44104  1  0  0  0  0
 45 46  1  0  0  0  0
 45105  1  0  0  0  0
 46 47  2  0  0  0  0
 46106  1  0  0  0  0
 47107  1  0  0  0  0
 48 49  1  0  0  0  0
 48108  1  0  0  0  0
 48109  1  0  0  0  0
 50 51  1  0  0  0  0
 51 52  2  0  0  0  0
 51 53  1  0  0  0  0
 53 54  1  0  0  0  0
 54110  1  0  0  0  0
 54111  1  0  0  0  0
 54112  1  0  0  0  0
 55113  1  0  0  0  0
 56114  1  0  0  0  0
 56115  1  0  0  0  0
 56116  1  0  0  0  0
 57 58  1  0  0  0  0
 58 59  2  0  0  0  0
 58 60  1  0  0  0  0
 60117  1  0  0  0  0
 60118  1  0  0  0  0
 60119  1  0  0  0  0
M  END
>  <DRUGBANK_ID>
DB12144

>  <COMMON_NAME>
BMS-275183

>  <CAS_NUMBER>
355113-98-3

>  <UNII>
UQC681JJIV

$$$$
