
 OpenBabel10282417123D

 25 27  0  0  0  0  0  0  0  0999 V2000
    0.9190   -0.0087    0.1540 O   0  0  0  0  0  0  0  0  0  0  0  0
    2.1018    0.1662    0.3112 C   0  0  0  0  0  0  0  0  0  0  0  0
    2.9283    1.2621   -0.4300 C   0  0  2  0  0  0  0  0  0  0  0  0
    3.2986    0.7374   -1.8204 C   0  0  0  0  0  0  0  0  0  0  0  0
    4.4307   -0.6277   -1.3960 C   0  0  1  0  0  0  0  0  0  0  0  0
    5.6281   -0.1351   -0.4104 C   0  0  0  0  0  0  0  0  0  0  0  0
    5.0733    0.6869    0.8191 C   0  0  1  0  0  0  0  0  0  0  0  0
    4.2155    1.8667    0.2188 C   0  0  0  0  0  0  0  0  0  0  0  0
    4.1549   -0.2162    1.7131 C   0  0  0  0  0  0  0  0  0  0  0  0
    3.0572   -0.9555    0.8858 C   0  0  2  0  0  0  0  0  0  0  0  0
    3.6996   -1.6814   -0.3722 C   0  0  0  0  0  0  0  0  0  0  0  0
    3.5032    0.4523   -0.3113 H   0  0  0  0  0  0  0  0  0  0  0  0
    3.7294    1.5987   -2.3606 H   0  0  0  0  0  0  0  0  0  0  0  0
    2.3440    0.4556   -2.2945 H   0  0  0  0  0  0  0  0  0  0  0  0
    4.8093   -1.1177   -2.2991 H   0  0  0  0  0  0  0  0  0  0  0  0
    6.1850   -0.9908    0.0121 H   0  0  0  0  0  0  0  0  0  0  0  0
    6.3638    0.4522   -0.9668 H   0  0  0  0  0  0  0  0  0  0  0  0
    5.8898    1.0951    1.4194 H   0  0  0  0  0  0  0  0  0  0  0  0
    4.8504    2.3094   -0.5655 H   0  0  0  0  0  0  0  0  0  0  0  0
    3.9799    2.6331    0.9472 H   0  0  0  0  0  0  0  0  0  0  0  0
    3.6609    0.4252    2.4550 H   0  0  0  0  0  0  0  0  0  0  0  0
    4.7624   -0.9434    2.2612 H   0  0  0  0  0  0  0  0  0  0  0  0
    2.4835   -1.6344    1.5173 H   0  0  0  0  0  0  0  0  0  0  0  0
    4.4332   -2.4025    0.0306 H   0  0  0  0  0  0  0  0  0  0  0  0
    2.9547   -2.2694   -0.9129 H   0  0  0  0  0  0  0  0  0  0  0  0
  1  2  2  0  0  0  0
  2 10  1  0  0  0  0
  3  2  1  0  0  0  0
  3  8  1  0  0  0  0
  3  4  1  0  0  0  0
  3 12  1  6  0  0  0
  4 13  1  0  0  0  0
  4 14  1  0  0  0  0
  5 11  1  0  0  0  0
  5  4  1  0  0  0  0
  5  6  1  0  0  0  0
  5 15  1  6  0  0  0
  6 16  1  0  0  0  0
  6 17  1  0  0  0  0
  7  8  1  0  0  0  0
  7  9  1  0  0  0  0
  7  6  1  0  0  0  0
  7 18  1  1  0  0  0
  8 19  1  0  0  0  0
  8 20  1  0  0  0  0
  9 21  1  0  0  0  0
  9 22  1  0  0  0  0
 10  9  1  0  0  0  0
 10 11  1  0  0  0  0
 10 23  1  1  0  0  0
 11 24  1  0  0  0  0
 11 25  1  0  0  0  0
M  END
>  <DRUGBANK_ID>
DB02125

>  <SECONDARY_ACCESSION_NUMBERS>
EXPT00435

>  <COMMON_NAME>
Adamantanone

>  <CAS_NUMBER>
700-58-3

>  <UNII>
UI7W503L08

$$$$
