B33
 OpenBabel10282417143D

 41 40  0  0  0  0  0  0  0  0999 V2000
    0.9369    0.0135    0.0287 C   0  0  0  0  0  0  0  0  0  0  0  0
   -1.1703    0.0359    1.4600 C   0  0  0  0  0  0  0  0  0  0  0  0
   -2.0272   -1.1412    0.9337 C   0  0  0  0  0  0  0  0  0  0  0  0
    2.4979    0.0496    4.3227 C   0  0  0  0  0  0  0  0  0  0  0  0
    3.0458   -1.1981    5.0077 C   0  0  0  0  0  0  0  0  0  0  0  0
    2.6374   -2.4511    4.3764 N   0  0  0  0  0  0  0  0  0  0  0  0
    3.2647   -2.6255    3.0600 C   0  0  0  0  0  0  0  0  0  0  0  0
    2.7852   -3.9115    2.3505 C   0  0  0  0  0  0  0  0  0  0  0  0
    1.3114   -3.8215    2.0323 C   0  0  0  0  0  0  0  0  0  0  0  0
    1.2480   -2.5940    1.2888 N   0  0  0  0  0  0  0  0  0  0  0  0
    1.2734   -2.5809   -0.1362 C   0  0  0  0  0  0  0  0  0  0  0  0
    0.7607   -1.2808   -0.7734 C   0  0  0  0  0  0  0  0  0  0  0  0
    0.2739    0.0983    1.3180 N   0  0  0  0  0  0  0  0  0  0  0  0
   -1.8045   -2.4888    1.5854 C   0  0  0  0  0  0  0  0  0  0  0  0
    0.6229    0.8660   -0.5853 H   0  0  0  0  0  0  0  0  0  0  0  0
    2.0150    0.1591    0.1873 H   0  0  0  0  0  0  0  0  0  0  0  0
   -1.3778    0.1298    2.5329 H   0  0  0  0  0  0  0  0  0  0  0  0
   -1.5671    0.9481    1.0024 H   0  0  0  0  0  0  0  0  0  0  0  0
   -3.0833   -0.8929    1.0698 H   0  0  0  0  0  0  0  0  0  0  0  0
   -1.9122   -1.2412   -0.1447 H   0  0  0  0  0  0  0  0  0  0  0  0
    1.4031    0.0383    4.2959 H   0  0  0  0  0  0  0  0  0  0  0  0
    2.8134    0.9439    4.8674 H   0  0  0  0  0  0  0  0  0  0  0  0
    2.8661    0.1571    3.2979 H   0  0  0  0  0  0  0  0  0  0  0  0
    2.6746   -1.2139    6.0380 H   0  0  0  0  0  0  0  0  0  0  0  0
    4.1377   -1.1543    5.0641 H   0  0  0  0  0  0  0  0  0  0  0  0
    1.6218   -2.4482    4.2806 H   0  0  0  0  0  0  0  0  0  0  0  0
    4.3529   -2.6466    3.1357 H   0  0  0  0  0  0  0  0  0  0  0  0
    3.0407   -1.7529    2.4343 H   0  0  0  0  0  0  0  0  0  0  0  0
    3.0053   -4.8045    2.9389 H   0  0  0  0  0  0  0  0  0  0  0  0
    3.3222   -4.0081    1.3977 H   0  0  0  0  0  0  0  0  0  0  0  0
    0.7166   -3.7550    2.9559 H   0  0  0  0  0  0  0  0  0  0  0  0
    0.8969   -4.6825    1.4906 H   0  0  0  0  0  0  0  0  0  0  0  0
    0.7580   -1.8290    1.7584 H   0  0  0  0  0  0  0  0  0  0  0  0
    0.6817   -3.4130   -0.5376 H   0  0  0  0  0  0  0  0  0  0  0  0
    2.3123   -2.7213   -0.4451 H   0  0  0  0  0  0  0  0  0  0  0  0
   -0.2799   -1.3957   -1.0700 H   0  0  0  0  0  0  0  0  0  0  0  0
    1.2834   -1.1610   -1.7288 H   0  0  0  0  0  0  0  0  0  0  0  0
    0.8397   -0.1627    2.1195 H   0  0  0  0  0  0  0  0  0  0  0  0
   -2.0329   -2.5237    2.6515 H   0  0  0  0  0  0  0  0  0  0  0  0
   -2.2567   -3.3251    1.0455 H   0  0  0  0  0  0  0  0  0  0  0  0
   -0.7823   -2.7254    1.5184 H   0  0  0  0  0  0  0  0  0  0  0  0
  1 12  1  0  0  0  0
  1 13  1  0  0  0  0
  1 15  1  0  0  0  0
  1 16  1  0  0  0  0
  2  3  1  0  0  0  0
  2 13  1  0  0  0  0
  2 17  1  0  0  0  0
  2 18  1  0  0  0  0
  3 14  1  0  0  0  0
  3 19  1  0  0  0  0
  3 20  1  0  0  0  0
  4  5  1  0  0  0  0
  4 21  1  0  0  0  0
  4 22  1  0  0  0  0
  4 23  1  0  0  0  0
  5  6  1  0  0  0  0
  5 24  1  0  0  0  0
  5 25  1  0  0  0  0
  6  7  1  0  0  0  0
  6 26  1  0  0  0  0
  7  8  1  0  0  0  0
  7 27  1  0  0  0  0
  7 28  1  0  0  0  0
  8  9  1  0  0  0  0
  8 29  1  0  0  0  0
  8 30  1  0  0  0  0
  9 10  1  0  0  0  0
  9 31  1  0  0  0  0
  9 32  1  0  0  0  0
 10 11  1  0  0  0  0
 10 33  1  0  0  0  0
 11 12  1  0  0  0  0
 11 34  1  0  0  0  0
 11 35  1  0  0  0  0
 12 36  1  0  0  0  0
 12 37  1  0  0  0  0
 13 38  1  0  0  0  0
 14 39  1  0  0  0  0
 14 40  1  0  0  0  0
 14 41  1  0  0  0  0
M  END
>  <DRUGBANK_ID>
DB04633

>  <COMMON_NAME>
N-ethyl-N-[3-(propylamino)propyl]propane-1,3-diamine

$$$$
