
 OpenBabel10282417233D

 57 59  0  0  1  0  0  0  0  0999 V2000
    1.5786   -7.1694    1.8193 H   0  0  0  0  0  0  0  0  0  0  0  0
    2.4594   -7.2923    2.4481 C   0  0  1  0  0  0  0  0  0  0  0  0
    3.2999   -5.7857    2.7083 S   0  0  0  0  0  0  0  0  0  0  0  0
    4.7810   -6.3504    2.0055 C   0  0  0  0  0  0  0  0  0  0  0  0
    6.1358   -5.2806    1.8790 S   0  0  0  0  0  0  0  0  0  0  0  0
    5.3889   -3.6057    1.9062 C   0  0  1  0  0  0  0  0  0  0  0  0
    4.6379   -3.3292    3.2051 C   0  0  0  0  0  0  0  0  0  0  0  0
    4.6525   -1.8797    3.5350 C   0  0  0  0  0  0  0  0  0  0  0  0
    6.3079   -1.3238    3.1237 S   0  3  1  0  0  0  0  0  0  0  0  0
    7.2348   -1.8141    4.2919 O   0  5  0  0  0  0  0  0  0  0  0  0
    6.4725   -2.5463    1.7579 C   0  0  0  0  0  0  0  0  0  0  0  0
    4.6897   -7.6533    1.6583 C   0  0  0  0  0  0  0  0  0  0  0  0
    3.4316   -8.2563    1.9171 N   0  0  0  0  0  0  0  0  0  0  0  0
    3.2380   -9.1067    2.9818 C   0  0  0  0  0  0  0  0  0  0  0  0
    3.7212  -10.1967    3.2297 O   0  0  0  0  0  0  0  0  0  0  0  0
    2.3730   -8.0918    3.7543 C   0  0  2  0  0  0  0  0  0  0  0  0
    2.9576   -7.6687    4.5919 H   0  0  0  0  0  0  0  0  0  0  0  0
    0.9926   -8.4045    4.3156 C   0  0  1  0  0  0  0  0  0  0  0  0
   -0.1349   -7.6839    3.5906 C   0  0  0  0  0  0  0  0  0  0  0  0
    0.7399   -9.7981    4.3284 O   0  0  0  0  0  0  0  0  0  0  0  0
    5.7557   -8.4679    0.9720 C   0  0  0  0  0  0  0  0  0  0  0  0
    5.5560   -9.5957    0.5471 O   0  0  0  0  0  0  0  0  0  0  0  0
    6.9168   -7.7898    0.8325 O   0  0  0  0  0  0  0  0  0  0  0  0
    8.0500   -8.4533    0.2579 C   0  0  0  0  0  0  0  0  0  0  0  0
    8.5474   -9.5595    1.0110 O   0  0  0  0  0  0  0  0  0  0  0  0
    8.8587   -9.3173    2.3084 C   0  0  0  0  0  0  0  0  0  0  0  0
    8.8976   -8.2075    2.8225 O   0  0  0  0  0  0  0  0  0  0  0  0
    9.1846  -10.6067    3.0608 C   0  0  0  0  0  0  0  0  0  0  0  0
    7.9616  -11.5310    3.1891 C   0  0  0  0  0  0  0  0  0  0  0  0
    7.4761  -12.0880    1.8570 C   0  0  0  0  0  0  0  0  0  0  0  0
   10.3803  -11.3464    2.4474 C   0  0  0  0  0  0  0  0  0  0  0  0
   11.6133  -10.4685    2.3674 C   0  0  0  0  0  0  0  0  0  0  0  0
    4.7170   -3.5605    1.0385 H   0  0  0  0  0  0  0  0  0  0  0  0
    5.0368   -3.9257    4.0372 H   0  0  0  0  0  0  0  0  0  0  0  0
    3.5705   -3.5129    3.0971 H   0  0  0  0  0  0  0  0  0  0  0  0
    3.8931   -1.3572    2.9455 H   0  0  0  0  0  0  0  0  0  0  0  0
    4.4163   -1.7572    4.5972 H   0  0  0  0  0  0  0  0  0  0  0  0
    7.4960   -2.9339    1.7648 H   0  0  0  0  0  0  0  0  0  0  0  0
    6.3252   -2.0023    0.8193 H   0  0  0  0  0  0  0  0  0  0  0  0
    0.9578   -8.0732    5.3633 H   0  0  0  0  0  0  0  0  0  0  0  0
   -0.1936   -8.0108    2.5478 H   0  0  0  0  0  0  0  0  0  0  0  0
   -1.1050   -7.9162    4.0380 H   0  0  0  0  0  0  0  0  0  0  0  0
    0.0070   -6.5967    3.6145 H   0  0  0  0  0  0  0  0  0  0  0  0
    0.8105  -10.1504    3.4250 H   0  0  0  0  0  0  0  0  0  0  0  0
    7.7963   -8.8008   -0.7512 H   0  0  0  0  0  0  0  0  0  0  0  0
    8.8624   -7.7251    0.1342 H   0  0  0  0  0  0  0  0  0  0  0  0
    9.4659  -10.2997    4.0791 H   0  0  0  0  0  0  0  0  0  0  0  0
    8.2196  -12.3769    3.8405 H   0  0  0  0  0  0  0  0  0  0  0  0
    7.1417  -10.9942    3.6813 H   0  0  0  0  0  0  0  0  0  0  0  0
    8.2612  -12.6469    1.3419 H   0  0  0  0  0  0  0  0  0  0  0  0
    6.6192  -12.7485    1.9903 H   0  0  0  0  0  0  0  0  0  0  0  0
    7.1498  -11.2928    1.1922 H   0  0  0  0  0  0  0  0  0  0  0  0
   10.6060  -12.2381    3.0472 H   0  0  0  0  0  0  0  0  0  0  0  0
   10.1522  -11.6932    1.4347 H   0  0  0  0  0  0  0  0  0  0  0  0
   11.9215  -10.1420    3.3642 H   0  0  0  0  0  0  0  0  0  0  0  0
   12.4350  -11.0215    1.9052 H   0  0  0  0  0  0  0  0  0  0  0  0
   11.4198   -9.5840    1.7536 H   0  0  0  0  0  0  0  0  0  0  0  0
  2  1  1  6  0  0  0
  2  3  1  0  0  0  0
  2 13  1  0  0  0  0
  3  4  1  0  0  0  0
  4  5  1  0  0  0  0
  4 12  2  0  0  0  0
  6  7  1  0  0  0  0
  6 11  1  0  0  0  0
  6 33  1  6  0  0  0
  6  5  1  0  0  0  0
  7  8  1  0  0  0  0
  7 34  1  0  0  0  0
  7 35  1  0  0  0  0
  8 36  1  0  0  0  0
  8 37  1  0  0  0  0
  9  8  1  0  0  0  0
  9 10  1  1  0  0  0
  9 11  1  0  0  0  0
 11 38  1  0  0  0  0
 11 39  1  0  0  0  0
 12 13  1  0  0  0  0
 12 21  1  0  0  0  0
 13 14  1  0  0  0  0
 14 15  2  0  0  0  0
 16 14  1  0  0  0  0
 16  2  1  0  0  0  0
 16 18  1  0  0  0  0
 16 17  1  1  0  0  0
 18 19  1  0  0  0  0
 18 20  1  0  0  0  0
 18 40  1  1  0  0  0
 19 41  1  0  0  0  0
 19 42  1  0  0  0  0
 19 43  1  0  0  0  0
 20 44  1  0  0  0  0
 21 22  2  0  0  0  0
 21 23  1  0  0  0  0
 23 24  1  0  0  0  0
 24 25  1  0  0  0  0
 24 45  1  0  0  0  0
 24 46  1  0  0  0  0
 25 26  1  0  0  0  0
 26 27  2  0  0  0  0
 26 28  1  0  0  0  0
 28 29  1  0  0  0  0
 28 31  1  0  0  0  0
 28 47  1  0  0  0  0
 29 30  1  0  0  0  0
 29 48  1  0  0  0  0
 29 49  1  0  0  0  0
 30 50  1  0  0  0  0
 30 51  1  0  0  0  0
 30 52  1  0  0  0  0
 31 32  1  0  0  0  0
 31 53  1  0  0  0  0
 31 54  1  0  0  0  0
 32 55  1  0  0  0  0
 32 56  1  0  0  0  0
 32 57  1  0  0  0  0
M  CHG  2   9   1  10  -1
M  END
>  <DRUGBANK_ID>
DB16335

>  <COMMON_NAME>
Sulopenem etzadroxil

>  <CAS_NUMBER>
1000296-70-7

>  <UNII>
492M3I304T

>  <SYNONYMS>
Sulopenem etzadroxil

$$$$
