
 OpenBabel10282417233D

 35 35  0  0  1  0  0  0  0  0999 V2000
    0.9578   -0.0070    0.0773 C   0  0  0  0  0  0  0  0  0  0  0  0
    0.5855   -0.6079   -1.2894 C   0  0  1  0  0  0  0  0  0  0  0  0
    1.3060   -1.9687   -1.4583 C   0  0  0  0  0  0  0  0  0  0  0  0
    0.7676   -3.0538   -1.6316 O   0  0  0  0  0  0  0  0  0  0  0  0
    2.7035   -2.0532   -1.4384 N   0  0  0  0  0  0  0  0  0  0  0  0
    3.8646   -0.8884   -1.5315 S   0  0  0  0  0  0  0  0  0  0  0  0
    4.7171   -1.1597    0.0144 C   0  0  0  0  0  0  0  0  0  0  0  0
    4.7448   -1.2800   -2.6116 O   0  0  0  0  0  0  0  0  0  0  0  0
    3.2702    0.4231   -1.5130 O   0  0  0  0  0  0  0  0  0  0  0  0
   -0.9501   -0.6129   -1.3421 C   0  0  0  0  0  0  0  0  0  0  0  0
   -1.6655   -1.7986   -1.2731 C   0  0  0  0  0  0  0  0  0  0  0  0
   -3.0393   -1.8205   -1.1561 C   0  0  0  0  0  0  0  0  0  0  0  0
   -3.7923   -0.6567   -1.1070 C   0  0  0  0  0  0  0  0  0  0  0  0
   -5.1763   -0.7011   -1.0485 O   0  0  0  0  0  0  0  0  0  0  0  0
   -5.9174   -2.1840   -1.1484 S   0  0  0  0  0  0  0  0  0  0  0  0
   -5.5788   -2.7774   -2.4362 O   0  0  0  0  0  0  0  0  0  0  0  0
   -5.6198   -2.9112    0.0797 O   0  0  0  0  0  0  0  0  0  0  0  0
   -7.6712   -1.7307   -1.1565 C   0  0  0  0  0  0  0  0  0  0  0  0
   -8.0501   -1.0410   -0.0446 F   0  0  0  0  0  0  0  0  0  0  0  0
   -8.0252   -0.9722   -2.2317 F   0  0  0  0  0  0  0  0  0  0  0  0
   -8.4643   -2.8454   -1.2013 F   0  0  0  0  0  0  0  0  0  0  0  0
   -3.1077    0.5619   -1.1442 C   0  0  0  0  0  0  0  0  0  0  0  0
   -1.7011    0.5828   -1.3139 C   0  0  0  0  0  0  0  0  0  0  0  0
    0.4902   -0.5696    0.8911 H   0  0  0  0  0  0  0  0  0  0  0  0
    0.6484    1.0411    0.1454 H   0  0  0  0  0  0  0  0  0  0  0  0
    2.0202   -0.0282    0.3094 H   0  0  0  0  0  0  0  0  0  0  0  0
    0.9224    0.0171   -2.1270 H   0  0  0  0  0  0  0  0  0  0  0  0
    3.0218   -2.9981   -1.6513 H   0  0  0  0  0  0  0  0  0  0  0  0
    5.2373   -2.1186   -0.0396 H   0  0  0  0  0  0  0  0  0  0  0  0
    5.4351   -0.3492    0.1430 H   0  0  0  0  0  0  0  0  0  0  0  0
    4.0123   -1.1603    0.8498 H   0  0  0  0  0  0  0  0  0  0  0  0
   -1.2198   -2.7814   -1.2842 H   0  0  0  0  0  0  0  0  0  0  0  0
   -3.4584   -2.8179   -1.0952 H   0  0  0  0  0  0  0  0  0  0  0  0
   -3.6351    1.5059   -1.0252 H   0  0  0  0  0  0  0  0  0  0  0  0
   -1.1922    1.5454   -1.3930 H   0  0  0  0  0  0  0  0  0  0  0  0
  1 24  1  0  0  0  0
  1 25  1  0  0  0  0
  1 26  1  0  0  0  0
  2  1  1  0  0  0  0
  2  3  1  0  0  0  0
  2 10  1  0  0  0  0
  2 27  1  6  0  0  0
  3  4  2  0  0  0  0
  3  5  1  0  0  0  0
  5  6  1  0  0  0  0
  5 28  1  0  0  0  0
  6  7  1  0  0  0  0
  6  8  2  0  0  0  0
  6  9  2  0  0  0  0
  7 29  1  0  0  0  0
  7 30  1  0  0  0  0
  7 31  1  0  0  0  0
 10 11  2  0  0  0  0
 10 23  1  0  0  0  0
 11 12  1  0  0  0  0
 11 32  1  0  0  0  0
 12 13  2  0  0  0  0
 12 33  1  0  0  0  0
 13 14  1  0  0  0  0
 13 22  1  0  0  0  0
 14 15  1  0  0  0  0
 15 16  2  0  0  0  0
 15 17  2  0  0  0  0
 15 18  1  0  0  0  0
 18 19  1  0  0  0  0
 18 20  1  0  0  0  0
 18 21  1  0  0  0  0
 22 23  2  0  0  0  0
 22 34  1  0  0  0  0
 23 35  1  0  0  0  0
M  END
>  <DRUGBANK_ID>
DB16212

>  <COMMON_NAME>
Ladarixin

>  <CAS_NUMBER>
849776-05-2

>  <UNII>
DEH7Q6472O

>  <SYNONYMS>
Ladarixin

$$$$
