
 OpenBabel10282417233D

 43 43  0  0  1  0  0  0  0  0999 V2000
    1.0794   -0.2932    0.0686 C   0  0  0  0  0  0  0  0  0  0  0  0
    0.3652    0.9852    0.2899 C   0  0  0  0  0  0  0  0  0  0  0  0
   -0.4118    1.4091   -0.9311 C   0  0  0  0  0  0  0  0  0  0  0  0
    0.5088    1.6570    1.4572 C   0  0  0  0  0  0  0  0  0  0  0  0
    1.5894    1.3950    2.4999 C   0  0  0  0  0  0  0  0  0  0  0  0
    2.8117    2.3776    2.5595 C   0  0  0  0  0  0  0  0  0  0  0  0
    2.5112    3.8778    2.9011 C   0  0  1  0  0  0  0  0  0  0  0  0
    1.7856    3.9039    4.2648 C   0  0  0  0  0  0  0  0  0  0  0  0
    3.8172    4.6791    3.0533 C   0  0  0  0  0  0  0  0  0  0  0  0
    4.1466    5.7831    2.3597 C   0  0  0  0  0  0  0  0  0  0  0  0
    1.6257    4.5704    1.8807 C   0  0  0  0  0  0  0  0  0  0  0  0
    1.4778    4.1979    0.5923 C   0  0  0  0  0  0  0  0  0  0  0  0
    0.5244    4.8351   -0.2943 C   0  0  0  0  0  0  0  0  0  0  0  0
    0.8638    6.0060   -0.9321 C   0  0  0  0  0  0  0  0  0  0  0  0
    0.0818    6.4480   -1.9938 C   0  0  0  0  0  0  0  0  0  0  0  0
   -0.9432    5.6424   -2.4897 C   0  0  0  0  0  0  0  0  0  0  0  0
   -1.6403    5.9649   -3.6100 O   0  0  0  0  0  0  0  0  0  0  0  0
   -1.3283    4.5106   -1.8116 C   0  0  0  0  0  0  0  0  0  0  0  0
   -0.6963    4.2416   -0.6070 C   0  0  0  0  0  0  0  0  0  0  0  0
    0.7717   -0.7498   -0.8741 H   0  0  0  0  0  0  0  0  0  0  0  0
    0.7917   -0.9766    0.8701 H   0  0  0  0  0  0  0  0  0  0  0  0
    2.1555   -0.1234    0.0397 H   0  0  0  0  0  0  0  0  0  0  0  0
   -1.4263    1.7319   -0.6919 H   0  0  0  0  0  0  0  0  0  0  0  0
    0.1786    2.1636   -1.4668 H   0  0  0  0  0  0  0  0  0  0  0  0
   -0.5449    0.6283   -1.6829 H   0  0  0  0  0  0  0  0  0  0  0  0
   -0.0943    2.5389    1.6706 H   0  0  0  0  0  0  0  0  0  0  0  0
    1.1109    1.3504    3.4825 H   0  0  0  0  0  0  0  0  0  0  0  0
    2.0102    0.3984    2.3415 H   0  0  0  0  0  0  0  0  0  0  0  0
    3.4907    1.9793    3.3311 H   0  0  0  0  0  0  0  0  0  0  0  0
    3.3934    2.3086    1.6288 H   0  0  0  0  0  0  0  0  0  0  0  0
    2.3926    3.4315    5.0479 H   0  0  0  0  0  0  0  0  0  0  0  0
    1.5583    4.9245    4.5904 H   0  0  0  0  0  0  0  0  0  0  0  0
    0.8311    3.3681    4.2239 H   0  0  0  0  0  0  0  0  0  0  0  0
    4.5202    4.3329    3.8112 H   0  0  0  0  0  0  0  0  0  0  0  0
    5.0704    6.3239    2.5301 H   0  0  0  0  0  0  0  0  0  0  0  0
    3.4950    6.1940    1.5930 H   0  0  0  0  0  0  0  0  0  0  0  0
    1.1080    5.4644    2.2047 H   0  0  0  0  0  0  0  0  0  0  0  0
    2.0088    3.3418    0.1808 H   0  0  0  0  0  0  0  0  0  0  0  0
    1.7278    6.5585   -0.5819 H   0  0  0  0  0  0  0  0  0  0  0  0
    0.3126    7.4062   -2.4345 H   0  0  0  0  0  0  0  0  0  0  0  0
   -1.3887    6.8666   -3.8606 H   0  0  0  0  0  0  0  0  0  0  0  0
   -2.1061    3.8552   -2.1979 H   0  0  0  0  0  0  0  0  0  0  0  0
   -1.1160    3.4907    0.0457 H   0  0  0  0  0  0  0  0  0  0  0  0
  1  2  1  0  0  0  0
  1 20  1  0  0  0  0
  1 21  1  0  0  0  0
  1 22  1  0  0  0  0
  2  3  1  0  0  0  0
  2  4  2  0  0  0  0
  3 23  1  0  0  0  0
  3 24  1  0  0  0  0
  3 25  1  0  0  0  0
  4  5  1  0  0  0  0
  4 26  1  0  0  0  0
  5  6  1  0  0  0  0
  5 27  1  0  0  0  0
  5 28  1  0  0  0  0
  6 29  1  0  0  0  0
  6 30  1  0  0  0  0
  7  6  1  0  0  0  0
  7  8  1  0  0  0  0
  7  9  1  1  0  0  0
  7 11  1  0  0  0  0
  8 31  1  0  0  0  0
  8 32  1  0  0  0  0
  8 33  1  0  0  0  0
  9 10  2  0  0  0  0
  9 34  1  0  0  0  0
 10 35  1  0  0  0  0
 10 36  1  0  0  0  0
 11 12  2  0  0  0  0
 11 37  1  0  0  0  0
 12 13  1  0  0  0  0
 12 38  1  0  0  0  0
 13 14  2  0  0  0  0
 13 19  1  0  0  0  0
 14 15  1  0  0  0  0
 14 39  1  0  0  0  0
 15 16  2  0  0  0  0
 15 40  1  0  0  0  0
 16 17  1  0  0  0  0
 16 18  1  0  0  0  0
 17 41  1  0  0  0  0
 18 19  2  0  0  0  0
 18 42  1  0  0  0  0
 19 43  1  0  0  0  0
M  END
>  <DRUGBANK_ID>
DB16102

>  <COMMON_NAME>
Bakuchiol

>  <CAS_NUMBER>
10309-37-2

>  <UNII>
OT12HJU3AR

>  <SYNONYMS>
(+)-bakuchiol; (s)-bakuchiol; Drupanol; Sytenol a

$$$$
