
 OpenBabel10282417233D

 89 89  0  0  0  0  0  0  0  0999 V2000
    1.4749   -0.1553    0.1435 C   0  0  0  0  0  0  0  0  0  0  0  0
    0.5594    0.2958   -0.9676 N   0  3  0  0  0  0  0  0  0  0  0  0
    1.3764   -1.2657   -2.0332 C   0  0  0  0  0  0  0  0  0  0  0  0
   -1.4637    0.6514   -1.8236 C   0  0  0  0  0  0  0  0  0  0  0  0
    1.3102    1.9196   -1.4576 C   0  0  0  0  0  0  0  0  0  0  0  0
    0.5113    2.7766   -0.5508 C   0  0  0  0  0  0  0  0  0  0  0  0
    0.7313    2.3516    0.8105 O   0  0  0  0  0  0  0  0  0  0  0  0
    0.0227    1.0759    1.9309 P   0  0  3  0  0  0  0  0  0  0  0  0
    1.3020    0.8755    2.7329 O   0  5  0  0  0  0  0  0  0  0  0  0
   -1.3243    1.6778    2.1896 O   0  0  0  0  0  0  0  0  0  0  0  0
   -0.3005   -0.7069    1.6725 O   0  0  0  0  0  0  0  0  0  0  0  0
   -0.7675   -1.6957    0.6301 C   0  0  0  0  0  0  0  0  0  0  0  0
   -1.9179   -1.1672   -0.0390 C   0  0  0  0  0  0  0  0  0  0  0  0
   -1.0867   -0.0048   -0.4363 C   0  0  0  0  0  0  0  0  0  0  0  0
   -0.0522    0.0846   -2.4135 C   0  0  0  0  0  0  0  0  0  0  0  0
   -0.5411   -0.6638   -3.6318 C   0  0  0  0  0  0  0  0  0  0  0  0
   -1.5750    0.2178   -4.2665 C   0  0  0  0  0  0  0  0  0  0  0  0
   -0.9191    1.6698   -4.4475 C   0  0  0  0  0  0  0  0  0  0  0  0
    0.4097    1.4996   -5.1585 C   0  0  0  0  0  0  0  0  0  0  0  0
    0.0841    0.6681   -6.3834 C   0  0  0  0  0  0  0  0  0  0  0  0
   -1.0227    1.3785   -7.1504 C   0  0  0  0  0  0  0  0  0  0  0  0
   -0.5169    2.7561   -7.5484 C   0  0  0  0  0  0  0  0  0  0  0  0
    0.7320    2.5879   -8.4061 C   0  0  0  0  0  0  0  0  0  0  0  0
    0.3831    1.7623   -9.6411 C   0  0  0  0  0  0  0  0  0  0  0  0
   -0.7030    2.4779  -10.4320 C   0  0  0  0  0  0  0  0  0  0  0  0
   -0.1934    3.8496  -10.8476 C   0  0  0  0  0  0  0  0  0  0  0  0
    1.0518    3.7028  -11.7228 C   0  0  0  0  0  0  0  0  0  0  0  0
    0.7206    2.9031  -12.9797 C   0  0  0  0  0  0  0  0  0  0  0  0
   -0.3655    3.6129  -13.7759 C   0  0  0  0  0  0  0  0  0  0  0  0
    0.0637    4.9983  -14.1833 C   0  0  0  0  0  0  0  0  0  0  0  0
   -0.2857    6.1206  -13.4185 C   0  0  0  0  0  0  0  0  0  0  0  0
   -0.1104    7.4028  -13.9182 C   0  0  0  0  0  0  0  0  0  0  0  0
    0.6324    7.5775  -15.0722 C   0  0  0  0  0  0  0  0  0  0  0  0
    0.8176    9.4831  -15.8739 I   0  0  0  0  0  0  0  0  0  0  0  0
    1.2154    6.4758  -15.6951 C   0  0  0  0  0  0  0  0  0  0  0  0
    0.8526    5.1835  -15.3126 C   0  0  0  0  0  0  0  0  0  0  0  0
    1.2635   -1.1122    0.5596 H   0  0  0  0  0  0  0  0  0  0  0  0
    1.4787    0.7399    0.6041 H   0  0  0  0  0  0  0  0  0  0  0  0
    2.5166   -0.1478   -0.1088 H   0  0  0  0  0  0  0  0  0  0  0  0
    0.6869   -2.1150   -1.9675 H   0  0  0  0  0  0  0  0  0  0  0  0
    1.4628   -0.8658   -3.1616 H   0  0  0  0  0  0  0  0  0  0  0  0
    2.4546   -1.1772   -2.0907 H   0  0  0  0  0  0  0  0  0  0  0  0
   -1.6224    1.5757   -1.3273 H   0  0  0  0  0  0  0  0  0  0  0  0
   -1.6801    1.2392   -2.6530 H   0  0  0  0  0  0  0  0  0  0  0  0
   -1.5699   -0.6624   -1.9469 H   0  0  0  0  0  0  0  0  0  0  0  0
    2.3716    1.6675   -1.5226 H   0  0  0  0  0  0  0  0  0  0  0  0
    1.1399    2.1722   -2.5648 H   0  0  0  0  0  0  0  0  0  0  0  0
    0.8352    3.7778   -0.8841 H   0  0  0  0  0  0  0  0  0  0  0  0
   -0.5465    2.8188   -0.7762 H   0  0  0  0  0  0  0  0  0  0  0  0
   -0.0444   -1.9619   -0.1827 H   0  0  0  0  0  0  0  0  0  0  0  0
   -0.9908   -2.7139    0.9280 H   0  0  0  0  0  0  0  0  0  0  0  0
   -2.2716   -1.7494   -0.8970 H   0  0  0  0  0  0  0  0  0  0  0  0
   -2.8128   -0.8167    0.4824 H   0  0  0  0  0  0  0  0  0  0  0  0
   -2.4245    0.5917   -0.4384 H   0  0  0  0  0  0  0  0  0  0  0  0
   -0.9308    0.9916    0.1541 H   0  0  0  0  0  0  0  0  0  0  0  0
   -0.0551    1.1957   -2.6084 H   0  0  0  0  0  0  0  0  0  0  0  0
    1.4033    0.3680   -2.3307 H   0  0  0  0  0  0  0  0  0  0  0  0
    0.2468   -0.8128   -4.3571 H   0  0  0  0  0  0  0  0  0  0  0  0
   -0.8394   -1.6414   -3.2649 H   0  0  0  0  0  0  0  0  0  0  0  0
   -1.8443   -0.3616   -5.1162 H   0  0  0  0  0  0  0  0  0  0  0  0
   -2.5412    0.2788   -3.7361 H   0  0  0  0  0  0  0  0  0  0  0  0
   -1.6740    2.2862   -4.8979 H   0  0  0  0  0  0  0  0  0  0  0  0
   -0.7376    2.3416   -3.5769 H   0  0  0  0  0  0  0  0  0  0  0  0
    0.8301    2.4790   -5.3751 H   0  0  0  0  0  0  0  0  0  0  0  0
    1.2011    1.0164   -4.5702 H   0  0  0  0  0  0  0  0  0  0  0  0
    0.9848    0.4880   -6.9552 H   0  0  0  0  0  0  0  0  0  0  0  0
   -0.2520   -0.3422   -6.1510 H   0  0  0  0  0  0  0  0  0  0  0  0
   -1.3241    0.7660   -7.9950 H   0  0  0  0  0  0  0  0  0  0  0  0
   -1.9490    1.4779   -6.5783 H   0  0  0  0  0  0  0  0  0  0  0  0
   -1.3087    3.2991   -8.0617 H   0  0  0  0  0  0  0  0  0  0  0  0
   -0.2901    3.3845   -6.6845 H   0  0  0  0  0  0  0  0  0  0  0  0
    1.1347    3.5676   -8.6619 H   0  0  0  0  0  0  0  0  0  0  0  0
    1.5471    2.1080   -7.8617 H   0  0  0  0  0  0  0  0  0  0  0  0
    1.2801    1.5943  -10.2374 H   0  0  0  0  0  0  0  0  0  0  0  0
    0.0471    0.7567   -9.3847 H   0  0  0  0  0  0  0  0  0  0  0  0
   -0.9987    1.8760  -11.2922 H   0  0  0  0  0  0  0  0  0  0  0  0
   -1.6271    2.5885   -9.8605 H   0  0  0  0  0  0  0  0  0  0  0  0
   -1.0049    4.3678  -11.3514 H   0  0  0  0  0  0  0  0  0  0  0  0
    0.0314    4.4898   -9.9919 H   0  0  0  0  0  0  0  0  0  0  0  0
    1.4455    4.6867  -11.9827 H   0  0  0  0  0  0  0  0  0  0  0  0
    1.8666    3.2193  -11.1795 H   0  0  0  0  0  0  0  0  0  0  0  0
    1.6200    2.7651  -13.5829 H   0  0  0  0  0  0  0  0  0  0  0  0
    0.3821    1.8927  -12.7198 H   0  0  0  0  0  0  0  0  0  0  0  0
   -0.6309    3.0179  -14.6540 H   0  0  0  0  0  0  0  0  0  0  0  0
   -1.2971    3.6829  -13.2017 H   0  0  0  0  0  0  0  0  0  0  0  0
   -0.7105    6.0181  -12.4278 H   0  0  0  0  0  0  0  0  0  0  0  0
   -0.5579    8.2454  -13.4023 H   0  0  0  0  0  0  0  0  0  0  0  0
    1.9322    6.6130  -16.4948 H   0  0  0  0  0  0  0  0  0  0  0  0
    1.1747    4.3223  -15.8931 H   0  0  0  0  0  0  0  0  0  0  0  0
  1  2  1  0  0  0  0
  1 37  1  0  0  0  0
  1 38  1  0  0  0  0
  1 39  1  0  0  0  0
  2  3  1  0  0  0  0
  2  4  1  0  0  0  0
  2  5  1  0  0  0  0
  3 40  1  0  0  0  0
  3 41  1  0  0  0  0
  3 42  1  0  0  0  0
  4 43  1  0  0  0  0
  4 44  1  0  0  0  0
  4 45  1  0  0  0  0
  5  6  1  0  0  0  0
  5 46  1  0  0  0  0
  5 47  1  0  0  0  0
  6  7  1  0  0  0  0
  6 48  1  0  0  0  0
  6 49  1  0  0  0  0
  7  8  1  0  0  0  0
  8  9  1  0  0  0  0
  8 10  2  0  0  0  0
  8 11  1  0  0  0  0
 11 12  1  0  0  0  0
 12 13  1  0  0  0  0
 12 50  1  0  0  0  0
 12 51  1  0  0  0  0
 13 14  1  0  0  0  0
 13 52  1  0  0  0  0
 13 53  1  0  0  0  0
 14 15  1  0  0  0  0
 14 54  1  0  0  0  0
 14 55  1  0  0  0  0
 15 16  1  0  0  0  0
 15 56  1  0  0  0  0
 15 57  1  0  0  0  0
 16 17  1  0  0  0  0
 16 58  1  0  0  0  0
 16 59  1  0  0  0  0
 17 18  1  0  0  0  0
 17 60  1  0  0  0  0
 17 61  1  0  0  0  0
 18 19  1  0  0  0  0
 18 62  1  0  0  0  0
 18 63  1  0  0  0  0
 19 20  1  0  0  0  0
 19 64  1  0  0  0  0
 19 65  1  0  0  0  0
 20 21  1  0  0  0  0
 20 66  1  0  0  0  0
 20 67  1  0  0  0  0
 21 22  1  0  0  0  0
 21 68  1  0  0  0  0
 21 69  1  0  0  0  0
 22 23  1  0  0  0  0
 22 70  1  0  0  0  0
 22 71  1  0  0  0  0
 23 24  1  0  0  0  0
 23 72  1  0  0  0  0
 23 73  1  0  0  0  0
 24 25  1  0  0  0  0
 24 74  1  0  0  0  0
 24 75  1  0  0  0  0
 25 26  1  0  0  0  0
 25 76  1  0  0  0  0
 25 77  1  0  0  0  0
 26 27  1  0  0  0  0
 26 78  1  0  0  0  0
 26 79  1  0  0  0  0
 27 28  1  0  0  0  0
 27 80  1  0  0  0  0
 27 81  1  0  0  0  0
 28 29  1  0  0  0  0
 28 82  1  0  0  0  0
 28 83  1  0  0  0  0
 29 30  1  0  0  0  0
 29 84  1  0  0  0  0
 29 85  1  0  0  0  0
 30 31  2  0  0  0  0
 30 36  1  0  0  0  0
 31 32  1  0  0  0  0
 31 86  1  0  0  0  0
 32 33  2  0  0  0  0
 32 87  1  0  0  0  0
 33 34  1  0  0  0  0
 33 35  1  0  0  0  0
 35 36  2  0  0  0  0
 35 88  1  0  0  0  0
 36 89  1  0  0  0  0
M  ISO  1  34 124
M  CHG  2   2   1   9  -1
M  END
>  <DRUGBANK_ID>
DB17127

>  <COMMON_NAME>
Iopofosine I-124

>  <CAS_NUMBER>
873438-87-0

>  <UNII>
08W354EC17

>  <SYNONYMS>
18-(p-(124i )-iodophenyl)octadecyl phosphocholine; Ethanaminium, 2-((hydroxy((18-(4-(iodo-124i)phenyl)octadecyl)oxy)phosphinyl)oxy)-n,n,n-trimethyl-, inner salt

$$$$
