ZZY
 OpenBabel10282417173D

 34 36  0  0  0  0  0  0  0  0999 V2000
    1.1092    0.0454   -0.0715 O   0  0  0  0  0  0  0  0  0  0  0  0
    2.3321    0.0574   -0.0114 C   0  0  0  0  0  0  0  0  0  0  0  0
    3.0325    1.2354   -0.0080 N   0  0  0  0  0  0  0  0  0  0  0  0
    3.1240   -1.1921    0.0765 C   0  0  0  0  0  0  0  0  0  0  0  0
    4.2711   -1.2370    0.8642 C   0  0  0  0  0  0  0  0  0  0  0  0
    4.9354   -2.4594    1.0447 C   0  0  0  0  0  0  0  0  0  0  0  0
    2.7341   -2.3463   -0.5698 C   0  0  0  0  0  0  0  0  0  0  0  0
    3.3931   -3.5311   -0.5020 N   0  0  0  0  0  0  0  0  0  0  0  0
    4.4700   -3.5704    0.3288 C   0  0  0  0  0  0  0  0  0  0  0  0
    5.3180   -4.6669    0.6215 C   0  0  0  0  0  0  0  0  0  0  0  0
    6.2477   -4.2433    1.5500 C   0  0  0  0  0  0  0  0  0  0  0  0
    5.9781   -2.9231    1.8402 N   0  0  0  0  0  0  0  0  0  0  0  0
    6.9261   -2.0457    2.9924 S   0  0  0  0  0  0  0  0  0  0  0  0
    6.8824   -2.7504    4.2497 O   0  0  0  0  0  0  0  0  0  0  0  0
    8.2032   -1.8689    2.3075 O   0  0  0  0  0  0  0  0  0  0  0  0
    6.2168   -0.4330    3.2290 C   0  0  0  0  0  0  0  0  0  0  0  0
    4.9199   -0.2083    3.7295 C   0  0  0  0  0  0  0  0  0  0  0  0
    3.9583   -1.2819    4.0728 N   0  3  0  0  0  0  0  0  0  0  0  0
    2.7926   -0.9431    4.3099 O   0  5  0  0  0  0  0  0  0  0  0  0
    4.3194   -2.4553    4.0038 O   0  0  0  0  0  0  0  0  0  0  0  0
    6.9653    0.6615    2.7363 C   0  0  0  0  0  0  0  0  0  0  0  0
    6.3600    1.9039    2.5388 C   0  0  0  0  0  0  0  0  0  0  0  0
    5.0881    2.1360    3.0452 C   0  0  0  0  0  0  0  0  0  0  0  0
    4.3913    1.1028    3.6778 C   0  0  0  0  0  0  0  0  0  0  0  0
    4.0366    1.2918   -0.1081 H   0  0  0  0  0  0  0  0  0  0  0  0
    2.5023    2.0897   -0.1341 H   0  0  0  0  0  0  0  0  0  0  0  0
    4.5632   -0.3306    1.3530 H   0  0  0  0  0  0  0  0  0  0  0  0
    1.8560   -2.3441   -1.2139 H   0  0  0  0  0  0  0  0  0  0  0  0
    5.2407   -5.6620    0.2022 H   0  0  0  0  0  0  0  0  0  0  0  0
    7.0548   -4.7744    2.0407 H   0  0  0  0  0  0  0  0  0  0  0  0
    8.0145    0.5527    2.4544 H   0  0  0  0  0  0  0  0  0  0  0  0
    6.8770    2.6867    1.9833 H   0  0  0  0  0  0  0  0  0  0  0  0
    4.6301    3.1189    2.9434 H   0  0  0  0  0  0  0  0  0  0  0  0
    3.3874    1.3181    4.0446 H   0  0  0  0  0  0  0  0  0  0  0  0
  1  2  2  0  0  0  0
  2  3  1  0  0  0  0
  2  4  1  0  0  0  0
  3 25  1  0  0  0  0
  3 26  1  0  0  0  0
  4  5  1  0  0  0  0
  4  7  2  0  0  0  0
  5  6  2  0  0  0  0
  5 27  1  0  0  0  0
  6  9  1  0  0  0  0
  6 12  1  0  0  0  0
  7  8  1  0  0  0  0
  7 28  1  0  0  0  0
  8  9  2  0  0  0  0
  9 10  1  0  0  0  0
 10 11  2  0  0  0  0
 10 29  1  0  0  0  0
 11 12  1  0  0  0  0
 11 30  1  0  0  0  0
 12 13  1  0  0  0  0
 13 14  2  0  0  0  0
 13 15  2  0  0  0  0
 13 16  1  0  0  0  0
 16 17  1  0  0  0  0
 16 21  2  0  0  0  0
 17 18  1  0  0  0  0
 17 24  2  0  0  0  0
 18 19  1  0  0  0  0
 18 20  2  0  0  0  0
 21 22  1  0  0  0  0
 21 31  1  0  0  0  0
 22 23  2  0  0  0  0
 22 32  1  0  0  0  0
 23 24  1  0  0  0  0
 23 33  1  0  0  0  0
 24 34  1  0  0  0  0
M  CHG  2  18   1  19  -1
M  END
>  <DRUGBANK_ID>
DB08791

>  <COMMON_NAME>
1-[(2-NITROPHENYL)SULFONYL]-1H-PYRROLO[3,2-B]PYRIDINE-6-CARBOXAMIDE

$$$$
