
 OpenBabel10282417193D

 25 24  0  0  0  0  0  0  0  0999 V2000
    1.0657   -0.0771    0.1527 C   0  0  0  0  0  0  0  0  0  0  0  0
    0.5238   -0.7794   -1.1024 C   0  0  0  0  0  0  0  0  0  0  0  0
    1.0071   -2.2154   -1.1336 C   0  0  0  0  0  0  0  0  0  0  0  0
   -0.9991   -0.6301   -1.1930 C   0  0  0  0  0  0  0  0  0  0  0  0
   -1.4239    0.8444   -1.2927 C   0  0  0  0  0  0  0  0  0  0  0  0
   -0.8831    1.4664   -2.4877 O   0  0  0  0  0  0  0  0  0  0  0  0
    0.4097    1.8936   -2.5080 C   0  0  0  0  0  0  0  0  0  0  0  0
    1.2040    1.9278   -1.5772 O   0  0  0  0  0  0  0  0  0  0  0  0
    0.8653    2.3161   -3.8250 C   0  0  0  0  0  0  0  0  0  0  0  0
   -0.0022    2.7942   -4.7355 C   0  0  0  0  0  0  0  0  0  0  0  0
    2.3597    2.4547   -4.0657 C   0  0  0  0  0  0  0  0  0  0  0  0
    3.5994    2.5698   -4.2654 N   0  0  0  0  0  0  0  0  0  0  0  0
    0.7366   -0.5815    1.0618 H   0  0  0  0  0  0  0  0  0  0  0  0
    0.7184    0.9529    0.2721 H   0  0  0  0  0  0  0  0  0  0  0  0
    2.1581   -0.0334    0.1249 H   0  0  0  0  0  0  0  0  0  0  0  0
    0.9516   -0.3636   -2.0185 H   0  0  0  0  0  0  0  0  0  0  0  0
    0.6707   -2.7672   -0.2550 H   0  0  0  0  0  0  0  0  0  0  0  0
    0.6581   -2.7193   -2.0397 H   0  0  0  0  0  0  0  0  0  0  0  0
    2.1038   -2.2180   -1.1567 H   0  0  0  0  0  0  0  0  0  0  0  0
   -1.3645   -1.1599   -2.0827 H   0  0  0  0  0  0  0  0  0  0  0  0
   -1.4718   -1.1026   -0.3227 H   0  0  0  0  0  0  0  0  0  0  0  0
   -2.5185    0.8832   -1.3676 H   0  0  0  0  0  0  0  0  0  0  0  0
   -1.1735    1.4255   -0.3992 H   0  0  0  0  0  0  0  0  0  0  0  0
    0.3416    3.2605   -5.6544 H   0  0  0  0  0  0  0  0  0  0  0  0
   -1.0756    2.7833   -4.5677 H   0  0  0  0  0  0  0  0  0  0  0  0
  1  2  1  0  0  0  0
  1 13  1  0  0  0  0
  1 14  1  0  0  0  0
  1 15  1  0  0  0  0
  2  3  1  0  0  0  0
  2  4  1  0  0  0  0
  2 16  1  0  0  0  0
  3 17  1  0  0  0  0
  3 18  1  0  0  0  0
  3 19  1  0  0  0  0
  4  5  1  0  0  0  0
  4 20  1  0  0  0  0
  4 21  1  0  0  0  0
  5  6  1  0  0  0  0
  5 22  1  0  0  0  0
  5 23  1  0  0  0  0
  6  7  1  0  0  0  0
  7  8  2  0  0  0  0
  7  9  1  0  0  0  0
  9 10  2  0  0  0  0
  9 11  1  0  0  0  0
 10 24  1  0  0  0  0
 10 25  1  0  0  0  0
 11 12  3  0  0  0  0
M  END
>  <DRUGBANK_ID>
DB12630

>  <COMMON_NAME>
Isopentyl 2-cyanoacrylate

>  <CAS_NUMBER>
19475-26-4

>  <UNII>
3977IRA64J

$$$$
