
 OpenBabel10282417123D

 31 30  0  0  0  0  0  0  0  0999 V2000
    0.9786   -0.0119   -0.0632 C   0  0  0  0  0  0  0  0  0  0  0  0
   -0.5857    3.4228   -4.8127 C   0  0  0  0  0  0  0  0  0  0  0  0
    0.2392   -0.6217    0.7928 N   0  0  0  0  0  0  0  0  0  0  0  0
   -1.1052    3.9932   -5.7615 O   0  0  0  0  0  0  0  0  0  0  0  0
    0.3972    0.7001   -1.0410 N   0  0  0  0  0  0  0  0  0  0  0  0
   -1.2940    2.6028   -3.7219 C   0  0  1  0  0  0  0  0  0  0  0  0
    2.3145   -0.0515   -0.0279 N   0  0  0  0  0  0  0  0  0  0  0  0
   -2.7457    2.7438   -3.7983 N   0  0  0  0  0  0  0  0  0  0  0  0
    1.0025    1.4311   -2.1208 C   0  0  0  0  0  0  0  0  0  0  0  0
   -0.9166    1.1152   -3.7731 C   0  0  0  0  0  0  0  0  0  0  0  0
    0.5611    0.8527   -3.4637 C   0  0  0  0  0  0  0  0  0  0  0  0
    0.7554    3.4721   -4.6458 O   0  0  0  0  0  0  0  0  0  0  0  0
   -3.5705    3.3229   -2.8761 C   0  0  0  0  0  0  0  0  0  0  0  0
   -4.7702    3.4373   -3.1140 O   0  0  0  0  0  0  0  0  0  0  0  0
   -2.9681    3.7891   -1.5752 C   0  0  0  0  0  0  0  0  0  0  0  0
    0.8397   -1.1093    1.4586 H   0  0  0  0  0  0  0  0  0  0  0  0
   -0.6170    0.6723   -0.9899 H   0  0  0  0  0  0  0  0  0  0  0  0
   -0.9906    3.0394   -2.7732 H   0  0  0  0  0  0  0  0  0  0  0  0
    2.8086   -0.5555    0.6894 H   0  0  0  0  0  0  0  0  0  0  0  0
    2.8806    0.4431   -0.6949 H   0  0  0  0  0  0  0  0  0  0  0  0
   -3.2040    2.5103   -4.6731 H   0  0  0  0  0  0  0  0  0  0  0  0
    0.7541    2.4894   -2.0097 H   0  0  0  0  0  0  0  0  0  0  0  0
    2.0921    1.4086   -2.0926 H   0  0  0  0  0  0  0  0  0  0  0  0
   -1.1589    0.6967   -4.7581 H   0  0  0  0  0  0  0  0  0  0  0  0
   -1.5298    0.5564   -3.0528 H   0  0  0  0  0  0  0  0  0  0  0  0
    1.1863    1.2754   -4.2556 H   0  0  0  0  0  0  0  0  0  0  0  0
    0.7610   -0.2245   -3.4989 H   0  0  0  0  0  0  0  0  0  0  0  0
    1.1128    3.9159   -5.4445 H   0  0  0  0  0  0  0  0  0  0  0  0
   -2.5057    2.9482   -1.0499 H   0  0  0  0  0  0  0  0  0  0  0  0
   -2.2281    4.5724   -1.7636 H   0  0  0  0  0  0  0  0  0  0  0  0
   -3.7489    4.2076   -0.9344 H   0  0  0  0  0  0  0  0  0  0  0  0
  1  3  2  0  0  0  0
  1  5  1  0  0  0  0
  1  7  1  0  0  0  0
  2  6  1  0  0  0  0
  2  4  2  0  0  0  0
  3 16  1  0  0  0  0
  5  9  1  0  0  0  0
  5 17  1  0  0  0  0
  6 10  1  0  0  0  0
  6  8  1  0  0  0  0
  6 18  1  1  0  0  0
  7 19  1  0  0  0  0
  7 20  1  0  0  0  0
  8 13  1  0  0  0  0
  8 21  1  0  0  0  0
  9 11  1  0  0  0  0
  9 22  1  0  0  0  0
  9 23  1  0  0  0  0
 10 11  1  0  0  0  0
 10 24  1  0  0  0  0
 10 25  1  0  0  0  0
 11 26  1  0  0  0  0
 11 27  1  0  0  0  0
 12  2  1  0  0  0  0
 12 28  1  0  0  0  0
 14 13  2  0  0  0  0
 15 13  1  0  0  0  0
 15 29  1  0  0  0  0
 15 30  1  0  0  0  0
 15 31  1  0  0  0  0
M  END
>  <DRUGBANK_ID>
DB01985

>  <SECONDARY_ACCESSION_NUMBERS>
EXPT00382

>  <COMMON_NAME>
N-acetyl-L-arginine

>  <CAS_NUMBER>
155-84-0

>  <UNII>
TQ7DL04CAE

>  <SYNONYMS>
N-Ac-L-Arg-OH; N-alpha-L-acetyl-arginine; N2-Acetyl-L-arginine

$$$$
