
 OpenBabel10282417103D

196196  0  0  0  0  0  0  0  0999 V2000
    0.9924    3.6876   -3.5387 C   0  0  2  0  0  0  0  0  0  0  0  0
    0.4189    5.2249   -5.5376 N   0  0  0  0  0  0  0  0  0  0  0  0
    0.6763    2.7067   -1.3330 C   0  0  0  0  0  0  0  0  0  0  0  0
    1.7805    1.8396   -1.8279 C   0  0  1  0  0  0  0  0  0  0  0  0
    0.3813    6.8423   -7.1056 C   0  0  0  0  0  0  0  0  0  0  0  0
   -0.4503    6.3122   -7.6677 C   0  0  0  0  0  0  0  0  0  0  0  0
   -0.2101    2.3247    0.3293 N   0  0  0  0  0  0  0  0  0  0  0  0
    0.8201    1.8194    0.0701 O   0  0  0  0  0  0  0  0  0  0  0  0
    2.4261   -0.1055   -0.4908 C   0  0  1  0  0  0  0  0  0  0  0  0
    3.1429    0.8283   -1.4999 O   0  0  0  0  0  0  0  0  0  0  0  0
    1.2308    7.8763   -8.3944 C   0  0  1  0  0  0  0  0  0  0  0  0
    0.5162    8.3155   -8.1297 O   0  0  0  0  0  0  0  0  0  0  0  0
   -0.9139    3.0769    1.5464 C   0  0  2  0  0  0  0  0  0  0  0  0
    2.3973   -2.0646   -0.9996 C   0  0  0  0  0  0  0  0  0  0  0  0
    4.2577   -1.1041    0.1254 C   0  0  0  0  0  0  0  0  0  0  0  0
    2.5314    7.6399   -8.7413 N   0  0  0  0  0  0  0  0  0  0  0  0
   -0.3791    4.3049    1.2838 C   0  0  0  0  0  0  0  0  0  0  0  0
   -0.4011    2.8338    2.9546 C   0  0  0  0  0  0  0  0  0  0  0  0
    2.9605   -1.7656   -2.2832 C   0  0  0  0  0  0  0  0  0  0  0  0
    3.4597    7.5025   -7.6263 C   0  0  0  0  0  0  0  0  0  0  0  0
    2.7848    7.4515  -10.1505 C   0  0  0  0  0  0  0  0  0  0  0  0
   -1.6646    5.5325    1.4942 N   0  0  0  0  0  0  0  0  0  0  0  0
    0.8916    4.5607    1.2740 O   0  0  0  0  0  0  0  0  0  0  0  0
   -0.3456    4.0492    3.8556 C   0  0  0  0  0  0  0  0  0  0  0  0
    3.7630   -2.4577   -3.0536 C   0  0  0  0  0  0  0  0  0  0  0  0
    4.7704    7.3568   -8.0337 C   0  0  1  0  0  0  0  0  0  0  0  0
    3.5101    7.3760   -6.3327 O   0  0  0  0  0  0  0  0  0  0  0  0
   -1.0825    7.3409    0.8117 C   0  0  0  0  0  0  0  0  0  0  0  0
   -3.2710    5.2457    1.2291 C   0  0  0  0  0  0  0  0  0  0  0  0
    4.2542   -1.9050   -4.3435 C   0  0  0  0  0  0  0  0  0  0  0  0
    5.6620    8.3711   -7.5021 N   0  0  0  0  0  0  0  0  0  0  0  0
    4.9110    6.0959   -7.4546 C   0  0  0  0  0  0  0  0  0  0  0  0
   -1.4660    7.5518   -1.0542 C   0  0  0  0  0  0  0  0  0  0  0  0
    6.6392    8.1687   -6.4839 C   0  0  0  0  0  0  0  0  0  0  0  0
    5.5133    9.6803   -8.1163 C   0  0  0  0  0  0  0  0  0  0  0  0
    4.0615    4.8095   -7.4600 C   0  0  0  0  0  0  0  0  0  0  0  0
   -0.9814    6.5851   -2.1026 N   0  0  0  0  0  0  0  0  0  0  0  0
   -2.1812    8.5048   -1.1512 O   0  0  0  0  0  0  0  0  0  0  0  0
    6.8086    6.7797   -5.7906 C   0  0  1  0  0  0  0  0  0  0  0  0
    7.4018    9.0686   -6.1210 O   0  0  0  0  0  0  0  0  0  0  0  0
    3.8714    4.4380   -8.7792 C   0  0  0  0  0  0  0  0  0  0  0  0
    4.5822    3.3214   -6.5866 C   0  0  0  0  0  0  0  0  0  0  0  0
   -0.1751    5.3440   -1.9572 C   0  0  2  0  0  0  0  0  0  0  0  0
   -1.4952    6.8459   -3.3882 C   0  0  0  0  0  0  0  0  0  0  0  0
    5.6102    6.3542   -4.8776 N   0  0  0  0  0  0  0  0  0  0  0  0
    7.2996    5.7972   -6.8731 C   0  0  0  0  0  0  0  0  0  0  0  0
   -0.9791    4.1259   -2.3253 C   0  0  0  0  0  0  0  0  0  0  0  0
    0.3788    5.0801   -0.6881 C   0  0  0  0  0  0  0  0  0  0  0  0
    4.8275    5.3193   -5.2399 C   0  0  0  0  0  0  0  0  0  0  0  0
    5.0352    7.3020   -4.0696 C   0  0  0  0  0  0  0  0  0  0  0  0
    8.5787    5.1951   -6.7070 C   0  0  0  0  0  0  0  0  0  0  0  0
   -0.8248    3.3748   -3.5489 N   0  0  0  0  0  0  0  0  0  0  0  0
   -1.9047    3.9208   -1.5513 O   0  0  0  0  0  0  0  0  0  0  0  0
   -0.2968    5.9871    0.0448 C   0  0  0  0  0  0  0  0  0  0  0  0
    3.4182    4.8615   -4.8444 C   0  0  2  0  0  0  0  0  0  0  0  0
    5.5066    4.7915   -6.0794 O   0  0  0  0  0  0  0  0  0  0  0  0
    8.6468    4.5567   -5.3548 C   0  0  0  0  0  0  0  0  0  0  0  0
    8.8295    4.1836   -7.7914 C   0  0  0  0  0  0  0  0  0  0  0  0
   -1.2186    1.9758   -3.7687 C   0  0  2  0  0  0  0  0  0  0  0  0
   -2.0602    5.8268   -0.2309 C   0  0  0  0  0  0  0  0  0  0  0  0
   -0.0525    6.2099    2.0988 C   0  0  0  0  0  0  0  0  0  0  0  0
    2.3323    4.7185   -5.7165 N   0  0  0  0  0  0  0  0  0  0  0  0
    3.0750    5.8067   -3.8366 C   0  0  0  0  0  0  0  0  0  0  0  0
   -1.7793    1.8668   -5.1430 C   0  0  0  0  0  0  0  0  0  0  0  0
   -2.4299    1.8551   -2.9607 C   0  0  0  0  0  0  0  0  0  0  0  0
    1.8508    3.5233   -6.0132 C   0  0  0  0  0  0  0  0  0  0  0  0
   -1.0954    1.0031   -6.1532 N   0  0  0  0  0  0  0  0  0  0  0  0
   -2.6920    2.6651   -5.3618 O   0  0  0  0  0  0  0  0  0  0  0  0
   -2.0868    1.5833   -1.5533 C   0  0  0  0  0  0  0  0  0  0  0  0
   -3.3002    3.1089   -3.1098 C   0  0  0  0  0  0  0  0  0  0  0  0
    0.9820    3.5460   -7.0435 C   0  0  1  0  0  0  0  0  0  0  0  0
    1.9473    2.4601   -5.4625 O   0  0  0  0  0  0  0  0  0  0  0  0
   -1.3749    1.1801   -7.7155 C   0  0  2  0  0  0  0  0  0  0  0  0
   -0.1523    0.0276   -5.7774 C   0  0  0  0  0  0  0  0  0  0  0  0
    1.0632    2.3135   -8.2300 N   0  0  0  0  0  0  0  0  0  0  0  0
   -0.2618    3.2059   -6.3353 C   0  0  0  0  0  0  0  0  0  0  0  0
   -0.0057    1.3618   -8.5276 C   0  0  0  0  0  0  0  0  0  0  0  0
    0.1852    0.5534   -9.4240 O   0  0  0  0  0  0  0  0  0  0  0  0
    0.6605    8.4670   -6.5924 C   0  0  0  0  0  0  0  0  0  0  0  0
    1.8190    7.9836   -6.1774 C   0  0  0  0  0  0  0  0  0  0  0  0
    0.7293    9.9484   -6.7260 C   0  0  0  0  0  0  0  0  0  0  0  0
   -2.3877    2.4413   -7.9973 C   0  0  0  0  0  0  0  0  0  0  0  0
   -2.0304    3.7651   -7.4540 C   0  0  0  0  0  0  0  0  0  0  0  0
   -0.7728    4.1701   -8.0499 C   0  0  0  0  0  0  0  0  0  0  0  0
   -2.7190    4.9796   -7.3757 C   0  0  0  0  0  0  0  0  0  0  0  0
    0.6084    2.3029   -2.6935 H   0  0  0  0  0  0  0  0  0  0  0  0
    2.2652    1.3184   -0.2893 H   0  0  0  0  0  0  0  0  0  0  0  0
   -0.4706    6.7698   -9.4037 H   0  0  0  0  0  0  0  0  0  0  0  0
   -1.3774    7.3282   -8.7790 H   0  0  0  0  0  0  0  0  0  0  0  0
   -0.9968    7.1686   -9.1385 H   0  0  0  0  0  0  0  0  0  0  0  0
   -0.7715    2.2881   -0.3271 H   0  0  0  0  0  0  0  0  0  0  0  0
    2.4849   -1.2575    0.7833 H   0  0  0  0  0  0  0  0  0  0  0  0
    2.5869    0.1704   -1.9186 H   0  0  0  0  0  0  0  0  0  0  0  0
    0.6332    7.2694   -9.0528 H   0  0  0  0  0  0  0  0  0  0  0  0
   -1.9842    3.1658    1.5532 H   0  0  0  0  0  0  0  0  0  0  0  0
    2.8295   -3.1723   -0.7372 H   0  0  0  0  0  0  0  0  0  0  0  0
    1.3561   -2.2343   -0.9214 H   0  0  0  0  0  0  0  0  0  0  0  0
    4.8246   -0.7092    1.0294 H   0  0  0  0  0  0  0  0  0  0  0  0
    4.7707   -2.3238    0.3396 H   0  0  0  0  0  0  0  0  0  0  0  0
    4.8785   -0.9474   -0.7280 H   0  0  0  0  0  0  0  0  0  0  0  0
   -1.1006    2.1389    3.3836 H   0  0  0  0  0  0  0  0  0  0  0  0
    0.5886    2.3950    2.9345 H   0  0  0  0  0  0  0  0  0  0  0  0
    2.7178   -0.8531   -2.7269 H   0  0  0  0  0  0  0  0  0  0  0  0
    3.5695    8.1236  -10.4439 H   0  0  0  0  0  0  0  0  0  0  0  0
    3.1385    6.4499  -10.2351 H   0  0  0  0  0  0  0  0  0  0  0  0
    1.9371    7.5474  -10.8282 H   0  0  0  0  0  0  0  0  0  0  0  0
   -1.3259    4.5516    3.8549 H   0  0  0  0  0  0  0  0  0  0  0  0
   -0.0362    3.8368    4.8363 H   0  0  0  0  0  0  0  0  0  0  0  0
    0.4440    4.7360    3.5064 H   0  0  0  0  0  0  0  0  0  0  0  0
    4.0219   -3.4482   -2.7381 H   0  0  0  0  0  0  0  0  0  0  0  0
    4.8925    7.1111   -9.0283 H   0  0  0  0  0  0  0  0  0  0  0  0
   -1.3093    8.0380    1.4520 H   0  0  0  0  0  0  0  0  0  0  0  0
    0.3906    7.2773    0.8449 H   0  0  0  0  0  0  0  0  0  0  0  0
   -3.4064    4.5444    0.3104 H   0  0  0  0  0  0  0  0  0  0  0  0
   -3.1452    5.0043    2.1865 H   0  0  0  0  0  0  0  0  0  0  0  0
   -3.7663    6.1520    0.7540 H   0  0  0  0  0  0  0  0  0  0  0  0
    5.3408   -1.8945   -4.3581 H   0  0  0  0  0  0  0  0  0  0  0  0
    3.8977   -2.5149   -5.1689 H   0  0  0  0  0  0  0  0  0  0  0  0
    3.9018   -0.8830   -4.4972 H   0  0  0  0  0  0  0  0  0  0  0  0
    5.7703    5.7368   -7.8088 H   0  0  0  0  0  0  0  0  0  0  0  0
    5.1143    6.4746   -6.5213 H   0  0  0  0  0  0  0  0  0  0  0  0
    5.2788   10.4231   -7.3589 H   0  0  0  0  0  0  0  0  0  0  0  0
    6.4431    9.9545   -8.6056 H   0  0  0  0  0  0  0  0  0  0  0  0
    4.7156    9.6801   -8.8617 H   0  0  0  0  0  0  0  0  0  0  0  0
    3.2731    5.1892   -7.0108 H   0  0  0  0  0  0  0  0  0  0  0  0
    7.5805    6.8049   -5.0795 H   0  0  0  0  0  0  0  0  0  0  0  0
    4.8346    4.1899   -9.1602 H   0  0  0  0  0  0  0  0  0  0  0  0
    3.1982    3.6335   -8.7760 H   0  0  0  0  0  0  0  0  0  0  0  0
    3.4696    5.2864   -9.2263 H   0  0  0  0  0  0  0  0  0  0  0  0
    4.8099    3.5017   -5.4289 H   0  0  0  0  0  0  0  0  0  0  0  0
    3.8565    2.6309   -6.5887 H   0  0  0  0  0  0  0  0  0  0  0  0
    5.6011    3.2023   -6.9888 H   0  0  0  0  0  0  0  0  0  0  0  0
    0.7281    5.4367   -2.4614 H   0  0  0  0  0  0  0  0  0  0  0  0
   -2.5814    6.8433   -3.3825 H   0  0  0  0  0  0  0  0  0  0  0  0
   -1.1389    7.8281   -3.6641 H   0  0  0  0  0  0  0  0  0  0  0  0
   -1.1430    6.1158   -4.0974 H   0  0  0  0  0  0  0  0  0  0  0  0
    6.7908    4.8712   -6.9297 H   0  0  0  0  0  0  0  0  0  0  0  0
    7.1745    6.2219   -7.8908 H   0  0  0  0  0  0  0  0  0  0  0  0
    0.0746    4.1464   -0.3462 H   0  0  0  0  0  0  0  0  0  0  0  0
    1.3180    5.4243   -0.3441 H   0  0  0  0  0  0  0  0  0  0  0  0
    4.0950    7.7086   -4.3854 H   0  0  0  0  0  0  0  0  0  0  0  0
    4.9778    6.7422   -3.1712 H   0  0  0  0  0  0  0  0  0  0  0  0
    5.6709    8.1020   -3.9191 H   0  0  0  0  0  0  0  0  0  0  0  0
    9.2312    6.0322   -6.7954 H   0  0  0  0  0  0  0  0  0  0  0  0
   -0.0913    3.7584   -4.4636 H   0  0  0  0  0  0  0  0  0  0  0  0
    0.0116    7.1459   -0.4426 H   0  0  0  0  0  0  0  0  0  0  0  0
    3.5269    3.8616   -4.4389 H   0  0  0  0  0  0  0  0  0  0  0  0
    7.9388    3.7338   -5.2694 H   0  0  0  0  0  0  0  0  0  0  0  0
    9.6480    4.1888   -5.2080 H   0  0  0  0  0  0  0  0  0  0  0  0
    8.4246    5.2749   -4.5726 H   0  0  0  0  0  0  0  0  0  0  0  0
    8.7367    4.6359   -8.7755 H   0  0  0  0  0  0  0  0  0  0  0  0
    9.8352    3.8061   -7.6663 H   0  0  0  0  0  0  0  0  0  0  0  0
    8.1287    3.3506   -7.7262 H   0  0  0  0  0  0  0  0  0  0  0  0
   -0.4943    1.1724   -3.6398 H   0  0  0  0  0  0  0  0  0  0  0  0
   -1.9976    4.6164    0.1351 H   0  0  0  0  0  0  0  0  0  0  0  0
   -2.5619    6.7808    0.6752 H   0  0  0  0  0  0  0  0  0  0  0  0
   -2.5363    5.8968   -1.0946 H   0  0  0  0  0  0  0  0  0  0  0  0
    0.9316    6.3279    2.1267 H   0  0  0  0  0  0  0  0  0  0  0  0
   -0.8441    6.7886    2.5862 H   0  0  0  0  0  0  0  0  0  0  0  0
   -0.4256    5.3056    2.5452 H   0  0  0  0  0  0  0  0  0  0  0  0
    2.0869    5.4904   -6.3642 H   0  0  0  0  0  0  0  0  0  0  0  0
    2.1853    5.5905   -3.3703 H   0  0  0  0  0  0  0  0  0  0  0  0
    3.8273    5.7812   -3.0864 H   0  0  0  0  0  0  0  0  0  0  0  0
    2.9296    6.7608   -4.2783 H   0  0  0  0  0  0  0  0  0  0  0  0
   -2.9824    1.0250   -3.3236 H   0  0  0  0  0  0  0  0  0  0  0  0
   -1.5617    2.3971   -1.2472 H   0  0  0  0  0  0  0  0  0  0  0  0
   -2.9340    1.5645   -0.9089 H   0  0  0  0  0  0  0  0  0  0  0  0
   -1.4295    0.7517   -1.4199 H   0  0  0  0  0  0  0  0  0  0  0  0
   -3.5707    3.3339   -4.0951 H   0  0  0  0  0  0  0  0  0  0  0  0
   -4.1526    3.0543   -2.4949 H   0  0  0  0  0  0  0  0  0  0  0  0
   -2.8296    4.0503   -2.9245 H   0  0  0  0  0  0  0  0  0  0  0  0
    1.0299    4.4636   -7.7695 H   0  0  0  0  0  0  0  0  0  0  0  0
   -1.9256    0.3370   -7.9930 H   0  0  0  0  0  0  0  0  0  0  0  0
    0.7418    0.4428   -5.3301 H   0  0  0  0  0  0  0  0  0  0  0  0
   -0.6939   -0.5508   -5.0498 H   0  0  0  0  0  0  0  0  0  0  0  0
    0.1059   -0.5780   -6.6298 H   0  0  0  0  0  0  0  0  0  0  0  0
    1.7437    2.6244   -8.8880 H   0  0  0  0  0  0  0  0  0  0  0  0
   -0.9653    2.5507   -6.8656 H   0  0  0  0  0  0  0  0  0  0  0  0
   -0.3428    2.8778   -5.4357 H   0  0  0  0  0  0  0  0  0  0  0  0
   -0.9767    4.4892   -6.2077 H   0  0  0  0  0  0  0  0  0  0  0  0
   -0.3657    8.1523   -6.3942 H   0  0  0  0  0  0  0  0  0  0  0  0
    2.5550    8.8051   -6.8935 H   0  0  0  0  0  0  0  0  0  0  0  0
    1.8201    7.9940   -5.1780 H   0  0  0  0  0  0  0  0  0  0  0  0
    1.8957    6.8638   -6.4631 H   0  0  0  0  0  0  0  0  0  0  0  0
   -0.1048   10.3525   -7.2917 H   0  0  0  0  0  0  0  0  0  0  0  0
    0.6526   10.1107   -5.6957 H   0  0  0  0  0  0  0  0  0  0  0  0
    1.6595   10.3455   -7.1454 H   0  0  0  0  0  0  0  0  0  0  0  0
   -2.3540    2.7128   -9.0002 H   0  0  0  0  0  0  0  0  0  0  0  0
   -3.2729    2.2553   -7.4681 H   0  0  0  0  0  0  0  0  0  0  0  0
   -1.8950    3.6074   -6.2303 H   0  0  0  0  0  0  0  0  0  0  0  0
   -0.4048    4.3351   -8.9604 H   0  0  0  0  0  0  0  0  0  0  0  0
   -0.2265    4.9203   -7.2905 H   0  0  0  0  0  0  0  0  0  0  0  0
   -0.2804    3.2388   -8.0522 H   0  0  0  0  0  0  0  0  0  0  0  0
   -3.6113    4.6925   -6.9157 H   0  0  0  0  0  0  0  0  0  0  0  0
   -2.2247    5.7753   -6.8046 H   0  0  0  0  0  0  0  0  0  0  0  0
   -2.7222    5.1796   -8.4062 H   0  0  0  0  0  0  0  0  0  0  0  0
  1  2  1  0  0  0  0
  1  3  1  0  0  0  0
  1 86  1  6  0  0  0
  1  4  1  0  0  0  0
  2  5  1  0  0  0  0
  2  6  1  0  0  0  0
  3  7  1  0  0  0  0
  3  8  2  0  0  0  0
  4  9  1  0  0  0  0
  4 10  1  0  0  0  0
  4 87  1  1  0  0  0
  5 11  1  0  0  0  0
  5 12  2  0  0  0  0
  6 88  1  0  0  0  0
  6 89  1  0  0  0  0
  6 90  1  0  0  0  0
  7 13  1  0  0  0  0
  7 91  1  0  0  0  0
  9 14  1  0  0  0  0
  9 15  1  0  0  0  0
  9 92  1  1  0  0  0
 10 93  1  0  0  0  0
 11 16  1  0  0  0  0
 11 94  1  1  0  0  0
 11 79  1  0  0  0  0
 13 17  1  0  0  0  0
 13 95  1  6  0  0  0
 13 18  1  0  0  0  0
 14 19  1  0  0  0  0
 14 96  1  0  0  0  0
 14 97  1  0  0  0  0
 15 98  1  0  0  0  0
 15 99  1  0  0  0  0
 15100  1  0  0  0  0
 16 20  1  0  0  0  0
 16 21  1  0  0  0  0
 17 22  1  0  0  0  0
 17 23  2  0  0  0  0
 18 24  1  0  0  0  0
 18101  1  0  0  0  0
 18102  1  0  0  0  0
 19 25  2  0  0  0  0
 19103  1  0  0  0  0
 20 26  1  0  0  0  0
 20 27  2  0  0  0  0
 21104  1  0  0  0  0
 21105  1  0  0  0  0
 21106  1  0  0  0  0
 22 28  1  0  0  0  0
 22 29  1  0  0  0  0
 24107  1  0  0  0  0
 24108  1  0  0  0  0
 24109  1  0  0  0  0
 25 30  1  0  0  0  0
 25110  1  0  0  0  0
 26 31  1  0  0  0  0
 26111  1  6  0  0  0
 26 32  1  0  0  0  0
 28 33  1  0  0  0  0
 28112  1  0  0  0  0
 28113  1  0  0  0  0
 29114  1  0  0  0  0
 29115  1  0  0  0  0
 29116  1  0  0  0  0
 30117  1  0  0  0  0
 30118  1  0  0  0  0
 30119  1  0  0  0  0
 31 35  1  0  0  0  0
 32 36  1  0  0  0  0
 32120  1  0  0  0  0
 32121  1  0  0  0  0
 33 38  2  0  0  0  0
 33 37  1  0  0  0  0
 34 39  1  0  0  0  0
 34 40  2  0  0  0  0
 34 31  1  0  0  0  0
 35122  1  0  0  0  0
 35123  1  0  0  0  0
 35124  1  0  0  0  0
 36 41  1  0  0  0  0
 36 42  1  0  0  0  0
 36125  1  0  0  0  0
 37 43  1  0  0  0  0
 37 44  1  0  0  0  0
 39 45  1  0  0  0  0
 39126  1  1  0  0  0
 39 46  1  0  0  0  0
 41127  1  0  0  0  0
 41128  1  0  0  0  0
 41129  1  0  0  0  0
 42130  1  0  0  0  0
 42131  1  0  0  0  0
 42132  1  0  0  0  0
 43 47  1  0  0  0  0
 43133  1  6  0  0  0
 43 48  1  0  0  0  0
 44134  1  0  0  0  0
 44135  1  0  0  0  0
 44136  1  0  0  0  0
 45 49  1  0  0  0  0
 45 50  1  0  0  0  0
 46 51  1  0  0  0  0
 46137  1  0  0  0  0
 46138  1  0  0  0  0
 47 52  1  0  0  0  0
 47 53  2  0  0  0  0
 48 54  1  0  0  0  0
 48139  1  0  0  0  0
 48140  1  0  0  0  0
 49 55  1  0  0  0  0
 49 56  2  0  0  0  0
 50141  1  0  0  0  0
 50142  1  0  0  0  0
 50143  1  0  0  0  0
 51 57  1  0  0  0  0
 51 58  1  0  0  0  0
 51144  1  0  0  0  0
 52 59  1  0  0  0  0
 52145  1  0  0  0  0
 54 60  1  0  0  0  0
 54 61  1  0  0  0  0
 54146  1  0  0  0  0
 55 62  1  0  0  0  0
 55 63  1  0  0  0  0
 55147  1  1  0  0  0
 57148  1  0  0  0  0
 57149  1  0  0  0  0
 57150  1  0  0  0  0
 58151  1  0  0  0  0
 58152  1  0  0  0  0
 58153  1  0  0  0  0
 59 64  1  0  0  0  0
 59154  1  1  0  0  0
 59 65  1  0  0  0  0
 60155  1  0  0  0  0
 60156  1  0  0  0  0
 60157  1  0  0  0  0
 61158  1  0  0  0  0
 61159  1  0  0  0  0
 61160  1  0  0  0  0
 62 66  1  0  0  0  0
 62161  1  0  0  0  0
 63162  1  0  0  0  0
 63163  1  0  0  0  0
 63164  1  0  0  0  0
 64 67  1  0  0  0  0
 64 68  2  0  0  0  0
 65 69  1  0  0  0  0
 65 70  1  0  0  0  0
 65165  1  0  0  0  0
 66 71  1  0  0  0  0
 66 72  2  0  0  0  0
 67 73  1  0  0  0  0
 67 74  1  0  0  0  0
 69166  1  0  0  0  0
 69167  1  0  0  0  0
 69168  1  0  0  0  0
 70169  1  0  0  0  0
 70170  1  0  0  0  0
 70171  1  0  0  0  0
 71 75  1  0  0  0  0
 71172  1  6  0  0  0
 71 76  1  0  0  0  0
 73 77  1  0  0  0  0
 73173  1  6  0  0  0
 73 82  1  0  0  0  0
 74174  1  0  0  0  0
 74175  1  0  0  0  0
 74176  1  0  0  0  0
 75 77  1  0  0  0  0
 75177  1  0  0  0  0
 76178  1  0  0  0  0
 76179  1  0  0  0  0
 76180  1  0  0  0  0
 77 78  2  0  0  0  0
 79 80  1  0  0  0  0
 79 81  1  0  0  0  0
 79181  1  0  0  0  0
 80182  1  0  0  0  0
 80183  1  0  0  0  0
 80184  1  0  0  0  0
 81185  1  0  0  0  0
 81186  1  0  0  0  0
 81187  1  0  0  0  0
 82 83  1  0  0  0  0
 82188  1  0  0  0  0
 82189  1  0  0  0  0
 83 84  1  0  0  0  0
 83 85  1  0  0  0  0
 83190  1  0  0  0  0
 84191  1  0  0  0  0
 84192  1  0  0  0  0
 84193  1  0  0  0  0
 85194  1  0  0  0  0
 85195  1  0  0  0  0
 85196  1  0  0  0  0
M  END
>  <DRUGBANK_ID>
DB00091

>  <SECONDARY_ACCESSION_NUMBERS>
BTD00003; BIOD00003

>  <COMMON_NAME>
Cyclosporine

>  <CAS_NUMBER>
59865-13-3

>  <UNII>
83HN0GTJ6D

>  <SYNONYMS>
Ciclosporin; Ciclosporina; Ciclosporine; Ciclosporinum; CsA; CyA; Cyclosporin; Cyclosporin A; Cyclosporine

$$$$
