
 OpenBabel10282417123D

 19 18  0  0  0  0  0  0  0  0999 V2000
    0.9288   -0.0159   -0.1000 C   0  0  0  0  0  0  0  0  0  0  0  0
    0.4781   -1.4657   -0.0096 C   0  0  0  0  0  0  0  0  0  0  0  0
    0.9424   -2.1344    1.2872 C   0  0  0  0  0  0  0  0  0  0  0  0
    0.3773   -1.4827    2.5575 C   0  0  0  0  0  0  0  0  0  0  0  0
   -1.1526   -1.4547    2.6175 C   0  0  0  0  0  0  0  0  0  0  0  0
   -1.7035   -2.8050    2.6318 N   0  0  0  0  0  0  0  0  0  0  0  0
    0.5250    0.5869    0.7188 H   0  0  0  0  0  0  0  0  0  0  0  0
    0.5851    0.4339   -1.0353 H   0  0  0  0  0  0  0  0  0  0  0  0
    2.0208    0.0477   -0.0650 H   0  0  0  0  0  0  0  0  0  0  0  0
   -0.6121   -1.5188   -0.1033 H   0  0  0  0  0  0  0  0  0  0  0  0
    0.8815   -2.0218   -0.8633 H   0  0  0  0  0  0  0  0  0  0  0  0
    0.6676   -3.1957    1.2600 H   0  0  0  0  0  0  0  0  0  0  0  0
    2.0381   -2.1120    1.3337 H   0  0  0  0  0  0  0  0  0  0  0  0
    0.7699   -2.0121    3.4344 H   0  0  0  0  0  0  0  0  0  0  0  0
    0.7535   -0.4560    2.6431 H   0  0  0  0  0  0  0  0  0  0  0  0
   -1.4713   -0.9265    3.5209 H   0  0  0  0  0  0  0  0  0  0  0  0
   -1.5655   -0.8982    1.7695 H   0  0  0  0  0  0  0  0  0  0  0  0
   -2.7223   -2.7556    2.5821 H   0  0  0  0  0  0  0  0  0  0  0  0
   -1.4092   -3.3091    1.8001 H   0  0  0  0  0  0  0  0  0  0  0  0
  1  2  1  0  0  0  0
  1  7  1  0  0  0  0
  1  8  1  0  0  0  0
  1  9  1  0  0  0  0
  2  3  1  0  0  0  0
  2 10  1  0  0  0  0
  2 11  1  0  0  0  0
  3  4  1  0  0  0  0
  3 12  1  0  0  0  0
  3 13  1  0  0  0  0
  4  5  1  0  0  0  0
  4 14  1  0  0  0  0
  4 15  1  0  0  0  0
  5  6  1  0  0  0  0
  5 16  1  0  0  0  0
  5 17  1  0  0  0  0
  6 18  1  0  0  0  0
  6 19  1  0  0  0  0
M  END
>  <DRUGBANK_ID>
DB02045

>  <SECONDARY_ACCESSION_NUMBERS>
EXPT00510

>  <COMMON_NAME>
Amylamine

>  <CAS_NUMBER>
110-58-7

>  <UNII>
E05QM3V8EF

$$$$
