
 OpenBabel10282417173D

 52 54  0  0  1  0  0  0  0  0999 V2000
   -7.4693  -11.3241  -11.4074 N   0  0  0  0  0  0  0  0  0  0  0  0
   -6.9746  -13.2674  -12.6427 N   0  0  0  0  0  0  0  0  0  0  0  0
   -6.2661  -13.1364  -10.3502 C   0  0  0  0  0  0  0  0  0  0  0  0
   -6.3711  -13.8011  -11.5738 C   0  0  0  0  0  0  0  0  0  0  0  0
   -6.8592  -11.8790  -10.3449 C   0  0  0  0  0  0  0  0  0  0  0  0
   -7.4991  -12.0476  -12.5248 C   0  0  0  0  0  0  0  0  0  0  0  0
   -5.6323  -13.6654   -9.2476 N   0  0  0  0  0  0  0  0  0  0  0  0
   -3.5280  -12.3354   -2.5219 C   0  0  0  0  0  0  0  0  0  0  0  0
   -5.8347  -15.0297  -11.6735 N   0  0  0  0  0  0  0  0  0  0  0  0
   -3.3614  -10.9622   -2.3912 N   0  0  0  0  0  0  0  0  0  0  0  0
   -2.8280   -8.7944   -1.2906 C   0  0  0  0  0  0  0  0  0  0  0  0
   -3.2516  -10.2767   -1.0844 C   0  0  2  0  0  0  0  0  0  0  0  0
   -3.1848  -10.5846    1.9802 C   0  0  0  0  0  0  0  0  0  0  0  0
   -3.4874  -12.9384   -3.8973 C   0  0  0  0  0  0  0  0  0  0  0  0
   -5.0798  -14.8930   -9.3767 C   0  0  0  0  0  0  0  0  0  0  0  0
   -3.7269   -7.8017   -1.1481 O   0  0  0  0  0  0  0  0  0  0  0  0
   -3.6579  -13.0818   -1.5545 O   0  0  0  0  0  0  0  0  0  0  0  0
   -2.9840  -11.3121    3.0904 O   0  0  0  0  0  0  0  0  0  0  0  0
   -1.6788   -8.5060   -1.6187 O   0  0  0  0  0  0  0  0  0  0  0  0
   -3.2167  -14.8073   -7.6950 N   0  0  0  0  0  0  0  0  0  0  0  0
   -4.2989  -10.1526    1.6767 O   0  0  0  0  0  0  0  0  0  0  0  0
   -6.8088  -11.1163   -9.1837 N   0  0  0  0  0  0  0  0  0  0  0  0
   -5.2054  -15.5587  -10.5849 C   0  0  0  0  0  0  0  0  0  0  0  0
   -8.1081  -11.4962  -13.6180 N   0  0  0  0  0  0  0  0  0  0  0  0
   -2.0971  -10.9068   -0.2475 C   0  0  0  0  0  0  0  0  0  0  0  0
   -3.6023  -14.3302   -4.0293 C   0  0  0  0  0  0  0  0  0  0  0  0
   -3.2849  -12.1890   -5.0569 C   0  0  0  0  0  0  0  0  0  0  0  0
   -4.4001  -15.5388   -8.1759 C   0  0  0  0  0  0  0  0  0  0  0  0
   -1.9554  -10.3165    1.1540 C   0  0  0  0  0  0  0  0  0  0  0  0
   -3.2573  -14.2029   -6.4403 C   0  0  0  0  0  0  0  0  0  0  0  0
   -3.0474  -12.8291   -6.2868 C   0  0  0  0  0  0  0  0  0  0  0  0
   -3.5784  -14.9353   -5.2951 C   0  0  0  0  0  0  0  0  0  0  0  0
   -3.2511  -10.3813   -3.2076 H   0  0  0  0  0  0  0  0  0  0  0  0
   -4.2238  -10.3815   -0.5976 H   0  0  0  0  0  0  0  0  0  0  0  0
   -4.6540   -7.9571   -0.8913 H   0  0  0  0  0  0  0  0  0  0  0  0
   -2.0610  -11.5876    3.2476 H   0  0  0  0  0  0  0  0  0  0  0  0
   -2.6696  -14.3371   -8.4076 H   0  0  0  0  0  0  0  0  0  0  0  0
   -6.3832  -11.5367   -8.3660 H   0  0  0  0  0  0  0  0  0  0  0  0
   -7.2521  -10.2130   -9.1634 H   0  0  0  0  0  0  0  0  0  0  0  0
   -4.8046  -16.5577  -10.7331 H   0  0  0  0  0  0  0  0  0  0  0  0
   -8.1404  -12.0214  -14.4752 H   0  0  0  0  0  0  0  0  0  0  0  0
   -8.5019  -10.5738  -13.5374 H   0  0  0  0  0  0  0  0  0  0  0  0
   -2.1920  -11.9922   -0.1526 H   0  0  0  0  0  0  0  0  0  0  0  0
   -1.1511  -10.7585   -0.7895 H   0  0  0  0  0  0  0  0  0  0  0  0
   -3.7167  -14.9626   -3.1501 H   0  0  0  0  0  0  0  0  0  0  0  0
   -3.3044  -11.1063   -5.0454 H   0  0  0  0  0  0  0  0  0  0  0  0
   -5.1600  -15.6689   -7.3949 H   0  0  0  0  0  0  0  0  0  0  0  0
   -4.0600  -16.5456   -8.4448 H   0  0  0  0  0  0  0  0  0  0  0  0
   -1.0639  -10.7350    1.6345 H   0  0  0  0  0  0  0  0  0  0  0  0
   -1.8014   -9.2328    1.1218 H   0  0  0  0  0  0  0  0  0  0  0  0
   -2.7150  -12.2243   -7.1268 H   0  0  0  0  0  0  0  0  0  0  0  0
   -3.7574  -16.0046   -5.3718 H   0  0  0  0  0  0  0  0  0  0  0  0
  2  6  2  0  0  0  0
  3  5  1  0  0  0  0
  4  2  1  0  0  0  0
  4  3  2  0  0  0  0
  5  1  2  0  0  0  0
  6  1  1  0  0  0  0
  7  3  1  0  0  0  0
  8 14  1  0  0  0  0
  9  4  1  0  0  0  0
 10  8  1  0  0  0  0
 10 33  1  0  0  0  0
 12 34  1  1  0  0  0
 12 10  1  0  0  0  0
 12 11  1  0  0  0  0
 13 29  1  0  0  0  0
 14 26  1  0  0  0  0
 15  7  2  0  0  0  0
 16 11  1  0  0  0  0
 16 35  1  0  0  0  0
 17  8  2  0  0  0  0
 18 13  1  0  0  0  0
 18 36  1  0  0  0  0
 19 11  2  0  0  0  0
 20 28  1  0  0  0  0
 20 37  1  0  0  0  0
 21 13  2  0  0  0  0
 22  5  1  0  0  0  0
 22 38  1  0  0  0  0
 22 39  1  0  0  0  0
 23  9  2  0  0  0  0
 23 15  1  0  0  0  0
 23 40  1  0  0  0  0
 24  6  1  0  0  0  0
 24 41  1  0  0  0  0
 24 42  1  0  0  0  0
 25 12  1  0  0  0  0
 25 43  1  0  0  0  0
 25 44  1  0  0  0  0
 26 32  2  0  0  0  0
 26 45  1  0  0  0  0
 27 31  1  0  0  0  0
 27 14  2  0  0  0  0
 27 46  1  0  0  0  0
 28 15  1  0  0  0  0
 28 47  1  0  0  0  0
 28 48  1  0  0  0  0
 29 25  1  0  0  0  0
 29 49  1  0  0  0  0
 29 50  1  0  0  0  0
 30 20  1  0  0  0  0
 31 30  2  0  0  0  0
 31 51  1  0  0  0  0
 32 30  1  0  0  0  0
 32 52  1  0  0  0  0
M  END
>  <DRUGBANK_ID>
DB08878

>  <COMMON_NAME>
Aminopterin

>  <CAS_NUMBER>
54-62-6

>  <UNII>
JYB41CTM2Q

>  <SYNONYMS>
4-amino-4-deoxypteroylglutamate; 4-amino-PGA; 4-aminofolic acid; 4-aminopteroylglutamic acid; Aminopteridine; Aminopterine; APGA; Minopterin ; N-(4-(((2,4-diamino-6-pteridinyl)methyl)amino)benzoyl)-L-glutamic acid; Pteramina

$$$$
