
 OpenBabel10282417143D

 16 16  0  0  0  0  0  0  0  0999 V2000
   -1.9183    0.0182   -0.0132 C   0  0  0  0  0  0  0  0  0  0  0  0
   -1.2298   -1.2038   -0.0021 C   0  0  0  0  0  0  0  0  0  0  0  0
    0.1725   -1.2281    0.0105 C   0  0  0  0  0  0  0  0  0  0  0  0
    0.8797   -0.0290    0.0112 C   0  0  0  0  0  0  0  0  0  0  0  0
    0.2085    1.1882    0.0129 C   0  0  0  0  0  0  0  0  0  0  0  0
   -1.1889    1.2146   -0.0005 C   0  0  0  0  0  0  0  0  0  0  0  0
   -3.4030    0.0947   -0.0407 C   0  0  0  0  0  0  0  0  0  0  0  0
   -4.0624    1.1198   -0.0545 O   0  0  0  0  0  0  0  0  0  0  0  0
   -3.9937   -1.1146   -0.0537 O   0  0  0  0  0  0  0  0  0  0  0  0
    2.2427    0.0109    0.0085 O   0  0  0  0  0  0  0  0  0  0  0  0
   -1.7786   -2.1428   -0.0046 H   0  0  0  0  0  0  0  0  0  0  0  0
    0.6864   -2.1845    0.0201 H   0  0  0  0  0  0  0  0  0  0  0  0
    0.7740    2.1161    0.0229 H   0  0  0  0  0  0  0  0  0  0  0  0
   -1.7024    2.1736   -0.0029 H   0  0  0  0  0  0  0  0  0  0  0  0
   -4.9553   -0.9203   -0.0743 H   0  0  0  0  0  0  0  0  0  0  0  0
    2.5964   -0.8929   -0.0200 H   0  0  0  0  0  0  0  0  0  0  0  0
  1  7  1  0  0  0  0
  2  1  2  0  0  0  0
  2 11  1  0  0  0  0
  3  2  1  0  0  0  0
  3 12  1  0  0  0  0
  4  3  2  0  0  0  0
  4  5  1  0  0  0  0
  5  6  2  0  0  0  0
  5 13  1  0  0  0  0
  6  1  1  0  0  0  0
  6 14  1  0  0  0  0
  8  7  2  0  0  0  0
  9  7  1  0  0  0  0
  9 15  1  0  0  0  0
 10  4  1  0  0  0  0
 10 16  1  0  0  0  0
M  END
>  <DRUGBANK_ID>
DB04242

>  <SECONDARY_ACCESSION_NUMBERS>
EXPT02580

>  <COMMON_NAME>
4-hydroxybenzoic acid

>  <CAS_NUMBER>
99-96-7

>  <UNII>
JG8Z55Y12H

>  <SYNONYMS>
4-carboxyphenol; p-Hydroxybenzoic acid; p-salicylic acid

$$$$
