
 OpenBabel10282417153D

 40 43  0  0  0  0  0  0  0  0999 V2000
    2.3571   -0.6761   -0.0009 N   0  0  0  0  0  0  0  0  0  0  0  0
    2.2831    0.6478   -0.0077 C   0  0  0  0  0  0  0  0  0  0  0  0
    1.1427    1.3408   -0.0159 N   0  0  0  0  0  0  0  0  0  0  0  0
    1.1889   -1.3452    0.0053 C   0  0  0  0  0  0  0  0  0  0  0  0
   -0.0640   -0.7321    0.0047 C   0  0  0  0  0  0  0  0  0  0  0  0
   -0.0168    0.6597   -0.0131 C   0  0  0  0  0  0  0  0  0  0  0  0
   -1.1783    1.3508   -0.0332 N   0  0  0  0  0  0  0  0  0  0  0  0
   -2.3643    0.6634   -0.0224 C   0  0  0  0  0  0  0  0  0  0  0  0
   -2.3898   -0.7362   -0.0216 C   0  0  0  0  0  0  0  0  0  0  0  0
   -1.2389   -1.4504    0.0051 N   0  0  0  0  0  0  0  0  0  0  0  0
   -3.6458   -1.5076   -0.0436 C   0  0  0  0  0  0  0  0  0  0  0  0
   -4.0385   -2.2683    1.0693 C   0  0  0  0  0  0  0  0  0  0  0  0
   -5.3505   -2.7401    1.1769 C   0  0  0  0  0  0  0  0  0  0  0  0
   -6.2214   -2.6351    0.0952 C   0  0  0  0  0  0  0  0  0  0  0  0
   -5.8018   -1.9909   -1.0585 C   0  0  0  0  0  0  0  0  0  0  0  0
   -4.5529   -1.3785   -1.1139 C   0  0  0  0  0  0  0  0  0  0  0  0
    1.2770   -2.7288    0.0255 N   0  0  0  0  0  0  0  0  0  0  0  0
   -3.5991    1.4868    0.0215 C   0  0  0  0  0  0  0  0  0  0  0  0
   -3.9694    2.3117   -1.0558 C   0  0  0  0  0  0  0  0  0  0  0  0
   -5.1820    3.0083   -1.0269 C   0  0  0  0  0  0  0  0  0  0  0  0
   -5.9775    3.0172    0.1109 C   0  0  0  0  0  0  0  0  0  0  0  0
   -5.6054    2.2476    1.2053 C   0  0  0  0  0  0  0  0  0  0  0  0
   -4.4795    1.4222    1.1225 C   0  0  0  0  0  0  0  0  0  0  0  0
   -6.6599   -1.9553   -2.1168 O   0  0  0  0  0  0  0  0  0  0  0  0
   -5.6430    3.6974   -2.1108 O   0  0  0  0  0  0  0  0  0  0  0  0
    3.4671    1.3393   -0.0132 N   0  0  0  0  0  0  0  0  0  0  0  0
   -3.3424   -2.4465    1.8866 H   0  0  0  0  0  0  0  0  0  0  0  0
   -5.6988   -3.1764    2.1096 H   0  0  0  0  0  0  0  0  0  0  0  0
   -7.2219   -3.0549    0.1507 H   0  0  0  0  0  0  0  0  0  0  0  0
   -4.2941   -0.7599   -1.9689 H   0  0  0  0  0  0  0  0  0  0  0  0
    0.4165   -3.2610   -0.0136 H   0  0  0  0  0  0  0  0  0  0  0  0
    2.1846   -3.1659   -0.0030 H   0  0  0  0  0  0  0  0  0  0  0  0
   -3.3177    2.3835   -1.9216 H   0  0  0  0  0  0  0  0  0  0  0  0
   -6.8892    3.6082    0.1397 H   0  0  0  0  0  0  0  0  0  0  0  0
   -6.1960    2.2774    2.1174 H   0  0  0  0  0  0  0  0  0  0  0  0
   -4.3086    0.7147    1.9319 H   0  0  0  0  0  0  0  0  0  0  0  0
   -6.2053   -1.5549   -2.8760 H   0  0  0  0  0  0  0  0  0  0  0  0
   -5.0478    3.5432   -2.8615 H   0  0  0  0  0  0  0  0  0  0  0  0
    3.4480    2.3431   -0.0093 H   0  0  0  0  0  0  0  0  0  0  0  0
    4.3269    0.8160   -0.0086 H   0  0  0  0  0  0  0  0  0  0  0  0
  1  2  2  0  0  0  0
  2  3  1  0  0  0  0
  2 26  1  0  0  0  0
  3  6  2  0  0  0  0
  4 17  1  0  0  0  0
  4  1  1  0  0  0  0
  5  4  2  0  0  0  0
  5  6  1  0  0  0  0
  6  7  1  0  0  0  0
  7  8  2  0  0  0  0
  8  9  1  0  0  0  0
  8 18  1  0  0  0  0
  9 11  1  0  0  0  0
  9 10  2  0  0  0  0
 10  5  1  0  0  0  0
 11 12  2  0  0  0  0
 12 13  1  0  0  0  0
 12 27  1  0  0  0  0
 13 14  2  0  0  0  0
 13 28  1  0  0  0  0
 14 15  1  0  0  0  0
 14 29  1  0  0  0  0
 15 16  2  0  0  0  0
 15 24  1  0  0  0  0
 16 11  1  0  0  0  0
 16 30  1  0  0  0  0
 17 31  1  0  0  0  0
 17 32  1  0  0  0  0
 18 19  2  0  0  0  0
 19 20  1  0  0  0  0
 19 33  1  0  0  0  0
 20 21  2  0  0  0  0
 20 25  1  0  0  0  0
 21 22  1  0  0  0  0
 21 34  1  0  0  0  0
 22 23  2  0  0  0  0
 22 35  1  0  0  0  0
 23 18  1  0  0  0  0
 23 36  1  0  0  0  0
 24 37  1  0  0  0  0
 25 38  1  0  0  0  0
 26 39  1  0  0  0  0
 26 40  1  0  0  0  0
M  END
>  <DRUGBANK_ID>
DB05552

>  <COMMON_NAME>
TG100-115

>  <CAS_NUMBER>
677297-51-7

>  <UNII>
7ACH1U1E2M

>  <SYNONYMS>
3-(2,4-Diamino-6-(3-hydroxyphenyl)pteridin-7-yl)phenol; 6,7-Bis(3-hydroxyphenyl)pteridine-2,4-diamine

$$$$
