
 OpenBabel10282417173D

 42 45  0  0  0  0  0  0  0  0999 V2000
   -0.6676    1.2407    0.0256 C   0  0  0  0  0  0  0  0  0  0  0  0
   -0.6516   -1.2285   -0.0447 N   0  0  0  0  0  0  0  0  0  0  0  0
   -1.4312   -0.0558   -0.0341 C   0  0  0  0  0  0  0  0  0  0  0  0
    1.4266   -0.0150   -0.0083 C   0  0  0  0  0  0  0  0  0  0  0  0
    0.7434   -1.1776   -0.0114 C   0  0  0  0  0  0  0  0  0  0  0  0
    0.6730    1.2179    0.0313 C   0  0  0  0  0  0  0  0  0  0  0  0
   -1.3819    2.5307    0.0210 C   0  0  0  0  0  0  0  0  0  0  0  0
    0.3736    2.9532   -3.0151 N   0  0  0  0  0  0  0  0  0  0  0  0
   -0.3470    3.1963   -2.1291 C   0  0  0  0  0  0  0  0  0  0  0  0
    2.9067   -0.0084    0.0168 C   0  0  0  0  0  0  0  0  0  0  0  0
   -1.3529   -2.4763   -0.0413 C   0  0  0  0  0  0  0  0  0  0  0  0
   -2.6629   -0.0227   -0.0293 O   0  0  0  0  0  0  0  0  0  0  0  0
   -1.2206    3.4606   -1.0233 C   0  0  0  0  0  0  0  0  0  0  0  0
    3.5646   -0.5679   -1.0243 N   0  0  0  0  0  0  0  0  0  0  0  0
   -2.2967    2.8080    1.0510 C   0  0  0  0  0  0  0  0  0  0  0  0
    4.9165   -0.6045   -0.9462 C   0  0  0  0  0  0  0  0  0  0  0  0
    3.5699    0.5593    1.1019 C   0  0  0  0  0  0  0  0  0  0  0  0
   -2.3066   -2.7619   -1.0291 C   0  0  0  0  0  0  0  0  0  0  0  0
   -1.1454   -3.4009    0.9872 C   0  0  0  0  0  0  0  0  0  0  0  0
   -1.9623    4.6467   -1.0115 C   0  0  0  0  0  0  0  0  0  0  0  0
   -3.1427    3.9121    0.9626 C   0  0  0  0  0  0  0  0  0  0  0  0
    5.6354   -0.2213    0.1742 C   0  0  0  0  0  0  0  0  0  0  0  0
   -2.9735    4.8314   -0.0679 C   0  0  0  0  0  0  0  0  0  0  0  0
   -3.1315   -3.8835   -0.9161 C   0  0  0  0  0  0  0  0  0  0  0  0
   -1.8993   -4.5778    1.0365 C   0  0  0  0  0  0  0  0  0  0  0  0
    4.9440    0.3801    1.2153 C   0  0  0  0  0  0  0  0  0  0  0  0
   -2.9336   -4.7866    0.1245 C   0  0  0  0  0  0  0  0  0  0  0  0
    1.2571   -2.1356   -0.0221 H   0  0  0  0  0  0  0  0  0  0  0  0
    1.2533    2.1372    0.0340 H   0  0  0  0  0  0  0  0  0  0  0  0
   -2.3921    2.1379    1.9042 H   0  0  0  0  0  0  0  0  0  0  0  0
    5.4293   -0.9548   -1.8384 H   0  0  0  0  0  0  0  0  0  0  0  0
    3.0286    1.1122    1.8617 H   0  0  0  0  0  0  0  0  0  0  0  0
   -2.4100   -2.1130   -1.8955 H   0  0  0  0  0  0  0  0  0  0  0  0
   -0.4464   -3.1844    1.7896 H   0  0  0  0  0  0  0  0  0  0  0  0
   -1.7786    5.4169   -1.7566 H   0  0  0  0  0  0  0  0  0  0  0  0
   -3.9371    4.0493    1.6931 H   0  0  0  0  0  0  0  0  0  0  0  0
    6.7092   -0.3627    0.2270 H   0  0  0  0  0  0  0  0  0  0  0  0
   -3.6351    5.6909   -0.1387 H   0  0  0  0  0  0  0  0  0  0  0  0
   -3.9268   -4.0505   -1.6383 H   0  0  0  0  0  0  0  0  0  0  0  0
   -1.6961   -5.3220    1.8014 H   0  0  0  0  0  0  0  0  0  0  0  0
    5.4680    0.7123    2.1063 H   0  0  0  0  0  0  0  0  0  0  0  0
   -3.5832   -5.6531    0.2212 H   0  0  0  0  0  0  0  0  0  0  0  0
  2  3  1  0  0  0  0
  3  1  1  0  0  0  0
  4  6  1  0  0  0  0
  4  5  2  0  0  0  0
  5  2  1  0  0  0  0
  5 28  1  0  0  0  0
  6  1  2  0  0  0  0
  6 29  1  0  0  0  0
  7  1  1  0  0  0  0
  8  9  3  0  0  0  0
  9 13  1  0  0  0  0
 10  4  1  0  0  0  0
 11  2  1  0  0  0  0
 12  3  2  0  0  0  0
 13  7  1  0  0  0  0
 14 10  2  0  0  0  0
 15  7  2  0  0  0  0
 15 30  1  0  0  0  0
 16 14  1  0  0  0  0
 16 31  1  0  0  0  0
 17 10  1  0  0  0  0
 17 32  1  0  0  0  0
 18 11  2  0  0  0  0
 18 33  1  0  0  0  0
 19 11  1  0  0  0  0
 19 34  1  0  0  0  0
 20 13  2  0  0  0  0
 20 35  1  0  0  0  0
 21 15  1  0  0  0  0
 21 36  1  0  0  0  0
 22 16  2  0  0  0  0
 22 37  1  0  0  0  0
 23 20  1  0  0  0  0
 23 21  2  0  0  0  0
 23 38  1  0  0  0  0
 24 18  1  0  0  0  0
 24 39  1  0  0  0  0
 25 19  2  0  0  0  0
 25 40  1  0  0  0  0
 26 17  2  0  0  0  0
 26 22  1  0  0  0  0
 26 41  1  0  0  0  0
 27 25  1  0  0  0  0
 27 24  2  0  0  0  0
 27 42  1  0  0  0  0
M  END
>  <DRUGBANK_ID>
DB08883

>  <COMMON_NAME>
Perampanel

>  <CAS_NUMBER>
380917-97-5

>  <UNII>
H821664NPK

>  <SYNONYMS>
3-(2-Cyanophenyl)-5-(2-pyridyl)-1-phenyl-1,2-dihydropyridin-2-one; Perampanel; PÃ©rampanel; Perampanelum

$$$$
