
 OpenBabel10282417123D

 22 21  0  0  1  0  0  0  0  0999 V2000
    0.8079   -0.2227   -0.2589 O   0  0  0  0  0  0  0  0  0  0  0  0
    0.5538    0.7193   -1.3380 C   0  0  1  0  0  0  0  0  0  0  0  0
    1.1047    2.1644   -1.0970 C   0  0  0  0  0  0  0  0  0  0  0  0
    2.5403    2.1754   -0.9493 O   0  0  0  0  0  0  0  0  0  0  0  0
    3.1169    1.2101    0.3655 P   0  0  0  0  0  0  0  0  0  0  0  0
    3.7035    2.6282    0.9413 O   0  0  0  0  0  0  0  0  0  0  0  0
    1.7001    1.4297    1.1820 O   0  0  0  0  0  0  0  0  0  0  0  0
    3.6330    0.3461    1.5421 O   0  0  0  0  0  0  0  0  0  0  0  0
    1.1305    0.1383   -2.6320 C   0  0  1  0  0  0  0  0  0  0  0  0
    0.8111   -1.2424   -2.7465 O   0  0  0  0  0  0  0  0  0  0  0  0
    0.5651    1.0131   -3.7548 C   0  0  0  0  0  0  0  0  0  0  0  0
    1.5164    1.6595   -4.4726 O   0  0  0  0  0  0  0  0  0  0  0  0
   -0.6197    1.2116   -3.9270 O   0  0  0  0  0  0  0  0  0  0  0  0
    1.6985   -0.6177   -0.3093 H   0  0  0  0  0  0  0  0  0  0  0  0
   -0.5399    0.7769   -1.3714 H   0  0  0  0  0  0  0  0  0  0  0  0
    0.8476    2.8351   -1.9209 H   0  0  0  0  0  0  0  0  0  0  0  0
    0.6462    2.6394   -0.2203 H   0  0  0  0  0  0  0  0  0  0  0  0
    4.6650    2.7133    0.9489 H   0  0  0  0  0  0  0  0  0  0  0  0
    1.0268    0.7363    0.9988 H   0  0  0  0  0  0  0  0  0  0  0  0
    2.2229    0.1809   -2.6000 H   0  0  0  0  0  0  0  0  0  0  0  0
    0.7755   -1.6244   -1.8492 H   0  0  0  0  0  0  0  0  0  0  0  0
    2.4424    1.4559   -4.2473 H   0  0  0  0  0  0  0  0  0  0  0  0
  1 14  1  0  0  0  0
  2  1  1  0  0  0  0
  2  3  1  0  0  0  0
  2  9  1  0  0  0  0
  2 15  1  6  0  0  0
  3  4  1  0  0  0  0
  3 16  1  0  0  0  0
  3 17  1  0  0  0  0
  4  5  1  0  0  0  0
  5  6  1  0  0  0  0
  5  7  1  0  0  0  0
  5  8  2  0  0  0  0
  6 18  1  0  0  0  0
  7 19  1  0  0  0  0
  9 10  1  0  0  0  0
  9 11  1  0  0  0  0
  9 20  1  1  0  0  0
 10 21  1  0  0  0  0
 11 12  1  0  0  0  0
 11 13  2  0  0  0  0
 12 22  1  0  0  0  0
M  END
>  <DRUGBANK_ID>
DB01756

>  <SECONDARY_ACCESSION_NUMBERS>
EXPT01163

>  <COMMON_NAME>
4-phospho-L-threonic acid

>  <SYNONYMS>
4-O-phosphono-L-threonic acid

$$$$
