
 OpenBabel10282417183D

 86 91  0  0  0  0  0  0  0  0999 V2000
    0.7230    0.3208   -0.1634 C   0  0  0  0  0  0  0  0  0  0  0  0
    0.2848    0.4780    1.2117 N   0  0  0  0  0  0  0  0  0  0  0  0
   -1.1633    0.4853    1.2874 C   0  0  0  0  0  0  0  0  0  0  0  0
    0.8673   -0.4553    2.1850 C   0  0  0  0  0  0  0  0  0  0  0  0
    2.3852   -0.4566    2.0827 C   0  0  0  0  0  0  0  0  0  0  0  0
    2.9993   -1.2743    0.9781 C   0  0  0  0  0  0  0  0  0  0  0  0
    2.3900   -2.5994    0.9448 N   0  0  0  0  0  0  0  0  0  0  0  0
    0.9501   -2.7149    1.0546 C   0  0  0  0  0  0  0  0  0  0  0  0
    0.4007   -1.9178    2.2138 C   0  0  0  0  0  0  0  0  0  0  0  0
    3.2037   -3.6135    0.4950 C   0  0  0  0  0  0  0  0  0  0  0  0
    4.3895   -3.4691    0.3520 O   0  0  0  0  0  0  0  0  0  0  0  0
    2.6769   -4.9643    0.2719 C   0  0  0  0  0  0  0  0  0  0  0  0
    1.6603   -5.3790   -0.5586 C   0  0  0  0  0  0  0  0  0  0  0  0
    1.2501   -6.7396   -0.5126 C   0  0  0  0  0  0  0  0  0  0  0  0
    1.8847   -7.6544    0.3433 C   0  0  0  0  0  0  0  0  0  0  0  0
    3.1134   -7.2741    0.7886 C   0  0  0  0  0  0  0  0  0  0  0  0
    3.4349   -5.9365    0.8613 C   0  0  0  0  0  0  0  0  0  0  0  0
    1.3407   -8.8941    0.7544 N   0  0  0  0  0  0  0  0  0  0  0  0
    1.6422   -9.7663    1.7779 C   0  0  0  0  0  0  0  0  0  0  0  0
    1.1289  -10.8936    1.7297 O   0  0  0  0  0  0  0  0  0  0  0  0
    2.4981   -9.5121    2.8216 N   0  0  0  0  0  0  0  0  0  0  0  0
    2.9942   -8.3180    3.4161 C   0  0  0  0  0  0  0  0  0  0  0  0
    2.2130   -7.1717    3.5291 C   0  0  0  0  0  0  0  0  0  0  0  0
    2.8245   -5.8936    3.7296 C   0  0  0  0  0  0  0  0  0  0  0  0
    4.2464   -5.7048    3.7901 C   0  0  0  0  0  0  0  0  0  0  0  0
    4.9960   -6.8993    3.7698 C   0  0  0  0  0  0  0  0  0  0  0  0
    4.3879   -8.1825    3.6019 C   0  0  0  0  0  0  0  0  0  0  0  0
    4.9112   -4.3304    3.5720 C   0  0  0  0  0  0  0  0  0  0  0  0
    4.3850   -3.3325    4.2713 N   0  0  0  0  0  0  0  0  0  0  0  0
    4.9462   -2.1365    4.0848 C   0  0  0  0  0  0  0  0  0  0  0  0
    5.9021   -1.8817    3.1729 N   0  0  0  0  0  0  0  0  0  0  0  0
    6.3576   -2.9070    2.4384 C   0  0  0  0  0  0  0  0  0  0  0  0
    5.9235   -4.1731    2.6686 N   0  0  0  0  0  0  0  0  0  0  0  0
    7.3523   -2.6420    1.5011 N   0  0  0  0  0  0  0  0  0  0  0  0
    7.1821   -2.6157    0.0349 C   0  0  0  0  0  0  0  0  0  0  0  0
    8.2364   -3.5271   -0.6211 C   0  0  0  0  0  0  0  0  0  0  0  0
    9.5686   -3.1240   -0.2526 O   0  0  0  0  0  0  0  0  0  0  0  0
    9.7120   -3.1608    1.1817 C   0  0  0  0  0  0  0  0  0  0  0  0
    8.7015   -2.2223    1.8893 C   0  0  0  0  0  0  0  0  0  0  0  0
    4.5544   -1.1365    4.9442 N   0  0  0  0  0  0  0  0  0  0  0  0
    4.3530   -1.3967    6.3642 C   0  0  0  0  0  0  0  0  0  0  0  0
    2.9107   -1.0876    6.8001 C   0  0  0  0  0  0  0  0  0  0  0  0
    2.5293    0.2532    6.4272 O   0  0  0  0  0  0  0  0  0  0  0  0
    2.6235    0.3675    5.0001 C   0  0  0  0  0  0  0  0  0  0  0  0
    4.0970    0.1788    4.5183 C   0  0  0  0  0  0  0  0  0  0  0  0
    0.2282    1.0034   -0.8518 H   0  0  0  0  0  0  0  0  0  0  0  0
    0.5318   -0.6770   -0.5455 H   0  0  0  0  0  0  0  0  0  0  0  0
    1.7767    0.5797   -0.2600 H   0  0  0  0  0  0  0  0  0  0  0  0
   -1.5814   -0.5026    1.0813 H   0  0  0  0  0  0  0  0  0  0  0  0
   -1.4913    0.8207    2.2762 H   0  0  0  0  0  0  0  0  0  0  0  0
   -1.5664    1.1815    0.5498 H   0  0  0  0  0  0  0  0  0  0  0  0
    0.5906   -0.0451    3.1671 H   0  0  0  0  0  0  0  0  0  0  0  0
    2.7664    0.5711    2.0979 H   0  0  0  0  0  0  0  0  0  0  0  0
    2.7284   -0.9976    2.9591 H   0  0  0  0  0  0  0  0  0  0  0  0
    2.9176   -0.8671   -0.0251 H   0  0  0  0  0  0  0  0  0  0  0  0
    4.0846   -1.3015    1.1450 H   0  0  0  0  0  0  0  0  0  0  0  0
    0.6514   -3.7521    1.1951 H   0  0  0  0  0  0  0  0  0  0  0  0
    0.5323   -2.4257    0.0936 H   0  0  0  0  0  0  0  0  0  0  0  0
    0.7623   -2.3876    3.1430 H   0  0  0  0  0  0  0  0  0  0  0  0
   -0.6870   -2.0041    2.2575 H   0  0  0  0  0  0  0  0  0  0  0  0
    1.2086   -4.6505   -1.2223 H   0  0  0  0  0  0  0  0  0  0  0  0
    0.4490   -7.0543   -1.1695 H   0  0  0  0  0  0  0  0  0  0  0  0
    3.7812   -7.9880    1.2346 H   0  0  0  0  0  0  0  0  0  0  0  0
    4.2546   -5.6214    1.4769 H   0  0  0  0  0  0  0  0  0  0  0  0
    0.5901   -9.2596    0.1794 H   0  0  0  0  0  0  0  0  0  0  0  0
    2.7364  -10.3653    3.3215 H   0  0  0  0  0  0  0  0  0  0  0  0
    1.1710   -7.2239    3.2060 H   0  0  0  0  0  0  0  0  0  0  0  0
    2.1760   -5.0354    3.5406 H   0  0  0  0  0  0  0  0  0  0  0  0
    6.0819   -6.8249    3.7059 H   0  0  0  0  0  0  0  0  0  0  0  0
    5.0462   -9.0121    3.3330 H   0  0  0  0  0  0  0  0  0  0  0  0
    7.3536   -1.5918   -0.3355 H   0  0  0  0  0  0  0  0  0  0  0  0
    6.2128   -2.9030   -0.3367 H   0  0  0  0  0  0  0  0  0  0  0  0
    8.0848   -4.5713   -0.3264 H   0  0  0  0  0  0  0  0  0  0  0  0
    8.1685   -3.4761   -1.7146 H   0  0  0  0  0  0  0  0  0  0  0  0
   10.7411   -2.8665    1.4082 H   0  0  0  0  0  0  0  0  0  0  0  0
    9.5723   -4.1958    1.5129 H   0  0  0  0  0  0  0  0  0  0  0  0
    8.8923   -1.1963    1.5363 H   0  0  0  0  0  0  0  0  0  0  0  0
    8.8582   -2.2461    2.9694 H   0  0  0  0  0  0  0  0  0  0  0  0
    5.0118   -0.6914    6.8830 H   0  0  0  0  0  0  0  0  0  0  0  0
    4.6432   -2.4065    6.6636 H   0  0  0  0  0  0  0  0  0  0  0  0
    2.1983   -1.8042    6.3698 H   0  0  0  0  0  0  0  0  0  0  0  0
    2.8271   -1.1451    7.8881 H   0  0  0  0  0  0  0  0  0  0  0  0
    2.2166    1.3330    4.6818 H   0  0  0  0  0  0  0  0  0  0  0  0
    1.9475   -0.4081    4.6324 H   0  0  0  0  0  0  0  0  0  0  0  0
    4.7116    0.9441    4.9957 H   0  0  0  0  0  0  0  0  0  0  0  0
    4.2383    0.3272    3.4476 H   0  0  0  0  0  0  0  0  0  0  0  0
  1  2  1  0  0  0  0
  1 46  1  0  0  0  0
  1 47  1  0  0  0  0
  1 48  1  0  0  0  0
  2  3  1  0  0  0  0
  2  4  1  0  0  0  0
  3 49  1  0  0  0  0
  3 50  1  0  0  0  0
  3 51  1  0  0  0  0
  4  5  1  0  0  0  0
  4  9  1  0  0  0  0
  4 52  1  0  0  0  0
  5  6  1  0  0  0  0
  5 53  1  0  0  0  0
  5 54  1  0  0  0  0
  6  7  1  0  0  0  0
  6 55  1  0  0  0  0
  6 56  1  0  0  0  0
  7  8  1  0  0  0  0
  7 10  1  0  0  0  0
  8  9  1  0  0  0  0
  8 57  1  0  0  0  0
  8 58  1  0  0  0  0
  9 59  1  0  0  0  0
  9 60  1  0  0  0  0
 10 11  2  0  0  0  0
 10 12  1  0  0  0  0
 12 13  2  0  0  0  0
 12 17  1  0  0  0  0
 13 14  1  0  0  0  0
 13 61  1  0  0  0  0
 14 15  2  0  0  0  0
 14 62  1  0  0  0  0
 15 16  1  0  0  0  0
 15 18  1  0  0  0  0
 16 17  2  0  0  0  0
 16 63  1  0  0  0  0
 17 64  1  0  0  0  0
 18 19  1  0  0  0  0
 18 65  1  0  0  0  0
 19 20  2  0  0  0  0
 19 21  1  0  0  0  0
 21 22  1  0  0  0  0
 21 66  1  0  0  0  0
 22 23  2  0  0  0  0
 22 27  1  0  0  0  0
 23 24  1  0  0  0  0
 23 67  1  0  0  0  0
 24 25  2  0  0  0  0
 24 68  1  0  0  0  0
 25 26  1  0  0  0  0
 25 28  1  0  0  0  0
 26 27  2  0  0  0  0
 26 69  1  0  0  0  0
 27 70  1  0  0  0  0
 28 29  2  0  0  0  0
 28 33  1  0  0  0  0
 29 30  1  0  0  0  0
 30 31  2  0  0  0  0
 30 40  1  0  0  0  0
 31 32  1  0  0  0  0
 32 33  2  0  0  0  0
 32 34  1  0  0  0  0
 34 35  1  0  0  0  0
 34 39  1  0  0  0  0
 35 36  1  0  0  0  0
 35 71  1  0  0  0  0
 35 72  1  0  0  0  0
 36 37  1  0  0  0  0
 36 73  1  0  0  0  0
 36 74  1  0  0  0  0
 37 38  1  0  0  0  0
 38 39  1  0  0  0  0
 38 75  1  0  0  0  0
 38 76  1  0  0  0  0
 39 77  1  0  0  0  0
 39 78  1  0  0  0  0
 40 41  1  0  0  0  0
 40 45  1  0  0  0  0
 41 42  1  0  0  0  0
 41 79  1  0  0  0  0
 41 80  1  0  0  0  0
 42 43  1  0  0  0  0
 42 81  1  0  0  0  0
 42 82  1  0  0  0  0
 43 44  1  0  0  0  0
 44 45  1  0  0  0  0
 44 83  1  0  0  0  0
 44 84  1  0  0  0  0
 45 85  1  0  0  0  0
 45 86  1  0  0  0  0
M  END
>  <DRUGBANK_ID>
DB11896

>  <COMMON_NAME>
Gedatolisib

>  <CAS_NUMBER>
1197160-78-3

>  <UNII>
96265TNH2R

>  <SYNONYMS>
Gedatolisib

$$$$
