
 OpenBabel10282417183D

 41 43  0  0  0  0  0  0  0  0999 V2000
    1.2053    0.0455    0.0076 C   0  0  0  0  0  0  0  0  0  0  0  0
    0.6475    1.4820   -0.0541 C   0  0  0  0  0  0  0  0  0  0  0  0
    1.1413    2.2510   -1.2652 C   0  0  0  0  0  0  0  0  0  0  0  0
   -0.8077    1.1346   -0.1027 C   0  0  0  0  0  0  0  0  0  0  0  0
   -1.4091    0.6386    0.8339 O   0  0  0  0  0  0  0  0  0  0  0  0
   -1.3977    1.1088   -1.3089 O   0  0  0  0  0  0  0  0  0  0  0  0
    1.1660    2.3281    1.5387 S   0  0  0  0  0  0  0  0  0  0  0  0
    0.4800    4.0020    1.5244 C   0  0  0  0  0  0  0  0  0  0  0  0
    1.4167    5.0542    1.5329 C   0  0  0  0  0  0  0  0  0  0  0  0
    0.9703    6.3690    1.5535 C   0  0  0  0  0  0  0  0  0  0  0  0
   -0.3274    6.7122    1.5886 N   0  0  0  0  0  0  0  0  0  0  0  0
   -1.2099    5.6931    1.6535 C   0  0  0  0  0  0  0  0  0  0  0  0
   -0.8887    4.3285    1.6356 C   0  0  0  0  0  0  0  0  0  0  0  0
   -2.0011    3.3588    1.7071 C   0  0  0  0  0  0  0  0  0  0  0  0
   -2.0606    2.4577    2.7921 C   0  0  0  0  0  0  0  0  0  0  0  0
   -2.9946    1.4181    2.8038 C   0  0  0  0  0  0  0  0  0  0  0  0
   -3.9129    1.2841    1.7492 C   0  0  0  0  0  0  0  0  0  0  0  0
   -3.9040    2.1889    0.6494 C   0  0  0  0  0  0  0  0  0  0  0  0
   -2.9438    3.2412    0.6288 C   0  0  0  0  0  0  0  0  0  0  0  0
   -2.8855    4.0574   -0.5341 C   0  0  0  0  0  0  0  0  0  0  0  0
   -3.7531    3.8952   -1.6116 C   0  0  0  0  0  0  0  0  0  0  0  0
   -4.6782    2.8696   -1.5902 C   0  0  0  0  0  0  0  0  0  0  0  0
   -4.7358    2.0159   -0.4888 C   0  0  0  0  0  0  0  0  0  0  0  0
   -4.7511    0.1112    1.7266 C   0  0  0  0  0  0  0  0  0  0  0  0
   -5.4380   -0.8178    1.6645 N   0  0  0  0  0  0  0  0  0  0  0  0
    0.8505   -0.5401   -0.8533 H   0  0  0  0  0  0  0  0  0  0  0  0
    0.8180   -0.4846    0.8940 H   0  0  0  0  0  0  0  0  0  0  0  0
    2.2922    0.0043    0.0330 H   0  0  0  0  0  0  0  0  0  0  0  0
    0.8123    1.7778   -2.1973 H   0  0  0  0  0  0  0  0  0  0  0  0
    0.7466    3.2729   -1.2761 H   0  0  0  0  0  0  0  0  0  0  0  0
    2.2345    2.2923   -1.2865 H   0  0  0  0  0  0  0  0  0  0  0  0
   -2.3109    0.8219   -1.0811 H   0  0  0  0  0  0  0  0  0  0  0  0
    2.4878    4.8723    1.5367 H   0  0  0  0  0  0  0  0  0  0  0  0
    1.6631    7.2070    1.5497 H   0  0  0  0  0  0  0  0  0  0  0  0
   -2.2516    6.0087    1.6938 H   0  0  0  0  0  0  0  0  0  0  0  0
   -1.2707    2.4541    3.5452 H   0  0  0  0  0  0  0  0  0  0  0  0
   -2.8729    0.6114    3.5289 H   0  0  0  0  0  0  0  0  0  0  0  0
   -2.1257    4.8297   -0.6455 H   0  0  0  0  0  0  0  0  0  0  0  0
   -3.6862    4.5622   -2.4678 H   0  0  0  0  0  0  0  0  0  0  0  0
   -5.3490    2.7233   -2.4330 H   0  0  0  0  0  0  0  0  0  0  0  0
   -5.4341    1.1810   -0.5497 H   0  0  0  0  0  0  0  0  0  0  0  0
  1  2  1  0  0  0  0
  1 26  1  0  0  0  0
  1 27  1  0  0  0  0
  1 28  1  0  0  0  0
  2  3  1  0  0  0  0
  2  4  1  0  0  0  0
  2  7  1  0  0  0  0
  3 29  1  0  0  0  0
  3 30  1  0  0  0  0
  3 31  1  0  0  0  0
  4  5  2  0  0  0  0
  4  6  1  0  0  0  0
  6 32  1  0  0  0  0
  7  8  1  0  0  0  0
  8  9  2  0  0  0  0
  8 13  1  0  0  0  0
  9 10  1  0  0  0  0
  9 33  1  0  0  0  0
 10 11  2  0  0  0  0
 10 34  1  0  0  0  0
 11 12  1  0  0  0  0
 12 13  2  0  0  0  0
 12 35  1  0  0  0  0
 13 14  1  0  0  0  0
 14 15  1  0  0  0  0
 14 19  2  0  0  0  0
 15 16  2  0  0  0  0
 15 36  1  0  0  0  0
 16 17  1  0  0  0  0
 16 37  1  0  0  0  0
 17 18  2  0  0  0  0
 17 24  1  0  0  0  0
 18 19  1  0  0  0  0
 18 23  1  0  0  0  0
 19 20  1  0  0  0  0
 20 21  2  0  0  0  0
 20 38  1  0  0  0  0
 21 22  1  0  0  0  0
 21 39  1  0  0  0  0
 22 23  2  0  0  0  0
 22 40  1  0  0  0  0
 23 41  1  0  0  0  0
 24 25  3  0  0  0  0
M  END
>  <DRUGBANK_ID>
DB11873

>  <COMMON_NAME>
Verinurad

>  <CAS_NUMBER>
1352792-74-5

>  <UNII>
12WJ62D047

>  <SYNONYMS>
Verinurad

$$$$
