842
 OpenBabel10282417113D

 31 33  0  0  1  0  0  0  0  0999 V2000
    1.1016    0.0257    0.0316 Cl  0  0  0  0  0  0  0  0  0  0  0  0
    6.4736    1.6468   -2.4271 O   0  0  0  0  0  0  0  0  0  0  0  0
    9.0865    0.6062   -0.5007 O   0  0  0  0  0  0  0  0  0  0  0  0
    7.0148   -0.0368    0.0847 N   0  0  0  0  0  0  0  0  0  0  0  0
    6.6102    2.9515   -0.3609 N   0  0  0  0  0  0  0  0  0  0  0  0
    4.9037    1.2516    0.1846 C   0  0  0  0  0  0  0  0  0  0  0  0
    5.5745    2.5775    0.3061 C   0  0  0  0  0  0  0  0  0  0  0  0
    5.6177    0.0454    0.1049 C   0  0  0  0  0  0  0  0  0  0  0  0
    4.9941    3.5343    1.2904 C   0  0  0  0  0  0  0  0  0  0  0  0
    7.2545    2.0392   -1.3076 C   0  0  3  0  0  0  0  0  0  0  0  0
    3.5005    1.2367    0.1656 C   0  0  0  0  0  0  0  0  0  0  0  0
    4.9172   -1.1620    0.0070 C   0  0  0  0  0  0  0  0  0  0  0  0
    7.8720    0.8462   -0.5250 C   0  0  0  0  0  0  0  0  0  0  0  0
    2.8196    0.0304    0.0545 C   0  0  0  0  0  0  0  0  0  0  0  0
    3.5212   -1.1671   -0.0397 C   0  0  0  0  0  0  0  0  0  0  0  0
    4.6438    4.8344    0.9150 C   0  0  0  0  0  0  0  0  0  0  0  0
    4.7768    3.0923    2.5997 C   0  0  0  0  0  0  0  0  0  0  0  0
    4.1484    5.7142    1.8810 C   0  0  0  0  0  0  0  0  0  0  0  0
    4.1920    3.9449    3.5310 C   0  0  0  0  0  0  0  0  0  0  0  0
    3.9244    5.2686    3.1860 C   0  0  0  0  0  0  0  0  0  0  0  0
    5.6854    1.2030   -2.0882 H   0  0  0  0  0  0  0  0  0  0  0  0
    7.4719   -0.8917    0.3801 H   0  0  0  0  0  0  0  0  0  0  0  0
    8.1075    2.5755   -1.7382 H   0  0  0  0  0  0  0  0  0  0  0  0
    2.9346    2.1637    0.2310 H   0  0  0  0  0  0  0  0  0  0  0  0
    5.4494   -2.1050   -0.1046 H   0  0  0  0  0  0  0  0  0  0  0  0
    2.9886   -2.1070   -0.1621 H   0  0  0  0  0  0  0  0  0  0  0  0
    4.7447    5.1626   -0.1167 H   0  0  0  0  0  0  0  0  0  0  0  0
    5.0622    2.0877    2.8989 H   0  0  0  0  0  0  0  0  0  0  0  0
    3.9308    6.7476    1.6204 H   0  0  0  0  0  0  0  0  0  0  0  0
    3.9572    3.5790    4.5267 H   0  0  0  0  0  0  0  0  0  0  0  0
    3.5409    5.9543    3.9378 H   0  0  0  0  0  0  0  0  0  0  0  0
  1 14  1  0  0  0  0
  2 10  1  0  0  0  0
  2 21  1  0  0  0  0
  3 13  2  0  0  0  0
  4  8  1  0  0  0  0
  4 13  1  0  0  0  0
  4 22  1  0  0  0  0
  5  7  2  0  0  0  0
  5 10  1  0  0  0  0
  6  7  1  0  0  0  0
  6  8  2  0  0  0  0
  6 11  1  0  0  0  0
  7  9  1  0  0  0  0
  8 12  1  0  0  0  0
  9 16  2  0  0  0  0
  9 17  1  0  0  0  0
 10 13  1  0  0  0  0
 10 23  1  0  0  0  0
 11 14  2  0  0  0  0
 11 24  1  0  0  0  0
 12 15  2  0  0  0  0
 12 25  1  0  0  0  0
 14 15  1  0  0  0  0
 15 26  1  0  0  0  0
 16 18  1  0  0  0  0
 16 27  1  0  0  0  0
 17 19  2  0  0  0  0
 17 28  1  0  0  0  0
 18 20  2  0  0  0  0
 18 29  1  0  0  0  0
 19 20  1  0  0  0  0
 19 30  1  0  0  0  0
 20 31  1  0  0  0  0
M  END
>  <DRUGBANK_ID>
DB00842

>  <SECONDARY_ACCESSION_NUMBERS>
APRD01152

>  <COMMON_NAME>
Oxazepam

>  <CAS_NUMBER>
604-75-1

>  <UNII>
6GOW6DWN2A

>  <SYNONYMS>
(+-)-Oxazepam; (RS)-Oxazepam; Oxazepam

$$$$
