
 OpenBabel10282417123D

 31 30  0  0  1  0  0  0  0  0999 V2000
    0.5681   -0.2013   -0.4677 C   0  0  0  0  0  0  0  0  0  0  0  0
    0.5920    4.2760    1.1143 C   0  0  0  0  0  0  0  0  0  0  0  0
    0.1383    1.1800   -0.0516 C   0  0  0  0  0  0  0  0  0  0  0  0
    1.5116    3.2487    1.7322 C   0  0  0  0  0  0  0  0  0  0  0  0
    4.8974    0.8926   -0.5415 C   0  0  0  0  0  0  0  0  0  0  0  0
    4.6618    0.0613    0.7594 C   0  0  1  0  0  0  0  0  0  0  0  0
    3.2407   -0.3005    1.1736 C   0  0  0  0  0  0  0  0  0  0  0  0
    5.2645   -1.2869    0.6286 N   0  0  0  0  0  0  0  0  0  0  0  0
    2.6867   -1.3560    0.9687 O   0  0  0  0  0  0  0  0  0  0  0  0
    2.6709    0.6759    1.8728 O   0  0  0  0  0  0  0  0  0  0  0  0
    2.6828    3.3896   -1.5998 O   0  0  0  0  0  0  0  0  0  0  0  0
    0.9571    2.2537   -0.5778 O   0  0  0  0  0  0  0  0  0  0  0  0
    2.6739    2.9631    0.9377 O   0  0  0  0  0  0  0  0  0  0  0  0
    4.4171    2.2537   -0.5778 O   0  0  0  0  0  0  0  0  0  0  0  0
    2.6871    2.2537   -0.5778 P   0  0  0  0  0  0  0  0  0  0  0  0
    5.0812    0.6043    1.6113 H   0  0  0  0  0  0  0  0  0  0  0  0
    0.0389   -0.5943   -1.3300 H   0  0  0  0  0  0  0  0  0  0  0  0
    0.4032   -0.8943    0.3733 H   0  0  0  0  0  0  0  0  0  0  0  0
    1.6241   -0.1885   -0.7231 H   0  0  0  0  0  0  0  0  0  0  0  0
    0.5280    4.2172    0.0271 H   0  0  0  0  0  0  0  0  0  0  0  0
   -0.4295    4.1406    1.4886 H   0  0  0  0  0  0  0  0  0  0  0  0
    0.9710    5.2701    1.3221 H   0  0  0  0  0  0  0  0  0  0  0  0
   -0.9240    1.4008   -0.2098 H   0  0  0  0  0  0  0  0  0  0  0  0
    0.1446    1.1204    1.0368 H   0  0  0  0  0  0  0  0  0  0  0  0
    0.9156    2.3699    1.9401 H   0  0  0  0  0  0  0  0  0  0  0  0
    1.8065    3.4761    2.7632 H   0  0  0  0  0  0  0  0  0  0  0  0
    4.5000    0.3802   -1.4267 H   0  0  0  0  0  0  0  0  0  0  0  0
    5.9824    0.9676   -0.6819 H   0  0  0  0  0  0  0  0  0  0  0  0
    4.9013   -1.8218    1.4354 H   0  0  0  0  0  0  0  0  0  0  0  0
    4.7588   -1.7623   -0.1317 H   0  0  0  0  0  0  0  0  0  0  0  0
    1.9136    0.9629    1.3538 H   0  0  0  0  0  0  0  0  0  0  0  0
  1 17  1  0  0  0  0
  1 18  1  0  0  0  0
  1 19  1  0  0  0  0
  2 20  1  0  0  0  0
  2 21  1  0  0  0  0
  2 22  1  0  0  0  0
  3  1  1  0  0  0  0
  3 23  1  0  0  0  0
  3 24  1  0  0  0  0
  4  2  1  0  0  0  0
  4 25  1  0  0  0  0
  4 26  1  0  0  0  0
  5 27  1  0  0  0  0
  5 28  1  0  0  0  0
  6  5  1  0  0  0  0
  6  8  1  0  0  0  0
  6 16  1  1  0  0  0
  7  6  1  0  0  0  0
  8 29  1  0  0  0  0
  8 30  1  0  0  0  0
  9  7  2  0  0  0  0
 10  7  1  0  0  0  0
 10 31  1  0  0  0  0
 12  3  1  0  0  0  0
 13  4  1  0  0  0  0
 14  5  1  0  0  0  0
 15 11  2  0  0  0  0
 15 12  1  0  0  0  0
 15 13  1  0  0  0  0
 15 14  1  0  0  0  0
M  END
>  <DRUGBANK_ID>
DB02364

>  <SECONDARY_ACCESSION_NUMBERS>
EXPT02876

>  <COMMON_NAME>
2-Amino-3-(Diethoxy-Phosphoryloxy)-Propionic Acid

$$$$
