
 OpenBabel10282417143D

 37 38  0  0  0  0  0  0  0  0999 V2000
   -0.9546   -7.4207    3.3919 N   0  0  0  0  0  0  0  0  0  0  0  0
    0.3708   -7.3392    3.2434 C   0  0  0  0  0  0  0  0  0  0  0  0
    1.0792   -8.3014    2.7669 N   0  0  0  0  0  0  0  0  0  0  0  0
    0.9893   -6.2123    3.6337 N   0  0  0  0  0  0  0  0  0  0  0  0
    0.4606   -4.9681    4.1298 C   0  0  0  0  0  0  0  0  0  0  0  0
    1.0753   -4.6024    5.5038 C   0  0  0  0  0  0  0  0  0  0  0  0
    2.5975   -4.2281    5.5420 C   0  0  0  0  0  0  0  0  0  0  0  0
    2.9000   -3.2566    4.4092 C   0  0  2  0  0  0  0  0  0  0  0  0
    3.1944   -4.1162    3.2589 N   0  0  0  0  0  0  0  0  0  0  0  0
    3.1153   -3.6636    1.9782 C   0  0  0  0  0  0  0  0  0  0  0  0
    2.7894   -2.1894    1.9350 C   0  0  1  0  0  0  0  0  0  0  0  0
    3.6843   -1.5266    2.9045 N   0  0  0  0  0  0  0  0  0  0  0  0
    3.8606   -2.0357    4.2199 C   0  0  0  0  0  0  0  0  0  0  0  0
    3.0900   -1.5493    0.6002 C   0  0  0  0  0  0  0  0  0  0  0  0
    3.5423   -0.1522    1.0024 C   0  0  0  0  0  0  0  0  0  0  0  0
    4.3110   -0.3621    2.3144 C   0  0  0  0  0  0  0  0  0  0  0  0
    3.2119   -4.4262    1.0215 O   0  0  0  0  0  0  0  0  0  0  0  0
    4.5437   -1.5032    5.0838 O   0  0  0  0  0  0  0  0  0  0  0  0
    1.7470   -2.0289    2.2360 H   0  0  0  0  0  0  0  0  0  0  0  0
   -1.4631   -8.2453    3.1164 H   0  0  0  0  0  0  0  0  0  0  0  0
   -1.4989   -6.6441    3.7234 H   0  0  0  0  0  0  0  0  0  0  0  0
    0.4702   -9.0873    2.5367 H   0  0  0  0  0  0  0  0  0  0  0  0
    1.9636   -6.2238    3.3577 H   0  0  0  0  0  0  0  0  0  0  0  0
    0.6069   -4.1762    3.3868 H   0  0  0  0  0  0  0  0  0  0  0  0
   -0.6237   -5.0158    4.2540 H   0  0  0  0  0  0  0  0  0  0  0  0
    0.5089   -3.7436    5.8873 H   0  0  0  0  0  0  0  0  0  0  0  0
    0.8960   -5.4341    6.1940 H   0  0  0  0  0  0  0  0  0  0  0  0
    2.8775   -3.8652    6.5340 H   0  0  0  0  0  0  0  0  0  0  0  0
    3.1422   -5.1727    5.3993 H   0  0  0  0  0  0  0  0  0  0  0  0
    1.9576   -2.6975    4.2989 H   0  0  0  0  0  0  0  0  0  0  0  0
    3.5437   -5.0562    3.3816 H   0  0  0  0  0  0  0  0  0  0  0  0
    3.8917   -2.0783    0.0723 H   0  0  0  0  0  0  0  0  0  0  0  0
    2.2072   -1.5505   -0.0480 H   0  0  0  0  0  0  0  0  0  0  0  0
    2.6565    0.4711    1.1775 H   0  0  0  0  0  0  0  0  0  0  0  0
    4.1454    0.3207    0.2238 H   0  0  0  0  0  0  0  0  0  0  0  0
    4.2465    0.5000    2.9830 H   0  0  0  0  0  0  0  0  0  0  0  0
    5.3614   -0.5996    2.1224 H   0  0  0  0  0  0  0  0  0  0  0  0
  1  2  1  0  0  0  0
  1 20  1  0  0  0  0
  1 21  1  0  0  0  0
  2  3  2  0  0  0  0
  2  4  1  0  0  0  0
  3 22  1  0  0  0  0
  4  5  1  0  0  0  0
  4 23  1  0  0  0  0
  5  6  1  0  0  0  0
  5 24  1  0  0  0  0
  5 25  1  0  0  0  0
  6  7  1  0  0  0  0
  6 26  1  0  0  0  0
  6 27  1  0  0  0  0
  7 28  1  0  0  0  0
  7 29  1  0  0  0  0
  8 13  1  0  0  0  0
  8 30  1  6  0  0  0
  8  7  1  0  0  0  0
  9 10  1  0  0  0  0
  9  8  1  0  0  0  0
  9 31  1  0  0  0  0
 10 11  1  0  0  0  0
 10 17  2  0  0  0  0
 11 14  1  0  0  0  0
 11 12  1  0  0  0  0
 11 19  1  1  0  0  0
 12 13  1  0  0  0  0
 12 16  1  0  0  0  0
 13 18  2  0  0  0  0
 14 15  1  0  0  0  0
 14 32  1  0  0  0  0
 14 33  1  0  0  0  0
 15 16  1  0  0  0  0
 15 34  1  0  0  0  0
 15 35  1  0  0  0  0
 16 36  1  0  0  0  0
 16 37  1  0  0  0  0
M  END
>  <DRUGBANK_ID>
DB04433

>  <SECONDARY_ACCESSION_NUMBERS>
EXPT00499

>  <COMMON_NAME>
Verpacamide A

>  <SYNONYMS>
Cyclo-(L-arginine-L-proline) inhibitor

$$$$
