
 OpenBabel10282417193D

 37 40  0  0  0  0  0  0  0  0999 V2000
    2.0934    0.7309   -0.3083 C   0  0  0  0  0  0  0  0  0  0  0  0
    0.8839    1.4162   -0.1797 C   0  0  0  0  0  0  0  0  0  0  0  0
   -0.2735    0.6423   -0.0926 C   0  0  0  0  0  0  0  0  0  0  0  0
   -0.2518   -0.7518   -0.0897 C   0  0  0  0  0  0  0  0  0  0  0  0
   -1.6027   -1.1880   -0.0167 C   0  0  0  0  0  0  0  0  0  0  0  0
   -2.4042   -0.0715   -0.0212 C   0  0  0  0  0  0  0  0  0  0  0  0
   -1.5911    1.0317   -0.0023 N   0  0  0  0  0  0  0  0  0  0  0  0
    0.9893   -1.4182   -0.1424 C   0  0  0  0  0  0  0  0  0  0  0  0
    2.1683   -0.6673   -0.2406 C   0  0  0  0  0  0  0  0  0  0  0  0
    3.4120   -1.2905   -0.0819 N   0  0  0  0  0  0  0  0  0  0  0  0
    4.3511   -1.1450    0.9537 C   0  0  0  0  0  0  0  0  0  0  0  0
    4.1573   -0.3145    2.1032 C   0  0  0  0  0  0  0  0  0  0  0  0
    5.0945   -0.2008    3.0639 N   0  0  0  0  0  0  0  0  0  0  0  0
    6.2167   -0.9253    2.8765 C   0  0  0  0  0  0  0  0  0  0  0  0
    6.4224   -1.7614    1.7833 C   0  0  0  0  0  0  0  0  0  0  0  0
    5.4874   -1.8825    0.8075 N   0  0  0  0  0  0  0  0  0  0  0  0
    7.6515   -2.5484    1.6487 C   0  0  0  0  0  0  0  0  0  0  0  0
    8.0332   -3.4573    2.6453 C   0  0  0  0  0  0  0  0  0  0  0  0
    9.2262   -4.1480    2.5080 C   0  0  0  0  0  0  0  0  0  0  0  0
   10.0651   -3.9892    1.4654 N   0  0  0  0  0  0  0  0  0  0  0  0
    9.6848   -3.1155    0.5092 C   0  0  0  0  0  0  0  0  0  0  0  0
    8.5036   -2.3896    0.5505 C   0  0  0  0  0  0  0  0  0  0  0  0
    3.0523    0.5011    2.3125 N   0  0  0  0  0  0  0  0  0  0  0  0
    3.0177    1.3075   -0.3435 H   0  0  0  0  0  0  0  0  0  0  0  0
    0.8665    2.4988   -0.1206 H   0  0  0  0  0  0  0  0  0  0  0  0
   -1.9463   -2.2144   -0.0078 H   0  0  0  0  0  0  0  0  0  0  0  0
   -3.4808    0.0363   -0.0350 H   0  0  0  0  0  0  0  0  0  0  0  0
   -1.9042    1.9902    0.0136 H   0  0  0  0  0  0  0  0  0  0  0  0
    1.0248   -2.4993   -0.0459 H   0  0  0  0  0  0  0  0  0  0  0  0
    3.6259   -2.0779   -0.6803 H   0  0  0  0  0  0  0  0  0  0  0  0
    6.9725   -0.8025    3.6443 H   0  0  0  0  0  0  0  0  0  0  0  0
    7.4101   -3.6341    3.5167 H   0  0  0  0  0  0  0  0  0  0  0  0
    9.5472   -4.8654    3.2582 H   0  0  0  0  0  0  0  0  0  0  0  0
   10.3827   -3.0047   -0.3163 H   0  0  0  0  0  0  0  0  0  0  0  0
    8.2638   -1.6978   -0.2511 H   0  0  0  0  0  0  0  0  0  0  0  0
    3.0676    0.9304    3.2268 H   0  0  0  0  0  0  0  0  0  0  0  0
    2.1690    0.0624    2.0765 H   0  0  0  0  0  0  0  0  0  0  0  0
  1  2  1  0  0  0  0
  1  9  2  0  0  0  0
  1 24  1  0  0  0  0
  2  3  2  0  0  0  0
  2 25  1  0  0  0  0
  3  4  1  0  0  0  0
  3  7  1  0  0  0  0
  4  5  1  0  0  0  0
  4  8  2  0  0  0  0
  5  6  2  0  0  0  0
  5 26  1  0  0  0  0
  6  7  1  0  0  0  0
  6 27  1  0  0  0  0
  7 28  1  0  0  0  0
  8  9  1  0  0  0  0
  8 29  1  0  0  0  0
  9 10  1  0  0  0  0
 10 11  1  0  0  0  0
 10 30  1  0  0  0  0
 11 12  2  0  0  0  0
 11 16  1  0  0  0  0
 12 13  1  0  0  0  0
 12 23  1  0  0  0  0
 13 14  2  0  0  0  0
 14 15  1  0  0  0  0
 14 31  1  0  0  0  0
 15 16  2  0  0  0  0
 15 17  1  0  0  0  0
 17 18  2  0  0  0  0
 17 22  1  0  0  0  0
 18 19  1  0  0  0  0
 18 32  1  0  0  0  0
 19 20  2  0  0  0  0
 19 33  1  0  0  0  0
 20 21  1  0  0  0  0
 21 22  2  0  0  0  0
 21 34  1  0  0  0  0
 22 35  1  0  0  0  0
 23 36  1  0  0  0  0
 23 37  1  0  0  0  0
M  END
>  <DRUGBANK_ID>
DB12746

>  <COMMON_NAME>
AKN-028

>  <CAS_NUMBER>
1175017-90-9

>  <UNII>
Y66IS3CS0R

$$$$
