
 OpenBabel10282417243D

 71 72  0  0  1  0  0  0  0  0999 V2000
    2.3519   -6.4982   -4.4390 H   0  0  0  0  0  0  0  0  0  0  0  0
    2.1872   -5.7079   -3.6935 C   0  0  2  0  0  0  0  0  0  0  0  0
    1.0383   -6.2706   -2.9242 O   0  0  0  0  0  0  0  0  0  0  0  0
    0.2959   -5.5762   -1.8512 C   0  0  1  0  0  0  0  0  0  0  0  0
    0.9439   -5.6764   -0.4503 C   0  0  0  0  0  0  0  0  0  0  0  0
    1.0263   -4.7485    0.3575 O   0  0  0  0  0  0  0  0  0  0  0  0
   -0.0721   -4.1670   -2.3526 C   0  0  1  0  0  0  0  0  0  0  0  0
   -1.1011   -4.0841   -3.3461 O   0  0  0  0  0  0  0  0  0  0  0  0
   -2.3694   -4.5743   -2.9518 C   0  0  1  0  0  0  0  0  0  0  0  0
   -2.3836   -5.6498   -3.1705 H   0  0  0  0  0  0  0  0  0  0  0  0
   -2.6263   -4.3509   -1.5468 O   0  0  0  0  0  0  0  0  0  0  0  0
   -2.5922   -2.9450   -1.2179 C   0  0  2  0  0  0  0  0  0  0  0  0
   -2.3040   -2.6783    0.3862 C   0  0  0  0  0  0  0  0  0  0  0  0
   -0.9603   -2.6014    0.9573 O   0  0  0  0  0  0  0  0  0  0  0  0
   -3.5608   -2.0825   -2.0562 C   0  0  2  0  0  0  0  0  0  0  0  0
   -4.8635   -2.3976   -1.6231 O   0  0  0  0  0  0  0  0  0  0  0  0
   -3.3489   -2.3474   -3.5817 C   0  0  2  0  0  0  0  0  0  0  0  0
   -4.3576   -1.6476   -4.3080 O   0  0  0  0  0  0  0  0  0  0  0  0
   -3.4174   -3.8517   -3.8049 C   0  0  1  0  0  0  0  0  0  0  0  0
   -3.3607   -4.1954   -5.2134 N   0  0  0  0  0  0  0  0  0  0  0  0
   -4.5335   -4.7051   -5.7428 C   0  0  0  0  0  0  0  0  0  0  0  0
   -4.5047   -4.9361   -7.2249 C   0  0  0  0  0  0  0  0  0  0  0  0
   -5.4881   -4.9922   -5.0784 O   0  0  0  0  0  0  0  0  0  0  0  0
    0.1859   -2.7651   -1.5201 C   0  0  1  0  0  0  0  0  0  0  0  0
    1.2590   -2.5219   -0.6429 O   0  0  0  0  0  0  0  0  0  0  0  0
   -0.2209   -1.3020   -2.1474 C   0  0  2  0  0  0  0  0  0  0  0  0
    0.9548   -0.5051   -2.3909 O   0  0  0  0  0  0  0  0  0  0  0  0
   -1.0941   -0.3545   -1.2676 C   0  0  0  0  0  0  0  0  0  0  0  0
   -1.6232    0.7199   -2.0465 O   0  0  0  0  0  0  0  0  0  0  0  0
    3.4026   -5.6196   -2.9269 O   0  0  0  0  0  0  0  0  0  0  0  0
    3.2913   -4.5694   -1.9755 C   0  0  1  0  0  0  0  0  0  0  0  0
    4.1031   -4.8169   -0.7124 C   0  0  0  0  0  0  0  0  0  0  0  0
    3.1940   -3.1340   -2.5564 C   0  0  1  0  0  0  0  0  0  0  0  0
    4.4405   -2.6141   -2.9185 O   0  0  0  0  0  0  0  0  0  0  0  0
    2.2038   -3.0464   -3.7635 C   0  0  1  0  0  0  0  0  0  0  0  0
    2.0865   -1.9181   -4.6269 O   0  0  0  0  0  0  0  0  0  0  0  0
    2.0757   -4.3803   -4.5709 C   0  0  2  0  0  0  0  0  0  0  0  0
    0.9481   -4.4195   -5.4634 O   0  0  0  0  0  0  0  0  0  0  0  0
   -0.6235   -6.1565   -1.7119 H   0  0  0  0  0  0  0  0  0  0  0  0
    1.4169   -6.6388   -0.2111 H   0  0  0  0  0  0  0  0  0  0  0  0
    0.6525   -4.2134   -3.0743 H   0  0  0  0  0  0  0  0  0  0  0  0
   -1.7900   -2.6102   -1.7974 H   0  0  0  0  0  0  0  0  0  0  0  0
   -2.6659   -1.6897    0.6569 H   0  0  0  0  0  0  0  0  0  0  0  0
   -2.7824   -3.4436    0.9789 H   0  0  0  0  0  0  0  0  0  0  0  0
   -0.4605   -3.4466    0.9682 H   0  0  0  0  0  0  0  0  0  0  0  0
   -3.4498   -0.9999   -1.9860 H   0  0  0  0  0  0  0  0  0  0  0  0
   -4.7923   -3.2802   -1.2141 H   0  0  0  0  0  0  0  0  0  0  0  0
   -2.3982   -1.9627   -3.9817 H   0  0  0  0  0  0  0  0  0  0  0  0
   -5.1443   -1.6821   -3.7304 H   0  0  0  0  0  0  0  0  0  0  0  0
   -4.3786   -4.1576   -3.3985 H   0  0  0  0  0  0  0  0  0  0  0  0
   -2.6266   -3.8217   -5.8051 H   0  0  0  0  0  0  0  0  0  0  0  0
   -4.6320   -6.0095   -7.3786 H   0  0  0  0  0  0  0  0  0  0  0  0
   -5.3420   -4.3873   -7.6604 H   0  0  0  0  0  0  0  0  0  0  0  0
   -3.5721   -4.6097   -7.6852 H   0  0  0  0  0  0  0  0  0  0  0  0
   -0.5027   -3.1237   -0.8221 H   0  0  0  0  0  0  0  0  0  0  0  0
    1.3181   -3.2206    0.0319 H   0  0  0  0  0  0  0  0  0  0  0  0
   -0.6709   -1.4360   -3.1372 H   0  0  0  0  0  0  0  0  0  0  0  0
    0.7563    0.0212   -3.1844 H   0  0  0  0  0  0  0  0  0  0  0  0
   -1.9937   -0.7692   -0.8713 H   0  0  0  0  0  0  0  0  0  0  0  0
   -0.5886    0.0106   -0.3756 H   0  0  0  0  0  0  0  0  0  0  0  0
   -0.9049    1.3588   -2.1593 H   0  0  0  0  0  0  0  0  0  0  0  0
    2.3239   -4.7238   -1.6011 H   0  0  0  0  0  0  0  0  0  0  0  0
    3.7185   -4.2023    0.1132 H   0  0  0  0  0  0  0  0  0  0  0  0
    4.0083   -5.8632   -0.3803 H   0  0  0  0  0  0  0  0  0  0  0  0
    5.1565   -4.5999   -0.8573 H   0  0  0  0  0  0  0  0  0  0  0  0
    2.8833   -2.4943   -1.7386 H   0  0  0  0  0  0  0  0  0  0  0  0
    4.7576   -3.2297   -3.5895 H   0  0  0  0  0  0  0  0  0  0  0  0
    1.3157   -2.7894   -3.2608 H   0  0  0  0  0  0  0  0  0  0  0  0
    2.5253   -1.1692   -4.1985 H   0  0  0  0  0  0  0  0  0  0  0  0
    2.9557   -4.3296   -5.2184 H   0  0  0  0  0  0  0  0  0  0  0  0
    0.1317   -4.5975   -4.9626 H   0  0  0  0  0  0  0  0  0  0  0  0
  2  1  1  6  0  0  0
  2  3  1  0  0  0  0
  2 30  1  0  0  0  0
  4  3  1  0  0  0  0
  4  5  1  0  0  0  0
  4 39  1  1  0  0  0
  5  6  2  0  0  0  0
  5 40  1  0  0  0  0
  7  4  1  0  0  0  0
  7  8  1  0  0  0  0
  7 24  1  0  0  0  0
  7 41  1  6  0  0  0
  9 11  1  0  0  0  0
  9 10  1  6  0  0  0
  9  8  1  0  0  0  0
 12 11  1  0  0  0  0
 12 42  1  6  0  0  0
 12 13  1  0  0  0  0
 13 14  1  0  0  0  0
 13 43  1  0  0  0  0
 13 44  1  0  0  0  0
 14 45  1  0  0  0  0
 15 12  1  0  0  0  0
 15 16  1  0  0  0  0
 15 17  1  0  0  0  0
 15 46  1  1  0  0  0
 16 47  1  0  0  0  0
 17 18  1  0  0  0  0
 17 19  1  0  0  0  0
 17 48  1  6  0  0  0
 18 49  1  0  0  0  0
 19  9  1  0  0  0  0
 19 20  1  0  0  0  0
 19 50  1  1  0  0  0
 20 21  1  0  0  0  0
 20 51  1  0  0  0  0
 21 22  1  0  0  0  0
 21 23  2  0  0  0  0
 22 52  1  0  0  0  0
 22 53  1  0  0  0  0
 22 54  1  0  0  0  0
 24 25  1  0  0  0  0
 24 55  1  1  0  0  0
 25 56  1  0  0  0  0
 26 28  1  0  0  0  0
 26 57  1  6  0  0  0
 26 27  1  0  0  0  0
 26 24  1  0  0  0  0
 27 58  1  0  0  0  0
 28 29  1  0  0  0  0
 28 59  1  0  0  0  0
 28 60  1  0  0  0  0
 29 61  1  0  0  0  0
 31 30  1  0  0  0  0
 31 32  1  0  0  0  0
 31 62  1  1  0  0  0
 32 63  1  0  0  0  0
 32 64  1  0  0  0  0
 32 65  1  0  0  0  0
 33 31  1  0  0  0  0
 33 34  1  0  0  0  0
 33 35  1  0  0  0  0
 33 66  1  1  0  0  0
 34 67  1  0  0  0  0
 35 36  1  0  0  0  0
 35 37  1  0  0  0  0
 35 68  1  1  0  0  0
 36 69  1  0  0  0  0
 37  2  1  0  0  0  0
 37 38  1  0  0  0  0
 37 70  1  6  0  0  0
 38 71  1  0  0  0  0
M  END
>  <DRUGBANK_ID>
DB17689

>  <COMMON_NAME>
Trisaccharide A

>  <CAS_NUMBER>
49777-13-1

>  <UNII>
P104QT2V1B

>  <SYNONYMS>
3-o-(2-acetamido-2-deoxy-.alpha.-d-galactopyranosyl)-2-o-(.alpha.-l-fucopyranosyl)-d-galactose; A trisaccharide; A-trisaccharide; Bg-a trisaccharide; Blood-group a trisaccharide

$$$$
