ABI
 OpenBabel10282417123D

 21 22  0  0  0  0  0  0  0  0999 V2000
    2.2151   -0.7052    0.0002 C   0  0  0  0  0  0  0  0  0  0  0  0
    2.1421    0.7071   -0.0115 C   0  0  0  0  0  0  0  0  0  0  0  0
    0.9208    1.4017   -0.0040 C   0  0  0  0  0  0  0  0  0  0  0  0
   -0.2670    0.6687    0.0020 C   0  0  0  0  0  0  0  0  0  0  0  0
   -0.2024   -0.7172    0.0012 C   0  0  0  0  0  0  0  0  0  0  0  0
    1.0018   -1.4330    0.0067 C   0  0  0  0  0  0  0  0  0  0  0  0
    3.5316   -1.4083    0.0057 C   0  0  0  0  0  0  0  0  0  0  0  0
   -2.2941    0.0105   -0.0010 C   0  0  0  0  0  0  0  0  0  0  0  0
    3.6014   -2.7265    0.0240 N   0  0  0  0  0  0  0  0  0  0  0  0
    4.6616   -0.7310   -0.0055 N   0  3  0  0  0  0  0  0  0  0  0  0
   -1.5640    1.1012    0.0061 N   0  0  0  0  0  0  0  0  0  0  0  0
   -1.5177   -1.1137   -0.0096 N   0  0  0  0  0  0  0  0  0  0  0  0
    3.0278    1.3351   -0.0272 H   0  0  0  0  0  0  0  0  0  0  0  0
    0.8863    2.4874   -0.0067 H   0  0  0  0  0  0  0  0  0  0  0  0
    0.9578   -2.5143    0.0141 H   0  0  0  0  0  0  0  0  0  0  0  0
   -3.3758   -0.0295   -0.0027 H   0  0  0  0  0  0  0  0  0  0  0  0
    4.4829   -3.2210    0.0295 H   0  0  0  0  0  0  0  0  0  0  0  0
    2.7752   -3.3079    0.0356 H   0  0  0  0  0  0  0  0  0  0  0  0
    4.6770    0.2803   -0.0181 H   0  0  0  0  0  0  0  0  0  0  0  0
    5.5669   -1.1803   -0.0013 H   0  0  0  0  0  0  0  0  0  0  0  0
   -1.8620   -2.0632   -0.0268 H   0  0  0  0  0  0  0  0  0  0  0  0
  1  2  1  0  0  0  0
  1  6  2  0  0  0  0
  1  7  1  0  0  0  0
  2  3  2  0  0  0  0
  2 13  1  0  0  0  0
  3  4  1  0  0  0  0
  3 14  1  0  0  0  0
  4  5  2  0  0  0  0
  4 11  1  0  0  0  0
  5  6  1  0  0  0  0
  5 12  1  0  0  0  0
  6 15  1  0  0  0  0
  7  9  1  0  0  0  0
  7 10  2  0  0  0  0
  8 11  2  0  0  0  0
  8 12  1  0  0  0  0
  8 16  1  0  0  0  0
  9 17  1  0  0  0  0
  9 18  1  0  0  0  0
 10 19  1  0  0  0  0
 10 20  1  0  0  0  0
 12 21  1  0  0  0  0
M  CHG  1  10   1
M  END
>  <DRUGBANK_ID>
DB01939

>  <SECONDARY_ACCESSION_NUMBERS>
EXPT00397

>  <COMMON_NAME>
5-Amidino-Benzimidazole

$$$$
