
 OpenBabel10282417213D

 76 72  0  0  0  0  0  0  0  0999 V2000
    0.9627    0.0867   -0.0330 C   0  0  0  0  0  0  0  0  0  0  0  0
    0.3272    0.3170   -1.1093 O   0  0  0  0  0  0  0  0  0  0  0  0
    0.2527   -0.1706    1.1695 O   0  5  0  0  0  0  0  0  0  0  0  0
    2.4827    0.0867   -0.0330 C   0  0  0  0  0  0  0  0  0  0  0  0
    2.9893    0.3865   -1.4344 C   0  0  0  0  0  0  0  0  0  0  0  0
    2.4827    1.7501   -1.8754 C   0  0  0  0  0  0  0  0  0  0  0  0
    2.9893    2.8138   -0.9150 C   0  0  0  0  0  0  0  0  0  0  0  0
    2.9893    1.1504    0.9273 C   0  0  0  0  0  0  0  0  0  0  0  0
    2.4827    0.8505    2.3287 C   0  0  0  0  0  0  0  0  0  0  0  0
    2.9893   -0.5130    2.7697 C   0  0  0  0  0  0  0  0  0  0  0  0
    1.0414    0.0907   -0.0076 C   0  0  0  0  0  0  0  0  0  0  0  0
    0.4060    1.1900    0.0465 O   0  0  0  0  0  0  0  0  0  0  0  0
    0.3314   -1.1376   -0.0680 O   0  5  0  0  0  0  0  0  0  0  0  0
    2.5614    0.0907   -0.0076 C   0  0  0  0  0  0  0  0  0  0  0  0
    3.0681    1.5220    0.0628 C   0  0  0  0  0  0  0  0  0  0  0  0
    2.5614    2.1767    1.3376 C   0  0  0  0  0  0  0  0  0  0  0  0
    3.0681    1.4001    2.5420 C   0  0  0  0  0  0  0  0  0  0  0  0
    3.0681   -0.6859    1.1968 C   0  0  0  0  0  0  0  0  0  0  0  0
    2.5614   -2.1173    1.1263 C   0  0  0  0  0  0  0  0  0  0  0  0
    3.0681   -2.7720   -0.1484 C   0  0  0  0  0  0  0  0  0  0  0  0
    1.0840   -0.0391   -0.0377 C   0  0  0  0  0  0  0  0  0  0  0  0
    0.4485   -0.6263   -0.9686 O   0  0  0  0  0  0  0  0  0  0  0  0
    0.3740    0.6170    1.0024 O   0  5  0  0  0  0  0  0  0  0  0  0
    2.6040   -0.0391   -0.0377 C   0  0  0  0  0  0  0  0  0  0  0  0
    3.1106   -0.8037   -1.2498 C   0  0  0  0  0  0  0  0  0  0  0  0
    2.6040   -0.1363   -2.5179 C   0  0  0  0  0  0  0  0  0  0  0  0
    3.1106    1.2957   -2.5741 C   0  0  0  0  0  0  0  0  0  0  0  0
    3.1106    1.3929   -0.0938 C   0  0  0  0  0  0  0  0  0  0  0  0
    2.6040    2.1575    1.1182 C   0  0  0  0  0  0  0  0  0  0  0  0
    3.1106    1.4901    2.3864 C   0  0  0  0  0  0  0  0  0  0  0  0
    0.9354    0.0762    0.0047 Bi  0  1  0  0  0  0  0  0  0  0  0  0
    2.8393   -0.8732    0.2774 H   0  0  0  0  0  0  0  0  0  0  0  0
    4.0593    0.3865   -1.4344 H   0  0  0  0  0  0  0  0  0  0  0  0
    2.6327   -0.3622   -2.1104 H   0  0  0  0  0  0  0  0  0  0  0  0
    2.8393    1.9611   -2.8618 H   0  0  0  0  0  0  0  0  0  0  0  0
    1.4127    1.7501   -1.8754 H   0  0  0  0  0  0  0  0  0  0  0  0
    4.0593    2.8138   -0.9150 H   0  0  0  0  0  0  0  0  0  0  0  0
    2.6327    3.7736   -1.2255 H   0  0  0  0  0  0  0  0  0  0  0  0
    2.6327    2.6027    0.0715 H   0  0  0  0  0  0  0  0  0  0  0  0
    4.0593    1.1504    0.9273 H   0  0  0  0  0  0  0  0  0  0  0  0
    2.6327    2.1102    0.6169 H   0  0  0  0  0  0  0  0  0  0  0  0
    2.8393    1.5993    3.0047 H   0  0  0  0  0  0  0  0  0  0  0  0
    1.4127    0.8505    2.3287 H   0  0  0  0  0  0  0  0  0  0  0  0
    4.0593   -0.5130    2.7697 H   0  0  0  0  0  0  0  0  0  0  0  0
    2.6327   -0.7241    3.7562 H   0  0  0  0  0  0  0  0  0  0  0  0
    2.6327   -1.2618    2.0937 H   0  0  0  0  0  0  0  0  0  0  0  0
    2.9181   -0.3702   -0.9050 H   0  0  0  0  0  0  0  0  0  0  0  0
    4.1381    1.5220    0.0628 H   0  0  0  0  0  0  0  0  0  0  0  0
    2.7114    2.0688   -0.7850 H   0  0  0  0  0  0  0  0  0  0  0  0
    2.9181    3.1843    1.3872 H   0  0  0  0  0  0  0  0  0  0  0  0
    1.4914    2.1767    1.3376 H   0  0  0  0  0  0  0  0  0  0  0  0
    4.1381    1.4001    2.5420 H   0  0  0  0  0  0  0  0  0  0  0  0
    2.7114    1.8610    3.4393 H   0  0  0  0  0  0  0  0  0  0  0  0
    2.7114    0.3925    2.4924 H   0  0  0  0  0  0  0  0  0  0  0  0
    4.1381   -0.6859    1.1968 H   0  0  0  0  0  0  0  0  0  0  0  0
    2.7114   -0.2251    2.0941 H   0  0  0  0  0  0  0  0  0  0  0  0
    2.9181   -2.6640    1.9742 H   0  0  0  0  0  0  0  0  0  0  0  0
    1.4914   -2.1173    1.1263 H   0  0  0  0  0  0  0  0  0  0  0  0
    4.1381   -2.7720   -0.1484 H   0  0  0  0  0  0  0  0  0  0  0  0
    2.7114   -3.7796   -0.1980 H   0  0  0  0  0  0  0  0  0  0  0  0
    2.7114   -2.2253   -0.9962 H   0  0  0  0  0  0  0  0  0  0  0  0
    2.9606   -0.5089    0.8550 H   0  0  0  0  0  0  0  0  0  0  0  0
    4.1806   -0.8037   -1.2498 H   0  0  0  0  0  0  0  0  0  0  0  0
    2.7540   -1.8117   -1.2103 H   0  0  0  0  0  0  0  0  0  0  0  0
    2.9606   -0.6745   -3.3712 H   0  0  0  0  0  0  0  0  0  0  0  0
    1.5340   -0.1363   -2.5180 H   0  0  0  0  0  0  0  0  0  0  0  0
    4.1806    1.2957   -2.5741 H   0  0  0  0  0  0  0  0  0  0  0  0
    2.7540    1.7655   -3.4668 H   0  0  0  0  0  0  0  0  0  0  0  0
    2.7540    1.8339   -1.7208 H   0  0  0  0  0  0  0  0  0  0  0  0
    4.1806    1.3929   -0.0938 H   0  0  0  0  0  0  0  0  0  0  0  0
    2.7540    1.8627   -0.9866 H   0  0  0  0  0  0  0  0  0  0  0  0
    2.9606    3.1655    1.0787 H   0  0  0  0  0  0  0  0  0  0  0  0
    1.5340    2.1575    1.1182 H   0  0  0  0  0  0  0  0  0  0  0  0
    4.1806    1.4901    2.3864 H   0  0  0  0  0  0  0  0  0  0  0  0
    2.7540    2.0283    3.2397 H   0  0  0  0  0  0  0  0  0  0  0  0
    2.7540    0.4820    2.4259 H   0  0  0  0  0  0  0  0  0  0  0  0
  1  2  2  0  0  0  0
  1  3  1  0  0  0  0
  1  4  1  0  0  0  0
  4  5  1  0  0  0  0
  4  8  1  0  0  0  0
  4 32  1  0  0  0  0
  5  6  1  0  0  0  0
  5 33  1  0  0  0  0
  5 34  1  0  0  0  0
  6  7  1  0  0  0  0
  6 35  1  0  0  0  0
  6 36  1  0  0  0  0
  7 37  1  0  0  0  0
  7 38  1  0  0  0  0
  7 39  1  0  0  0  0
  8  9  1  0  0  0  0
  8 40  1  0  0  0  0
  8 41  1  0  0  0  0
  9 10  1  0  0  0  0
  9 42  1  0  0  0  0
  9 43  1  0  0  0  0
 10 44  1  0  0  0  0
 10 45  1  0  0  0  0
 10 46  1  0  0  0  0
 11 12  2  0  0  0  0
 11 13  1  0  0  0  0
 11 14  1  0  0  0  0
 14 15  1  0  0  0  0
 14 18  1  0  0  0  0
 14 47  1  0  0  0  0
 15 16  1  0  0  0  0
 15 48  1  0  0  0  0
 15 49  1  0  0  0  0
 16 17  1  0  0  0  0
 16 50  1  0  0  0  0
 16 51  1  0  0  0  0
 17 52  1  0  0  0  0
 17 53  1  0  0  0  0
 17 54  1  0  0  0  0
 18 19  1  0  0  0  0
 18 55  1  0  0  0  0
 18 56  1  0  0  0  0
 19 20  1  0  0  0  0
 19 57  1  0  0  0  0
 19 58  1  0  0  0  0
 20 59  1  0  0  0  0
 20 60  1  0  0  0  0
 20 61  1  0  0  0  0
 21 22  2  0  0  0  0
 21 23  1  0  0  0  0
 21 24  1  0  0  0  0
 24 25  1  0  0  0  0
 24 28  1  0  0  0  0
 24 62  1  0  0  0  0
 25 26  1  0  0  0  0
 25 63  1  0  0  0  0
 25 64  1  0  0  0  0
 26 27  1  0  0  0  0
 26 65  1  0  0  0  0
 26 66  1  0  0  0  0
 27 67  1  0  0  0  0
 27 68  1  0  0  0  0
 27 69  1  0  0  0  0
 28 29  1  0  0  0  0
 28 70  1  0  0  0  0
 28 71  1  0  0  0  0
 29 30  1  0  0  0  0
 29 72  1  0  0  0  0
 29 73  1  0  0  0  0
 30 74  1  0  0  0  0
 30 75  1  0  0  0  0
 30 76  1  0  0  0  0
M  CHG  4   3  -1  13  -1  23  -1  31   3
M  END
>  <DRUGBANK_ID>
DB13910

>  <COMMON_NAME>
Valproate bismuth

>  <CAS_NUMBER>
60364-28-5

>  <UNII>
87PTX621FI

>  <SYNONYMS>
Bismuth dipropylacetate

$$$$
