
 OpenBabel10282417133D

 72 75  0  0  0  0  0  0  0  0999 V2000
    1.4238    0.3887   -0.4863 C   0  0  0  0  0  0  0  0  0  0  0  0
    0.2164   -0.7659   -0.7382 C   0  0  0  0  0  0  0  0  0  0  0  0
   -1.1653   -0.9822   -0.9442 C   0  0  0  0  0  0  0  0  0  0  0  0
   -1.6644    0.2683   -0.9258 C   0  0  0  0  0  0  0  0  0  0  0  0
   -0.7868    1.4176   -1.0045 C   0  0  0  0  0  0  0  0  0  0  0  0
    0.6747    1.4135   -0.9788 C   0  0  0  0  0  0  0  0  0  0  0  0
    4.0853   -0.3774   -1.5889 C   0  0  0  0  0  0  0  0  0  0  0  0
    3.3722   -0.1781    0.4757 C   0  0  0  0  0  0  0  0  0  0  0  0
    4.7440    0.5930   -2.1634 O   0  0  0  0  0  0  0  0  0  0  0  0
    3.3593   -0.7570   -2.6577 O   0  0  0  0  0  0  0  0  0  0  0  0
   -1.8943   -2.1244   -0.5487 O   0  0  0  0  0  0  0  0  0  0  0  0
   -1.3944   -3.4928   -0.2910 C   0  0  0  0  0  0  0  0  0  0  0  0
   -0.4231   -3.9443   -1.3331 C   0  0  0  0  0  0  0  0  0  0  0  0
    0.8370   -3.1847   -1.4489 C   0  0  0  0  0  0  0  0  0  0  0  0
    1.5246   -3.3348   -0.1428 N   0  0  0  0  0  0  0  0  0  0  0  0
    2.7828   -2.5588   -0.1771 C   0  0  0  0  0  0  0  0  0  0  0  0
    2.3511   -1.0716   -0.2923 C   0  0  0  0  0  0  0  0  0  0  0  0
    2.1753   -0.6805    1.8056 C   0  0  0  0  0  0  0  0  0  0  0  0
    1.7647   -1.4472    2.8779 C   0  0  0  0  0  0  0  0  0  0  0  0
    0.6834   -1.1594    3.8236 C   0  0  0  0  0  0  0  0  0  0  0  0
    0.3570    0.1752    4.1089 C   0  0  0  0  0  0  0  0  0  0  0  0
    1.2106    1.1885    3.5762 C   0  0  0  0  0  0  0  0  0  0  0  0
    2.1252    0.8332    2.4484 C   0  0  0  0  0  0  0  0  0  0  0  0
    3.3174    0.9739   -0.6561 C   0  0  0  0  0  0  0  0  0  0  0  0
    3.0973    2.2739   -0.3394 C   0  0  0  0  0  0  0  0  0  0  0  0
    4.2076    2.9996   -0.0238 C   0  0  0  0  0  0  0  0  0  0  0  0
    5.5444    2.4941    0.1688 C   0  0  0  0  0  0  0  0  0  0  0  0
    6.0028    1.2323    0.3673 C   0  0  0  0  0  0  0  0  0  0  0  0
    5.0355    0.4923   -0.0394 C   0  0  0  0  0  0  0  0  0  0  0  0
    0.6409   -3.0282    1.1725 C   0  0  0  0  0  0  0  0  0  0  0  0
   -0.3567   -1.4432    1.5167 C   0  0  0  0  0  0  0  0  0  0  0  0
   -1.5949   -1.2566    1.9315 C   0  0  0  0  0  0  0  0  0  0  0  0
   -2.0613    0.1680    1.9633 C   0  0  0  0  0  0  0  0  0  0  0  0
   -1.4485    1.4796    1.8324 C   0  0  0  0  0  0  0  0  0  0  0  0
   -0.2232    1.4284    1.5829 C   0  0  0  0  0  0  0  0  0  0  0  0
    0.0395    0.0387    1.4401 C   0  0  0  0  0  0  0  0  0  0  0  0
   -3.4367    0.4267    2.0217 C   0  0  0  0  0  0  0  0  0  0  0  0
   -3.5437    1.1571    3.1402 F   0  0  0  0  0  0  0  0  0  0  0  0
   -3.8641    1.1463    0.9614 F   0  0  0  0  0  0  0  0  0  0  0  0
   -4.1188   -0.7011    2.0856 F   0  0  0  0  0  0  0  0  0  0  0  0
   -2.5375   -2.6151    2.3073 Cl  0  0  0  0  0  0  0  0  0  0  0  0
    0.5093   -1.6356   -0.2382 H   0  0  0  0  0  0  0  0  0  0  0  0
   -2.6129    0.3949   -0.4345 H   0  0  0  0  0  0  0  0  0  0  0  0
   -1.0932    2.3214   -0.4324 H   0  0  0  0  0  0  0  0  0  0  0  0
    0.9203    2.3363   -0.5853 H   0  0  0  0  0  0  0  0  0  0  0  0
    3.7170    0.3730    1.3728 H   0  0  0  0  0  0  0  0  0  0  0  0
    3.7837   -1.2050    0.8074 H   0  0  0  0  0  0  0  0  0  0  0  0
    3.7666   -0.0247   -3.2294 H   0  0  0  0  0  0  0  0  0  0  0  0
   -1.1039   -3.7891    0.7024 H   0  0  0  0  0  0  0  0  0  0  0  0
   -2.2217   -4.1939   -0.1498 H   0  0  0  0  0  0  0  0  0  0  0  0
   -0.0743   -4.9491   -1.1602 H   0  0  0  0  0  0  0  0  0  0  0  0
   -1.0015   -3.7469   -2.2183 H   0  0  0  0  0  0  0  0  0  0  0  0
    1.5320   -3.2382   -2.2828 H   0  0  0  0  0  0  0  0  0  0  0  0
    0.4633   -2.2693   -1.9066 H   0  0  0  0  0  0  0  0  0  0  0  0
    3.3151   -2.8073    0.7532 H   0  0  0  0  0  0  0  0  0  0  0  0
    3.4600   -2.5924   -1.0364 H   0  0  0  0  0  0  0  0  0  0  0  0
    1.9776   -1.0903   -1.4056 H   0  0  0  0  0  0  0  0  0  0  0  0
    1.5208   -1.8890    2.0115 H   0  0  0  0  0  0  0  0  0  0  0  0
   -0.1204   -1.9410    3.8806 H   0  0  0  0  0  0  0  0  0  0  0  0
   -0.6391    0.4118    4.5276 H   0  0  0  0  0  0  0  0  0  0  0  0
    0.7529    2.2097    3.5738 H   0  0  0  0  0  0  0  0  0  0  0  0
    2.1475    1.6471    1.6285 H   0  0  0  0  0  0  0  0  0  0  0  0
    2.3163    2.9152   -0.6254 H   0  0  0  0  0  0  0  0  0  0  0  0
    3.9794    4.0514   -0.0908 H   0  0  0  0  0  0  0  0  0  0  0  0
    6.3152    3.2048    0.0021 H   0  0  0  0  0  0  0  0  0  0  0  0
    6.9421    0.7541    0.4774 H   0  0  0  0  0  0  0  0  0  0  0  0
    5.2469   -0.7199   -0.0558 H   0  0  0  0  0  0  0  0  0  0  0  0
    0.0768   -3.7554    1.7264 H   0  0  0  0  0  0  0  0  0  0  0  0
    1.4448   -3.3618    1.9270 H   0  0  0  0  0  0  0  0  0  0  0  0
   -1.7469    2.4986    1.6659 H   0  0  0  0  0  0  0  0  0  0  0  0
    0.4244    2.3218    1.4974 H   0  0  0  0  0  0  0  0  0  0  0  0
    0.9455    0.3063    1.1026 H   0  0  0  0  0  0  0  0  0  0  0  0
  1  2  1  0  0  0  0
  1  6  2  0  0  0  0
  1  8  1  0  0  0  0
  2  3  2  0  0  0  0
  2 42  1  0  0  0  0
  3  4  1  0  0  0  0
  3 11  1  0  0  0  0
  4  5  2  0  0  0  0
  4 43  1  0  0  0  0
  5  6  1  0  0  0  0
  5 44  1  0  0  0  0
  6 45  1  0  0  0  0
  7  8  1  0  0  0  0
  7  9  2  0  0  0  0
  7 10  1  0  0  0  0
  8 46  1  0  0  0  0
  8 47  1  0  0  0  0
 10 48  1  0  0  0  0
 11 12  1  0  0  0  0
 12 13  1  0  0  0  0
 12 49  1  0  0  0  0
 12 50  1  0  0  0  0
 13 14  1  0  0  0  0
 13 51  1  0  0  0  0
 13 52  1  0  0  0  0
 14 15  1  0  0  0  0
 14 53  1  0  0  0  0
 14 54  1  0  0  0  0
 15 16  1  0  0  0  0
 15 30  1  0  0  0  0
 16 17  1  0  0  0  0
 16 55  1  0  0  0  0
 16 56  1  0  0  0  0
 17 18  1  0  0  0  0
 17 24  1  0  0  0  0
 17 57  1  0  0  0  0
 18 19  1  0  0  0  0
 18 23  2  0  0  0  0
 19 20  2  0  0  0  0
 19 58  1  0  0  0  0
 20 21  1  0  0  0  0
 20 59  1  0  0  0  0
 21 22  2  0  0  0  0
 21 60  1  0  0  0  0
 22 23  1  0  0  0  0
 22 61  1  0  0  0  0
 23 62  1  0  0  0  0
 24 25  1  0  0  0  0
 24 29  2  0  0  0  0
 25 26  2  0  0  0  0
 25 63  1  0  0  0  0
 26 27  1  0  0  0  0
 26 64  1  0  0  0  0
 27 28  2  0  0  0  0
 27 65  1  0  0  0  0
 28 29  1  0  0  0  0
 28 66  1  0  0  0  0
 29 67  1  0  0  0  0
 30 31  1  0  0  0  0
 30 68  1  0  0  0  0
 30 69  1  0  0  0  0
 31 32  1  0  0  0  0
 31 36  2  0  0  0  0
 32 33  2  0  0  0  0
 32 41  1  0  0  0  0
 33 34  1  0  0  0  0
 33 37  1  0  0  0  0
 34 35  2  0  0  0  0
 34 70  1  0  0  0  0
 35 36  1  0  0  0  0
 35 71  1  0  0  0  0
 36 72  1  0  0  0  0
 37 38  1  0  0  0  0
 37 39  1  0  0  0  0
 37 40  1  0  0  0  0
M  END
>  <DRUGBANK_ID>
DB03791

>  <SECONDARY_ACCESSION_NUMBERS>
EXPT00345

>  <COMMON_NAME>
GW-3965

>  <CAS_NUMBER>
405911-09-3

>  <UNII>
6JI5YOG7RC

$$$$
