
 OpenBabel10282417233D

 42 46  0  0  1  0  0  0  0  0999 V2000
    1.1244    0.0596    0.0351 O   0  0  0  0  0  0  0  0  0  0  0  0
    2.3466    0.0514    0.0588 C   0  0  0  0  0  0  0  0  0  0  0  0
    3.1870    1.1917    0.1013 N   0  0  0  0  0  0  0  0  0  0  0  0
    4.5192    0.7732    0.0915 C   0  0  0  0  0  0  0  0  0  0  0  0
    4.5155   -0.6057    0.0454 C   0  0  0  0  0  0  0  0  0  0  0  0
    3.1969   -1.0513    0.0226 N   0  0  0  0  0  0  0  0  0  0  0  0
    2.9448   -2.4802   -0.1279 C   0  0  1  0  0  0  0  0  0  0  0  0
    2.6614   -2.9125   -1.5706 C   0  0  0  0  0  0  0  0  0  0  0  0
    2.3929   -4.2243   -1.8191 N   0  0  0  0  0  0  0  0  0  0  0  0
    2.2189   -4.5914   -3.1159 C   0  0  0  0  0  0  0  0  0  0  0  0
    2.4109   -3.7415   -4.1919 C   0  0  0  0  0  0  0  0  0  0  0  0
    2.7212   -2.4215   -3.9235 C   0  0  0  0  0  0  0  0  0  0  0  0
    2.7174   -1.9847   -2.6086 C   0  0  0  0  0  0  0  0  0  0  0  0
    4.1892   -3.2110    0.4634 C   0  0  0  0  0  0  0  0  0  0  0  0
    5.4897   -2.7614   -0.0427 O   0  0  0  0  0  0  0  0  0  0  0  0
    5.6443   -1.3983    0.0392 C   0  0  0  0  0  0  0  0  0  0  0  0
    6.8880   -0.7354    0.0871 C   0  0  0  0  0  0  0  0  0  0  0  0
    8.1655   -1.4460    0.0503 C   0  0  0  0  0  0  0  0  0  0  0  0
    8.5469   -2.2176   -1.0292 C   0  0  0  0  0  0  0  0  0  0  0  0
    7.9037   -2.5691   -2.3124 C   0  0  0  0  0  0  0  0  0  0  0  0
    9.7878   -2.7270   -0.8122 O   0  0  0  0  0  0  0  0  0  0  0  0
   10.2671   -2.2823    0.4045 N   0  0  0  0  0  0  0  0  0  0  0  0
    9.3050   -1.5013    0.9215 C   0  0  0  0  0  0  0  0  0  0  0  0
    9.5592   -0.8698    2.2469 C   0  0  0  0  0  0  0  0  0  0  0  0
    6.8969    0.6925    0.1153 C   0  0  0  0  0  0  0  0  0  0  0  0
    5.7068    1.4591    0.1211 C   0  0  0  0  0  0  0  0  0  0  0  0
    2.8367    2.1354    0.1370 H   0  0  0  0  0  0  0  0  0  0  0  0
    2.0496   -2.7235    0.4592 H   0  0  0  0  0  0  0  0  0  0  0  0
    1.9156   -5.6225   -3.2810 H   0  0  0  0  0  0  0  0  0  0  0  0
    2.2933   -4.0820   -5.2138 H   0  0  0  0  0  0  0  0  0  0  0  0
    2.9553   -1.7213   -4.7184 H   0  0  0  0  0  0  0  0  0  0  0  0
    2.7732   -0.9212   -2.4162 H   0  0  0  0  0  0  0  0  0  0  0  0
    4.1291   -4.2936    0.3162 H   0  0  0  0  0  0  0  0  0  0  0  0
    4.2154   -3.0380    1.5489 H   0  0  0  0  0  0  0  0  0  0  0  0
    8.5180   -2.2619   -3.1640 H   0  0  0  0  0  0  0  0  0  0  0  0
    7.7216   -3.6454   -2.3763 H   0  0  0  0  0  0  0  0  0  0  0  0
    6.9399   -2.0624   -2.4149 H   0  0  0  0  0  0  0  0  0  0  0  0
    9.7035   -1.6301    3.0252 H   0  0  0  0  0  0  0  0  0  0  0  0
   10.4697   -0.2561    2.2306 H   0  0  0  0  0  0  0  0  0  0  0  0
    8.7313   -0.2283    2.5556 H   0  0  0  0  0  0  0  0  0  0  0  0
    7.8493    1.2240    0.1129 H   0  0  0  0  0  0  0  0  0  0  0  0
    5.7407    2.5418    0.1508 H   0  0  0  0  0  0  0  0  0  0  0  0
  1  2  2  0  0  0  0
  2  3  1  0  0  0  0
  2  6  1  0  0  0  0
  3  4  1  0  0  0  0
  3 27  1  0  0  0  0
  4  5  2  0  0  0  0
  4 26  1  0  0  0  0
  5  6  1  0  0  0  0
  5 16  1  0  0  0  0
  7  6  1  0  0  0  0
  7  8  1  0  0  0  0
  7 14  1  0  0  0  0
  7 28  1  1  0  0  0
  8  9  2  0  0  0  0
  8 13  1  0  0  0  0
  9 10  1  0  0  0  0
 10 11  2  0  0  0  0
 10 29  1  0  0  0  0
 11 12  1  0  0  0  0
 11 30  1  0  0  0  0
 12 13  2  0  0  0  0
 12 31  1  0  0  0  0
 13 32  1  0  0  0  0
 14 15  1  0  0  0  0
 14 33  1  0  0  0  0
 14 34  1  0  0  0  0
 15 16  1  0  0  0  0
 16 17  2  0  0  0  0
 17 18  1  0  0  0  0
 17 25  1  0  0  0  0
 18 19  2  0  0  0  0
 18 23  1  0  0  0  0
 19 20  1  0  0  0  0
 19 21  1  0  0  0  0
 20 35  1  0  0  0  0
 20 36  1  0  0  0  0
 20 37  1  0  0  0  0
 21 22  1  0  0  0  0
 22 23  2  0  0  0  0
 23 24  1  0  0  0  0
 24 38  1  0  0  0  0
 24 39  1  0  0  0  0
 24 40  1  0  0  0  0
 25 26  2  0  0  0  0
 25 41  1  0  0  0  0
 26 42  1  0  0  0  0
M  END
>  <DRUGBANK_ID>
DB16894

>  <COMMON_NAME>
INCB-054329

>  <CAS_NUMBER>
1628607-64-6

$$$$
