
 OpenBabel10282417123D

 97100  0  0  0  0  0  0  0  0999 V2000
    4.6381    4.7458    1.5875 C   0  0  2  0  0  0  0  0  0  0  0  0
    3.7375    3.5624    2.8592 O   0  0  0  0  0  0  0  0  0  0  0  0
    3.5136    5.0535    0.4105 C   0  0  1  0  0  0  0  0  0  0  0  0
    2.1573    2.6706    2.1237 C   0  0  1  0  0  0  0  0  0  0  0  0
    2.1532    3.4321    0.3345 C   0  0  1  0  0  0  0  0  0  0  0  0
    2.8133    6.2855    1.5944 O   0  0  0  0  0  0  0  0  0  0  0  0
    4.3353   -2.4045    1.1427 C   0  0  0  0  0  0  0  0  0  0  0  0
    3.8490   -2.9562    2.4930 C   0  0  0  0  0  0  0  0  0  0  0  0
    3.3194   -2.4284    0.0978 N   0  0  0  0  0  0  0  0  0  0  0  0
    2.7951   -1.3290   -0.5126 C   0  0  0  0  0  0  0  0  0  0  0  0
    3.3782   -0.2502   -0.4212 O   0  0  0  0  0  0  0  0  0  0  0  0
    0.2153   -0.7710   -0.9921 C   0  0  0  0  0  0  0  0  0  0  0  0
    1.5348   -1.4919   -1.3983 C   0  0  0  0  0  0  0  0  0  0  0  0
    0.2987    0.6758   -0.9821 N   0  0  0  0  0  0  0  0  0  0  0  0
   -1.1650    1.1920   -2.5949 O   0  0  0  0  0  0  0  0  0  0  0  0
   -0.2976    1.6050   -1.8209 C   0  0  0  0  0  0  0  0  0  0  0  0
    1.7561    5.1314    0.2015 C   0  0  0  0  0  0  0  0  0  0  0  0
    2.3613    2.4179   -1.9756 C   0  0  0  0  0  0  0  0  0  0  0  0
    1.4942    3.9902   -1.5247 C   0  0  0  0  0  0  0  0  0  0  0  0
    2.0866    5.0239   -2.3668 C   0  0  0  0  0  0  0  0  0  0  0  0
   -0.0310    3.2421   -1.8374 C   0  0  1  0  0  0  0  0  0  0  0  0
   -0.3054    3.8263   -3.0908 O   0  0  0  0  0  0  0  0  0  0  0  0
    2.7240    4.3135    1.6227 O   0  0  0  0  0  0  0  0  0  0  0  0
    3.8370    1.5768    2.1422 O   0  0  0  0  0  0  0  0  0  0  0  0
    2.4177    0.0073    2.1111 O   0  0  0  0  0  0  0  0  0  0  0  0
    5.5201    2.7480    1.8777 O   0  0  0  0  0  0  0  0  0  0  0  0
    4.3013    2.8996   -0.4798 O   0  0  0  0  0  0  0  0  0  0  0  0
    3.3862    0.2570    4.4593 O   0  0  0  0  0  0  0  0  0  0  0  0
    5.2294    0.1832    2.6796 O   0  0  0  0  0  0  0  0  0  0  0  0
    4.1701    2.6936    1.1404 P   0  0  3  0  0  0  0  0  0  0  0  0
    3.6936    0.3292    3.0072 P   0  0  3  0  0  0  0  0  0  0  0  0
    1.8633    1.1800    1.5385 C   0  0  0  0  0  0  0  0  0  0  0  0
    0.3706    4.1558    0.0031 O   0  0  0  0  0  0  0  0  0  0  0  0
   -1.6279    4.9839    0.6739 O   0  0  0  0  0  0  0  0  0  0  0  0
   -0.5737    3.4145    2.1132 O   0  0  0  0  0  0  0  0  0  0  0  0
   -0.2074    4.8708    1.4685 P   0  0  0  0  0  0  0  0  0  0  0  0
   -0.7248    5.5108    2.7800 O   0  0  0  0  0  0  0  0  0  0  0  0
    5.9382    4.3054    0.4720 N   0  0  0  0  0  0  0  0  0  0  0  0
    6.0890    5.1042   -0.6408 C   0  0  0  0  0  0  0  0  0  0  0  0
    6.4346    2.9150   -0.1582 C   0  0  0  0  0  0  0  0  0  0  0  0
    6.7884    4.3521   -1.5588 C   0  0  0  0  0  0  0  0  0  0  0  0
    5.6386    6.3476   -0.8035 N   0  0  0  0  0  0  0  0  0  0  0  0
    6.8697    3.0305   -1.3722 N   0  0  0  0  0  0  0  0  0  0  0  0
    7.4057    5.0234   -2.5637 C   0  0  0  0  0  0  0  0  0  0  0  0
    6.3092    6.9220   -1.8130 C   0  0  0  0  0  0  0  0  0  0  0  0
    7.2083    6.3479   -2.6534 N   0  0  0  0  0  0  0  0  0  0  0  0
    8.2546    4.2649   -3.3305 N   0  0  0  0  0  0  0  0  0  0  0  0
    3.4024   -4.7330    2.4381 S   0  0  0  0  0  0  0  0  0  0  0  0
    1.4987   -3.8852    0.7939 O   0  0  0  0  0  0  0  0  0  0  0  0
    2.0211   -4.8442    1.3486 C   0  0  0  0  0  0  0  0  0  0  0  0
    1.5213   -6.1852    1.0001 C   0  0  0  0  0  0  0  0  0  0  0  0
    0.6845   -8.3466    1.6885 C   0  0  0  0  0  0  0  0  0  0  0  0
    1.2275   -7.0990    2.0111 C   0  0  0  0  0  0  0  0  0  0  0  0
    1.2451   -6.5063   -0.3387 C   0  0  0  0  0  0  0  0  0  0  0  0
    0.7071   -7.7560   -0.6543 C   0  0  0  0  0  0  0  0  0  0  0  0
    0.4323   -8.6688    0.3576 C   0  0  0  0  0  0  0  0  0  0  0  0
   -0.0889   -9.8717   -0.0174 O   0  0  0  0  0  0  0  0  0  0  0  0
    4.9349    5.5589    2.2165 H   0  0  0  0  0  0  0  0  0  0  0  0
    3.3978    5.9148   -0.3594 H   0  0  0  0  0  0  0  0  0  0  0  0
    1.4217    2.9480    2.8481 H   0  0  0  0  0  0  0  0  0  0  0  0
    2.7299    3.3710   -0.5019 H   0  0  0  0  0  0  0  0  0  0  0  0
    2.3928    5.6623    2.2784 H   0  0  0  0  0  0  0  0  0  0  0  0
    5.2026   -2.9697    0.7963 H   0  0  0  0  0  0  0  0  0  0  0  0
    4.6713   -1.3793    1.2656 H   0  0  0  0  0  0  0  0  0  0  0  0
    4.6720   -2.8438    3.2202 H   0  0  0  0  0  0  0  0  0  0  0  0
    3.0154   -2.3754    2.9004 H   0  0  0  0  0  0  0  0  0  0  0  0
    2.8208   -3.2984   -0.0223 H   0  0  0  0  0  0  0  0  0  0  0  0
   -0.0218   -1.0358    0.0442 H   0  0  0  0  0  0  0  0  0  0  0  0
   -0.6020   -1.0122   -1.6640 H   0  0  0  0  0  0  0  0  0  0  0  0
    1.2975   -2.5551   -1.4988 H   0  0  0  0  0  0  0  0  0  0  0  0
    1.8523   -1.1249   -2.3796 H   0  0  0  0  0  0  0  0  0  0  0  0
    1.1156    0.8006   -0.4584 H   0  0  0  0  0  0  0  0  0  0  0  0
    1.3859    4.4104    1.3217 H   0  0  0  0  0  0  0  0  0  0  0  0
    1.2029    6.0853    0.4005 H   0  0  0  0  0  0  0  0  0  0  0  0
    1.9770    1.7267   -1.2784 H   0  0  0  0  0  0  0  0  0  0  0  0
    2.2893    2.0345   -2.9751 H   0  0  0  0  0  0  0  0  0  0  0  0
    3.3111    2.0139   -1.6397 H   0  0  0  0  0  0  0  0  0  0  0  0
    1.5184    5.9237   -2.1303 H   0  0  0  0  0  0  0  0  0  0  0  0
    3.1171    5.1571   -2.0462 H   0  0  0  0  0  0  0  0  0  0  0  0
    2.1443    4.6295   -3.3561 H   0  0  0  0  0  0  0  0  0  0  0  0
   -0.9005    3.5273   -1.2179 H   0  0  0  0  0  0  0  0  0  0  0  0
    0.4472    3.5283   -3.6209 H   0  0  0  0  0  0  0  0  0  0  0  0
    4.3895    3.7644   -1.0422 H   0  0  0  0  0  0  0  0  0  0  0  0
    5.5350    1.1355    2.8163 H   0  0  0  0  0  0  0  0  0  0  0  0
    0.8069    1.1199    1.2808 H   0  0  0  0  0  0  0  0  0  0  0  0
    2.3736    1.1745    0.5841 H   0  0  0  0  0  0  0  0  0  0  0  0
   -1.8279    5.8890    0.3908 H   0  0  0  0  0  0  0  0  0  0  0  0
   -0.2849    2.5731    1.7755 H   0  0  0  0  0  0  0  0  0  0  0  0
    6.0064    1.8931    0.0650 H   0  0  0  0  0  0  0  0  0  0  0  0
    6.1548    7.9881   -1.9100 H   0  0  0  0  0  0  0  0  0  0  0  0
    8.3468    3.2798   -3.0568 H   0  0  0  0  0  0  0  0  0  0  0  0
    8.9396    4.7348   -3.8799 H   0  0  0  0  0  0  0  0  0  0  0  0
    0.4640   -9.0435    2.4890 H   0  0  0  0  0  0  0  0  0  0  0  0
    1.3990   -6.8307    3.0502 H   0  0  0  0  0  0  0  0  0  0  0  0
    1.4414   -5.8033   -1.1455 H   0  0  0  0  0  0  0  0  0  0  0  0
    0.4983   -8.0197   -1.6879 H   0  0  0  0  0  0  0  0  0  0  0  0
   -0.2435  -10.4336    0.7597 H   0  0  0  0  0  0  0  0  0  0  0  0
  1 38  1  0  0  0  0
  1 58  1  1  0  0  0
  2  1  1  0  0  0  0
  3  1  1  0  0  0  0
  3  6  1  0  0  0  0
  3 59  1  6  0  0  0
  4  2  1  0  0  0  0
  4 32  1  0  0  0  0
  4 60  1  1  0  0  0
  5  3  1  0  0  0  0
  5  4  1  0  0  0  0
  5 33  1  0  0  0  0
  5 61  1  6  0  0  0
  6 62  1  0  0  0  0
  7  8  1  0  0  0  0
  7 63  1  0  0  0  0
  7 64  1  0  0  0  0
  8 48  1  0  0  0  0
  8 65  1  0  0  0  0
  8 66  1  0  0  0  0
  9  7  1  0  0  0  0
  9 67  1  0  0  0  0
 10  9  1  0  0  0  0
 10 11  2  0  0  0  0
 12 14  1  0  0  0  0
 12 68  1  0  0  0  0
 12 69  1  0  0  0  0
 13 10  1  0  0  0  0
 13 12  1  0  0  0  0
 13 70  1  0  0  0  0
 13 71  1  0  0  0  0
 14 72  1  0  0  0  0
 16 14  1  0  0  0  0
 16 15  2  0  0  0  0
 17 23  1  0  0  0  0
 17 73  1  0  0  0  0
 17 74  1  0  0  0  0
 18 75  1  0  0  0  0
 18 76  1  0  0  0  0
 18 77  1  0  0  0  0
 19 17  1  0  0  0  0
 19 18  1  0  0  0  0
 19 20  1  0  0  0  0
 20 78  1  0  0  0  0
 20 79  1  0  0  0  0
 20 80  1  0  0  0  0
 21 22  1  0  0  0  0
 21 81  1  1  0  0  0
 21 19  1  0  0  0  0
 21 16  1  0  0  0  0
 22 82  1  0  0  0  0
 23 30  1  0  0  0  0
 24 31  1  0  0  0  0
 27 83  1  0  0  0  0
 29 84  1  0  0  0  0
 30 24  1  0  0  0  0
 30 26  2  0  0  0  0
 30 27  1  0  0  0  0
 31 25  1  0  0  0  0
 31 28  2  0  0  0  0
 31 29  1  0  0  0  0
 32 25  1  0  0  0  0
 32 85  1  0  0  0  0
 32 86  1  0  0  0  0
 33 36  1  0  0  0  0
 34 87  1  0  0  0  0
 35 88  1  0  0  0  0
 36 34  1  0  0  0  0
 36 35  1  0  0  0  0
 36 37  2  0  0  0  0
 39 38  1  0  0  0  0
 40 38  1  0  0  0  0
 40 89  1  0  0  0  0
 41 39  2  0  0  0  0
 42 39  1  0  0  0  0
 43 40  2  0  0  0  0
 43 41  1  0  0  0  0
 44 41  1  0  0  0  0
 45 42  2  0  0  0  0
 45 90  1  0  0  0  0
 46 44  2  0  0  0  0
 46 45  1  0  0  0  0
 47 44  1  0  0  0  0
 47 91  1  0  0  0  0
 47 92  1  0  0  0  0
 48 50  1  0  0  0  0
 50 49  2  0  0  0  0
 50 51  1  0  0  0  0
 51 54  1  0  0  0  0
 52 53  1  0  0  0  0
 52 56  2  0  0  0  0
 52 93  1  0  0  0  0
 53 51  2  0  0  0  0
 53 94  1  0  0  0  0
 54 55  2  0  0  0  0
 54 95  1  0  0  0  0
 55 56  1  0  0  0  0
 55 96  1  0  0  0  0
 56 57  1  0  0  0  0
 57 97  1  0  0  0  0
M  END
>  <DRUGBANK_ID>
DB01652

>  <SECONDARY_ACCESSION_NUMBERS>
EXPT00637

>  <COMMON_NAME>
4-hydroxybenzoyl-CoA

>  <CAS_NUMBER>
27718-41-8

>  <SYNONYMS>
4-hydroxybenzoyl coenzyme A; 4-hydroxybenzoyl-CoA; 4-hydroxybenzoyl-coenzyme A; p-hydroxybenzoyl-CoA; p-hydroxybenzoyl-coenzyme A

$$$$
