
 OpenBabel10282417183D

 46 49  0  0  0  0  0  0  0  0999 V2000
   -0.4040   -1.3196    0.0262 C   0  0  0  0  0  0  0  0  0  0  0  0
   -1.5240   -0.5621   -0.6328 C   0  0  2  0  0  0  0  0  0  0  0  0
   -1.4837    0.8038   -0.2338 N   0  0  0  0  0  0  0  0  0  0  0  0
   -0.3567    1.6055   -0.2991 C   0  0  0  0  0  0  0  0  0  0  0  0
    0.9357    0.8348   -0.1717 C   0  0  0  0  0  0  0  0  0  0  0  0
    0.8627   -0.5508   -0.0502 N   0  0  0  0  0  0  0  0  0  0  0  0
    2.0318   -1.2342    0.1191 C   0  0  0  0  0  0  0  0  0  0  0  0
    2.1180    1.4837   -0.1045 C   0  0  0  0  0  0  0  0  0  0  0  0
    3.3873    0.6819    0.0813 C   0  0  0  0  0  0  0  0  0  0  0  0
    3.2884   -0.8051    0.1941 C   0  0  0  0  0  0  0  0  0  0  0  0
   -2.6803    1.1971    0.4306 C   0  0  2  0  0  0  0  0  0  0  0  0
   -3.5166   -0.0720    0.4599 C   0  0  0  0  0  0  0  0  0  0  0  0
   -2.7883   -1.0952   -0.2326 O   0  0  0  0  0  0  0  0  0  0  0  0
   -3.3775    2.2962   -0.3309 C   0  0  0  0  0  0  0  0  0  0  0  0
   -0.4148    2.8145   -0.3492 O   0  0  0  0  0  0  0  0  0  0  0  0
    2.2746    2.8541   -0.1688 O   0  0  0  0  0  0  0  0  0  0  0  0
   -1.4391   -0.6226   -1.7243 H   0  0  0  0  0  0  0  0  0  0  0  0
    4.4838   -1.6854    0.3619 C   0  0  0  0  0  0  0  0  0  0  0  0
    5.6205   -1.2177    0.3944 O   0  0  0  0  0  0  0  0  0  0  0  0
    4.4011   -3.0412    0.4950 N   0  0  0  0  0  0  0  0  0  0  0  0
    3.3089   -3.9898    0.4921 C   0  0  0  0  0  0  0  0  0  0  0  0
    3.2176   -4.8002   -0.7570 C   0  0  0  0  0  0  0  0  0  0  0  0
    2.0221   -4.9307   -1.4856 C   0  0  0  0  0  0  0  0  0  0  0  0
    4.3208   -5.5646   -1.1208 C   0  0  0  0  0  0  0  0  0  0  0  0
    4.1566   -6.5942   -2.0299 C   0  0  0  0  0  0  0  0  0  0  0  0
    2.9916   -6.6659   -2.7854 C   0  0  0  0  0  0  0  0  0  0  0  0
    1.9306   -5.8032   -2.5593 C   0  0  0  0  0  0  0  0  0  0  0  0
    0.9313   -4.2333   -1.1343 F   0  0  0  0  0  0  0  0  0  0  0  0
    2.9056   -7.5805   -3.7572 F   0  0  0  0  0  0  0  0  0  0  0  0
    4.4416    1.3073    0.1357 O   0  0  0  0  0  0  0  0  0  0  0  0
   -0.6423   -1.5466    1.0753 H   0  0  0  0  0  0  0  0  0  0  0  0
   -0.3172   -2.2945   -0.4736 H   0  0  0  0  0  0  0  0  0  0  0  0
    1.6948   -2.2266    0.1556 H   0  0  0  0  0  0  0  0  0  0  0  0
   -2.4242    1.5153    1.4496 H   0  0  0  0  0  0  0  0  0  0  0  0
   -4.4845    0.0527   -0.0337 H   0  0  0  0  0  0  0  0  0  0  0  0
   -3.7015   -0.4125    1.4842 H   0  0  0  0  0  0  0  0  0  0  0  0
   -4.3345    2.5310    0.1350 H   0  0  0  0  0  0  0  0  0  0  0  0
   -2.7714    3.2043   -0.3565 H   0  0  0  0  0  0  0  0  0  0  0  0
   -3.5429    1.9786   -1.3663 H   0  0  0  0  0  0  0  0  0  0  0  0
    3.2378    3.0143   -0.0899 H   0  0  0  0  0  0  0  0  0  0  0  0
    5.3294   -3.4382    0.5973 H   0  0  0  0  0  0  0  0  0  0  0  0
    3.3770   -4.6105    1.3881 H   0  0  0  0  0  0  0  0  0  0  0  0
    2.3565   -3.5576    0.6562 H   0  0  0  0  0  0  0  0  0  0  0  0
    5.2860   -5.3925   -0.6544 H   0  0  0  0  0  0  0  0  0  0  0  0
    4.9339   -7.3408   -2.1375 H   0  0  0  0  0  0  0  0  0  0  0  0
    1.0384   -5.8499   -3.1734 H   0  0  0  0  0  0  0  0  0  0  0  0
  1  2  1  0  0  0  0
  1  6  1  0  0  0  0
  1 31  1  0  0  0  0
  1 32  1  0  0  0  0
  2 13  1  0  0  0  0
  2  3  1  0  0  0  0
  2 17  1  6  0  0  0
  3  4  1  0  0  0  0
  3 11  1  0  0  0  0
  4  5  1  0  0  0  0
  4 15  2  0  0  0  0
  5  8  2  0  0  0  0
  6  5  1  0  0  0  0
  7  6  1  0  0  0  0
  7 10  2  0  0  0  0
  7 33  1  0  0  0  0
  8  9  1  0  0  0  0
  8 16  1  0  0  0  0
  9 10  1  0  0  0  0
  9 30  2  0  0  0  0
 10 18  1  0  0  0  0
 11 12  1  0  0  0  0
 11 14  1  0  0  0  0
 11 34  1  1  0  0  0
 12 13  1  0  0  0  0
 12 35  1  0  0  0  0
 12 36  1  0  0  0  0
 14 37  1  0  0  0  0
 14 38  1  0  0  0  0
 14 39  1  0  0  0  0
 16 40  1  0  0  0  0
 18 19  2  0  0  0  0
 18 20  1  0  0  0  0
 20 21  1  0  0  0  0
 20 41  1  0  0  0  0
 21 22  1  0  0  0  0
 21 42  1  0  0  0  0
 21 43  1  0  0  0  0
 22 24  1  0  0  0  0
 23 22  2  0  0  0  0
 23 27  1  0  0  0  0
 23 28  1  0  0  0  0
 24 25  2  0  0  0  0
 24 44  1  0  0  0  0
 25 26  1  0  0  0  0
 25 45  1  0  0  0  0
 26 27  2  0  0  0  0
 26 29  1  0  0  0  0
 27 46  1  0  0  0  0
M  END
>  <DRUGBANK_ID>
DB11751

>  <COMMON_NAME>
Cabotegravir

>  <CAS_NUMBER>
1051375-10-0

>  <UNII>
HMH0132Z1Q

>  <SYNONYMS>
Cabotegravir

$$$$
