
 OpenBabel10282417133D

 48 50  0  0  0  0  0  0  0  0999 V2000
    1.0825    0.3095   -0.0157 C   0  0  0  0  0  0  0  0  0  0  0  0
    0.5206    0.9808    1.1331 N   0  0  0  0  0  0  0  0  0  0  0  0
   -0.9530    0.9721    1.0448 C   0  0  0  0  0  0  0  0  0  0  0  0
   -1.6431   -0.3639    1.2115 C   0  0  0  0  0  0  0  0  0  0  0  0
   -2.4288   -0.6596    2.2575 C   0  0  0  0  0  0  0  0  0  0  0  0
    1.1068    0.4902    2.4032 C   0  0  0  0  0  0  0  0  0  0  0  0
    0.7960   -0.9285    2.8127 C   0  0  0  0  0  0  0  0  0  0  0  0
    1.6083   -2.0063    2.9155 C   0  0  0  0  0  0  0  0  0  0  0  0
    1.0279   -3.4080    3.0028 C   0  0  0  0  0  0  0  0  0  0  0  0
    1.5064   -4.3350    1.9859 O   0  0  0  0  0  0  0  0  0  0  0  0
    1.0973   -4.1152    0.6902 C   0  0  0  0  0  0  0  0  0  0  0  0
    0.5664   -5.1587   -0.0810 C   0  0  0  0  0  0  0  0  0  0  0  0
    0.1689   -4.8467   -1.3993 C   0  0  0  0  0  0  0  0  0  0  0  0
    0.2946   -3.5891   -1.9689 C   0  0  0  0  0  0  0  0  0  0  0  0
    0.9226   -2.6062   -1.2284 C   0  0  0  0  0  0  0  0  0  0  0  0
    1.3530   -2.9050    0.0692 C   0  0  0  0  0  0  0  0  0  0  0  0
   -0.2731   -3.6224   -3.2662 C   0  0  0  0  0  0  0  0  0  0  0  0
   -0.6548   -4.9335   -3.4445 C   0  0  0  0  0  0  0  0  0  0  0  0
   -0.3902   -5.6825   -2.3276 O   0  0  0  0  0  0  0  0  0  0  0  0
   -0.4256   -2.5398   -4.2294 C   0  0  0  0  0  0  0  0  0  0  0  0
    0.6917   -1.8149   -4.6767 C   0  0  0  0  0  0  0  0  0  0  0  0
    0.5402   -0.7373   -5.5601 C   0  0  0  0  0  0  0  0  0  0  0  0
   -0.7325   -0.3730   -5.9927 C   0  0  0  0  0  0  0  0  0  0  0  0
   -0.9419    1.0720   -7.1947 Br  0  0  0  0  0  0  0  0  0  0  0  0
   -1.8530   -1.0680   -5.5419 C   0  0  0  0  0  0  0  0  0  0  0  0
   -1.6994   -2.1462   -4.6600 C   0  0  0  0  0  0  0  0  0  0  0  0
    0.7854    0.7310   -0.9824 H   0  0  0  0  0  0  0  0  0  0  0  0
    0.6493   -0.6690    0.0218 H   0  0  0  0  0  0  0  0  0  0  0  0
    2.1743    0.2190   -0.0043 H   0  0  0  0  0  0  0  0  0  0  0  0
   -1.3369    1.6910    1.7732 H   0  0  0  0  0  0  0  0  0  0  0  0
   -1.2526    1.3641    0.0613 H   0  0  0  0  0  0  0  0  0  0  0  0
   -1.4051   -1.1619    0.5085 H   0  0  0  0  0  0  0  0  0  0  0  0
   -2.7640   -1.6789    2.4257 H   0  0  0  0  0  0  0  0  0  0  0  0
   -2.6199    0.0764    3.0315 H   0  0  0  0  0  0  0  0  0  0  0  0
    2.1959    0.6146    2.3477 H   0  0  0  0  0  0  0  0  0  0  0  0
    0.7706    1.1630    3.1990 H   0  0  0  0  0  0  0  0  0  0  0  0
   -0.2405   -1.1306    3.0134 H   0  0  0  0  0  0  0  0  0  0  0  0
    2.6779   -1.9050    2.7938 H   0  0  0  0  0  0  0  0  0  0  0  0
    1.3285   -3.8245    3.9722 H   0  0  0  0  0  0  0  0  0  0  0  0
   -0.0711   -3.4089    2.9971 H   0  0  0  0  0  0  0  0  0  0  0  0
    0.4716   -6.1632    0.3095 H   0  0  0  0  0  0  0  0  0  0  0  0
    1.0587   -1.6307   -1.6766 H   0  0  0  0  0  0  0  0  0  0  0  0
    1.9163   -2.1479    0.5928 H   0  0  0  0  0  0  0  0  0  0  0  0
   -1.1009   -5.4717   -4.2674 H   0  0  0  0  0  0  0  0  0  0  0  0
    1.6932   -2.0791   -4.3428 H   0  0  0  0  0  0  0  0  0  0  0  0
    1.4165   -0.1914   -5.9028 H   0  0  0  0  0  0  0  0  0  0  0  0
   -2.8492   -0.7763   -5.8654 H   0  0  0  0  0  0  0  0  0  0  0  0
   -2.5869   -2.6579   -4.2952 H   0  0  0  0  0  0  0  0  0  0  0  0
  1  2  1  0  0  0  0
  1 27  1  0  0  0  0
  1 28  1  0  0  0  0
  1 29  1  0  0  0  0
  2  3  1  0  0  0  0
  2  6  1  0  0  0  0
  3  4  1  0  0  0  0
  3 30  1  0  0  0  0
  3 31  1  0  0  0  0
  4  5  2  0  0  0  0
  4 32  1  0  0  0  0
  5 33  1  0  0  0  0
  5 34  1  0  0  0  0
  6  7  1  0  0  0  0
  6 35  1  0  0  0  0
  6 36  1  0  0  0  0
  7  8  2  0  0  0  0
  7 37  1  0  0  0  0
  8  9  1  0  0  0  0
  8 38  1  0  0  0  0
  9 10  1  0  0  0  0
  9 39  1  0  0  0  0
  9 40  1  0  0  0  0
 10 11  1  0  0  0  0
 11 12  2  0  0  0  0
 11 16  1  0  0  0  0
 12 13  1  0  0  0  0
 12 41  1  0  0  0  0
 13 14  2  0  0  0  0
 13 19  1  0  0  0  0
 14 15  1  0  0  0  0
 14 17  1  0  0  0  0
 15 16  2  0  0  0  0
 15 42  1  0  0  0  0
 16 43  1  0  0  0  0
 17 18  2  0  0  0  0
 17 20  1  0  0  0  0
 18 19  1  0  0  0  0
 18 44  1  0  0  0  0
 20 21  2  0  0  0  0
 20 26  1  0  0  0  0
 21 22  1  0  0  0  0
 21 45  1  0  0  0  0
 22 23  2  0  0  0  0
 22 46  1  0  0  0  0
 23 24  1  0  0  0  0
 23 25  1  0  0  0  0
 25 26  2  0  0  0  0
 25 47  1  0  0  0  0
 26 48  1  0  0  0  0
M  END
>  <DRUGBANK_ID>
DB03771

>  <SECONDARY_ACCESSION_NUMBERS>
EXPT02740

>  <COMMON_NAME>
Allyl-{4-[3-(4-Bromo-Phenyl)-Benzofuran-6-Yloxy]-but-2-Enyl}-Methyl-Amine

$$$$
