
 OpenBabel10282417203D

 43 44  0  0  0  0  0  0  0  0999 V2000
    0.8093    0.0224   -0.0446 C   0  0  0  0  0  0  0  0  0  0  0  0
    4.6385   -0.3606   -2.0204 C   0  0  0  0  0  0  0  0  0  0  0  0
    4.2937    0.7096   -4.1300 C   0  0  0  0  0  0  0  0  0  0  0  0
    4.6380   -1.5533    1.3308 C   0  0  0  0  0  0  0  0  0  0  0  0
    4.2860   -3.9266    1.3239 C   0  0  0  0  0  0  0  0  0  0  0  0
    3.2611   -0.3506   -1.8383 C   0  0  0  0  0  0  0  0  0  0  0  0
    2.9034    0.7593   -3.8933 C   0  0  0  0  0  0  0  0  0  0  0  0
    3.2625   -1.3693    1.2957 C   0  0  0  0  0  0  0  0  0  0  0  0
    2.8979   -3.7241    1.1869 C   0  0  0  0  0  0  0  0  0  0  0  0
    0.4993    0.8090   -1.3105 C   0  0  0  0  0  0  0  0  0  0  0  0
    0.5760   -1.4915   -0.1463 C   0  0  0  0  0  0  0  0  0  0  0  0
    5.1666    0.1265   -3.2009 C   0  0  0  0  0  0  0  0  0  0  0  0
    5.1616   -2.8348    1.4072 C   0  0  0  0  0  0  0  0  0  0  0  0
    2.3761    0.2622   -2.7110 C   0  0  0  0  0  0  0  0  0  0  0  0
    2.3816   -2.4322    1.1217 C   0  0  0  0  0  0  0  0  0  0  0  0
    6.6153   -0.1446   -3.4635 C   0  0  0  0  0  0  0  0  0  0  0  0
    6.6169   -2.9558    1.7287 C   0  0  0  0  0  0  0  0  0  0  0  0
    7.1878    0.2317   -4.6398 N   0  0  0  0  0  0  0  0  0  0  0  0
    7.3134   -0.7741   -2.5827 N   0  0  0  0  0  0  0  0  0  0  0  0
    7.1855   -4.1685    1.9554 N   0  0  0  0  0  0  0  0  0  0  0  0
    7.3270   -1.8797    1.8433 N   0  0  0  0  0  0  0  0  0  0  0  0
    1.0164    0.2427   -2.5349 O   0  0  0  0  0  0  0  0  0  0  0  0
    1.0279   -2.2479    1.0046 O   0  0  0  0  0  0  0  0  0  0  0  0
    0.3091    0.4189    0.8458 H   0  0  0  0  0  0  0  0  0  0  0  0
    1.8421    0.2773    0.1344 H   0  0  0  0  0  0  0  0  0  0  0  0
    5.2775   -0.8219   -1.2715 H   0  0  0  0  0  0  0  0  0  0  0  0
    4.6654    1.1116   -5.0635 H   0  0  0  0  0  0  0  0  0  0  0  0
    5.2872   -0.6795    1.3246 H   0  0  0  0  0  0  0  0  0  0  0  0
    4.6560   -4.9435    1.3767 H   0  0  0  0  0  0  0  0  0  0  0  0
    2.9058   -0.9429   -1.0245 H   0  0  0  0  0  0  0  0  0  0  0  0
    2.2384    1.1438   -4.6602 H   0  0  0  0  0  0  0  0  0  0  0  0
    2.9325   -0.3497    1.4035 H   0  0  0  0  0  0  0  0  0  0  0  0
    2.2311   -4.5822    1.1716 H   0  0  0  0  0  0  0  0  0  0  0  0
   -0.5898    0.8702   -1.4122 H   0  0  0  0  0  0  0  0  0  0  0  0
    0.8602    1.8413   -1.1982 H   0  0  0  0  0  0  0  0  0  0  0  0
   -0.5103   -1.6419   -0.1976 H   0  0  0  0  0  0  0  0  0  0  0  0
    0.9643   -1.9379   -1.0709 H   0  0  0  0  0  0  0  0  0  0  0  0
    8.1121   -0.0973   -4.8745 H   0  0  0  0  0  0  0  0  0  0  0  0
    6.6212    0.5505   -5.4087 H   0  0  0  0  0  0  0  0  0  0  0  0
    8.2727   -0.9169   -2.9007 H   0  0  0  0  0  0  0  0  0  0  0  0
    8.1093   -4.2198    2.3595 H   0  0  0  0  0  0  0  0  0  0  0  0
    6.6119   -4.9910    2.0698 H   0  0  0  0  0  0  0  0  0  0  0  0
    8.2893   -2.1055    2.0893 H   0  0  0  0  0  0  0  0  0  0  0  0
  1 24  1  0  0  0  0
  1 25  1  0  0  0  0
  2 26  1  0  0  0  0
  3 27  1  0  0  0  0
  4 28  1  0  0  0  0
  5 29  1  0  0  0  0
  6  2  1  0  0  0  0
  6 30  1  0  0  0  0
  7  3  2  0  0  0  0
  7 31  1  0  0  0  0
  8  4  1  0  0  0  0
  8 32  1  0  0  0  0
  9  5  2  0  0  0  0
  9 33  1  0  0  0  0
 10  1  1  0  0  0  0
 10 34  1  0  0  0  0
 10 35  1  0  0  0  0
 11  1  1  0  0  0  0
 11 36  1  0  0  0  0
 11 37  1  0  0  0  0
 12  2  2  0  0  0  0
 12  3  1  0  0  0  0
 13  4  2  0  0  0  0
 13  5  1  0  0  0  0
 14  6  2  0  0  0  0
 14  7  1  0  0  0  0
 15  8  2  0  0  0  0
 15  9  1  0  0  0  0
 16 12  1  0  0  0  0
 17 13  1  0  0  0  0
 18 16  1  0  0  0  0
 18 38  1  0  0  0  0
 18 39  1  0  0  0  0
 19 16  2  0  0  0  0
 19 40  1  0  0  0  0
 20 17  1  0  0  0  0
 20 41  1  0  0  0  0
 20 42  1  0  0  0  0
 21 17  2  0  0  0  0
 21 43  1  0  0  0  0
 22 10  1  0  0  0  0
 22 14  1  0  0  0  0
 23 11  1  0  0  0  0
 23 15  1  0  0  0  0
M  END
>  <DRUGBANK_ID>
DB13296

>  <COMMON_NAME>
Propamidine

>  <CAS_NUMBER>
104-32-5

>  <UNII>
G20G12V769

>  <SYNONYMS>
propamidina; Propamidine

$$$$
