
 OpenBabel10282417243D

 79 82  0  0  0  0  0  0  0  0999 V2000
    0.9463   -0.0588   -0.0480 Zn  0  2  0  0  0  0  0  0  0  0  0  0
   -1.2717  -19.8203    3.2980 C   0  0  0  0  0  0  0  0  0  0  0  0
   -2.0894  -18.1194    3.6564 C   0  0  0  0  0  0  0  0  0  0  0  0
   -2.2950  -16.2443    2.3859 C   0  0  0  0  0  0  0  0  0  0  0  0
   -0.8744  -16.6534    3.5780 C   0  0  0  0  0  0  0  0  0  0  0  0
    0.5477  -17.1387    4.8196 C   0  0  0  0  0  0  0  0  0  0  0  0
   -0.5567  -15.5247    3.0079 C   0  0  0  0  0  0  0  0  0  0  0  0
    0.4815  -14.3681    3.1432 C   0  0  0  0  0  0  0  0  0  0  0  0
    0.2666  -13.2209    2.4514 C   0  0  0  0  0  0  0  0  0  0  0  0
    0.9648  -12.0968    2.2903 N   0  5  0  0  0  0  0  0  0  0  0  0
    0.3418  -11.2346    1.4288 C   0  0  0  0  0  0  0  0  0  0  0  0
    0.6734  -10.0263    0.9695 C   0  0  0  0  0  0  0  0  0  0  0  0
   -0.1481   -9.2178    0.0059 C   0  0  0  0  0  0  0  0  0  0  0  0
   -1.3392   -8.7668    0.2350 N   0  0  0  0  0  0  0  0  0  0  0  0
   -1.6301   -8.0097   -0.8043 C   0  0  0  0  0  0  0  0  0  0  0  0
   -2.7288   -7.2254   -0.7495 C   0  0  0  0  0  0  0  0  0  0  0  0
   -3.2921   -7.2502   -2.0604 C   0  0  0  0  0  0  0  0  0  0  0  0
   -4.4050   -8.7935   -2.5313 N   0  5  0  0  0  0  0  0  0  0  0  0
   -3.7201  -10.3145   -1.5681 C   0  0  0  0  0  0  0  0  0  0  0  0
   -3.4182  -12.7149   -0.3313 C   0  0  0  0  0  0  0  0  0  0  0  0
   -3.0239  -14.5512    0.8326 C   0  0  0  0  0  0  0  0  0  0  0  0
   -1.9692  -15.5955    2.2391 N   0  0  0  0  0  0  0  0  0  0  0  0
   -3.9113   -8.0517   -2.4400 C   0  0  0  0  0  0  0  0  0  0  0  0
   -3.7778   -5.8476   -3.6139 C   0  0  0  0  0  0  0  0  0  0  0  0
   -3.6081   -6.0708   -2.4775 C   0  0  0  0  0  0  0  0  0  0  0  0
   -3.5067   -4.6236   -1.4437 C   0  0  0  0  0  0  0  0  0  0  0  0
   -2.3969   -3.5622   -1.5627 C   0  0  0  0  0  0  0  0  0  0  0  0
   -2.4356   -2.7487   -2.8065 C   0  0  0  0  0  0  0  0  0  0  0  0
   -2.6666   -1.4284   -2.8370 O   0  0  0  0  0  0  0  0  0  0  0  0
   -2.1468   -3.3276   -3.8326 O   0  0  0  0  0  0  0  0  0  0  0  0
   -0.6810   -8.1390   -1.8594 C   0  0  0  0  0  0  0  0  0  0  0  0
   -0.7745   -7.5389   -3.2227 C   0  0  0  0  0  0  0  0  0  0  0  0
   -1.7696   -8.2209   -4.0526 C   0  0  0  0  0  0  0  0  0  0  0  0
   -2.6673   -9.0274   -3.1981 C   0  0  0  0  0  0  0  0  0  0  0  0
   -3.8561   -7.9483   -4.3316 O   0  0  0  0  0  0  0  0  0  0  0  0
   -2.9039   -8.9859   -1.5502 O   0  0  0  0  0  0  0  0  0  0  0  0
    0.3263   -8.8174   -1.3344 C   0  0  0  0  0  0  0  0  0  0  0  0
    1.6090   -9.0462   -1.9729 C   0  0  0  0  0  0  0  0  0  0  0  0
   -0.8111  -11.8143    1.0041 C   0  0  0  0  0  0  0  0  0  0  0  0
   -1.6718  -11.1901    0.1153 C   0  0  0  0  0  0  0  0  0  0  0  0
   -0.7544  -12.8977    1.6468 C   0  0  0  0  0  0  0  0  0  0  0  0
   -1.7872  -13.5366    1.4114 C   0  0  0  0  0  0  0  0  0  0  0  0
   -3.3794  -13.1776    2.0445 C   0  0  0  0  0  0  0  0  0  0  0  0
   -1.5889  -19.8302    2.2938 H   0  0  0  0  0  0  0  0  0  0  0  0
   -1.5455  -20.8446    3.7358 H   0  0  0  0  0  0  0  0  0  0  0  0
   -0.1879  -19.7711    3.3861 H   0  0  0  0  0  0  0  0  0  0  0  0
   -3.0189  -18.8674    4.0893 H   0  0  0  0  0  0  0  0  0  0  0  0
   -1.6314  -18.7554    5.0752 H   0  0  0  0  0  0  0  0  0  0  0  0
    1.5648  -17.1723    4.3329 H   0  0  0  0  0  0  0  0  0  0  0  0
    0.7058  -16.4270    5.6739 H   0  0  0  0  0  0  0  0  0  0  0  0
    0.4362  -18.1269    5.2884 H   0  0  0  0  0  0  0  0  0  0  0  0
   -0.4722  -14.8156    3.2225 H   0  0  0  0  0  0  0  0  0  0  0  0
    1.5991   -9.6370    1.3494 H   0  0  0  0  0  0  0  0  0  0  0  0
   -3.7107   -7.5779   -0.2960 H   0  0  0  0  0  0  0  0  0  0  0  0
   -3.6514  -14.1867    0.2108 H   0  0  0  0  0  0  0  0  0  0  0  0
   -3.1904   -4.5495   -4.6480 H   0  0  0  0  0  0  0  0  0  0  0  0
   -4.4118   -4.5098   -4.5178 H   0  0  0  0  0  0  0  0  0  0  0  0
   -3.8858   -4.1114   -3.4898 H   0  0  0  0  0  0  0  0  0  0  0  0
   -4.4693   -4.0864   -1.4732 H   0  0  0  0  0  0  0  0  0  0  0  0
   -3.4219   -5.1064   -0.4932 H   0  0  0  0  0  0  0  0  0  0  0  0
   -2.4412   -2.8683   -0.7323 H   0  0  0  0  0  0  0  0  0  0  0  0
   -1.4336   -4.0753   -1.5391 H   0  0  0  0  0  0  0  0  0  0  0  0
   -2.7465   -0.9311   -2.0136 H   0  0  0  0  0  0  0  0  0  0  0  0
   -0.9837   -6.4681   -3.1494 H   0  0  0  0  0  0  0  0  0  0  0  0
    0.1530   -7.6720   -3.7442 H   0  0  0  0  0  0  0  0  0  0  0  0
   -1.9718   -7.7369   -5.0318 H   0  0  0  0  0  0  0  0  0  0  0  0
   -1.6365   -9.2611   -4.2461 H   0  0  0  0  0  0  0  0  0  0  0  0
   -4.0903   -7.0315   -4.8922 H   0  0  0  0  0  0  0  0  0  0  0  0
    1.4882   -9.6059   -2.8998 H   0  0  0  0  0  0  0  0  0  0  0  0
    2.0840   -8.0915   -2.2135 H   0  0  0  0  0  0  0  0  0  0  0  0
    2.2593   -9.5981   -1.3110 H   0  0  0  0  0  0  0  0  0  0  0  0
   -2.2777  -10.4186    0.5109 H   0  0  0  0  0  0  0  0  0  0  0  0
   -1.3760  -11.1374   -0.8963 H   0  0  0  0  0  0  0  0  0  0  0  0
   -2.4422  -11.6780    0.0187 H   0  0  0  0  0  0  0  0  0  0  0  0
   -1.7070  -14.1169    0.2303 H   0  0  0  0  0  0  0  0  0  0  0  0
   -1.5647  -14.3063    1.9075 H   0  0  0  0  0  0  0  0  0  0  0  0
   -3.5995  -12.3982    1.4230 H   0  0  0  0  0  0  0  0  0  0  0  0
   -4.2597  -13.9732    1.8553 H   0  0  0  0  0  0  0  0  0  0  0  0
   -3.2799  -13.0771    3.0183 H   0  0  0  0  0  0  0  0  0  0  0  0
  2  3  1  0  0  0  0
  2 44  1  0  0  0  0
  2 45  1  0  0  0  0
  2 46  1  0  0  0  0
  3  4  1  0  0  0  0
  3 47  1  0  0  0  0
  3 48  1  0  0  0  0
  4  5  2  0  0  0  0
  4 21  1  0  0  0  0
  5  6  1  0  0  0  0
  5  7  1  0  0  0  0
  6 49  1  0  0  0  0
  6 50  1  0  0  0  0
  6 51  1  0  0  0  0
  7  8  1  0  0  0  0
  7 22  2  0  0  0  0
  8  9  2  0  0  0  0
  8 52  1  0  0  0  0
  9 10  1  0  0  0  0
  9 41  1  0  0  0  0
 10 11  1  0  0  0  0
 11 12  2  0  0  0  0
 11 39  1  0  0  0  0
 12 13  1  0  0  0  0
 12 53  1  0  0  0  0
 13 14  2  0  0  0  0
 13 37  1  0  0  0  0
 14 15  1  0  0  0  0
 15 16  2  0  0  0  0
 15 31  1  0  0  0  0
 16 17  1  0  0  0  0
 16 54  1  0  0  0  0
 17 18  1  0  0  0  0
 17 25  2  0  0  0  0
 18 19  1  0  0  0  0
 19 20  1  0  0  0  0
 19 23  2  0  0  0  0
 20 21  2  0  0  0  0
 20 55  1  0  0  0  0
 21 22  1  0  0  0  0
 23 24  1  0  0  0  0
 23 25  1  0  0  0  0
 24 56  1  0  0  0  0
 24 57  1  0  0  0  0
 24 58  1  0  0  0  0
 25 26  1  0  0  0  0
 26 27  1  0  0  0  0
 26 59  1  0  0  0  0
 26 60  1  0  0  0  0
 27 28  1  0  0  0  0
 27 61  1  0  0  0  0
 27 62  1  0  0  0  0
 28 29  1  0  0  0  0
 28 30  2  0  0  0  0
 29 63  1  0  0  0  0
 31 32  1  0  0  0  0
 31 37  2  0  0  0  0
 32 33  1  0  0  0  0
 32 64  1  0  0  0  0
 32 65  1  0  0  0  0
 33 34  1  0  0  0  0
 33 66  1  0  0  0  0
 33 67  1  0  0  0  0
 34 35  1  0  0  0  0
 34 36  2  0  0  0  0
 35 68  1  0  0  0  0
 37 38  1  0  0  0  0
 38 69  1  0  0  0  0
 38 70  1  0  0  0  0
 38 71  1  0  0  0  0
 39 40  1  0  0  0  0
 39 41  2  0  0  0  0
 40 72  1  0  0  0  0
 40 73  1  0  0  0  0
 40 74  1  0  0  0  0
 41 42  1  0  0  0  0
 42 43  1  0  0  0  0
 42 75  1  0  0  0  0
 42 76  1  0  0  0  0
 43 77  1  0  0  0  0
 43 78  1  0  0  0  0
 43 79  1  0  0  0  0
M  CHG  3   1   2  10  -1  18  -1
M  END
>  <DRUGBANK_ID>
DB17694

>  <COMMON_NAME>
Zinc mesoporphyrin

>  <CAS_NUMBER>
14354-67-7

>  <UNII>
99LY10G7K9

>  <SYNONYMS>
21h,23h-porphine-2,18-dipropanoic acid, 7,12-diethyl-3,8,13,17-tetramethyl-, zinc complex; Zinc (II) mesoporphyrin IX; Zinc mesoporphyrin; Zinc mesoporphyrin ix; Zincate(2-), (7,12-diethyl-3,8,13,17-tetramethyl-21h,23h-porphine-2,18-dipropanoato(4-)-.kappa.n21,.kappa.n22,.kappa.n23,.kappa.n24)-, hydrogen (1:2), (sp-4-2)-; Zn(II) mesoporphyrin IX

$$$$
