
 OpenBabel10282417193D

 44 45  0  0  0  0  0  0  0  0999 V2000
    0.5705    2.1580    4.7858 C   0  0  0  0  0  0  0  0  0  0  0  0
   -2.8488    5.2975   -0.9914 C   0  0  0  0  0  0  0  0  0  0  0  0
    3.0716   -3.2307    0.3053 C   0  0  0  0  0  0  0  0  0  0  0  0
    2.0133   -2.4219   -0.0929 C   0  0  0  0  0  0  0  0  0  0  0  0
   -0.8511    3.1193    1.3724 C   0  0  0  0  0  0  0  0  0  0  0  0
    3.6379   -0.5060    4.3430 C   0  0  0  0  0  0  0  0  0  0  0  0
   -0.4673    3.0207    2.7617 C   0  0  0  0  0  0  0  0  0  0  0  0
   -1.6155    4.0753    0.8247 C   0  0  0  0  0  0  0  0  0  0  0  0
    3.6747   -3.0214    1.5389 C   0  0  0  0  0  0  0  0  0  0  0  0
    3.9388   -1.8407    3.7090 C   0  0  0  0  0  0  0  0  0  0  0  0
    2.1353   -0.3505    4.3533 C   0  0  0  0  0  0  0  0  0  0  0  0
    1.5480   -1.4048    0.7466 C   0  0  0  0  0  0  0  0  0  0  0  0
    0.8830    0.9328    2.5504 C   0  0  0  0  0  0  0  0  0  0  0  0
   -1.5789    3.2217   -1.5134 C   0  0  0  0  0  0  0  0  0  0  0  0
    0.3033    2.0553    3.3109 C   0  0  0  0  0  0  0  0  0  0  0  0
   -1.9796    4.1331   -0.5977 C   0  0  0  0  0  0  0  0  0  0  0  0
    3.2350   -1.9891    2.3791 C   0  0  0  0  0  0  0  0  0  0  0  0
    1.6429   -0.1115    2.9503 C   0  0  0  0  0  0  0  0  0  0  0  0
    2.1444   -1.1637    1.9965 C   0  0  0  0  0  0  0  0  0  0  0  0
   -1.8843    3.1843   -2.9557 C   0  0  0  0  0  0  0  0  0  0  0  0
   -1.4754    2.3125   -3.7110 O   0  0  0  0  0  0  0  0  0  0  0  0
   -2.6541    4.1836   -3.3988 O   0  0  0  0  0  0  0  0  0  0  0  0
   -0.4760    2.3384    0.7318 H   0  0  0  0  0  0  0  0  0  0  0  0
   -0.8447    3.8086    3.4144 H   0  0  0  0  0  0  0  0  0  0  0  0
   -2.0001    4.8695    1.4645 H   0  0  0  0  0  0  0  0  0  0  0  0
    0.6645    0.9681    1.4889 H   0  0  0  0  0  0  0  0  0  0  0  0
   -0.9519    2.3792   -1.2405 H   0  0  0  0  0  0  0  0  0  0  0  0
    0.0754    2.9958    5.2793 H   0  0  0  0  0  0  0  0  0  0  0  0
    1.6433    2.3170    4.9509 H   0  0  0  0  0  0  0  0  0  0  0  0
    0.2040    1.2573    5.2937 H   0  0  0  0  0  0  0  0  0  0  0  0
   -2.3315    5.9095   -1.7396 H   0  0  0  0  0  0  0  0  0  0  0  0
   -3.7954    4.9302   -1.4046 H   0  0  0  0  0  0  0  0  0  0  0  0
   -3.1026    5.9607   -0.1619 H   0  0  0  0  0  0  0  0  0  0  0  0
    3.4266   -4.0276   -0.3409 H   0  0  0  0  0  0  0  0  0  0  0  0
    1.5367   -2.5872   -1.0557 H   0  0  0  0  0  0  0  0  0  0  0  0
    4.1067    0.3159    3.7823 H   0  0  0  0  0  0  0  0  0  0  0  0
    4.0233   -0.4587    5.3661 H   0  0  0  0  0  0  0  0  0  0  0  0
    4.4935   -3.6637    1.8547 H   0  0  0  0  0  0  0  0  0  0  0  0
    5.0220   -1.9384    3.5902 H   0  0  0  0  0  0  0  0  0  0  0  0
    3.5925   -2.6382    4.3790 H   0  0  0  0  0  0  0  0  0  0  0  0
    1.6160   -1.2214    4.7711 H   0  0  0  0  0  0  0  0  0  0  0  0
    1.9713    0.4402    5.0598 H   0  0  0  0  0  0  0  0  0  0  0  0
    0.6975   -0.8252    0.3999 H   0  0  0  0  0  0  0  0  0  0  0  0
   -2.7768    4.0394   -4.3568 H   0  0  0  0  0  0  0  0  0  0  0  0
  1 28  1  0  0  0  0
  1 29  1  0  0  0  0
  1 30  1  0  0  0  0
  2 31  1  0  0  0  0
  2 32  1  0  0  0  0
  2 33  1  0  0  0  0
  3 34  1  0  0  0  0
  4  3  2  0  0  0  0
  4 35  1  0  0  0  0
  6 36  1  0  0  0  0
  6 37  1  0  0  0  0
  7  5  1  0  0  0  0
  8  5  2  0  0  0  0
  9  3  1  0  0  0  0
  9 38  1  0  0  0  0
 10  6  1  0  0  0  0
 10 39  1  0  0  0  0
 10 40  1  0  0  0  0
 11  6  1  0  0  0  0
 11 41  1  0  0  0  0
 11 42  1  0  0  0  0
 12  4  1  0  0  0  0
 12 43  1  0  0  0  0
 15  1  1  0  0  0  0
 15  7  2  0  0  0  0
 15 13  1  0  0  0  0
 16  2  1  0  0  0  0
 16  8  1  0  0  0  0
 16 14  2  0  0  0  0
 17  9  2  0  0  0  0
 17 10  1  0  0  0  0
 18 11  1  0  0  0  0
 18 13  2  0  0  0  0
 19 12  2  0  0  0  0
 19 17  1  0  0  0  0
 19 18  1  0  0  0  0
 20 14  1  0  0  0  0
 21 20  2  0  0  0  0
 22 20  1  0  0  0  0
 22 44  1  0  0  0  0
 23  5  1  0  0  0  0
 24  7  1  0  0  0  0
 25  8  1  0  0  0  0
 26 13  1  0  0  0  0
 27 14  1  0  0  0  0
M  END
>  <DRUGBANK_ID>
DB12316

>  <COMMON_NAME>
9CUAB30

>  <CAS_NUMBER>
205252-57-9

>  <UNII>
PFP09575EX

>  <SYNONYMS>
RETINOID 9CUAB30

$$$$
