
 OpenBabel10282417183D

115116  0  0  0  0  0  0  0  0999 V2000
    1.0505   -1.1021    0.1219 C   0  0  0  0  0  0  0  0  0  0  0  0
    7.1235    7.4413    3.2409 C   0  0  0  0  0  0  0  0  0  0  0  0
    6.4245    5.2979    4.4157 C   0  0  0  0  0  0  0  0  0  0  0  0
   -1.3869   -0.4515    0.1709 C   0  0  0  0  0  0  0  0  0  0  0  0
    5.4369    5.8992    2.1660 C   0  0  0  0  0  0  0  0  0  0  0  0
    0.4477    1.4338    0.0599 C   0  0  0  0  0  0  0  0  0  0  0  0
    7.2007    6.5164    4.3487 C   0  0  0  0  0  0  0  0  0  0  0  0
   -0.3461   -1.4345    0.1113 C   0  0  0  0  0  0  0  0  0  0  0  0
    1.4175    0.3158    0.0634 C   0  0  0  0  0  0  0  0  0  0  0  0
    6.1963    7.1179    2.1968 C   0  0  0  0  0  0  0  0  0  0  0  0
    5.5630    5.0118    3.2918 C   0  0  0  0  0  0  0  0  0  0  0  0
   -0.9678    0.9515    0.1192 C   0  0  0  0  0  0  0  0  0  0  0  0
    2.1533   -2.1794    0.2204 C   0  0  0  0  0  0  0  0  0  0  0  0
    8.0238    8.6807    3.2193 C   0  0  0  0  0  0  0  0  0  0  0  0
    6.4745    4.3069    5.5888 C   0  0  0  0  0  0  0  0  0  0  0  0
   -2.8808   -0.8429    0.3236 C   0  0  0  0  0  0  0  0  0  0  0  0
    3.2212    5.3439    1.1689 C   0  0  0  0  0  0  0  0  0  0  0  0
    2.0590    3.5034    0.0328 C   0  0  0  0  0  0  0  0  0  0  0  0
    4.5965    5.5878    1.0100 N   0  0  0  0  0  0  0  0  0  0  0  0
    0.8010    2.9299    0.0156 N   0  0  0  0  0  0  0  0  0  0  0  0
    2.3846    4.9648   -0.0532 C   0  0  0  0  0  0  0  0  0  0  0  0
    7.9781    9.5522    2.1686 N   0  0  0  0  0  0  0  0  0  0  0  0
    1.8406   -3.4982    0.2143 N   0  0  0  0  0  0  0  0  0  0  0  0
    7.3031    4.5427    6.6486 N   0  0  0  0  0  0  0  0  0  0  0  0
   -3.2307   -2.1559    0.4558 N   0  0  0  0  0  0  0  0  0  0  0  0
    8.7704   10.7900    2.1364 C   0  0  3  0  0  0  0  0  0  0  0  0
    2.8623   -4.5381    0.1914 C   0  0  3  0  0  0  0  0  0  0  0  0
    7.4055    3.6705    7.8198 C   0  0  3  0  0  0  0  0  0  0  0  0
   -4.6130   -2.6371    0.5298 C   0  0  3  0  0  0  0  0  0  0  0  0
    8.8336    8.9554    4.0910 O   0  0  0  0  0  0  0  0  0  0  0  0
    3.3505   -1.9925    0.3530 O   0  0  0  0  0  0  0  0  0  0  0  0
    5.7963    3.2937    5.6616 O   0  0  0  0  0  0  0  0  0  0  0  0
   -3.8196   -0.0680    0.3936 O   0  0  0  0  0  0  0  0  0  0  0  0
    2.6381    5.4370    2.2543 O   0  0  0  0  0  0  0  0  0  0  0  0
    3.1297    2.9036    0.1077 O   0  0  0  0  0  0  0  0  0  0  0  0
    9.7079   10.7668    0.9170 C   0  0  3  0  0  0  0  0  0  0  0  0
    2.7515   -5.3545    1.4821 C   0  0  3  0  0  0  0  0  0  0  0  0
    8.8424    3.1241    7.9463 C   0  0  3  0  0  0  0  0  0  0  0  0
   -4.9757   -3.4938   -0.7068 C   0  0  3  0  0  0  0  0  0  0  0  0
    4.5024    3.0306    3.1591 I   0  0  0  0  0  0  0  0  0  0  0  0
    8.5769    7.1030    6.1101 I   0  0  0  0  0  0  0  0  0  0  0  0
   -2.8520    2.4238   -0.1422 I   0  0  0  0  0  0  0  0  0  0  0  0
   -0.9350   -3.6193   -0.4481 I   0  0  0  0  0  0  0  0  0  0  0  0
    5.5176    8.7108    0.7077 I   0  0  0  0  0  0  0  0  0  0  0  0
    3.7538    0.5061   -0.4433 I   0  0  0  0  0  0  0  0  0  0  0  0
    8.9312   10.7367   -0.2890 O   0  0  0  0  0  0  0  0  0  0  0  0
    1.4725   -6.0045    1.5271 O   0  0  0  0  0  0  0  0  0  0  0  0
    9.7643    4.1983    8.1808 O   0  0  0  0  0  0  0  0  0  0  0  0
   -4.1674   -4.6771   -0.7522 O   0  0  0  0  0  0  0  0  0  0  0  0
    5.1973    5.6598   -0.3286 C   0  0  0  0  0  0  0  0  0  0  0  0
   -0.2645    3.8970    0.0435 C   0  0  0  0  0  0  0  0  0  0  0  0
    2.7031   -5.3875   -1.0771 C   0  0  0  0  0  0  0  0  0  0  0  0
    7.8434   12.0189    2.1181 C   0  0  0  0  0  0  0  0  0  0  0  0
    6.9831    4.4387    9.0852 C   0  0  0  0  0  0  0  0  0  0  0  0
   -4.7736   -3.4321    1.8320 C   0  0  0  0  0  0  0  0  0  0  0  0
    2.7976   -4.5957   -2.2584 O   0  0  0  0  0  0  0  0  0  0  0  0
    6.9834   12.0449    3.2510 O   0  0  0  0  0  0  0  0  0  0  0  0
   -4.4020   -2.6493    2.9611 O   0  0  0  0  0  0  0  0  0  0  0  0
    5.6632    4.9567    8.9675 O   0  0  0  0  0  0  0  0  0  0  0  0
   11.4458   12.0559    2.0614 O   0  0  0  0  0  0  0  0  0  0  0  0
    5.1569   -5.7914    1.5417 O   0  0  0  0  0  0  0  0  0  0  0  0
    8.0767    1.0089    8.9170 O   0  0  0  0  0  0  0  0  0  0  0  0
   -7.3165   -2.7909   -0.6445 O   0  0  0  0  0  0  0  0  0  0  0  0
    3.8683   -6.3918    1.5519 C   0  0  0  0  0  0  0  0  0  0  0  0
   10.6260   11.9924    0.9018 C   0  0  0  0  0  0  0  0  0  0  0  0
   -6.4478   -3.9146   -0.6579 C   0  0  0  0  0  0  0  0  0  0  0  0
    8.9440    2.1201    9.0992 C   0  0  0  0  0  0  0  0  0  0  0  0
    2.9276    5.0610   -0.9973 H   0  0  0  0  0  0  0  0  0  0  0  0
    1.5802    5.6798   -0.1170 H   0  0  0  0  0  0  0  0  0  0  0  0
    7.3270    9.4029    1.4190 H   0  0  0  0  0  0  0  0  0  0  0  0
    0.8885   -3.7993    0.2062 H   0  0  0  0  0  0  0  0  0  0  0  0
    7.8549    5.3794    6.6740 H   0  0  0  0  0  0  0  0  0  0  0  0
   -2.5257   -2.8662    0.4663 H   0  0  0  0  0  0  0  0  0  0  0  0
    9.3669   10.8329    3.0532 H   0  0  0  0  0  0  0  0  0  0  0  0
    3.8448   -4.0610    0.1444 H   0  0  0  0  0  0  0  0  0  0  0  0
    6.7096    2.8419    7.6679 H   0  0  0  0  0  0  0  0  0  0  0  0
   -5.2632   -1.7594    0.5615 H   0  0  0  0  0  0  0  0  0  0  0  0
   10.3204    9.8558    0.9419 H   0  0  0  0  0  0  0  0  0  0  0  0
    2.8150   -4.6840    2.3507 H   0  0  0  0  0  0  0  0  0  0  0  0
    9.1363    2.6331    7.0094 H   0  0  0  0  0  0  0  0  0  0  0  0
   -4.7886   -2.9265   -1.6286 H   0  0  0  0  0  0  0  0  0  0  0  0
    8.4374    9.8996   -0.2934 H   0  0  0  0  0  0  0  0  0  0  0  0
    0.8009   -5.3063    1.6023 H   0  0  0  0  0  0  0  0  0  0  0  0
    9.7579    4.7703    7.3937 H   0  0  0  0  0  0  0  0  0  0  0  0
   -3.2519   -4.3983   -0.9234 H   0  0  0  0  0  0  0  0  0  0  0  0
    5.1658    4.6845   -0.8181 H   0  0  0  0  0  0  0  0  0  0  0  0
    4.6134    6.3611   -0.9396 H   0  0  0  0  0  0  0  0  0  0  0  0
    6.2416    5.9843   -0.3034 H   0  0  0  0  0  0  0  0  0  0  0  0
   -0.7963    3.8160   -0.9045 H   0  0  0  0  0  0  0  0  0  0  0  0
   -0.8169    3.7879    0.9796 H   0  0  0  0  0  0  0  0  0  0  0  0
    0.0054    4.9425    0.0548 H   0  0  0  0  0  0  0  0  0  0  0  0
    3.4954   -6.1345   -1.1386 H   0  0  0  0  0  0  0  0  0  0  0  0
    1.7363   -5.8971   -1.0895 H   0  0  0  0  0  0  0  0  0  0  0  0
    8.4234   12.9439    2.1490 H   0  0  0  0  0  0  0  0  0  0  0  0
    7.2231   12.0325    1.2173 H   0  0  0  0  0  0  0  0  0  0  0  0
    6.9835    3.7803    9.9562 H   0  0  0  0  0  0  0  0  0  0  0  0
    7.6587    5.2760    9.2868 H   0  0  0  0  0  0  0  0  0  0  0  0
   -5.8108   -3.7341    1.9790 H   0  0  0  0  0  0  0  0  0  0  0  0
   -4.1440   -4.3276    1.8243 H   0  0  0  0  0  0  0  0  0  0  0  0
    2.1706   -3.8598   -2.1638 H   0  0  0  0  0  0  0  0  0  0  0  0
    6.5149   11.1943    3.2718 H   0  0  0  0  0  0  0  0  0  0  0  0
   -3.5185   -2.2877    2.7772 H   0  0  0  0  0  0  0  0  0  0  0  0
    5.6371    5.4712    8.1432 H   0  0  0  0  0  0  0  0  0  0  0  0
   10.8869   12.1493    2.8532 H   0  0  0  0  0  0  0  0  0  0  0  0
    5.2835   -5.2874    0.7181 H   0  0  0  0  0  0  0  0  0  0  0  0
    7.1535    1.3168    8.8872 H   0  0  0  0  0  0  0  0  0  0  0  0
   -7.1535   -2.2622    0.1566 H   0  0  0  0  0  0  0  0  0  0  0  0
    3.7692   -6.9793    2.4673 H   0  0  0  0  0  0  0  0  0  0  0  0
    3.7953   -7.1062    0.7266 H   0  0  0  0  0  0  0  0  0  0  0  0
   11.2760   11.9594    0.0233 H   0  0  0  0  0  0  0  0  0  0  0  0
   10.0551   12.9219    0.8091 H   0  0  0  0  0  0  0  0  0  0  0  0
   -6.6934   -4.5316   -1.5269 H   0  0  0  0  0  0  0  0  0  0  0  0
   -6.6526   -4.5450    0.2138 H   0  0  0  0  0  0  0  0  0  0  0  0
    9.9684    1.7466    9.1814 H   0  0  0  0  0  0  0  0  0  0  0  0
    8.7281    2.5933   10.0628 H   0  0  0  0  0  0  0  0  0  0  0  0
  2 10  2  0  0  0  0
  2  7  1  0  0  0  0
  3 11  1  0  0  0  0
  4  8  1  0  0  0  0
  5 19  1  0  0  0  0
  6  9  2  0  0  0  0
  7  3  2  0  0  0  0
  8  1  2  0  0  0  0
  9  1  1  0  0  0  0
 10  5  1  0  0  0  0
 11  5  2  0  0  0  0
 12  6  1  0  0  0  0
 12  4  2  0  0  0  0
 13  1  1  0  0  0  0
 14  2  1  0  0  0  0
 15  3  1  0  0  0  0
 16  4  1  0  0  0  0
 17 21  1  0  0  0  0
 18 20  1  0  0  0  0
 19 17  1  0  0  0  0
 20  6  1  0  0  0  0
 21 18  1  0  0  0  0
 21 68  1  0  0  0  0
 21 69  1  0  0  0  0
 22 14  1  0  0  0  0
 22 70  1  0  0  0  0
 23 13  1  0  0  0  0
 23 71  1  0  0  0  0
 24 15  1  0  0  0  0
 24 72  1  0  0  0  0
 25 16  1  0  0  0  0
 25 73  1  0  0  0  0
 26 22  1  0  0  0  0
 26 74  1  0  0  0  0
 27 23  1  0  0  0  0
 27 75  1  0  0  0  0
 28 24  1  0  0  0  0
 28 76  1  0  0  0  0
 29 25  1  0  0  0  0
 29 77  1  0  0  0  0
 30 14  2  0  0  0  0
 31 13  2  0  0  0  0
 32 15  2  0  0  0  0
 33 16  2  0  0  0  0
 34 17  2  0  0  0  0
 35 18  2  0  0  0  0
 36 26  1  0  0  0  0
 36 78  1  0  0  0  0
 37 27  1  0  0  0  0
 37 79  1  0  0  0  0
 38 28  1  0  0  0  0
 38 80  1  0  0  0  0
 39 29  1  0  0  0  0
 39 81  1  0  0  0  0
 40 11  1  0  0  0  0
 41  7  1  0  0  0  0
 42 12  1  0  0  0  0
 43  8  1  0  0  0  0
 44 10  1  0  0  0  0
 45  9  1  0  0  0  0
 46 36  1  0  0  0  0
 46 82  1  0  0  0  0
 47 37  1  0  0  0  0
 47 83  1  0  0  0  0
 48 38  1  0  0  0  0
 48 84  1  0  0  0  0
 49 39  1  0  0  0  0
 49 85  1  0  0  0  0
 50 19  1  0  0  0  0
 50 86  1  0  0  0  0
 50 87  1  0  0  0  0
 50 88  1  0  0  0  0
 51 20  1  0  0  0  0
 51 89  1  0  0  0  0
 51 90  1  0  0  0  0
 51 91  1  0  0  0  0
 52 27  1  0  0  0  0
 52 92  1  0  0  0  0
 52 93  1  0  0  0  0
 53 26  1  0  0  0  0
 53 94  1  0  0  0  0
 53 95  1  0  0  0  0
 54 28  1  0  0  0  0
 54 96  1  0  0  0  0
 54 97  1  0  0  0  0
 55 29  1  0  0  0  0
 55 98  1  0  0  0  0
 55 99  1  0  0  0  0
 56 52  1  0  0  0  0
 56100  1  0  0  0  0
 57 53  1  0  0  0  0
 57101  1  0  0  0  0
 58 55  1  0  0  0  0
 58102  1  0  0  0  0
 59 54  1  0  0  0  0
 59103  1  0  0  0  0
 60 65  1  0  0  0  0
 60104  1  0  0  0  0
 61 64  1  0  0  0  0
 61105  1  0  0  0  0
 62 67  1  0  0  0  0
 62106  1  0  0  0  0
 63 66  1  0  0  0  0
 63107  1  0  0  0  0
 64 37  1  0  0  0  0
 64108  1  0  0  0  0
 64109  1  0  0  0  0
 65 36  1  0  0  0  0
 65110  1  0  0  0  0
 65111  1  0  0  0  0
 66 39  1  0  0  0  0
 66112  1  0  0  0  0
 66113  1  0  0  0  0
 67 38  1  0  0  0  0
 67114  1  0  0  0  0
 67115  1  0  0  0  0
M  END
>  <DRUGBANK_ID>
DB09487

>  <COMMON_NAME>
Iotrolan

>  <CAS_NUMBER>
79770-24-4

>  <UNII>
16FL47B687

>  <SYNONYMS>
Iotrolan; Iotrolanum; Iotrolum

$$$$
