
 OpenBabel10282417193D

 63 65  0  0  1  0  0  0  0  0999 V2000
    1.5336   -0.1815   -0.7993 C   0  0  0  0  0  0  0  0  0  0  0  0
    0.6448   -1.1905   -1.1857 C   0  0  0  0  0  0  0  0  0  0  0  0
   -0.7388   -0.9003   -1.3281 C   0  0  0  0  0  0  0  0  0  0  0  0
   -1.2476    0.4349   -1.2039 C   0  0  0  0  0  0  0  0  0  0  0  0
   -0.2528    1.4380   -1.1386 C   0  0  0  0  0  0  0  0  0  0  0  0
    1.0799    1.1286   -0.7745 C   0  0  0  0  0  0  0  0  0  0  0  0
   -2.8232    0.6980   -0.8197 C   0  0  0  0  0  0  0  0  0  0  0  0
   -3.4721    1.4733    0.4869 C   0  0  0  0  0  0  0  0  0  0  0  0
   -2.8801    2.6263    1.0941 O   0  0  0  0  0  0  0  0  0  0  0  0
   -1.5211    2.4502    1.3881 C   0  0  0  0  0  0  0  0  0  0  0  0
   -1.1038    1.5408    2.4903 C   0  0  0  0  0  0  0  0  0  0  0  0
   -1.6554    0.0739    2.4406 C   0  0  0  0  0  0  0  0  0  0  0  0
   -1.1898   -0.9456    1.5050 C   0  0  0  0  0  0  0  0  0  0  0  0
    0.2988   -1.1382    1.6950 C   0  0  0  0  0  0  0  0  0  0  0  0
    0.6784   -1.9493    2.8823 C   0  0  0  0  0  0  0  0  0  0  0  0
   -0.0301   -3.2159    2.7386 N   0  0  0  0  0  0  0  0  0  0  0  0
    0.0481   -3.9680    3.9652 C   0  0  0  0  0  0  0  0  0  0  0  0
   -0.5491   -3.2121    5.1804 C   0  0  1  0  0  0  0  0  0  0  0  0
   -2.0187   -2.8141    5.0693 C   0  0  0  0  0  0  0  0  0  0  0  0
   -2.9884   -3.7922    4.8317 C   0  0  0  0  0  0  0  0  0  0  0  0
   -4.3382   -3.4303    4.7635 C   0  0  0  0  0  0  0  0  0  0  0  0
   -4.7577   -2.0882    4.9592 C   0  0  0  0  0  0  0  0  0  0  0  0
   -3.8384   -1.0947    5.3090 C   0  0  0  0  0  0  0  0  0  0  0  0
   -2.4681   -1.4784    5.2738 C   0  0  0  0  0  0  0  0  0  0  0  0
   -1.5819   -0.3220    5.3842 C   0  0  0  0  0  0  0  0  0  0  0  0
   -2.0890    0.7990    4.8487 C   0  0  0  0  0  0  0  0  0  0  0  0
   -3.0234    1.2194    5.8189 C   0  0  0  0  0  0  0  0  0  0  0  0
   -2.6546    2.2192    6.4496 O   0  0  0  0  0  0  0  0  0  0  0  0
   -4.1176    0.3216    5.7305 N   0  0  0  0  0  0  0  0  0  0  0  0
   -6.0807   -1.8018    4.7780 O   0  0  0  0  0  0  0  0  0  0  0  0
   -0.3494   -3.9952    6.3476 O   0  0  0  0  0  0  0  0  0  0  0  0
   -3.4407    1.2794   -1.8947 F   0  0  0  0  0  0  0  0  0  0  0  0
   -3.4491   -0.5444   -0.7101 F   0  0  0  0  0  0  0  0  0  0  0  0
    2.4927   -0.4361   -0.3350 H   0  0  0  0  0  0  0  0  0  0  0  0
    0.9590   -2.2310   -1.0262 H   0  0  0  0  0  0  0  0  0  0  0  0
   -1.4122   -1.7574   -1.1926 H   0  0  0  0  0  0  0  0  0  0  0  0
   -0.5365    2.4875   -1.0614 H   0  0  0  0  0  0  0  0  0  0  0  0
    1.7196    1.8994   -0.3375 H   0  0  0  0  0  0  0  0  0  0  0  0
   -4.4955    1.7802    0.2239 H   0  0  0  0  0  0  0  0  0  0  0  0
   -3.7317    0.7923    1.2983 H   0  0  0  0  0  0  0  0  0  0  0  0
   -1.1454    1.9011    0.5972 H   0  0  0  0  0  0  0  0  0  0  0  0
   -0.9956    3.4088    1.4088 H   0  0  0  0  0  0  0  0  0  0  0  0
   -0.0119    1.5067    2.5551 H   0  0  0  0  0  0  0  0  0  0  0  0
   -1.3793    2.1324    3.3618 H   0  0  0  0  0  0  0  0  0  0  0  0
   -1.2779   -0.4417    3.2859 H   0  0  0  0  0  0  0  0  0  0  0  0
   -2.7365   -0.0457    2.4741 H   0  0  0  0  0  0  0  0  0  0  0  0
   -1.7996   -1.8538    1.5601 H   0  0  0  0  0  0  0  0  0  0  0  0
   -1.5386   -0.5411    0.6137 H   0  0  0  0  0  0  0  0  0  0  0  0
    0.7151   -1.7437    0.9182 H   0  0  0  0  0  0  0  0  0  0  0  0
    0.8167   -0.1775    1.7450 H   0  0  0  0  0  0  0  0  0  0  0  0
    1.7592   -2.1053    2.8839 H   0  0  0  0  0  0  0  0  0  0  0  0
    0.4525   -1.3579    3.7618 H   0  0  0  0  0  0  0  0  0  0  0  0
   -1.0202   -3.0665    2.5558 H   0  0  0  0  0  0  0  0  0  0  0  0
   -0.4685   -4.9179    3.7942 H   0  0  0  0  0  0  0  0  0  0  0  0
    1.0999   -4.2195    4.1327 H   0  0  0  0  0  0  0  0  0  0  0  0
    0.0576   -2.3285    5.3600 H   0  0  0  0  0  0  0  0  0  0  0  0
   -2.7082   -4.8406    4.7150 H   0  0  0  0  0  0  0  0  0  0  0  0
   -5.0563   -4.2352    4.6025 H   0  0  0  0  0  0  0  0  0  0  0  0
   -0.5105   -0.3931    5.3416 H   0  0  0  0  0  0  0  0  0  0  0  0
   -2.8755    0.8450    4.0491 H   0  0  0  0  0  0  0  0  0  0  0  0
   -5.0443    0.6933    5.5655 H   0  0  0  0  0  0  0  0  0  0  0  0
   -6.5294   -2.6277    4.5139 H   0  0  0  0  0  0  0  0  0  0  0  0
   -0.8713   -4.8020    6.2357 H   0  0  0  0  0  0  0  0  0  0  0  0
  1  2  2  0  0  0  0
  1  6  1  0  0  0  0
  1 34  1  0  0  0  0
  2  3  1  0  0  0  0
  2 35  1  0  0  0  0
  3  4  2  0  0  0  0
  3 36  1  0  0  0  0
  4  5  1  0  0  0  0
  4  7  1  0  0  0  0
  5  6  2  0  0  0  0
  5 37  1  0  0  0  0
  6 38  1  0  0  0  0
  7  8  1  0  0  0  0
  7 32  1  0  0  0  0
  7 33  1  0  0  0  0
  8  9  1  0  0  0  0
  8 39  1  0  0  0  0
  8 40  1  0  0  0  0
  9 10  1  0  0  0  0
 10 11  1  0  0  0  0
 10 41  1  0  0  0  0
 10 42  1  0  0  0  0
 11 12  1  0  0  0  0
 11 43  1  0  0  0  0
 11 44  1  0  0  0  0
 12 13  1  0  0  0  0
 12 45  1  0  0  0  0
 12 46  1  0  0  0  0
 13 14  1  0  0  0  0
 13 47  1  0  0  0  0
 13 48  1  0  0  0  0
 14 15  1  0  0  0  0
 14 49  1  0  0  0  0
 14 50  1  0  0  0  0
 15 16  1  0  0  0  0
 15 51  1  0  0  0  0
 15 52  1  0  0  0  0
 16 17  1  0  0  0  0
 16 53  1  0  0  0  0
 17 18  1  0  0  0  0
 17 54  1  0  0  0  0
 17 55  1  0  0  0  0
 18 19  1  0  0  0  0
 18 31  1  0  0  0  0
 18 56  1  1  0  0  0
 19 20  1  0  0  0  0
 19 24  2  0  0  0  0
 20 21  2  0  0  0  0
 20 57  1  0  0  0  0
 21 22  1  0  0  0  0
 21 58  1  0  0  0  0
 22 23  2  0  0  0  0
 22 30  1  0  0  0  0
 23 24  1  0  0  0  0
 23 29  1  0  0  0  0
 24 25  1  0  0  0  0
 25 26  2  0  0  0  0
 25 59  1  0  0  0  0
 26 27  1  0  0  0  0
 26 60  1  0  0  0  0
 27 28  2  0  0  0  0
 27 29  1  0  0  0  0
 29 61  1  0  0  0  0
 30 62  1  0  0  0  0
 31 63  1  0  0  0  0
M  END
>  <DRUGBANK_ID>
DB12100

>  <COMMON_NAME>
Abediterol

>  <CAS_NUMBER>
915133-65-2

>  <UNII>
QXA167CM6F

>  <SYNONYMS>
Abediterol

$$$$
