D3G
 OpenBabel10282417163D

 23 24  0  0  0  0  0  0  0  0999 V2000
    1.4329    0.0228   -0.0458 C   0  0  0  0  0  0  0  0  0  0  0  0
    0.6867    1.2006   -0.0200 C   0  0  0  0  0  0  0  0  0  0  0  0
   -0.6930    1.0989   -0.0176 C   0  0  0  0  0  0  0  0  0  0  0  0
   -1.3564   -0.0780   -0.0373 N   0  0  0  0  0  0  0  0  0  0  0  0
   -0.6000   -1.2092   -0.0674 C   0  0  0  0  0  0  0  0  0  0  0  0
    0.7887   -1.2203   -0.0757 C   0  0  0  0  0  0  0  0  0  0  0  0
    1.5609   -2.4459    0.0449 C   0  0  0  0  0  0  0  0  0  0  0  0
    2.4633   -2.8530    1.0017 C   0  0  0  0  0  0  0  0  0  0  0  0
    2.9394   -4.1160    0.6017 C   0  0  0  0  0  0  0  0  0  0  0  0
    2.3054   -4.4210   -0.5860 C   0  0  0  0  0  0  0  0  0  0  0  0
    1.4506   -3.4001   -0.9336 O   0  0  0  0  0  0  0  0  0  0  0  0
    2.4498   -5.6053   -1.4807 C   0  0  0  0  0  0  0  0  0  0  0  0
    1.2182   -6.3754   -1.6037 N   0  0  0  0  0  0  0  0  0  0  0  0
    2.5181    0.0796   -0.0272 H   0  0  0  0  0  0  0  0  0  0  0  0
    1.1723    2.1698    0.0094 H   0  0  0  0  0  0  0  0  0  0  0  0
   -1.3186    1.9877    0.0060 H   0  0  0  0  0  0  0  0  0  0  0  0
   -1.1704   -2.1340   -0.0385 H   0  0  0  0  0  0  0  0  0  0  0  0
    2.7350   -2.2929    1.8853 H   0  0  0  0  0  0  0  0  0  0  0  0
    3.6665   -4.7353    1.1049 H   0  0  0  0  0  0  0  0  0  0  0  0
    2.8090   -5.3029   -2.4694 H   0  0  0  0  0  0  0  0  0  0  0  0
    3.2170   -6.2662   -1.0552 H   0  0  0  0  0  0  0  0  0  0  0  0
    1.4169   -7.2357   -2.1109 H   0  0  0  0  0  0  0  0  0  0  0  0
    0.9063   -6.6538   -0.6756 H   0  0  0  0  0  0  0  0  0  0  0  0
  1  2  1  0  0  0  0
  1  6  2  0  0  0  0
  1 14  1  0  0  0  0
  2  3  2  0  0  0  0
  2 15  1  0  0  0  0
  3  4  1  0  0  0  0
  3 16  1  0  0  0  0
  4  5  2  0  0  0  0
  5  6  1  0  0  0  0
  5 17  1  0  0  0  0
  6  7  1  0  0  0  0
  7  8  2  0  0  0  0
  7 11  1  0  0  0  0
  8  9  1  0  0  0  0
  8 18  1  0  0  0  0
  9 10  2  0  0  0  0
  9 19  1  0  0  0  0
 10 11  1  0  0  0  0
 10 12  1  0  0  0  0
 12 13  1  0  0  0  0
 12 20  1  0  0  0  0
 12 21  1  0  0  0  0
 13 22  1  0  0  0  0
 13 23  1  0  0  0  0
M  END
>  <DRUGBANK_ID>
DB07621

>  <COMMON_NAME>
(5-(PYRIDIN-3-YL)FURAN-2-YL)METHANAMINE

>  <UNII>
7S869EMF45

$$$$
