
 OpenBabel10282417103D

 49 51  0  0  0  0  0  0  0  0999 V2000
    1.5707    1.0170    0.1649 N   0  0  0  0  0  0  0  0  0  0  0  0
    0.2845    0.5266    0.1009 C   0  0  0  0  0  0  0  0  0  0  0  0
    2.1075    2.3884    0.0927 C   0  0  2  0  0  0  0  0  0  0  0  0
    2.3797   -0.0938    0.0664 C   0  0  0  0  0  0  0  0  0  0  0  0
    0.3794   -0.8450    0.0459 C   0  0  0  0  0  0  0  0  0  0  0  0
   -0.8668    1.1737    0.0745 N   0  0  0  0  0  0  0  0  0  0  0  0
    1.6429    3.2404    1.1659 O   0  0  0  0  0  0  0  0  0  0  0  0
    1.8091    3.0713   -1.2212 C   0  0  1  0  0  0  0  0  0  0  0  0
    1.7046   -1.2254    0.0329 N   0  0  0  0  0  0  0  0  0  0  0  0
   -0.8396   -1.5576    0.0212 C   0  0  0  0  0  0  0  0  0  0  0  0
   -1.9701    0.4329   -0.0117 C   0  0  0  0  0  0  0  0  0  0  0  0
    1.2911    4.5568    0.6288 C   0  0  1  0  0  0  0  0  0  0  0  0
    1.7067    4.5639   -0.8453 C   0  0  1  0  0  0  0  0  0  0  0  0
    2.7186    2.8124   -2.2880 O   0  0  0  0  0  0  0  0  0  0  0  0
   -2.0158   -0.8999   -0.0084 N   0  0  0  0  0  0  0  0  0  0  0  0
   -0.9096   -2.9289    0.0464 N   0  0  0  0  0  0  0  0  0  0  0  0
   -0.2049    4.8915    0.8350 C   0  0  0  0  0  0  0  0  0  0  0  0
    2.9919    5.1858   -1.0308 O   0  0  0  0  0  0  0  0  0  0  0  0
   -1.2180    3.7157    0.0231 S   0  3  3  0  0  0  0  0  0  0  0  0
   -2.9164    4.0169    0.4366 C   0  0  0  0  0  0  0  0  0  0  0  0
   -1.0697    3.7758   -1.7539 C   0  0  0  0  0  0  0  0  0  0  0  0
   -3.4869    5.3346   -0.0407 C   0  0  0  0  0  0  0  0  0  0  0  0
   -3.4283    5.4962   -1.5440 C   0  0  1  0  0  0  0  0  0  0  0  0
   -4.1338    4.3713   -2.4371 C   0  0  0  0  0  0  0  0  0  0  0  0
   -3.7604    6.8655   -2.0319 N   0  0  0  0  0  0  0  0  0  0  0  0
   -4.8658    4.8492   -3.3719 O   0  0  0  0  0  0  0  0  0  0  0  0
   -3.9132    3.1728   -2.1672 O   0  5  0  0  0  0  0  0  0  0  0  0
    3.1960    2.3090    0.1853 H   0  0  0  0  0  0  0  0  0  0  0  0
    3.4545   -0.0045    0.0095 H   0  0  0  0  0  0  0  0  0  0  0  0
    0.9195    2.5441   -1.5220 H   0  0  0  0  0  0  0  0  0  0  0  0
   -2.9160    0.9687   -0.0758 H   0  0  0  0  0  0  0  0  0  0  0  0
    1.8704    5.2914    1.2037 H   0  0  0  0  0  0  0  0  0  0  0  0
    1.0294    5.1834   -1.4438 H   0  0  0  0  0  0  0  0  0  0  0  0
    3.4007    3.5029   -2.2756 H   0  0  0  0  0  0  0  0  0  0  0  0
   -0.0507   -3.4450   -0.0324 H   0  0  0  0  0  0  0  0  0  0  0  0
   -1.8303   -3.3284   -0.0410 H   0  0  0  0  0  0  0  0  0  0  0  0
   -0.4214    4.8039    1.9112 H   0  0  0  0  0  0  0  0  0  0  0  0
   -0.4547    5.9098    0.5312 H   0  0  0  0  0  0  0  0  0  0  0  0
    3.6382    4.7199   -0.4806 H   0  0  0  0  0  0  0  0  0  0  0  0
   -3.5045    3.1725    0.0682 H   0  0  0  0  0  0  0  0  0  0  0  0
   -3.0206    3.9378    1.5264 H   0  0  0  0  0  0  0  0  0  0  0  0
   -1.1430    4.7217   -2.2578 H   0  0  0  0  0  0  0  0  0  0  0  0
   -0.1129    3.6016   -2.1972 H   0  0  0  0  0  0  0  0  0  0  0  0
   -1.6389    2.9613   -2.1942 H   0  0  0  0  0  0  0  0  0  0  0  0
   -4.5260    5.4191    0.2857 H   0  0  0  0  0  0  0  0  0  0  0  0
   -2.9184    6.1385    0.4411 H   0  0  0  0  0  0  0  0  0  0  0  0
   -2.3945    5.5756   -1.7654 H   0  0  0  0  0  0  0  0  0  0  0  0
   -3.5293    6.7894   -3.0356 H   0  0  0  0  0  0  0  0  0  0  0  0
   -4.7770    6.8718   -2.0679 H   0  0  0  0  0  0  0  0  0  0  0  0
  1  2  1  0  0  0  0
  1  4  1  0  0  0  0
  2  5  2  0  0  0  0
  2  6  1  0  0  0  0
  3  1  1  0  0  0  0
  3  7  1  0  0  0  0
  3  8  1  0  0  0  0
  3 28  1  1  0  0  0
  4  9  2  0  0  0  0
  4 29  1  0  0  0  0
  5 10  1  0  0  0  0
  5  9  1  0  0  0  0
  6 11  2  0  0  0  0
  7 12  1  0  0  0  0
  8 13  1  0  0  0  0
  8 14  1  0  0  0  0
  8 30  1  6  0  0  0
 10 15  2  0  0  0  0
 10 16  1  0  0  0  0
 11 15  1  0  0  0  0
 11 31  1  0  0  0  0
 12 13  1  0  0  0  0
 12 32  1  1  0  0  0
 12 17  1  0  0  0  0
 13 18  1  0  0  0  0
 13 33  1  6  0  0  0
 14 34  1  0  0  0  0
 16 35  1  0  0  0  0
 16 36  1  0  0  0  0
 17 19  1  0  0  0  0
 17 37  1  0  0  0  0
 17 38  1  0  0  0  0
 18 39  1  0  0  0  0
 19 20  1  0  0  0  0
 19 21  1  0  0  0  0
 20 22  1  0  0  0  0
 20 40  1  0  0  0  0
 20 41  1  0  0  0  0
 21 42  1  0  0  0  0
 21 43  1  0  0  0  0
 21 44  1  0  0  0  0
 22 23  1  0  0  0  0
 22 45  1  0  0  0  0
 22 46  1  0  0  0  0
 23 24  1  0  0  0  0
 23 25  1  0  0  0  0
 23 47  1  6  0  0  0
 24 26  2  0  0  0  0
 24 27  1  0  0  0  0
 25 48  1  0  0  0  0
 25 49  1  0  0  0  0
M  CHG  2  19   1  27  -1
M  END
>  <DRUGBANK_ID>
DB00118

>  <SECONDARY_ACCESSION_NUMBERS>
NUTR00052

>  <COMMON_NAME>
Ademetionine

>  <CAS_NUMBER>
29908-03-0

>  <UNII>
7LP2MPO46S

>  <SYNONYMS>
Ademetionine; AdoMet; L-S-Adenosylmethionine; S-Adenosylmethionine; SAM; SAM-e; SAMe

$$$$
