
 OpenBabel10282417133D

 45 46  0  0  0  0  0  0  0  0999 V2000
    1.0290   -0.2049   -0.0657 C   0  0  0  0  0  0  0  0  0  0  0  0
   -0.9661    4.3104   -0.5009 C   0  0  0  0  0  0  0  0  0  0  0  0
   -0.8283    5.8756    1.5450 C   0  0  0  0  0  0  0  0  0  0  0  0
    0.4627    1.0576   -0.7017 C   0  0  2  0  0  0  0  0  0  0  0  0
   -1.1984    5.4672    0.0777 C   0  0  0  0  0  0  0  0  0  0  0  0
   -0.7213    3.6687   -1.8141 C   0  0  1  0  0  0  0  0  0  0  0  0
    1.4118    2.1838   -1.1543 C   0  0  2  0  0  0  0  0  0  0  0  0
   -1.5684    6.5389   -0.8436 C   0  0  3  0  0  0  0  0  0  0  0  0
   -1.2195    4.6732   -2.8479 C   0  0  1  0  0  0  0  0  0  0  0  0
    2.2222    2.8186    0.0251 C   0  0  1  0  0  0  0  0  0  0  0  0
   -1.8038    6.0341   -2.3039 C   0  0  1  0  0  0  0  0  0  0  0  0
    1.3004    3.4500    1.0321 C   0  0  2  0  0  0  0  0  0  0  0  0
    0.0289    2.3507    1.3447 C   0  0  2  0  0  0  0  0  0  0  0  0
    0.7090    3.2119   -2.0381 N   0  0  0  0  0  0  0  0  0  0  0  0
   -1.2414    4.9258    2.5124 O   0  0  0  0  0  0  0  0  0  0  0  0
   -0.5333    7.5093   -0.7812 O   0  0  0  0  0  0  0  0  0  0  0  0
   -0.2320    4.9029   -3.8586 O   0  0  0  0  0  0  0  0  0  0  0  0
    3.1572    1.9883    0.6889 O   0  0  0  0  0  0  0  0  0  0  0  0
   -3.2215    5.9865   -2.5400 O   0  0  0  0  0  0  0  0  0  0  0  0
    1.2996    4.8008    0.4892 O   0  0  0  0  0  0  0  0  0  0  0  0
    0.3761    1.4546    2.3681 O   0  0  0  0  0  0  0  0  0  0  0  0
   -0.4934    1.5765    0.2166 O   0  0  0  0  0  0  0  0  0  0  0  0
   -0.0524    0.7139   -1.6141 H   0  0  0  0  0  0  0  0  0  0  0  0
   -1.3481    2.7691   -1.8751 H   0  0  0  0  0  0  0  0  0  0  0  0
    2.1893    1.7303   -1.7865 H   0  0  0  0  0  0  0  0  0  0  0  0
   -2.4865    6.9716   -0.4325 H   0  0  0  0  0  0  0  0  0  0  0  0
   -2.0152    4.1227   -3.3675 H   0  0  0  0  0  0  0  0  0  0  0  0
    2.8541    3.5934   -0.4365 H   0  0  0  0  0  0  0  0  0  0  0  0
   -1.4031    6.8357   -2.9248 H   0  0  0  0  0  0  0  0  0  0  0  0
    1.6762    3.6557    2.0330 H   0  0  0  0  0  0  0  0  0  0  0  0
   -0.8811    2.8296    1.7372 H   0  0  0  0  0  0  0  0  0  0  0  0
    0.6720   -1.0936   -0.5939 H   0  0  0  0  0  0  0  0  0  0  0  0
    0.6452   -0.3498    0.9468 H   0  0  0  0  0  0  0  0  0  0  0  0
    2.1161   -0.2338   -0.0605 H   0  0  0  0  0  0  0  0  0  0  0  0
   -0.7145    3.5724    0.1572 H   0  0  0  0  0  0  0  0  0  0  0  0
    0.2466    6.0202    1.7202 H   0  0  0  0  0  0  0  0  0  0  0  0
   -1.2210    6.8539    1.8136 H   0  0  0  0  0  0  0  0  0  0  0  0
    0.6773    2.7932   -2.9806 H   0  0  0  0  0  0  0  0  0  0  0  0
   -2.1840    4.7732    2.3653 H   0  0  0  0  0  0  0  0  0  0  0  0
    0.2589    7.1258   -1.1956 H   0  0  0  0  0  0  0  0  0  0  0  0
   -0.4319    5.7609   -4.2662 H   0  0  0  0  0  0  0  0  0  0  0  0
    2.7151    1.2426    1.1028 H   0  0  0  0  0  0  0  0  0  0  0  0
   -3.5098    5.0594   -2.4587 H   0  0  0  0  0  0  0  0  0  0  0  0
    1.1712    4.8191   -0.4850 H   0  0  0  0  0  0  0  0  0  0  0  0
    1.2441    1.1481    2.1096 H   0  0  0  0  0  0  0  0  0  0  0  0
  1 32  1  0  0  0  0
  1 33  1  0  0  0  0
  1 34  1  0  0  0  0
  2 35  1  0  0  0  0
  3 36  1  0  0  0  0
  3 37  1  0  0  0  0
  4  1  1  0  0  0  0
  4 22  1  0  0  0  0
  4 23  1  6  0  0  0
  5  2  2  0  0  0  0
  5  3  1  0  0  0  0
  6  2  1  0  0  0  0
  6 14  1  0  0  0  0
  6 24  1  6  0  0  0
  7  4  1  0  0  0  0
  7 10  1  0  0  0  0
  7 25  1  6  0  0  0
  7 14  1  0  0  0  0
  8  5  1  0  0  0  0
  9  6  1  0  0  0  0
  9 11  1  0  0  0  0
  9 27  1  6  0  0  0
  9 17  1  0  0  0  0
 10 12  1  0  0  0  0
 10 18  1  0  0  0  0
 10 28  1  6  0  0  0
 11  8  1  0  0  0  0
 11 29  1  6  0  0  0
 11 19  1  0  0  0  0
 12 13  1  0  0  0  0
 12 30  1  1  0  0  0
 12 20  1  0  0  0  0
 13 21  1  0  0  0  0
 13 22  1  0  0  0  0
 13 31  1  1  0  0  0
 14 38  1  0  0  0  0
 15  3  1  0  0  0  0
 15 39  1  0  0  0  0
 16  8  1  0  0  0  0
 16 40  1  0  0  0  0
 17 41  1  0  0  0  0
 18 42  1  0  0  0  0
 19 43  1  0  0  0  0
 20 44  1  0  0  0  0
 21 45  1  0  0  0  0
 26  8  1  0  0  0  0
M  END
>  <DRUGBANK_ID>
DB03269

>  <SECONDARY_ACCESSION_NUMBERS>
EXPT00449

>  <COMMON_NAME>
4,6-Dideoxy-4-{[4,5,6-trihydroxy-3-(hydroxymethyl)-2-cyclohexen-1-yl]amino}hexopyranose

$$$$
