
 OpenBabel10282417123D

 13 12  0  0  1  0  0  0  0  0999 V2000
    1.0864    0.0845    0.0340 C   0  0  0  0  0  0  0  0  0  0  0  0
    0.5333   -0.0618   -1.3787 C   0  0  1  0  0  0  0  0  0  0  0  0
    0.9944   -1.2940   -1.9283 O   0  0  0  0  0  0  0  0  0  0  0  0
   -0.9997   -0.0451   -1.3955 C   0  0  0  0  0  0  0  0  0  0  0  0
   -1.5219    1.1846   -0.9057 O   0  0  0  0  0  0  0  0  0  0  0  0
    0.7386   -0.7360    0.6713 H   0  0  0  0  0  0  0  0  0  0  0  0
    0.7899    1.0331    0.4905 H   0  0  0  0  0  0  0  0  0  0  0  0
    2.1803    0.0380    0.0266 H   0  0  0  0  0  0  0  0  0  0  0  0
    0.9122    0.7578   -2.0000 H   0  0  0  0  0  0  0  0  0  0  0  0
    1.9679   -1.2612   -1.9435 H   0  0  0  0  0  0  0  0  0  0  0  0
   -1.3637   -0.1833   -2.4196 H   0  0  0  0  0  0  0  0  0  0  0  0
   -1.4106   -0.8718   -0.8046 H   0  0  0  0  0  0  0  0  0  0  0  0
   -1.3082    1.2393    0.0423 H   0  0  0  0  0  0  0  0  0  0  0  0
  1  2  1  0  0  0  0
  1  6  1  0  0  0  0
  1  7  1  0  0  0  0
  1  8  1  0  0  0  0
  2  3  1  0  0  0  0
  2  4  1  0  0  0  0
  2  9  1  6  0  0  0
  3 10  1  0  0  0  0
  4  5  1  0  0  0  0
  4 11  1  0  0  0  0
  4 12  1  0  0  0  0
  5 13  1  0  0  0  0
M  END
>  <DRUGBANK_ID>
DB02159

>  <SECONDARY_ACCESSION_NUMBERS>
EXPT02574

>  <COMMON_NAME>
(R)-Propylene glycol

>  <CAS_NUMBER>
4254-14-2

>  <UNII>
602HN5L69H

>  <SYNONYMS>
R-1,2-propanediol

$$$$
