
 OpenBabel10282417163D

 49 52  0  0  0  0  0  0  0  0999 V2000
    1.6780    0.4846    2.4787 C   0  0  0  0  0  0  0  0  0  0  0  0
    0.2114    0.3381    2.1632 C   0  0  0  0  0  0  0  0  0  0  0  0
    0.5586    1.8361    1.4872 C   0  0  0  0  0  0  0  0  0  0  0  0
   -0.2324    2.8292    2.2294 C   0  0  0  0  0  0  0  0  0  0  0  0
    0.3151    2.7413    3.6460 C   0  0  1  0  0  0  0  0  0  0  0  0
    0.2775    4.2054    4.1603 C   0  0  0  0  0  0  0  0  0  0  0  0
    0.5432    4.5557    5.6489 C   0  0  0  0  0  0  0  0  0  0  0  0
    1.9269    4.0782    6.1343 C   0  0  2  0  0  0  0  0  0  0  0  0
    1.9290    2.3079    5.5591 C   0  0  1  0  0  0  0  0  0  0  0  0
    1.7222    1.9607    3.7256 C   0  0  1  0  0  0  0  0  0  0  0  0
    3.1993    1.7620    6.1714 C   0  0  0  0  0  0  0  0  0  0  0  0
    3.3906    2.2312    7.6040 C   0  0  0  0  0  0  0  0  0  0  0  0
    3.6351    3.7199    7.8092 C   0  0  1  0  0  0  0  0  0  0  0  0
    2.4760    4.7076    7.8365 C   0  0  1  0  0  0  0  0  0  0  0  0
    3.5087    5.7539    9.0779 C   0  0  0  0  0  0  0  0  0  0  0  0
    4.7574    4.9342    9.5385 C   0  0  0  0  0  0  0  0  0  0  0  0
    3.9447    3.7848    9.2785 C   0  0  0  0  0  0  0  0  0  0  0  0
    4.7054    4.3353    6.8670 C   0  0  0  0  0  0  0  0  0  0  0  0
    2.9414    2.7504    3.3105 C   0  0  0  0  0  0  0  0  0  0  0  0
    2.3334    5.7206    7.3996 H   0  0  0  0  0  0  0  0  0  0  0  0
    2.6294    4.6073    5.4894 H   0  0  0  0  0  0  0  0  0  0  0  0
    1.0457    1.8581    6.0473 H   0  0  0  0  0  0  0  0  0  0  0  0
    1.4801    2.2413    0.8352 O   0  0  0  0  0  0  0  0  0  0  0  0
    3.2362    3.3034   10.1851 O   0  0  0  0  0  0  0  0  0  0  0  0
   -0.4111    2.1677    4.2538 H   0  0  0  0  0  0  0  0  0  0  0  0
    1.6458    0.3695    1.2192 H   0  0  0  0  0  0  0  0  0  0  0  0
    2.6410    0.1015    2.0289 H   0  0  0  0  0  0  0  0  0  0  0  0
   -0.4991    0.1603    1.3178 H   0  0  0  0  0  0  0  0  0  0  0  0
    0.4078   -0.7589    2.0667 H   0  0  0  0  0  0  0  0  0  0  0  0
   -0.0364    3.7657    1.7134 H   0  0  0  0  0  0  0  0  0  0  0  0
   -1.2303    2.4251    2.1120 H   0  0  0  0  0  0  0  0  0  0  0  0
   -0.7299    4.5773    3.9267 H   0  0  0  0  0  0  0  0  0  0  0  0
    0.9547    4.7922    3.5271 H   0  0  0  0  0  0  0  0  0  0  0  0
   -0.2582    4.1357    6.2645 H   0  0  0  0  0  0  0  0  0  0  0  0
    0.4716    5.6486    5.7335 H   0  0  0  0  0  0  0  0  0  0  0  0
    4.0585    2.1150    5.6072 H   0  0  0  0  0  0  0  0  0  0  0  0
    3.2101    0.6726    6.1410 H   0  0  0  0  0  0  0  0  0  0  0  0
    4.3007    1.7426    7.9718 H   0  0  0  0  0  0  0  0  0  0  0  0
    2.5728    1.8808    8.2502 H   0  0  0  0  0  0  0  0  0  0  0  0
    4.3316    6.5228    9.1551 H   0  0  0  0  0  0  0  0  0  0  0  0
    3.0494    6.7587    9.0523 H   0  0  0  0  0  0  0  0  0  0  0  0
    5.1955    4.8312   10.5360 H   0  0  0  0  0  0  0  0  0  0  0  0
    5.6174    5.0616    8.8550 H   0  0  0  0  0  0  0  0  0  0  0  0
    4.5248    4.1322    5.8144 H   0  0  0  0  0  0  0  0  0  0  0  0
    4.7120    5.4392    6.9181 H   0  0  0  0  0  0  0  0  0  0  0  0
    5.7006    3.9708    7.1100 H   0  0  0  0  0  0  0  0  0  0  0  0
    2.9404    3.6572    3.8936 H   0  0  0  0  0  0  0  0  0  0  0  0
    3.8337    2.1705    3.5571 H   0  0  0  0  0  0  0  0  0  0  0  0
    2.9899    3.1161    2.2985 H   0  0  0  0  0  0  0  0  0  0  0  0
  1 10  1  0  0  0  0
  1 26  1  0  0  0  0
  1 27  1  0  0  0  0
  2  1  1  0  0  0  0
  2 28  1  0  0  0  0
  2 29  1  0  0  0  0
  3  4  1  0  0  0  0
  3  2  1  0  0  0  0
  4  5  1  0  0  0  0
  4 30  1  0  0  0  0
  4 31  1  0  0  0  0
  5 10  1  0  0  0  0
  5 25  1  6  0  0  0
  6  7  1  0  0  0  0
  6  5  1  0  0  0  0
  6 32  1  0  0  0  0
  6 33  1  0  0  0  0
  7  8  1  0  0  0  0
  7 34  1  0  0  0  0
  7 35  1  0  0  0  0
  8 14  1  0  0  0  0
  8  9  1  0  0  0  0
  8 21  1  6  0  0  0
  9 22  1  1  0  0  0
 10  9  1  0  0  0  0
 10 19  1  6  0  0  0
 11  9  1  0  0  0  0
 11 12  1  0  0  0  0
 11 36  1  0  0  0  0
 11 37  1  0  0  0  0
 12 13  1  0  0  0  0
 12 38  1  0  0  0  0
 12 39  1  0  0  0  0
 13 18  1  6  0  0  0
 14 13  1  0  0  0  0
 14 20  1  1  0  0  0
 15 14  1  0  0  0  0
 15 40  1  0  0  0  0
 15 41  1  0  0  0  0
 16 17  1  0  0  0  0
 16 15  1  0  0  0  0
 16 42  1  0  0  0  0
 16 43  1  0  0  0  0
 17 13  1  0  0  0  0
 18 44  1  0  0  0  0
 18 45  1  0  0  0  0
 18 46  1  0  0  0  0
 19 47  1  0  0  0  0
 19 48  1  0  0  0  0
 19 49  1  0  0  0  0
 23  3  2  0  0  0  0
 24 17  2  0  0  0  0
M  END
>  <DRUGBANK_ID>
DB07375

>  <COMMON_NAME>
Etiocholanedione

>  <CAS_NUMBER>
1229-12-5

>  <UNII>
213MVW2TZD

>  <SYNONYMS>
5beta-androstane-3,17-dione; 5Î²-androstane-3,17-dione; Etiocholane-3,17-dione

$$$$
