
 OpenBabel10282417143D

 17 17  0  0  0  0  0  0  0  0999 V2000
    2.2774   -0.0788    0.0043 O   0  0  0  0  0  0  0  0  0  0  0  0
    0.9158   -0.0086    0.0111 C   0  0  0  0  0  0  0  0  0  0  0  0
    0.1807   -1.2004    0.0093 C   0  0  0  0  0  0  0  0  0  0  0  0
   -1.2193   -1.1681   -0.0025 C   0  0  0  0  0  0  0  0  0  0  0  0
   -1.8861    0.0644   -0.0132 C   0  0  0  0  0  0  0  0  0  0  0  0
   -1.1619    1.2634    0.0006 C   0  0  0  0  0  0  0  0  0  0  0  0
    0.2463    1.2258    0.0166 C   0  0  0  0  0  0  0  0  0  0  0  0
    0.9739    2.5094    0.0473 N   0  3  0  0  0  0  0  0  0  0  0  0
    0.2855    3.5421    0.0587 O   0  5  0  0  0  0  0  0  0  0  0  0
    2.2096    2.5123    0.0651 O   0  0  0  0  0  0  0  0  0  0  0  0
   -3.3569    0.1010   -0.0402 N   0  3  0  0  0  0  0  0  0  0  0  0
   -3.9028    1.2132   -0.0517 O   0  5  0  0  0  0  0  0  0  0  0  0
   -3.9592   -0.9801   -0.0522 O   0  0  0  0  0  0  0  0  0  0  0  0
    2.6010   -0.9936   -0.0203 H   0  0  0  0  0  0  0  0  0  0  0  0
    0.6817   -2.1665    0.0179 H   0  0  0  0  0  0  0  0  0  0  0  0
   -1.7727   -2.1069   -0.0049 H   0  0  0  0  0  0  0  0  0  0  0  0
   -1.6888    2.2175   -0.0008 H   0  0  0  0  0  0  0  0  0  0  0  0
  1  2  1  0  0  0  0
  1 14  1  0  0  0  0
  2  3  2  0  0  0  0
  2  7  1  0  0  0  0
  3  4  1  0  0  0  0
  3 15  1  0  0  0  0
  4  5  2  0  0  0  0
  4 16  1  0  0  0  0
  5  6  1  0  0  0  0
  5 11  1  0  0  0  0
  6  7  2  0  0  0  0
  6 17  1  0  0  0  0
  7  8  1  0  0  0  0
  8  9  1  0  0  0  0
  8 10  2  0  0  0  0
 11 12  1  0  0  0  0
 11 13  2  0  0  0  0
M  CHG  4   8   1   9  -1  11   1  12  -1
M  END
>  <DRUGBANK_ID>
DB04528

>  <SECONDARY_ACCESSION_NUMBERS>
EXPT01235

>  <COMMON_NAME>
2,4-Dinitrophenol

>  <CAS_NUMBER>
51-28-5

>  <UNII>
Q13SKS21MN

>  <SYNONYMS>
Dinitrophenol

$$$$
