742
 OpenBabel10282417163D

 63 62  0  0  0  0  0  0  0  0999 V2000
    1.0097   -0.0596   -0.1297 C   0  0  0  0  0  0  0  0  0  0  0  0
    0.5923   -0.2269    1.3223 C   0  0  0  0  0  0  0  0  0  0  0  0
    1.0858    0.9491    2.1660 C   0  0  0  0  0  0  0  0  0  0  0  0
    0.5123    2.2820    1.6719 C   0  0  0  0  0  0  0  0  0  0  0  0
   -1.0196    2.2750    1.7170 C   0  0  0  0  0  0  0  0  0  0  0  0
   -1.5065    2.0724    3.1537 C   0  0  0  0  0  0  0  0  0  0  0  0
   -0.9780    3.2008    4.0464 C   0  0  0  0  0  0  0  0  0  0  0  0
   -1.5081    4.5518    3.5557 C   0  0  0  0  0  0  0  0  0  0  0  0
   -3.0346    4.5476    3.6008 C   0  0  0  0  0  0  0  0  0  0  0  0
   -3.4812    4.3183    5.0464 C   0  0  0  0  0  0  0  0  0  0  0  0
   -3.1311    5.5113    5.9178 C   0  0  0  0  0  0  0  0  0  0  0  0
   -3.7268    6.7984    5.3439 C   0  0  0  0  0  0  0  0  0  0  0  0
   -5.5052    6.8034    5.2672 P   0  3  0  0  0  0  0  0  0  0  0  0
   -6.2469    5.5567    4.2431 C   0  0  0  0  0  0  0  0  0  0  0  0
   -6.1280    8.2277    4.4106 C   0  0  0  0  0  0  0  0  0  0  0  0
   -6.0507    6.5850    6.9525 C   0  0  0  0  0  0  0  0  0  0  0  0
   -5.5136    7.6372    7.9392 C   0  0  0  0  0  0  0  0  0  0  0  0
   -6.1236    9.2457    7.3152 P   0  0  0  0  0  0  0  0  0  0  0  0
   -5.6555   10.1948    8.5727 O   0  0  0  0  0  0  0  0  0  0  0  0
   -6.7003   10.7664    6.7254 O   0  0  0  0  0  0  0  0  0  0  0  0
   -4.8464    9.4455    6.4925 O   0  0  0  0  0  0  0  0  0  0  0  0
   -6.1236    7.3732    9.6442 P   0  0  0  0  0  0  0  0  0  0  0  0
   -4.7494    6.8992   10.1122 O   0  0  0  0  0  0  0  0  0  0  0  0
   -6.2462    8.9128   10.1037 O   0  0  0  0  0  0  0  0  0  0  0  0
   -6.7003    7.1237   11.2560 O   0  0  0  0  0  0  0  0  0  0  0  0
    0.5879    0.8467   -0.5764 H   0  0  0  0  0  0  0  0  0  0  0  0
    0.6621   -0.9007   -0.7309 H   0  0  0  0  0  0  0  0  0  0  0  0
    2.0994    0.0064   -0.1986 H   0  0  0  0  0  0  0  0  0  0  0  0
   -0.4979   -0.3271    1.3837 H   0  0  0  0  0  0  0  0  0  0  0  0
    0.9964   -1.1598    1.7255 H   0  0  0  0  0  0  0  0  0  0  0  0
    0.8212    0.7763    3.2167 H   0  0  0  0  0  0  0  0  0  0  0  0
    2.1789    0.9957    2.1505 H   0  0  0  0  0  0  0  0  0  0  0  0
    0.9269    3.0987    2.2722 H   0  0  0  0  0  0  0  0  0  0  0  0
    0.8498    2.5136    0.6590 H   0  0  0  0  0  0  0  0  0  0  0  0
   -1.4027    3.2079    1.2901 H   0  0  0  0  0  0  0  0  0  0  0  0
   -1.4448    1.5028    1.0702 H   0  0  0  0  0  0  0  0  0  0  0  0
   -2.5997    2.0114    3.1658 H   0  0  0  0  0  0  0  0  0  0  0  0
   -1.1968    1.1055    3.5591 H   0  0  0  0  0  0  0  0  0  0  0  0
   -1.2466    3.0011    5.0865 H   0  0  0  0  0  0  0  0  0  0  0  0
    0.1127    3.2260    4.0866 H   0  0  0  0  0  0  0  0  0  0  0  0
   -1.0905    5.3581    4.1658 H   0  0  0  0  0  0  0  0  0  0  0  0
   -1.1675    4.7858    2.5425 H   0  0  0  0  0  0  0  0  0  0  0  0
   -3.4144    5.4781    3.1712 H   0  0  0  0  0  0  0  0  0  0  0  0
   -3.4709    3.7871    2.9466 H   0  0  0  0  0  0  0  0  0  0  0  0
   -4.5353    4.1027    5.1043 H   0  0  0  0  0  0  0  0  0  0  0  0
   -3.0694    3.4037    5.4761 H   0  0  0  0  0  0  0  0  0  0  0  0
   -3.4955    5.3286    6.9330 H   0  0  0  0  0  0  0  0  0  0  0  0
   -2.0438    5.6109    6.0177 H   0  0  0  0  0  0  0  0  0  0  0  0
   -3.3660    7.6060    5.9878 H   0  0  0  0  0  0  0  0  0  0  0  0
   -3.2972    7.0499    4.3708 H   0  0  0  0  0  0  0  0  0  0  0  0
   -5.8023    5.5855    3.2430 H   0  0  0  0  0  0  0  0  0  0  0  0
   -6.2288    4.5358    4.6151 H   0  0  0  0  0  0  0  0  0  0  0  0
   -7.3114    5.7794    4.1274 H   0  0  0  0  0  0  0  0  0  0  0  0
   -5.8253    8.1746    3.3616 H   0  0  0  0  0  0  0  0  0  0  0  0
   -7.2204    8.2194    4.4567 H   0  0  0  0  0  0  0  0  0  0  0  0
   -5.8223    9.2248    4.7008 H   0  0  0  0  0  0  0  0  0  0  0  0
   -7.1442    6.5777    6.9773 H   0  0  0  0  0  0  0  0  0  0  0  0
   -5.7349    5.5967    7.3082 H   0  0  0  0  0  0  0  0  0  0  0  0
   -4.4189    7.6502    7.9536 H   0  0  0  0  0  0  0  0  0  0  0  0
   -6.4608   10.5636    9.0125 H   0  0  0  0  0  0  0  0  0  0  0  0
   -5.8697   11.2490    6.5155 H   0  0  0  0  0  0  0  0  0  0  0  0
   -5.3544    9.3557   10.0525 H   0  0  0  0  0  0  0  0  0  0  0  0
   -5.9004    7.1823   11.8170 H   0  0  0  0  0  0  0  0  0  0  0  0
  1  2  1  0  0  0  0
  1 26  1  0  0  0  0
  1 27  1  0  0  0  0
  1 28  1  0  0  0  0
  2  3  1  0  0  0  0
  2 29  1  0  0  0  0
  2 30  1  0  0  0  0
  3  4  1  0  0  0  0
  3 31  1  0  0  0  0
  3 32  1  0  0  0  0
  4  5  1  0  0  0  0
  4 33  1  0  0  0  0
  4 34  1  0  0  0  0
  5  6  1  0  0  0  0
  5 35  1  0  0  0  0
  5 36  1  0  0  0  0
  6  7  1  0  0  0  0
  6 37  1  0  0  0  0
  6 38  1  0  0  0  0
  7  8  1  0  0  0  0
  7 39  1  0  0  0  0
  7 40  1  0  0  0  0
  8  9  1  0  0  0  0
  8 41  1  0  0  0  0
  8 42  1  0  0  0  0
  9 10  1  0  0  0  0
  9 43  1  0  0  0  0
  9 44  1  0  0  0  0
 10 11  1  0  0  0  0
 10 45  1  0  0  0  0
 10 46  1  0  0  0  0
 11 12  1  0  0  0  0
 11 47  1  0  0  0  0
 11 48  1  0  0  0  0
 12 13  1  0  0  0  0
 12 49  1  0  0  0  0
 12 50  1  0  0  0  0
 13 16  1  0  0  0  0
 13 15  1  0  0  0  0
 13 14  1  0  0  0  0
 14 51  1  0  0  0  0
 14 52  1  0  0  0  0
 14 53  1  0  0  0  0
 15 54  1  0  0  0  0
 15 55  1  0  0  0  0
 15 56  1  0  0  0  0
 16 17  1  0  0  0  0
 16 57  1  0  0  0  0
 16 58  1  0  0  0  0
 17 18  1  0  0  0  0
 17 22  1  0  0  0  0
 17 59  1  0  0  0  0
 18 19  1  0  0  0  0
 18 21  2  0  0  0  0
 18 20  1  0  0  0  0
 19 60  1  0  0  0  0
 20 61  1  0  0  0  0
 22 23  2  0  0  0  0
 22 24  1  0  0  0  0
 22 25  1  0  0  0  0
 24 62  1  0  0  0  0
 25 63  1  0  0  0  0
M  CHG  1  13   1
M  END
>  <DRUGBANK_ID>
DB07221

>  <COMMON_NAME>
(2,2-DIPHOSPHONOETHYL)(DODECYL)DIMETHYLPHOSPHONIUM

$$$$
