
 OpenBabel10282417163D

 34 36  0  0  0  0  0  0  0  0999 V2000
    0.9888    0.1107   -0.0274 S   0  0  0  0  0  0  0  0  0  0  0  0
   11.2345    2.3589   -1.1511 S   0  0  0  0  0  0  0  0  0  0  0  0
    7.8139    0.6293    0.5795 O   0  0  0  0  0  0  0  0  0  0  0  0
    0.5703    0.5960    1.2639 O   0  0  0  0  0  0  0  0  0  0  0  0
    0.5396    0.7112   -1.2642 O   0  0  0  0  0  0  0  0  0  0  0  0
   12.6965    1.8633    2.3385 O   0  0  0  0  0  0  0  0  0  0  0  0
    0.4874   -1.5013   -0.0813 N   0  0  0  0  0  0  0  0  0  0  0  0
   13.1552    2.9986    0.4031 N   0  0  0  0  0  0  0  0  0  0  0  0
   13.1260    4.1732   -1.6089 N   0  0  0  0  0  0  0  0  0  0  0  0
    5.5797    0.0943   -0.2399 C   0  0  0  0  0  0  0  0  0  0  0  0
    7.0313    0.0539   -0.3887 C   0  0  0  0  0  0  0  0  0  0  0  0
    2.7636    0.0610   -0.0584 C   0  0  0  0  0  0  0  0  0  0  0  0
    4.8646   -1.1163   -0.2141 C   0  0  0  0  0  0  0  0  0  0  0  0
    4.8584    1.2928   -0.2026 C   0  0  0  0  0  0  0  0  0  0  0  0
    9.1461    0.4145    0.2446 C   0  0  0  0  0  0  0  0  0  0  0  0
    3.4661   -1.1410   -0.1230 C   0  0  0  0  0  0  0  0  0  0  0  0
    3.4594    1.2776   -0.0665 C   0  0  0  0  0  0  0  0  0  0  0  0
    7.8287   -0.5532   -1.3292 C   0  0  0  0  0  0  0  0  0  0  0  0
    9.1594   -0.3405   -0.9235 C   0  0  0  0  0  0  0  0  0  0  0  0
   10.2713    0.8892    0.9878 C   0  0  0  0  0  0  0  0  0  0  0  0
   11.2113    1.6786    0.4428 C   0  0  0  0  0  0  0  0  0  0  0  0
   12.4156    2.1535    1.1918 C   0  0  0  0  0  0  0  0  0  0  0  0
   12.6462    3.2979   -0.8098 C   0  0  0  0  0  0  0  0  0  0  0  0
    0.7216   -1.9899    0.7818 H   0  0  0  0  0  0  0  0  0  0  0  0
   -0.5260   -1.5121   -0.2323 H   0  0  0  0  0  0  0  0  0  0  0  0
   13.9874    3.4235    0.7764 H   0  0  0  0  0  0  0  0  0  0  0  0
   13.9395    4.6391   -1.2066 H   0  0  0  0  0  0  0  0  0  0  0  0
    5.4030   -2.0599   -0.2840 H   0  0  0  0  0  0  0  0  0  0  0  0
    5.3716    2.2457   -0.3183 H   0  0  0  0  0  0  0  0  0  0  0  0
    2.9590   -2.1008   -0.1163 H   0  0  0  0  0  0  0  0  0  0  0  0
    2.9165    2.2175    0.0198 H   0  0  0  0  0  0  0  0  0  0  0  0
    7.4804   -1.0887   -2.1995 H   0  0  0  0  0  0  0  0  0  0  0  0
   10.0505   -0.6817   -1.4321 H   0  0  0  0  0  0  0  0  0  0  0  0
   10.3640    0.5689    2.0236 H   0  0  0  0  0  0  0  0  0  0  0  0
  1  4  2  0  0  0  0
  1  5  2  0  0  0  0
  1  7  1  0  0  0  0
  1 12  1  0  0  0  0
  2 21  1  0  0  0  0
  2 23  1  0  0  0  0
  3 11  1  0  0  0  0
  3 15  1  0  0  0  0
  6 22  2  0  0  0  0
  7 24  1  0  0  0  0
  7 25  1  0  0  0  0
  8 22  1  0  0  0  0
  8 23  1  0  0  0  0
  8 26  1  0  0  0  0
  9 23  2  0  0  0  0
  9 27  1  0  0  0  0
 10 11  1  0  0  0  0
 10 13  2  0  0  0  0
 10 14  1  0  0  0  0
 11 18  2  0  0  0  0
 12 16  2  0  0  0  0
 12 17  1  0  0  0  0
 13 16  1  0  0  0  0
 13 28  1  0  0  0  0
 14 17  2  0  0  0  0
 14 29  1  0  0  0  0
 15 19  2  0  0  0  0
 15 20  1  0  0  0  0
 16 30  1  0  0  0  0
 17 31  1  0  0  0  0
 18 19  1  0  0  0  0
 18 32  1  0  0  0  0
 19 33  1  0  0  0  0
 20 21  2  0  0  0  0
 20 34  1  0  0  0  0
 21 22  1  0  0  0  0
M  END
>  <DRUGBANK_ID>
DB07534

>  <COMMON_NAME>
4-{5-[(Z)-(2-Imino-4-Oxo-1,3-Thiazolidin-5-Ylidene)methyl]furan-2-Yl}benzenesulfonamide

$$$$
