
 OpenBabel10282417193D

  4  3  0  0  0  0  0  0  0  0999 V2000
    0.9908    0.0791   -0.0605 In  0  0  0  0  0  0  0  0  0  0  0  0
    0.1258    1.0485   -1.2029 H   0  0  0  0  0  0  0  0  0  0  0  0
    0.1258   -0.8902    1.0819 H   0  0  0  0  0  0  0  0  0  0  0  0
    2.7208    0.0791   -0.0605 H   0  0  0  0  0  0  0  0  0  0  0  0
  1  2  1  0  0  0  0
  1  3  1  0  0  0  0
  1  4  1  0  0  0  0
M  ISO  1   1 111
M  END
>  <DRUGBANK_ID>
DB11916

>  <COMMON_NAME>
Indium In-111

>  <CAS_NUMBER>
15750-15-9

>  <UNII>
E9NGC49E0T

>  <SYNONYMS>
Indium (111 In)

$$$$
