
 OpenBabel10282417143D

 28 29  0  0  1  0  0  0  0  0999 V2000
   -1.1730    0.1107   -0.0032 C   0  0  0  0  0  0  0  0  0  0  0  0
    1.3907   -4.6605   -1.0896 C   0  0  0  0  0  0  0  0  0  0  0  0
    0.8702    0.6942   -0.0211 C   0  0  0  0  0  0  0  0  0  0  0  0
    2.5234   -3.6667   -0.7831 C   0  0  2  0  0  0  0  0  0  0  0  0
   -0.4589   -1.0570    0.0299 C   0  0  0  0  0  0  0  0  0  0  0  0
    2.9249   -3.6126    0.6930 C   0  0  2  0  0  0  0  0  0  0  0  0
    2.1583   -2.4157    1.2468 C   0  0  2  0  0  0  0  0  0  0  0  0
    2.0551   -1.5014    0.0276 C   0  0  2  0  0  0  0  0  0  0  0  0
   -0.8808   -2.3324    0.1211 N   0  0  0  0  0  0  0  0  0  0  0  0
   -0.3428    1.1982   -0.0316 N   0  0  0  0  0  0  0  0  0  0  0  0
    0.8604   -0.6791   -0.0137 N   0  0  0  0  0  0  0  0  0  0  0  0
    0.2962   -4.5606   -0.1868 O   0  0  0  0  0  0  0  0  0  0  0  0
    4.3363   -3.3998    0.8358 O   0  0  0  0  0  0  0  0  0  0  0  0
    2.8123   -1.8008    2.3559 O   0  0  0  0  0  0  0  0  0  0  0  0
    2.1196   -2.3286   -1.1538 O   0  0  0  0  0  0  0  0  0  0  0  0
    3.3743   -3.9227   -1.4251 H   0  0  0  0  0  0  0  0  0  0  0  0
    2.6958   -4.5422    1.2234 H   0  0  0  0  0  0  0  0  0  0  0  0
    1.1755   -2.7347    1.5984 H   0  0  0  0  0  0  0  0  0  0  0  0
    2.9198   -0.8246   -0.0088 H   0  0  0  0  0  0  0  0  0  0  0  0
   -2.2511    0.2119    0.0073 H   0  0  0  0  0  0  0  0  0  0  0  0
    0.9868   -4.4731   -2.0911 H   0  0  0  0  0  0  0  0  0  0  0  0
    1.7495   -5.6914   -1.0462 H   0  0  0  0  0  0  0  0  0  0  0  0
    1.7829    1.2772   -0.0118 H   0  0  0  0  0  0  0  0  0  0  0  0
   -0.3057   -3.1102   -0.2045 H   0  0  0  0  0  0  0  0  0  0  0  0
   -1.8595   -2.5612   -0.0199 H   0  0  0  0  0  0  0  0  0  0  0  0
    0.5875   -4.7398    0.7251 H   0  0  0  0  0  0  0  0  0  0  0  0
    4.6072   -2.6390    0.2952 H   0  0  0  0  0  0  0  0  0  0  0  0
    3.7649   -1.7471    2.1609 H   0  0  0  0  0  0  0  0  0  0  0  0
  1 20  1  0  0  0  0
  2 21  1  0  0  0  0
  2 22  1  0  0  0  0
  3 23  1  0  0  0  0
  4 16  1  6  0  0  0
  4  2  1  0  0  0  0
  5  1  2  0  0  0  0
  6  4  1  0  0  0  0
  6 13  1  0  0  0  0
  6 17  1  1  0  0  0
  7  6  1  0  0  0  0
  7 14  1  0  0  0  0
  7 18  1  1  0  0  0
  8  7  1  0  0  0  0
  8 11  1  0  0  0  0
  8 19  1  6  0  0  0
  9  5  1  0  0  0  0
  9 24  1  0  0  0  0
  9 25  1  0  0  0  0
 10  1  1  0  0  0  0
 10  3  2  0  0  0  0
 11  3  1  0  0  0  0
 11  5  1  0  0  0  0
 12  2  1  0  0  0  0
 12 26  1  0  0  0  0
 13 27  1  0  0  0  0
 14 28  1  0  0  0  0
 15  4  1  0  0  0  0
 15  8  1  0  0  0  0
M  END
>  <DRUGBANK_ID>
DB04568

>  <SECONDARY_ACCESSION_NUMBERS>
EXPT00477

>  <COMMON_NAME>
5-Aminoimidazole Ribonucleoside

$$$$
