
 OpenBabel10282417133D

  8  7  0  0  0  0  0  0  0  0999 V2000
    0.9756    0.1234   -0.1109 Cl  0  0  0  0  0  0  0  0  0  0  0  0
    2.7523   -0.0038   -0.1041 C   0  0  0  0  0  0  0  0  0  0  0  0
    3.2569   -1.0109    0.9180 C   0  0  0  0  0  0  0  0  0  0  0  0
    2.7790   -2.6798    0.5188 Cl  0  0  0  0  0  0  0  0  0  0  0  0
    3.0789   -0.2599   -1.1158 H   0  0  0  0  0  0  0  0  0  0  0  0
    3.1387    0.9919    0.1361 H   0  0  0  0  0  0  0  0  0  0  0  0
    4.3511   -0.9941    0.9445 H   0  0  0  0  0  0  0  0  0  0  0  0
    2.8893   -0.7828    1.9223 H   0  0  0  0  0  0  0  0  0  0  0  0
  1  2  1  0  0  0  0
  2  3  1  0  0  0  0
  2  5  1  0  0  0  0
  2  6  1  0  0  0  0
  3  4  1  0  0  0  0
  3  7  1  0  0  0  0
  3  8  1  0  0  0  0
M  END
>  <DRUGBANK_ID>
DB03733

>  <SECONDARY_ACCESSION_NUMBERS>
EXPT01133

>  <COMMON_NAME>
Ethylene Dichloride

>  <CAS_NUMBER>
107-06-2

>  <UNII>
55163IJI47

$$$$
