499
 OpenBabel10282417103D

 30 30  0  0  0  0  0  0  0  0999 V2000
    0.9671    0.1199    0.2925 F   0  0  0  0  0  0  0  0  0  0  0  0
    2.8516    1.0321    0.9564 F   0  0  0  0  0  0  0  0  0  0  0  0
    2.6418   -1.1054    0.9384 F   0  0  0  0  0  0  0  0  0  0  0  0
    4.2951   -4.3702   -5.0906 O   0  0  0  0  0  0  0  0  0  0  0  0
    3.4223    3.3658   -2.2895 O   0  5  0  0  0  0  0  0  0  0  0  0
    2.2056    2.7353   -0.5892 O   0  0  0  0  0  0  0  0  0  0  0  0
    3.6110   -2.8041   -3.6130 N   0  0  0  0  0  0  0  0  0  0  0  0
    2.9322    2.4924   -1.5394 N   0  3  0  0  0  0  0  0  0  0  0  0
    4.5482   -2.1284   -5.8585 C   0  0  0  0  0  0  0  0  0  0  0  0
    3.4092   -1.5209   -3.0410 C   0  0  0  0  0  0  0  0  0  0  0  0
    4.1448   -3.1726   -4.8318 C   0  0  0  0  0  0  0  0  0  0  0  0
    2.8103   -0.0585   -1.1714 C   0  0  0  0  0  0  0  0  0  0  0  0
    2.9231   -1.3688   -1.7566 C   0  0  0  0  0  0  0  0  0  0  0  0
    3.2577   -1.3945   -6.3512 C   0  0  0  0  0  0  0  0  0  0  0  0
    5.8018   -1.3503   -5.3389 C   0  0  0  0  0  0  0  0  0  0  0  0
    3.1741    1.0917   -1.9093 C   0  0  0  0  0  0  0  0  0  0  0  0
    3.7241   -0.3301   -3.6834 C   0  0  0  0  0  0  0  0  0  0  0  0
    3.7062    0.9289   -3.1517 C   0  0  0  0  0  0  0  0  0  0  0  0
    2.3169    0.0183    0.2370 C   0  0  0  0  0  0  0  0  0  0  0  0
    3.4044   -3.6243   -3.0471 H   0  0  0  0  0  0  0  0  0  0  0  0
    4.9158   -2.6367   -6.7555 H   0  0  0  0  0  0  0  0  0  0  0  0
    2.6209   -2.2479   -1.1827 H   0  0  0  0  0  0  0  0  0  0  0  0
    2.5354   -1.1084   -5.5732 H   0  0  0  0  0  0  0  0  0  0  0  0
    3.4956   -0.4903   -6.9185 H   0  0  0  0  0  0  0  0  0  0  0  0
    2.6435   -2.0629   -6.9610 H   0  0  0  0  0  0  0  0  0  0  0  0
    6.6866   -1.9916   -5.3425 H   0  0  0  0  0  0  0  0  0  0  0  0
    5.9914   -0.4469   -5.9261 H   0  0  0  0  0  0  0  0  0  0  0  0
    5.7909   -1.0503   -4.2830 H   0  0  0  0  0  0  0  0  0  0  0  0
    4.0410   -0.2322   -4.6943 H   0  0  0  0  0  0  0  0  0  0  0  0
    4.0793    1.7343   -3.7834 H   0  0  0  0  0  0  0  0  0  0  0  0
  1 19  1  0  0  0  0
  2 19  1  0  0  0  0
  3 19  1  0  0  0  0
  4 11  2  0  0  0  0
  5  8  1  0  0  0  0
  6  8  2  0  0  0  0
  7 10  1  0  0  0  0
  7 11  1  0  0  0  0
  7 20  1  0  0  0  0
  8 16  1  0  0  0  0
  9 11  1  0  0  0  0
  9 14  1  0  0  0  0
  9 15  1  0  0  0  0
  9 21  1  0  0  0  0
 10 13  2  0  0  0  0
 10 17  1  0  0  0  0
 12 13  1  0  0  0  0
 12 16  2  0  0  0  0
 12 19  1  0  0  0  0
 13 22  1  0  0  0  0
 14 23  1  0  0  0  0
 14 24  1  0  0  0  0
 14 25  1  0  0  0  0
 15 26  1  0  0  0  0
 15 27  1  0  0  0  0
 15 28  1  0  0  0  0
 16 18  1  0  0  0  0
 17 18  2  0  0  0  0
 17 29  1  0  0  0  0
 18 30  1  0  0  0  0
M  CHG  2   5  -1   8   1
M  END
>  <DRUGBANK_ID>
DB00499

>  <SECONDARY_ACCESSION_NUMBERS>
APRD00984

>  <COMMON_NAME>
Flutamide

>  <CAS_NUMBER>
13311-84-7

>  <UNII>
76W6J0943E

>  <SYNONYMS>
4'-nitro-3'-trifluoromethylisobutyranilide; Flutamid; Flutamida; Flutamide; Flutamidum; FTA; NFBA; Niftolid; Niftolide; α,α,α-trifluoro-2-methyl-4'-nitro-m-propionotoluidide

$$$$
