
 OpenBabel10282417163D

 46 49  0  0  0  0  0  0  0  0999 V2000
    5.7893    1.2069   -0.0690 O   0  0  0  0  0  0  0  0  0  0  0  0
    4.6718    0.6922   -0.0664 C   0  0  0  0  0  0  0  0  0  0  0  0
    3.2894    1.4085   -0.0417 C   0  0  0  0  0  0  0  0  0  0  0  0
    2.3639    0.2402   -0.0416 C   0  0  0  0  0  0  0  0  0  0  0  0
    1.0077    0.1252    0.0110 C   0  0  0  0  0  0  0  0  0  0  0  0
    0.3688   -1.1287   -0.0352 C   0  0  0  0  0  0  0  0  0  0  0  0
    1.1073   -2.3089   -0.0704 C   0  0  0  0  0  0  0  0  0  0  0  0
    2.4957   -2.2303   -0.0745 C   0  0  0  0  0  0  0  0  0  0  0  0
    3.0788   -0.9582   -0.0713 C   0  0  0  0  0  0  0  0  0  0  0  0
    4.4341   -0.6843   -0.0770 N   0  0  0  0  0  0  0  0  0  0  0  0
    3.1091    2.7767   -0.0297 C   0  0  0  0  0  0  0  0  0  0  0  0
    1.7625    3.7193   -0.0074 C   0  0  0  0  0  0  0  0  0  0  0  0
    2.2914    5.1455   -0.0710 C   0  0  0  0  0  0  0  0  0  0  0  0
    1.6745    6.4060   -0.0692 C   0  0  0  0  0  0  0  0  0  0  0  0
    2.4679    7.5725   -0.0715 C   0  0  0  0  0  0  0  0  0  0  0  0
    3.8628    7.4749   -0.0751 C   0  0  0  0  0  0  0  0  0  0  0  0
    4.4744    6.2115   -0.0785 C   0  0  0  0  0  0  0  0  0  0  0  0
    3.6876    5.0543   -0.0782 C   0  0  0  0  0  0  0  0  0  0  0  0
    4.1400    3.7301   -0.0523 N   0  0  0  0  0  0  0  0  0  0  0  0
    0.5171    3.3320    0.0788 N   0  0  0  0  0  0  0  0  0  0  0  0
   -0.4555    4.3635   -0.0755 O   0  0  0  0  0  0  0  0  0  0  0  0
   -1.8201    3.8637   -0.0510 C   0  0  0  0  0  0  0  0  0  0  0  0
   -2.2303    3.0503   -1.2922 C   0  0  0  0  0  0  0  0  0  0  0  0
   -1.4639    1.7468   -1.3713 C   0  0  1  0  0  0  0  0  0  0  0  0
   -1.8270    0.9841   -0.2172 O   0  0  0  0  0  0  0  0  0  0  0  0
   -1.6906    0.9049   -2.6190 C   0  0  0  0  0  0  0  0  0  0  0  0
   -1.3973    1.6308   -3.8047 O   0  0  0  0  0  0  0  0  0  0  0  0
    5.1453   -1.4038   -0.0808 H   0  0  0  0  0  0  0  0  0  0  0  0
   -0.4008    1.9755   -1.4044 H   0  0  0  0  0  0  0  0  0  0  0  0
    5.1190    3.4729   -0.0803 H   0  0  0  0  0  0  0  0  0  0  0  0
    0.4502    1.0266    0.1052 H   0  0  0  0  0  0  0  0  0  0  0  0
   -0.7184   -1.1831   -0.0369 H   0  0  0  0  0  0  0  0  0  0  0  0
    0.5916   -3.2682   -0.0806 H   0  0  0  0  0  0  0  0  0  0  0  0
    3.0789   -3.1453   -0.0799 H   0  0  0  0  0  0  0  0  0  0  0  0
    0.5966    6.5255   -0.0573 H   0  0  0  0  0  0  0  0  0  0  0  0
    2.0064    8.5622   -0.0630 H   0  0  0  0  0  0  0  0  0  0  0  0
    4.4696    8.3826   -0.0713 H   0  0  0  0  0  0  0  0  0  0  0  0
    5.5589    6.1585   -0.0747 H   0  0  0  0  0  0  0  0  0  0  0  0
   -2.0146    3.3227    0.8833 H   0  0  0  0  0  0  0  0  0  0  0  0
   -2.4886    4.7348   -0.0221 H   0  0  0  0  0  0  0  0  0  0  0  0
   -3.3008    2.8051   -1.2361 H   0  0  0  0  0  0  0  0  0  0  0  0
   -2.0679    3.6552   -2.1867 H   0  0  0  0  0  0  0  0  0  0  0  0
   -1.4190    1.4196    0.5565 H   0  0  0  0  0  0  0  0  0  0  0  0
   -1.0179    0.0381   -2.5901 H   0  0  0  0  0  0  0  0  0  0  0  0
   -2.7105    0.5176   -2.6556 H   0  0  0  0  0  0  0  0  0  0  0  0
   -1.9763    2.4096   -3.8233 H   0  0  0  0  0  0  0  0  0  0  0  0
  2  1  2  0  0  0  0
  2 10  1  0  0  0  0
  3  2  1  0  0  0  0
  3  4  1  0  0  0  0
  4  5  1  0  0  0  0
  4  9  2  0  0  0  0
  5  6  2  0  0  0  0
  5 31  1  0  0  0  0
  6  7  1  0  0  0  0
  6 32  1  0  0  0  0
  7  8  2  0  0  0  0
  7 33  1  0  0  0  0
  8 34  1  0  0  0  0
  9  8  1  0  0  0  0
  9 10  1  0  0  0  0
 11  3  2  0  0  0  0
 11 19  1  0  0  0  0
 12 11  1  0  0  0  0
 12 20  2  0  0  0  0
 13 12  1  0  0  0  0
 13 18  1  0  0  0  0
 14 13  2  0  0  0  0
 14 35  1  0  0  0  0
 15 14  1  0  0  0  0
 15 16  2  0  0  0  0
 15 36  1  0  0  0  0
 16 17  1  0  0  0  0
 16 37  1  0  0  0  0
 17 38  1  0  0  0  0
 18 17  2  0  0  0  0
 18 19  1  0  0  0  0
 20 21  1  0  0  0  0
 22 21  1  0  0  0  0
 22 23  1  0  0  0  0
 22 39  1  0  0  0  0
 22 40  1  0  0  0  0
 23 24  1  0  0  0  0
 23 41  1  0  0  0  0
 23 42  1  0  0  0  0
 24 25  1  0  0  0  0
 24 26  1  0  0  0  0
 24 29  1  1  0  0  0
 25 43  1  0  0  0  0
 26 27  1  0  0  0  0
 26 44  1  0  0  0  0
 26 45  1  0  0  0  0
 27 46  1  0  0  0  0
 28 10  1  0  0  0  0
 30 19  1  0  0  0  0
M  END
>  <DRUGBANK_ID>
DB07766

>  <COMMON_NAME>
(2Z,3E)-2,3'-biindole-2',3(1H,1'H)-dione 3-{O-[(3R)-3,4-dihydroxybutyl]oxime}

$$$$
