
 OpenBabel10282417103D

116124  0  0  0  0  0  0  0  0999 V2000
   25.1459   -1.2059    1.4165 C   0  0  1  0  0  0  0  0  0  0  0  0
   25.4192   -3.0312    2.9042 C   0  0  2  0  0  0  0  0  0  0  0  0
   25.7980   -1.5269    2.7301 C   0  0  2  0  0  0  0  0  0  0  0  0
   26.7050   -0.4290    3.1369 N   0  0  0  0  0  0  0  0  0  0  0  0
   26.5480   -3.1042    1.3773 C   0  0  2  0  0  0  0  0  0  0  0  0
   25.5496   -2.3985    0.4914 C   0  0  2  0  0  0  0  0  0  0  0  0
   26.4462    0.6159    2.2218 C   0  0  0  0  0  0  0  0  0  0  0  0
   26.5324   -4.3618    1.4791 C   0  0  1  0  0  0  0  0  0  0  0  0
   25.3989    0.3789    1.3183 C   0  0  0  0  0  0  0  0  0  0  0  0
   24.9582    3.0776    0.3388 C   0  0  0  0  0  0  0  0  0  0  0  0
   27.0124    1.8291    2.0781 C   0  0  0  0  0  0  0  0  0  0  0  0
   24.6299    1.5754    0.3964 C   0  0  0  0  0  0  0  0  0  0  0  0
   24.2598   -3.0878    0.1291 N   0  0  3  0  0  0  0  0  0  0  0  0
   24.0033   -2.9894    4.2657 C   0  0  0  0  0  0  0  0  0  0  0  0
   26.3228    2.9078    1.1964 C   0  0  0  0  0  0  0  0  0  0  0  0
   23.6960   -1.4278    1.7343 C   0  0  0  0  0  0  0  0  0  0  0  0
   27.6890   -0.4795    4.1630 C   0  0  0  0  0  0  0  0  0  0  0  0
   27.5876   -4.3902   -0.1277 O   0  0  0  0  0  0  0  0  0  0  0  0
   25.8009   -4.7818    2.2208 C   0  0  0  0  0  0  0  0  0  0  0  0
   28.4494   -4.1218   -1.3804 C   0  0  0  0  0  0  0  0  0  0  0  0
   23.1646   -2.4135    0.7678 C   0  0  0  0  0  0  0  0  0  0  0  0
   25.7587   -2.3345    4.5465 O   0  0  0  0  0  0  0  0  0  0  0  0
   24.4903   -5.0704    1.8216 C   0  0  0  0  0  0  0  0  0  0  0  0
   24.0612   -3.5643    5.3704 O   0  0  0  0  0  0  0  0  0  0  0  0
   28.3793   -1.4216    4.5545 O   0  0  0  0  0  0  0  0  0  0  0  0
   28.9667   -4.8608   -2.2373 O   0  0  0  0  0  0  0  0  0  0  0  0
   27.9090   -2.6093    1.8261 C   0  0  0  0  0  0  0  0  0  0  0  0
   24.1371   -4.5571    0.3603 C   0  0  0  0  0  0  0  0  0  0  0  0
   23.1286   -1.6805    4.5155 O   0  0  0  0  0  0  0  0  0  0  0  0
   27.3090    3.8911    1.0856 O   0  0  0  0  0  0  0  0  0  0  0  0
   28.9532   -2.7575   -1.4237 C   0  0  0  0  0  0  0  0  0  0  0  0
   26.8023    4.8237    1.9679 C   0  0  0  0  0  0  0  0  0  0  0  0
   22.0375   -1.5393    5.7236 C   0  0  0  0  0  0  0  0  0  0  0  0
   29.1639   -2.5129    1.1657 C   0  0  0  0  0  0  0  0  0  0  0  0
   26.6502   -2.1167    3.0675 H   0  0  0  0  0  0  0  0  0  0  0  0
   26.0752   -2.2334   -0.4409 H   0  0  0  0  0  0  0  0  0  0  0  0
   24.7931    4.2843   -1.2106 C   0  0  2  0  0  0  0  0  0  0  0  0
   24.0433    6.0104   -2.2520 C   0  0  0  0  0  0  0  0  0  0  0  0
   24.9574    7.1400   -3.4342 C   0  0  0  0  0  0  0  0  0  0  0  0
   22.6829    6.5433   -3.4969 N   0  0  0  0  0  0  0  0  0  0  0  0
   24.6330    6.7753   -5.4671 C   0  0  0  0  0  0  0  0  0  0  0  0
   22.9228    6.4952   -5.3849 C   0  0  0  0  0  0  0  0  0  0  0  0
   27.7698    5.1505   -4.1647 N   0  0  1  0  0  0  0  0  0  0  0  0
   24.5456    3.2429   -2.1916 C   0  0  0  0  0  0  0  0  0  0  0  0
   26.6069    7.1224   -2.5820 C   0  0  0  0  0  0  0  0  0  0  0  0
   26.0786    6.0060   -4.4302 C   0  0  2  0  0  0  0  0  0  0  0  0
   25.6902    4.2804   -2.8346 C   0  0  1  0  0  0  0  0  0  0  0  0
   27.2566    5.9100   -5.2814 C   0  0  0  0  0  0  0  0  0  0  0  0
   26.9855    3.9988   -3.5163 C   0  0  0  0  0  0  0  0  0  0  0  0
   27.9313    6.3264   -3.1695 C   0  0  0  0  0  0  0  0  0  0  0  0
   24.9545    4.5858   -3.9700 C   0  0  0  0  0  0  0  0  0  0  0  0
   24.3671    5.6853   -4.2727 O   0  0  0  0  0  0  0  0  0  0  0  0
   25.2836    5.1352   -6.2554 C   0  0  0  0  0  0  0  0  0  0  0  0
   22.7991    5.3147   -6.3272 C   0  0  0  0  0  0  0  0  0  0  0  0
   26.2887    7.9034   -5.0313 C   0  0  0  0  0  0  0  0  0  0  0  0
   25.9666    9.0957   -4.1154 C   0  0  0  0  0  0  0  0  0  0  0  0
   24.9892    3.8661   -6.6536 C   0  0  0  0  0  0  0  0  0  0  0  0
   23.6890    4.0823   -6.8007 C   0  0  0  0  0  0  0  0  0  0  0  0
   26.4662    3.1785   -1.2166 C   0  0  0  0  0  0  0  0  0  0  0  0
   26.5892    1.6722   -1.1344 O   0  0  0  0  0  0  0  0  0  0  0  0
   27.6011    3.6798   -1.1370 O   0  0  0  0  0  0  0  0  0  0  0  0
   26.0885    0.1881   -1.3046 C   0  0  0  0  0  0  0  0  0  0  0  0
   26.0548   -4.8665    0.4242 H   0  0  0  0  0  0  0  0  0  0  0  0
   27.9261    2.0545    2.6479 H   0  0  0  0  0  0  0  0  0  0  0  0
   24.1038    1.1351   -0.4841 H   0  0  0  0  0  0  0  0  0  0  0  0
   23.3268   -0.4551    2.0178 H   0  0  0  0  0  0  0  0  0  0  0  0
   23.2846   -1.9599    2.5696 H   0  0  0  0  0  0  0  0  0  0  0  0
   27.7578    0.4775    4.6918 H   0  0  0  0  0  0  0  0  0  0  0  0
   26.3303   -5.7871    2.6071 H   0  0  0  0  0  0  0  0  0  0  0  0
   22.4443   -1.8526    0.2035 H   0  0  0  0  0  0  0  0  0  0  0  0
   22.6335   -3.2323    1.2631 H   0  0  0  0  0  0  0  0  0  0  0  0
   25.0643   -1.8732    5.1599 H   0  0  0  0  0  0  0  0  0  0  0  0
   23.7981   -4.6536    2.5549 H   0  0  0  0  0  0  0  0  0  0  0  0
   27.6918   -1.5619    1.6606 H   0  0  0  0  0  0  0  0  0  0  0  0
   28.1488   -2.9778    2.8253 H   0  0  0  0  0  0  0  0  0  0  0  0
   24.6796   -4.9393   -0.5266 H   0  0  0  0  0  0  0  0  0  0  0  0
   23.2447   -5.1590    0.2167 H   0  0  0  0  0  0  0  0  0  0  0  0
   28.0734   -2.1428   -1.3127 H   0  0  0  0  0  0  0  0  0  0  0  0
   29.6551   -3.0519   -0.6584 H   0  0  0  0  0  0  0  0  0  0  0  0
   29.7603   -2.2298   -1.9327 H   0  0  0  0  0  0  0  0  0  0  0  0
   25.7180    4.8800    1.8303 H   0  0  0  0  0  0  0  0  0  0  0  0
   27.0823    4.4508    2.9526 H   0  0  0  0  0  0  0  0  0  0  0  0
   27.2589    5.7659    1.7125 H   0  0  0  0  0  0  0  0  0  0  0  0
   21.4306   -2.4463    5.7180 H   0  0  0  0  0  0  0  0  0  0  0  0
   22.4511   -1.3844    6.7453 H   0  0  0  0  0  0  0  0  0  0  0  0
   21.3044   -0.6937    5.5960 H   0  0  0  0  0  0  0  0  0  0  0  0
   28.8296   -1.8723    0.3552 H   0  0  0  0  0  0  0  0  0  0  0  0
   29.8843   -1.8728    1.6457 H   0  0  0  0  0  0  0  0  0  0  0  0
   29.4726   -3.5522    1.0601 H   0  0  0  0  0  0  0  0  0  0  0  0
   22.7244    7.5993   -3.5457 H   0  0  0  0  0  0  0  0  0  0  0  0
   23.9086    2.9452   -3.0465 H   0  0  0  0  0  0  0  0  0  0  0  0
   23.5427    3.3922   -1.6861 H   0  0  0  0  0  0  0  0  0  0  0  0
   27.0111    7.7465   -1.7906 H   0  0  0  0  0  0  0  0  0  0  0  0
   25.9776    6.8128   -1.7485 H   0  0  0  0  0  0  0  0  0  0  0  0
   25.9699    5.1691   -2.2157 H   0  0  0  0  0  0  0  0  0  0  0  0
   27.8235    5.7900   -6.2046 H   0  0  0  0  0  0  0  0  0  0  0  0
   26.7090    6.2569   -6.2978 H   0  0  0  0  0  0  0  0  0  0  0  0
   27.7901    3.4728   -3.0615 H   0  0  0  0  0  0  0  0  0  0  0  0
   26.5101    3.0982   -3.8960 H   0  0  0  0  0  0  0  0  0  0  0  0
   28.6998    6.8391   -3.7825 H   0  0  0  0  0  0  0  0  0  0  0  0
   28.6057    6.4592   -2.3298 H   0  0  0  0  0  0  0  0  0  0  0  0
   24.3129    3.9491   -4.6328 H   0  0  0  0  0  0  0  0  0  0  0  0
   23.8527    4.5222   -3.3742 H   0  0  0  0  0  0  0  0  0  0  0  0
   23.9272    6.7953   -4.2776 H   0  0  0  0  0  0  0  0  0  0  0  0
   26.3785    4.5003   -5.9055 H   0  0  0  0  0  0  0  0  0  0  0  0
   21.8398    5.2863   -6.8031 H   0  0  0  0  0  0  0  0  0  0  0  0
   27.2995    8.0079   -5.4340 H   0  0  0  0  0  0  0  0  0  0  0  0
   25.7377    8.2016   -5.9762 H   0  0  0  0  0  0  0  0  0  0  0  0
   26.4743    8.9797   -3.1794 H   0  0  0  0  0  0  0  0  0  0  0  0
   26.3959    9.9938   -4.4924 H   0  0  0  0  0  0  0  0  0  0  0  0
   24.8887    9.2134   -3.8966 H   0  0  0  0  0  0  0  0  0  0  0  0
   25.7291    3.0148   -6.6393 H   0  0  0  0  0  0  0  0  0  0  0  0
   23.2003    3.2227   -7.1960 H   0  0  0  0  0  0  0  0  0  0  0  0
   25.2285   -0.2393   -0.7599 H   0  0  0  0  0  0  0  0  0  0  0  0
   25.7569    0.1606   -2.3129 H   0  0  0  0  0  0  0  0  0  0  0  0
   26.8300   -0.5632   -0.9682 H   0  0  0  0  0  0  0  0  0  0  0  0
  1  9  1  1  0  0  0
  2  3  1  0  0  0  0
  2 22  1  1  0  0  0
  2 14  1  0  0  0  0
  3  4  1  0  0  0  0
  3  1  1  0  0  0  0
  3 35  1  6  0  0  0
  4  7  1  0  0  0  0
  5  6  1  0  0  0  0
  5 27  1  1  0  0  0
  6  1  1  0  0  0  0
  6 36  1  1  0  0  0
  7  9  2  0  0  0  0
  7 11  1  0  0  0  0
  8  2  1  0  0  0  0
  8  5  1  0  0  0  0
  8 18  1  0  0  0  0
  8 63  1  6  0  0  0
  9 12  1  0  0  0  0
 11 15  2  0  0  0  0
 11 64  1  0  0  0  0
 12 10  2  0  0  0  0
 12 65  1  0  0  0  0
 13  6  1  0  0  0  0
 15 10  1  0  0  0  0
 16  1  1  0  0  0  0
 16 66  1  0  0  0  0
 16 67  1  0  0  0  0
 17 68  1  0  0  0  0
 17  4  1  0  0  0  0
 19  5  1  0  0  0  0
 19 69  1  0  0  0  0
 20 18  1  0  0  0  0
 21 16  1  0  0  0  0
 21 13  1  0  0  0  0
 21 70  1  0  0  0  0
 21 71  1  0  0  0  0
 22 72  1  0  0  0  0
 23 28  1  0  0  0  0
 23 19  2  0  0  0  0
 23 73  1  0  0  0  0
 24 14  2  0  0  0  0
 25 17  2  0  0  0  0
 26 20  2  0  0  0  0
 27 74  1  0  0  0  0
 27 75  1  0  0  0  0
 28 13  1  0  0  0  0
 28 76  1  0  0  0  0
 28 77  1  0  0  0  0
 29 14  1  0  0  0  0
 30 15  1  0  0  0  0
 31 20  1  0  0  0  0
 31 78  1  0  0  0  0
 31 79  1  0  0  0  0
 31 80  1  0  0  0  0
 32 30  1  0  0  0  0
 32 81  1  0  0  0  0
 32 82  1  0  0  0  0
 32 83  1  0  0  0  0
 33 29  1  0  0  0  0
 33 84  1  0  0  0  0
 33 85  1  0  0  0  0
 33 86  1  0  0  0  0
 34 27  1  0  0  0  0
 34 87  1  0  0  0  0
 34 88  1  0  0  0  0
 34 89  1  0  0  0  0
 37 59  1  6  0  0  0
 37 10  1  0  0  0  0
 38 37  1  0  0  0  0
 39 38  2  0  0  0  0
 40 38  1  0  0  0  0
 40 90  1  0  0  0  0
 41 39  1  0  0  0  0
 42 40  1  0  0  0  0
 42 41  1  0  0  0  0
 43 49  1  6  0  0  0
 43 50  1  0  0  0  0
 44 37  1  0  0  0  0
 44 91  1  0  0  0  0
 44 92  1  0  0  0  0
 45 39  1  0  0  0  0
 45 93  1  0  0  0  0
 45 94  1  0  0  0  0
 46 51  1  0  0  0  0
 46 55  1  0  0  0  0
 46 52  1  6  0  0  0
 47 44  1  0  0  0  0
 47 49  1  0  0  0  0
 47 95  1  1  0  0  0
 48 46  1  0  0  0  0
 48 43  1  0  0  0  0
 48 96  1  0  0  0  0
 48 97  1  0  0  0  0
 49 98  1  0  0  0  0
 49 99  1  0  0  0  0
 50 45  1  0  0  0  0
 50100  1  0  0  0  0
 50101  1  0  0  0  0
 51 47  1  0  0  0  0
 51102  1  0  0  0  0
 51103  1  0  0  0  0
 52104  1  0  0  0  0
 53 41  2  0  0  0  0
 53105  1  0  0  0  0
 54 42  2  0  0  0  0
 54106  1  0  0  0  0
 55107  1  0  0  0  0
 55108  1  0  0  0  0
 56 55  1  0  0  0  0
 56109  1  0  0  0  0
 56110  1  0  0  0  0
 56111  1  0  0  0  0
 57 53  1  0  0  0  0
 57112  1  0  0  0  0
 58 54  1  0  0  0  0
 58 57  2  0  0  0  0
 58113  1  0  0  0  0
 59 60  1  0  0  0  0
 59 61  2  0  0  0  0
 60 62  1  0  0  0  0
 62114  1  0  0  0  0
 62115  1  0  0  0  0
 62116  1  0  0  0  0
M  END
>  <DRUGBANK_ID>
DB00541

>  <SECONDARY_ACCESSION_NUMBERS>
APRD00495

>  <COMMON_NAME>
Vincristine

>  <CAS_NUMBER>
57-22-7

>  <UNII>
5J49Q6B70F

>  <SYNONYMS>
22-Oxovincaleukoblastin; 22-Oxovincaleukoblastine; Leurocristine; Vincristin; Vincristina; Vincristine; Vincristinum

$$$$
