
 OpenBabel10282417233D

 17 16  0  0  0  0  0  0  0  0999 V2000
    0.9108    0.0049   -0.0195 N   0  0  0  0  0  0  0  0  0  0  0  0
    0.4334    0.6358    1.2117 C   0  0  0  0  0  0  0  0  0  0  0  0
    0.9498    2.0819    1.3758 C   0  0  3  0  0  0  0  0  0  0  0  0
    0.4625    2.7450    2.6646 C   0  0  0  0  0  0  0  0  0  0  0  0
    0.9199    1.9969    3.8918 C   0  0  0  0  0  0  0  0  0  0  0  0
    1.7245    2.6874    4.7226 O   0  0  0  0  0  0  0  0  0  0  0  0
    0.4953    2.8832    0.2733 O   0  0  0  0  0  0  0  0  0  0  0  0
    0.5957    0.8435    4.1442 O   0  0  0  0  0  0  0  0  0  0  0  0
    0.5581    0.4860   -0.8394 H   0  0  0  0  0  0  0  0  0  0  0  0
    1.9284    0.0184   -0.0419 H   0  0  0  0  0  0  0  0  0  0  0  0
   -0.6623    0.6249    1.2141 H   0  0  0  0  0  0  0  0  0  0  0  0
    0.7787    0.0031    2.0301 H   0  0  0  0  0  0  0  0  0  0  0  0
    2.0457    2.0947    1.3467 H   0  0  0  0  0  0  0  0  0  0  0  0
    0.8049    3.7868    2.6961 H   0  0  0  0  0  0  0  0  0  0  0  0
   -0.6327    2.8026    2.6816 H   0  0  0  0  0  0  0  0  0  0  0  0
    1.8934    3.6171    4.4852 H   0  0  0  0  0  0  0  0  0  0  0  0
    0.7911    2.4426   -0.5422 H   0  0  0  0  0  0  0  0  0  0  0  0
  1  2  1  0  0  0  0
  1  9  1  0  0  0  0
  1 10  1  0  0  0  0
  2  3  1  0  0  0  0
  2 11  1  0  0  0  0
  2 12  1  0  0  0  0
  3  7  1  0  0  0  0
  3  4  1  0  0  0  0
  3 13  1  0  0  0  0
  4  5  1  0  0  0  0
  4 14  1  0  0  0  0
  4 15  1  0  0  0  0
  5  6  1  0  0  0  0
  5  8  2  0  0  0  0
  6 16  1  0  0  0  0
  7 17  1  0  0  0  0
M  END
>  <DRUGBANK_ID>
DB15985

>  <COMMON_NAME>
Gamma-amino-beta-hydroxybutyric acid

>  <CAS_NUMBER>
924-49-2

>  <UNII>
1ZHM019FLD

>  <SYNONYMS>
4-Amino-3-hydroxybutyric acid; Buxamine; Gamma-amino-beta-hydroxybutyric acid

$$$$
