
 OpenBabel10282417143D

 34 33  0  0  0  0  0  0  0  0999 V2000
    1.7691   -0.5368    0.2430 C   0  0  0  0  0  0  0  0  0  0  0  0
    0.9866   -1.3443   -0.6529 O   0  0  0  0  0  0  0  0  0  0  0  0
    1.3938   -1.2600   -2.0290 C   0  0  0  0  0  0  0  0  0  0  0  0
    1.2010    0.0849   -2.8288 C   0  0  0  0  0  0  0  0  0  0  0  0
    1.2420    1.3162   -2.1255 O   0  0  0  0  0  0  0  0  0  0  0  0
    0.2765    1.5009   -1.0451 C   0  0  0  0  0  0  0  0  0  0  0  0
   -1.1200    0.9505   -0.5017 C   0  0  0  0  0  0  0  0  0  0  0  0
   -1.9281    0.0423   -1.3006 O   0  0  0  0  0  0  0  0  0  0  0  0
   -1.6359   -0.1781   -2.6934 C   0  0  0  0  0  0  0  0  0  0  0  0
   -1.6524    1.0637   -3.8310 C   0  0  0  0  0  0  0  0  0  0  0  0
   -1.3624    2.4629   -3.5335 O   0  0  0  0  0  0  0  0  0  0  0  0
   -1.9320    2.8896   -2.3124 C   0  0  0  0  0  0  0  0  0  0  0  0
   -3.3803    2.6834   -1.8483 C   0  0  0  0  0  0  0  0  0  0  0  0
   -3.9751    1.4196   -2.0751 O   0  0  0  0  0  0  0  0  0  0  0  0
    1.1412   -0.2919    1.1192 H   0  0  0  0  0  0  0  0  0  0  0  0
    2.0527    0.4239   -0.1898 H   0  0  0  0  0  0  0  0  0  0  0  0
    2.7762   -0.8721    0.3969 H   0  0  0  0  0  0  0  0  0  0  0  0
    2.4465   -1.5190   -2.0400 H   0  0  0  0  0  0  0  0  0  0  0  0
    0.8628   -2.0769   -2.5504 H   0  0  0  0  0  0  0  0  0  0  0  0
    1.6773    0.0002   -3.8209 H   0  0  0  0  0  0  0  0  0  0  0  0
    0.2777    0.2742   -3.2947 H   0  0  0  0  0  0  0  0  0  0  0  0
    0.4904    0.6077   -0.6090 H   0  0  0  0  0  0  0  0  0  0  0  0
    0.6894    2.2900   -0.4067 H   0  0  0  0  0  0  0  0  0  0  0  0
   -1.1657    0.6291    0.5545 H   0  0  0  0  0  0  0  0  0  0  0  0
   -1.6369    1.8796   -0.2436 H   0  0  0  0  0  0  0  0  0  0  0  0
   -0.7522   -0.7772   -2.5853 H   0  0  0  0  0  0  0  0  0  0  0  0
   -2.1609   -1.0294   -3.1642 H   0  0  0  0  0  0  0  0  0  0  0  0
   -1.0177    0.8137   -4.6912 H   0  0  0  0  0  0  0  0  0  0  0  0
   -2.6423    1.1241   -4.2631 H   0  0  0  0  0  0  0  0  0  0  0  0
   -1.6150    1.9744   -1.9244 H   0  0  0  0  0  0  0  0  0  0  0  0
   -1.3311    3.5831   -1.7052 H   0  0  0  0  0  0  0  0  0  0  0  0
   -3.4129    2.7559   -0.7459 H   0  0  0  0  0  0  0  0  0  0  0  0
   -3.9905    3.4486   -2.2960 H   0  0  0  0  0  0  0  0  0  0  0  0
   -3.8853    1.1879   -3.0420 H   0  0  0  0  0  0  0  0  0  0  0  0
  1  2  1  0  0  0  0
  1 15  1  0  0  0  0
  1 16  1  0  0  0  0
  1 17  1  0  0  0  0
  2  3  1  0  0  0  0
  3  4  1  0  0  0  0
  3 18  1  0  0  0  0
  3 19  1  0  0  0  0
  4  5  1  0  0  0  0
  4 20  1  0  0  0  0
  4 21  1  0  0  0  0
  5  6  1  0  0  0  0
  6  7  1  0  0  0  0
  6 22  1  0  0  0  0
  6 23  1  0  0  0  0
  7  8  1  0  0  0  0
  7 24  1  0  0  0  0
  7 25  1  0  0  0  0
  8  9  1  0  0  0  0
  9 10  1  0  0  0  0
  9 26  1  0  0  0  0
  9 27  1  0  0  0  0
 10 11  1  0  0  0  0
 10 28  1  0  0  0  0
 10 29  1  0  0  0  0
 11 12  1  0  0  0  0
 12 13  1  0  0  0  0
 12 30  1  0  0  0  0
 12 31  1  0  0  0  0
 13 14  1  0  0  0  0
 13 32  1  0  0  0  0
 13 33  1  0  0  0  0
 14 34  1  0  0  0  0
M  END
>  <DRUGBANK_ID>
DB04332

>  <SECONDARY_ACCESSION_NUMBERS>
EXPT01367

>  <COMMON_NAME>
2-{2-[2-2-(Methoxy-Ethoxy)-Ethoxy]-Ethoxy}-Ethanol

$$$$
