DID
 OpenBabel10282417133D

 52 53  0  0  0  0  0  0  0  0999 V2000
    1.2570    0.3821    0.2805 C   0  0  0  0  0  0  0  0  0  0  0  0
    0.3907   -0.6495    0.0929 C   0  0  0  0  0  0  0  0  0  0  0  0
   -0.9020   -0.4460    0.4836 C   0  0  0  0  0  0  0  0  0  0  0  0
   -1.5174    0.6945    0.1038 C   0  0  0  0  0  0  0  0  0  0  0  0
   -0.6631    1.7882   -0.0203 C   0  0  0  0  0  0  0  0  0  0  0  0
    0.7345    1.6305    0.1001 C   0  0  0  0  0  0  0  0  0  0  0  0
    2.5958    0.1022    0.8697 C   0  0  0  0  0  0  0  0  0  0  0  0
    3.5788    1.0672    0.7346 N   0  0  0  0  0  0  0  0  0  0  0  0
    2.8168   -1.0386    1.3797 N   0  0  0  0  0  0  0  0  0  0  0  0
   -2.8486    0.7850   -0.1883 O   0  0  0  0  0  0  0  0  0  0  0  0
   -3.6774   -0.4031   -0.3541 C   0  0  0  0  0  0  0  0  0  0  0  0
   -3.4961   -1.2537   -1.6444 C   0  0  0  0  0  0  0  0  0  0  0  0
   -2.2132   -2.0272   -1.6442 C   0  0  0  0  0  0  0  0  0  0  0  0
   -2.1743   -2.9127   -0.4047 C   0  0  0  0  0  0  0  0  0  0  0  0
   -2.8265   -4.2526   -0.4275 C   0  0  0  0  0  0  0  0  0  0  0  0
   -2.2416   -5.0675   -1.5531 C   0  0  0  0  0  0  0  0  0  0  0  0
   -0.9128   -5.6137   -1.3298 O   0  0  0  0  0  0  0  0  0  0  0  0
    0.2015   -4.8438   -1.1117 C   0  0  0  0  0  0  0  0  0  0  0  0
    0.5101   -4.2250    0.0941 C   0  0  0  0  0  0  0  0  0  0  0  0
    1.6552   -3.3544    0.2294 C   0  0  0  0  0  0  0  0  0  0  0  0
    2.6207   -3.1825   -0.7930 C   0  0  0  0  0  0  0  0  0  0  0  0
    2.4258   -4.1030   -1.8199 C   0  0  0  0  0  0  0  0  0  0  0  0
    1.2435   -4.8627   -2.0179 C   0  0  0  0  0  0  0  0  0  0  0  0
    3.8478   -2.2503   -1.0817 C   0  0  0  0  0  0  0  0  0  0  0  0
    4.6969   -2.4626   -2.1149 N   0  0  0  0  0  0  0  0  0  0  0  0
    4.4767   -1.2123   -0.6075 N   0  0  0  0  0  0  0  0  0  0  0  0
    0.6427   -1.5285   -0.4708 H   0  0  0  0  0  0  0  0  0  0  0  0
   -1.4248   -1.2636    0.9106 H   0  0  0  0  0  0  0  0  0  0  0  0
   -1.0671    2.7825   -0.1043 H   0  0  0  0  0  0  0  0  0  0  0  0
    1.4056    2.4752    0.0432 H   0  0  0  0  0  0  0  0  0  0  0  0
    4.5527    0.7940    0.6296 H   0  0  0  0  0  0  0  0  0  0  0  0
    3.3660    1.7886    0.0672 H   0  0  0  0  0  0  0  0  0  0  0  0
    3.7654   -1.3611    1.6579 H   0  0  0  0  0  0  0  0  0  0  0  0
   -3.6747   -1.0050    0.5616 H   0  0  0  0  0  0  0  0  0  0  0  0
   -4.7085   -0.0430   -0.4060 H   0  0  0  0  0  0  0  0  0  0  0  0
   -4.2969   -2.0013   -1.7333 H   0  0  0  0  0  0  0  0  0  0  0  0
   -3.5201   -0.6300   -2.5404 H   0  0  0  0  0  0  0  0  0  0  0  0
   -2.0099   -2.5889   -2.5584 H   0  0  0  0  0  0  0  0  0  0  0  0
   -1.3961   -1.3036   -1.6841 H   0  0  0  0  0  0  0  0  0  0  0  0
   -1.1277   -2.9805   -0.2603 H   0  0  0  0  0  0  0  0  0  0  0  0
   -2.5511   -2.5190    0.5354 H   0  0  0  0  0  0  0  0  0  0  0  0
   -2.6626   -4.7463    0.5402 H   0  0  0  0  0  0  0  0  0  0  0  0
   -3.9102   -4.0871   -0.5099 H   0  0  0  0  0  0  0  0  0  0  0  0
   -2.9209   -5.9203   -1.6666 H   0  0  0  0  0  0  0  0  0  0  0  0
   -2.3155   -4.5351   -2.5073 H   0  0  0  0  0  0  0  0  0  0  0  0
   -0.2135   -4.2610    0.9144 H   0  0  0  0  0  0  0  0  0  0  0  0
    1.5896   -2.7585    1.1388 H   0  0  0  0  0  0  0  0  0  0  0  0
    3.2448   -4.2774   -2.5034 H   0  0  0  0  0  0  0  0  0  0  0  0
    1.1976   -5.5005   -2.8903 H   0  0  0  0  0  0  0  0  0  0  0  0
    5.4344   -1.7926   -1.8542 H   0  0  0  0  0  0  0  0  0  0  0  0
    5.0930   -3.3822   -2.0781 H   0  0  0  0  0  0  0  0  0  0  0  0
    4.0525   -0.8133    0.1988 H   0  0  0  0  0  0  0  0  0  0  0  0
  1  2  2  0  0  0  0
  1  6  1  0  0  0  0
  1  7  1  0  0  0  0
  2  3  1  0  0  0  0
  2 27  1  0  0  0  0
  3  4  2  0  0  0  0
  3 28  1  0  0  0  0
  4  5  1  0  0  0  0
  4 10  1  0  0  0  0
  5  6  2  0  0  0  0
  5 29  1  0  0  0  0
  6 30  1  0  0  0  0
  7  8  1  0  0  0  0
  7  9  2  0  0  0  0
  8 31  1  0  0  0  0
  8 32  1  0  0  0  0
  9 33  1  0  0  0  0
 10 11  1  0  0  0  0
 11 12  1  0  0  0  0
 11 34  1  0  0  0  0
 11 35  1  0  0  0  0
 12 13  1  0  0  0  0
 12 36  1  0  0  0  0
 12 37  1  0  0  0  0
 13 14  1  0  0  0  0
 13 38  1  0  0  0  0
 13 39  1  0  0  0  0
 14 15  1  0  0  0  0
 14 40  1  0  0  0  0
 14 41  1  0  0  0  0
 15 16  1  0  0  0  0
 15 42  1  0  0  0  0
 15 43  1  0  0  0  0
 16 17  1  0  0  0  0
 16 44  1  0  0  0  0
 16 45  1  0  0  0  0
 17 18  1  0  0  0  0
 18 19  2  0  0  0  0
 18 23  1  0  0  0  0
 19 20  1  0  0  0  0
 19 46  1  0  0  0  0
 20 21  2  0  0  0  0
 20 47  1  0  0  0  0
 21 22  1  0  0  0  0
 21 24  1  0  0  0  0
 22 23  2  0  0  0  0
 22 48  1  0  0  0  0
 23 49  1  0  0  0  0
 24 25  1  0  0  0  0
 24 26  2  0  0  0  0
 25 50  1  0  0  0  0
 25 51  1  0  0  0  0
 26 52  1  0  0  0  0
M  END
>  <DRUGBANK_ID>
DB03808

>  <SECONDARY_ACCESSION_NUMBERS>
EXPT01203

>  <COMMON_NAME>
Hexamidine

>  <CAS_NUMBER>
3811-75-4

>  <UNII>
3483C2H13H

>  <SYNONYMS>
hexamidina; Hexamidine

$$$$
