VX3
 OpenBabel10282417173D

 39 42  0  0  0  0  0  0  0  0999 V2000
    0.9917    0.0393    0.0779 O   0  0  0  0  0  0  0  0  0  0  0  0
    5.6139    1.8622   -2.8964 C   0  0  0  0  0  0  0  0  0  0  0  0
    8.1817    4.4004   -3.9549 C   0  0  0  0  0  0  0  0  0  0  0  0
    2.2155    0.0399    0.0131 C   0  0  0  0  0  0  0  0  0  0  0  0
    2.9706   -0.9922    0.4355 O   0  0  0  0  0  0  0  0  0  0  0  0
    2.9671    1.1992   -0.5072 C   0  0  0  0  0  0  0  0  0  0  0  0
    4.0261    1.1128   -1.4347 C   0  0  0  0  0  0  0  0  0  0  0  0
    4.6323    0.0416   -2.0661 N   0  0  0  0  0  0  0  0  0  0  0  0
    5.5924    0.4762   -2.9572 C   0  0  0  0  0  0  0  0  0  0  0  0
    6.4084   -0.4136   -3.7799 C   0  0  0  0  0  0  0  0  0  0  0  0
    5.8357   -1.2338   -4.7571 C   0  0  0  0  0  0  0  0  0  0  0  0
    6.6559   -1.9542   -5.6311 C   0  0  0  0  0  0  0  0  0  0  0  0
    8.0443   -1.8359   -5.5503 C   0  0  0  0  0  0  0  0  0  0  0  0
    8.6175   -0.9902   -4.6052 C   0  0  0  0  0  0  0  0  0  0  0  0
    7.8041   -0.3144   -3.6993 C   0  0  0  0  0  0  0  0  0  0  0  0
    6.4609    2.7061   -3.7321 C   0  0  0  0  0  0  0  0  0  0  0  0
    7.3538    3.6136   -3.1495 C   0  0  0  0  0  0  0  0  0  0  0  0
    8.1160    4.2904   -5.3435 C   0  0  0  0  0  0  0  0  0  0  0  0
    7.1878    3.4332   -5.9304 C   0  0  0  0  0  0  0  0  0  0  0  0
    6.3781    2.6287   -5.1283 C   0  0  0  0  0  0  0  0  0  0  0  0
    4.6253    2.2671   -1.9578 C   0  0  0  0  0  0  0  0  0  0  0  0
    4.1674    3.5367   -1.5523 C   0  0  0  0  0  0  0  0  0  0  0  0
    3.1138    3.6355   -0.6492 C   0  0  0  0  0  0  0  0  0  0  0  0
    2.5210    2.4841   -0.1408 C   0  0  0  0  0  0  0  0  0  0  0  0
    8.8765    5.1014   -3.4996 H   0  0  0  0  0  0  0  0  0  0  0  0
    3.9192   -0.7968    0.5473 H   0  0  0  0  0  0  0  0  0  0  0  0
    4.3974   -0.9312   -1.9168 H   0  0  0  0  0  0  0  0  0  0  0  0
    4.7567   -1.2806   -4.8815 H   0  0  0  0  0  0  0  0  0  0  0  0
    6.2134   -2.5838   -6.3989 H   0  0  0  0  0  0  0  0  0  0  0  0
    8.6820   -2.3926   -6.2318 H   0  0  0  0  0  0  0  0  0  0  0  0
    9.6924   -0.8338   -4.5851 H   0  0  0  0  0  0  0  0  0  0  0  0
    8.2617    0.3355   -2.9564 H   0  0  0  0  0  0  0  0  0  0  0  0
    7.4227    3.7035   -2.0684 H   0  0  0  0  0  0  0  0  0  0  0  0
    8.7875    4.8720   -5.9697 H   0  0  0  0  0  0  0  0  0  0  0  0
    7.0915    3.3873   -7.0116 H   0  0  0  0  0  0  0  0  0  0  0  0
    5.6892    1.9325   -5.6005 H   0  0  0  0  0  0  0  0  0  0  0  0
    4.6124    4.4348   -1.9749 H   0  0  0  0  0  0  0  0  0  0  0  0
    2.7427    4.6177   -0.3677 H   0  0  0  0  0  0  0  0  0  0  0  0
    1.6741    2.5867    0.5365 H   0  0  0  0  0  0  0  0  0  0  0  0
  1  4  2  0  0  0  0
  2 21  1  0  0  0  0
  3 17  1  0  0  0  0
  3 25  1  0  0  0  0
  4  5  1  0  0  0  0
  5 26  1  0  0  0  0
  6  4  1  0  0  0  0
  6 24  2  0  0  0  0
  7  6  1  0  0  0  0
  8  7  1  0  0  0  0
  8 27  1  0  0  0  0
  9  2  2  0  0  0  0
  9  8  1  0  0  0  0
 10  9  1  0  0  0  0
 11 10  2  0  0  0  0
 11 28  1  0  0  0  0
 12 11  1  0  0  0  0
 12 29  1  0  0  0  0
 13 12  2  0  0  0  0
 13 14  1  0  0  0  0
 13 30  1  0  0  0  0
 14 15  2  0  0  0  0
 14 31  1  0  0  0  0
 15 10  1  0  0  0  0
 15 32  1  0  0  0  0
 16  2  1  0  0  0  0
 16 17  2  0  0  0  0
 17 33  1  0  0  0  0
 18  3  2  0  0  0  0
 18 34  1  0  0  0  0
 19 18  1  0  0  0  0
 19 20  2  0  0  0  0
 19 35  1  0  0  0  0
 20 16  1  0  0  0  0
 20 36  1  0  0  0  0
 21  7  2  0  0  0  0
 21 22  1  0  0  0  0
 22 23  2  0  0  0  0
 22 37  1  0  0  0  0
 23 24  1  0  0  0  0
 23 38  1  0  0  0  0
 24 39  1  0  0  0  0
M  END
>  <DRUGBANK_ID>
DB08709

>  <COMMON_NAME>
2,3-diphenyl-1H-indole-7-carboxylic acid

>  <UNII>
5BFF2LV9EF

$$$$
