
 OpenBabel10282417153D

 76 83  0  0  1  0  0  0  0  0999 V2000
   11.4149    8.0427   13.7266 S   0  0  0  0  0  0  0  0  0  0  0  0
    3.3479    5.3783    1.8432 S   0  0  0  0  0  0  0  0  0  0  0  0
    1.4852   10.4618    6.7562 O   0  0  0  0  0  0  0  0  0  0  0  0
    0.2603    5.6833    6.9784 O   0  0  0  0  0  0  0  0  0  0  0  0
   -1.2645    6.6285    8.1937 O   0  0  0  0  0  0  0  0  0  0  0  0
    3.1588    4.4504    8.6416 O   0  0  0  0  0  0  0  0  0  0  0  0
    0.1063    5.5448    5.5698 O   0  0  0  0  0  0  0  0  0  0  0  0
    4.3374    9.6998    7.6709 N   0  0  0  0  0  0  0  0  0  0  0  0
    2.6339    8.1772    8.0379 N   0  0  0  0  0  0  0  0  0  0  0  0
    5.0149    4.3747   10.0350 N   0  0  0  0  0  0  0  0  0  0  0  0
    2.3697    9.3697    6.5512 C   0  0  2  0  0  0  0  0  0  0  0  0
    0.4510    8.4566    6.9918 C   0  0  2  0  0  0  0  0  0  0  0  0
    1.3528    9.5619    7.8861 C   0  0  2  0  0  0  0  0  0  0  0  0
    0.0258    9.0099    8.2275 C   0  0  0  0  0  0  0  0  0  0  0  0
    5.2550    8.5107    7.9245 C   0  0  0  0  0  0  0  0  0  0  0  0
    4.1488    7.9382    7.6744 C   0  0  0  0  0  0  0  0  0  0  0  0
    6.2085    7.5205    8.9225 C   0  0  0  0  0  0  0  0  0  0  0  0
    4.6314    6.7297    7.4674 C   0  0  0  0  0  0  0  0  0  0  0  0
    6.0208    9.5962    8.8255 C   0  0  0  0  0  0  0  0  0  0  0  0
    0.7694    9.2559    5.0567 C   0  0  0  0  0  0  0  0  0  0  0  0
    2.5152    7.2241    6.8015 C   0  0  0  0  0  0  0  0  0  0  0  0
    6.9467    8.2268    9.7048 C   0  0  0  0  0  0  0  0  0  0  0  0
    6.0501    6.1385    9.1898 C   0  0  0  0  0  0  0  0  0  0  0  0
    3.6557    6.4679    6.6354 C   0  0  0  0  0  0  0  0  0  0  0  0
    5.0209    5.8111    8.4037 C   0  0  0  0  0  0  0  0  0  0  0  0
   -0.3231    6.8122    7.4108 C   0  0  0  0  0  0  0  0  0  0  0  0
    6.2617    5.0794   10.1746 C   0  0  0  0  0  0  0  0  0  0  0  0
    7.7610    9.8482    9.8145 C   0  0  0  0  0  0  0  0  0  0  0  0
    4.2969    4.7615    8.9188 C   0  0  0  0  0  0  0  0  0  0  0  0
    8.2288    7.5695   10.8640 C   0  0  0  0  0  0  0  0  0  0  0  0
    1.7363    7.3080    5.6312 C   0  0  0  0  0  0  0  0  0  0  0  0
    3.8403    5.6559    5.5908 C   0  0  0  0  0  0  0  0  0  0  0  0
    9.3100    7.9940   11.6242 C   0  0  0  0  0  0  0  0  0  0  0  0
    9.1571    9.2298   11.0183 C   0  0  0  0  0  0  0  0  0  0  0  0
    3.1451    5.9370    4.4214 C   0  0  0  0  0  0  0  0  0  0  0  0
    2.0285    6.8962    4.3972 C   0  0  0  0  0  0  0  0  0  0  0  0
   10.1162    7.1761   12.7429 C   0  0  0  0  0  0  0  0  0  0  0  0
    3.0097    4.5313    3.3987 C   0  0  0  0  0  0  0  0  0  0  0  0
    1.2124    4.7940    5.1687 C   0  0  0  0  0  0  0  0  0  0  0  0
   12.6522    8.5213   12.4611 C   0  0  0  0  0  0  0  0  0  0  0  0
    1.9261    6.5800    1.6109 C   0  0  0  0  0  0  0  0  0  0  0  0
   13.7211    9.3576   13.1432 C   0  0  0  0  0  0  0  0  0  0  0  0
    0.6101    5.8814    1.3645 C   0  0  0  0  0  0  0  0  0  0  0  0
    1.5765   10.2887    8.5620 H   0  0  0  0  0  0  0  0  0  0  0  0
    4.6520    3.6589   10.6566 H   0  0  0  0  0  0  0  0  0  0  0  0
   -0.8441    8.2577    6.3466 H   0  0  0  0  0  0  0  0  0  0  0  0
   -1.1196    8.9918    8.3154 H   0  0  0  0  0  0  0  0  0  0  0  0
    0.3283    8.4599    9.0676 H   0  0  0  0  0  0  0  0  0  0  0  0
    0.0021    8.2124    4.3495 H   0  0  0  0  0  0  0  0  0  0  0  0
   -0.7259    9.1611    5.1348 H   0  0  0  0  0  0  0  0  0  0  0  0
   -0.0297    9.8215    4.0650 H   0  0  0  0  0  0  0  0  0  0  0  0
    6.8240    4.1661   10.3340 H   0  0  0  0  0  0  0  0  0  0  0  0
    6.8071    5.6662   10.8617 H   0  0  0  0  0  0  0  0  0  0  0  0
    8.8539   10.7270    9.9676 H   0  0  0  0  0  0  0  0  0  0  0  0
    8.1984    6.4766   11.2326 H   0  0  0  0  0  0  0  0  0  0  0  0
    0.6350    7.3664    5.6190 H   0  0  0  0  0  0  0  0  0  0  0  0
    4.3907    4.7753    5.8239 H   0  0  0  0  0  0  0  0  0  0  0  0
   10.2611    9.6980   11.7121 H   0  0  0  0  0  0  0  0  0  0  0  0
    0.8700    6.5981    3.8854 H   0  0  0  0  0  0  0  0  0  0  0  0
   10.5699    6.2221   12.3827 H   0  0  0  0  0  0  0  0  0  0  0  0
    9.3960    6.8102   13.5247 H   0  0  0  0  0  0  0  0  0  0  0  0
    3.6285    3.7271    3.8514 H   0  0  0  0  0  0  0  0  0  0  0  0
    1.9887    3.9518    3.2736 H   0  0  0  0  0  0  0  0  0  0  0  0
    2.0447    4.6432    5.9121 H   0  0  0  0  0  0  0  0  0  0  0  0
    0.8834    3.9019    4.7827 H   0  0  0  0  0  0  0  0  0  0  0  0
    1.4218    5.1588    4.1073 H   0  0  0  0  0  0  0  0  0  0  0  0
   13.1086    7.6372   12.0148 H   0  0  0  0  0  0  0  0  0  0  0  0
   12.2313    9.1249   11.6566 H   0  0  0  0  0  0  0  0  0  0  0  0
    1.7943    7.3531    2.3705 H   0  0  0  0  0  0  0  0  0  0  0  0
    2.2006    7.1580    0.7310 H   0  0  0  0  0  0  0  0  0  0  0  0
   14.2104    8.7832   13.9336 H   0  0  0  0  0  0  0  0  0  0  0  0
   14.4868    9.6646   12.4227 H   0  0  0  0  0  0  0  0  0  0  0  0
   13.2918   10.2654   13.5809 H   0  0  0  0  0  0  0  0  0  0  0  0
    0.2726    5.3389    2.2480 H   0  0  0  0  0  0  0  0  0  0  0  0
   -0.1724    6.6034    1.1037 H   0  0  0  0  0  0  0  0  0  0  0  0
    0.7209    5.1740    0.5456 H   0  0  0  0  0  0  0  0  0  0  0  0
  1 37  1  0  0  0  0
  1 40  1  0  0  0  0
  2 38  1  0  0  0  0
  2 41  1  0  0  0  0
  3 11  1  0  0  0  0
  3 13  1  0  0  0  0
  4  7  1  0  0  0  0
  4 26  1  0  0  0  0
  5 26  2  0  0  0  0
  6 29  2  0  0  0  0
  7 39  1  0  0  0  0
  8 11  1  0  0  0  0
  8 15  1  0  0  0  0
  8 19  1  0  0  0  0
  9 13  1  0  0  0  0
  9 16  1  0  0  0  0
  9 21  1  0  0  0  0
 10 27  1  0  0  0  0
 10 29  1  0  0  0  0
 10 45  1  0  0  0  0
 11 12  1  0  0  0  0
 11 20  1  1  0  0  0
 12 14  1  0  0  0  0
 12 46  1  6  0  0  0
 12 26  1  0  0  0  0
 13 14  1  0  0  0  0
 13 44  1  1  0  0  0
 14 47  1  0  0  0  0
 14 48  1  0  0  0  0
 15 16  2  0  0  0  0
 15 17  1  0  0  0  0
 16 18  1  0  0  0  0
 17 22  1  0  0  0  0
 17 23  2  0  0  0  0
 18 24  1  0  0  0  0
 18 25  2  0  0  0  0
 19 22  2  0  0  0  0
 19 28  1  0  0  0  0
 20 49  1  0  0  0  0
 20 50  1  0  0  0  0
 20 51  1  0  0  0  0
 21 24  2  0  0  0  0
 21 31  1  0  0  0  0
 22 30  1  0  0  0  0
 23 25  1  0  0  0  0
 23 27  1  0  0  0  0
 24 32  1  0  0  0  0
 25 29  1  0  0  0  0
 27 52  1  0  0  0  0
 27 53  1  0  0  0  0
 28 34  2  0  0  0  0
 28 54  1  0  0  0  0
 30 33  2  0  0  0  0
 30 55  1  0  0  0  0
 31 36  2  0  0  0  0
 31 56  1  0  0  0  0
 32 35  2  0  0  0  0
 32 57  1  0  0  0  0
 33 34  1  0  0  0  0
 33 37  1  0  0  0  0
 34 58  1  0  0  0  0
 35 36  1  0  0  0  0
 35 38  1  0  0  0  0
 36 59  1  0  0  0  0
 37 60  1  0  0  0  0
 37 61  1  0  0  0  0
 38 62  1  0  0  0  0
 38 63  1  0  0  0  0
 39 64  1  0  0  0  0
 39 65  1  0  0  0  0
 39 66  1  0  0  0  0
 40 42  1  0  0  0  0
 40 67  1  0  0  0  0
 40 68  1  0  0  0  0
 41 43  1  0  0  0  0
 41 69  1  0  0  0  0
 41 70  1  0  0  0  0
 42 71  1  0  0  0  0
 42 72  1  0  0  0  0
 42 73  1  0  0  0  0
 43 74  1  0  0  0  0
 43 75  1  0  0  0  0
 43 76  1  0  0  0  0
M  END
>  <DRUGBANK_ID>
DB05403

>  <COMMON_NAME>
CEP-1347

>  <UNII>
200HA2LIMK

$$$$
