
 OpenBabel10282417123D

 16 15  0  0  1  0  0  0  0  0999 V2000
   -2.7287   -0.6797   -2.4258 C   0  0  0  0  0  0  0  0  0  0  0  0
   -1.5963   -0.2403   -1.5071 C   0  0  1  0  0  0  0  0  0  0  0  0
   -2.0141    0.9008   -0.7527 O   0  0  0  0  0  0  0  0  0  0  0  0
   -1.1062   -1.3390   -0.5297 C   0  0  2  0  0  0  0  0  0  0  0  0
    0.4190   -1.3416   -0.4634 C   0  0  0  0  0  0  0  0  0  0  0  0
   -1.5327   -2.6497   -0.9030 O   0  0  0  0  0  0  0  0  0  0  0  0
   -3.6266   -0.9378   -1.8558 H   0  0  0  0  0  0  0  0  0  0  0  0
   -2.4344   -1.5368   -3.0397 H   0  0  0  0  0  0  0  0  0  0  0  0
   -3.0026    0.1344   -3.1052 H   0  0  0  0  0  0  0  0  0  0  0  0
   -0.7619    0.0977   -2.1321 H   0  0  0  0  0  0  0  0  0  0  0  0
   -2.2890    1.5891   -1.3846 H   0  0  0  0  0  0  0  0  0  0  0  0
   -1.4970   -1.1526    0.4781 H   0  0  0  0  0  0  0  0  0  0  0  0
    0.8442   -1.5086   -1.4604 H   0  0  0  0  0  0  0  0  0  0  0  0
    0.8021   -0.3922   -0.0781 H   0  0  0  0  0  0  0  0  0  0  0  0
    0.7816   -2.1576    0.1697 H   0  0  0  0  0  0  0  0  0  0  0  0
   -1.1682   -2.8495   -1.7829 H   0  0  0  0  0  0  0  0  0  0  0  0
  1  2  1  0  0  0  0
  1  7  1  0  0  0  0
  1  8  1  0  0  0  0
  1  9  1  0  0  0  0
  2  3  1  0  0  0  0
  2 10  1  6  0  0  0
  3 11  1  0  0  0  0
  4  6  1  0  0  0  0
  4 12  1  1  0  0  0
  4  5  1  0  0  0  0
  4  2  1  0  0  0  0
  5 13  1  0  0  0  0
  5 14  1  0  0  0  0
  5 15  1  0  0  0  0
  6 16  1  0  0  0  0
M  END
>  <DRUGBANK_ID>
DB02418

>  <SECONDARY_ACCESSION_NUMBERS>
EXPT00773

>  <COMMON_NAME>
(R,R)-2,3-Butanediol

>  <CAS_NUMBER>
24347-58-8

>  <UNII>
F5IA8X9O8M

$$$$
