924
 OpenBabel10282417113D

 42 44  0  0  0  0  0  0  0  0999 V2000
    1.0606    0.0592   -0.0063 N   0  0  0  0  0  0  0  0  0  0  0  0
   -0.4054   -3.9023    1.2573 C   0  0  0  0  0  0  0  0  0  0  0  0
   -1.0067   -4.4825    2.4670 C   0  0  0  0  0  0  0  0  0  0  0  0
   -0.5388   -4.6623    0.0237 C   0  0  0  0  0  0  0  0  0  0  0  0
    1.1637   -2.4711   -0.1488 C   0  0  0  0  0  0  0  0  0  0  0  0
    0.5110   -2.9342    1.1700 C   0  0  0  0  0  0  0  0  0  0  0  0
    0.6095   -1.1444   -0.7177 C   0  0  0  0  0  0  0  0  0  0  0  0
   -0.5680   -5.7591    2.8771 C   0  0  0  0  0  0  0  0  0  0  0  0
    0.2814   -5.7999   -0.1012 C   0  0  0  0  0  0  0  0  0  0  0  0
    0.6662   -6.3707    2.3389 C   0  0  0  0  0  0  0  0  0  0  0  0
    1.0501   -6.3654    1.0434 C   0  0  0  0  0  0  0  0  0  0  0  0
   -2.2105   -3.9515    2.9405 C   0  0  0  0  0  0  0  0  0  0  0  0
   -1.2050   -4.0450   -1.0420 C   0  0  0  0  0  0  0  0  0  0  0  0
   -1.3505   -6.4822    3.7831 C   0  0  0  0  0  0  0  0  0  0  0  0
    0.4563   -6.2857   -1.3897 C   0  0  0  0  0  0  0  0  0  0  0  0
   -2.9920   -4.6968    3.8221 C   0  0  0  0  0  0  0  0  0  0  0  0
   -0.9568   -4.5080   -2.3156 C   0  0  0  0  0  0  0  0  0  0  0  0
   -2.5638   -5.9581    4.2387 C   0  0  0  0  0  0  0  0  0  0  0  0
   -0.1503   -5.6373   -2.4824 C   0  0  0  0  0  0  0  0  0  0  0  0
    0.5408    0.0879    1.3591 C   0  0  0  0  0  0  0  0  0  0  0  0
    2.5240    0.0965    0.0057 C   0  0  0  0  0  0  0  0  0  0  0  0
    1.0625   -3.1885   -0.9650 H   0  0  0  0  0  0  0  0  0  0  0  0
    2.2487   -2.4831   -0.0417 H   0  0  0  0  0  0  0  0  0  0  0  0
    0.8675   -2.5018    2.1010 H   0  0  0  0  0  0  0  0  0  0  0  0
   -0.4895   -1.1546   -0.7676 H   0  0  0  0  0  0  0  0  0  0  0  0
    0.9127   -1.0582   -1.7737 H   0  0  0  0  0  0  0  0  0  0  0  0
    1.3036   -6.8422    3.0843 H   0  0  0  0  0  0  0  0  0  0  0  0
    2.0198   -6.7947    0.7992 H   0  0  0  0  0  0  0  0  0  0  0  0
   -2.5876   -3.0095    2.5496 H   0  0  0  0  0  0  0  0  0  0  0  0
   -1.7312   -3.1058   -0.8778 H   0  0  0  0  0  0  0  0  0  0  0  0
   -1.0537   -7.4825    4.0868 H   0  0  0  0  0  0  0  0  0  0  0  0
    1.0954   -7.1453   -1.5605 H   0  0  0  0  0  0  0  0  0  0  0  0
   -3.9572   -4.3146    4.1436 H   0  0  0  0  0  0  0  0  0  0  0  0
   -1.3279   -3.9427   -3.1644 H   0  0  0  0  0  0  0  0  0  0  0  0
   -3.1922   -6.5510    4.8985 H   0  0  0  0  0  0  0  0  0  0  0  0
    0.0319   -6.0050   -3.4860 H   0  0  0  0  0  0  0  0  0  0  0  0
    1.0588   -0.6226    2.0001 H   0  0  0  0  0  0  0  0  0  0  0  0
    0.7051    1.0565    1.8317 H   0  0  0  0  0  0  0  0  0  0  0  0
   -0.5364   -0.1232    1.3856 H   0  0  0  0  0  0  0  0  0  0  0  0
    2.9076    0.1385   -1.0196 H   0  0  0  0  0  0  0  0  0  0  0  0
    2.8896    0.9670    0.5500 H   0  0  0  0  0  0  0  0  0  0  0  0
    2.9706   -0.7748    0.4950 H   0  0  0  0  0  0  0  0  0  0  0  0
  1  7  1  0  0  0  0
  1 20  1  0  0  0  0
  1 21  1  0  0  0  0
  2  3  1  0  0  0  0
  2  4  1  0  0  0  0
  2  6  2  0  0  0  0
  3  8  1  0  0  0  0
  3 12  2  0  0  0  0
  4  9  1  0  0  0  0
  4 13  2  0  0  0  0
  5  6  1  0  0  0  0
  5  7  1  0  0  0  0
  5 22  1  0  0  0  0
  5 23  1  0  0  0  0
  6 24  1  0  0  0  0
  7 25  1  0  0  0  0
  7 26  1  0  0  0  0
  8 10  1  0  0  0  0
  8 14  2  0  0  0  0
  9 11  1  0  0  0  0
  9 15  2  0  0  0  0
 10 11  2  0  0  0  0
 10 27  1  0  0  0  0
 11 28  1  0  0  0  0
 12 16  1  0  0  0  0
 12 29  1  0  0  0  0
 13 17  1  0  0  0  0
 13 30  1  0  0  0  0
 14 18  1  0  0  0  0
 14 31  1  0  0  0  0
 15 19  1  0  0  0  0
 15 32  1  0  0  0  0
 16 18  2  0  0  0  0
 16 33  1  0  0  0  0
 17 19  2  0  0  0  0
 17 34  1  0  0  0  0
 18 35  1  0  0  0  0
 19 36  1  0  0  0  0
 20 37  1  0  0  0  0
 20 38  1  0  0  0  0
 20 39  1  0  0  0  0
 21 40  1  0  0  0  0
 21 41  1  0  0  0  0
 21 42  1  0  0  0  0
M  END
>  <DRUGBANK_ID>
DB00924

>  <SECONDARY_ACCESSION_NUMBERS>
APRD00213

>  <COMMON_NAME>
Cyclobenzaprine

>  <CAS_NUMBER>
303-53-7

>  <UNII>
69O5WQQ5TI

>  <SYNONYMS>
(3-Dibenzo[a,d]cyclohepten-5-ylidene-propyl)-dimethyl-amine; Ciclobenzaprina; Cyclobenzaprine; Cyclobenzaprinum; N,N-dimethyl-5H-dibenzo(a,d)cycloheptene-Δ5,γ-propylamine

$$$$
