
 OpenBabel10282417143D

 74 77  0  0  0  0  0  0  0  0999 V2000
    2.2092   -1.3592   -0.7151 C   0  0  0  0  0  0  0  0  0  0  0  0
    3.6966   -1.2765   -0.3853 C   0  0  0  0  0  0  0  0  0  0  0  0
    4.1927    0.1659   -0.4501 C   0  0  1  0  0  0  0  0  0  0  0  0
    3.3706    1.0841    0.4566 C   0  0  0  0  0  0  0  0  0  0  0  0
    1.8938    0.9518    0.2012 C   0  0  0  0  0  0  0  0  0  0  0  0
    1.1437    2.0620   -0.0212 C   0  0  0  0  0  0  0  0  0  0  0  0
    1.3176   -0.4668    0.1949 C   0  0  2  0  0  0  0  0  0  0  0  0
   -0.8477   -1.8446   -0.2754 C   0  0  0  0  0  0  0  0  0  0  0  0
   -2.3097   -1.7929   -0.7222 C   0  0  0  0  0  0  0  0  0  0  0  0
   -3.0728   -0.6745    0.0273 C   0  0  1  0  0  0  0  0  0  0  0  0
   -2.3861    0.6356   -0.4037 C   0  0  1  0  0  0  0  0  0  0  0  0
   -3.3623    1.7338   -0.0186 C   0  0  0  0  0  0  0  0  0  0  0  0
   -4.7259    1.1327   -0.3275 C   0  0  0  0  0  0  0  0  0  0  0  0
   -4.5154   -0.3983   -0.4952 C   0  0  2  0  0  0  0  0  0  0  0  0
   -2.9733   -0.8512    1.5658 C   0  0  0  0  0  0  0  0  0  0  0  0
    1.3389   -1.0105    1.6455 C   0  0  0  0  0  0  0  0  0  0  0  0
   -2.3200    0.6592   -1.5032 H   0  0  0  0  0  0  0  0  0  0  0  0
   -4.5075   -0.5808   -1.5836 H   0  0  0  0  0  0  0  0  0  0  0  0
    5.5651    0.2089   -0.0668 O   0  0  0  0  0  0  0  0  0  0  0  0
   -0.1335   -0.4741   -0.3985 C   0  0  1  0  0  0  0  0  0  0  0  0
   -0.0495   -0.2970   -1.4826 H   0  0  0  0  0  0  0  0  0  0  0  0
   -6.0478   -0.8150    1.5142 C   0  0  0  0  0  0  0  0  0  0  0  0
   -0.9667    0.7194    0.1475 C   0  0  1  0  0  0  0  0  0  0  0  0
   -0.9845    0.6858    1.2431 H   0  0  0  0  0  0  0  0  0  0  0  0
   -0.3291    2.0522   -0.2290 C   0  0  0  0  0  0  0  0  0  0  0  0
   -4.8392   -3.5908    0.8450 C   0  0  0  0  0  0  0  0  0  0  0  0
   -5.4481   -3.6610    2.2480 C   0  0  0  0  0  0  0  0  0  0  0  0
   -6.8982   -4.1227    2.2094 C   0  0  0  0  0  0  0  0  0  0  0  0
   -6.8866   -5.5941    1.8334 C   0  0  0  0  0  0  0  0  0  0  0  0
   -5.5707   -2.7213   -0.1937 C   0  0  0  0  0  0  0  0  0  0  0  0
   -5.7079   -1.1987    0.0723 C   0  0  2  0  0  0  0  0  0  0  0  0
   -7.5635   -3.8515    3.5516 C   0  0  0  0  0  0  0  0  0  0  0  0
    2.0767   -1.0573   -1.7638 H   0  0  0  0  0  0  0  0  0  0  0  0
    1.8969   -2.4081   -0.6542 H   0  0  0  0  0  0  0  0  0  0  0  0
    4.2679   -1.8958   -1.0868 H   0  0  0  0  0  0  0  0  0  0  0  0
    3.8947   -1.7036    0.6052 H   0  0  0  0  0  0  0  0  0  0  0  0
    4.1317    0.5244   -1.4846 H   0  0  0  0  0  0  0  0  0  0  0  0
    3.5737    0.8494    1.5094 H   0  0  0  0  0  0  0  0  0  0  0  0
    3.7148    2.1170    0.3250 H   0  0  0  0  0  0  0  0  0  0  0  0
    1.6137    3.0372   -0.0396 H   0  0  0  0  0  0  0  0  0  0  0  0
   -0.3268   -2.5990   -0.8748 H   0  0  0  0  0  0  0  0  0  0  0  0
   -0.8230   -2.2208    0.7510 H   0  0  0  0  0  0  0  0  0  0  0  0
   -2.3455   -1.6256   -1.8069 H   0  0  0  0  0  0  0  0  0  0  0  0
   -2.7401   -2.7830   -0.5838 H   0  0  0  0  0  0  0  0  0  0  0  0
   -3.2903    1.9875    1.0452 H   0  0  0  0  0  0  0  0  0  0  0  0
   -3.2069    2.6509   -0.5923 H   0  0  0  0  0  0  0  0  0  0  0  0
   -5.4111    1.4235    0.4664 H   0  0  0  0  0  0  0  0  0  0  0  0
   -5.1627    1.5525   -1.2400 H   0  0  0  0  0  0  0  0  0  0  0  0
   -3.4465   -0.0260    2.1033 H   0  0  0  0  0  0  0  0  0  0  0  0
   -3.4154   -1.7733    1.9185 H   0  0  0  0  0  0  0  0  0  0  0  0
   -1.9560   -0.9229    1.9515 H   0  0  0  0  0  0  0  0  0  0  0  0
    0.6924   -0.4249    2.3075 H   0  0  0  0  0  0  0  0  0  0  0  0
    1.0175   -2.0555    1.6971 H   0  0  0  0  0  0  0  0  0  0  0  0
    2.3409   -0.9896    2.0846 H   0  0  0  0  0  0  0  0  0  0  0  0
    5.6272   -0.1067    0.8510 H   0  0  0  0  0  0  0  0  0  0  0  0
   -5.2609   -1.1023    2.1905 H   0  0  0  0  0  0  0  0  0  0  0  0
   -6.1234    0.2495    1.7199 H   0  0  0  0  0  0  0  0  0  0  0  0
   -6.9851   -1.2621    1.8423 H   0  0  0  0  0  0  0  0  0  0  0  0
   -0.7767    2.8431    0.3874 H   0  0  0  0  0  0  0  0  0  0  0  0
   -0.5433    2.2983   -1.2751 H   0  0  0  0  0  0  0  0  0  0  0  0
   -4.7617   -4.6042    0.4366 H   0  0  0  0  0  0  0  0  0  0  0  0
   -3.7971   -3.3159    0.9421 H   0  0  0  0  0  0  0  0  0  0  0  0
   -4.8288   -4.3214    2.8664 H   0  0  0  0  0  0  0  0  0  0  0  0
   -5.3943   -2.7401    2.8168 H   0  0  0  0  0  0  0  0  0  0  0  0
   -7.4754   -3.5627    1.4652 H   0  0  0  0  0  0  0  0  0  0  0  0
   -6.2593   -6.1520    2.5365 H   0  0  0  0  0  0  0  0  0  0  0  0
   -7.8908   -6.0129    1.8245 H   0  0  0  0  0  0  0  0  0  0  0  0
   -6.4637   -5.7371    0.8328 H   0  0  0  0  0  0  0  0  0  0  0  0
   -6.5748   -3.1344   -0.3523 H   0  0  0  0  0  0  0  0  0  0  0  0
   -5.0864   -2.8736   -1.1700 H   0  0  0  0  0  0  0  0  0  0  0  0
   -6.5788   -0.8789   -0.5216 H   0  0  0  0  0  0  0  0  0  0  0  0
   -7.6140   -2.7714    3.7428 H   0  0  0  0  0  0  0  0  0  0  0  0
   -8.5867   -4.2347    3.5583 H   0  0  0  0  0  0  0  0  0  0  0  0
   -6.9999   -4.3083    4.3690 H   0  0  0  0  0  0  0  0  0  0  0  0
  1  7  1  0  0  0  0
  1 33  1  0  0  0  0
  1 34  1  0  0  0  0
  2  1  1  0  0  0  0
  2 35  1  0  0  0  0
  2 36  1  0  0  0  0
  3  4  1  0  0  0  0
  3  2  1  0  0  0  0
  3 19  1  0  0  0  0
  3 37  1  6  0  0  0
  4  5  1  0  0  0  0
  4 38  1  0  0  0  0
  4 39  1  0  0  0  0
  5  7  1  0  0  0  0
  6 25  1  0  0  0  0
  6  5  2  0  0  0  0
  6 40  1  0  0  0  0
  7 20  1  0  0  0  0
  7 16  1  1  0  0  0
  8 20  1  0  0  0  0
  8  9  1  0  0  0  0
  8 41  1  0  0  0  0
  8 42  1  0  0  0  0
  9 10  1  0  0  0  0
  9 43  1  0  0  0  0
  9 44  1  0  0  0  0
 10 15  1  1  0  0  0
 11 10  1  0  0  0  0
 11 17  1  6  0  0  0
 12 11  1  0  0  0  0
 12 45  1  0  0  0  0
 12 46  1  0  0  0  0
 13 14  1  0  0  0  0
 13 12  1  0  0  0  0
 13 47  1  0  0  0  0
 13 48  1  0  0  0  0
 14 10  1  0  0  0  0
 14 18  1  6  0  0  0
 14 31  1  0  0  0  0
 15 49  1  0  0  0  0
 15 50  1  0  0  0  0
 15 51  1  0  0  0  0
 16 52  1  0  0  0  0
 16 53  1  0  0  0  0
 16 54  1  0  0  0  0
 19 55  1  0  0  0  0
 20 21  1  6  0  0  0
 22 56  1  0  0  0  0
 22 57  1  0  0  0  0
 22 58  1  0  0  0  0
 23 11  1  0  0  0  0
 23 20  1  0  0  0  0
 23 24  1  1  0  0  0
 25 23  1  0  0  0  0
 25 59  1  0  0  0  0
 25 60  1  0  0  0  0
 26 61  1  0  0  0  0
 26 62  1  0  0  0  0
 27 26  1  0  0  0  0
 27 63  1  0  0  0  0
 27 64  1  0  0  0  0
 28 27  1  0  0  0  0
 28 65  1  0  0  0  0
 29 28  1  0  0  0  0
 29 66  1  0  0  0  0
 29 67  1  0  0  0  0
 29 68  1  0  0  0  0
 30 26  1  0  0  0  0
 30 69  1  0  0  0  0
 30 70  1  0  0  0  0
 31 71  1  6  0  0  0
 31 30  1  0  0  0  0
 31 22  1  0  0  0  0
 32 28  1  0  0  0  0
 32 72  1  0  0  0  0
 32 73  1  0  0  0  0
 32 74  1  0  0  0  0
M  END
>  <DRUGBANK_ID>
DB04540

>  <SECONDARY_ACCESSION_NUMBERS>
EXPT00945

>  <COMMON_NAME>
Cholesterol

>  <CAS_NUMBER>
57-88-5

>  <UNII>
97C5T2UQ7J

>  <SYNONYMS>
(3β,14β,17α)-cholest-5-en-3-ol; Cholest-5-en-3beta-ol; Cholesterin; Cholesterol

$$$$
