
 OpenBabel10282417123D

 73 77  0  0  1  0  0  0  0  0999 V2000
   -0.0483    7.2555   -0.4572 O   0  0  0  0  0  0  0  0  0  0  0  0
   -0.3657    4.3940   -0.5026 O   0  0  0  0  0  0  0  0  0  0  0  0
   -1.7821    5.0159    1.3566 O   0  0  0  0  0  0  0  0  0  0  0  0
   -3.1244    6.8656   -2.4380 O   0  0  0  0  0  0  0  0  0  0  0  0
   -3.0552    9.6092   -1.9293 O   0  0  0  0  0  0  0  0  0  0  0  0
    0.7389    8.9636    1.1158 O   0  0  0  0  0  0  0  0  0  0  0  0
   -1.7789   10.1676    0.7231 O   0  0  0  0  0  0  0  0  0  0  0  0
   -1.5064    2.5499    2.4787 O   0  0  0  0  0  0  0  0  0  0  0  0
    1.1517    2.8749    3.2087 O   0  0  0  0  0  0  0  0  0  0  0  0
    1.1787    5.8263    3.4165 O   0  0  0  0  0  0  0  0  0  0  0  0
    2.8373   10.7398   -1.2763 O   0  0  0  0  0  0  0  0  0  0  0  0
    3.0645    7.6114    1.3350 O   0  0  0  0  0  0  0  0  0  0  0  0
    5.7390    7.4516    0.8248 O   0  0  0  0  0  0  0  0  0  0  0  0
    7.3312   10.6248   -2.3894 O   0  0  0  0  0  0  0  0  0  0  0  0
   -2.1134   11.7772   -3.1534 O   0  0  0  0  0  0  0  0  0  0  0  0
   -3.3220   12.7474   -0.9069 O   0  0  0  0  0  0  0  0  0  0  0  0
   -1.2683    6.6116   -0.9015 C   0  0  1  0  0  0  0  0  0  0  0  0
   -1.9992    7.5080   -1.8559 C   0  0  2  0  0  0  0  0  0  0  0  0
   -2.4780    8.6811   -1.0207 C   0  0  1  0  0  0  0  0  0  0  0  0
   -1.3185    9.2746   -0.2637 C   0  0  2  0  0  0  0  0  0  0  0  0
   -0.5567    3.0168    1.4935 C   0  0  1  0  0  0  0  0  0  0  0  0
   -1.2618    3.9716    0.5250 C   0  0  2  0  0  0  0  0  0  0  0  0
    0.5896    3.7490    2.2278 C   0  0  1  0  0  0  0  0  0  0  0  0
    0.0968    5.0076    2.9573 C   0  0  2  0  0  0  0  0  0  0  0  0
   -0.3229    8.3704    0.3714 C   0  0  1  0  0  0  0  0  0  0  0  0
   -0.9328    5.2591   -1.4923 C   0  0  0  0  0  0  0  0  0  0  0  0
   -0.7745    5.7831    2.0169 C   0  0  2  0  0  0  0  0  0  0  0  0
   -1.5210    6.9198    2.7087 C   0  0  0  0  0  0  0  0  0  0  0  0
    1.7952    9.3745    0.3689 C   0  0  0  0  0  0  0  0  0  0  0  0
    1.7821   10.4472   -0.4505 C   0  0  0  0  0  0  0  0  0  0  0  0
    3.0471    8.5576    0.5862 C   0  0  0  0  0  0  0  0  0  0  0  0
    4.2220    9.0317   -0.1802 C   0  0  0  0  0  0  0  0  0  0  0  0
    0.6378   11.4114   -0.6696 C   0  0  0  0  0  0  0  0  0  0  0  0
    4.0215   10.0875   -1.0710 C   0  0  0  0  0  0  0  0  0  0  0  0
    5.5035    8.4851   -0.0356 C   0  0  0  0  0  0  0  0  0  0  0  0
    5.0678   10.5942   -1.8214 C   0  0  0  0  0  0  0  0  0  0  0  0
   -0.0268   11.4584   -1.9356 C   0  0  0  0  0  0  0  0  0  0  0  0
    0.0126   12.0464    0.4244 C   0  0  0  0  0  0  0  0  0  0  0  0
    6.5674    9.0126   -0.7720 C   0  0  0  0  0  0  0  0  0  0  0  0
    6.3323   10.0634   -1.6564 C   0  0  0  0  0  0  0  0  0  0  0  0
   -1.3301   11.9920   -2.0406 C   0  0  0  0  0  0  0  0  0  0  0  0
   -1.2824   12.6101    0.2963 C   0  0  0  0  0  0  0  0  0  0  0  0
   -1.9664   12.5221   -0.9155 C   0  0  0  0  0  0  0  0  0  0  0  0
   -3.8547    6.9077   -1.7917 H   0  0  0  0  0  0  0  0  0  0  0  0
   -2.3455    9.8594   -2.5471 H   0  0  0  0  0  0  0  0  0  0  0  0
   -2.4800    9.8109    1.2817 H   0  0  0  0  0  0  0  0  0  0  0  0
   -1.9775    3.3401    2.8093 H   0  0  0  0  0  0  0  0  0  0  0  0
    0.4295    2.7083    3.8434 H   0  0  0  0  0  0  0  0  0  0  0  0
    1.7746    6.0572    2.6696 H   0  0  0  0  0  0  0  0  0  0  0  0
    6.6718    7.1849    0.8167 H   0  0  0  0  0  0  0  0  0  0  0  0
    8.1676   10.1873   -2.1667 H   0  0  0  0  0  0  0  0  0  0  0  0
   -1.6450   11.2624   -3.8312 H   0  0  0  0  0  0  0  0  0  0  0  0
   -3.6641   12.4154   -1.7607 H   0  0  0  0  0  0  0  0  0  0  0  0
   -1.9804    6.4845   -0.0874 H   0  0  0  0  0  0  0  0  0  0  0  0
   -1.3187    7.8352   -2.6512 H   0  0  0  0  0  0  0  0  0  0  0  0
   -3.2775    8.4371   -0.3168 H   0  0  0  0  0  0  0  0  0  0  0  0
   -0.7183    9.6641   -1.0516 H   0  0  0  0  0  0  0  0  0  0  0  0
   -0.1679    2.1469    0.9578 H   0  0  0  0  0  0  0  0  0  0  0  0
   -2.1330    3.4881    0.0655 H   0  0  0  0  0  0  0  0  0  0  0  0
    1.3833    4.0079    1.5147 H   0  0  0  0  0  0  0  0  0  0  0  0
   -0.5034    4.7541    3.8330 H   0  0  0  0  0  0  0  0  0  0  0  0
   -0.8959    8.0941    1.1946 H   0  0  0  0  0  0  0  0  0  0  0  0
   -1.8024    4.7858   -1.9598 H   0  0  0  0  0  0  0  0  0  0  0  0
   -0.1713    5.4143   -2.2644 H   0  0  0  0  0  0  0  0  0  0  0  0
   -0.0494    6.1387    1.2917 H   0  0  0  0  0  0  0  0  0  0  0  0
   -0.8151    7.6809    3.0709 H   0  0  0  0  0  0  0  0  0  0  0  0
   -2.2526    7.3618    2.0096 H   0  0  0  0  0  0  0  0  0  0  0  0
   -2.1529    6.6050    3.5275 H   0  0  0  0  0  0  0  0  0  0  0  0
    4.8845   11.4161   -2.5066 H   0  0  0  0  0  0  0  0  0  0  0  0
    0.3366   10.8070   -2.7325 H   0  0  0  0  0  0  0  0  0  0  0  0
    0.3776   11.8644    1.4375 H   0  0  0  0  0  0  0  0  0  0  0  0
    7.5681    8.6139   -0.6536 H   0  0  0  0  0  0  0  0  0  0  0  0
   -1.8561   12.8295    1.1987 H   0  0  0  0  0  0  0  0  0  0  0  0
  1 17  1  0  0  0  0
  1 25  1  0  0  0  0
  2 26  1  0  0  0  0
  3 22  1  0  0  0  0
  3 27  1  0  0  0  0
  4 44  1  0  0  0  0
  5 45  1  0  0  0  0
  6 29  1  0  0  0  0
  7 46  1  0  0  0  0
  8 47  1  0  0  0  0
  9 48  1  0  0  0  0
 10 49  1  0  0  0  0
 11 30  1  0  0  0  0
 11 34  1  0  0  0  0
 12 31  2  0  0  0  0
 13 35  1  0  0  0  0
 13 50  1  0  0  0  0
 14 40  1  0  0  0  0
 14 51  1  0  0  0  0
 15 41  1  0  0  0  0
 15 52  1  0  0  0  0
 16 43  1  0  0  0  0
 16 53  1  0  0  0  0
 17 18  1  0  0  0  0
 17 26  1  0  0  0  0
 17 54  1  1  0  0  0
 18  4  1  0  0  0  0
 18 19  1  0  0  0  0
 18 55  1  6  0  0  0
 19  5  1  0  0  0  0
 19 20  1  0  0  0  0
 19 56  1  1  0  0  0
 20  7  1  0  0  0  0
 20 25  1  0  0  0  0
 20 57  1  6  0  0  0
 21  8  1  0  0  0  0
 21 22  1  0  0  0  0
 21 23  1  0  0  0  0
 21 58  1  6  0  0  0
 22 59  1  6  0  0  0
 22  2  1  0  0  0  0
 23  9  1  0  0  0  0
 23 24  1  0  0  0  0
 23 60  1  6  0  0  0
 24 10  1  0  0  0  0
 24 27  1  0  0  0  0
 24 61  1  1  0  0  0
 25  6  1  0  0  0  0
 25 62  1  1  0  0  0
 26 63  1  0  0  0  0
 26 64  1  0  0  0  0
 27 28  1  0  0  0  0
 27 65  1  6  0  0  0
 28 66  1  0  0  0  0
 28 67  1  0  0  0  0
 28 68  1  0  0  0  0
 29 30  2  0  0  0  0
 29 31  1  0  0  0  0
 30 33  1  0  0  0  0
 31 32  1  0  0  0  0
 32 34  1  0  0  0  0
 32 35  2  0  0  0  0
 33 37  2  0  0  0  0
 33 38  1  0  0  0  0
 34 36  2  0  0  0  0
 35 39  1  0  0  0  0
 36 40  1  0  0  0  0
 36 69  1  0  0  0  0
 37 41  1  0  0  0  0
 37 70  1  0  0  0  0
 38 42  2  0  0  0  0
 38 71  1  0  0  0  0
 39 40  2  0  0  0  0
 39 72  1  0  0  0  0
 41 43  2  0  0  0  0
 42 43  1  0  0  0  0
 42 73  1  0  0  0  0
M  END
>  <DRUGBANK_ID>
DB01698

>  <SECONDARY_ACCESSION_NUMBERS>
EXPT02824

>  <COMMON_NAME>
Rutin

>  <CAS_NUMBER>
153-18-4

>  <UNII>
5G06TVY3R7

>  <SYNONYMS>
3-[[6-O-(6-Deoxy-alpha-L-mannopyranosyl)-beta-D-glucopyranosyl]oxy]-2-(3,4-dihydroxyphenyl)-5,7-dihydroxy-4H-1-benzopyran-4-one; 3-Rhamnoglucosylquercetin; 3-Rutinosyl quercetin; Phytomelin; Quercetin 3-rutinoside; Quercetin-3-rutinoside; Rutin; Rutoside; Rutosido; Rutosidum; Sophorin; Vitamin P

$$$$
