LZG
 OpenBabel10282417173D

 52 55  0  0  0  0  0  0  0  0999 V2000
    2.1200   -0.3081   -0.0798 Cl  0  0  0  0  0  0  0  0  0  0  0  0
    0.4353   -0.0616    0.0698 C   0  0  0  0  0  0  0  0  0  0  0  0
   -0.1206    1.1577    0.2496 C   0  0  0  0  0  0  0  0  0  0  0  0
   -1.5034    0.9935    0.4027 C   0  0  0  0  0  0  0  0  0  0  0  0
   -0.6883   -1.3373    0.0058 S   0  0  0  0  0  0  0  0  0  0  0  0
   -2.0371   -0.2869    0.2491 C   0  0  0  0  0  0  0  0  0  0  0  0
   -3.4519   -0.7929    0.1839 C   0  0  0  0  0  0  0  0  0  0  0  0
   -3.7553   -2.0013    0.1020 O   0  0  0  0  0  0  0  0  0  0  0  0
   -4.5447    0.0892    0.1442 N   0  0  0  0  0  0  0  0  0  0  0  0
   -4.2452    1.3904   -0.2748 C   0  0  2  0  0  0  0  0  0  0  0  0
   -4.3531    2.7999    0.0691 C   0  0  1  0  0  0  0  0  0  0  0  0
   -3.2447    3.1894    0.7799 F   0  0  0  0  0  0  0  0  0  0  0  0
   -4.5167    3.4212   -1.5409 C   0  0  0  0  0  0  0  0  0  0  0  0
   -3.5602    1.4523   -1.6699 C   0  0  0  0  0  0  0  0  0  0  0  0
   -3.5620    2.7482   -2.3327 N   0  0  0  0  0  0  0  0  0  0  0  0
   -2.3770    3.6280   -2.3342 C   0  0  0  0  0  0  0  0  0  0  0  0
   -1.9634    4.2177   -0.9622 C   0  0  0  0  0  0  0  0  0  0  0  0
   -0.7948    3.9897   -0.6018 O   0  0  0  0  0  0  0  0  0  0  0  0
   -2.7373    5.0386   -0.1103 N   0  0  0  0  0  0  0  0  0  0  0  0
   -4.1523    5.5354    0.1204 C   0  0  0  0  0  0  0  0  0  0  0  0
   -5.5204    4.9991   -0.0731 C   0  0  0  0  0  0  0  0  0  0  0  0
   -6.1423    3.8078    0.0364 F   0  0  0  0  0  0  0  0  0  0  0  0
   -4.1573    6.8853    0.3282 C   0  0  0  0  0  0  0  0  0  0  0  0
   -5.3352    7.5704    0.0205 C   0  0  0  0  0  0  0  0  0  0  0  0
   -6.4207    6.9015   -0.5784 C   0  0  0  0  0  0  0  0  0  0  0  0
   -6.4126    5.6142   -0.8337 C   0  0  0  0  0  0  0  0  0  0  0  0
   -7.6566    7.4392   -0.8520 N   0  0  0  0  0  0  0  0  0  0  0  0
   -7.6867    8.4079   -1.8069 C   0  0  0  0  0  0  0  0  0  0  0  0
   -6.6765    8.8333   -2.4379 O   0  0  0  0  0  0  0  0  0  0  0  0
   -9.0059    8.9576   -2.0867 C   0  0  0  0  0  0  0  0  0  0  0  0
  -10.0617    8.5474   -1.3587 C   0  0  0  0  0  0  0  0  0  0  0  0
   -9.9825    7.4112   -0.4845 C   0  0  0  0  0  0  0  0  0  0  0  0
   -8.8013    6.8244   -0.3301 C   0  0  0  0  0  0  0  0  0  0  0  0
   -3.8010    1.3966    0.7223 H   0  0  0  0  0  0  0  0  0  0  0  0
   -5.0438    2.9266    0.9097 H   0  0  0  0  0  0  0  0  0  0  0  0
    0.3910    2.1156    0.2725 H   0  0  0  0  0  0  0  0  0  0  0  0
   -2.0437    1.8911    0.4930 H   0  0  0  0  0  0  0  0  0  0  0  0
   -5.4785   -0.2909    0.0711 H   0  0  0  0  0  0  0  0  0  0  0  0
   -5.5039    3.2329   -1.9708 H   0  0  0  0  0  0  0  0  0  0  0  0
   -4.3415    4.4828   -1.8127 H   0  0  0  0  0  0  0  0  0  0  0  0
   -4.1870    0.8061   -2.2922 H   0  0  0  0  0  0  0  0  0  0  0  0
   -2.5619    1.0648   -1.7106 H   0  0  0  0  0  0  0  0  0  0  0  0
   -1.5547    3.0793   -2.8129 H   0  0  0  0  0  0  0  0  0  0  0  0
   -2.5414    4.5022   -2.9852 H   0  0  0  0  0  0  0  0  0  0  0  0
   -2.1890    5.0866    0.7507 H   0  0  0  0  0  0  0  0  0  0  0  0
   -3.2600    7.4021    0.6505 H   0  0  0  0  0  0  0  0  0  0  0  0
   -5.4069    8.6243    0.2187 H   0  0  0  0  0  0  0  0  0  0  0  0
   -7.2130    5.0309   -1.3006 H   0  0  0  0  0  0  0  0  0  0  0  0
   -9.0362    9.7205   -2.8433 H   0  0  0  0  0  0  0  0  0  0  0  0
  -11.0226    9.0189   -1.4674 H   0  0  0  0  0  0  0  0  0  0  0  0
  -10.8598    7.0137    0.0138 H   0  0  0  0  0  0  0  0  0  0  0  0
   -8.7067    5.8955    0.2414 H   0  0  0  0  0  0  0  0  0  0  0  0
  1  2  1  0  0  0  0
  2  3  2  0  0  0  0
  2  5  1  0  0  0  0
  3  4  1  0  0  0  0
  3 36  1  0  0  0  0
  4  6  2  0  0  0  0
  4 37  1  0  0  0  0
  5  6  1  0  0  0  0
  6  7  1  0  0  0  0
  7  8  2  0  0  0  0
  7  9  1  0  0  0  0
  9 38  1  0  0  0  0
 10  9  1  0  0  0  0
 10 11  1  0  0  0  0
 10 14  1  0  0  0  0
 10 34  1  1  0  0  0
 11 12  1  0  0  0  0
 11 13  1  0  0  0  0
 11 35  1  1  0  0  0
 13 15  1  0  0  0  0
 13 39  1  0  0  0  0
 13 40  1  0  0  0  0
 14 15  1  0  0  0  0
 14 41  1  0  0  0  0
 14 42  1  0  0  0  0
 15 16  1  0  0  0  0
 16 17  1  0  0  0  0
 16 43  1  0  0  0  0
 16 44  1  0  0  0  0
 17 18  2  0  0  0  0
 17 19  1  0  0  0  0
 19 20  1  0  0  0  0
 19 45  1  0  0  0  0
 20 21  1  0  0  0  0
 20 23  2  0  0  0  0
 21 22  1  0  0  0  0
 21 26  2  0  0  0  0
 23 24  1  0  0  0  0
 23 46  1  0  0  0  0
 24 25  2  0  0  0  0
 24 47  1  0  0  0  0
 25 26  1  0  0  0  0
 25 27  1  0  0  0  0
 26 48  1  0  0  0  0
 27 28  1  0  0  0  0
 27 33  1  0  0  0  0
 28 29  2  0  0  0  0
 28 30  1  0  0  0  0
 30 31  2  0  0  0  0
 30 49  1  0  0  0  0
 31 32  1  0  0  0  0
 31 50  1  0  0  0  0
 32 33  2  0  0  0  0
 32 51  1  0  0  0  0
 33 52  1  0  0  0  0
M  END
>  <DRUGBANK_ID>
DB08143

>  <COMMON_NAME>
5-CHLORO-THIOPHENE-2-CARBOXYLIC ACID ((3S,4S)-4-FLUORO- 1-{[2-FLUORO-4-(2-OXO-2H-PYRIDIN-1-YL)-PHENYLCARBAMOYL]-METHYL}-PYRROLIDIN-3-YL)-AMIDE

$$$$
