
 OpenBabel10282417143D

129134  0  0  1  0  0  0  0  0999 V2000
   -0.9556    2.4163   -2.5102 C   0  0  0  0  0  0  0  0  0  0  0  0
   -0.3930    3.4947   -3.1968 C   0  0  1  0  0  0  0  0  0  0  0  0
   -1.0697    2.9444   -5.0572 O   0  0  0  0  0  0  0  0  0  0  0  0
   -0.3856    4.5087   -6.1006 C   0  0  2  0  0  0  0  0  0  0  0  0
    0.7378    3.8201   -6.6774 O   0  0  0  0  0  0  0  0  0  0  0  0
    1.7514    3.8167   -5.7463 C   0  0  2  0  0  0  0  0  0  0  0  0
    0.8058    3.2150   -4.8193 C   0  0  1  0  0  0  0  0  0  0  0  0
    1.7337    2.5434   -3.6936 C   0  0  0  0  0  0  0  0  0  0  0  0
    2.5539    3.4355   -3.0416 O   0  0  0  0  0  0  0  0  0  0  0  0
   -0.8867    4.2529   -4.5611 O   0  0  0  0  0  0  0  0  0  0  0  0
   -0.5595    5.2491   -3.8970 C   0  0  2  0  0  0  0  0  0  0  0  0
   -1.8129    6.1368   -3.0201 O   0  0  0  0  0  0  0  0  0  0  0  0
   -2.5990    6.7537   -4.0794 C   0  0  2  0  0  0  0  0  0  0  0  0
   -3.0616    5.4977   -4.8078 C   0  0  1  0  0  0  0  0  0  0  0  0
   -4.1754    5.5937   -5.6885 C   0  0  0  0  0  0  0  0  0  0  0  0
   -4.6368    6.8797   -5.4825 O   0  0  0  0  0  0  0  0  0  0  0  0
   -2.2131    5.2580   -6.0175 O   0  0  0  0  0  0  0  0  0  0  0  0
   -1.5536    5.8717   -7.4119 C   0  0  2  0  0  0  0  0  0  0  0  0
   -0.2809    5.0941   -8.2976 O   0  0  0  0  0  0  0  0  0  0  0  0
   -0.8564    6.9845   -6.9182 C   0  0  2  0  0  0  0  0  0  0  0  0
    0.7638    5.9389   -6.9461 O   0  0  0  0  0  0  0  0  0  0  0  0
   -1.8929    7.7669   -5.3612 C   0  0  1  0  0  0  0  0  0  0  0  0
   -2.8344    8.1917   -6.2299 O   0  0  0  0  0  0  0  0  0  0  0  0
    1.2552    5.4128   -4.1970 C   0  0  2  0  0  0  0  0  0  0  0  0
   -0.5969    5.9296   -4.3059 O   0  0  0  0  0  0  0  0  0  0  0  0
    2.3288    5.0720   -5.1595 C   0  0  1  0  0  0  0  0  0  0  0  0
    3.3816    5.0742   -4.1422 O   0  0  0  0  0  0  0  0  0  0  0  0
    0.2677    6.6280   -5.4758 C   0  0  2  0  0  0  0  0  0  0  0  0
    1.2372    7.7569   -6.2804 O   0  0  0  0  0  0  0  0  0  0  0  0
    0.5391    7.1882   -3.8871 C   0  0  1  0  0  0  0  0  0  0  0  0
    1.0129    8.4324   -3.6479 O   0  0  0  0  0  0  0  0  0  0  0  0
    0.2605    5.6018   -2.5324 C   0  0  2  0  0  0  0  0  0  0  0  0
    1.4572    5.5479   -1.9921 N   0  0  0  0  0  0  0  0  0  0  0  0
    1.8937    6.7353   -1.5299 C   0  0  1  0  0  0  0  0  0  0  0  0
    0.7521    7.6647   -1.0408 C   0  0  0  0  0  0  0  0  0  0  0  0
    0.7602    8.0608    0.1789 C   0  0  0  0  0  0  0  0  0  0  0  0
   -0.0163    9.0672    0.8784 C   0  0  0  0  0  0  0  0  0  0  0  0
   -0.9052    8.5964    1.8704 O   0  0  0  0  0  0  0  0  0  0  0  0
    1.5788    7.2104    0.9021 C   0  0  1  0  0  0  0  0  0  0  0  0
    0.2427    6.5987    1.6931 O   0  0  0  0  0  0  0  0  0  0  0  0
   -0.5431    5.5464    1.1732 C   0  0  1  0  0  0  0  0  0  0  0  0
    0.2677    4.5554    0.6071 O   0  0  0  0  0  0  0  0  0  0  0  0
   -0.5535    3.5145   -0.1288 C   0  0  2  0  0  0  0  0  0  0  0  0
   -1.5284    4.3153   -0.9285 C   0  0  0  0  0  0  0  0  0  0  0  0
   -0.2598    4.5188   -1.2349 O   0  0  0  0  0  0  0  0  0  0  0  0
   -1.4399    2.7452    0.6449 C   0  0  1  0  0  0  0  0  0  0  0  0
   -0.5873    1.9964    1.4834 O   0  0  0  0  0  0  0  0  0  0  0  0
    0.6777    2.5785    1.9435 C   0  0  1  0  0  0  0  0  0  0  0  0
    0.5591    3.8674    2.5537 O   0  0  0  0  0  0  0  0  0  0  0  0
    1.2645    4.5314    3.5953 C   0  0  2  0  0  0  0  0  0  0  0  0
    2.5030    5.0203    2.9944 C   0  0  0  0  0  0  0  0  0  0  0  0
    1.9286    6.0969    2.5202 O   0  0  0  0  0  0  0  0  0  0  0  0
    1.7853    3.5928    4.5399 C   0  0  1  0  0  0  0  0  0  0  0  0
    0.7898    3.3093    5.4737 O   0  0  0  0  0  0  0  0  0  0  0  0
    2.2512    2.3789    3.7523 C   0  0  2  0  0  0  0  0  0  0  0  0
    3.2719    2.6849    2.8054 O   0  0  0  0  0  0  0  0  0  0  0  0
    1.1319    1.6772    3.0280 C   0  0  1  0  0  0  0  0  0  0  0  0
    0.0563    1.3553    3.9135 O   0  0  0  0  0  0  0  0  0  0  0  0
   -2.3481    3.8523    1.2533 C   0  0  2  0  0  0  0  0  0  0  0  0
   -3.1427    4.6990    0.4031 O   0  0  0  0  0  0  0  0  0  0  0  0
   -1.6033    4.8269    2.1075 C   0  0  1  0  0  0  0  0  0  0  0  0
   -1.4190    4.0172    3.2630 O   0  0  0  0  0  0  0  0  0  0  0  0
    2.6255    6.0864    0.3989 C   0  0  2  0  0  0  0  0  0  0  0  0
    3.9662    6.1911    0.7555 O   0  0  0  0  0  0  0  0  0  0  0  0
    2.7511    5.6840   -0.9228 C   0  0  1  0  0  0  0  0  0  0  0  0
    2.3170    4.0983   -0.7925 O   0  0  0  0  0  0  0  0  0  0  0  0
   -0.1370    2.0300   -1.9813 H   0  0  0  0  0  0  0  0  0  0  0  0
   -1.9941    2.2673   -2.7321 H   0  0  0  0  0  0  0  0  0  0  0  0
   -1.1188    3.3789   -2.3278 H   0  0  0  0  0  0  0  0  0  0  0  0
   -0.5210    2.4951   -3.9250 H   0  0  0  0  0  0  0  0  0  0  0  0
   -1.1958    4.1180   -6.8661 H   0  0  0  0  0  0  0  0  0  0  0  0
    2.5017    3.2749   -6.2459 H   0  0  0  0  0  0  0  0  0  0  0  0
    0.5095    2.2298   -5.2986 H   0  0  0  0  0  0  0  0  0  0  0  0
    1.2940    1.9156   -2.9458 H   0  0  0  0  0  0  0  0  0  0  0  0
    2.4472    1.9271   -4.2066 H   0  0  0  0  0  0  0  0  0  0  0  0
    3.2281    3.6494   -3.7316 H   0  0  0  0  0  0  0  0  0  0  0  0
    0.6429    4.6124   -3.6474 H   0  0  0  0  0  0  0  0  0  0  0  0
   -3.2948    7.2817   -3.4255 H   0  0  0  0  0  0  0  0  0  0  0  0
   -3.1406    4.6317   -4.0382 H   0  0  0  0  0  0  0  0  0  0  0  0
   -3.8462    5.4809   -6.7365 H   0  0  0  0  0  0  0  0  0  0  0  0
   -4.8129    4.7695   -5.4791 H   0  0  0  0  0  0  0  0  0  0  0  0
   -4.6829    7.0184   -4.5195 H   0  0  0  0  0  0  0  0  0  0  0  0
   -2.2647    6.1706   -8.0938 H   0  0  0  0  0  0  0  0  0  0  0  0
    0.5994    4.9307   -7.6987 H   0  0  0  0  0  0  0  0  0  0  0  0
   -0.2444    7.6185   -7.4910 H   0  0  0  0  0  0  0  0  0  0  0  0
    0.8615    5.3847   -6.0382 H   0  0  0  0  0  0  0  0  0  0  0  0
   -1.3361    8.5504   -4.6767 H   0  0  0  0  0  0  0  0  0  0  0  0
   -3.0421    7.2635   -6.4576 H   0  0  0  0  0  0  0  0  0  0  0  0
    2.0167    6.3125   -3.7682 H   0  0  0  0  0  0  0  0  0  0  0  0
   -1.2305    5.7424   -5.1685 H   0  0  0  0  0  0  0  0  0  0  0  0
    2.5798    5.9262   -5.8044 H   0  0  0  0  0  0  0  0  0  0  0  0
    2.9102    5.0205   -3.2270 H   0  0  0  0  0  0  0  0  0  0  0  0
   -0.3827    7.3572   -5.2098 H   0  0  0  0  0  0  0  0  0  0  0  0
    1.5602    7.1070   -6.9285 H   0  0  0  0  0  0  0  0  0  0  0  0
    1.2958    7.1032   -4.6812 H   0  0  0  0  0  0  0  0  0  0  0  0
    0.7961    8.1846   -2.7871 H   0  0  0  0  0  0  0  0  0  0  0  0
   -0.4099    6.3231   -2.0233 H   0  0  0  0  0  0  0  0  0  0  0  0
    1.7497    4.5435   -2.0069 H   0  0  0  0  0  0  0  0  0  0  0  0
    2.3702    7.2605   -2.3187 H   0  0  0  0  0  0  0  0  0  0  0  0
   -0.0888    8.1540   -1.5617 H   0  0  0  0  0  0  0  0  0  0  0  0
    0.7612    9.6757    1.3323 H   0  0  0  0  0  0  0  0  0  0  0  0
   -0.6004    9.5576    0.1189 H   0  0  0  0  0  0  0  0  0  0  0  0
   -1.3617    7.8131    1.5255 H   0  0  0  0  0  0  0  0  0  0  0  0
    2.2370    7.8299    1.5349 H   0  0  0  0  0  0  0  0  0  0  0  0
   -0.9843    6.1215    0.3756 H   0  0  0  0  0  0  0  0  0  0  0  0
    0.2750    2.8489   -0.5889 H   0  0  0  0  0  0  0  0  0  0  0  0
   -2.3054    3.8838   -1.5962 H   0  0  0  0  0  0  0  0  0  0  0  0
   -1.7416    5.3276   -1.1658 H   0  0  0  0  0  0  0  0  0  0  0  0
    0.2129    5.2687   -0.7708 H   0  0  0  0  0  0  0  0  0  0  0  0
   -1.9743    2.1250   -0.1021 H   0  0  0  0  0  0  0  0  0  0  0  0
    1.3429    2.7243    1.0892 H   0  0  0  0  0  0  0  0  0  0  0  0
    0.6534    5.3977    3.9992 H   0  0  0  0  0  0  0  0  0  0  0  0
    3.2851    5.5670    3.4412 H   0  0  0  0  0  0  0  0  0  0  0  0
    2.7940    4.5234    2.1019 H   0  0  0  0  0  0  0  0  0  0  0  0
    1.2396    5.6524    1.9111 H   0  0  0  0  0  0  0  0  0  0  0  0
    2.6061    4.1158    5.0248 H   0  0  0  0  0  0  0  0  0  0  0  0
    1.3411    3.1940    6.2605 H   0  0  0  0  0  0  0  0  0  0  0  0
    2.6763    1.7165    4.4694 H   0  0  0  0  0  0  0  0  0  0  0  0
    2.8218    2.9801    1.9897 H   0  0  0  0  0  0  0  0  0  0  0  0
    1.4875    0.7962    2.5118 H   0  0  0  0  0  0  0  0  0  0  0  0
   -0.2442    2.1693    4.3844 H   0  0  0  0  0  0  0  0  0  0  0  0
   -3.0350    3.2735    1.8087 H   0  0  0  0  0  0  0  0  0  0  0  0
   -2.5981    5.4788    0.1598 H   0  0  0  0  0  0  0  0  0  0  0  0
   -2.1382    5.6493    2.5065 H   0  0  0  0  0  0  0  0  0  0  0  0
   -0.6884    3.4317    3.0044 H   0  0  0  0  0  0  0  0  0  0  0  0
    2.2745    5.1376    0.7145 H   0  0  0  0  0  0  0  0  0  0  0  0
    3.8563    6.2683    1.7030 H   0  0  0  0  0  0  0  0  0  0  0  0
    3.6882    5.6032   -1.4292 H   0  0  0  0  0  0  0  0  0  0  0  0
    1.3969    4.2034   -0.4440 H   0  0  0  0  0  0  0  0  0  0  0  0
  1 67  1  0  0  0  0
  1 68  1  0  0  0  0
  1 69  1  0  0  0  0
  2  3  1  0  0  0  0
  2 32  1  0  0  0  0
  2 70  1  6  0  0  0
  2  1  1  0  0  0  0
  3  4  1  0  0  0  0
  4  5  1  0  0  0  0
  4 28  1  0  0  0  0
  4 71  1  6  0  0  0
  6  5  1  0  0  0  0
  6  7  1  0  0  0  0
  6 26  1  0  0  0  0
  6 72  1  6  0  0  0
  7 10  1  0  0  0  0
  7 73  1  6  0  0  0
  7  8  1  0  0  0  0
  8  9  1  0  0  0  0
  8 74  1  0  0  0  0
  8 75  1  0  0  0  0
  9 76  1  0  0  0  0
 10 11  1  0  0  0  0
 11 12  1  0  0  0  0
 11 24  1  0  0  0  0
 11 77  1  1  0  0  0
 13 12  1  0  0  0  0
 13 14  1  0  0  0  0
 13 22  1  0  0  0  0
 13 78  1  1  0  0  0
 14 17  1  0  0  0  0
 14 79  1  1  0  0  0
 14 15  1  0  0  0  0
 15 16  1  0  0  0  0
 15 80  1  0  0  0  0
 15 81  1  0  0  0  0
 16 82  1  0  0  0  0
 17 18  1  0  0  0  0
 18 19  1  0  0  0  0
 18 20  1  0  0  0  0
 18 83  1  6  0  0  0
 19 84  1  0  0  0  0
 20 21  1  0  0  0  0
 20 22  1  0  0  0  0
 20 85  1  6  0  0  0
 21 86  1  0  0  0  0
 22 23  1  0  0  0  0
 22 87  1  1  0  0  0
 23 88  1  0  0  0  0
 24 25  1  0  0  0  0
 24 26  1  0  0  0  0
 24 89  1  1  0  0  0
 25 90  1  0  0  0  0
 26 27  1  0  0  0  0
 26 91  1  6  0  0  0
 27 92  1  0  0  0  0
 28 29  1  0  0  0  0
 28 30  1  0  0  0  0
 28 93  1  6  0  0  0
 29 94  1  0  0  0  0
 30 32  1  0  0  0  0
 30 95  1  6  0  0  0
 30 31  1  0  0  0  0
 31 96  1  0  0  0  0
 32 97  1  1  0  0  0
 32 33  1  0  0  0  0
 33 98  1  0  0  0  0
 34 33  1  0  0  0  0
 34 35  1  0  0  0  0
 34 65  1  0  0  0  0
 34 99  1  6  0  0  0
 35 36  2  0  0  0  0
 35100  1  0  0  0  0
 36 37  1  0  0  0  0
 36 39  1  0  0  0  0
 37 38  1  0  0  0  0
 37101  1  0  0  0  0
 37102  1  0  0  0  0
 38103  1  0  0  0  0
 39 40  1  0  0  0  0
 39 63  1  0  0  0  0
 39104  1  1  0  0  0
 41 42  1  0  0  0  0
 41 61  1  0  0  0  0
 41105  1  6  0  0  0
 41 40  1  0  0  0  0
 42 43  1  0  0  0  0
 43 44  1  0  0  0  0
 43 46  1  0  0  0  0
 43106  1  6  0  0  0
 44 45  1  0  0  0  0
 44107  1  0  0  0  0
 44108  1  0  0  0  0
 45109  1  0  0  0  0
 46 59  1  0  0  0  0
 46110  1  6  0  0  0
 46 47  1  0  0  0  0
 48 49  1  0  0  0  0
 48 57  1  0  0  0  0
 48111  1  6  0  0  0
 48 47  1  0  0  0  0
 49 50  1  0  0  0  0
 50 51  1  0  0  0  0
 50 53  1  0  0  0  0
 50112  1  1  0  0  0
 51 52  1  0  0  0  0
 51113  1  0  0  0  0
 51114  1  0  0  0  0
 52115  1  0  0  0  0
 53 55  1  0  0  0  0
 53116  1  1  0  0  0
 53 54  1  0  0  0  0
 54117  1  0  0  0  0
 55 56  1  0  0  0  0
 55 57  1  0  0  0  0
 55118  1  1  0  0  0
 56119  1  0  0  0  0
 57 58  1  0  0  0  0
 57120  1  6  0  0  0
 58121  1  0  0  0  0
 59 60  1  0  0  0  0
 59 61  1  0  0  0  0
 59122  1  1  0  0  0
 60123  1  0  0  0  0
 61 62  1  0  0  0  0
 61124  1  1  0  0  0
 62125  1  0  0  0  0
 63 65  1  0  0  0  0
 63126  1  1  0  0  0
 63 64  1  0  0  0  0
 64127  1  0  0  0  0
 65128  1  6  0  0  0
 65 66  1  0  0  0  0
 66129  1  0  0  0  0
M  END
>  <DRUGBANK_ID>
DB04618

>  <COMMON_NAME>
4,6-DIDEOXY-4-{[4-[(4-O-HEXOPYRANOSYLHEXOPYRANOSYL)OXY]-5,6-DIHYDROXY-3-(HYDROXYMETHYL)CYCLOHEX-2-EN-1-YL]AMINO}HEXOPYRANOSYL-(1->4)HEXOPYRANOSYL-(1->4)HEXOPYRANOSE

$$$$
