LSR
 OpenBabel10282417173D

 39 39  0  0  0  0  0  0  0  0999 V2000
    1.1070   -0.1139    0.0097 C   0  0  0  0  0  0  0  0  0  0  0  0
    0.5966   -0.2612    1.4056 C   0  0  0  0  0  0  0  0  0  0  0  0
   -0.1393    0.6164    2.1062 C   0  0  0  0  0  0  0  0  0  0  0  0
   -0.6385    1.9240    1.5268 C   0  0  0  0  0  0  0  0  0  0  0  0
   -0.5451    0.3672    3.4953 C   0  0  0  0  0  0  0  0  0  0  0  0
   -0.3792   -0.7654    4.2058 C   0  0  0  0  0  0  0  0  0  0  0  0
   -0.9814   -1.0270    5.5195 C   0  0  0  0  0  0  0  0  0  0  0  0
   -2.3031   -0.7998    5.7297 C   0  0  0  0  0  0  0  0  0  0  0  0
   -3.2992   -0.3705    4.6743 C   0  0  0  0  0  0  0  0  0  0  0  0
   -2.9635   -0.9818    7.0770 C   0  0  0  0  0  0  0  0  0  0  0  0
   -1.9954   -1.1947    8.2296 C   0  0  0  0  0  0  0  0  0  0  0  0
   -0.9197   -2.1838    7.8169 C   0  0  0  0  0  0  0  0  0  0  0  0
   -0.0763   -1.6618    6.6152 C   0  0  0  0  0  0  0  0  0  0  0  0
    0.7260   -2.8847    6.1062 C   0  0  0  0  0  0  0  0  0  0  0  0
    0.9315   -0.6153    7.1354 C   0  0  0  0  0  0  0  0  0  0  0  0
    0.8254    0.8202   -0.4750 H   0  0  0  0  0  0  0  0  0  0  0  0
    0.7339   -0.9334   -0.6098 H   0  0  0  0  0  0  0  0  0  0  0  0
    2.1993   -0.1533    0.0313 H   0  0  0  0  0  0  0  0  0  0  0  0
    0.8965   -1.2033    1.8594 H   0  0  0  0  0  0  0  0  0  0  0  0
   -1.7336    1.9404    1.4823 H   0  0  0  0  0  0  0  0  0  0  0  0
   -0.2932    2.7728    2.1243 H   0  0  0  0  0  0  0  0  0  0  0  0
   -0.2945    2.1095    0.5070 H   0  0  0  0  0  0  0  0  0  0  0  0
   -1.1202    1.1776    3.9469 H   0  0  0  0  0  0  0  0  0  0  0  0
    0.1808   -1.5964    3.7918 H   0  0  0  0  0  0  0  0  0  0  0  0
   -4.1124   -1.0997    4.6147 H   0  0  0  0  0  0  0  0  0  0  0  0
   -3.7126    0.6097    4.9308 H   0  0  0  0  0  0  0  0  0  0  0  0
   -2.9000   -0.3050    3.6618 H   0  0  0  0  0  0  0  0  0  0  0  0
   -3.5770   -0.1016    7.3036 H   0  0  0  0  0  0  0  0  0  0  0  0
   -3.6420   -1.8413    7.0112 H   0  0  0  0  0  0  0  0  0  0  0  0
   -2.5429   -1.5704    9.1014 H   0  0  0  0  0  0  0  0  0  0  0  0
   -1.5476   -0.2405    8.5299 H   0  0  0  0  0  0  0  0  0  0  0  0
   -1.4069   -3.1332    7.5518 H   0  0  0  0  0  0  0  0  0  0  0  0
   -0.2755   -2.4037    8.6780 H   0  0  0  0  0  0  0  0  0  0  0  0
    1.4280   -2.6206    5.3093 H   0  0  0  0  0  0  0  0  0  0  0  0
    1.3232   -3.3254    6.9151 H   0  0  0  0  0  0  0  0  0  0  0  0
    0.0597   -3.6683    5.7271 H   0  0  0  0  0  0  0  0  0  0  0  0
    1.5482   -1.0319    7.9420 H   0  0  0  0  0  0  0  0  0  0  0  0
    1.6131   -0.2851    6.3444 H   0  0  0  0  0  0  0  0  0  0  0  0
    0.4294    0.2726    7.5327 H   0  0  0  0  0  0  0  0  0  0  0  0
  1  2  1  0  0  0  0
  1 16  1  0  0  0  0
  1 17  1  0  0  0  0
  1 18  1  0  0  0  0
  2  3  2  0  0  0  0
  2 19  1  0  0  0  0
  3  4  1  0  0  0  0
  3  5  1  0  0  0  0
  4 20  1  0  0  0  0
  4 21  1  0  0  0  0
  4 22  1  0  0  0  0
  5  6  2  0  0  0  0
  5 23  1  0  0  0  0
  6  7  1  0  0  0  0
  6 24  1  0  0  0  0
  7  8  2  0  0  0  0
  7 13  1  0  0  0  0
  8  9  1  0  0  0  0
  8 10  1  0  0  0  0
  9 25  1  0  0  0  0
  9 26  1  0  0  0  0
  9 27  1  0  0  0  0
 10 11  1  0  0  0  0
 10 28  1  0  0  0  0
 10 29  1  0  0  0  0
 11 12  1  0  0  0  0
 11 30  1  0  0  0  0
 11 31  1  0  0  0  0
 12 13  1  0  0  0  0
 12 32  1  0  0  0  0
 12 33  1  0  0  0  0
 13 14  1  0  0  0  0
 13 15  1  0  0  0  0
 14 34  1  0  0  0  0
 14 35  1  0  0  0  0
 14 36  1  0  0  0  0
 15 37  1  0  0  0  0
 15 38  1  0  0  0  0
 15 39  1  0  0  0  0
M  END
>  <DRUGBANK_ID>
DB08127

>  <COMMON_NAME>
1,3,3-trimethyl-2-[(1E,3E)-3-methylpenta-1,3-dien-1-yl]cyclohexene

$$$$
