
 OpenBabel10282417183D

 48 49  0  0  0  0  0  0  0  0999 V2000
    1.2977   -0.1833    0.3976 C   0  0  0  0  0  0  0  0  0  0  0  0
    0.5804   -1.3381    0.2468 C   0  0  0  0  0  0  0  0  0  0  0  0
   -0.4684    1.3169    0.4100 C   0  0  0  0  0  0  0  0  0  0  0  0
   -1.1579    0.1731    0.8191 C   0  0  0  0  0  0  0  0  0  0  0  0
    0.8351    1.1250    0.1988 C   0  0  0  0  0  0  0  0  0  0  0  0
   -0.6624   -1.1477    0.6174 C   0  0  0  0  0  0  0  0  0  0  0  0
   -0.9736    2.5771    0.3020 O   0  0  0  0  0  0  0  0  0  0  0  0
    1.0562   -2.5812   -0.0101 O   0  0  0  0  0  0  0  0  0  0  0  0
    2.4737   -2.7698   -0.0871 C   0  0  0  0  0  0  0  0  0  0  0  0
    3.1808   -2.1690   -1.3241 C   0  0  0  0  0  0  0  0  0  0  0  0
    3.2567   -0.6405   -1.4187 C   0  0  0  0  0  0  0  0  0  0  0  0
    4.0116    0.0147   -0.2260 C   0  0  0  0  0  0  0  0  0  0  0  0
   -3.1602    2.4016   -0.8313 C   0  0  0  0  0  0  0  0  0  0  0  0
   -3.3457   -1.3657   -0.4387 C   0  0  0  0  0  0  0  0  0  0  0  0
   -3.9439   -2.0181   -1.6437 C   0  0  0  0  0  0  0  0  0  0  0  0
   -5.7275   -0.4836   -1.4176 C   0  0  0  0  0  0  0  0  0  0  0  0
   -5.1491    0.1109   -0.1287 C   0  0  0  0  0  0  0  0  0  0  0  0
   -5.3547   -1.8625   -1.6244 O   0  0  0  0  0  0  0  0  0  0  0  0
   -3.7029    0.0474   -0.2398 N   0  0  0  0  0  0  0  0  0  0  0  0
   -2.3899    2.7223    0.4570 C   0  0  0  0  0  0  0  0  0  0  0  0
   -3.1104    0.9330   -1.2654 C   0  0  0  0  0  0  0  0  0  0  0  0
    2.2197   -0.3417    0.8466 H   0  0  0  0  0  0  0  0  0  0  0  0
   -2.1389    0.2763    1.2141 H   0  0  0  0  0  0  0  0  0  0  0  0
    1.5316    1.9454    0.0224 H   0  0  0  0  0  0  0  0  0  0  0  0
   -1.2745   -2.0415    0.7520 H   0  0  0  0  0  0  0  0  0  0  0  0
    2.9333   -2.4677    0.8590 H   0  0  0  0  0  0  0  0  0  0  0  0
    2.6180   -3.8585   -0.1330 H   0  0  0  0  0  0  0  0  0  0  0  0
    4.2116   -2.5319   -1.3467 H   0  0  0  0  0  0  0  0  0  0  0  0
    2.6713   -2.5439   -2.2212 H   0  0  0  0  0  0  0  0  0  0  0  0
    3.7362   -0.2973   -2.3363 H   0  0  0  0  0  0  0  0  0  0  0  0
    2.2329   -0.2896   -1.6083 H   0  0  0  0  0  0  0  0  0  0  0  0
    5.0839   -0.0571   -0.3410 H   0  0  0  0  0  0  0  0  0  0  0  0
    3.7116    1.0664   -0.1088 H   0  0  0  0  0  0  0  0  0  0  0  0
    3.8889   -0.4577    0.7624 H   0  0  0  0  0  0  0  0  0  0  0  0
   -4.2036    2.7089   -0.7081 H   0  0  0  0  0  0  0  0  0  0  0  0
   -2.7480    3.0034   -1.6485 H   0  0  0  0  0  0  0  0  0  0  0  0
   -3.5180   -1.9343    0.4928 H   0  0  0  0  0  0  0  0  0  0  0  0
   -2.3121   -1.4366   -0.7176 H   0  0  0  0  0  0  0  0  0  0  0  0
   -3.4856   -1.5545   -2.5270 H   0  0  0  0  0  0  0  0  0  0  0  0
   -3.6423   -3.0740   -1.6472 H   0  0  0  0  0  0  0  0  0  0  0  0
   -6.8102   -0.4253   -1.3930 H   0  0  0  0  0  0  0  0  0  0  0  0
   -5.3904    0.0922   -2.2841 H   0  0  0  0  0  0  0  0  0  0  0  0
   -5.4549   -0.4600    0.7614 H   0  0  0  0  0  0  0  0  0  0  0  0
   -5.4705    1.1395    0.0616 H   0  0  0  0  0  0  0  0  0  0  0  0
   -2.7592    2.1820    1.3356 H   0  0  0  0  0  0  0  0  0  0  0  0
   -2.5693    3.7764    0.6998 H   0  0  0  0  0  0  0  0  0  0  0  0
   -3.5642    0.8119   -2.2498 H   0  0  0  0  0  0  0  0  0  0  0  0
   -2.0657    0.6720   -1.4727 H   0  0  0  0  0  0  0  0  0  0  0  0
  1  2  1  0  0  0  0
  1  5  2  0  0  0  0
  1 22  1  0  0  0  0
  3  7  1  0  0  0  0
  3  4  2  0  0  0  0
  4  6  1  0  0  0  0
  4 23  1  0  0  0  0
  5  3  1  0  0  0  0
  5 24  1  0  0  0  0
  6  2  2  0  0  0  0
  6 25  1  0  0  0  0
  8  2  1  0  0  0  0
  9  8  1  0  0  0  0
  9 26  1  0  0  0  0
  9 27  1  0  0  0  0
 10  9  1  0  0  0  0
 10 28  1  0  0  0  0
 10 29  1  0  0  0  0
 11 10  1  0  0  0  0
 11 30  1  0  0  0  0
 11 31  1  0  0  0  0
 12 11  1  0  0  0  0
 12 32  1  0  0  0  0
 12 33  1  0  0  0  0
 12 34  1  0  0  0  0
 13 21  1  0  0  0  0
 13 35  1  0  0  0  0
 13 36  1  0  0  0  0
 14 19  1  0  0  0  0
 14 15  1  0  0  0  0
 14 37  1  0  0  0  0
 14 38  1  0  0  0  0
 15 18  1  0  0  0  0
 15 39  1  0  0  0  0
 15 40  1  0  0  0  0
 16 17  1  0  0  0  0
 16 41  1  0  0  0  0
 16 42  1  0  0  0  0
 17 19  1  0  0  0  0
 17 43  1  0  0  0  0
 17 44  1  0  0  0  0
 18 16  1  0  0  0  0
 20  7  1  0  0  0  0
 20 13  1  0  0  0  0
 20 45  1  0  0  0  0
 20 46  1  0  0  0  0
 21 19  1  0  0  0  0
 21 47  1  0  0  0  0
 21 48  1  0  0  0  0
M  END
>  <DRUGBANK_ID>
DB09345

>  <COMMON_NAME>
Pramocaine

>  <CAS_NUMBER>
140-65-8

>  <UNII>
068X84E056

>  <SYNONYMS>
Pramoca√≠na; Pramocaine; Pramoxine

$$$$
