AED
 OpenBabel10282417163D

 37 38  0  0  0  0  0  0  0  0999 V2000
    1.0073   -0.0828   -0.0018 C   0  0  0  0  0  0  0  0  0  0  0  0
    2.1848    3.1698   -0.7299 C   0  0  0  0  0  0  0  0  0  0  0  0
    0.6311    3.1964    1.2873 C   0  0  0  0  0  0  0  0  0  0  0  0
   -1.8345   -0.0294   -0.0563 C   0  0  0  0  0  0  0  0  0  0  0  0
    0.2491   -1.2753    0.0221 C   0  0  0  0  0  0  0  0  0  0  0  0
    3.3572    3.5059    0.1821 C   0  0  0  0  0  0  0  0  0  0  0  0
   -3.3441    0.1018   -0.0330 C   0  0  0  0  0  0  0  0  0  0  0  0
   -3.9142    0.8340    1.2059 C   0  0  0  0  0  0  0  0  0  0  0  0
    2.3699   -0.1187    0.0553 O   0  0  0  0  0  0  0  0  0  0  0  0
   -1.1637   -1.2395    0.0040 C   0  0  0  0  0  0  0  0  0  0  0  0
   -3.5196    2.2419    1.3233 N   0  0  0  0  0  0  0  0  0  0  0  0
   -1.0496    1.1206   -0.1606 C   0  0  0  0  0  0  0  0  0  0  0  0
    0.3719    1.1331   -0.0965 C   0  0  0  0  0  0  0  0  0  0  0  0
    0.9392    2.5465   -0.0794 C   0  0  0  0  0  0  0  0  0  0  0  0
    2.9173    4.2328    1.4477 C   0  0  0  0  0  0  0  0  0  0  0  0
    1.8513    3.4318    2.1729 C   0  0  0  0  0  0  0  0  0  0  0  0
    1.8323    4.1572   -1.0831 H   0  0  0  0  0  0  0  0  0  0  0  0
    2.5128    2.6433   -1.6295 H   0  0  0  0  0  0  0  0  0  0  0  0
   -0.0888    2.6130    1.8743 H   0  0  0  0  0  0  0  0  0  0  0  0
    0.1474    4.1577    1.0782 H   0  0  0  0  0  0  0  0  0  0  0  0
    0.7296   -2.2466    0.0588 H   0  0  0  0  0  0  0  0  0  0  0  0
    3.8916    2.5885    0.4405 H   0  0  0  0  0  0  0  0  0  0  0  0
    4.0585    4.1527   -0.3623 H   0  0  0  0  0  0  0  0  0  0  0  0
   -3.6766    0.6067   -0.9501 H   0  0  0  0  0  0  0  0  0  0  0  0
   -3.7924   -0.8998   -0.0635 H   0  0  0  0  0  0  0  0  0  0  0  0
   -5.0089    0.8024    1.1605 H   0  0  0  0  0  0  0  0  0  0  0  0
   -3.6090    0.3095    2.1175 H   0  0  0  0  0  0  0  0  0  0  0  0
    2.6617   -1.0384   -0.0159 H   0  0  0  0  0  0  0  0  0  0  0  0
   -1.7282   -2.1715    0.0272 H   0  0  0  0  0  0  0  0  0  0  0  0
   -3.9418    2.6502    2.1556 H   0  0  0  0  0  0  0  0  0  0  0  0
   -2.5165    2.2745    1.5104 H   0  0  0  0  0  0  0  0  0  0  0  0
   -1.5589    2.0741   -0.2827 H   0  0  0  0  0  0  0  0  0  0  0  0
    0.2330    2.9542   -0.8153 H   0  0  0  0  0  0  0  0  0  0  0  0
    3.7812    4.3920    2.1033 H   0  0  0  0  0  0  0  0  0  0  0  0
    2.5223    5.2279    1.2019 H   0  0  0  0  0  0  0  0  0  0  0  0
    2.2720    2.4747    2.5034 H   0  0  0  0  0  0  0  0  0  0  0  0
    1.5392    3.9706    3.0755 H   0  0  0  0  0  0  0  0  0  0  0  0
  1  5  2  0  0  0  0
  1  9  1  0  0  0  0
  1 13  1  0  0  0  0
  2  6  1  0  0  0  0
  2 14  1  0  0  0  0
  2 17  1  0  0  0  0
  2 18  1  0  0  0  0
  3 14  1  0  0  0  0
  3 16  1  0  0  0  0
  3 19  1  0  0  0  0
  3 20  1  0  0  0  0
  4  7  1  0  0  0  0
  4 10  2  0  0  0  0
  4 12  1  0  0  0  0
  5 10  1  0  0  0  0
  5 21  1  0  0  0  0
  6 15  1  0  0  0  0
  6 22  1  0  0  0  0
  6 23  1  0  0  0  0
  7  8  1  0  0  0  0
  7 24  1  0  0  0  0
  7 25  1  0  0  0  0
  8 11  1  0  0  0  0
  8 26  1  0  0  0  0
  8 27  1  0  0  0  0
  9 28  1  0  0  0  0
 10 29  1  0  0  0  0
 11 30  1  0  0  0  0
 11 31  1  0  0  0  0
 12 13  2  0  0  0  0
 12 32  1  0  0  0  0
 13 14  1  0  0  0  0
 14 33  1  0  0  0  0
 15 16  1  0  0  0  0
 15 34  1  0  0  0  0
 15 35  1  0  0  0  0
 16 36  1  0  0  0  0
 16 37  1  0  0  0  0
M  END
>  <DRUGBANK_ID>
DB07345

>  <COMMON_NAME>
4-(2-aminoethyl)-2-cyclohexylphenol

$$$$
