
 OpenBabel10282417133D

 11 10  0  0  0  0  0  0  0  0999 V2000
    0.9265   -0.0882    0.0521 C   0  0  0  0  0  0  0  0  0  0  0  0
    0.2873   -0.4291   -1.1053 N   0  0  0  0  0  0  0  0  0  0  0  0
    0.2911    0.1696    1.0716 O   0  0  0  0  0  0  0  0  0  0  0  0
    2.4576   -0.0883    0.0043 C   0  0  0  0  0  0  0  0  0  0  0  0
    2.9686   -0.4147   -1.3443 N   0  0  0  0  0  0  0  0  0  0  0  0
   -0.7198   -0.3556   -1.1351 H   0  0  0  0  0  0  0  0  0  0  0  0
    0.8154   -0.4620   -1.9694 H   0  0  0  0  0  0  0  0  0  0  0  0
    2.8137    0.9035    0.3001 H   0  0  0  0  0  0  0  0  0  0  0  0
    2.8234   -0.8309    0.7204 H   0  0  0  0  0  0  0  0  0  0  0  0
    3.9889   -0.4088   -1.2997 H   0  0  0  0  0  0  0  0  0  0  0  0
    2.7153   -1.3812   -1.5508 H   0  0  0  0  0  0  0  0  0  0  0  0
  1  2  1  0  0  0  0
  2  6  1  0  0  0  0
  2  7  1  0  0  0  0
  3  1  2  0  0  0  0
  4  1  1  0  0  0  0
  4  5  1  0  0  0  0
  4  8  1  0  0  0  0
  4  9  1  0  0  0  0
  5 10  1  0  0  0  0
  5 11  1  0  0  0  0
M  END
>  <DRUGBANK_ID>
DB03636

>  <SECONDARY_ACCESSION_NUMBERS>
EXPT01617

>  <COMMON_NAME>
Glycinamide

>  <CAS_NUMBER>
598-41-4

>  <UNII>
4JDT453NWO

>  <SYNONYMS>
Aminomethylamide; Glycine amide

$$$$
