
 OpenBabel10282417103D

 42 42  0  0  0  0  0  0  0  0999 V2000
    0.9804   -0.0281    0.0944 C   0  0  0  0  0  0  0  0  0  0  0  0
    0.3618   -1.7108   -0.2491 S   0  0  0  0  0  0  0  0  0  0  0  0
    0.9562   -1.9592   -1.9385 C   0  0  0  0  0  0  0  0  0  0  0  0
    0.3185   -0.9880   -2.9259 C   0  0  0  0  0  0  0  0  0  0  0  0
    0.9979    0.2975   -2.9694 N   0  0  0  0  0  0  0  0  0  0  0  0
    1.8235    0.9079   -3.9032 C   0  0  0  0  0  0  0  0  0  0  0  0
    0.5444    0.4679    1.4258 C   0  0  0  0  0  0  0  0  0  0  0  0
    0.0396   -0.4255    2.3380 N   0  0  0  0  0  0  0  0  0  0  0  0
   -0.3569    0.1959    3.4188 C   0  0  0  0  0  0  0  0  0  0  0  0
   -0.1517    1.8998    3.4081 S   0  0  0  0  0  0  0  0  0  0  0  0
    0.5281    1.7879    1.8386 C   0  0  0  0  0  0  0  0  0  0  0  0
   -0.8561   -0.5531    4.6148 C   0  0  0  0  0  0  0  0  0  0  0  0
    2.2589    2.1573   -3.5722 C   0  0  0  0  0  0  0  0  0  0  0  0
    0.0593   -0.4499    5.7684 N   0  0  0  0  0  0  0  0  0  0  0  0
   -0.4999   -1.1883    6.8968 C   0  0  0  0  0  0  0  0  0  0  0  0
    1.3860   -0.9835    5.4327 C   0  0  0  0  0  0  0  0  0  0  0  0
    3.1051    2.9642   -4.4273 N   0  3  0  0  0  0  0  0  0  0  0  0
    3.4182    4.0788   -3.9654 O   0  0  0  0  0  0  0  0  0  0  0  0
    3.4584    2.5429   -5.5293 O   0  5  0  0  0  0  0  0  0  0  0  0
    2.1864    0.3110   -5.0848 N   0  0  0  0  0  0  0  0  0  0  0  0
    1.8864   -0.9309   -5.7330 C   0  0  0  0  0  0  0  0  0  0  0  0
    0.5246    0.6807   -0.5891 H   0  0  0  0  0  0  0  0  0  0  0  0
    2.0690    0.0097   -0.0057 H   0  0  0  0  0  0  0  0  0  0  0  0
    2.0510   -1.9468   -1.9738 H   0  0  0  0  0  0  0  0  0  0  0  0
    0.6479   -2.9763   -2.2108 H   0  0  0  0  0  0  0  0  0  0  0  0
    0.2851   -1.5018   -3.8669 H   0  0  0  0  0  0  0  0  0  0  0  0
   -0.7474   -0.8312   -2.7264 H   0  0  0  0  0  0  0  0  0  0  0  0
    0.5930    0.9641   -2.3264 H   0  0  0  0  0  0  0  0  0  0  0  0
    0.8530    2.6656    1.2981 H   0  0  0  0  0  0  0  0  0  0  0  0
   -1.8539   -0.1744    4.8667 H   0  0  0  0  0  0  0  0  0  0  0  0
   -0.9840   -1.6085    4.3291 H   0  0  0  0  0  0  0  0  0  0  0  0
    2.0466    2.6936   -2.6610 H   0  0  0  0  0  0  0  0  0  0  0  0
   -0.6016   -2.2576    6.6785 H   0  0  0  0  0  0  0  0  0  0  0  0
    0.1390   -1.0715    7.7776 H   0  0  0  0  0  0  0  0  0  0  0  0
   -1.4868   -0.7951    7.1640 H   0  0  0  0  0  0  0  0  0  0  0  0
    1.3464   -2.0423    5.1530 H   0  0  0  0  0  0  0  0  0  0  0  0
    1.8525   -0.4317    4.6087 H   0  0  0  0  0  0  0  0  0  0  0  0
    2.0643   -0.8692    6.2842 H   0  0  0  0  0  0  0  0  0  0  0  0
    2.7577    0.9172   -5.6844 H   0  0  0  0  0  0  0  0  0  0  0  0
    1.3288   -0.7405   -6.6524 H   0  0  0  0  0  0  0  0  0  0  0  0
    2.8201   -1.4496   -5.9515 H   0  0  0  0  0  0  0  0  0  0  0  0
    1.3163   -1.6591   -5.1838 H   0  0  0  0  0  0  0  0  0  0  0  0
  1  2  1  0  0  0  0
  1  7  1  0  0  0  0
  1 22  1  0  0  0  0
  1 23  1  0  0  0  0
  2  3  1  0  0  0  0
  3  4  1  0  0  0  0
  3 24  1  0  0  0  0
  3 25  1  0  0  0  0
  4  5  1  0  0  0  0
  4 26  1  0  0  0  0
  4 27  1  0  0  0  0
  5  6  1  0  0  0  0
  5 28  1  0  0  0  0
  6 13  2  3  0  0  0
  6 20  1  0  0  0  0
  7  8  1  0  0  0  0
  7 11  2  0  0  0  0
  8  9  2  0  0  0  0
  9 10  1  0  0  0  0
  9 12  1  0  0  0  0
 10 11  1  0  0  0  0
 11 29  1  0  0  0  0
 12 14  1  0  0  0  0
 12 30  1  0  0  0  0
 12 31  1  0  0  0  0
 13 17  1  0  0  0  0
 13 32  1  0  0  0  0
 14 15  1  0  0  0  0
 14 16  1  0  0  0  0
 15 33  1  0  0  0  0
 15 34  1  0  0  0  0
 15 35  1  0  0  0  0
 16 36  1  0  0  0  0
 16 37  1  0  0  0  0
 16 38  1  0  0  0  0
 17 18  2  0  0  0  0
 17 19  1  0  0  0  0
 20 21  1  0  0  0  0
 20 39  1  0  0  0  0
 21 40  1  0  0  0  0
 21 41  1  0  0  0  0
 21 42  1  0  0  0  0
M  CHG  2  17   1  19  -1
M  END
>  <DRUGBANK_ID>
DB00585

>  <SECONDARY_ACCESSION_NUMBERS>
APRD00706

>  <COMMON_NAME>
Nizatidine

>  <CAS_NUMBER>
76963-41-2

>  <UNII>
P41PML4GHR

>  <SYNONYMS>
N-(4-(6-Methylamino-7-nitro-2-thia-5-aza-6-hepten-1-yl)-2-thiazolylmethyl)-N,N-dimethylamine; Nizatidina; Nizatidine; Nizatidinum

$$$$
