
 OpenBabel10282417233D

 33 33  0  0  0  0  0  0  0  0999 V2000
    1.2756    0.2504    0.9184 S   0  0  0  0  0  0  0  0  0  0  0  0
    0.8049    1.6104   -0.5592 C   0  0  0  0  0  0  0  0  0  0  0  0
    0.9475   -1.3569    0.8057 O   0  0  0  0  0  0  0  0  0  0  0  0
    0.4675    0.6135    2.0964 O   0  0  0  0  0  0  0  0  0  0  0  0
    2.7019    0.2477    0.9729 O   0  0  0  0  0  0  0  0  0  0  0  0
    1.2392    1.5034   -2.0632 C   0  0  0  0  0  0  0  0  0  0  0  0
    0.5313    0.6127   -3.0027 N   0  0  0  0  0  0  0  0  0  0  0  0
   -0.9083    0.6379   -2.6338 C   0  0  0  0  0  0  0  0  0  0  0  0
    1.1749   -0.7043   -3.0147 C   0  0  0  0  0  0  0  0  0  0  0  0
   -1.2576    0.0523   -1.2515 C   0  0  0  0  0  0  0  0  0  0  0  0
    0.9233   -1.3217   -1.6577 C   0  0  0  0  0  0  0  0  0  0  0  0
   -0.5360   -1.2166   -1.0451 N   0  0  0  0  0  0  0  0  0  0  0  0
   -1.5880   -2.2604   -1.1797 C   0  0  0  0  0  0  0  0  0  0  0  0
   -1.9103   -2.5561   -2.6367 C   0  0  0  0  0  0  0  0  0  0  0  0
   -0.7140   -3.0312   -3.1965 O   0  0  0  0  0  0  0  0  0  0  0  0
   -0.2085    2.0401   -0.5135 H   0  0  0  0  0  0  0  0  0  0  0  0
    1.3312    2.4829   -0.1603 H   0  0  0  0  0  0  0  0  0  0  0  0
    0.2242   -1.6899    0.2225 H   0  0  0  0  0  0  0  0  0  0  0  0
    0.9701    2.4709   -2.5315 H   0  0  0  0  0  0  0  0  0  0  0  0
    2.3211    1.4507   -2.1995 H   0  0  0  0  0  0  0  0  0  0  0  0
   -1.2746    1.6680   -2.7099 H   0  0  0  0  0  0  0  0  0  0  0  0
   -1.4936    0.1143   -3.3907 H   0  0  0  0  0  0  0  0  0  0  0  0
    0.8541   -1.3284   -3.8501 H   0  0  0  0  0  0  0  0  0  0  0  0
    2.2736   -0.6790   -3.1576 H   0  0  0  0  0  0  0  0  0  0  0  0
   -1.0666    0.5917   -0.3271 H   0  0  0  0  0  0  0  0  0  0  0  0
   -2.3512    0.0867   -1.0952 H   0  0  0  0  0  0  0  0  0  0  0  0
    1.6801   -0.7433   -1.1097 H   0  0  0  0  0  0  0  0  0  0  0  0
    1.3607   -2.3204   -1.5084 H   0  0  0  0  0  0  0  0  0  0  0  0
   -1.2515   -3.1430   -0.6363 H   0  0  0  0  0  0  0  0  0  0  0  0
   -2.5097   -1.9320   -0.6637 H   0  0  0  0  0  0  0  0  0  0  0  0
   -2.6656   -3.3060   -2.8158 H   0  0  0  0  0  0  0  0  0  0  0  0
   -2.2007   -1.6498   -3.1679 H   0  0  0  0  0  0  0  0  0  0  0  0
   -0.1538   -2.3432   -2.8421 H   0  0  0  0  0  0  0  0  0  0  0  0
  1  2  1  0  0  0  0
  1  3  1  0  0  0  0
  1  4  2  0  0  0  0
  1  5  2  0  0  0  0
  2  6  1  0  0  0  0
  2 16  1  0  0  0  0
  2 17  1  0  0  0  0
  3 18  1  0  0  0  0
  6  7  1  0  0  0  0
  6 19  1  0  0  0  0
  6 20  1  0  0  0  0
  7  8  1  0  0  0  0
  7  9  1  0  0  0  0
  8 10  1  0  0  0  0
  8 21  1  0  0  0  0
  8 22  1  0  0  0  0
  9 11  1  0  0  0  0
  9 23  1  0  0  0  0
  9 24  1  0  0  0  0
 10 12  1  0  0  0  0
 10 25  1  0  0  0  0
 10 26  1  0  0  0  0
 11 12  1  0  0  0  0
 11 27  1  0  0  0  0
 11 28  1  0  0  0  0
 12 13  1  0  0  0  0
 13 14  1  0  0  0  0
 13 29  1  0  0  0  0
 13 30  1  0  0  0  0
 14 15  1  0  0  0  0
 14 31  1  0  0  0  0
 14 32  1  0  0  0  0
 15 33  1  0  0  0  0
M  END
>  <DRUGBANK_ID>
DB16872

>  <COMMON_NAME>
HEPES

>  <CAS_NUMBER>
7365-45-9

>  <UNII>
RWW266YE9I

>  <SYNONYMS>
4-(2-Hydroxyethyl)-1-piperazineethane sulfonic acid; 4-(2-Hydroxyethyl)-1-piperazineethane sulphonic acid

$$$$
