
 OpenBabel10282417183D

176176  0  0  0  0  0  0  0  0999 V2000
    5.1105   -0.3618   -5.5091 C   0  0  0  0  0  0  0  0  0  0  0  0
    4.4865   -1.1070   -6.6556 C   0  0  0  0  0  0  0  0  0  0  0  0
    5.2765   -0.8025   -7.9181 C   0  0  0  0  0  0  0  0  0  0  0  0
    6.6553   -1.4023   -7.6989 C   0  0  0  0  0  0  0  0  0  0  0  0
    6.4825   -2.8688   -7.2728 C   0  0  0  0  0  0  0  0  0  0  0  0
    5.7904   -3.6332   -8.4044 C   0  0  0  0  0  0  0  0  0  0  0  0
    6.6762   -3.5473   -9.6461 C   0  0  0  0  0  0  0  0  0  0  0  0
    8.0523   -4.1321   -9.3132 C   0  0  0  0  0  0  0  0  0  0  0  0
    7.8866   -5.5928   -8.8845 C   0  0  0  0  0  0  0  0  0  0  0  0
    7.2432   -6.3823  -10.0276 C   0  0  0  0  0  0  0  0  0  0  0  0
    8.1369   -6.3015  -11.2685 C   0  0  0  0  0  0  0  0  0  0  0  0
    9.5141   -6.8900  -10.9487 C   0  0  0  0  0  0  0  0  0  0  0  0
    9.3709   -8.3564  -10.5263 C   0  0  0  0  0  0  0  0  0  0  0  0
    8.7543   -9.1856  -11.6583 C   0  0  0  0  0  0  0  0  0  0  0  0
    9.6124   -9.1180  -12.9223 C   0  0  0  0  0  0  0  0  0  0  0  0
   11.0038   -9.6628  -12.6441 C   0  0  0  0  0  0  0  0  0  0  0  0
    6.2272   -0.5497   -5.0168 O   0  0  0  0  0  0  0  0  0  0  0  0
    4.3762    0.6391   -5.0444 N   0  0  0  0  0  0  0  0  0  0  0  0
    2.9786    0.7732   -5.3583 C   0  0  2  0  0  0  0  0  0  0  0  0
    1.9504   -0.2226   -4.8125 C   0  0  0  0  0  0  0  0  0  0  0  0
    0.6738    0.1544   -5.1769 N   0  0  0  0  0  0  0  0  0  0  0  0
   -0.5536   -0.5177   -4.8564 C   0  0  2  0  0  0  0  0  0  0  0  0
   -0.8973   -1.5211   -5.9626 C   0  0  0  0  0  0  0  0  0  0  0  0
   -0.7030   -1.1517   -7.2761 N   0  0  0  0  0  0  0  0  0  0  0  0
   -1.0404   -2.0474   -8.3882 C   0  0  2  0  0  0  0  0  0  0  0  0
   -0.7610   -1.3010   -9.6952 C   0  0  0  0  0  0  0  0  0  0  0  0
   -1.1239    0.0422   -9.6332 N   0  0  0  0  0  0  0  0  0  0  0  0
   -1.5199    0.7155  -10.8618 C   0  0  2  0  0  0  0  0  0  0  0  0
   -0.3417    0.7317  -11.8499 C   0  0  0  0  0  0  0  0  0  0  0  0
    0.8241    1.2635  -11.3089 N   0  0  0  0  0  0  0  0  0  0  0  0
    2.0828    1.3253  -12.0598 C   0  0  2  0  0  0  0  0  0  0  0  0
    3.2701    2.0621  -11.3207 C   0  0  0  0  0  0  0  0  0  0  0  0
    2.9895    2.6670  -10.0910 N   0  0  0  0  0  0  0  0  0  0  0  0
    3.9935    3.6034   -9.4391 C   0  0  2  0  0  0  0  0  0  0  0  0
    3.9938    3.8069   -7.7116 C   0  0  0  0  0  0  0  0  0  0  0  0
    2.8083    3.3817   -7.1712 N   0  0  0  0  0  0  0  0  0  0  0  0
    1.7763    3.3260   -5.6982 C   0  0  2  0  0  0  0  0  0  0  0  0
    0.0209    2.8543   -5.4135 C   0  0  0  0  0  0  0  0  0  0  0  0
   -0.5946    2.0442   -6.1225 O   0  0  0  0  0  0  0  0  0  0  0  0
   -0.8566    3.5928   -4.7188 N   0  0  0  0  0  0  0  0  0  0  0  0
    2.3502    4.4039   -4.8859 C   0  0  0  0  0  0  0  0  0  0  0  0
    1.8364    4.4148   -3.5294 C   0  0  0  0  0  0  0  0  0  0  0  0
    2.4391    3.5995   -2.5949 C   0  0  0  0  0  0  0  0  0  0  0  0
    2.0623    3.7742   -1.2914 C   0  0  0  0  0  0  0  0  0  0  0  0
    1.0470    4.6878   -0.9711 C   0  0  0  0  0  0  0  0  0  0  0  0
    0.4058    5.4545   -1.9390 C   0  0  0  0  0  0  0  0  0  0  0  0
    0.8219    5.3303   -3.2305 C   0  0  0  0  0  0  0  0  0  0  0  0
    4.8018    4.3547   -7.0344 O   0  0  0  0  0  0  0  0  0  0  0  0
    3.9157    4.9862  -10.1569 C   0  0  0  0  0  0  0  0  0  0  0  0
    4.6095    6.0561   -9.3042 C   0  0  0  0  0  0  0  0  0  0  0  0
    6.0752    5.6495   -9.2305 C   0  0  0  0  0  0  0  0  0  0  0  0
    4.4030    7.4594   -9.8310 C   0  0  0  0  0  0  0  0  0  0  0  0
    4.3828    2.1529  -11.8329 O   0  0  0  0  0  0  0  0  0  0  0  0
    1.8590    2.0399  -13.3912 C   0  0  0  0  0  0  0  0  0  0  0  0
   -0.5116    0.4350  -13.0262 O   0  0  0  0  0  0  0  0  0  0  0  0
   -1.9467    2.1442  -10.4978 C   0  0  0  0  0  0  0  0  0  0  0  0
   -2.3113    2.9904  -11.7124 C   0  0  0  0  0  0  0  0  0  0  0  0
   -3.4766    2.4136  -12.5101 C   0  0  0  0  0  0  0  0  0  0  0  0
   -4.6975    2.4721  -11.7321 N   0  0  0  0  0  0  0  0  0  0  0  0
   -5.8419    3.1152  -12.0414 C   0  0  0  0  0  0  0  0  0  0  0  0
   -6.8949    3.0933  -11.3037 N   0  0  0  0  0  0  0  0  0  0  0  0
   -5.8675    3.8407  -13.1627 N   0  0  0  0  0  0  0  0  0  0  0  0
   -0.4335   -1.8576  -10.7353 O   0  0  0  0  0  0  0  0  0  0  0  0
   -2.5429   -2.3606   -8.4102 C   0  0  0  0  0  0  0  0  0  0  0  0
   -2.9117   -3.2659   -9.4397 O   0  0  0  0  0  0  0  0  0  0  0  0
   -1.5080   -2.5473   -5.6815 O   0  0  0  0  0  0  0  0  0  0  0  0
   -1.7736    0.4328   -4.6325 C   0  0  0  0  0  0  0  0  0  0  0  0
   -2.9641   -0.2921   -4.0546 C   0  0  0  0  0  0  0  0  0  0  0  0
   -2.5661   -0.9445   -2.7405 C   0  0  0  0  0  0  0  0  0  0  0  0
   -2.1134    0.0802   -1.6949 C   0  0  0  0  0  0  0  0  0  0  0  0
   -3.2098    0.9882   -1.3809 N   0  0  0  0  0  0  0  0  0  0  0  0
    2.2252   -1.1744   -4.1323 O   0  0  0  0  0  0  0  0  0  0  0  0
    2.6280    1.1455   -6.9504 C   0  0  0  0  0  0  0  0  0  0  0  0
    1.1024    2.0180   -7.6886 C   0  0  0  0  0  0  0  0  0  0  0  0
    0.4573    3.8207   -7.5777 C   0  0  0  0  0  0  0  0  0  0  0  0
    1.2426    5.1802   -7.5723 C   0  0  0  0  0  0  0  0  0  0  0  0
    1.4035    5.3851   -8.9393 N   0  0  0  0  0  0  0  0  0  0  0  0
    4.3565   -2.1385   -6.3545 H   0  0  0  0  0  0  0  0  0  0  0  0
    3.4394   -0.9340   -6.8313 H   0  0  0  0  0  0  0  0  0  0  0  0
    4.7670   -1.2340   -8.7888 H   0  0  0  0  0  0  0  0  0  0  0  0
    5.3576    0.2674   -8.1521 H   0  0  0  0  0  0  0  0  0  0  0  0
    7.2730   -1.2743   -8.5877 H   0  0  0  0  0  0  0  0  0  0  0  0
    7.2128   -0.8493   -6.9434 H   0  0  0  0  0  0  0  0  0  0  0  0
    7.4444   -3.2842   -6.9786 H   0  0  0  0  0  0  0  0  0  0  0  0
    5.9203   -3.0080   -6.3470 H   0  0  0  0  0  0  0  0  0  0  0  0
    5.5953   -4.6619   -8.0897 H   0  0  0  0  0  0  0  0  0  0  0  0
    4.7890   -3.2554   -8.6351 H   0  0  0  0  0  0  0  0  0  0  0  0
    6.1913   -4.0512  -10.4845 H   0  0  0  0  0  0  0  0  0  0  0  0
    6.7862   -2.5230  -10.0110 H   0  0  0  0  0  0  0  0  0  0  0  0
    8.7203   -4.0144  -10.1687 H   0  0  0  0  0  0  0  0  0  0  0  0
    8.5717   -3.5745   -8.5289 H   0  0  0  0  0  0  0  0  0  0  0  0
    8.8543   -6.0014   -8.5833 H   0  0  0  0  0  0  0  0  0  0  0  0
    7.2852   -5.6998   -7.9772 H   0  0  0  0  0  0  0  0  0  0  0  0
    7.0620   -7.4118   -9.7101 H   0  0  0  0  0  0  0  0  0  0  0  0
    6.2399   -6.0211  -10.2706 H   0  0  0  0  0  0  0  0  0  0  0  0
    7.6534   -6.8095  -12.1064 H   0  0  0  0  0  0  0  0  0  0  0  0
    8.2497   -5.2750  -11.6309 H   0  0  0  0  0  0  0  0  0  0  0  0
   10.1758   -6.7697  -11.8100 H   0  0  0  0  0  0  0  0  0  0  0  0
   10.0270   -6.3293  -10.1607 H   0  0  0  0  0  0  0  0  0  0  0  0
   10.3436   -8.7491  -10.2216 H   0  0  0  0  0  0  0  0  0  0  0  0
    8.7618   -8.4605   -9.6223 H   0  0  0  0  0  0  0  0  0  0  0  0
    8.6352  -10.2225  -11.3312 H   0  0  0  0  0  0  0  0  0  0  0  0
    7.7385   -8.8411  -11.8887 H   0  0  0  0  0  0  0  0  0  0  0  0
    9.1329   -9.6860  -13.7238 H   0  0  0  0  0  0  0  0  0  0  0  0
    9.6870   -8.0904  -13.2978 H   0  0  0  0  0  0  0  0  0  0  0  0
   10.9329  -10.6997  -12.3033 H   0  0  0  0  0  0  0  0  0  0  0  0
   11.6245   -9.6156  -13.5389 H   0  0  0  0  0  0  0  0  0  0  0  0
   11.5243   -9.0898  -11.8698 H   0  0  0  0  0  0  0  0  0  0  0  0
    4.8399    1.1933   -4.3181 H   0  0  0  0  0  0  0  0  0  0  0  0
    2.9764    1.5705   -4.6134 H   0  0  0  0  0  0  0  0  0  0  0  0
    0.5338    0.7897   -5.9257 H   0  0  0  0  0  0  0  0  0  0  0  0
   -0.2952   -1.0541   -3.9536 H   0  0  0  0  0  0  0  0  0  0  0  0
   -0.1466   -0.3550   -7.5075 H   0  0  0  0  0  0  0  0  0  0  0  0
   -0.3969   -2.9315   -8.3426 H   0  0  0  0  0  0  0  0  0  0  0  0
   -1.7076    0.2618   -8.8317 H   0  0  0  0  0  0  0  0  0  0  0  0
   -2.3491    0.1506  -11.3067 H   0  0  0  0  0  0  0  0  0  0  0  0
    0.8711    1.1307  -10.3150 H   0  0  0  0  0  0  0  0  0  0  0  0
    2.4049    0.2885  -12.2331 H   0  0  0  0  0  0  0  0  0  0  0  0
    2.0021    2.8704  -10.0470 H   0  0  0  0  0  0  0  0  0  0  0  0
    4.9647    3.1501   -9.6575 H   0  0  0  0  0  0  0  0  0  0  0  0
    2.6149    2.8240   -7.9918 H   0  0  0  0  0  0  0  0  0  0  0  0
    1.9127    2.3995   -5.2691 H   0  0  0  0  0  0  0  0  0  0  0  0
   -0.6458    4.5648   -4.7226 H   0  0  0  0  0  0  0  0  0  0  0  0
   -1.8097    3.4285   -5.0454 H   0  0  0  0  0  0  0  0  0  0  0  0
    3.4401    4.3671   -4.9138 H   0  0  0  0  0  0  0  0  0  0  0  0
    2.0460    5.3513   -5.2953 H   0  0  0  0  0  0  0  0  0  0  0  0
    3.2472    2.9270   -2.8737 H   0  0  0  0  0  0  0  0  0  0  0  0
    2.6079    3.2354   -0.5278 H   0  0  0  0  0  0  0  0  0  0  0  0
    0.7753    4.8310    0.0639 H   0  0  0  0  0  0  0  0  0  0  0  0
   -0.3597    6.1843   -1.7044 H   0  0  0  0  0  0  0  0  0  0  0  0
    0.3611    5.9467   -4.0044 H   0  0  0  0  0  0  0  0  0  0  0  0
    4.3347    4.9347  -11.1665 H   0  0  0  0  0  0  0  0  0  0  0  0
    2.9085    5.2867  -10.4511 H   0  0  0  0  0  0  0  0  0  0  0  0
    4.1935    6.1207   -8.2908 H   0  0  0  0  0  0  0  0  0  0  0  0
    6.4754    5.5668  -10.2416 H   0  0  0  0  0  0  0  0  0  0  0  0
    6.6535    6.3421   -8.6247 H   0  0  0  0  0  0  0  0  0  0  0  0
    6.2154    4.6604   -8.7815 H   0  0  0  0  0  0  0  0  0  0  0  0
    3.3491    7.7533   -9.7427 H   0  0  0  0  0  0  0  0  0  0  0  0
    4.9851    8.1656   -9.2299 H   0  0  0  0  0  0  0  0  0  0  0  0
    4.7033    7.5247  -10.8750 H   0  0  0  0  0  0  0  0  0  0  0  0
    2.7808    2.1167  -13.9699 H   0  0  0  0  0  0  0  0  0  0  0  0
    1.1397    1.5243  -14.0320 H   0  0  0  0  0  0  0  0  0  0  0  0
    1.4678    3.0463  -13.2080 H   0  0  0  0  0  0  0  0  0  0  0  0
   -2.7934    2.1101   -9.7993 H   0  0  0  0  0  0  0  0  0  0  0  0
   -1.1403    2.6449   -9.9486 H   0  0  0  0  0  0  0  0  0  0  0  0
   -2.5447    4.0107  -11.3837 H   0  0  0  0  0  0  0  0  0  0  0  0
   -1.4385    3.0757  -12.3705 H   0  0  0  0  0  0  0  0  0  0  0  0
   -3.5369    2.9777  -13.4411 H   0  0  0  0  0  0  0  0  0  0  0  0
   -3.2905    1.3795  -12.8137 H   0  0  0  0  0  0  0  0  0  0  0  0
   -4.7228    1.9063  -10.8946 H   0  0  0  0  0  0  0  0  0  0  0  0
   -6.7442    2.5283  -10.4699 H   0  0  0  0  0  0  0  0  0  0  0  0
   -5.1446    3.8394  -13.8579 H   0  0  0  0  0  0  0  0  0  0  0  0
   -6.7518    4.2592  -13.4114 H   0  0  0  0  0  0  0  0  0  0  0  0
   -2.8654   -2.8025   -7.4694 H   0  0  0  0  0  0  0  0  0  0  0  0
   -3.1276   -1.4398   -8.5322 H   0  0  0  0  0  0  0  0  0  0  0  0
   -2.6307   -2.9078  -10.3014 H   0  0  0  0  0  0  0  0  0  0  0  0
   -1.4986    1.2621   -3.9674 H   0  0  0  0  0  0  0  0  0  0  0  0
   -2.1844    0.8909   -5.5409 H   0  0  0  0  0  0  0  0  0  0  0  0
   -3.7971    0.4100   -3.9269 H   0  0  0  0  0  0  0  0  0  0  0  0
   -3.3175   -1.0219   -4.7875 H   0  0  0  0  0  0  0  0  0  0  0  0
   -3.3991   -1.5461   -2.3781 H   0  0  0  0  0  0  0  0  0  0  0  0
   -1.7572   -1.6625   -2.9050 H   0  0  0  0  0  0  0  0  0  0  0  0
   -1.7822   -0.4444   -0.7968 H   0  0  0  0  0  0  0  0  0  0  0  0
   -1.2466    0.6634   -2.0333 H   0  0  0  0  0  0  0  0  0  0  0  0
   -2.8946    1.6895   -0.7160 H   0  0  0  0  0  0  0  0  0  0  0  0
   -3.4934    1.4999   -2.2146 H   0  0  0  0  0  0  0  0  0  0  0  0
    3.6227    1.6074   -7.1179 H   0  0  0  0  0  0  0  0  0  0  0  0
    2.8126    0.4093   -7.7350 H   0  0  0  0  0  0  0  0  0  0  0  0
    1.2314    1.9502   -8.7503 H   0  0  0  0  0  0  0  0  0  0  0  0
    0.3314    1.2742   -7.6517 H   0  0  0  0  0  0  0  0  0  0  0  0
   -0.5404    3.8421   -8.0172 H   0  0  0  0  0  0  0  0  0  0  0  0
    0.1081    4.1932   -6.6298 H   0  0  0  0  0  0  0  0  0  0  0  0
    0.8271    6.0271   -7.0043 H   0  0  0  0  0  0  0  0  0  0  0  0
    2.2393    5.2410   -7.1273 H   0  0  0  0  0  0  0  0  0  0  0  0
    2.2247    5.9866   -8.9343 H   0  0  0  0  0  0  0  0  0  0  0  0
    1.7271    4.4747   -9.2466 H   0  0  0  0  0  0  0  0  0  0  0  0
  1  2  1  0  0  0  0
  1 17  2  0  0  0  0
  1 18  1  0  0  0  0
  2  3  1  0  0  0  0
  2 78  1  0  0  0  0
  2 79  1  0  0  0  0
  3  4  1  0  0  0  0
  3 80  1  0  0  0  0
  3 81  1  0  0  0  0
  4  5  1  0  0  0  0
  4 82  1  0  0  0  0
  4 83  1  0  0  0  0
  5  6  1  0  0  0  0
  5 84  1  0  0  0  0
  5 85  1  0  0  0  0
  6  7  1  0  0  0  0
  6 86  1  0  0  0  0
  6 87  1  0  0  0  0
  7  8  1  0  0  0  0
  7 88  1  0  0  0  0
  7 89  1  0  0  0  0
  8  9  1  0  0  0  0
  8 90  1  0  0  0  0
  8 91  1  0  0  0  0
  9 10  1  0  0  0  0
  9 92  1  0  0  0  0
  9 93  1  0  0  0  0
 10 11  1  0  0  0  0
 10 94  1  0  0  0  0
 10 95  1  0  0  0  0
 11 12  1  0  0  0  0
 11 96  1  0  0  0  0
 11 97  1  0  0  0  0
 12 13  1  0  0  0  0
 12 98  1  0  0  0  0
 12 99  1  0  0  0  0
 13 14  1  0  0  0  0
 13100  1  0  0  0  0
 13101  1  0  0  0  0
 14 15  1  0  0  0  0
 14102  1  0  0  0  0
 14103  1  0  0  0  0
 15 16  1  0  0  0  0
 15104  1  0  0  0  0
 15105  1  0  0  0  0
 16106  1  0  0  0  0
 16107  1  0  0  0  0
 16108  1  0  0  0  0
 18109  1  0  0  0  0
 19 73  1  0  0  0  0
 19110  1  1  0  0  0
 19 20  1  0  0  0  0
 19 18  1  0  0  0  0
 20 72  2  0  0  0  0
 21 20  1  0  0  0  0
 21111  1  0  0  0  0
 22 67  1  0  0  0  0
 22112  1  1  0  0  0
 22 23  1  0  0  0  0
 22 21  1  0  0  0  0
 23 66  2  0  0  0  0
 24 23  1  0  0  0  0
 24113  1  0  0  0  0
 25 64  1  0  0  0  0
 25114  1  1  0  0  0
 25 26  1  0  0  0  0
 25 24  1  0  0  0  0
 26 63  2  0  0  0  0
 27 26  1  0  0  0  0
 27115  1  0  0  0  0
 28 56  1  0  0  0  0
 28116  1  6  0  0  0
 28 29  1  0  0  0  0
 28 27  1  0  0  0  0
 29 55  2  0  0  0  0
 30 29  1  0  0  0  0
 30117  1  0  0  0  0
 31 54  1  0  0  0  0
 31118  1  6  0  0  0
 31 32  1  0  0  0  0
 31 30  1  0  0  0  0
 32 53  2  0  0  0  0
 33 32  1  0  0  0  0
 33119  1  0  0  0  0
 34 49  1  0  0  0  0
 34120  1  6  0  0  0
 34 35  1  0  0  0  0
 34 33  1  0  0  0  0
 35 48  2  0  0  0  0
 36 35  1  0  0  0  0
 36121  1  0  0  0  0
 37 41  1  0  0  0  0
 37122  1  1  0  0  0
 37 38  1  0  0  0  0
 37 36  1  0  0  0  0
 38 39  2  0  0  0  0
 38 40  1  0  0  0  0
 40123  1  0  0  0  0
 40124  1  0  0  0  0
 41 42  1  0  0  0  0
 41125  1  0  0  0  0
 41126  1  0  0  0  0
 42 43  1  0  0  0  0
 42 47  2  0  0  0  0
 43 44  2  0  0  0  0
 43127  1  0  0  0  0
 44 45  1  0  0  0  0
 44128  1  0  0  0  0
 45 46  2  0  0  0  0
 45129  1  0  0  0  0
 46 47  1  0  0  0  0
 46130  1  0  0  0  0
 47131  1  0  0  0  0
 49 50  1  0  0  0  0
 49132  1  0  0  0  0
 49133  1  0  0  0  0
 50 51  1  0  0  0  0
 50 52  1  0  0  0  0
 50134  1  0  0  0  0
 51135  1  0  0  0  0
 51136  1  0  0  0  0
 51137  1  0  0  0  0
 52138  1  0  0  0  0
 52139  1  0  0  0  0
 52140  1  0  0  0  0
 54141  1  0  0  0  0
 54142  1  0  0  0  0
 54143  1  0  0  0  0
 56 57  1  0  0  0  0
 56144  1  0  0  0  0
 56145  1  0  0  0  0
 57 58  1  0  0  0  0
 57146  1  0  0  0  0
 57147  1  0  0  0  0
 58 59  1  0  0  0  0
 58148  1  0  0  0  0
 58149  1  0  0  0  0
 59 60  1  0  0  0  0
 59150  1  0  0  0  0
 60 61  2  0  0  0  0
 60 62  1  0  0  0  0
 61151  1  0  0  0  0
 62152  1  0  0  0  0
 62153  1  0  0  0  0
 64 65  1  0  0  0  0
 64154  1  0  0  0  0
 64155  1  0  0  0  0
 65156  1  0  0  0  0
 67 68  1  0  0  0  0
 67157  1  0  0  0  0
 67158  1  0  0  0  0
 68 69  1  0  0  0  0
 68159  1  0  0  0  0
 68160  1  0  0  0  0
 69 70  1  0  0  0  0
 69161  1  0  0  0  0
 69162  1  0  0  0  0
 70 71  1  0  0  0  0
 70163  1  0  0  0  0
 70164  1  0  0  0  0
 71165  1  0  0  0  0
 71166  1  0  0  0  0
 73 74  1  0  0  0  0
 73167  1  0  0  0  0
 73168  1  0  0  0  0
 74 75  1  0  0  0  0
 74169  1  0  0  0  0
 74170  1  0  0  0  0
 75 76  1  0  0  0  0
 75171  1  0  0  0  0
 75172  1  0  0  0  0
 76 77  1  0  0  0  0
 76173  1  0  0  0  0
 76174  1  0  0  0  0
 77175  1  0  0  0  0
 77176  1  0  0  0  0
M  END
>  <DRUGBANK_ID>
DB11839

>  <COMMON_NAME>
PZ-128

>  <CAS_NUMBER>
371131-16-7

>  <UNII>
IYT6MP4NS9

$$$$
