1AU
 OpenBabel10282417163D

 55 58  0  0  0  0  0  0  0  0999 V2000
   -0.0282   -0.7861    0.0154 C   0  0  0  0  0  0  0  0  0  0  0  0
    1.2331   -1.4312    0.0059 C   0  0  0  0  0  0  0  0  0  0  0  0
    2.4375   -0.7099   -0.0213 C   0  0  0  0  0  0  0  0  0  0  0  0
    2.4294    0.6788   -0.0104 C   0  0  0  0  0  0  0  0  0  0  0  0
    1.2158    1.3528    0.0219 C   0  0  0  0  0  0  0  0  0  0  0  0
    0.0025    0.6484    0.0165 C   0  0  0  0  0  0  0  0  0  0  0  0
   -1.1798    1.3919    0.0021 C   0  0  0  0  0  0  0  0  0  0  0  0
   -2.4010    0.7524   -0.0130 C   0  0  0  0  0  0  0  0  0  0  0  0
   -2.4498   -0.6351   -0.0081 C   0  0  0  0  0  0  0  0  0  0  0  0
   -1.3020   -1.4473    0.0129 C   0  0  0  0  0  0  0  0  0  0  0  0
   -1.4339   -2.8904    0.0273 N   0  0  0  0  0  0  0  0  0  0  0  0
   -2.6469   -3.5671    0.0182 C   0  0  0  0  0  0  0  0  0  0  0  0
   -3.7482   -3.0098    0.0078 O   0  0  0  0  0  0  0  0  0  0  0  0
   -2.5740   -4.9541    0.0517 N   0  0  0  0  0  0  0  0  0  0  0  0
   -3.8027   -5.6411    0.0422 C   0  0  0  0  0  0  0  0  0  0  0  0
   -4.9206   -5.3662   -0.7176 C   0  0  0  0  0  0  0  0  0  0  0  0
   -5.8875   -6.3427   -0.4045 C   0  0  0  0  0  0  0  0  0  0  0  0
   -7.2940   -6.4574   -0.9870 C   0  0  0  0  0  0  0  0  0  0  0  0
   -8.3700   -6.2538    0.0969 C   0  0  0  0  0  0  0  0  0  0  0  0
   -7.5257   -5.3833   -2.0785 C   0  0  0  0  0  0  0  0  0  0  0  0
   -7.4986   -7.8363   -1.6390 C   0  0  0  0  0  0  0  0  0  0  0  0
   -5.3873   -7.2368    0.4624 N   0  0  0  0  0  0  0  0  0  0  0  0
   -4.1431   -6.7641    0.7791 N   0  0  0  0  0  0  0  0  0  0  0  0
   -3.4036   -7.3818    1.8116 C   0  0  0  0  0  0  0  0  0  0  0  0
   -2.8803   -6.6265    2.8733 C   0  0  0  0  0  0  0  0  0  0  0  0
   -3.2173   -8.7644    1.7574 C   0  0  0  0  0  0  0  0  0  0  0  0
   -2.4685   -9.3889    2.7500 C   0  0  0  0  0  0  0  0  0  0  0  0
   -1.9627   -8.6422    3.8194 C   0  0  0  0  0  0  0  0  0  0  0  0
   -2.1966   -7.2647    3.9156 C   0  0  0  0  0  0  0  0  0  0  0  0
   -1.5578   -6.5154    4.9075 N   0  0  0  0  0  0  0  0  0  0  0  0
    1.3050   -2.5132    0.0079 H   0  0  0  0  0  0  0  0  0  0  0  0
    3.3875   -1.2376   -0.0521 H   0  0  0  0  0  0  0  0  0  0  0  0
    3.3610    1.2392   -0.0298 H   0  0  0  0  0  0  0  0  0  0  0  0
    1.2249    2.4422    0.0442 H   0  0  0  0  0  0  0  0  0  0  0  0
   -1.1699    2.4794   -0.0106 H   0  0  0  0  0  0  0  0  0  0  0  0
   -3.3311    1.3133   -0.0309 H   0  0  0  0  0  0  0  0  0  0  0  0
   -3.4543   -1.0316   -0.0265 H   0  0  0  0  0  0  0  0  0  0  0  0
   -0.5856   -3.4353    0.0406 H   0  0  0  0  0  0  0  0  0  0  0  0
   -1.7486   -5.4275    0.3935 H   0  0  0  0  0  0  0  0  0  0  0  0
   -5.0116   -4.5632   -1.4353 H   0  0  0  0  0  0  0  0  0  0  0  0
   -8.2784   -5.2697    0.5708 H   0  0  0  0  0  0  0  0  0  0  0  0
   -9.3784   -6.3196   -0.3323 H   0  0  0  0  0  0  0  0  0  0  0  0
   -8.2988   -7.0112    0.8848 H   0  0  0  0  0  0  0  0  0  0  0  0
   -7.4244   -4.3706   -1.6683 H   0  0  0  0  0  0  0  0  0  0  0  0
   -6.7988   -5.4851   -2.8936 H   0  0  0  0  0  0  0  0  0  0  0  0
   -8.5260   -5.4583   -2.5186 H   0  0  0  0  0  0  0  0  0  0  0  0
   -7.3997   -8.6452   -0.9068 H   0  0  0  0  0  0  0  0  0  0  0  0
   -8.4953   -7.9180   -2.0888 H   0  0  0  0  0  0  0  0  0  0  0  0
   -6.7598   -8.0104   -2.4295 H   0  0  0  0  0  0  0  0  0  0  0  0
   -3.0637   -5.5560    2.9305 H   0  0  0  0  0  0  0  0  0  0  0  0
   -3.6086   -9.3429    0.9232 H   0  0  0  0  0  0  0  0  0  0  0  0
   -2.2717  -10.4562    2.6898 H   0  0  0  0  0  0  0  0  0  0  0  0
   -1.3891   -9.1542    4.5883 H   0  0  0  0  0  0  0  0  0  0  0  0
   -1.2814   -7.0246    5.7419 H   0  0  0  0  0  0  0  0  0  0  0  0
   -1.9515   -5.6001    5.1027 H   0  0  0  0  0  0  0  0  0  0  0  0
  1  2  1  0  0  0  0
  2  3  2  0  0  0  0
  2 31  1  0  0  0  0
  3 32  1  0  0  0  0
  4  3  1  0  0  0  0
  4 33  1  0  0  0  0
  5  4  2  0  0  0  0
  5 34  1  0  0  0  0
  6  1  1  0  0  0  0
  6  5  1  0  0  0  0
  7  6  2  0  0  0  0
  7 35  1  0  0  0  0
  8  7  1  0  0  0  0
  8  9  2  0  0  0  0
  8 36  1  0  0  0  0
  9 10  1  0  0  0  0
  9 37  1  0  0  0  0
 10  1  2  0  0  0  0
 10 11  1  0  0  0  0
 11 38  1  0  0  0  0
 12 11  1  0  0  0  0
 12 14  1  0  0  0  0
 13 12  2  0  0  0  0
 14 39  1  0  0  0  0
 15 14  1  0  0  0  0
 15 23  1  0  0  0  0
 16 15  2  0  0  0  0
 16 17  1  0  0  0  0
 16 40  1  0  0  0  0
 17 22  2  0  0  0  0
 18 17  1  0  0  0  0
 18 21  1  0  0  0  0
 19 18  1  0  0  0  0
 19 41  1  0  0  0  0
 19 42  1  0  0  0  0
 19 43  1  0  0  0  0
 20 18  1  0  0  0  0
 20 44  1  0  0  0  0
 20 45  1  0  0  0  0
 20 46  1  0  0  0  0
 21 47  1  0  0  0  0
 21 48  1  0  0  0  0
 21 49  1  0  0  0  0
 22 23  1  0  0  0  0
 23 24  1  0  0  0  0
 24 26  2  0  0  0  0
 24 25  1  0  0  0  0
 25 29  2  0  0  0  0
 25 50  1  0  0  0  0
 26 27  1  0  0  0  0
 26 51  1  0  0  0  0
 27 28  2  0  0  0  0
 27 52  1  0  0  0  0
 28 53  1  0  0  0  0
 29 28  1  0  0  0  0
 29 30  1  0  0  0  0
 30 54  1  0  0  0  0
 30 55  1  0  0  0  0
M  END
>  <DRUGBANK_ID>
DB06882

>  <COMMON_NAME>
1-[1-(3-aminophenyl)-3-tert-butyl-1H-pyrazol-5-yl]-3-naphthalen-1-ylurea

$$$$
