
 OpenBabel10282417163D

 48 51  0  0  1  0  0  0  0  0999 V2000
    0.8339    0.1472   -0.0987 F   0  0  0  0  0  0  0  0  0  0  0  0
    2.1713    0.0586   -0.1149 C   0  0  0  0  0  0  0  0  0  0  0  0
    2.7891   -1.1814   -0.1142 C   0  0  0  0  0  0  0  0  0  0  0  0
    4.2132   -1.1589   -0.1582 C   0  0  0  0  0  0  0  0  0  0  0  0
    4.8167   -2.6739   -0.5495 Cl  0  0  0  0  0  0  0  0  0  0  0  0
    5.0524   -0.0282   -0.1001 C   0  0  0  0  0  0  0  0  0  0  0  0
    4.3415    1.1905   -0.0825 C   0  0  0  0  0  0  0  0  0  0  0  0
    2.9265    1.2326   -0.1005 C   0  0  0  0  0  0  0  0  0  0  0  0
    5.0618    2.4888   -0.0792 C   0  0  0  0  0  0  0  0  0  0  0  0
    4.4176    3.5322   -0.0728 O   0  0  0  0  0  0  0  0  0  0  0  0
    6.5411    2.4743   -0.0940 C   0  0  0  0  0  0  0  0  0  0  0  0
    7.3187    3.7339   -0.0865 C   0  0  0  0  0  0  0  0  0  0  0  0
    6.8725    4.8769   -0.0776 O   0  0  0  0  0  0  0  0  0  0  0  0
    8.6543    3.5647   -0.0798 O   0  0  0  0  0  0  0  0  0  0  0  0
    7.1170    1.2589   -0.1065 C   0  0  0  0  0  0  0  0  0  0  0  0
    6.4983   -0.0063   -0.0841 N   0  0  0  0  0  0  0  0  0  0  0  0
    7.5140   -1.1480   -0.0612 C   0  0  0  0  0  0  0  0  0  0  0  0
    7.5519   -2.2019   -1.1522 C   0  0  0  0  0  0  0  0  0  0  0  0
    7.5209   -2.6073    0.3074 C   0  0  0  0  0  0  0  0  0  0  0  0
    2.1033   -2.4072   -0.0342 N   0  0  0  0  0  0  0  0  0  0  0  0
    1.2302   -2.9097   -1.0978 C   0  0  0  0  0  0  0  0  0  0  0  0
    1.7912   -4.1728   -1.7798 C   0  0  0  0  0  0  0  0  0  0  0  0
    1.4305   -5.4953   -1.0718 C   0  0  0  0  0  0  0  0  0  0  0  0
    1.4744   -5.4741    0.4635 C   0  0  0  0  0  0  0  0  0  0  0  0
    2.6591   -4.7045    1.0358 C   0  0  1  0  0  0  0  0  0  0  0  0
    3.8184   -5.0515    0.2310 N   0  0  0  0  0  0  0  0  0  0  0  0
    2.2668   -3.1869    1.2068 C   0  0  0  0  0  0  0  0  0  0  0  0
    2.4024    2.1868   -0.0895 H   0  0  0  0  0  0  0  0  0  0  0  0
    8.9930    4.4888   -0.0735 H   0  0  0  0  0  0  0  0  0  0  0  0
    8.2041    1.2011   -0.1282 H   0  0  0  0  0  0  0  0  0  0  0  0
    8.4542   -0.7628    0.3307 H   0  0  0  0  0  0  0  0  0  0  0  0
    6.7103   -2.3821   -1.8116 H   0  0  0  0  0  0  0  0  0  0  0  0
    8.4458   -2.3693   -1.7342 H   0  0  0  0  0  0  0  0  0  0  0  0
    8.4344   -3.0847    0.6591 H   0  0  0  0  0  0  0  0  0  0  0  0
    6.7055   -3.0422    0.8678 H   0  0  0  0  0  0  0  0  0  0  0  0
    0.2505   -3.1416   -0.6683 H   0  0  0  0  0  0  0  0  0  0  0  0
    1.0710   -2.1436   -1.8639 H   0  0  0  0  0  0  0  0  0  0  0  0
    1.4065   -4.2431   -2.8046 H   0  0  0  0  0  0  0  0  0  0  0  0
    2.8762   -4.0963   -1.9120 H   0  0  0  0  0  0  0  0  0  0  0  0
    0.4275   -5.8102   -1.3781 H   0  0  0  0  0  0  0  0  0  0  0  0
    2.1068   -6.2841   -1.4345 H   0  0  0  0  0  0  0  0  0  0  0  0
    0.5398   -5.0432    0.8401 H   0  0  0  0  0  0  0  0  0  0  0  0
    1.5037   -6.5042    0.8389 H   0  0  0  0  0  0  0  0  0  0  0  0
    2.8800   -5.0630    2.0470 H   0  0  0  0  0  0  0  0  0  0  0  0
    4.1836   -5.9896    0.2754 H   0  0  0  0  0  0  0  0  0  0  0  0
    4.5491   -4.3482    0.2878 H   0  0  0  0  0  0  0  0  0  0  0  0
    2.9986   -2.7114    1.8744 H   0  0  0  0  0  0  0  0  0  0  0  0
    1.3105   -3.1276    1.7418 H   0  0  0  0  0  0  0  0  0  0  0  0
  1  2  1  0  0  0  0
  2  3  2  0  0  0  0
  2  8  1  0  0  0  0
  3  4  1  0  0  0  0
  3 20  1  0  0  0  0
  4  5  1  0  0  0  0
  4  6  2  0  0  0  0
  6  7  1  0  0  0  0
  6 16  1  0  0  0  0
  7  8  2  0  0  0  0
  7  9  1  0  0  0  0
  8 28  1  0  0  0  0
  9 10  2  0  0  0  0
  9 11  1  0  0  0  0
 11 12  1  0  0  0  0
 11 15  2  0  0  0  0
 12 13  2  0  0  0  0
 12 14  1  0  0  0  0
 14 29  1  0  0  0  0
 15 16  1  0  0  0  0
 15 30  1  0  0  0  0
 16 17  1  0  0  0  0
 17 18  1  0  0  0  0
 17 19  1  0  0  0  0
 17 31  1  0  0  0  0
 18 19  1  0  0  0  0
 18 32  1  0  0  0  0
 18 33  1  0  0  0  0
 19 34  1  0  0  0  0
 19 35  1  0  0  0  0
 20 21  1  0  0  0  0
 20 27  1  0  0  0  0
 21 22  1  0  0  0  0
 21 36  1  0  0  0  0
 21 37  1  0  0  0  0
 22 23  1  0  0  0  0
 22 38  1  0  0  0  0
 22 39  1  0  0  0  0
 23 24  1  0  0  0  0
 23 40  1  0  0  0  0
 23 41  1  0  0  0  0
 24 25  1  0  0  0  0
 24 42  1  0  0  0  0
 24 43  1  0  0  0  0
 25 27  1  0  0  0  0
 25 44  1  1  0  0  0
 25 26  1  0  0  0  0
 26 45  1  0  0  0  0
 26 46  1  0  0  0  0
 27 47  1  0  0  0  0
 27 48  1  0  0  0  0
M  END
>  <DRUGBANK_ID>
DB06771

>  <SECONDARY_ACCESSION_NUMBERS>
DB05862

>  <COMMON_NAME>
Besifloxacin

>  <CAS_NUMBER>
141388-76-3

>  <UNII>
BFE2NBZ7NX

>  <SYNONYMS>
Besifloxacin

$$$$
