GF4
 OpenBabel10282417163D

 24 25  0  0  0  0  0  0  0  0999 V2000
    0.9577   -0.0302    0.0837 O   0  0  0  0  0  0  0  0  0  0  0  0
    2.1805   -0.0500    0.0681 C   0  0  0  0  0  0  0  0  0  0  0  0
    3.0354    1.1629    0.1064 C   0  0  0  0  0  0  0  0  0  0  0  0
    2.4926    2.5406    0.0619 C   0  0  0  0  0  0  0  0  0  0  0  0
    1.6635    2.7818   -1.1848 C   0  0  0  0  0  0  0  0  0  0  0  0
    4.2990    0.7106    0.1924 C   0  0  0  0  0  0  0  0  0  0  0  0
    5.5003    1.5947    0.1359 C   0  0  0  0  0  0  0  0  0  0  0  0
    4.3480   -0.6709    0.3799 N   0  0  0  0  0  0  0  0  0  0  0  0
    3.0588   -1.1237    0.0816 N   0  0  0  0  0  0  0  0  0  0  0  0
    2.6044   -2.4092    0.0470 C   0  0  0  0  0  0  0  0  0  0  0  0
    2.9163   -3.3554    0.9756 N   0  0  0  0  0  0  0  0  0  0  0  0
    2.2877   -4.5060    0.6895 N   0  0  0  0  0  0  0  0  0  0  0  0
    1.5961   -4.2532   -0.4134 N   0  0  0  0  0  0  0  0  0  0  0  0
    1.7494   -2.9446   -0.7988 N   0  0  0  0  0  0  0  0  0  0  0  0
    1.8853    2.7107    0.9590 H   0  0  0  0  0  0  0  0  0  0  0  0
    3.3056    3.2750    0.0966 H   0  0  0  0  0  0  0  0  0  0  0  0
    0.7921    2.1209   -1.2200 H   0  0  0  0  0  0  0  0  0  0  0  0
    1.2984    3.8118   -1.2009 H   0  0  0  0  0  0  0  0  0  0  0  0
    2.2588    2.6067   -2.0866 H   0  0  0  0  0  0  0  0  0  0  0  0
    5.4812    2.2307   -0.7603 H   0  0  0  0  0  0  0  0  0  0  0  0
    5.5076    2.2543    1.0094 H   0  0  0  0  0  0  0  0  0  0  0  0
    6.4354    1.0305    0.1196 H   0  0  0  0  0  0  0  0  0  0  0  0
    5.1214   -1.1516   -0.0822 H   0  0  0  0  0  0  0  0  0  0  0  0
    3.4211   -3.2607    1.8453 H   0  0  0  0  0  0  0  0  0  0  0  0
  2  1  2  0  0  0  0
  3  2  1  0  0  0  0
  3  4  1  0  0  0  0
  4  5  1  0  0  0  0
  4 15  1  0  0  0  0
  4 16  1  0  0  0  0
  5 17  1  0  0  0  0
  5 18  1  0  0  0  0
  5 19  1  0  0  0  0
  6  3  2  0  0  0  0
  6  8  1  0  0  0  0
  7  6  1  0  0  0  0
  7 20  1  0  0  0  0
  7 21  1  0  0  0  0
  7 22  1  0  0  0  0
  8  9  1  0  0  0  0
  8 23  1  0  0  0  0
  9  2  1  0  0  0  0
  9 10  1  0  0  0  0
 10 14  2  0  0  0  0
 11 10  1  0  0  0  0
 11 12  1  0  0  0  0
 11 24  1  0  0  0  0
 12 13  2  0  0  0  0
 13 14  1  0  0  0  0
M  END
>  <DRUGBANK_ID>
DB07824

>  <COMMON_NAME>
4-ethyl-5-methyl-2-(1H-tetrazol-5-yl)-1,2-dihydro-3H-pyrazol-3-one

$$$$
