
 OpenBabel10282417233D

 46 49  0  0  0  0  0  0  0  0999 V2000
    1.0827   -0.1402    2.0183 N   0  0  0  0  0  0  0  0  0  0  0  0
    1.3872   -1.4447    1.3952 C   0  0  0  0  0  0  0  0  0  0  0  0
    0.3923    0.7531    1.0504 C   0  0  1  0  0  0  0  0  0  0  0  0
    0.1159   -2.1588    1.0369 C   0  0  0  0  0  0  0  0  0  0  0  0
   -0.9582    1.3614    1.3630 C   0  0  1  0  0  0  0  0  0  0  0  0
    0.2433    2.2449    1.2219 C   0  0  0  0  0  0  0  0  0  0  0  0
   -0.5909   -3.0796    1.9974 C   0  0  0  0  0  0  0  0  0  0  0  0
    0.1009   -3.6428    0.7828 C   0  0  0  0  0  0  0  0  0  0  0  0
   -2.1119    1.2664    0.3558 C   0  0  0  0  0  0  0  0  0  0  0  0
   -2.8474    0.1162    0.1894 C   0  0  0  0  0  0  0  0  0  0  0  0
   -2.7935    2.5584   -0.5130 S   0  0  0  0  0  0  0  0  0  0  0  0
   -3.9854    0.2640   -0.6939 C   0  0  0  0  0  0  0  0  0  0  0  0
   -4.0737    1.5733   -1.1241 C   0  0  0  0  0  0  0  0  0  0  0  0
   -4.8686   -0.8600   -1.0151 C   0  0  0  0  0  0  0  0  0  0  0  0
   -5.9052   -0.6636   -1.9176 N   0  0  0  0  0  0  0  0  0  0  0  0
   -4.6353   -1.9457   -0.4826 O   0  0  0  0  0  0  0  0  0  0  0  0
   -6.8742   -1.7115   -2.3120 C   0  0  0  0  0  0  0  0  0  0  0  0
   -6.3519   -3.1362   -2.1037 C   0  0  0  0  0  0  0  0  0  0  0  0
   -7.3023   -1.5351   -3.7793 C   0  0  0  0  0  0  0  0  0  0  0  0
   -7.2698   -4.1930   -2.6700 C   0  0  0  0  0  0  0  0  0  0  0  0
   -8.1858   -2.6923   -4.2390 C   0  0  0  0  0  0  0  0  0  0  0  0
   -7.5349   -3.9439   -4.0432 O   0  0  0  0  0  0  0  0  0  0  0  0
    0.5472   -0.3134    2.8707 H   0  0  0  0  0  0  0  0  0  0  0  0
    1.9713   -1.2754    0.4818 H   0  0  0  0  0  0  0  0  0  0  0  0
    2.0221   -2.0558    2.0492 H   0  0  0  0  0  0  0  0  0  0  0  0
    0.6285    0.5026    0.0182 H   0  0  0  0  0  0  0  0  0  0  0  0
   -0.4912   -1.5730    0.3596 H   0  0  0  0  0  0  0  0  0  0  0  0
   -1.3191    1.2114    2.3782 H   0  0  0  0  0  0  0  0  0  0  0  0
    0.6072    2.7492    2.1079 H   0  0  0  0  0  0  0  0  0  0  0  0
    0.4169    2.8119    0.3116 H   0  0  0  0  0  0  0  0  0  0  0  0
   -0.1553   -3.2759    2.9691 H   0  0  0  0  0  0  0  0  0  0  0  0
   -1.6767   -3.0541    2.0005 H   0  0  0  0  0  0  0  0  0  0  0  0
   -0.5227   -4.0122   -0.0259 H   0  0  0  0  0  0  0  0  0  0  0  0
    1.0250   -4.1936    0.9071 H   0  0  0  0  0  0  0  0  0  0  0  0
   -2.6044   -0.8254    0.6694 H   0  0  0  0  0  0  0  0  0  0  0  0
   -4.8227    2.0176   -1.7637 H   0  0  0  0  0  0  0  0  0  0  0  0
   -6.1094    0.2796   -2.2171 H   0  0  0  0  0  0  0  0  0  0  0  0
   -7.7626   -1.5647   -1.6824 H   0  0  0  0  0  0  0  0  0  0  0  0
   -5.3687   -3.2207   -2.5851 H   0  0  0  0  0  0  0  0  0  0  0  0
   -6.2431   -3.3520   -1.0374 H   0  0  0  0  0  0  0  0  0  0  0  0
   -7.8337   -0.5868   -3.9218 H   0  0  0  0  0  0  0  0  0  0  0  0
   -6.4053   -1.4992   -4.4112 H   0  0  0  0  0  0  0  0  0  0  0  0
   -6.7831   -5.1701   -2.5825 H   0  0  0  0  0  0  0  0  0  0  0  0
   -8.2084   -4.2377   -2.1062 H   0  0  0  0  0  0  0  0  0  0  0  0
   -9.1456   -2.6958   -3.7093 H   0  0  0  0  0  0  0  0  0  0  0  0
   -8.3995   -2.6009   -5.3085 H   0  0  0  0  0  0  0  0  0  0  0  0
  1  2  1  0  0  0  0
  1 23  1  0  0  0  0
  2  4  1  0  0  0  0
  2 24  1  0  0  0  0
  2 25  1  0  0  0  0
  3  5  1  0  0  0  0
  3  6  1  0  0  0  0
  3 26  1  6  0  0  0
  3  1  1  0  0  0  0
  4  7  1  0  0  0  0
  4  8  1  0  0  0  0
  4 27  1  0  0  0  0
  5  6  1  0  0  0  0
  5  9  1  0  0  0  0
  5 28  1  1  0  0  0
  6 29  1  0  0  0  0
  6 30  1  0  0  0  0
  7  8  1  0  0  0  0
  7 31  1  0  0  0  0
  7 32  1  0  0  0  0
  8 33  1  0  0  0  0
  8 34  1  0  0  0  0
  9 10  2  0  0  0  0
  9 11  1  0  0  0  0
 10 12  1  0  0  0  0
 10 35  1  0  0  0  0
 11 13  1  0  0  0  0
 12 13  2  0  0  0  0
 12 14  1  0  0  0  0
 13 36  1  0  0  0  0
 14 15  1  0  0  0  0
 14 16  2  0  0  0  0
 15 17  1  0  0  0  0
 15 37  1  0  0  0  0
 17 18  1  0  0  0  0
 17 19  1  0  0  0  0
 17 38  1  0  0  0  0
 18 20  1  0  0  0  0
 18 39  1  0  0  0  0
 18 40  1  0  0  0  0
 19 21  1  0  0  0  0
 19 41  1  0  0  0  0
 19 42  1  0  0  0  0
 20 22  1  0  0  0  0
 20 43  1  0  0  0  0
 20 44  1  0  0  0  0
 21 22  1  0  0  0  0
 21 45  1  0  0  0  0
 21 46  1  0  0  0  0
M  END
>  <DRUGBANK_ID>
DB16939

>  <COMMON_NAME>
TAK-418 free base

>  <CAS_NUMBER>
1818252-52-6

>  <UNII>
N9N6RK0CBN

>  <SYNONYMS>
5-((1R,2R)-2-((Cyclopropylmethyl)amino)cyclopropyl)-N-(tetrahydro-2H-pyran-4-yl)thiophene-3-carboxamide

$$$$
