43P
 OpenBabel10282417133D

 34 36  0  0  0  0  0  0  0  0999 V2000
    2.3631   -1.0630    0.0303 O   0  0  0  0  0  0  0  0  0  0  0  0
    1.2353   -0.2866    0.0081 C   0  0  0  0  0  0  0  0  0  0  0  0
    0.0399   -0.9953    0.0157 C   0  0  0  0  0  0  0  0  0  0  0  0
   -1.1735   -0.3203    0.0345 C   0  0  0  0  0  0  0  0  0  0  0  0
   -2.2808   -1.1203    0.0640 O   0  0  0  0  0  0  0  0  0  0  0  0
   -1.2255    1.0801    0.0274 C   0  0  0  0  0  0  0  0  0  0  0  0
   -2.5366    1.8322    0.0255 C   0  0  0  0  0  0  0  0  0  0  0  0
   -3.3811    1.5498   -1.2155 C   0  0  0  0  0  0  0  0  0  0  0  0
   -0.0018    1.7902    0.0175 C   0  0  0  0  0  0  0  0  0  0  0  0
    1.2367    1.1160   -0.0091 C   0  0  0  0  0  0  0  0  0  0  0  0
    2.4871    1.8709   -0.1170 C   0  0  0  0  0  0  0  0  0  0  0  0
    2.8741    2.7567    0.8190 N   0  0  0  0  0  0  0  0  0  0  0  0
    4.0978    3.1548    0.4170 N   0  0  0  0  0  0  0  0  0  0  0  0
    4.5056    2.5887   -0.7509 C   0  0  0  0  0  0  0  0  0  0  0  0
    3.4769    1.7703   -1.1360 C   0  0  0  0  0  0  0  0  0  0  0  0
    3.3888    0.9698   -2.3403 C   0  0  0  0  0  0  0  0  0  0  0  0
    2.4359    1.0487   -3.3234 C   0  0  0  0  0  0  0  0  0  0  0  0
    2.8017    0.1060   -4.2414 N   0  0  0  0  0  0  0  0  0  0  0  0
    3.9264   -0.5129   -3.7666 C   0  0  0  0  0  0  0  0  0  0  0  0
    4.3178    0.0019   -2.6217 N   0  0  0  0  0  0  0  0  0  0  0  0
    3.1566   -0.5011    0.0072 H   0  0  0  0  0  0  0  0  0  0  0  0
    0.0544   -2.0808    0.0107 H   0  0  0  0  0  0  0  0  0  0  0  0
   -3.0656   -0.5852    0.2504 H   0  0  0  0  0  0  0  0  0  0  0  0
   -3.0946    1.5704    0.9334 H   0  0  0  0  0  0  0  0  0  0  0  0
   -2.3577    2.9130    0.0822 H   0  0  0  0  0  0  0  0  0  0  0  0
   -3.6395    0.4928   -1.3275 H   0  0  0  0  0  0  0  0  0  0  0  0
   -4.3244    2.1014   -1.1670 H   0  0  0  0  0  0  0  0  0  0  0  0
   -2.8473    1.8439   -2.1241 H   0  0  0  0  0  0  0  0  0  0  0  0
   -0.0057    2.8803    0.0141 H   0  0  0  0  0  0  0  0  0  0  0  0
    4.5992    3.8256    0.9895 H   0  0  0  0  0  0  0  0  0  0  0  0
    5.4557    2.8229   -1.2114 H   0  0  0  0  0  0  0  0  0  0  0  0
    1.5694    1.6832   -3.4460 H   0  0  0  0  0  0  0  0  0  0  0  0
    2.3336   -0.0965   -5.1124 H   0  0  0  0  0  0  0  0  0  0  0  0
    4.4093   -1.3198   -4.3038 H   0  0  0  0  0  0  0  0  0  0  0  0
  1  2  1  0  0  0  0
  1 21  1  0  0  0  0
  2  3  2  0  0  0  0
  2 10  1  0  0  0  0
  3  4  1  0  0  0  0
  3 22  1  0  0  0  0
  4  5  1  0  0  0  0
  4  6  2  0  0  0  0
  5 23  1  0  0  0  0
  6  7  1  0  0  0  0
  6  9  1  0  0  0  0
  7  8  1  0  0  0  0
  7 24  1  0  0  0  0
  7 25  1  0  0  0  0
  8 26  1  0  0  0  0
  8 27  1  0  0  0  0
  8 28  1  0  0  0  0
  9 10  2  0  0  0  0
  9 29  1  0  0  0  0
 10 11  1  0  0  0  0
 11 12  2  0  0  0  0
 11 15  1  0  0  0  0
 12 13  1  0  0  0  0
 13 14  1  0  0  0  0
 13 30  1  0  0  0  0
 14 15  2  0  0  0  0
 14 31  1  0  0  0  0
 15 16  1  0  0  0  0
 16 17  2  0  0  0  0
 16 20  1  0  0  0  0
 17 18  1  0  0  0  0
 17 32  1  0  0  0  0
 18 19  1  0  0  0  0
 18 33  1  0  0  0  0
 19 20  2  0  0  0  0
 19 34  1  0  0  0  0
M  END
>  <DRUGBANK_ID>
DB03749

>  <SECONDARY_ACCESSION_NUMBERS>
EXPT00195

>  <COMMON_NAME>
4-(1h-Imidazol-4-Yl)-3-(5-Ethyl-2,4-Dihydroxy-Phenyl)-1h-Pyrazole

$$$$
