
 OpenBabel10282417153D

235236  0  0  0  0  0  0  0  0999 V2000
  -10.0057   -5.0644   -0.4301 P   0  0  0  0  0  0  0  0  0  0  0  0
   -3.0436    0.5052    4.5243 P   0  0  0  0  0  0  0  0  0  0  0  0
   -7.1534   -2.8993    1.5948 O   0  0  0  0  0  0  0  0  0  0  0  0
   -5.4364   -1.3025    0.8290 O   0  0  0  0  0  0  0  0  0  0  0  0
   -2.9110   -1.2068    1.0195 O   0  0  0  0  0  0  0  0  0  0  0  0
   -8.1982   -4.0190   -1.9862 O   0  0  0  0  0  0  0  0  0  0  0  0
   -8.5059   -5.4908   -0.1283 O   0  0  0  0  0  0  0  0  0  0  0  0
   -7.0852   -0.0359    1.7295 O   0  0  0  0  0  0  0  0  0  0  0  0
   -4.4423   -3.5829    2.7818 O   0  0  0  0  0  0  0  0  0  0  0  0
   -3.3523    1.0122    2.8993 O   0  0  0  0  0  0  0  0  0  0  0  0
   -5.4564   -5.2573    2.3773 O   0  0  0  0  0  0  0  0  0  0  0  0
   -8.2746   -1.9019   -1.4098 O   0  0  0  0  0  0  0  0  0  0  0  0
  -10.2623   -5.0891   -1.9996 O   0  0  0  0  0  0  0  0  0  0  0  0
  -10.1706   -3.5629   -0.7070 O   0  0  0  0  0  0  0  0  0  0  0  0
   -6.9554    0.7320   -3.8660 O   0  0  0  0  0  0  0  0  0  0  0  0
  -11.0413   -5.9588    0.0894 O   0  0  0  0  0  0  0  0  0  0  0  0
   -4.9746   -1.1012    6.4899 O   0  0  0  0  0  0  0  0  0  0  0  0
   -2.5126    2.0551    4.7405 O   0  0  0  0  0  0  0  0  0  0  0  0
   -4.5210    1.3055    5.0807 O   0  0  0  0  0  0  0  0  0  0  0  0
   -2.0595    0.0132    2.4680 O   0  0  0  0  0  0  0  0  0  0  0  0
   -2.7674    0.0514    5.9786 O   0  0  0  0  0  0  0  0  0  0  0  0
   -2.8207    0.0960   -1.6970 O   0  0  0  0  0  0  0  0  0  0  0  0
   -8.6867   -0.7083    3.7490 O   0  0  0  0  0  0  0  0  0  0  0  0
   -5.8694   -3.3754   -1.5417 O   0  0  0  0  0  0  0  0  0  0  0  0
   -7.1793   -0.1179   -1.3980 N   0  0  0  0  0  0  0  0  0  0  0  0
   -5.3303   -0.5636    4.3955 N   0  0  0  0  0  0  0  0  0  0  0  0
   -7.7892   -3.3896   -0.5081 C   0  0  2  0  0  0  0  0  0  0  0  0
   -6.8020   -1.6776   -0.4423 C   0  0  2  0  0  0  0  0  0  0  0  0
   -7.5013   -4.5898    0.1995 C   0  0  1  0  0  0  0  0  0  0  0  0
   -7.0424   -1.8128    0.8157 C   0  0  1  0  0  0  0  0  0  0  0  0
   -7.6501   -4.1241    1.5532 C   0  0  1  0  0  0  0  0  0  0  0  0
   -3.8745   -2.3938    0.7455 C   0  0  1  0  0  0  0  0  0  0  0  0
   -6.3302   -1.4216    2.6073 C   0  0  1  0  0  0  0  0  0  0  0  0
   -5.1229   -2.8225    1.8808 C   0  0  2  0  0  0  0  0  0  0  0  0
   -5.6464   -0.3103    2.7692 C   0  0  2  0  0  0  0  0  0  0  0  0
   -3.8721    0.0477    1.3460 C   0  0  2  0  0  0  0  0  0  0  0  0
   -4.2719   -1.4039   -0.0838 C   0  0  0  0  0  0  0  0  0  0  0  0
   -6.8434   -5.0281    2.4120 C   0  0  0  0  0  0  0  0  0  0  0  0
   -8.8038   -3.2059   -3.0784 C   0  0  0  0  0  0  0  0  0  0  0  0
   -6.2316    0.5473    0.7275 C   0  0  0  0  0  0  0  0  0  0  0  0
   -6.4116    0.4542   -2.7778 C   0  0  0  0  0  0  0  0  0  0  0  0
   -9.9402   -1.8420   -2.5035 C   0  0  0  0  0  0  0  0  0  0  0  0
   -9.5599   -1.0839   -1.2664 C   0  0  1  0  0  0  0  0  0  0  0  0
   -5.1746    1.1095    1.6617 C   0  0  0  0  0  0  0  0  0  0  0  0
   -5.8305   -0.9521    5.5847 C   0  0  0  0  0  0  0  0  0  0  0  0
   -4.6524   -0.1097   -2.8667 C   0  0  0  0  0  0  0  0  0  0  0  0
   -3.9241   -0.4143    2.9097 C   0  0  1  0  0  0  0  0  0  0  0  0
  -10.6196   -1.2289   -0.2901 C   0  0  0  0  0  0  0  0  0  0  0  0
   -7.2927   -1.9133    5.1616 C   0  0  0  0  0  0  0  0  0  0  0  0
   -3.3693   -1.7062    2.9138 C   0  0  0  0  0  0  0  0  0  0  0  0
   -4.5339   -5.2048    1.2728 C   0  0  0  0  0  0  0  0  0  0  0  0
  -10.2263   -0.8920    1.1024 C   0  0  0  0  0  0  0  0  0  0  0  0
   -3.9397    0.5817   -1.8624 C   0  0  0  0  0  0  0  0  0  0  0  0
   -2.6207   -2.3246    3.9173 C   0  0  0  0  0  0  0  0  0  0  0  0
   -9.8292    0.5763    1.1815 C   0  0  0  0  0  0  0  0  0  0  0  0
   -8.1477   -0.8229    4.8321 C   0  0  0  0  0  0  0  0  0  0  0  0
   -4.4293    1.8843   -1.3791 C   0  0  0  0  0  0  0  0  0  0  0  0
   -3.4492   -2.3377    5.1315 C   0  0  0  0  0  0  0  0  0  0  0  0
  -10.9194    1.4053    0.5140 C   0  0  0  0  0  0  0  0  0  0  0  0
   -8.1050    0.1790    5.8935 C   0  0  0  0  0  0  0  0  0  0  0  0
   -3.8692    2.5316   -2.5702 C   0  0  0  0  0  0  0  0  0  0  0  0
   -6.6977   -2.5945   -2.0997 C   0  0  0  0  0  0  0  0  0  0  0  0
   -5.0989   -2.8641    5.0935 C   0  0  0  0  0  0  0  0  0  0  0  0
   -8.6511   -0.5547    7.1032 C   0  0  0  0  0  0  0  0  0  0  0  0
  -12.2432    1.1130    1.2060 C   0  0  0  0  0  0  0  0  0  0  0  0
   -4.6576    2.2280   -3.8074 C   0  0  0  0  0  0  0  0  0  0  0  0
   -6.2141   -1.5880   -2.8969 C   0  0  0  0  0  0  0  0  0  0  0  0
   -7.7350   -1.5727    7.7766 C   0  0  0  0  0  0  0  0  0  0  0  0
   -5.4391   -4.2202    5.0600 C   0  0  0  0  0  0  0  0  0  0  0  0
   -6.0833    2.6570   -3.6161 C   0  0  0  0  0  0  0  0  0  0  0  0
  -12.1314    1.4573    2.6826 C   0  0  0  0  0  0  0  0  0  0  0  0
   -6.9447   -1.4315   -4.1939 C   0  0  0  0  0  0  0  0  0  0  0  0
   -6.4520   -0.9351    8.1915 C   0  0  0  0  0  0  0  0  0  0  0  0
   -6.2309    4.0656   -3.4188 C   0  0  0  0  0  0  0  0  0  0  0  0
   -4.5628   -4.4701    6.1750 C   0  0  0  0  0  0  0  0  0  0  0  0
   -6.5930    0.1126    9.1819 C   0  0  0  0  0  0  0  0  0  0  0  0
   -5.6199    4.6262   -4.6590 C   0  0  0  0  0  0  0  0  0  0  0  0
   -8.3345   -0.8589   -3.9000 C   0  0  0  0  0  0  0  0  0  0  0  0
  -11.7881    2.9248    2.8325 C   0  0  0  0  0  0  0  0  0  0  0  0
   -7.1829   -0.6021   10.3466 C   0  0  0  0  0  0  0  0  0  0  0  0
   -6.3907    4.1643   -5.9010 C   0  0  0  0  0  0  0  0  0  0  0  0
   -5.1881   -3.9618    7.4364 C   0  0  0  0  0  0  0  0  0  0  0  0
   -6.2302   -1.6929   10.8437 C   0  0  0  0  0  0  0  0  0  0  0  0
   -7.8530    4.5745   -5.7642 C   0  0  0  0  0  0  0  0  0  0  0  0
   -8.9674    0.6177   -3.2026 C   0  0  0  0  0  0  0  0  0  0  0  0
   -4.8900   -1.0645   11.2138 C   0  0  0  0  0  0  0  0  0  0  0  0
   -7.9406    6.0892   -5.6078 C   0  0  0  0  0  0  0  0  0  0  0  0
   -5.1033   -0.0081   12.2937 C   0  0  0  0  0  0  0  0  0  0  0  0
  -10.0102    1.1213   -3.7918 C   0  0  0  0  0  0  0  0  0  0  0  0
   -7.3185    6.7781   -6.8156 C   0  0  0  0  0  0  0  0  0  0  0  0
  -10.7552    0.2407   -4.7433 C   0  0  0  0  0  0  0  0  0  0  0  0
   -5.7352   -0.6392   13.5276 C   0  0  0  0  0  0  0  0  0  0  0  0
  -12.1951    0.2132   -4.3075 C   0  0  0  0  0  0  0  0  0  0  0  0
   -8.0572    6.3690   -8.0739 C   0  0  0  0  0  0  0  0  0  0  0  0
   -4.8247   -1.7217   14.0714 C   0  0  0  0  0  0  0  0  0  0  0  0
  -12.6515    1.6537   -4.2600 C   0  0  0  0  0  0  0  0  0  0  0  0
  -12.4126    2.3078   -5.6214 C   0  0  0  0  0  0  0  0  0  0  0  0
  -13.1967    1.5715   -6.6981 C   0  0  0  0  0  0  0  0  0  0  0  0
  -14.6731    1.6153   -6.3636 C   0  0  0  0  0  0  0  0  0  0  0  0
   -8.0636   -0.3345   -1.7037 H   0  0  0  0  0  0  0  0  0  0  0  0
   -4.4042   -0.8849    4.4360 H   0  0  0  0  0  0  0  0  0  0  0  0
   -4.4174   -3.1216    3.5730 H   0  0  0  0  0  0  0  0  0  0  0  0
  -11.0573   -5.6156   -2.0938 H   0  0  0  0  0  0  0  0  0  0  0  0
   -9.5963   -3.4355   -1.4949 H   0  0  0  0  0  0  0  0  0  0  0  0
   -1.5752    2.2089    4.8362 H   0  0  0  0  0  0  0  0  0  0  0  0
   -5.2561    0.7302    4.7859 H   0  0  0  0  0  0  0  0  0  0  0  0
   -2.0795    1.0526    2.5029 H   0  0  0  0  0  0  0  0  0  0  0  0
   -8.6548   -3.0214    0.0652 H   0  0  0  0  0  0  0  0  0  0  0  0
   -5.8338   -1.8041   -0.7194 H   0  0  0  0  0  0  0  0  0  0  0  0
   -6.5419   -4.8698   -0.1941 H   0  0  0  0  0  0  0  0  0  0  0  0
   -7.9432   -1.2197    0.9500 H   0  0  0  0  0  0  0  0  0  0  0  0
   -8.5531   -3.6963    1.9920 H   0  0  0  0  0  0  0  0  0  0  0  0
   -3.3308   -3.2210    0.3714 H   0  0  0  0  0  0  0  0  0  0  0  0
   -7.2115   -1.8246    3.0556 H   0  0  0  0  0  0  0  0  0  0  0  0
   -5.5782   -3.4709    1.2031 H   0  0  0  0  0  0  0  0  0  0  0  0
   -6.2821    0.5947    3.2064 H   0  0  0  0  0  0  0  0  0  0  0  0
   -3.3359    1.0465    1.1368 H   0  0  0  0  0  0  0  0  0  0  0  0
   -4.3149   -1.5953   -1.0650 H   0  0  0  0  0  0  0  0  0  0  0  0
   -3.6319   -0.4563   -0.2387 H   0  0  0  0  0  0  0  0  0  0  0  0
   -7.2054   -4.6779    3.3751 H   0  0  0  0  0  0  0  0  0  0  0  0
   -7.0657   -6.0436    2.2466 H   0  0  0  0  0  0  0  0  0  0  0  0
   -7.8640   -2.8514   -3.2499 H   0  0  0  0  0  0  0  0  0  0  0  0
   -8.5241   -3.3271   -4.1506 H   0  0  0  0  0  0  0  0  0  0  0  0
   -5.6980    0.0032   -0.0971 H   0  0  0  0  0  0  0  0  0  0  0  0
   -6.6718    1.0842   -0.0808 H   0  0  0  0  0  0  0  0  0  0  0  0
  -10.1856   -1.0077   -3.0998 H   0  0  0  0  0  0  0  0  0  0  0  0
  -10.8282   -2.3301   -2.7395 H   0  0  0  0  0  0  0  0  0  0  0  0
   -9.3276    0.0216   -0.9909 H   0  0  0  0  0  0  0  0  0  0  0  0
   -4.7524    1.4645    0.6873 H   0  0  0  0  0  0  0  0  0  0  0  0
   -5.7878    1.9390    1.9402 H   0  0  0  0  0  0  0  0  0  0  0  0
   -4.3028   -1.1876   -2.5621 H   0  0  0  0  0  0  0  0  0  0  0  0
   -4.3930   -0.3086   -3.8932 H   0  0  0  0  0  0  0  0  0  0  0  0
   -4.6833    0.8232    3.4024 H   0  0  0  0  0  0  0  0  0  0  0  0
  -11.3771   -0.6373   -0.7912 H   0  0  0  0  0  0  0  0  0  0  0  0
  -11.0788   -2.1605   -0.2958 H   0  0  0  0  0  0  0  0  0  0  0  0
   -7.2963   -2.6833    4.3616 H   0  0  0  0  0  0  0  0  0  0  0  0
   -7.5894   -2.7798    5.7352 H   0  0  0  0  0  0  0  0  0  0  0  0
   -4.3717   -1.7495    2.9062 H   0  0  0  0  0  0  0  0  0  0  0  0
   -2.8131   -2.3820    2.1938 H   0  0  0  0  0  0  0  0  0  0  0  0
   -4.4011   -6.2177    1.1006 H   0  0  0  0  0  0  0  0  0  0  0  0
   -4.8448   -4.6866    0.3593 H   0  0  0  0  0  0  0  0  0  0  0  0
   -3.5434   -4.7186    1.5203 H   0  0  0  0  0  0  0  0  0  0  0  0
  -11.1029   -1.1518    1.6773 H   0  0  0  0  0  0  0  0  0  0  0  0
   -9.4936   -1.5664    1.5265 H   0  0  0  0  0  0  0  0  0  0  0  0
   -2.5432   -3.3411    3.5344 H   0  0  0  0  0  0  0  0  0  0  0  0
   -1.7883   -1.7003    3.6135 H   0  0  0  0  0  0  0  0  0  0  0  0
   -9.6653    0.8435    2.2198 H   0  0  0  0  0  0  0  0  0  0  0  0
   -8.8775    0.8192    0.7070 H   0  0  0  0  0  0  0  0  0  0  0  0
   -5.5025    2.0450   -1.1767 H   0  0  0  0  0  0  0  0  0  0  0  0
   -3.8701    2.2587   -0.5354 H   0  0  0  0  0  0  0  0  0  0  0  0
   -2.8455   -2.4020    6.0007 H   0  0  0  0  0  0  0  0  0  0  0  0
   -3.5494   -1.3773    5.4530 H   0  0  0  0  0  0  0  0  0  0  0  0
  -10.6510    2.4560    0.5430 H   0  0  0  0  0  0  0  0  0  0  0  0
  -11.0112    1.2007   -0.5563 H   0  0  0  0  0  0  0  0  0  0  0  0
   -7.1092    0.6079    6.0654 H   0  0  0  0  0  0  0  0  0  0  0  0
   -8.7093    0.9603    5.4922 H   0  0  0  0  0  0  0  0  0  0  0  0
   -3.8813    3.5734   -2.3560 H   0  0  0  0  0  0  0  0  0  0  0  0
   -2.8419    2.1658   -2.6529 H   0  0  0  0  0  0  0  0  0  0  0  0
   -5.7526   -2.7037    5.9821 H   0  0  0  0  0  0  0  0  0  0  0  0
   -5.6274   -2.4522    4.2330 H   0  0  0  0  0  0  0  0  0  0  0  0
   -8.8600    0.2038    7.8374 H   0  0  0  0  0  0  0  0  0  0  0  0
   -9.5713   -1.0588    6.8167 H   0  0  0  0  0  0  0  0  0  0  0  0
  -13.0377    1.6808    0.7266 H   0  0  0  0  0  0  0  0  0  0  0  0
  -12.5267    0.0595    1.0977 H   0  0  0  0  0  0  0  0  0  0  0  0
   -4.1751    2.5700   -4.6907 H   0  0  0  0  0  0  0  0  0  0  0  0
   -4.6315    1.2402   -4.1891 H   0  0  0  0  0  0  0  0  0  0  0  0
   -5.7692   -0.8422   -1.8869 H   0  0  0  0  0  0  0  0  0  0  0  0
   -5.3802   -1.9288   -3.4003 H   0  0  0  0  0  0  0  0  0  0  0  0
   -8.1954   -2.1176    8.5814 H   0  0  0  0  0  0  0  0  0  0  0  0
   -7.5624   -2.4535    7.2204 H   0  0  0  0  0  0  0  0  0  0  0  0
   -6.5171   -4.3383    5.0789 H   0  0  0  0  0  0  0  0  0  0  0  0
   -5.0655   -4.6181    4.1888 H   0  0  0  0  0  0  0  0  0  0  0  0
   -6.6427    2.3504   -4.5041 H   0  0  0  0  0  0  0  0  0  0  0  0
   -6.5865    2.3224   -2.7015 H   0  0  0  0  0  0  0  0  0  0  0  0
  -13.0681    1.2250    3.1857 H   0  0  0  0  0  0  0  0  0  0  0  0
  -11.3645    0.8497    3.1765 H   0  0  0  0  0  0  0  0  0  0  0  0
   -6.6758   -0.8423   -5.0414 H   0  0  0  0  0  0  0  0  0  0  0  0
   -6.7034   -2.4714   -4.4976 H   0  0  0  0  0  0  0  0  0  0  0  0
   -5.6933   -1.6345    8.5129 H   0  0  0  0  0  0  0  0  0  0  0  0
   -6.0639   -0.2688    7.4679 H   0  0  0  0  0  0  0  0  0  0  0  0
   -7.2926    4.2452   -3.2694 H   0  0  0  0  0  0  0  0  0  0  0  0
   -5.7271    4.2995   -2.4935 H   0  0  0  0  0  0  0  0  0  0  0  0
   -4.5194   -5.5011    6.0526 H   0  0  0  0  0  0  0  0  0  0  0  0
   -3.5632   -4.0630    6.0041 H   0  0  0  0  0  0  0  0  0  0  0  0
   -5.6041    0.5516    9.3345 H   0  0  0  0  0  0  0  0  0  0  0  0
   -7.2091    0.8900    8.7450 H   0  0  0  0  0  0  0  0  0  0  0  0
   -5.6147    5.6900   -4.5255 H   0  0  0  0  0  0  0  0  0  0  0  0
   -4.5708    4.3476   -4.7618 H   0  0  0  0  0  0  0  0  0  0  0  0
   -9.0327   -1.5141   -4.4042 H   0  0  0  0  0  0  0  0  0  0  0  0
   -8.2264   -1.2452   -2.9635 H   0  0  0  0  0  0  0  0  0  0  0  0
  -12.5654    3.5307    2.3599 H   0  0  0  0  0  0  0  0  0  0  0  0
  -11.6964    3.1891    3.8827 H   0  0  0  0  0  0  0  0  0  0  0  0
  -10.8320    3.1702    2.3600 H   0  0  0  0  0  0  0  0  0  0  0  0
   -7.3972    0.1494   11.0848 H   0  0  0  0  0  0  0  0  0  0  0  0
   -8.1457   -1.0462   10.0969 H   0  0  0  0  0  0  0  0  0  0  0  0
   -5.9181    4.5866   -6.7822 H   0  0  0  0  0  0  0  0  0  0  0  0
   -6.3283    3.0859   -6.0856 H   0  0  0  0  0  0  0  0  0  0  0  0
   -6.2664   -4.1380    7.4342 H   0  0  0  0  0  0  0  0  0  0  0  0
   -4.5755   -4.2142    8.2604 H   0  0  0  0  0  0  0  0  0  0  0  0
   -5.1469   -2.8991    7.5562 H   0  0  0  0  0  0  0  0  0  0  0  0
   -6.6935   -2.2050   11.6827 H   0  0  0  0  0  0  0  0  0  0  0  0
   -6.0701   -2.4959   10.1160 H   0  0  0  0  0  0  0  0  0  0  0  0
   -8.4152    4.2279   -6.6297 H   0  0  0  0  0  0  0  0  0  0  0  0
   -8.3371    4.0830   -4.9165 H   0  0  0  0  0  0  0  0  0  0  0  0
   -8.5701    1.2198   -2.3209 H   0  0  0  0  0  0  0  0  0  0  0  0
   -4.1982   -1.8384   11.5433 H   0  0  0  0  0  0  0  0  0  0  0  0
   -4.3978   -0.6170   10.3469 H   0  0  0  0  0  0  0  0  0  0  0  0
   -8.9824    6.3886   -5.4905 H   0  0  0  0  0  0  0  0  0  0  0  0
   -7.4301    6.4175   -4.6961 H   0  0  0  0  0  0  0  0  0  0  0  0
   -4.1510    0.4586   12.5475 H   0  0  0  0  0  0  0  0  0  0  0  0
   -5.7446    0.8002   11.9266 H   0  0  0  0  0  0  0  0  0  0  0  0
  -10.2281    2.1250   -3.4542 H   0  0  0  0  0  0  0  0  0  0  0  0
   -7.3548    7.8595   -6.6851 H   0  0  0  0  0  0  0  0  0  0  0  0
   -6.2583    6.5200   -6.9134 H   0  0  0  0  0  0  0  0  0  0  0  0
  -10.5227    0.5872   -5.7359 H   0  0  0  0  0  0  0  0  0  0  0  0
  -10.5146   -0.8179   -4.8539 H   0  0  0  0  0  0  0  0  0  0  0  0
   -5.9152    0.1248   14.2839 H   0  0  0  0  0  0  0  0  0  0  0  0
   -6.7147   -1.0693   13.2918 H   0  0  0  0  0  0  0  0  0  0  0  0
  -12.7596   -0.3888   -5.0236 H   0  0  0  0  0  0  0  0  0  0  0  0
  -12.3404   -0.2795   -3.3364 H   0  0  0  0  0  0  0  0  0  0  0  0
   -9.1102    6.6499   -7.9882 H   0  0  0  0  0  0  0  0  0  0  0  0
   -7.6169    6.8441   -8.9476 H   0  0  0  0  0  0  0  0  0  0  0  0
   -8.0058    5.2890   -8.2410 H   0  0  0  0  0  0  0  0  0  0  0  0
   -3.8554   -1.2884   14.3318 H   0  0  0  0  0  0  0  0  0  0  0  0
   -5.2682   -2.1904   14.9470 H   0  0  0  0  0  0  0  0  0  0  0  0
   -4.6564   -2.5158   13.3380 H   0  0  0  0  0  0  0  0  0  0  0  0
  -13.6886    1.6981   -3.9550 H   0  0  0  0  0  0  0  0  0  0  0  0
  -12.1189    2.2040   -3.4832 H   0  0  0  0  0  0  0  0  0  0  0  0
  -12.7017    3.3554   -5.5739 H   0  0  0  0  0  0  0  0  0  0  0  0
  -11.3490    2.3130   -5.8895 H   0  0  0  0  0  0  0  0  0  0  0  0
  -13.0087    2.0283   -7.6694 H   0  0  0  0  0  0  0  0  0  0  0  0
  -12.8708    0.5285   -6.7840 H   0  0  0  0  0  0  0  0  0  0  0  0
  -15.0025    2.6557   -6.2999 H   0  0  0  0  0  0  0  0  0  0  0  0
  -15.2516    1.0878   -7.1178 H   0  0  0  0  0  0  0  0  0  0  0  0
  -14.8860    1.1319   -5.4055 H   0  0  0  0  0  0  0  0  0  0  0  0
  1  7  1  0  0  0  0
  1 13  1  0  0  0  0
  1 14  1  0  0  0  0
  1 16  2  0  0  0  0
  2 10  1  0  0  0  0
  2 18  1  0  0  0  0
  2 19  1  0  0  0  0
  2 21  2  0  0  0  0
  3 30  1  0  0  0  0
  3 31  1  0  0  0  0
  4 37  1  0  0  0  0
  5 32  1  0  0  0  0
  5 36  1  0  0  0  0
  6 39  1  0  0  0  0
  8 40  1  0  0  0  0
  9102  1  0  0  0  0
 11 38  1  0  0  0  0
 11 51  1  0  0  0  0
 12 62  1  0  0  0  0
 13103  1  0  0  0  0
 14104  1  0  0  0  0
 15 41  2  0  0  0  0
 17 45  2  0  0  0  0
 18105  1  0  0  0  0
 19106  1  0  0  0  0
 20107  1  0  0  0  0
 22 53  2  0  0  0  0
 23 56  2  0  0  0  0
 24 62  2  0  0  0  0
 25 41  1  0  0  0  0
 25100  1  0  0  0  0
 26 45  1  0  0  0  0
 26101  1  0  0  0  0
 27 28  1  0  0  0  0
 27 29  1  0  0  0  0
 27108  1  1  0  0  0
 27  6  1  0  0  0  0
 28 30  1  0  0  0  0
 28109  1  6  0  0  0
 28 25  1  0  0  0  0
 29 31  1  0  0  0  0
 29110  1  6  0  0  0
 29  7  1  0  0  0  0
 30  4  1  0  0  0  0
 30111  1  1  0  0  0
 31112  1  1  0  0  0
 31 38  1  0  0  0  0
 32 34  1  0  0  0  0
 32 37  1  0  0  0  0
 32113  1  6  0  0  0
 33  8  1  0  0  0  0
 33 34  1  0  0  0  0
 33 35  1  0  0  0  0
 33114  1  1  0  0  0
 34  9  1  0  0  0  0
 34115  1  6  0  0  0
 35 36  1  0  0  0  0
 35116  1  6  0  0  0
 35 26  1  0  0  0  0
 36117  1  6  0  0  0
 36 10  1  0  0  0  0
 37118  1  0  0  0  0
 37119  1  0  0  0  0
 38120  1  0  0  0  0
 38121  1  0  0  0  0
 39 42  1  0  0  0  0
 39122  1  0  0  0  0
 39123  1  0  0  0  0
 40 44  1  0  0  0  0
 40124  1  0  0  0  0
 40125  1  0  0  0  0
 41 46  1  0  0  0  0
 42126  1  0  0  0  0
 42127  1  0  0  0  0
 43 48  1  0  0  0  0
 43128  1  6  0  0  0
 43 42  1  0  0  0  0
 43 12  1  0  0  0  0
 44129  1  0  0  0  0
 44130  1  0  0  0  0
 45 49  1  0  0  0  0
 46 53  1  0  0  0  0
 46131  1  0  0  0  0
 46132  1  0  0  0  0
 47 50  1  0  0  0  0
 47133  1  1  0  0  0
 47 44  1  0  0  0  0
 47 20  1  0  0  0  0
 48 52  1  0  0  0  0
 48134  1  0  0  0  0
 48135  1  0  0  0  0
 49 56  1  0  0  0  0
 49136  1  0  0  0  0
 49137  1  0  0  0  0
 50 54  1  0  0  0  0
 50138  1  0  0  0  0
 50139  1  0  0  0  0
 51140  1  0  0  0  0
 51141  1  0  0  0  0
 51142  1  0  0  0  0
 52 55  1  0  0  0  0
 52143  1  0  0  0  0
 52144  1  0  0  0  0
 53 57  1  0  0  0  0
 54 58  1  0  0  0  0
 54145  1  0  0  0  0
 54146  1  0  0  0  0
 55 59  1  0  0  0  0
 55147  1  0  0  0  0
 55148  1  0  0  0  0
 56 60  1  0  0  0  0
 57 61  1  0  0  0  0
 57149  1  0  0  0  0
 57150  1  0  0  0  0
 58 63  1  0  0  0  0
 58151  1  0  0  0  0
 58152  1  0  0  0  0
 59 65  1  0  0  0  0
 59153  1  0  0  0  0
 59154  1  0  0  0  0
 60 64  1  0  0  0  0
 60155  1  0  0  0  0
 60156  1  0  0  0  0
 61 66  1  0  0  0  0
 61157  1  0  0  0  0
 61158  1  0  0  0  0
 62 67  1  0  0  0  0
 63 69  1  0  0  0  0
 63159  1  0  0  0  0
 63160  1  0  0  0  0
 64 68  1  0  0  0  0
 64161  1  0  0  0  0
 64162  1  0  0  0  0
 65 71  1  0  0  0  0
 65163  1  0  0  0  0
 65164  1  0  0  0  0
 66 70  1  0  0  0  0
 66165  1  0  0  0  0
 66166  1  0  0  0  0
 67 72  1  0  0  0  0
 67167  1  0  0  0  0
 67168  1  0  0  0  0
 68 73  1  0  0  0  0
 68169  1  0  0  0  0
 68170  1  0  0  0  0
 69 75  1  0  0  0  0
 69171  1  0  0  0  0
 69172  1  0  0  0  0
 70 74  1  0  0  0  0
 70173  1  0  0  0  0
 70174  1  0  0  0  0
 71 79  1  0  0  0  0
 71175  1  0  0  0  0
 71176  1  0  0  0  0
 72 78  1  0  0  0  0
 72177  1  0  0  0  0
 72178  1  0  0  0  0
 73 76  1  0  0  0  0
 73179  1  0  0  0  0
 73180  1  0  0  0  0
 74 77  1  0  0  0  0
 74181  1  0  0  0  0
 74182  1  0  0  0  0
 75 82  1  0  0  0  0
 75183  1  0  0  0  0
 75184  1  0  0  0  0
 76 80  1  0  0  0  0
 76185  1  0  0  0  0
 76186  1  0  0  0  0
 77 81  1  0  0  0  0
 77187  1  0  0  0  0
 77188  1  0  0  0  0
 78 85  1  0  0  0  0
 78189  1  0  0  0  0
 78190  1  0  0  0  0
 79191  1  0  0  0  0
 79192  1  0  0  0  0
 79193  1  0  0  0  0
 80 83  1  0  0  0  0
 80194  1  0  0  0  0
 80195  1  0  0  0  0
 81 84  1  0  0  0  0
 81196  1  0  0  0  0
 81197  1  0  0  0  0
 82198  1  0  0  0  0
 82199  1  0  0  0  0
 82200  1  0  0  0  0
 83 86  1  0  0  0  0
 83201  1  0  0  0  0
 83202  1  0  0  0  0
 84 87  1  0  0  0  0
 84203  1  0  0  0  0
 84204  1  0  0  0  0
 85 89  2  0  0  0  0
 85205  1  0  0  0  0
 86 88  1  0  0  0  0
 86206  1  0  0  0  0
 86207  1  0  0  0  0
 87 90  1  0  0  0  0
 87208  1  0  0  0  0
 87209  1  0  0  0  0
 88 92  1  0  0  0  0
 88210  1  0  0  0  0
 88211  1  0  0  0  0
 89 91  1  0  0  0  0
 89212  1  0  0  0  0
 90 94  1  0  0  0  0
 90213  1  0  0  0  0
 90214  1  0  0  0  0
 91 93  1  0  0  0  0
 91215  1  0  0  0  0
 91216  1  0  0  0  0
 92 95  1  0  0  0  0
 92217  1  0  0  0  0
 92218  1  0  0  0  0
 93 96  1  0  0  0  0
 93219  1  0  0  0  0
 93220  1  0  0  0  0
 94221  1  0  0  0  0
 94222  1  0  0  0  0
 94223  1  0  0  0  0
 95224  1  0  0  0  0
 95225  1  0  0  0  0
 95226  1  0  0  0  0
 96 97  1  0  0  0  0
 96227  1  0  0  0  0
 96228  1  0  0  0  0
 97 98  1  0  0  0  0
 97229  1  0  0  0  0
 97230  1  0  0  0  0
 98 99  1  0  0  0  0
 98231  1  0  0  0  0
 98232  1  0  0  0  0
 99233  1  0  0  0  0
 99234  1  0  0  0  0
 99235  1  0  0  0  0
M  END
>  <DRUGBANK_ID>
DB06447

>  <COMMON_NAME>
E5531

>  <CAS_NUMBER>
162679-36-9

>  <UNII>
4468VT5E70

$$$$
