
 OpenBabel10282417123D

 49 48  0  0  0  0  0  0  0  0999 V2000
    4.0046   -2.4114    1.6428 C   0  0  0  0  0  0  0  0  0  0  0  0
    2.7552   -3.2541    1.4635 C   0  0  0  0  0  0  0  0  0  0  0  0
    5.0686   -2.9492    1.9604 O   0  0  0  0  0  0  0  0  0  0  0  0
    2.8780   -4.1825    0.2260 C   0  0  0  0  0  0  0  0  0  0  0  0
    3.9412   -5.2746    0.3322 C   0  0  0  0  0  0  0  0  0  0  0  0
    3.7248   -6.1764    1.5433 C   0  0  1  0  0  0  0  0  0  0  0  0
    2.3731   -6.9138    1.4389 C   0  0  0  0  0  0  0  0  0  0  0  0
    4.8546   -7.1052    1.6593 N   0  0  0  0  0  0  0  0  0  0  0  0
    2.4700   -8.2598    1.4017 O   0  0  0  0  0  0  0  0  0  0  0  0
    1.2804   -6.3549    1.3817 O   0  0  0  0  0  0  0  0  0  0  0  0
    4.0699   -1.0876    1.3608 N   0  0  0  0  0  0  0  0  0  0  0  0
    2.3356   -0.0293   -0.2297 C   0  0  0  0  0  0  0  0  0  0  0  0
    3.1139    0.0471    1.1270 C   0  0  2  0  0  0  0  0  0  0  0  0
    2.1098   -1.2912   -0.6863 N   0  0  0  0  0  0  0  0  0  0  0  0
    3.0407    2.9320    0.9687 S   0  0  0  0  0  0  0  0  0  0  0  0
    3.9482    1.3603    1.1280 C   0  0  0  0  0  0  0  0  0  0  0  0
    1.8187    0.9352   -0.7839 O   0  0  0  0  0  0  0  0  0  0  0  0
    2.4515   -2.3447   -2.8516 C   0  0  0  0  0  0  0  0  0  0  0  0
    1.4184   -1.6448   -1.9279 C   0  0  1  0  0  0  0  0  0  0  0  0
    2.1972   -3.6133   -3.2424 O   0  0  0  0  0  0  0  0  0  0  0  0
    0.1410   -2.4516   -1.6185 C   0  0  0  0  0  0  0  0  0  0  0  0
   -0.7403   -1.7460   -0.5784 C   0  0  0  0  0  0  0  0  0  0  0  0
   -0.6853   -2.6428   -2.8952 C   0  0  0  0  0  0  0  0  0  0  0  0
    3.5223   -1.8242   -3.1518 O   0  0  0  0  0  0  0  0  0  0  0  0
    2.6012   -3.8347    2.3774 H   0  0  0  0  0  0  0  0  0  0  0  0
    1.8643   -2.6244    1.3991 H   0  0  0  0  0  0  0  0  0  0  0  0
    1.9014   -4.6239    0.0078 H   0  0  0  0  0  0  0  0  0  0  0  0
    3.1432   -3.6462   -0.6834 H   0  0  0  0  0  0  0  0  0  0  0  0
    3.9367   -5.8597   -0.5987 H   0  0  0  0  0  0  0  0  0  0  0  0
    4.9300   -4.7982    0.3641 H   0  0  0  0  0  0  0  0  0  0  0  0
    3.7129   -5.5904    2.4657 H   0  0  0  0  0  0  0  0  0  0  0  0
    4.8374   -7.6380    2.5222 H   0  0  0  0  0  0  0  0  0  0  0  0
    5.0404   -7.6399    0.8185 H   0  0  0  0  0  0  0  0  0  0  0  0
    3.3998   -8.5413    1.4799 H   0  0  0  0  0  0  0  0  0  0  0  0
    5.0061   -0.7836    1.6153 H   0  0  0  0  0  0  0  0  0  0  0  0
    2.3936    0.0467    1.9562 H   0  0  0  0  0  0  0  0  0  0  0  0
    2.7820   -1.9401   -0.3406 H   0  0  0  0  0  0  0  0  0  0  0  0
    2.4186    2.6059   -0.1878 H   0  0  0  0  0  0  0  0  0  0  0  0
    4.5260    1.4395    2.0565 H   0  0  0  0  0  0  0  0  0  0  0  0
    4.6798    1.3130    0.3113 H   0  0  0  0  0  0  0  0  0  0  0  0
    1.1324   -0.7174   -2.4344 H   0  0  0  0  0  0  0  0  0  0  0  0
    1.3911   -4.0569   -2.9223 H   0  0  0  0  0  0  0  0  0  0  0  0
    0.4044   -3.4323   -1.2039 H   0  0  0  0  0  0  0  0  0  0  0  0
   -1.0409   -0.7560   -0.9363 H   0  0  0  0  0  0  0  0  0  0  0  0
   -1.6457   -2.3299   -0.3828 H   0  0  0  0  0  0  0  0  0  0  0  0
   -0.2268   -1.6195    0.3801 H   0  0  0  0  0  0  0  0  0  0  0  0
   -0.1384   -3.1436   -3.6969 H   0  0  0  0  0  0  0  0  0  0  0  0
   -1.5723   -3.2479   -2.6908 H   0  0  0  0  0  0  0  0  0  0  0  0
   -0.9973   -1.6730   -3.2930 H   0  0  0  0  0  0  0  0  0  0  0  0
  1  2  1  0  0  0  0
  1  3  2  0  0  0  0
  1 11  1  0  0  0  0
  2  4  1  0  0  0  0
  2 25  1  0  0  0  0
  2 26  1  0  0  0  0
  4  5  1  0  0  0  0
  4 27  1  0  0  0  0
  4 28  1  0  0  0  0
  5  6  1  0  0  0  0
  5 29  1  0  0  0  0
  5 30  1  0  0  0  0
  6  7  1  0  0  0  0
  6  8  1  0  0  0  0
  6 31  1  1  0  0  0
  7  9  1  0  0  0  0
  7 10  2  0  0  0  0
  8 32  1  0  0  0  0
  8 33  1  0  0  0  0
  9 34  1  0  0  0  0
 11 35  1  0  0  0  0
 12 14  1  0  0  0  0
 13 16  1  0  0  0  0
 13 36  1  1  0  0  0
 13 11  1  0  0  0  0
 13 12  1  0  0  0  0
 14 37  1  0  0  0  0
 15 16  1  0  0  0  0
 15 38  1  0  0  0  0
 16 39  1  0  0  0  0
 16 40  1  0  0  0  0
 17 12  2  0  0  0  0
 18 19  1  0  0  0  0
 18 20  1  0  0  0  0
 19 14  1  0  0  0  0
 19 21  1  0  0  0  0
 19 41  1  6  0  0  0
 20 42  1  0  0  0  0
 21 22  1  0  0  0  0
 21 23  1  0  0  0  0
 21 43  1  0  0  0  0
 22 44  1  0  0  0  0
 22 45  1  0  0  0  0
 22 46  1  0  0  0  0
 23 47  1  0  0  0  0
 23 48  1  0  0  0  0
 23 49  1  0  0  0  0
 24 18  2  0  0  0  0
M  END
>  <DRUGBANK_ID>
DB02025

>  <SECONDARY_ACCESSION_NUMBERS>
EXPT00421

>  <COMMON_NAME>
ACV tripeptide

>  <CAS_NUMBER>
32467-88-2

>  <UNII>
O3VOU3H9VS

>  <SYNONYMS>
(alpha-Aminoadipyl)-cys-val; 5-(2-Aminoad)-cys-val; AADCV; ACV; delta(L-2-Aminoadipyl)-L-cysteinyl-D-valine; L-delta-(alpha-Aminoadipoyl)-L-cysteinyl-D-valine; N-[L-5-Amino-5-carboxypentanoyl]-L-cysteinyl-D-valine

$$$$
