
 OpenBabel10282417143D

 49 51  0  0  0  0  0  0  0  0999 V2000
    0.7185    1.3372   -0.2482 C   0  0  0  0  0  0  0  0  0  0  0  0
   -0.7257    1.2302    0.3353 C   0  0  1  0  0  0  0  0  0  0  0  0
   -1.4463   -0.0271   -0.1608 N   0  0  0  0  0  0  0  0  0  0  0  0
   -0.6935   -1.2691    0.2275 C   0  0  0  0  0  0  0  0  0  0  0  0
    0.7361   -1.3859   -0.2784 C   0  0  0  0  0  0  0  0  0  0  0  0
    1.8138   -0.0534    0.2511 S   0  0  0  0  0  0  0  0  0  0  0  0
   -0.7241    1.3031    1.8841 C   0  0  0  0  0  0  0  0  0  0  0  0
   -1.3390    2.4022    2.4362 N   0  0  0  0  0  0  0  0  0  0  0  0
   -3.1171    0.0044    0.3461 S   0  0  0  0  0  0  0  0  0  0  0  0
   -3.1493   -0.0728    1.7847 O   0  0  0  0  0  0  0  0  0  0  0  0
   -3.7279    1.1319   -0.3376 O   0  0  0  0  0  0  0  0  0  0  0  0
   -3.8629   -1.4954   -0.2365 C   0  0  0  0  0  0  0  0  0  0  0  0
   -3.3970   -2.6905    0.3066 C   0  0  0  0  0  0  0  0  0  0  0  0
   -3.9189   -3.9050   -0.0962 C   0  0  0  0  0  0  0  0  0  0  0  0
   -5.0475   -3.9528   -0.9076 C   0  0  0  0  0  0  0  0  0  0  0  0
   -5.6139   -2.7417   -1.3406 C   0  0  0  0  0  0  0  0  0  0  0  0
   -4.9850   -1.5105   -1.0633 C   0  0  0  0  0  0  0  0  0  0  0  0
   -5.6353   -5.1343   -1.3313 O   0  0  0  0  0  0  0  0  0  0  0  0
   -4.3872   -7.8396    0.7966 C   0  0  0  0  0  0  0  0  0  0  0  0
   -5.0388   -6.6738    0.4379 C   0  0  0  0  0  0  0  0  0  0  0  0
   -5.0725   -6.3263   -0.9125 C   0  0  0  0  0  0  0  0  0  0  0  0
   -4.5417   -7.1973   -1.8589 C   0  0  0  0  0  0  0  0  0  0  0  0
   -3.9318   -8.3556   -1.3991 C   0  0  0  0  0  0  0  0  0  0  0  0
   -3.8277   -8.6863   -0.0922 N   0  0  0  0  0  0  0  0  0  0  0  0
   -1.4172    2.3911    3.8519 O   0  0  0  0  0  0  0  0  0  0  0  0
    1.4165    2.5971    0.2718 C   0  0  0  0  0  0  0  0  0  0  0  0
    0.7032    1.3604   -1.7908 C   0  0  0  0  0  0  0  0  0  0  0  0
   -0.2086    0.4535    2.6146 O   0  0  0  0  0  0  0  0  0  0  0  0
   -1.2890    2.0928   -0.0528 H   0  0  0  0  0  0  0  0  0  0  0  0
   -1.1696   -2.1058   -0.2777 H   0  0  0  0  0  0  0  0  0  0  0  0
   -0.7437   -1.4283    1.3072 H   0  0  0  0  0  0  0  0  0  0  0  0
    0.7474   -1.4345   -1.3706 H   0  0  0  0  0  0  0  0  0  0  0  0
    1.1639   -2.3248    0.0842 H   0  0  0  0  0  0  0  0  0  0  0  0
   -1.9858    3.0154    1.9521 H   0  0  0  0  0  0  0  0  0  0  0  0
   -2.6025   -2.7120    1.0442 H   0  0  0  0  0  0  0  0  0  0  0  0
   -3.4223   -4.7910    0.2799 H   0  0  0  0  0  0  0  0  0  0  0  0
   -6.5522   -2.7470   -1.8920 H   0  0  0  0  0  0  0  0  0  0  0  0
   -5.3982   -0.5843   -1.4594 H   0  0  0  0  0  0  0  0  0  0  0  0
   -4.2816   -8.1214    1.8404 H   0  0  0  0  0  0  0  0  0  0  0  0
   -5.4467   -6.0170    1.1971 H   0  0  0  0  0  0  0  0  0  0  0  0
   -4.5802   -6.9833   -2.9201 H   0  0  0  0  0  0  0  0  0  0  0  0
   -3.4872   -9.0715   -2.0859 H   0  0  0  0  0  0  0  0  0  0  0  0
   -0.9877    1.5351    4.0823 H   0  0  0  0  0  0  0  0  0  0  0  0
    2.4449    2.6687   -0.0995 H   0  0  0  0  0  0  0  0  0  0  0  0
    0.8812    3.4954   -0.0503 H   0  0  0  0  0  0  0  0  0  0  0  0
    1.4628    2.6125    1.3668 H   0  0  0  0  0  0  0  0  0  0  0  0
    0.2031    0.4885   -2.2277 H   0  0  0  0  0  0  0  0  0  0  0  0
    0.1741    2.2404   -2.1679 H   0  0  0  0  0  0  0  0  0  0  0  0
    1.7213    1.3858   -2.1994 H   0  0  0  0  0  0  0  0  0  0  0  0
  1  6  1  0  0  0  0
  1  2  1  0  0  0  0
  1 26  1  0  0  0  0
  1 27  1  0  0  0  0
  2  3  1  0  0  0  0
  2  7  1  0  0  0  0
  2 29  1  6  0  0  0
  3  4  1  0  0  0  0
  3  9  1  0  0  0  0
  4  5  1  0  0  0  0
  4 30  1  0  0  0  0
  4 31  1  0  0  0  0
  5  6  1  0  0  0  0
  5 32  1  0  0  0  0
  5 33  1  0  0  0  0
  7  8  1  0  0  0  0
  7 28  2  0  0  0  0
  8 25  1  0  0  0  0
  8 34  1  0  0  0  0
  9 10  2  0  0  0  0
  9 11  2  0  0  0  0
  9 12  1  0  0  0  0
 12 13  1  0  0  0  0
 12 17  2  0  0  0  0
 13 14  2  0  0  0  0
 13 35  1  0  0  0  0
 14 15  1  0  0  0  0
 14 36  1  0  0  0  0
 15 16  2  0  0  0  0
 15 18  1  0  0  0  0
 16 17  1  0  0  0  0
 16 37  1  0  0  0  0
 17 38  1  0  0  0  0
 18 21  1  0  0  0  0
 19 20  2  0  0  0  0
 19 24  1  0  0  0  0
 19 39  1  0  0  0  0
 20 21  1  0  0  0  0
 20 40  1  0  0  0  0
 21 22  2  0  0  0  0
 22 23  1  0  0  0  0
 22 41  1  0  0  0  0
 23 24  2  0  0  0  0
 23 42  1  0  0  0  0
 25 43  1  0  0  0  0
 26 44  1  0  0  0  0
 26 45  1  0  0  0  0
 26 46  1  0  0  0  0
 27 47  1  0  0  0  0
 27 48  1  0  0  0  0
 27 49  1  0  0  0  0
M  END
>  <DRUGBANK_ID>
DB05100

>  <COMMON_NAME>
Prinomastat

>  <CAS_NUMBER>
192329-42-3

>  <UNII>
10T6626FRK

>  <SYNONYMS>
Prinomastat; Prinomastatum

$$$$
