
 OpenBabel10282417173D

 70 74  0  0  0  0  0  0  0  0999 V2000
    0.9210    0.0897    0.0596 C   0  0  0  0  0  0  0  0  0  0  0  0
    0.1243   -2.9971    9.1004 C   0  0  0  0  0  0  0  0  0  0  0  0
    2.9049   -4.0767   -6.3343 C   0  0  0  0  0  0  0  0  0  0  0  0
   -0.1326   -4.0846    8.2712 C   0  0  0  0  0  0  0  0  0  0  0  0
    0.3853   -1.7463    8.5447 C   0  0  0  0  0  0  0  0  0  0  0  0
    3.7186   -4.0469   -5.2067 C   0  0  0  0  0  0  0  0  0  0  0  0
    2.3755   -2.8940   -6.8390 C   0  0  0  0  0  0  0  0  0  0  0  0
   -0.1138   -3.9198    6.8845 C   0  0  0  0  0  0  0  0  0  0  0  0
    0.3565   -1.5716    7.1598 C   0  0  0  0  0  0  0  0  0  0  0  0
    4.0146   -2.8257   -4.5962 C   0  0  0  0  0  0  0  0  0  0  0  0
    2.7499   -1.6682   -6.2911 C   0  0  0  0  0  0  0  0  0  0  0  0
   -0.7779   -2.8824    4.0017 C   0  0  0  0  0  0  0  0  0  0  0  0
    1.5072   -2.1430    4.2852 C   0  0  0  0  0  0  0  0  0  0  0  0
   -0.5883   -2.9635    2.6276 C   0  0  0  0  0  0  0  0  0  0  0  0
    1.7206   -2.2600    2.9129 C   0  0  0  0  0  0  0  0  0  0  0  0
   -0.5959   -1.2826   -3.2269 C   0  0  0  0  0  0  0  0  0  0  0  0
    0.7043   -2.0447   -3.1233 C   0  0  0  0  0  0  0  0  0  0  0  0
    0.0269    1.0912   -2.6133 C   0  0  0  0  0  0  0  0  0  0  0  0
    2.1763   -0.1809   -2.3841 C   0  0  0  0  0  0  0  0  0  0  0  0
   -0.1945   -2.1096   -0.2534 C   0  0  0  0  0  0  0  0  0  0  0  0
    5.4022    0.2021   -4.4845 C   0  0  0  0  0  0  0  0  0  0  0  0
    0.1442   -2.6611    6.3079 C   0  0  0  0  0  0  0  0  0  0  0  0
    0.2777   -2.5252    4.8530 C   0  0  0  0  0  0  0  0  0  0  0  0
    3.5899   -1.6031   -5.1717 C   0  0  0  0  0  0  0  0  0  0  0  0
    0.6658   -2.6832    2.0991 C   0  0  0  0  0  0  0  0  0  0  0  0
   -0.5628   -0.2540   -2.0803 C   0  0  2  0  0  0  0  0  0  0  0  0
    1.4431   -1.3873   -1.9389 C   0  0  1  0  0  0  0  0  0  0  0  0
    1.5631    1.1202   -2.7376 C   0  0  1  0  0  0  0  0  0  0  0  0
    3.9561   -0.2538   -4.5210 C   0  0  2  0  0  0  0  0  0  0  0  0
    0.8740   -2.7779    0.6455 C   0  0  0  0  0  0  0  0  0  0  0  0
    2.9949    0.9410   -4.9182 C   0  0  0  0  0  0  0  0  0  0  0  0
    0.3892   -0.8896   -1.0120 N   0  3  3  0  0  0  0  0  0  0  0  0
    6.3066   -0.7489   -5.0049 O   0  0  0  0  0  0  0  0  0  0  0  0
    1.9225   -3.2286    0.2338 O   0  0  0  0  0  0  0  0  0  0  0  0
    3.0523    1.4066   -6.0542 O   0  0  0  0  0  0  0  0  0  0  0  0
    2.0243    1.4648   -4.0922 O   0  0  0  0  0  0  0  0  0  0  0  0
   -1.5467   -0.1162   -1.6277 H   0  0  0  0  0  0  0  0  0  0  0  0
    2.1775   -2.0684   -1.5140 H   0  0  0  0  0  0  0  0  0  0  0  0
    1.9449    1.9214   -2.0896 H   0  0  0  0  0  0  0  0  0  0  0  0
    3.9519   -0.5231   -3.4732 H   0  0  0  0  0  0  0  0  0  0  0  0
    0.5064   -0.1661    1.0328 H   0  0  0  0  0  0  0  0  0  0  0  0
    0.6113    1.1056   -0.1730 H   0  0  0  0  0  0  0  0  0  0  0  0
    2.0131    0.0163    0.1059 H   0  0  0  0  0  0  0  0  0  0  0  0
    0.1189   -3.1231   10.1804 H   0  0  0  0  0  0  0  0  0  0  0  0
    2.6952   -5.0183   -6.8350 H   0  0  0  0  0  0  0  0  0  0  0  0
   -0.3249   -5.0636    8.7041 H   0  0  0  0  0  0  0  0  0  0  0  0
    0.6225   -0.9055    9.1910 H   0  0  0  0  0  0  0  0  0  0  0  0
    4.1348   -4.9743   -4.8169 H   0  0  0  0  0  0  0  0  0  0  0  0
    1.6925   -2.9136   -7.6847 H   0  0  0  0  0  0  0  0  0  0  0  0
   -0.2775   -4.7941    6.2562 H   0  0  0  0  0  0  0  0  0  0  0  0
    0.5102   -0.5778    6.7478 H   0  0  0  0  0  0  0  0  0  0  0  0
    4.6060   -2.8528   -3.6812 H   0  0  0  0  0  0  0  0  0  0  0  0
    2.3613   -0.7711   -6.7656 H   0  0  0  0  0  0  0  0  0  0  0  0
   -1.7528   -3.1289    4.4169 H   0  0  0  0  0  0  0  0  0  0  0  0
    2.3222   -1.8014    4.9236 H   0  0  0  0  0  0  0  0  0  0  0  0
   -1.4127   -3.2898    2.0010 H   0  0  0  0  0  0  0  0  0  0  0  0
    2.7059   -2.0393    2.5040 H   0  0  0  0  0  0  0  0  0  0  0  0
   -0.6909   -0.8053   -4.2114 H   0  0  0  0  0  0  0  0  0  0  0  0
   -1.4282   -1.9832   -3.1287 H   0  0  0  0  0  0  0  0  0  0  0  0
    1.2289   -1.9757   -4.0783 H   0  0  0  0  0  0  0  0  0  0  0  0
    0.5616   -3.1181   -2.9714 H   0  0  0  0  0  0  0  0  0  0  0  0
   -0.2699    1.8769   -1.9056 H   0  0  0  0  0  0  0  0  0  0  0  0
   -0.4456    1.3760   -3.5602 H   0  0  0  0  0  0  0  0  0  0  0  0
    2.3060   -0.5645   -3.3558 H   0  0  0  0  0  0  0  0  0  0  0  0
    3.1062   -0.0198   -1.8284 H   0  0  0  0  0  0  0  0  0  0  0  0
   -1.0323   -1.7050    0.3158 H   0  0  0  0  0  0  0  0  0  0  0  0
   -0.5742   -2.8414   -0.9705 H   0  0  0  0  0  0  0  0  0  0  0  0
    5.5257    1.1673   -4.9699 H   0  0  0  0  0  0  0  0  0  0  0  0
    5.6787    0.3570   -3.4263 H   0  0  0  0  0  0  0  0  0  0  0  0
    6.1170   -1.6174   -4.6116 H   0  0  0  0  0  0  0  0  0  0  0  0
  1 41  1  0  0  0  0
  1 42  1  0  0  0  0
  1 43  1  0  0  0  0
  2 44  1  0  0  0  0
  3 45  1  0  0  0  0
  4  2  2  0  0  0  0
  4 46  1  0  0  0  0
  5  2  1  0  0  0  0
  5 47  1  0  0  0  0
  6  3  2  0  0  0  0
  6 48  1  0  0  0  0
  7  3  1  0  0  0  0
  7 49  1  0  0  0  0
  8  4  1  0  0  0  0
  8 50  1  0  0  0  0
  9  5  2  0  0  0  0
  9 51  1  0  0  0  0
 10  6  1  0  0  0  0
 10 52  1  0  0  0  0
 11  7  2  0  0  0  0
 11 53  1  0  0  0  0
 12 54  1  0  0  0  0
 13 55  1  0  0  0  0
 14 12  1  0  0  0  0
 14 56  1  0  0  0  0
 15 13  2  0  0  0  0
 15 57  1  0  0  0  0
 16 58  1  0  0  0  0
 16 59  1  0  0  0  0
 17 16  1  0  0  0  0
 17 60  1  0  0  0  0
 17 61  1  0  0  0  0
 18 62  1  0  0  0  0
 18 63  1  0  0  0  0
 19 64  1  0  0  0  0
 19 65  1  0  0  0  0
 20 66  1  0  0  0  0
 20 67  1  0  0  0  0
 21 68  1  0  0  0  0
 21 69  1  0  0  0  0
 22  8  2  0  0  0  0
 22  9  1  0  0  0  0
 23 12  2  0  0  0  0
 23 13  1  0  0  0  0
 23 22  1  0  0  0  0
 24 10  2  0  0  0  0
 24 11  1  0  0  0  0
 25 14  2  0  0  0  0
 25 15  1  0  0  0  0
 26 16  1  0  0  0  0
 26 18  1  0  0  0  0
 26 37  1  1  0  0  0
 27 17  1  0  0  0  0
 27 19  1  0  0  0  0
 27 38  1  1  0  0  0
 28 18  1  0  0  0  0
 28 19  1  0  0  0  0
 28 39  1  1  0  0  0
 28 36  1  0  0  0  0
 29 31  1  0  0  0  0
 29 40  1  1  0  0  0
 29 24  1  0  0  0  0
 29 21  1  0  0  0  0
 30 20  1  0  0  0  0
 30 25  1  0  0  0  0
 32  1  1  0  0  0  0
 32 20  1  0  0  0  0
 32 26  1  0  0  0  0
 32 27  1  0  0  0  0
 33 21  1  0  0  0  0
 33 70  1  0  0  0  0
 34 30  2  0  0  0  0
 35 31  2  0  0  0  0
 36 31  1  0  0  0  0
M  CHG  1  32   1
M  END
>  <DRUGBANK_ID>
DB08978

>  <COMMON_NAME>
Fentonium

>  <CAS_NUMBER>
34786-74-8

>  <UNII>
26BF4S8FO5

$$$$
