
 OpenBabel10282417123D

 45 47  0  0  0  0  0  0  0  0999 V2000
    1.9572    1.4874    0.4363 C   0  0  0  0  0  0  0  0  0  0  0  0
    0.1896    4.6483   -0.2853 C   0  0  0  0  0  0  0  0  0  0  0  0
   -0.0967    3.6042    0.7755 C   0  0  0  0  0  0  0  0  0  0  0  0
   -0.1394    1.1202   -1.4216 C   0  0  0  0  0  0  0  0  0  0  0  0
    4.6174    3.7229    0.1789 C   0  0  0  0  0  0  0  0  0  0  0  0
    2.6117    6.3576   -2.6492 C   0  0  0  0  0  0  0  0  0  0  0  0
    0.7470    1.8029   -2.6986 C   0  0  1  0  0  0  0  0  0  0  0  0
    4.1852    5.9024   -1.2862 C   0  0  0  0  0  0  0  0  0  0  0  0
    0.1821    2.4844   -4.0389 C   0  0  2  0  0  0  0  0  0  0  0  0
    0.9864    3.8314   -4.2560 C   0  0  2  0  0  0  0  0  0  0  0  0
    5.2910    5.8491   -0.4124 C   0  0  0  0  0  0  0  0  0  0  0  0
    3.4765    4.7603   -1.4429 C   0  0  0  0  0  0  0  0  0  0  0  0
    1.4894    4.1163   -2.8700 C   0  0  2  0  0  0  0  0  0  0  0  0
    6.1817    6.8818   -0.2763 N   0  0  0  0  0  0  0  0  0  0  0  0
   -1.3249    3.4161   -1.5001 N   0  0  0  0  0  0  0  0  0  0  0  0
    5.4882    4.7233    0.3227 N   0  0  0  0  0  0  0  0  0  0  0  0
    3.6172    3.6368   -0.6917 N   0  0  0  0  0  0  0  0  0  0  0  0
    3.6400    6.9196   -2.0513 N   0  0  0  0  0  0  0  0  0  0  0  0
    2.5885    4.9842   -2.4797 N   0  0  0  0  0  0  0  0  0  0  0  0
   -1.2373    2.6602   -4.0313 O   0  0  0  0  0  0  0  0  0  0  0  0
    0.1787    4.9059   -4.7755 O   0  0  0  0  0  0  0  0  0  0  0  0
   -0.8753    4.7448   -1.2881 O   0  0  0  0  0  0  0  0  0  0  0  0
    1.5743    2.8534   -2.1834 O   0  0  0  0  0  0  0  0  0  0  0  0
    0.1937    1.7118    0.4576 S   0  3  3  0  0  0  0  0  0  0  0  0
    1.4110    0.9846   -3.0164 H   0  0  0  0  0  0  0  0  0  0  0  0
    0.3926    1.8542   -4.9105 H   0  0  0  0  0  0  0  0  0  0  0  0
    1.8569    3.7365   -4.9060 H   0  0  0  0  0  0  0  0  0  0  0  0
    0.6831    4.7352   -2.5229 H   0  0  0  0  0  0  0  0  0  0  0  0
    2.4418    1.9530    1.2950 H   0  0  0  0  0  0  0  0  0  0  0  0
    2.4093    1.8087   -0.4860 H   0  0  0  0  0  0  0  0  0  0  0  0
    2.1471    0.4113    0.4660 H   0  0  0  0  0  0  0  0  0  0  0  0
    0.3928    5.6841   -0.0016 H   0  0  0  0  0  0  0  0  0  0  0  0
    1.1361    4.3082   -0.6561 H   0  0  0  0  0  0  0  0  0  0  0  0
   -1.1601    3.7008    1.0183 H   0  0  0  0  0  0  0  0  0  0  0  0
    0.4929    3.8803    1.6553 H   0  0  0  0  0  0  0  0  0  0  0  0
    0.0281    0.0323   -1.3560 H   0  0  0  0  0  0  0  0  0  0  0  0
   -1.2353    1.1612   -1.5172 H   0  0  0  0  0  0  0  0  0  0  0  0
    4.7434    2.8590    0.8383 H   0  0  0  0  0  0  0  0  0  0  0  0
    1.8367    6.8977   -3.1920 H   0  0  0  0  0  0  0  0  0  0  0  0
    6.1160    7.5976   -0.9937 H   0  0  0  0  0  0  0  0  0  0  0  0
    7.0779    6.6292    0.1158 H   0  0  0  0  0  0  0  0  0  0  0  0
   -0.3753    3.0457   -1.4264 H   0  0  0  0  0  0  0  0  0  0  0  0
   -1.5088    3.0222   -2.4228 H   0  0  0  0  0  0  0  0  0  0  0  0
   -1.5021    3.5863   -3.8827 H   0  0  0  0  0  0  0  0  0  0  0  0
   -0.6241    5.0509   -4.2430 H   0  0  0  0  0  0  0  0  0  0  0  0
  1 29  1  0  0  0  0
  1 30  1  0  0  0  0
  1 31  1  0  0  0  0
  2 32  1  0  0  0  0
  2 33  1  0  0  0  0
  3  2  1  0  0  0  0
  3 34  1  0  0  0  0
  3 35  1  0  0  0  0
  4 36  1  0  0  0  0
  4 37  1  0  0  0  0
  5 38  1  0  0  0  0
  6 39  1  0  0  0  0
  7 23  1  0  0  0  0
  7 25  1  6  0  0  0
  7  4  1  0  0  0  0
  9  7  1  0  0  0  0
  9 10  1  0  0  0  0
  9 20  1  0  0  0  0
  9 26  1  6  0  0  0
 10 13  1  0  0  0  0
 10 21  1  0  0  0  0
 10 27  1  6  0  0  0
 11  8  2  0  0  0  0
 12  8  1  0  0  0  0
 13 23  1  0  0  0  0
 13 28  1  1  0  0  0
 13 19  1  0  0  0  0
 14 11  1  0  0  0  0
 14 40  1  0  0  0  0
 14 41  1  0  0  0  0
 15 42  1  0  0  0  0
 15 43  1  0  0  0  0
 16  5  2  0  0  0  0
 16 11  1  0  0  0  0
 17  5  1  0  0  0  0
 17 12  2  0  0  0  0
 18  6  2  0  0  0  0
 18  8  1  0  0  0  0
 19  6  1  0  0  0  0
 19 12  1  0  0  0  0
 20 44  1  0  0  0  0
 21 45  1  0  0  0  0
 22  2  1  0  0  0  0
 22 15  1  0  0  0  0
 24  1  1  0  0  0  0
 24  3  1  0  0  0  0
 24  4  1  0  0  0  0
M  CHG  1  24   1
M  END
>  <DRUGBANK_ID>
DB02523

>  <SECONDARY_ACCESSION_NUMBERS>
EXPT00380

>  <COMMON_NAME>
2-aminooxyethyl-[[(2R,3S,4R,5R)-5-(6-aminopurin-9-yl)-3,4-dihydroxy-tetrahydrofuran-2-yl]methyl]-methyl-sulfonium

$$$$
