
 OpenBabel10282417133D

 31 32  0  0  1  0  0  0  0  0999 V2000
    0.8707   -0.2506    0.1126 N   0  0  0  0  0  0  0  0  0  0  0  0
    0.3102    0.5331    1.2596 C   0  0  1  0  0  0  0  0  0  0  0  0
    0.8376    1.9819    1.2349 C   0  0  0  0  0  0  0  0  0  0  0  0
    0.4866    2.7859   -0.0039 C   0  0  0  0  0  0  0  0  0  0  0  0
   -0.3663    2.3530   -0.9473 C   0  0  0  0  0  0  0  0  0  0  0  0
   -0.8401    3.0120   -2.1778 C   0  0  0  0  0  0  0  0  0  0  0  0
   -1.5301    4.3212   -1.8723 C   0  0  0  0  0  0  0  0  0  0  0  0
   -0.6592    5.4365   -1.2553 C   0  0  0  0  0  0  0  0  0  0  0  0
    0.7453    5.1404   -0.7870 C   0  0  0  0  0  0  0  0  0  0  0  0
    1.1870    4.0130   -0.2267 C   0  0  0  0  0  0  0  0  0  0  0  0
    2.6226    4.2428    0.0058 C   0  0  0  0  0  0  0  0  0  0  0  0
    3.4203    3.4659    0.4802 O   0  0  0  0  0  0  0  0  0  0  0  0
    2.8830    5.5053   -0.4432 N   0  0  0  0  0  0  0  0  0  0  0  0
    1.7218    6.1246   -0.9629 O   0  0  0  0  0  0  0  0  0  0  0  0
   -1.2604    0.4679    1.3986 C   0  0  0  0  0  0  0  0  0  0  0  0
   -1.6990   -0.1882    2.4953 O   0  0  0  0  0  0  0  0  0  0  0  0
   -2.1002    0.9667    0.6627 O   0  0  0  0  0  0  0  0  0  0  0  0
    0.6191    0.2000   -0.7719 H   0  0  0  0  0  0  0  0  0  0  0  0
    1.8883   -0.1112    0.1038 H   0  0  0  0  0  0  0  0  0  0  0  0
    0.7304    0.0543    2.1492 H   0  0  0  0  0  0  0  0  0  0  0  0
    0.5017    2.5188    2.1332 H   0  0  0  0  0  0  0  0  0  0  0  0
    1.9288    1.9116    1.3266 H   0  0  0  0  0  0  0  0  0  0  0  0
   -0.8405    1.3902   -0.8872 H   0  0  0  0  0  0  0  0  0  0  0  0
   -1.5773    2.3303   -2.6273 H   0  0  0  0  0  0  0  0  0  0  0  0
   -0.0155    3.1027   -2.8855 H   0  0  0  0  0  0  0  0  0  0  0  0
   -1.9577    4.6790   -2.8158 H   0  0  0  0  0  0  0  0  0  0  0  0
   -2.3959    4.1347   -1.2167 H   0  0  0  0  0  0  0  0  0  0  0  0
   -0.6356    6.2491   -1.9894 H   0  0  0  0  0  0  0  0  0  0  0  0
   -1.2117    5.8304   -0.3915 H   0  0  0  0  0  0  0  0  0  0  0  0
    3.7868    5.9512   -0.4389 H   0  0  0  0  0  0  0  0  0  0  0  0
   -1.0054   -0.5926    3.0381 H   0  0  0  0  0  0  0  0  0  0  0  0
  1 18  1  0  0  0  0
  1 19  1  0  0  0  0
  2  1  1  0  0  0  0
  2  3  1  0  0  0  0
  2 15  1  0  0  0  0
  2 20  1  1  0  0  0
  3  4  1  0  0  0  0
  3 21  1  0  0  0  0
  3 22  1  0  0  0  0
  4  5  2  0  0  0  0
  4 10  1  0  0  0  0
  5  6  1  0  0  0  0
  5 23  1  0  0  0  0
  6  7  1  0  0  0  0
  6 24  1  0  0  0  0
  6 25  1  0  0  0  0
  7  8  1  0  0  0  0
  7 26  1  0  0  0  0
  7 27  1  0  0  0  0
  8  9  1  0  0  0  0
  8 28  1  0  0  0  0
  8 29  1  0  0  0  0
  9 10  2  0  0  0  0
  9 14  1  0  0  0  0
 10 11  1  0  0  0  0
 11 12  2  0  0  0  0
 11 13  1  0  0  0  0
 13 14  1  0  0  0  0
 13 30  1  0  0  0  0
 15 16  1  0  0  0  0
 15 17  2  0  0  0  0
 16 31  1  0  0  0  0
M  END
>  <DRUGBANK_ID>
DB04152

>  <SECONDARY_ACCESSION_NUMBERS>
EXPT01825

>  <COMMON_NAME>
2-Amino-3-(3-Hydroxy-7,8-Dihydro-6h-Cyclohepta[D]-4-Isoxazolyl)Propionic Acid

$$$$
