
 OpenBabel10282417133D

 95 97  0  0  0  0  0  0  0  0999 V2000
   -7.4974    5.0677   -2.4087 C   0  0  2  0  0  0  0  0  0  0  0  0
   -8.9694    4.0593   -2.5133 O   0  0  0  0  0  0  0  0  0  0  0  0
   -7.8198    5.3621   -3.9242 C   0  0  1  0  0  0  0  0  0  0  0  0
   -9.2742    3.1429   -3.8908 C   0  0  1  0  0  0  0  0  0  0  0  0
   -8.4836    4.0554   -4.8174 C   0  0  1  0  0  0  0  0  0  0  0  0
   -8.9620    6.2142   -3.7324 O   0  0  0  0  0  0  0  0  0  0  0  0
    1.5292   -0.1572   -7.2875 C   0  0  0  0  0  0  0  0  0  0  0  0
    2.0369    1.2907   -7.4609 C   0  0  0  0  0  0  0  0  0  0  0  0
    1.2951   -0.5786   -5.9156 N   0  0  0  0  0  0  0  0  0  0  0  0
    0.0790   -0.6802   -5.2901 C   0  0  0  0  0  0  0  0  0  0  0  0
   -0.9769   -0.6082   -5.9471 O   0  0  0  0  0  0  0  0  0  0  0  0
   -0.8621    0.2604   -3.1481 C   0  0  0  0  0  0  0  0  0  0  0  0
    0.0179   -0.8105   -3.7506 C   0  0  0  0  0  0  0  0  0  0  0  0
   -2.1757   -0.0006   -3.6063 N   0  0  0  0  0  0  0  0  0  0  0  0
   -2.8857   -0.8703   -1.6188 O   0  0  0  0  0  0  0  0  0  0  0  0
   -3.0461   -0.7202   -2.8242 C   0  0  0  0  0  0  0  0  0  0  0  0
   -6.5393    0.2180   -3.7019 C   0  0  0  0  0  0  0  0  0  0  0  0
   -4.7722    1.0481   -2.4914 C   0  0  0  0  0  0  0  0  0  0  0  0
   -5.0672    0.3724   -3.7745 C   0  0  0  0  0  0  0  0  0  0  0  0
   -4.7500    1.2446   -5.0281 C   0  0  0  0  0  0  0  0  0  0  0  0
   -4.3895   -0.9692   -3.5543 C   0  0  1  0  0  0  0  0  0  0  0  0
   -4.3351   -1.6266   -4.7866 O   0  0  0  0  0  0  0  0  0  0  0  0
   -7.1676    1.4716   -3.5695 O   0  0  0  0  0  0  0  0  0  0  0  0
   -8.6607    2.0784   -1.7767 O   0  0  0  0  0  0  0  0  0  0  0  0
   -9.4773    0.3155   -3.2637 O   0  0  0  0  0  0  0  0  0  0  0  0
   -7.2502    3.0203   -1.1644 O   0  0  0  0  0  0  0  0  0  0  0  0
   -6.0092    3.4545   -3.5224 O   0  0  0  0  0  0  0  0  0  0  0  0
   -9.7156   -0.2293   -1.0290 O   0  0  0  0  0  0  0  0  0  0  0  0
   -7.6023    0.3904   -0.3568 O   0  0  0  0  0  0  0  0  0  0  0  0
   -7.3349    2.7665   -2.6496 P   0  0  3  0  0  0  0  0  0  0  0  0
   -8.5398    0.3530   -1.8103 P   0  0  3  0  0  0  0  0  0  0  0  0
   -9.2937    1.3513   -4.2965 C   0  0  0  0  0  0  0  0  0  0  0  0
   -9.4352    4.5235   -5.7363 O   0  0  0  0  0  0  0  0  0  0  0  0
  -11.1471    5.9843   -6.3584 O   0  0  0  0  0  0  0  0  0  0  0  0
  -11.6818    3.5423   -5.7652 O   0  0  0  0  0  0  0  0  0  0  0  0
  -10.9490    4.8643   -5.2678 P   0  0  0  0  0  0  0  0  0  0  0  0
  -11.2221    5.2877   -3.8645 O   0  0  0  0  0  0  0  0  0  0  0  0
   -5.8726    4.6853   -1.7346 N   0  0  0  0  0  0  0  0  0  0  0  0
   -4.7166    5.2691   -2.2263 C   0  0  0  0  0  0  0  0  0  0  0  0
   -5.1855    3.5288   -1.0860 C   0  0  0  0  0  0  0  0  0  0  0  0
   -3.6340    4.3758   -2.1513 C   0  0  0  0  0  0  0  0  0  0  0  0
   -4.6817    6.4783   -2.7460 N   0  0  0  0  0  0  0  0  0  0  0  0
   -3.9426    3.3045   -1.4438 N   0  0  0  0  0  0  0  0  0  0  0  0
   -2.4014    4.7191   -2.7173 C   0  0  0  0  0  0  0  0  0  0  0  0
   -3.3951    6.8037   -2.9657 C   0  0  0  0  0  0  0  0  0  0  0  0
   -2.2782    6.0232   -3.0265 N   0  0  0  0  0  0  0  0  0  0  0  0
   -1.3303    3.8344   -2.8986 N   0  0  0  0  0  0  0  0  0  0  0  0
    3.7004    1.6631   -6.8280 S   0  0  0  0  0  0  0  0  0  0  0  0
    3.7220    1.6572   -5.0697 C   0  0  0  0  0  0  0  0  0  0  0  0
    4.8105    1.8532   -4.4996 O   0  0  0  0  0  0  0  0  0  0  0  0
    2.7749   -0.0613   -2.1765 O   0  0  0  0  0  0  0  0  0  0  0  0
    2.8914    0.0759   -3.4386 C   0  0  0  0  0  0  0  0  0  0  0  0
    3.0938   -1.0330   -4.1841 O   0  0  0  0  0  0  0  0  0  0  0  0
    2.5365    1.3200   -4.2411 C   0  0  1  0  0  0  0  0  0  0  0  0
    2.0521    2.4415   -3.3439 C   0  0  0  0  0  0  0  0  0  0  0  0
   -7.8346    5.5982   -1.5233 H   0  0  0  0  0  0  0  0  0  0  0  0
   -7.0716    5.9096   -4.4979 H   0  0  0  0  0  0  0  0  0  0  0  0
  -10.3458    3.1351   -3.7812 H   0  0  0  0  0  0  0  0  0  0  0  0
   -7.6974    3.4987   -5.3697 H   0  0  0  0  0  0  0  0  0  0  0  0
   -9.5699    5.6662   -3.1454 H   0  0  0  0  0  0  0  0  0  0  0  0
    2.2736   -0.8487   -7.6935 H   0  0  0  0  0  0  0  0  0  0  0  0
    0.5968   -0.2784   -7.8439 H   0  0  0  0  0  0  0  0  0  0  0  0
    2.1204    1.4519   -8.5486 H   0  0  0  0  0  0  0  0  0  0  0  0
    1.3210    2.0389   -7.1091 H   0  0  0  0  0  0  0  0  0  0  0  0
    2.1538   -0.7897   -5.4151 H   0  0  0  0  0  0  0  0  0  0  0  0
   -0.5996    1.2569   -3.5014 H   0  0  0  0  0  0  0  0  0  0  0  0
   -0.8158    0.2691   -2.0495 H   0  0  0  0  0  0  0  0  0  0  0  0
    0.9355   -0.6858   -3.2309 H   0  0  0  0  0  0  0  0  0  0  0  0
   -0.3119   -1.8134   -3.4727 H   0  0  0  0  0  0  0  0  0  0  0  0
   -2.3044    0.0417   -4.6109 H   0  0  0  0  0  0  0  0  0  0  0  0
   -6.7859   -0.4164   -2.8627 H   0  0  0  0  0  0  0  0  0  0  0  0
   -6.9398   -0.3034   -4.5829 H   0  0  0  0  0  0  0  0  0  0  0  0
   -5.2187    0.5814   -1.6033 H   0  0  0  0  0  0  0  0  0  0  0  0
   -3.7368    1.2935   -2.3316 H   0  0  0  0  0  0  0  0  0  0  0  0
   -5.2063    1.9674   -2.6651 H   0  0  0  0  0  0  0  0  0  0  0  0
   -4.9276    0.7048   -5.9625 H   0  0  0  0  0  0  0  0  0  0  0  0
   -5.3979    2.1243   -5.1448 H   0  0  0  0  0  0  0  0  0  0  0  0
   -3.7387    1.6511   -5.0013 H   0  0  0  0  0  0  0  0  0  0  0  0
   -4.9922   -1.5511   -2.8392 H   0  0  0  0  0  0  0  0  0  0  0  0
   -3.8674   -1.0224   -5.3869 H   0  0  0  0  0  0  0  0  0  0  0  0
   -5.8733    4.2785   -4.0237 H   0  0  0  0  0  0  0  0  0  0  0  0
   -7.6018    1.3209   -0.0378 H   0  0  0  0  0  0  0  0  0  0  0  0
  -10.0898    1.1668   -5.0395 H   0  0  0  0  0  0  0  0  0  0  0  0
   -8.4956    1.0098   -4.9906 H   0  0  0  0  0  0  0  0  0  0  0  0
  -10.4889    6.6554   -6.0858 H   0  0  0  0  0  0  0  0  0  0  0  0
  -11.2362    2.7130   -5.5266 H   0  0  0  0  0  0  0  0  0  0  0  0
   -5.6314    2.6226   -0.6436 H   0  0  0  0  0  0  0  0  0  0  0  0
   -3.2651    7.8656   -3.0749 H   0  0  0  0  0  0  0  0  0  0  0  0
   -1.4562    2.9083   -2.4974 H   0  0  0  0  0  0  0  0  0  0  0  0
   -0.4177    4.2580   -2.7850 H   0  0  0  0  0  0  0  0  0  0  0  0
    3.0261   -1.8353   -3.6072 H   0  0  0  0  0  0  0  0  0  0  0  0
    1.6631    1.2283   -4.8765 H   0  0  0  0  0  0  0  0  0  0  0  0
    1.8487    3.3410   -3.9313 H   0  0  0  0  0  0  0  0  0  0  0  0
    1.1123    2.1583   -2.8585 H   0  0  0  0  0  0  0  0  0  0  0  0
    2.7663    2.6478   -2.5515 H   0  0  0  0  0  0  0  0  0  0  0  0
  1 38  1  0  0  0  0
  1 56  1  1  0  0  0
  2  1  1  0  0  0  0
  3  1  1  0  0  0  0
  3  6  1  0  0  0  0
  3 57  1  6  0  0  0
  4  2  1  0  0  0  0
  4 32  1  0  0  0  0
  4 58  1  6  0  0  0
  5  3  1  0  0  0  0
  5  4  1  0  0  0  0
  5 33  1  0  0  0  0
  5 59  1  6  0  0  0
  6 60  1  0  0  0  0
  7  8  1  0  0  0  0
  7 61  1  0  0  0  0
  7 62  1  0  0  0  0
  8 48  1  0  0  0  0
  8 63  1  0  0  0  0
  8 64  1  0  0  0  0
  9  7  1  0  0  0  0
  9 65  1  0  0  0  0
 10  9  1  0  0  0  0
 10 11  2  0  0  0  0
 12 14  1  0  0  0  0
 12 66  1  0  0  0  0
 12 67  1  0  0  0  0
 13 10  1  0  0  0  0
 13 12  1  0  0  0  0
 13 68  1  0  0  0  0
 13 69  1  0  0  0  0
 14 70  1  0  0  0  0
 16 14  1  0  0  0  0
 16 15  2  0  0  0  0
 17 23  1  0  0  0  0
 17 71  1  0  0  0  0
 17 72  1  0  0  0  0
 18 73  1  0  0  0  0
 18 74  1  0  0  0  0
 18 75  1  0  0  0  0
 19 17  1  0  0  0  0
 19 18  1  0  0  0  0
 19 20  1  0  0  0  0
 20 76  1  0  0  0  0
 20 77  1  0  0  0  0
 20 78  1  0  0  0  0
 21 22  1  0  0  0  0
 21 79  1  1  0  0  0
 21 19  1  0  0  0  0
 21 16  1  0  0  0  0
 22 80  1  0  0  0  0
 23 30  1  0  0  0  0
 24 31  1  0  0  0  0
 27 81  1  0  0  0  0
 29 82  1  0  0  0  0
 30 24  1  0  0  0  0
 30 26  2  0  0  0  0
 30 27  1  0  0  0  0
 31 25  1  0  0  0  0
 31 28  2  0  0  0  0
 31 29  1  0  0  0  0
 32 25  1  0  0  0  0
 32 83  1  0  0  0  0
 32 84  1  0  0  0  0
 33 36  1  0  0  0  0
 34 85  1  0  0  0  0
 35 86  1  0  0  0  0
 36 34  1  0  0  0  0
 36 35  1  0  0  0  0
 36 37  2  0  0  0  0
 39 38  1  0  0  0  0
 40 38  1  0  0  0  0
 40 87  1  0  0  0  0
 41 39  2  0  0  0  0
 42 39  1  0  0  0  0
 43 40  2  0  0  0  0
 43 41  1  0  0  0  0
 44 41  1  0  0  0  0
 45 42  2  0  0  0  0
 45 88  1  0  0  0  0
 46 44  2  0  0  0  0
 46 45  1  0  0  0  0
 47 44  1  0  0  0  0
 47 89  1  0  0  0  0
 47 90  1  0  0  0  0
 48 49  1  0  0  0  0
 49 54  1  0  0  0  0
 49 50  2  0  0  0  0
 52 51  2  0  0  0  0
 52 53  1  0  0  0  0
 53 91  1  0  0  0  0
 54 52  1  0  0  0  0
 54 55  1  0  0  0  0
 54 92  1  6  0  0  0
 55 93  1  0  0  0  0
 55 94  1  0  0  0  0
 55 95  1  0  0  0  0
M  END
>  <DRUGBANK_ID>
DB04045

>  <SECONDARY_ACCESSION_NUMBERS>
EXPT02132

>  <COMMON_NAME>
(R)-methylmalonyl-CoA

>  <SYNONYMS>
(R)-2-Methyl-3-oxopropanoyl-CoA; (R)-2-Methyl-3-oxopropionyl-CoA; (R)-3-Oxo-2-methylpropanoyl-CoA; Methylmalonyl-coenzyme A

$$$$
