
 OpenBabel10282417203D

 27 27  0  0  0  0  0  0  0  0999 V2000
    0.5775    1.4000   -0.3046 C   0  0  2  0  0  0  0  0  0  0  0  0
    1.4282    0.2039    0.1117 C   0  0  1  0  0  0  0  0  0  0  0  0
    0.7706   -1.1634   -0.2418 C   0  0  2  0  0  0  0  0  0  0  0  0
   -0.7092   -1.2425    0.2360 C   0  0  1  0  0  0  0  0  0  0  0  0
   -1.4962    0.0070   -0.2105 C   0  0  2  0  0  0  0  0  0  0  0  0
   -0.8280    1.2930    0.3013 C   0  0  1  0  0  0  0  0  0  0  0  0
    0.5252    1.4053   -1.7405 O   0  0  0  0  0  0  0  0  0  0  0  0
   -0.8016    1.3537    1.7342 O   0  0  0  0  0  0  0  0  0  0  0  0
   -2.8660   -0.0270    0.1907 O   0  0  0  0  0  0  0  0  0  0  0  0
   -1.3714   -2.4167   -0.2561 O   0  0  0  0  0  0  0  0  0  0  0  0
    1.5036   -2.3132    0.2346 O   0  0  0  0  0  0  0  0  0  0  0  0
    2.7220    0.3266   -0.4959 O   0  0  0  0  0  0  0  0  0  0  0  0
    2.4713   -2.0685    1.2466 C   0  0  0  0  0  0  0  0  0  0  0  0
    1.0766    2.3185    0.0260 H   0  0  0  0  0  0  0  0  0  0  0  0
    1.5912    0.2711    1.1924 H   0  0  0  0  0  0  0  0  0  0  0  0
    0.7702   -1.2914   -1.3328 H   0  0  0  0  0  0  0  0  0  0  0  0
   -0.7428   -1.3501    1.3254 H   0  0  0  0  0  0  0  0  0  0  0  0
   -1.5295    0.0239   -1.3070 H   0  0  0  0  0  0  0  0  0  0  0  0
   -1.4242    2.1524   -0.0204 H   0  0  0  0  0  0  0  0  0  0  0  0
   -0.2648    1.8910   -2.0229 H   0  0  0  0  0  0  0  0  0  0  0  0
   -0.3517    0.5889    2.1208 H   0  0  0  0  0  0  0  0  0  0  0  0
   -2.9201   -0.4326    1.0731 H   0  0  0  0  0  0  0  0  0  0  0  0
   -1.4381   -2.3586   -1.2252 H   0  0  0  0  0  0  0  0  0  0  0  0
    2.6087    0.1350   -1.4494 H   0  0  0  0  0  0  0  0  0  0  0  0
    3.2468   -1.3838    0.8980 H   0  0  0  0  0  0  0  0  0  0  0  0
    1.9896   -1.6774    2.1474 H   0  0  0  0  0  0  0  0  0  0  0  0
    2.9836   -2.9997    1.4908 H   0  0  0  0  0  0  0  0  0  0  0  0
  1  2  1  0  0  0  0
  1  6  1  0  0  0  0
  1 14  1  1  0  0  0
  1  7  1  0  0  0  0
  2  3  1  0  0  0  0
  2 12  1  0  0  0  0
  2 15  1  1  0  0  0
  3  4  1  0  0  0  0
  3 16  1  6  0  0  0
  3 11  1  0  0  0  0
  4  5  1  0  0  0  0
  4 10  1  0  0  0  0
  4 17  1  1  0  0  0
  5  6  1  0  0  0  0
  5 18  1  6  0  0  0
  5  9  1  0  0  0  0
  6  8  1  0  0  0  0
  6 19  1  6  0  0  0
  7 20  1  0  0  0  0
  8 21  1  0  0  0  0
  9 22  1  0  0  0  0
 10 23  1  0  0  0  0
 11 13  1  0  0  0  0
 12 24  1  0  0  0  0
 13 25  1  0  0  0  0
 13 26  1  0  0  0  0
 13 27  1  0  0  0  0
M  END
>  <DRUGBANK_ID>
DB12969

>  <COMMON_NAME>
Methylinositol

>  <CAS_NUMBER>
10284-63-6

>  <UNII>
TF9HZN9T0M

>  <SYNONYMS>
Pinitol

$$$$
