
 OpenBabel10282417203D

 44 47  0  0  0  0  0  0  0  0999 V2000
    1.4259   -0.2052    0.0547 C   0  0  0  0  0  0  0  0  0  0  0  0
    0.6859    1.0260   -0.0145 C   0  0  0  0  0  0  0  0  0  0  0  0
   -0.7076    1.0181   -0.0166 C   0  0  0  0  0  0  0  0  0  0  0  0
   -1.3354   -0.1734   -0.0107 N   0  0  0  0  0  0  0  0  0  0  0  0
   -0.6076   -1.3465    0.0697 C   0  0  0  0  0  0  0  0  0  0  0  0
    0.7758   -1.4665    0.1635 C   0  0  0  0  0  0  0  0  0  0  0  0
    1.4732   -2.8688    0.3890 C   0  0  0  0  0  0  0  0  0  0  0  0
    1.2342   -3.4897    1.8268 C   0  0  0  0  0  0  0  0  0  0  0  0
    1.5202   -4.7508    2.5220 C   0  0  0  0  0  0  0  0  0  0  0  0
    2.8251   -4.3132    3.0038 N   0  0  0  0  0  0  0  0  0  0  0  0
    2.3410   -3.1975    3.7279 C   0  0  0  0  0  0  0  0  0  0  0  0
    1.3982   -2.6198    2.9051 C   0  0  0  0  0  0  0  0  0  0  0  0
    1.0379   -1.2792    3.1503 C   0  0  0  0  0  0  0  0  0  0  0  0
    1.2794   -0.8343    4.4240 C   0  0  0  0  0  0  0  0  0  0  0  0
    1.8939   -1.6862    5.3162 C   0  0  0  0  0  0  0  0  0  0  0  0
    2.5552   -2.8515    5.0199 N   0  0  0  0  0  0  0  0  0  0  0  0
    0.7966    0.7662    4.7992 Cl  0  0  0  0  0  0  0  0  0  0  0  0
   -1.4331    2.2025   -0.0905 N   0  0  0  0  0  0  0  0  0  0  0  0
   -2.8920    2.2274   -0.0380 C   0  0  0  0  0  0  0  0  0  0  0  0
   -3.3977    2.9642    1.1804 C   0  0  0  0  0  0  0  0  0  0  0  0
   -3.9862    2.2922    2.2553 C   0  0  0  0  0  0  0  0  0  0  0  0
   -4.3514    2.9962    3.4033 C   0  0  0  0  0  0  0  0  0  0  0  0
   -4.1353    4.3736    3.4546 C   0  0  0  0  0  0  0  0  0  0  0  0
   -3.6289    5.0570    2.3872 N   0  0  0  0  0  0  0  0  0  0  0  0
   -3.2824    4.3451    1.2893 C   0  0  0  0  0  0  0  0  0  0  0  0
   -4.4417    5.1383    4.7349 C   0  0  0  0  0  0  0  0  0  0  0  0
   -3.3420    5.7418    5.2725 F   0  0  0  0  0  0  0  0  0  0  0  0
   -5.3678    6.1242    4.5626 F   0  0  0  0  0  0  0  0  0  0  0  0
   -4.9392    4.3450    5.7321 F   0  0  0  0  0  0  0  0  0  0  0  0
    2.5119   -0.1109    0.0626 H   0  0  0  0  0  0  0  0  0  0  0  0
    1.2094    1.9839   -0.0371 H   0  0  0  0  0  0  0  0  0  0  0  0
   -1.2369   -2.2290    0.0786 H   0  0  0  0  0  0  0  0  0  0  0  0
    1.2039   -3.5612   -0.4111 H   0  0  0  0  0  0  0  0  0  0  0  0
    2.5600   -2.6963    0.3410 H   0  0  0  0  0  0  0  0  0  0  0  0
    1.1441   -5.2013    3.4785 H   0  0  0  0  0  0  0  0  0  0  0  0
    3.4657   -4.2559    2.2254 H   0  0  0  0  0  0  0  0  0  0  0  0
    0.5236   -0.6767    2.4416 H   0  0  0  0  0  0  0  0  0  0  0  0
    1.8780   -1.4339    6.3746 H   0  0  0  0  0  0  0  0  0  0  0  0
   -0.9562    3.0843    0.0426 H   0  0  0  0  0  0  0  0  0  0  0  0
   -3.2704    2.7504   -0.9267 H   0  0  0  0  0  0  0  0  0  0  0  0
   -3.3368    1.2276   -0.0719 H   0  0  0  0  0  0  0  0  0  0  0  0
   -4.1442    1.2162    2.2155 H   0  0  0  0  0  0  0  0  0  0  0  0
   -4.7743    2.4669    4.2540 H   0  0  0  0  0  0  0  0  0  0  0  0
   -2.8815    4.9439    0.4754 H   0  0  0  0  0  0  0  0  0  0  0  0
  1  2  2  0  0  0  0
  1  6  1  0  0  0  0
  1 30  1  0  0  0  0
  2  3  1  0  0  0  0
  2 31  1  0  0  0  0
  3  4  2  0  0  0  0
  3 18  1  0  0  0  0
  4  5  1  0  0  0  0
  5  6  2  0  0  0  0
  5 32  1  0  0  0  0
  6  7  1  0  0  0  0
  7  8  1  0  0  0  0
  7 33  1  0  0  0  0
  7 34  1  0  0  0  0
  8  9  2  0  0  0  0
  8 12  1  0  0  0  0
  9 10  1  0  0  0  0
  9 35  1  0  0  0  0
 10 11  1  0  0  0  0
 10 36  1  0  0  0  0
 11 12  1  0  0  0  0
 11 16  2  0  0  0  0
 12 13  2  0  0  0  0
 13 14  1  0  0  0  0
 13 37  1  0  0  0  0
 14 15  2  0  0  0  0
 14 17  1  0  0  0  0
 15 16  1  0  0  0  0
 15 38  1  0  0  0  0
 18 19  1  0  0  0  0
 18 39  1  0  0  0  0
 19 20  1  0  0  0  0
 19 40  1  0  0  0  0
 19 41  1  0  0  0  0
 20 21  2  0  0  0  0
 20 25  1  0  0  0  0
 21 22  1  0  0  0  0
 21 42  1  0  0  0  0
 22 23  2  0  0  0  0
 22 43  1  0  0  0  0
 23 24  1  0  0  0  0
 23 26  1  0  0  0  0
 24 25  2  0  0  0  0
 25 44  1  0  0  0  0
 26 27  1  0  0  0  0
 26 28  1  0  0  0  0
 26 29  1  0  0  0  0
M  END
>  <DRUGBANK_ID>
DB12978

>  <COMMON_NAME>
Pexidartinib

>  <CAS_NUMBER>
1029044-16-3

>  <UNII>
6783M2LV5X

>  <SYNONYMS>
Pexidartinib

$$$$
