
 OpenBabel10282417113D

 28 29  0  0  0  0  0  0  0  0999 V2000
   -1.9003   -0.0054   -0.0346 C   0  0  0  0  0  0  0  0  0  0  0  0
   -1.1981    1.2036   -0.0253 C   0  0  0  0  0  0  0  0  0  0  0  0
    0.2038    1.1962   -0.0216 C   0  0  0  0  0  0  0  0  0  0  0  0
    0.9176   -0.0050    0.0006 C   0  0  0  0  0  0  0  0  0  0  0  0
    0.2012   -1.2066   -0.0152 C   0  0  0  0  0  0  0  0  0  0  0  0
   -1.2020   -1.2155   -0.0241 C   0  0  0  0  0  0  0  0  0  0  0  0
   -3.6850    0.0002    0.0450 S   0  0  0  0  0  0  0  0  0  0  0  0
    2.3006   -0.0035   -0.0792 N   0  0  0  0  0  0  0  0  0  0  0  0
   -4.1425   -0.8878   -1.2964 N   0  0  0  0  0  0  0  0  0  0  0  0
   -5.0370   -1.9462   -1.2200 C   0  0  0  0  0  0  0  0  0  0  0  0
   -4.0333   -0.7233    1.2549 O   0  0  0  0  0  0  0  0  0  0  0  0
   -4.1321    1.3555   -0.1704 O   0  0  0  0  0  0  0  0  0  0  0  0
   -6.1409   -2.0813   -0.3538 C   0  0  0  0  0  0  0  0  0  0  0  0
   -4.9269   -3.0050   -2.0278 N   0  0  0  0  0  0  0  0  0  0  0  0
   -6.6253   -3.3408   -0.5989 C   0  0  0  0  0  0  0  0  0  0  0  0
   -5.8948   -3.9074   -1.5981 O   0  0  0  0  0  0  0  0  0  0  0  0
   -7.7161   -4.1428   -0.0130 C   0  0  0  0  0  0  0  0  0  0  0  0
   -1.7220    2.1562    0.0003 H   0  0  0  0  0  0  0  0  0  0  0  0
    0.7378    2.1439   -0.0206 H   0  0  0  0  0  0  0  0  0  0  0  0
    0.7365   -2.1535   -0.0050 H   0  0  0  0  0  0  0  0  0  0  0  0
   -1.7310   -2.1656   -0.0049 H   0  0  0  0  0  0  0  0  0  0  0  0
    2.8168   -0.8661    0.0372 H   0  0  0  0  0  0  0  0  0  0  0  0
    2.8141    0.8612    0.0367 H   0  0  0  0  0  0  0  0  0  0  0  0
   -3.8788   -0.5494   -2.2183 H   0  0  0  0  0  0  0  0  0  0  0  0
   -6.5199   -1.3736    0.3670 H   0  0  0  0  0  0  0  0  0  0  0  0
   -8.4405   -4.4383   -0.7775 H   0  0  0  0  0  0  0  0  0  0  0  0
   -7.3249   -5.0467    0.4645 H   0  0  0  0  0  0  0  0  0  0  0  0
   -8.2499   -3.5670    0.7510 H   0  0  0  0  0  0  0  0  0  0  0  0
  1  2  1  0  0  0  0
  1  7  1  0  0  0  0
  2  3  2  0  0  0  0
  2 18  1  0  0  0  0
  3  4  1  0  0  0  0
  3 19  1  0  0  0  0
  4  5  2  0  0  0  0
  4  8  1  0  0  0  0
  5  6  1  0  0  0  0
  5 20  1  0  0  0  0
  6  1  2  0  0  0  0
  6 21  1  0  0  0  0
  8 22  1  0  0  0  0
  8 23  1  0  0  0  0
  9 10  1  0  0  0  0
  9  7  1  0  0  0  0
  9 24  1  0  0  0  0
 11  7  2  0  0  0  0
 12  7  2  0  0  0  0
 13 10  1  0  0  0  0
 13 25  1  0  0  0  0
 14 10  2  0  0  0  0
 15 13  2  0  0  0  0
 15 17  1  0  0  0  0
 16 14  1  0  0  0  0
 16 15  1  0  0  0  0
 17 26  1  0  0  0  0
 17 27  1  0  0  0  0
 17 28  1  0  0  0  0
M  END
>  <DRUGBANK_ID>
DB01015

>  <SECONDARY_ACCESSION_NUMBERS>
APRD00076

>  <COMMON_NAME>
Sulfamethoxazole

>  <CAS_NUMBER>
723-46-6

>  <UNII>
JE42381TNV

>  <SYNONYMS>
3-(p-Aminophenylsulfonamido)-5-methylisoxazole; 3-Sulfanilamido-5-methylisoxazole; 4-Amino-N-(5-methyl-3-isoxazolyl)benzenesulfonamide; SMX; Sulfamethoxazole; Sulfametoxazol; Sulphamethoxazole

$$$$
