907
 OpenBabel10282417143D

 35 37  0  0  0  0  0  0  0  0999 V2000
    2.2113   -0.7163   -0.0173 C   0  0  0  0  0  0  0  0  0  0  0  0
    2.1415    0.6941   -0.0279 C   0  0  0  0  0  0  0  0  0  0  0  0
    0.9227    1.4009   -0.0138 C   0  0  0  0  0  0  0  0  0  0  0  0
   -0.2520    0.6485   -0.0356 C   0  0  0  0  0  0  0  0  0  0  0  0
   -0.2270   -0.7411   -0.0346 C   0  0  0  0  0  0  0  0  0  0  0  0
    0.9990   -1.4196    0.0062 C   0  0  0  0  0  0  0  0  0  0  0  0
    3.4980   -1.4556   -0.0480 C   0  0  0  0  0  0  0  0  0  0  0  0
    3.5287   -2.7776   -0.0399 N   0  0  0  0  0  0  0  0  0  0  0  0
    4.6437   -0.8114   -0.0988 N   0  3  0  0  0  0  0  0  0  0  0  0
   -1.5850    1.0195   -0.0365 N   0  0  0  0  0  0  0  0  0  0  0  0
   -1.5562   -1.1932   -0.0705 C   0  0  0  0  0  0  0  0  0  0  0  0
   -2.3870   -0.0950   -0.1101 C   0  0  0  0  0  0  0  0  0  0  0  0
   -3.8583   -0.0911   -0.0832 C   0  0  0  0  0  0  0  0  0  0  0  0
   -4.5281    0.5049   -1.1781 C   0  0  0  0  0  0  0  0  0  0  0  0
   -5.9176    0.4621   -1.2798 C   0  0  0  0  0  0  0  0  0  0  0  0
   -6.6477    1.0782   -2.4320 C   0  0  0  0  0  0  0  0  0  0  0  0
   -6.6301   -0.1857   -0.2742 C   0  0  0  0  0  0  0  0  0  0  0  0
   -5.9657   -0.7816    0.8131 C   0  0  0  0  0  0  0  0  0  0  0  0
   -4.5542   -0.7698    0.9725 C   0  0  0  0  0  0  0  0  0  0  0  0
   -3.9568   -1.3209    1.9700 O   0  5  0  0  0  0  0  0  0  0  0  0
   -7.1073   -1.6444    2.0967 Br  0  0  0  0  0  0  0  0  0  0  0  0
    3.0345    1.3106   -0.0475 H   0  0  0  0  0  0  0  0  0  0  0  0
    0.9006    2.4867   -0.0014 H   0  0  0  0  0  0  0  0  0  0  0  0
    0.9267   -2.4987    0.0370 H   0  0  0  0  0  0  0  0  0  0  0  0
    4.3877   -3.3053   -0.0646 H   0  0  0  0  0  0  0  0  0  0  0  0
    2.6788   -3.3259    0.0014 H   0  0  0  0  0  0  0  0  0  0  0  0
    4.6713    0.1991   -0.1102 H   0  0  0  0  0  0  0  0  0  0  0  0
    5.5320   -1.2894   -0.1258 H   0  0  0  0  0  0  0  0  0  0  0  0
   -1.9390    1.9618    0.0450 H   0  0  0  0  0  0  0  0  0  0  0  0
   -1.9159   -2.2130   -0.0290 H   0  0  0  0  0  0  0  0  0  0  0  0
   -3.9456    0.9680   -1.9700 H   0  0  0  0  0  0  0  0  0  0  0  0
   -7.2318    0.3188   -2.9628 H   0  0  0  0  0  0  0  0  0  0  0  0
   -7.3238    1.8597   -2.0701 H   0  0  0  0  0  0  0  0  0  0  0  0
   -5.9591    1.5345   -3.1500 H   0  0  0  0  0  0  0  0  0  0  0  0
   -7.7136   -0.2386   -0.3282 H   0  0  0  0  0  0  0  0  0  0  0  0
  1  2  2  0  0  0  0
  1  6  1  0  0  0  0
  1  7  1  0  0  0  0
  2  3  1  0  0  0  0
  2 22  1  0  0  0  0
  3  4  2  0  0  0  0
  3 23  1  0  0  0  0
  4  5  1  0  0  0  0
  4 10  1  0  0  0  0
  5  6  2  0  0  0  0
  5 11  1  0  0  0  0
  6 24  1  0  0  0  0
  7  8  1  0  0  0  0
  7  9  2  0  0  0  0
  8 25  1  0  0  0  0
  8 26  1  0  0  0  0
  9 27  1  0  0  0  0
  9 28  1  0  0  0  0
 10 12  1  0  0  0  0
 10 29  1  0  0  0  0
 11 12  2  0  0  0  0
 11 30  1  0  0  0  0
 12 13  1  0  0  0  0
 13 14  2  0  0  0  0
 13 19  1  0  0  0  0
 14 15  1  0  0  0  0
 14 31  1  0  0  0  0
 15 16  1  0  0  0  0
 15 17  2  0  0  0  0
 16 32  1  0  0  0  0
 16 33  1  0  0  0  0
 16 34  1  0  0  0  0
 17 18  1  0  0  0  0
 17 35  1  0  0  0  0
 18 19  2  0  0  0  0
 18 21  1  0  0  0  0
 19 20  1  0  0  0  0
M  CHG  2   9   1  20  -1
M  END
>  <DRUGBANK_ID>
DB04215

>  <SECONDARY_ACCESSION_NUMBERS>
EXPT00340

>  <COMMON_NAME>
CRA_9076

$$$$
