
 OpenBabel10282417153D

114118  0  0  0  0  0  0  0  0999 V2000
    0.6425    0.7636    0.5722 C   0  0  2  0  0  0  0  0  0  0  0  0
    1.3374    2.0238   -0.1927 O   0  0  0  0  0  0  0  0  0  0  0  0
    3.9591    1.5382   -5.5726 C   0  0  0  0  0  0  0  0  0  0  0  0
    3.2070    1.7847   -3.1488 C   0  0  0  0  0  0  0  0  0  0  0  0
    3.9346    0.7746   -4.1184 C   0  0  1  0  0  0  0  0  0  0  0  0
    2.6782    1.3159   -6.7234 C   0  0  1  0  0  0  0  0  0  0  0  0
    1.7215    1.4040   -2.8069 C   0  0  2  0  0  0  0  0  0  0  0  0
   -0.1599    3.0180   -2.1440 C   0  0  2  0  0  0  0  0  0  0  0  0
    1.2271    2.5277   -1.7579 C   0  0  1  0  0  0  0  0  0  0  0  0
   -1.7658    3.1075   -7.1698 C   0  0  1  0  0  0  0  0  0  0  0  0
   -2.0731    3.3229   -5.6752 O   0  0  0  0  0  0  0  0  0  0  0  0
   -1.4572    3.9318   -4.6333 C   0  0  0  0  0  0  0  0  0  0  0  0
   -2.1537    4.1398   -3.2701 C   0  0  1  0  0  0  0  0  0  0  0  0
   -0.8215    4.3580   -2.4117 C   0  0  0  0  0  0  0  0  0  0  0  0
   -0.2751    4.2556   -4.6893 O   0  0  0  0  0  0  0  0  0  0  0  0
    4.9994    2.1313   -5.8773 O   0  0  0  0  0  0  0  0  0  0  0  0
   -0.0830    3.5618   -7.3367 C   0  0  2  0  0  0  0  0  0  0  0  0
    1.5886    2.6399   -7.3366 C   0  0  2  0  0  0  0  0  0  0  0  0
    1.4335    2.1730   -8.7015 N   0  0  0  0  0  0  0  0  0  0  0  0
    1.0405    3.3015   -9.3423 C   0  0  0  0  0  0  0  0  0  0  0  0
   -0.0900    3.7698   -8.8288 O   0  0  0  0  0  0  0  0  0  0  0  0
    1.7573    3.9922  -10.1067 O   0  0  0  0  0  0  0  0  0  0  0  0
   -0.2334    5.4092   -2.2193 O   0  0  0  0  0  0  0  0  0  0  0  0
    3.8423   -0.5346   -3.2673 C   0  0  0  0  0  0  0  0  0  0  0  0
    3.4337    0.3353   -7.8177 C   0  0  0  0  0  0  0  0  0  0  0  0
   -0.3222    5.1432   -6.8749 C   0  0  0  0  0  0  0  0  0  0  0  0
   -3.3485    3.6246   -7.6361 C   0  0  0  0  0  0  0  0  0  0  0  0
   -4.0611    2.6730   -8.5727 C   0  0  0  0  0  0  0  0  0  0  0  0
    1.4722    0.2764   -1.9728 O   0  0  0  0  0  0  0  0  0  0  0  0
    0.2330   -0.4331   -2.1700 C   0  0  0  0  0  0  0  0  0  0  0  0
   -0.9363    0.0383   -2.9452 C   0  0  0  0  0  0  0  0  0  0  0  0
   -1.5057   -0.4490   -4.0673 C   0  0  0  0  0  0  0  0  0  0  0  0
   -2.7006    0.2361   -4.5499 C   0  0  0  0  0  0  0  0  0  0  0  0
   -3.8272   -0.2218   -5.1260 C   0  0  0  0  0  0  0  0  0  0  0  0
   -2.8699    1.5255   -4.2102 C   0  0  0  0  0  0  0  0  0  0  0  0
   -3.9010    2.3928   -4.3645 N   0  0  0  0  0  0  0  0  0  0  0  0
   -4.8695    2.0368   -5.1512 C   0  0  0  0  0  0  0  0  0  0  0  0
   -4.8701    0.6849   -5.4932 C   0  0  0  0  0  0  0  0  0  0  0  0
   -5.9239    0.2426   -6.2310 C   0  0  0  0  0  0  0  0  0  0  0  0
   -6.8414    1.1479   -6.7706 C   0  0  0  0  0  0  0  0  0  0  0  0
   -6.7543    2.5211   -6.5503 C   0  0  0  0  0  0  0  0  0  0  0  0
   -5.7898    2.9691   -5.6744 C   0  0  0  0  0  0  0  0  0  0  0  0
    1.2743    0.5944   -4.0264 C   0  0  0  0  0  0  0  0  0  0  0  0
   -3.4776    4.8488   -3.4812 C   0  0  0  0  0  0  0  0  0  0  0  0
   -0.9469    2.5987   -1.0089 C   0  0  0  0  0  0  0  0  0  0  0  0
    1.3948   -0.4349    0.3705 O   0  0  0  0  0  0  0  0  0  0  0  0
    0.8012   -1.7502    0.3633 C   0  0  1  0  0  0  0  0  0  0  0  0
   -0.7371   -2.0010   -0.0154 C   0  0  0  0  0  0  0  0  0  0  0  0
   -1.7282   -0.9048    0.5028 C   0  0  1  0  0  0  0  0  0  0  0  0
   -1.0290    0.4900    0.6158 C   0  0  1  0  0  0  0  0  0  0  0  0
    1.7821   -2.5800   -0.5245 C   0  0  0  0  0  0  0  0  0  0  0  0
   -3.1353   -0.8701   -0.2459 N   0  0  0  0  0  0  0  0  0  0  0  0
   -1.8224    1.4730    1.2982 O   0  0  0  0  0  0  0  0  0  0  0  0
   -3.9365    0.3385    0.0849 C   0  0  0  0  0  0  0  0  0  0  0  0
   -3.2007   -0.8575   -1.7064 C   0  0  0  0  0  0  0  0  0  0  0  0
   -1.4338    0.8422   -2.4446 H   0  0  0  0  0  0  0  0  0  0  0  0
   -1.0608   -1.2878   -4.5750 H   0  0  0  0  0  0  0  0  0  0  0  0
    0.8767    1.0604    1.6058 H   0  0  0  0  0  0  0  0  0  0  0  0
    3.4231    2.8172   -3.4878 H   0  0  0  0  0  0  0  0  0  0  0  0
    3.6724    1.8087   -2.1591 H   0  0  0  0  0  0  0  0  0  0  0  0
    3.4762    0.0898   -4.8444 H   0  0  0  0  0  0  0  0  0  0  0  0
    1.9902    0.5352   -6.4276 H   0  0  0  0  0  0  0  0  0  0  0  0
   -0.3150    2.4625   -3.0666 H   0  0  0  0  0  0  0  0  0  0  0  0
    1.8657    3.4243   -1.7832 H   0  0  0  0  0  0  0  0  0  0  0  0
   -1.8051    3.9960   -7.8235 H   0  0  0  0  0  0  0  0  0  0  0  0
   -2.5322    3.2663   -2.7189 H   0  0  0  0  0  0  0  0  0  0  0  0
    2.3471    3.4376   -7.4242 H   0  0  0  0  0  0  0  0  0  0  0  0
    0.7394    1.4337   -8.6935 H   0  0  0  0  0  0  0  0  0  0  0  0
    4.6288   -1.2543   -3.0986 H   0  0  0  0  0  0  0  0  0  0  0  0
    3.5571   -0.2583   -2.2448 H   0  0  0  0  0  0  0  0  0  0  0  0
    3.0669   -1.1965   -3.6765 H   0  0  0  0  0  0  0  0  0  0  0  0
    3.5092    0.7229   -8.8355 H   0  0  0  0  0  0  0  0  0  0  0  0
    4.4472   -0.0135   -7.5307 H   0  0  0  0  0  0  0  0  0  0  0  0
    2.8771   -0.6182   -7.8866 H   0  0  0  0  0  0  0  0  0  0  0  0
   -0.8772    5.8875   -7.4757 H   0  0  0  0  0  0  0  0  0  0  0  0
   -1.2557    5.1321   -6.2925 H   0  0  0  0  0  0  0  0  0  0  0  0
    0.4024    5.5629   -6.1887 H   0  0  0  0  0  0  0  0  0  0  0  0
   -3.9081    3.7818   -6.7209 H   0  0  0  0  0  0  0  0  0  0  0  0
   -3.4807    4.6615   -8.0399 H   0  0  0  0  0  0  0  0  0  0  0  0
   -3.9395    1.6605   -8.1961 H   0  0  0  0  0  0  0  0  0  0  0  0
   -5.1394    2.8723   -8.6779 H   0  0  0  0  0  0  0  0  0  0  0  0
   -3.6385    2.7594   -9.5732 H   0  0  0  0  0  0  0  0  0  0  0  0
    0.4187   -1.4572   -2.4442 H   0  0  0  0  0  0  0  0  0  0  0  0
   -0.1419   -0.4126   -1.2049 H   0  0  0  0  0  0  0  0  0  0  0  0
   -3.9132   -1.2866   -5.2412 H   0  0  0  0  0  0  0  0  0  0  0  0
   -1.9792    1.9546   -3.8222 H   0  0  0  0  0  0  0  0  0  0  0  0
   -5.9750   -0.8186   -6.4120 H   0  0  0  0  0  0  0  0  0  0  0  0
   -7.6159    0.7533   -7.4087 H   0  0  0  0  0  0  0  0  0  0  0  0
   -7.3939    3.2242   -7.0807 H   0  0  0  0  0  0  0  0  0  0  0  0
   -5.6725    4.0509   -5.5342 H   0  0  0  0  0  0  0  0  0  0  0  0
    1.8625    0.7280   -4.8477 H   0  0  0  0  0  0  0  0  0  0  0  0
    1.4445   -0.5002   -3.8596 H   0  0  0  0  0  0  0  0  0  0  0  0
    0.3352    0.6415   -4.5189 H   0  0  0  0  0  0  0  0  0  0  0  0
   -3.7447    4.8066   -4.5460 H   0  0  0  0  0  0  0  0  0  0  0  0
   -4.3088    4.2915   -2.9953 H   0  0  0  0  0  0  0  0  0  0  0  0
   -3.5271    5.8765   -3.1688 H   0  0  0  0  0  0  0  0  0  0  0  0
   -2.0049    2.4059   -1.0981 H   0  0  0  0  0  0  0  0  0  0  0  0
   -0.4926    1.6468   -1.0720 H   0  0  0  0  0  0  0  0  0  0  0  0
   -0.6614    3.0479   -0.0600 H   0  0  0  0  0  0  0  0  0  0  0  0
    0.8971   -2.0897    1.3913 H   0  0  0  0  0  0  0  0  0  0  0  0
   -0.8685   -2.1632   -1.0943 H   0  0  0  0  0  0  0  0  0  0  0  0
   -1.0510   -2.9922    0.3218 H   0  0  0  0  0  0  0  0  0  0  0  0
   -1.9948   -1.1653    1.5250 H   0  0  0  0  0  0  0  0  0  0  0  0
   -1.3808    0.6255   -0.3700 H   0  0  0  0  0  0  0  0  0  0  0  0
    2.8269   -2.3598   -0.2672 H   0  0  0  0  0  0  0  0  0  0  0  0
    1.5848   -3.6468   -0.4475 H   0  0  0  0  0  0  0  0  0  0  0  0
    1.7718   -2.3555   -1.5971 H   0  0  0  0  0  0  0  0  0  0  0  0
   -1.3417    1.9104    2.0103 H   0  0  0  0  0  0  0  0  0  0  0  0
   -3.5281    1.2810   -0.3154 H   0  0  0  0  0  0  0  0  0  0  0  0
   -4.9254    0.2819   -0.3903 H   0  0  0  0  0  0  0  0  0  0  0  0
   -4.0585    0.4253    1.1564 H   0  0  0  0  0  0  0  0  0  0  0  0
   -3.0810    0.1777   -2.0348 H   0  0  0  0  0  0  0  0  0  0  0  0
   -2.5201   -1.5585   -2.1825 H   0  0  0  0  0  0  0  0  0  0  0  0
   -4.1750   -1.0684   -2.1706 H   0  0  0  0  0  0  0  0  0  0  0  0
  1  2  1  0  0  0  0
  1 46  1  0  0  0  0
  1 50  1  0  0  0  0
  1 58  1  1  0  0  0
  3  6  1  0  0  0  0
  3 16  2  0  0  0  0
  4  5  1  0  0  0  0
  4 59  1  0  0  0  0
  4 60  1  0  0  0  0
  5  3  1  0  0  0  0
  5 61  1  1  0  0  0
  5 24  1  0  0  0  0
  6 18  1  0  0  0  0
  6 25  1  0  0  0  0
  6 62  1  1  0  0  0
  7  4  1  0  0  0  0
  7 43  1  0  0  0  0
  7 29  1  1  0  0  0
  8  9  1  0  0  0  0
  8 63  1  6  0  0  0
  8 45  1  0  0  0  0
  9  7  1  0  0  0  0
  9 64  1  6  0  0  0
  9  2  1  0  0  0  0
 10 11  1  0  0  0  0
 10 65  1  1  0  0  0
 10 27  1  0  0  0  0
 11 12  1  0  0  0  0
 12 13  1  0  0  0  0
 12 15  2  0  0  0  0
 13 14  1  0  0  0  0
 13 44  1  0  0  0  0
 13 66  1  1  0  0  0
 14  8  1  0  0  0  0
 14 23  2  0  0  0  0
 17 18  1  0  0  0  0
 17 21  1  0  0  0  0
 17 10  1  0  0  0  0
 17 26  1  6  0  0  0
 18 19  1  0  0  0  0
 18 67  1  6  0  0  0
 19 20  1  0  0  0  0
 19 68  1  0  0  0  0
 20 22  2  0  0  0  0
 21 20  1  0  0  0  0
 24 69  1  0  0  0  0
 24 70  1  0  0  0  0
 24 71  1  0  0  0  0
 25 72  1  0  0  0  0
 25 73  1  0  0  0  0
 25 74  1  0  0  0  0
 26 75  1  0  0  0  0
 26 76  1  0  0  0  0
 26 77  1  0  0  0  0
 27 28  1  0  0  0  0
 27 78  1  0  0  0  0
 27 79  1  0  0  0  0
 28 80  1  0  0  0  0
 28 81  1  0  0  0  0
 28 82  1  0  0  0  0
 29 30  1  0  0  0  0
 30 31  1  0  0  0  0
 30 83  1  0  0  0  0
 30 84  1  0  0  0  0
 31 32  2  3  0  0  0
 31 56  1  0  0  0  0
 32 33  1  0  0  0  0
 32 57  1  0  0  0  0
 33 34  2  0  0  0  0
 33 35  1  0  0  0  0
 34 85  1  0  0  0  0
 35 36  2  0  0  0  0
 35 86  1  0  0  0  0
 36 37  1  0  0  0  0
 37 38  2  0  0  0  0
 37 42  1  0  0  0  0
 38 34  1  0  0  0  0
 38 39  1  0  0  0  0
 39 40  2  0  0  0  0
 39 87  1  0  0  0  0
 40 41  1  0  0  0  0
 40 88  1  0  0  0  0
 41 42  2  0  0  0  0
 41 89  1  0  0  0  0
 42 90  1  0  0  0  0
 43 91  1  0  0  0  0
 43 92  1  0  0  0  0
 43 93  1  0  0  0  0
 44 94  1  0  0  0  0
 44 95  1  0  0  0  0
 44 96  1  0  0  0  0
 45 97  1  0  0  0  0
 45 98  1  0  0  0  0
 45 99  1  0  0  0  0
 46 47  1  0  0  0  0
 47 48  1  0  0  0  0
 47 51  1  0  0  0  0
 47100  1  1  0  0  0
 48 49  1  0  0  0  0
 48101  1  0  0  0  0
 48102  1  0  0  0  0
 49 50  1  0  0  0  0
 49 52  1  0  0  0  0
 49103  1  1  0  0  0
 50 53  1  0  0  0  0
 50104  1  6  0  0  0
 51105  1  0  0  0  0
 51106  1  0  0  0  0
 51107  1  0  0  0  0
 52 54  1  0  0  0  0
 52 55  1  0  0  0  0
 53108  1  0  0  0  0
 54109  1  0  0  0  0
 54110  1  0  0  0  0
 54111  1  0  0  0  0
 55112  1  0  0  0  0
 55113  1  0  0  0  0
 55114  1  0  0  0  0
M  END
>  <DRUGBANK_ID>
DB06419

>  <COMMON_NAME>
Cethromycin

>  <CAS_NUMBER>
205110-48-1

>  <UNII>
J0086219X6

>  <SYNONYMS>
Cethromycin; Céthromycine; Cethromycinum; Cetromicina

$$$$
