
 OpenBabel10282417123D

 19 18  0  0  0  0  0  0  0  0999 V2000
    1.0110   -0.0909    0.0930 C   0  0  0  0  0  0  0  0  0  0  0  0
    0.5234   -1.5180   -0.1179 C   0  0  0  0  0  0  0  0  0  0  0  0
    1.0173    1.9663    1.5982 C   0  0  0  0  0  0  0  0  0  0  0  0
    0.5260    0.5312    1.4070 C   0  0  0  0  0  0  0  0  0  0  0  0
    1.1448    2.9212   -0.5087 N   0  0  0  0  0  0  0  0  0  0  0  0
    0.4602    3.3508   -1.4356 O   0  0  0  0  0  0  0  0  0  0  0  0
    0.3981    2.8492    0.6665 O   0  0  0  0  0  0  0  0  0  0  0  0
    1.0326   -2.4655    0.9504 C   0  0  0  0  0  0  0  0  0  0  0  0
    0.6395    0.4855   -0.7587 H   0  0  0  0  0  0  0  0  0  0  0  0
    2.1070   -0.0603    0.0539 H   0  0  0  0  0  0  0  0  0  0  0  0
   -0.5722   -1.5318   -0.1432 H   0  0  0  0  0  0  0  0  0  0  0  0
    0.8692   -1.8614   -1.1006 H   0  0  0  0  0  0  0  0  0  0  0  0
    0.7071    2.2987    2.5960 H   0  0  0  0  0  0  0  0  0  0  0  0
    2.1144    2.0252    1.5763 H   0  0  0  0  0  0  0  0  0  0  0  0
   -0.5705    0.5128    1.4264 H   0  0  0  0  0  0  0  0  0  0  0  0
    0.8821   -0.0578    2.2586 H   0  0  0  0  0  0  0  0  0  0  0  0
    0.6558   -2.1908    1.9395 H   0  0  0  0  0  0  0  0  0  0  0  0
    0.6987   -3.4846    0.7420 H   0  0  0  0  0  0  0  0  0  0  0  0
    2.1265   -2.4546    0.9833 H   0  0  0  0  0  0  0  0  0  0  0  0
  1  9  1  0  0  0  0
  1 10  1  0  0  0  0
  2  1  1  0  0  0  0
  2  8  1  0  0  0  0
  2 11  1  0  0  0  0
  2 12  1  0  0  0  0
  3  7  1  0  0  0  0
  3 13  1  0  0  0  0
  3 14  1  0  0  0  0
  4  1  1  0  0  0  0
  4  3  1  0  0  0  0
  4 15  1  0  0  0  0
  4 16  1  0  0  0  0
  6  5  2  0  0  0  0
  7  5  1  0  0  0  0
  8 17  1  0  0  0  0
  8 18  1  0  0  0  0
  8 19  1  0  0  0  0
M  END
>  <DRUGBANK_ID>
DB01612

>  <COMMON_NAME>
Amyl Nitrite

>  <CAS_NUMBER>
8017-89-8

>  <UNII>
H2HUX79FYK

>  <SYNONYMS>
1-nitropentane; n-Amyl nitrite; n-pentyl nitrite; Nitramyl; pentyl nitrite

$$$$
