
 OpenBabel10282417123D

 75 79  0  0  1  0  0  0  0  0999 V2000
    0.4779   -0.1537    0.6386 C   0  0  0  0  0  0  0  0  0  0  0  0
    5.9438    4.9032    3.3683 C   0  0  0  0  0  0  0  0  0  0  0  0
    0.4105    0.6456    1.8649 C   0  0  0  0  0  0  0  0  0  0  0  0
    0.2968   -1.1435   -3.9616 C   0  0  0  0  0  0  0  0  0  0  0  0
    0.6584    1.2507   -3.7241 C   0  0  0  0  0  0  0  0  0  0  0  0
    4.0336    0.0745   -3.3846 C   0  0  0  0  0  0  0  0  0  0  0  0
    3.6331   -2.2929   -3.7680 C   0  0  0  0  0  0  0  0  0  0  0  0
   -0.2648   -0.9164   -5.2050 C   0  0  0  0  0  0  0  0  0  0  0  0
    0.1053    1.4775   -4.9616 C   0  0  0  0  0  0  0  0  0  0  0  0
    4.6715    0.2015   -4.5896 C   0  0  0  0  0  0  0  0  0  0  0  0
    4.3063   -2.1707   -4.9755 C   0  0  0  0  0  0  0  0  0  0  0  0
    4.9189    3.3619    1.2523 C   0  0  0  0  0  0  0  0  0  0  0  0
    4.4526    2.4242    0.3030 C   0  0  0  0  0  0  0  0  0  0  0  0
    4.7003    0.7789    3.0767 C   0  0  0  0  0  0  0  0  0  0  0  0
    6.8583    0.7402    1.8342 C   0  0  0  0  0  0  0  0  0  0  0  0
    4.2348   -0.4973    2.4124 C   0  0  0  0  0  0  0  0  0  0  0  0
    6.4112   -0.5485    1.0739 C   0  0  0  0  0  0  0  0  0  0  0  0
    6.6593    0.7659    4.4078 C   0  0  0  0  0  0  0  0  0  0  0  0
    6.4560   -0.7083    4.7807 C   0  0  0  0  0  0  0  0  0  0  0  0
    2.8123    3.2151    2.4277 C   0  0  0  0  0  0  0  0  0  0  0  0
    0.8277   -0.0618   -3.2621 C   0  0  0  0  0  0  0  0  0  0  0  0
    3.5303   -1.1674   -2.9560 C   0  0  0  0  0  0  0  0  0  0  0  0
   -0.3279    0.3873   -5.7072 C   0  0  0  0  0  0  0  0  0  0  0  0
    4.8335   -0.9327   -5.3662 C   0  0  0  0  0  0  0  0  0  0  0  0
    4.1198    3.7481    2.3359 C   0  0  0  0  0  0  0  0  0  0  0  0
    3.1795    1.8396    0.4400 C   0  0  0  0  0  0  0  0  0  0  0  0
    2.3051    2.2704    1.4838 C   0  0  0  0  0  0  0  0  0  0  0  0
    1.5080   -0.2783   -1.9561 C   0  0  1  0  0  0  0  0  0  0  0  0
    2.7038   -1.1981   -1.7099 C   0  0  2  0  0  0  0  0  0  0  0  0
    2.8568    0.7803   -0.5266 C   0  0  0  0  0  0  0  0  0  0  0  0
    4.3085   -1.3362    0.1340 C   0  0  0  0  0  0  0  0  0  0  0  0
   -1.0005    0.6876   -7.4405 Br  0  0  0  0  0  0  0  0  0  0  0  0
    5.8136   -0.7768   -6.9655 Br  0  0  0  0  0  0  0  0  0  0  0  0
    1.9018    1.0275   -1.3586 N   0  0  0  0  0  0  0  0  0  0  0  0
    6.1239    1.1005    3.0849 N   0  0  0  0  0  0  0  0  0  0  0  0
    4.9453   -0.6754    1.1356 N   0  0  0  0  0  0  0  0  0  0  0  0
    3.3878   -0.5590   -0.5906 N   0  0  0  0  0  0  0  0  0  0  0  0
    7.0183   -1.4800    3.7494 O   0  0  0  0  0  0  0  0  0  0  0  0
    4.5806   -2.5289   -0.1292 O   0  0  0  0  0  0  0  0  0  0  0  0
    4.5897    4.4369    3.4311 O   0  0  0  0  0  0  0  0  0  0  0  0
    0.9903    1.9534    1.7314 O   0  0  0  0  0  0  0  0  0  0  0  0
    0.6838   -0.7531   -1.4314 H   0  0  0  0  0  0  0  0  0  0  0  0
    2.3832   -2.2170   -1.4359 H   0  0  0  0  0  0  0  0  0  0  0  0
    0.1187    0.5115   -0.1547 H   0  0  0  0  0  0  0  0  0  0  0  0
   -0.0153   -1.1196    0.5540 H   0  0  0  0  0  0  0  0  0  0  0  0
    1.5131   -0.4410    0.6044 H   0  0  0  0  0  0  0  0  0  0  0  0
    6.6577    4.0964    3.5795 H   0  0  0  0  0  0  0  0  0  0  0  0
    6.1677    5.3707    2.4040 H   0  0  0  0  0  0  0  0  0  0  0  0
    6.0860    5.6754    4.1314 H   0  0  0  0  0  0  0  0  0  0  0  0
   -0.6649    0.7758    2.0129 H   0  0  0  0  0  0  0  0  0  0  0  0
    0.8420    0.0643    2.6789 H   0  0  0  0  0  0  0  0  0  0  0  0
    0.3332   -2.1472   -3.5426 H   0  0  0  0  0  0  0  0  0  0  0  0
    0.9794    2.1007   -3.1216 H   0  0  0  0  0  0  0  0  0  0  0  0
    3.8553    0.9848   -2.8189 H   0  0  0  0  0  0  0  0  0  0  0  0
    3.1684   -3.2363   -3.4828 H   0  0  0  0  0  0  0  0  0  0  0  0
   -0.6264   -1.7615   -5.7793 H   0  0  0  0  0  0  0  0  0  0  0  0
    0.0497    2.4983   -5.3209 H   0  0  0  0  0  0  0  0  0  0  0  0
    5.0116    1.1870   -4.8849 H   0  0  0  0  0  0  0  0  0  0  0  0
    4.4128   -3.0439   -5.6085 H   0  0  0  0  0  0  0  0  0  0  0  0
    5.9913    3.5488    1.2827 H   0  0  0  0  0  0  0  0  0  0  0  0
    5.1577    2.0009   -0.4125 H   0  0  0  0  0  0  0  0  0  0  0  0
    4.1623    1.0715    3.9893 H   0  0  0  0  0  0  0  0  0  0  0  0
    4.3300    1.4707    2.3943 H   0  0  0  0  0  0  0  0  0  0  0  0
    6.6849    1.5231    1.0904 H   0  0  0  0  0  0  0  0  0  0  0  0
    7.9410    0.8274    1.9699 H   0  0  0  0  0  0  0  0  0  0  0  0
    4.3398   -1.3631    3.0639 H   0  0  0  0  0  0  0  0  0  0  0  0
    3.1598   -0.4230    2.2135 H   0  0  0  0  0  0  0  0  0  0  0  0
    6.8864   -1.4712    1.4265 H   0  0  0  0  0  0  0  0  0  0  0  0
    6.7356   -0.5216    0.0252 H   0  0  0  0  0  0  0  0  0  0  0  0
    7.7082    1.0612    4.4437 H   0  0  0  0  0  0  0  0  0  0  0  0
    6.1283    1.3767    5.1538 H   0  0  0  0  0  0  0  0  0  0  0  0
    6.9132   -1.0255    5.7072 H   0  0  0  0  0  0  0  0  0  0  0  0
    5.3905   -0.9620    4.8240 H   0  0  0  0  0  0  0  0  0  0  0  0
    2.2441    3.3807    3.3445 H   0  0  0  0  0  0  0  0  0  0  0  0
    6.5113   -1.0856    3.0319 H   0  0  0  0  0  0  0  0  0  0  0  0
  1 44  1  0  0  0  0
  1 45  1  0  0  0  0
  1 46  1  0  0  0  0
  2 47  1  0  0  0  0
  2 48  1  0  0  0  0
  2 49  1  0  0  0  0
  3  1  1  0  0  0  0
  3 50  1  0  0  0  0
  3 51  1  0  0  0  0
  4 52  1  0  0  0  0
  5 53  1  0  0  0  0
  6 54  1  0  0  0  0
  7 55  1  0  0  0  0
  8  4  1  0  0  0  0
  8 56  1  0  0  0  0
  9  5  2  0  0  0  0
  9 57  1  0  0  0  0
 10  6  1  0  0  0  0
 10 58  1  0  0  0  0
 11  7  2  0  0  0  0
 11 59  1  0  0  0  0
 12 60  1  0  0  0  0
 13 12  2  0  0  0  0
 13 61  1  0  0  0  0
 14 62  1  0  0  0  0
 14 63  1  0  0  0  0
 15 64  1  0  0  0  0
 15 65  1  0  0  0  0
 16 14  1  0  0  0  0
 16 66  1  0  0  0  0
 16 67  1  0  0  0  0
 17 15  1  0  0  0  0
 17 68  1  0  0  0  0
 17 69  1  0  0  0  0
 18 70  1  0  0  0  0
 18 71  1  0  0  0  0
 19 18  1  0  0  0  0
 19 72  1  0  0  0  0
 19 73  1  0  0  0  0
 20 74  1  0  0  0  0
 21  4  2  0  0  0  0
 21  5  1  0  0  0  0
 22  6  2  0  0  0  0
 22  7  1  0  0  0  0
 23  8  2  0  0  0  0
 23  9  1  0  0  0  0
 24 10  2  0  0  0  0
 24 11  1  0  0  0  0
 25 12  1  0  0  0  0
 25 20  2  0  0  0  0
 26 13  1  0  0  0  0
 27 20  1  0  0  0  0
 27 26  2  0  0  0  0
 28 21  1  0  0  0  0
 28 42  1  1  0  0  0
 29 28  1  0  0  0  0
 29 43  1  1  0  0  0
 29 22  1  0  0  0  0
 30 26  1  0  0  0  0
 32 23  1  0  0  0  0
 33 24  1  0  0  0  0
 34 28  1  0  0  0  0
 34 30  2  0  0  0  0
 35 14  1  0  0  0  0
 35 15  1  0  0  0  0
 35 18  1  0  0  0  0
 36 16  1  0  0  0  0
 36 17  1  0  0  0  0
 36 31  1  0  0  0  0
 37 29  1  0  0  0  0
 37 30  1  0  0  0  0
 37 31  1  0  0  0  0
 38 19  1  0  0  0  0
 38 75  1  0  0  0  0
 39 31  2  0  0  0  0
 40  2  1  0  0  0  0
 40 25  1  0  0  0  0
 41  3  1  0  0  0  0
 41 27  1  0  0  0  0
M  END
>  <DRUGBANK_ID>
DB02872

>  <SECONDARY_ACCESSION_NUMBERS>
EXPT01878

>  <COMMON_NAME>
Cis-[4,5-Bis-(4-Bromophenyl)-2-(2-Ethoxy-4-Methoxyphenyl)-4,5-Dihydroimidazol-1-Yl]-[4-(2-Hydroxyethyl)Piperazin-1-Yl]Methanone

$$$$
