
 OpenBabel10282417183D

 32 34  0  0  0  0  0  0  0  0999 V2000
    0.6365    0.1581    0.2626 O   0  0  0  0  0  0  0  0  0  0  0  0
    2.8757   -2.2200    1.1765 N   0  0  0  0  0  0  0  0  0  0  0  0
    3.1947   -0.3721    2.4799 N   0  0  0  0  0  0  0  0  0  0  0  0
    2.1871    0.0148   -2.8292 C   0  0  0  0  0  0  0  0  0  0  0  0
    2.6455   -1.3981   -2.5406 C   0  0  0  0  0  0  0  0  0  0  0  0
    3.5125   -0.2190   -2.1412 C   0  0  0  0  0  0  0  0  0  0  0  0
    0.8239    0.5794   -2.2687 C   0  0  0  0  0  0  0  0  0  0  0  0
    0.2456    0.6847   -0.9599 C   0  0  0  0  0  0  0  0  0  0  0  0
   -0.0047    1.1223   -3.2987 C   0  0  0  0  0  0  0  0  0  0  0  0
   -0.9618    1.3866   -0.7428 C   0  0  0  0  0  0  0  0  0  0  0  0
   -1.1955    1.8272   -3.0679 C   0  0  0  0  0  0  0  0  0  0  0  0
    2.0046   -0.0224    0.3466 C   0  0  0  0  0  0  0  0  0  0  0  0
   -1.6682    1.9729   -1.7793 C   0  0  0  0  0  0  0  0  0  0  0  0
    2.7010   -0.8715    1.3659 C   0  0  0  0  0  0  0  0  0  0  0  0
    3.0107   -2.7865    2.4821 C   0  0  0  0  0  0  0  0  0  0  0  0
    3.6801   -1.5957    3.1840 C   0  0  0  0  0  0  0  0  0  0  0  0
    2.3980   -2.7221    0.4320 H   0  0  0  0  0  0  0  0  0  0  0  0
    2.3710    0.3572   -3.8505 H   0  0  0  0  0  0  0  0  0  0  0  0
    2.0451   -1.9819   -1.8509 H   0  0  0  0  0  0  0  0  0  0  0  0
    3.0377   -2.0249   -3.3325 H   0  0  0  0  0  0  0  0  0  0  0  0
    4.4542   -0.0970   -2.6685 H   0  0  0  0  0  0  0  0  0  0  0  0
    3.7259    0.0984   -1.1338 H   0  0  0  0  0  0  0  0  0  0  0  0
    0.2936    1.0008   -4.3414 H   0  0  0  0  0  0  0  0  0  0  0  0
   -1.3332    1.4882    0.2764 H   0  0  0  0  0  0  0  0  0  0  0  0
   -1.7384    2.2732   -3.8972 H   0  0  0  0  0  0  0  0  0  0  0  0
    2.1630   -0.6906   -0.4608 H   0  0  0  0  0  0  0  0  0  0  0  0
    2.5172    0.9402    0.2602 H   0  0  0  0  0  0  0  0  0  0  0  0
   -2.5840    2.5181   -1.5737 H   0  0  0  0  0  0  0  0  0  0  0  0
    3.5947   -3.7058    2.5034 H   0  0  0  0  0  0  0  0  0  0  0  0
    2.0097   -2.9638    2.8913 H   0  0  0  0  0  0  0  0  0  0  0  0
    3.3884   -1.5286    4.2318 H   0  0  0  0  0  0  0  0  0  0  0  0
    4.7723   -1.6577    3.1010 H   0  0  0  0  0  0  0  0  0  0  0  0
  1  8  1  0  0  0  0
  1 12  1  0  0  0  0
  2 14  1  0  0  0  0
  2 15  1  0  0  0  0
  2 17  1  0  0  0  0
  3 14  2  0  0  0  0
  3 16  1  0  0  0  0
  4  5  1  0  0  0  0
  4  6  1  0  0  0  0
  4  7  1  0  0  0  0
  4 18  1  0  0  0  0
  5  6  1  0  0  0  0
  5 19  1  0  0  0  0
  5 20  1  0  0  0  0
  6 21  1  0  0  0  0
  6 22  1  0  0  0  0
  7  8  1  0  0  0  0
  7  9  2  0  0  0  0
  8 10  2  0  0  0  0
  9 11  1  0  0  0  0
  9 23  1  0  0  0  0
 10 13  1  0  0  0  0
 10 24  1  0  0  0  0
 11 13  2  0  0  0  0
 11 25  1  0  0  0  0
 12 14  1  0  0  0  0
 12 26  1  0  0  0  0
 12 27  1  0  0  0  0
 13 28  1  0  0  0  0
 15 16  1  0  0  0  0
 15 29  1  0  0  0  0
 15 30  1  0  0  0  0
 16 31  1  0  0  0  0
 16 32  1  0  0  0  0
M  END
>  <DRUGBANK_ID>
DB09202

>  <COMMON_NAME>
Cirazoline

>  <CAS_NUMBER>
59939-16-1

>  <UNII>
QK318GVY3Y

>  <SYNONYMS>
Cirazoline

$$$$
