7X2
 OpenBabel10282417163D

 49 52  0  0  0  0  0  0  0  0999 V2000
    1.1484    0.0541   -0.0601 C   0  0  0  0  0  0  0  0  0  0  0  0
    0.7396   -1.3057    0.0447 O   0  0  0  0  0  0  0  0  0  0  0  0
    0.9251   -2.0429   -1.1005 C   0  0  0  0  0  0  0  0  0  0  0  0
    2.2361   -2.2110   -1.5754 C   0  0  0  0  0  0  0  0  0  0  0  0
    2.5088   -3.1004   -2.6072 C   0  0  0  0  0  0  0  0  0  0  0  0
    3.8256   -3.3779   -3.0022 N   0  0  0  0  0  0  0  0  0  0  0  0
    4.2201   -4.1180   -4.1016 C   0  0  0  0  0  0  0  0  0  0  0  0
    5.1614   -5.0626   -3.9719 N   0  0  0  0  0  0  0  0  0  0  0  0
    5.4093   -5.8098   -5.0596 C   0  0  0  0  0  0  0  0  0  0  0  0
    4.8334   -5.5841   -6.2930 C   0  0  0  0  0  0  0  0  0  0  0  0
    3.9391   -4.5337   -6.3479 C   0  0  0  0  0  0  0  0  0  0  0  0
    3.4360   -4.0732   -7.5758 N   0  0  0  0  0  0  0  0  0  0  0  0
    2.4177   -3.0834   -7.6935 C   0  0  0  0  0  0  0  0  0  0  0  0
    2.5811   -1.7419   -7.3419 C   0  0  0  0  0  0  0  0  0  0  0  0
    3.6365   -1.1389   -6.7077 O   0  0  0  0  0  0  0  0  0  0  0  0
    3.4292    0.2318   -7.1018 C   0  0  0  0  0  0  0  0  0  0  0  0
    2.0761    0.4869   -7.5149 O   0  0  0  0  0  0  0  0  0  0  0  0
    1.6490   -0.7907   -7.7204 C   0  0  0  0  0  0  0  0  0  0  0  0
    0.4546   -1.1114   -8.3251 C   0  0  0  0  0  0  0  0  0  0  0  0
    0.2015   -2.4560   -8.5739 C   0  0  0  0  0  0  0  0  0  0  0  0
    1.1601   -3.4292   -8.2405 C   0  0  0  0  0  0  0  0  0  0  0  0
    0.7384   -5.0900   -8.5012 Cl  0  0  0  0  0  0  0  0  0  0  0  0
    3.5993   -3.8645   -5.2575 N   0  0  0  0  0  0  0  0  0  0  0  0
    1.4387   -3.8185   -3.1555 C   0  0  0  0  0  0  0  0  0  0  0  0
    0.1387   -3.7323   -2.6548 C   0  0  0  0  0  0  0  0  0  0  0  0
   -0.8615   -4.5842   -3.0788 O   0  0  0  0  0  0  0  0  0  0  0  0
   -0.4641   -5.6544   -3.9463 C   0  0  0  0  0  0  0  0  0  0  0  0
   -0.1455   -2.7840   -1.6507 C   0  0  0  0  0  0  0  0  0  0  0  0
   -1.4714   -2.6729   -1.2964 O   0  0  0  0  0  0  0  0  0  0  0  0
   -1.8398   -1.6119   -0.4231 C   0  0  0  0  0  0  0  0  0  0  0  0
    0.7444    0.5777    0.8128 H   0  0  0  0  0  0  0  0  0  0  0  0
    0.7391    0.5316   -0.9565 H   0  0  0  0  0  0  0  0  0  0  0  0
    2.2367    0.1448   -0.0273 H   0  0  0  0  0  0  0  0  0  0  0  0
    3.0554   -1.6839   -1.0981 H   0  0  0  0  0  0  0  0  0  0  0  0
    4.5960   -2.9166   -2.5468 H   0  0  0  0  0  0  0  0  0  0  0  0
    6.1250   -6.6155   -4.9147 H   0  0  0  0  0  0  0  0  0  0  0  0
    5.0967   -6.1839   -7.1503 H   0  0  0  0  0  0  0  0  0  0  0  0
    3.2617   -4.8414   -8.2143 H   0  0  0  0  0  0  0  0  0  0  0  0
    4.1079    0.4152   -7.9445 H   0  0  0  0  0  0  0  0  0  0  0  0
    3.6827    0.9461   -6.3084 H   0  0  0  0  0  0  0  0  0  0  0  0
   -0.2563   -0.3387   -8.5918 H   0  0  0  0  0  0  0  0  0  0  0  0
   -0.7301   -2.7443   -9.0531 H   0  0  0  0  0  0  0  0  0  0  0  0
    1.6501   -4.5029   -3.9668 H   0  0  0  0  0  0  0  0  0  0  0  0
   -0.1841   -5.2631   -4.9312 H   0  0  0  0  0  0  0  0  0  0  0  0
    0.3525   -6.2566   -3.5233 H   0  0  0  0  0  0  0  0  0  0  0  0
   -1.3133   -6.3287   -4.0903 H   0  0  0  0  0  0  0  0  0  0  0  0
   -1.4909   -1.8185    0.5934 H   0  0  0  0  0  0  0  0  0  0  0  0
   -1.4927   -0.6375   -0.7866 H   0  0  0  0  0  0  0  0  0  0  0  0
   -2.9309   -1.5557   -0.3782 H   0  0  0  0  0  0  0  0  0  0  0  0
  1  2  1  0  0  0  0
  1 31  1  0  0  0  0
  1 32  1  0  0  0  0
  1 33  1  0  0  0  0
  2  3  1  0  0  0  0
  3  4  1  0  0  0  0
  3 28  2  0  0  0  0
  4  5  2  0  0  0  0
  4 34  1  0  0  0  0
  5  6  1  0  0  0  0
  5 24  1  0  0  0  0
  6  7  1  0  0  0  0
  6 35  1  0  0  0  0
  7  8  1  0  0  0  0
  7 23  2  0  0  0  0
  8  9  2  0  0  0  0
  9 10  1  0  0  0  0
  9 36  1  0  0  0  0
 10 11  2  0  0  0  0
 10 37  1  0  0  0  0
 11 12  1  0  0  0  0
 11 23  1  0  0  0  0
 12 13  1  0  0  0  0
 12 38  1  0  0  0  0
 13 14  1  0  0  0  0
 13 21  2  0  0  0  0
 14 15  1  0  0  0  0
 14 18  2  0  0  0  0
 15 16  1  0  0  0  0
 16 17  1  0  0  0  0
 16 39  1  0  0  0  0
 16 40  1  0  0  0  0
 17 18  1  0  0  0  0
 18 19  1  0  0  0  0
 19 20  2  0  0  0  0
 19 41  1  0  0  0  0
 20 21  1  0  0  0  0
 20 42  1  0  0  0  0
 21 22  1  0  0  0  0
 24 25  2  0  0  0  0
 24 43  1  0  0  0  0
 25 26  1  0  0  0  0
 25 28  1  0  0  0  0
 26 27  1  0  0  0  0
 27 44  1  0  0  0  0
 27 45  1  0  0  0  0
 27 46  1  0  0  0  0
 28 29  1  0  0  0  0
 29 30  1  0  0  0  0
 30 47  1  0  0  0  0
 30 48  1  0  0  0  0
 30 49  1  0  0  0  0
M  END
>  <DRUGBANK_ID>
DB07250

>  <COMMON_NAME>
N'-(5-CHLORO-1,3-BENZODIOXOL-4-YL)-N-(3,4,5- TRIMETHOXYPHENYL)PYRIMIDINE-2,4-DIAMINE

$$$$
