
 OpenBabel10282417133D

 23 22  0  0  1  0  0  0  0  0999 V2000
    0.9142   -0.0161   -0.0487 C   0  0  0  0  0  0  0  0  0  0  0  0
    0.9142   -1.0556   -3.0586 C   0  0  0  0  0  0  0  0  0  0  0  0
    0.4075    2.6533   -4.2186 C   0  0  0  0  0  0  0  0  0  0  0  0
    0.9142    1.5709   -5.1578 C   0  0  1  0  0  0  0  0  0  0  0  0
    0.4075    0.2163   -4.6899 C   0  0  0  0  0  0  0  0  0  0  0  0
    0.2642    0.3330   -1.8537 As  0  0  0  0  0  0  0  0  0  0  0  0
    0.4241    1.8341   -6.5185 N   0  0  0  0  0  0  0  0  0  0  0  0
   -0.3232   -0.4877   -5.4552 O   0  0  0  0  0  0  0  0  0  0  0  0
    0.7505   -0.2625   -3.3979 O   0  0  0  0  0  0  0  0  0  0  0  0
   -1.3916    0.3330   -1.8537 O   0  0  0  0  0  0  0  0  0  0  0  0
    1.0108    2.3292   -2.5431 S   0  0  0  0  0  0  0  0  0  0  0  0
    1.9842    1.5709   -5.1578 H   0  0  0  0  0  0  0  0  0  0  0  0
    0.5575   -0.9696    0.2806 H   0  0  0  0  0  0  0  0  0  0  0  0
    0.5575    0.7459    0.6124 H   0  0  0  0  0  0  0  0  0  0  0  0
    1.9842   -0.0161   -0.0487 H   0  0  0  0  0  0  0  0  0  0  0  0
    0.5575   -2.0091   -2.7293 H   0  0  0  0  0  0  0  0  0  0  0  0
    0.5575   -0.8640   -4.0491 H   0  0  0  0  0  0  0  0  0  0  0  0
    1.9842   -1.0556   -3.0586 H   0  0  0  0  0  0  0  0  0  0  0  0
   -0.6625    2.6533   -4.2186 H   0  0  0  0  0  0  0  0  0  0  0  0
    0.7642    3.6068   -4.5479 H   0  0  0  0  0  0  0  0  0  0  0  0
    0.7641    1.1077   -7.1487 H   0  0  0  0  0  0  0  0  0  0  0  0
   -0.5959    1.8341   -6.5185 H   0  0  0  0  0  0  0  0  0  0  0  0
    0.4172   -1.1536   -3.0901 H   0  0  0  0  0  0  0  0  0  0  0  0
  1 13  1  0  0  0  0
  1 14  1  0  0  0  0
  1 15  1  0  0  0  0
  2 16  1  0  0  0  0
  2 17  1  0  0  0  0
  2 18  1  0  0  0  0
  3 19  1  0  0  0  0
  3 20  1  0  0  0  0
  4  3  1  0  0  0  0
  4  7  1  0  0  0  0
  4 12  1  6  0  0  0
  5  4  1  0  0  0  0
  6  1  1  0  0  0  0
  6  2  1  0  0  0  0
  7 21  1  0  0  0  0
  7 22  1  0  0  0  0
  8  5  2  0  0  0  0
  9  5  1  0  0  0  0
  9 23  1  0  0  0  0
 10  6  2  0  0  0  0
 11  3  1  0  0  0  0
 11  6  1  0  0  0  0
M  END
>  <DRUGBANK_ID>
DB03676

>  <SECONDARY_ACCESSION_NUMBERS>
EXPT00825

>  <COMMON_NAME>
Cystein-S-Yl Cacodylate

$$$$
