ODE
 OpenBabel10282417173D

 55 58  0  0  0  0  0  0  0  0999 V2000
   -1.0308   -1.2922    0.1341 C   0  0  0  0  0  0  0  0  0  0  0  0
    0.3452   -1.2773    0.0450 C   0  0  0  0  0  0  0  0  0  0  0  0
    1.0218   -0.0529    0.0245 C   0  0  0  0  0  0  0  0  0  0  0  0
    2.3792   -0.0031   -0.0307 O   0  0  0  0  0  0  0  0  0  0  0  0
    0.3564    1.1605    0.0517 C   0  0  0  0  0  0  0  0  0  0  0  0
   -1.0130    1.1443    0.1447 C   0  0  0  0  0  0  0  0  0  0  0  0
   -1.6884   -0.0807    0.2283 C   0  0  0  0  0  0  0  0  0  0  0  0
   -3.1057   -0.1248    0.1695 C   0  0  0  0  0  0  0  0  0  0  0  0
   -4.0463   -0.5051    1.2674 C   0  0  2  0  0  0  0  0  0  0  0  0
   -5.1551   -0.9986    0.5059 O   0  0  0  0  0  0  0  0  0  0  0  0
   -4.7772    0.7120    1.8659 C   0  0  1  0  0  0  0  0  0  0  0  0
   -3.8505    1.7087    2.4662 C   0  0  0  0  0  0  0  0  0  0  0  0
   -3.0327    2.3441    1.7710 O   0  0  0  0  0  0  0  0  0  0  0  0
   -3.9212    1.9423    3.7821 O   0  0  0  0  0  0  0  0  0  0  0  0
   -4.9080    1.3175    4.6126 C   0  0  0  0  0  0  0  0  0  0  0  0
   -6.3219    1.7831    4.2849 C   0  0  0  0  0  0  0  0  0  0  0  0
   -5.6681    1.2773    0.7098 C   0  0  1  0  0  0  0  0  0  0  0  0
   -5.6161    2.7688    0.3273 C   0  0  0  0  0  0  0  0  0  0  0  0
   -5.4060    3.6110    1.2044 O   0  0  0  0  0  0  0  0  0  0  0  0
   -6.0264    3.2211   -0.8993 O   0  0  0  0  0  0  0  0  0  0  0  0
   -6.3965    2.5763   -2.1997 C   0  0  0  0  0  0  0  0  0  0  0  0
   -5.5670    1.4234   -2.5305 C   0  0  0  0  0  0  0  0  0  0  0  0
   -5.2989    0.2075   -0.3101 C   0  0  1  0  0  0  0  0  0  0  0  0
   -3.7551    0.3559   -0.8869 C   0  0  0  0  0  0  0  0  0  0  0  0
   -2.9789    1.2399   -2.0898 C   0  0  0  0  0  0  0  0  0  0  0  0
   -3.1436    2.6838   -2.3288 C   0  0  0  0  0  0  0  0  0  0  0  0
   -2.9427    3.3153   -3.5827 C   0  0  0  0  0  0  0  0  0  0  0  0
   -2.2686    2.6137   -4.5513 C   0  0  0  0  0  0  0  0  0  0  0  0
   -1.8847    3.2290   -5.7083 O   0  0  0  0  0  0  0  0  0  0  0  0
   -1.9535    1.2671   -4.3325 C   0  0  0  0  0  0  0  0  0  0  0  0
   -2.3526    0.5681   -3.1506 C   0  0  0  0  0  0  0  0  0  0  0  0
   -3.7457   -1.2976    1.9548 H   0  0  0  0  0  0  0  0  0  0  0  0
   -5.4554    0.2384    2.5781 H   0  0  0  0  0  0  0  0  0  0  0  0
   -6.7218    1.1651    1.0227 H   0  0  0  0  0  0  0  0  0  0  0  0
   -6.2114   -0.0832   -0.8321 H   0  0  0  0  0  0  0  0  0  0  0  0
   -1.6016   -2.2160    0.0716 H   0  0  0  0  0  0  0  0  0  0  0  0
    0.8589   -2.2262   -0.0188 H   0  0  0  0  0  0  0  0  0  0  0  0
    2.7011   -0.9163   -0.0249 H   0  0  0  0  0  0  0  0  0  0  0  0
    0.8782    2.1082   -0.0095 H   0  0  0  0  0  0  0  0  0  0  0  0
   -1.5504    2.0906    0.0847 H   0  0  0  0  0  0  0  0  0  0  0  0
   -4.7832    0.2293    4.5673 H   0  0  0  0  0  0  0  0  0  0  0  0
   -4.6652    1.6194    5.6336 H   0  0  0  0  0  0  0  0  0  0  0  0
   -6.6534    1.5619    3.2695 H   0  0  0  0  0  0  0  0  0  0  0  0
   -7.0386    1.2983    4.9485 H   0  0  0  0  0  0  0  0  0  0  0  0
   -6.3934    2.8700    4.3571 H   0  0  0  0  0  0  0  0  0  0  0  0
   -7.4032    2.2046   -2.1218 H   0  0  0  0  0  0  0  0  0  0  0  0
   -6.1705    3.2836   -2.9983 H   0  0  0  0  0  0  0  0  0  0  0  0
   -6.0212    0.4646   -2.3896 H   0  0  0  0  0  0  0  0  0  0  0  0
   -5.0036    1.2531   -3.4422 H   0  0  0  0  0  0  0  0  0  0  0  0
   -4.9206    1.6876   -1.7368 H   0  0  0  0  0  0  0  0  0  0  0  0
   -3.6522    3.3376   -1.6207 H   0  0  0  0  0  0  0  0  0  0  0  0
   -3.3565    4.3084   -3.7892 H   0  0  0  0  0  0  0  0  0  0  0  0
   -2.0454    4.1870   -5.6206 H   0  0  0  0  0  0  0  0  0  0  0  0
   -1.4138    0.7392   -5.1145 H   0  0  0  0  0  0  0  0  0  0  0  0
   -2.2228   -0.5101   -3.1132 H   0  0  0  0  0  0  0  0  0  0  0  0
  1  7  2  0  0  0  0
  1  2  1  0  0  0  0
  1 36  1  0  0  0  0
  2  3  2  0  0  0  0
  2 37  1  0  0  0  0
  3  5  1  0  0  0  0
  3  4  1  0  0  0  0
  4 38  1  0  0  0  0
  5  6  2  0  0  0  0
  5 39  1  0  0  0  0
  6  7  1  0  0  0  0
  6 40  1  0  0  0  0
  7  8  1  0  0  0  0
  8  9  1  0  0  0  0
  8 24  2  0  0  0  0
  9 10  1  0  0  0  0
  9 11  1  0  0  0  0
  9 32  1  1  0  0  0
 10 23  1  0  0  0  0
 11 17  1  0  0  0  0
 11 12  1  0  0  0  0
 11 33  1  1  0  0  0
 12 14  1  0  0  0  0
 12 13  2  0  0  0  0
 14 15  1  0  0  0  0
 15 16  1  0  0  0  0
 15 41  1  0  0  0  0
 15 42  1  0  0  0  0
 16 43  1  0  0  0  0
 16 44  1  0  0  0  0
 16 45  1  0  0  0  0
 17 23  1  0  0  0  0
 17 34  1  1  0  0  0
 17 18  1  0  0  0  0
 18 20  1  0  0  0  0
 18 19  2  0  0  0  0
 20 21  1  0  0  0  0
 21 22  1  0  0  0  0
 21 46  1  0  0  0  0
 21 47  1  0  0  0  0
 22 48  1  0  0  0  0
 22 49  1  0  0  0  0
 22 50  1  0  0  0  0
 23 24  1  0  0  0  0
 23 35  1  6  0  0  0
 24 25  1  0  0  0  0
 25 31  2  0  0  0  0
 25 26  1  0  0  0  0
 26 27  2  0  0  0  0
 26 51  1  0  0  0  0
 27 28  1  0  0  0  0
 27 52  1  0  0  0  0
 28 30  2  0  0  0  0
 28 29  1  0  0  0  0
 29 53  1  0  0  0  0
 30 31  1  0  0  0  0
 30 54  1  0  0  0  0
 31 55  1  0  0  0  0
M  END
>  <DRUGBANK_ID>
DB08320

>  <COMMON_NAME>
DIETHYL (1R,2S,3R,4S)-5,6-BIS(4-HYDROXYPHENYL)-7-OXABICYCLO[2.2.1]HEPT-5-ENE-2,3-DICARBOXYLATE

$$$$
