72145
 OpenBabel10282417203D

 68 72  0  0  1  0  0  0  0  0999 V2000
   -2.1774   -0.0590    0.5134 O   0  0  0  0  0  0  0  0  0  0  0  0
   -2.9797   -4.4074    2.2935 O   0  0  0  0  0  0  0  0  0  0  0  0
   -1.2045   -6.6288    2.9158 O   0  0  0  0  0  0  0  0  0  0  0  0
    1.1830   -6.4345    2.7239 O   0  0  0  0  0  0  0  0  0  0  0  0
    1.0229   -2.6116   -0.8715 O   0  0  0  0  0  0  0  0  0  0  0  0
    3.4220   -1.2248   -0.3497 O   0  0  0  0  0  0  0  0  0  0  0  0
   -2.0339    2.2387    0.3036 O   0  0  0  0  0  0  0  0  0  0  0  0
    3.1764    1.7054    0.4373 O   0  0  0  0  0  0  0  0  0  0  0  0
    0.2979   -1.5163    3.6201 N   0  0  0  0  0  0  0  0  0  0  0  0
    0.8962    2.9031    0.2147 N   0  0  0  0  0  0  0  0  0  0  0  0
   -0.9905   -1.6640    2.3488 C   0  0  3  0  0  0  0  0  0  0  0  0
   -1.2278   -1.1593    0.5576 C   0  0  3  0  0  0  0  0  0  0  0  0
   -0.8630   -3.0931    2.0224 C   0  0  0  0  0  0  0  0  0  0  0  0
    1.4121   -0.7357    3.1369 C   0  0  0  0  0  0  0  0  0  0  0  0
    0.5048   -3.0832    1.6740 C   0  0  0  0  0  0  0  0  0  0  0  0
    1.3153   -1.5688    1.8670 C   0  0  0  0  0  0  0  0  0  0  0  0
   -0.1307   -0.6117   -0.4126 C   0  0  0  0  0  0  0  0  0  0  0  0
   -1.6275   -4.2622    2.2007 C   0  0  0  0  0  0  0  0  0  0  0  0
   -0.2043    0.7671   -0.2835 C   0  0  0  0  0  0  0  0  0  0  0  0
    1.3415   -2.6595    4.1319 C   0  0  0  0  0  0  0  0  0  0  0  0
    1.1736   -4.2976    1.7090 C   0  0  0  0  0  0  0  0  0  0  0  0
    1.0951   -1.2301   -0.7735 C   0  0  0  0  0  0  0  0  0  0  0  0
   -0.8540   -5.4072    2.3984 C   0  0  0  0  0  0  0  0  0  0  0  0
   -1.5382    1.0896    0.1916 C   0  0  0  0  0  0  0  0  0  0  0  0
    0.5054   -5.3826    2.1985 C   0  0  0  0  0  0  0  0  0  0  0  0
    0.9508    1.5638   -0.2268 C   0  0  0  0  0  0  0  0  0  0  0  0
    2.3091   -0.4575   -0.6056 C   0  0  0  0  0  0  0  0  0  0  0  0
    2.2219    0.9095   -0.2086 C   0  0  0  0  0  0  0  0  0  0  0  0
    0.0942   -7.1396    3.3238 C   0  0  0  0  0  0  0  0  0  0  0  0
   -3.8127   -3.3420    1.8448 C   0  0  0  0  0  0  0  0  0  0  0  0
    2.1902   -3.4284   -0.6582 C   0  0  0  0  0  0  0  0  0  0  0  0
    4.6980   -1.0912   -0.9443 C   0  0  0  0  0  0  0  0  0  0  0  0
    4.5219    1.2997    0.6160 C   0  0  0  0  0  0  0  0  0  0  0  0
    3.0081   -3.4357   -1.8911 C   0  0  0  0  0  0  0  0  0  0  0  0
    4.7508   -0.1964   -2.1655 C   0  0  0  0  0  0  0  0  0  0  0  0
    4.7887    0.3175    1.7675 C   0  0  0  0  0  0  0  0  0  0  0  0
    0.0402    3.4038   -0.0127 H   0  0  0  0  0  0  0  0  0  0  0  0
    1.7548    3.4001   -0.0197 H   0  0  0  0  0  0  0  0  0  0  0  0
   -1.8636   -1.2534    2.8589 H   0  0  0  0  0  0  0  0  0  0  0  0
   -1.7136   -1.9884    0.0021 H   0  0  0  0  0  0  0  0  0  0  0  0
    1.7523    0.2100    2.6551 H   0  0  0  0  0  0  0  0  0  0  0  0
    0.9541    0.0258    3.7845 H   0  0  0  0  0  0  0  0  0  0  0  0
    2.2909   -1.6823    1.4605 H   0  0  0  0  0  0  0  0  0  0  0  0
    0.7588   -0.7863    1.3921 H   0  0  0  0  0  0  0  0  0  0  0  0
    1.1109   -3.1780    5.0490 H   0  0  0  0  0  0  0  0  0  0  0  0
    1.5125   -3.4543    3.4633 H   0  0  0  0  0  0  0  0  0  0  0  0
    2.4587   -2.4162    4.0829 H   0  0  0  0  0  0  0  0  0  0  0  0
    2.2528   -4.3272    1.7335 H   0  0  0  0  0  0  0  0  0  0  0  0
    0.2236   -8.1882    3.0406 H   0  0  0  0  0  0  0  0  0  0  0  0
    0.1791   -7.0585    4.4172 H   0  0  0  0  0  0  0  0  0  0  0  0
   -3.7604   -2.5121    2.5504 H   0  0  0  0  0  0  0  0  0  0  0  0
   -3.5814   -3.0142    0.8255 H   0  0  0  0  0  0  0  0  0  0  0  0
   -4.8540   -3.6922    1.8306 H   0  0  0  0  0  0  0  0  0  0  0  0
    2.7878   -3.1602    0.2264 H   0  0  0  0  0  0  0  0  0  0  0  0
    1.8928   -4.4715   -0.4837 H   0  0  0  0  0  0  0  0  0  0  0  0
    5.3456   -0.7361   -0.1617 H   0  0  0  0  0  0  0  0  0  0  0  0
    5.2098   -2.0544   -1.0501 H   0  0  0  0  0  0  0  0  0  0  0  0
    4.8006    0.9672   -0.3478 H   0  0  0  0  0  0  0  0  0  0  0  0
    5.2464    2.1230    0.6401 H   0  0  0  0  0  0  0  0  0  0  0  0
    3.1704   -2.4241   -2.2387 H   0  0  0  0  0  0  0  0  0  0  0  0
    3.9586   -3.9333   -1.6957 H   0  0  0  0  0  0  0  0  0  0  0  0
    2.4136   -3.9010   -2.6652 H   0  0  0  0  0  0  0  0  0  0  0  0
    3.9550    0.5579   -2.1857 H   0  0  0  0  0  0  0  0  0  0  0  0
    5.6980    0.3500   -2.1481 H   0  0  0  0  0  0  0  0  0  0  0  0
    4.6583   -0.7683   -3.0819 H   0  0  0  0  0  0  0  0  0  0  0  0
    4.0352   -0.4687    1.8442 H   0  0  0  0  0  0  0  0  0  0  0  0
    5.7568   -0.1952    1.6584 H   0  0  0  0  0  0  0  0  0  0  0  0
    4.8161    0.8228    2.7304 H   0  0  0  0  0  0  0  0  0  0  0  0
  1 12  1  0  0  0  0
  1 24  1  0  0  0  0
  2 18  1  0  0  0  0
  2 30  1  0  0  0  0
  3 23  1  0  0  0  0
  3 29  1  0  0  0  0
  4 25  1  0  0  0  0
  4 29  1  0  0  0  0
  5 22  1  0  0  0  0
  5 31  1  0  0  0  0
  6 27  1  0  0  0  0
  6 32  1  0  0  0  0
  7 24  2  0  0  0  0
  8 28  1  0  0  0  0
  8 33  1  0  0  0  0
  9 11  1  0  0  0  0
  9 14  1  0  0  0  0
  9 20  1  0  0  0  0
 10 26  1  0  0  0  0
 10 37  1  0  0  0  0
 10 38  1  0  0  0  0
 11 12  1  0  0  0  0
 11 13  1  0  0  0  0
 11 39  1  0  0  0  0
 12 17  1  0  0  0  0
 12 40  1  0  0  0  0
 13 15  1  0  0  0  0
 13 18  2  0  0  0  0
 14 16  1  0  0  0  0
 14 41  1  0  0  0  0
 14 42  1  0  0  0  0
 15 16  1  0  0  0  0
 15 21  2  0  0  0  0
 16 43  1  0  0  0  0
 16 44  1  0  0  0  0
 17 19  2  0  0  0  0
 17 22  1  0  0  0  0
 18 23  1  0  0  0  0
 19 24  1  0  0  0  0
 19 26  1  0  0  0  0
 20 45  1  0  0  0  0
 20 46  1  0  0  0  0
 20 47  1  0  0  0  0
 21 25  1  0  0  0  0
 21 48  1  0  0  0  0
 22 27  2  0  0  0  0
 23 25  2  0  0  0  0
 26 28  2  0  0  0  0
 27 28  1  0  0  0  0
 29 49  1  0  0  0  0
 29 50  1  0  0  0  0
 30 51  1  0  0  0  0
 30 52  1  0  0  0  0
 30 53  1  0  0  0  0
 31 34  1  0  0  0  0
 31 54  1  0  0  0  0
 31 55  1  0  0  0  0
 32 35  1  0  0  0  0
 32 56  1  0  0  0  0
 32 57  1  0  0  0  0
 33 36  1  0  0  0  0
 33 58  1  0  0  0  0
 33 59  1  0  0  0  0
 34 60  1  0  0  0  0
 34 61  1  0  0  0  0
 34 62  1  0  0  0  0
 35 63  1  0  0  0  0
 35 64  1  0  0  0  0
 35 65  1  0  0  0  0
 36 66  1  0  0  0  0
 36 67  1  0  0  0  0
 36 68  1  0  0  0  0
M  END
>  <DRUGBANK_ID>
DB13711

>  <COMMON_NAME>
Tritoqualine

>  <CAS_NUMBER>
14504-73-5

>  <UNII>
F4MW5166YH

>  <SYNONYMS>
Hypostamin; Hypostamine; Inhibostamin; Tritocualina; Tritoqualine; Tritoqualinum

$$$$
