
 OpenBabel10282417233D

 58 61  0  0  1  0  0  0  0  0999 V2000
  -17.7171  -13.7487    4.6171 C   0  0  0  0  0  0  0  0  0  0  0  0
  -16.6491  -13.5621    5.5328 O   0  0  0  0  0  0  0  0  0  0  0  0
  -16.6174  -12.3883    6.2400 C   0  0  0  0  0  0  0  0  0  0  0  0
  -17.7227  -11.8496    6.9076 C   0  0  0  0  0  0  0  0  0  0  0  0
  -17.5976  -10.7243    7.7578 C   0  0  0  0  0  0  0  0  0  0  0  0
  -18.7893  -10.3715    8.3470 O   0  0  0  0  0  0  0  0  0  0  0  0
  -18.8095   -9.2843    9.2657 C   0  0  0  0  0  0  0  0  0  0  0  0
  -16.3307  -10.1333    7.9194 C   0  0  0  0  0  0  0  0  0  0  0  0
  -16.0540   -8.6763    8.8618 Cl  0  0  0  0  0  0  0  0  0  0  0  0
  -15.1948  -10.6905    7.2770 C   0  0  0  0  0  0  0  0  0  0  0  0
  -13.8664  -10.1203    7.5316 C   0  0  0  0  0  0  0  0  0  0  0  0
  -13.1501   -9.5254    6.5091 C   0  0  0  0  0  0  0  0  0  0  0  0
  -11.9291   -8.9479    6.8291 C   0  0  0  0  0  0  0  0  0  0  0  0
  -11.2286   -8.2894    5.8917 C   0  0  0  0  0  0  0  0  0  0  0  0
  -10.1192   -7.6392    6.2278 N   0  0  0  0  0  0  0  0  0  0  0  0
   -9.5374   -7.7969    7.4101 C   0  0  0  0  0  0  0  0  0  0  0  0
   -8.2423   -7.3752    7.5792 N   0  0  0  0  0  0  0  0  0  0  0  0
   -7.3573   -6.9670    6.4786 C   0  0  2  0  0  0  0  0  0  0  0  0
   -7.8881   -5.7503    5.6834 C   0  0  0  0  0  0  0  0  0  0  0  0
   -8.9567   -6.0270    4.7807 O   0  0  0  0  0  0  0  0  0  0  0  0
   -8.7762   -7.1708    3.9501 C   0  0  0  0  0  0  0  0  0  0  0  0
   -8.2353   -8.4366    4.6242 C   0  0  0  0  0  0  0  0  0  0  0  0
   -7.0089   -8.0851    5.4632 C   0  0  2  0  0  0  0  0  0  0  0  0
   -6.3757   -9.2727    6.0170 N   0  0  0  0  0  0  0  0  0  0  0  0
   -5.8685  -10.3378    5.3363 C   0  0  0  0  0  0  0  0  0  0  0  0
   -5.4374  -11.3121    5.9720 O   0  0  0  0  0  0  0  0  0  0  0  0
   -5.8891  -10.4210    3.8374 C   0  0  0  0  0  0  0  0  0  0  0  0
   -6.1189   -9.4874    2.8989 C   0  0  0  0  0  0  0  0  0  0  0  0
  -10.1516   -8.4197    8.3991 N   0  0  0  0  0  0  0  0  0  0  0  0
  -11.3561   -8.9373    8.1091 C   0  0  0  0  0  0  0  0  0  0  0  0
  -12.1020   -9.4903    9.1135 C   0  0  0  0  0  0  0  0  0  0  0  0
  -13.3309  -10.0860    8.8355 C   0  0  0  0  0  0  0  0  0  0  0  0
  -15.3587  -11.8053    6.4253 C   0  0  0  0  0  0  0  0  0  0  0  0
  -13.9924  -12.5003    5.5867 Cl  0  0  0  0  0  0  0  0  0  0  0  0
  -17.5363  -14.6998    4.1019 H   0  0  0  0  0  0  0  0  0  0  0  0
  -17.7331  -12.9604    3.8580 H   0  0  0  0  0  0  0  0  0  0  0  0
  -18.6778  -13.8315    5.1288 H   0  0  0  0  0  0  0  0  0  0  0  0
  -18.6968  -12.3237    6.8131 H   0  0  0  0  0  0  0  0  0  0  0  0
  -18.1720   -9.4913   10.1339 H   0  0  0  0  0  0  0  0  0  0  0  0
  -18.5540   -8.3498    8.7552 H   0  0  0  0  0  0  0  0  0  0  0  0
  -19.8208   -9.1449    9.6520 H   0  0  0  0  0  0  0  0  0  0  0  0
  -13.5424   -9.4843    5.4929 H   0  0  0  0  0  0  0  0  0  0  0  0
  -11.4970   -8.2648    4.8401 H   0  0  0  0  0  0  0  0  0  0  0  0
   -7.8598   -7.5638    8.4928 H   0  0  0  0  0  0  0  0  0  0  0  0
   -6.4171   -6.6475    6.9507 H   0  0  0  0  0  0  0  0  0  0  0  0
   -8.2252   -4.9732    6.3781 H   0  0  0  0  0  0  0  0  0  0  0  0
   -7.0865   -5.3177    5.0753 H   0  0  0  0  0  0  0  0  0  0  0  0
   -8.1000   -6.8660    3.1493 H   0  0  0  0  0  0  0  0  0  0  0  0
   -9.7385   -7.3995    3.4793 H   0  0  0  0  0  0  0  0  0  0  0  0
   -8.1439   -9.1858    3.8434 H   0  0  0  0  0  0  0  0  0  0  0  0
   -8.8896   -9.0301    5.2620 H   0  0  0  0  0  0  0  0  0  0  0  0
   -6.2245   -7.6366    4.8444 H   0  0  0  0  0  0  0  0  0  0  0  0
   -6.3952   -9.3945    7.0247 H   0  0  0  0  0  0  0  0  0  0  0  0
   -5.7176  -11.4364    3.4894 H   0  0  0  0  0  0  0  0  0  0  0  0
   -6.2749   -9.7433    1.8587 H   0  0  0  0  0  0  0  0  0  0  0  0
   -6.2987   -8.4439    3.1014 H   0  0  0  0  0  0  0  0  0  0  0  0
  -11.7334   -9.4338   10.1312 H   0  0  0  0  0  0  0  0  0  0  0  0
  -13.9029  -10.4775    9.6723 H   0  0  0  0  0  0  0  0  0  0  0  0
  1  2  1  0  0  0  0
  1 35  1  0  0  0  0
  1 36  1  0  0  0  0
  1 37  1  0  0  0  0
  2  3  1  0  0  0  0
  3  4  2  0  0  0  0
  3 33  1  0  0  0  0
  4  5  1  0  0  0  0
  4 38  1  0  0  0  0
  5  6  1  0  0  0  0
  5  8  2  0  0  0  0
  6  7  1  0  0  0  0
  7 39  1  0  0  0  0
  7 40  1  0  0  0  0
  7 41  1  0  0  0  0
  8  9  1  0  0  0  0
  8 10  1  0  0  0  0
 10 11  1  0  0  0  0
 10 33  2  0  0  0  0
 11 12  2  0  0  0  0
 11 32  1  0  0  0  0
 12 13  1  0  0  0  0
 12 42  1  0  0  0  0
 13 14  2  0  0  0  0
 13 30  1  0  0  0  0
 14 15  1  0  0  0  0
 14 43  1  0  0  0  0
 15 16  2  0  0  0  0
 16 17  1  0  0  0  0
 16 29  1  0  0  0  0
 17 44  1  0  0  0  0
 18 19  1  0  0  0  0
 18 23  1  0  0  0  0
 18 45  1  1  0  0  0
 18 17  1  0  0  0  0
 19 20  1  0  0  0  0
 19 46  1  0  0  0  0
 19 47  1  0  0  0  0
 20 21  1  0  0  0  0
 21 22  1  0  0  0  0
 21 48  1  0  0  0  0
 21 49  1  0  0  0  0
 22 50  1  0  0  0  0
 22 51  1  0  0  0  0
 23 22  1  0  0  0  0
 23 52  1  6  0  0  0
 23 24  1  0  0  0  0
 24 25  1  0  0  0  0
 24 53  1  0  0  0  0
 25 26  2  0  0  0  0
 25 27  1  0  0  0  0
 27 28  2  0  0  0  0
 27 54  1  0  0  0  0
 28 55  1  0  0  0  0
 28 56  1  0  0  0  0
 29 30  2  0  0  0  0
 30 31  1  0  0  0  0
 31 32  2  0  0  0  0
 31 57  1  0  0  0  0
 32 58  1  0  0  0  0
 33 34  1  0  0  0  0
M  END
>  <DRUGBANK_ID>
DB16167

>  <COMMON_NAME>
Fisogatinib

>  <CAS_NUMBER>
1707289-21-1

>  <UNII>
5Q7R99CKV2

>  <SYNONYMS>
Fisogatinib

$$$$
