
 OpenBabel10282417193D

 63 66  0  0  0  0  0  0  0  0999 V2000
    1.1403    0.2974   -0.1072 C   0  0  0  0  0  0  0  0  0  0  0  0
    0.6715    1.0225   -1.4115 C   0  0  0  0  0  0  0  0  0  0  0  0
    1.3617    0.1784   -2.4971 C   0  0  0  0  0  0  0  0  0  0  0  0
   -0.7457    1.4907   -1.5112 N   0  0  0  0  0  0  0  0  0  0  0  0
   -1.3644    1.8136   -2.7817 C   0  0  0  0  0  0  0  0  0  0  0  0
   -1.1940    0.7774   -3.8940 C   0  0  0  0  0  0  0  0  0  0  0  0
   -1.5706   -0.6949   -3.6746 N   0  0  0  0  0  0  0  0  0  0  0  0
   -2.3077   -1.1354   -4.8292 C   0  0  0  0  0  0  0  0  0  0  0  0
   -1.9643   -0.8261   -6.1480 C   0  0  0  0  0  0  0  0  0  0  0  0
   -2.7275   -1.3226   -7.2121 C   0  0  0  0  0  0  0  0  0  0  0  0
   -3.8334   -2.1396   -6.9679 C   0  0  0  0  0  0  0  0  0  0  0  0
   -4.1942   -2.4368   -5.6494 C   0  0  0  0  0  0  0  0  0  0  0  0
   -3.4429   -1.9293   -4.6028 C   0  0  0  0  0  0  0  0  0  0  0  0
   -5.2523   -3.2168   -5.3346 N   0  0  0  0  0  0  0  0  0  0  0  0
   -5.9296   -3.7219   -6.3862 C   0  0  0  0  0  0  0  0  0  0  0  0
   -5.5782   -3.4317   -7.6879 C   0  0  0  0  0  0  0  0  0  0  0  0
   -4.5323   -2.6305   -8.0147 N   0  0  0  0  0  0  0  0  0  0  0  0
   -7.0169   -4.6203   -6.0837 C   0  0  0  0  0  0  0  0  0  0  0  0
   -7.2200   -5.9544   -6.4873 C   0  0  0  0  0  0  0  0  0  0  0  0
   -8.3694   -6.4552   -6.0267 N   0  0  0  0  0  0  0  0  0  0  0  0
   -8.8786   -5.4498   -5.2885 N   0  0  0  0  0  0  0  0  0  0  0  0
   -8.1161   -4.3177   -5.3128 C   0  0  0  0  0  0  0  0  0  0  0  0
  -10.0986   -5.6657   -4.5496 C   0  0  0  0  0  0  0  0  0  0  0  0
   -1.3180   -1.6192   -2.6187 C   0  0  0  0  0  0  0  0  0  0  0  0
   -1.4164   -1.3849   -1.2464 C   0  0  0  0  0  0  0  0  0  0  0  0
   -1.3230   -2.2109   -0.1420 C   0  0  0  0  0  0  0  0  0  0  0  0
   -1.0760   -3.5161   -0.4206 C   0  0  0  0  0  0  0  0  0  0  0  0
   -0.9996   -3.9138   -1.7711 C   0  0  0  0  0  0  0  0  0  0  0  0
   -1.0507   -2.9780   -2.8462 C   0  0  0  0  0  0  0  0  0  0  0  0
   -0.9390   -5.2410   -2.1330 O   0  0  0  0  0  0  0  0  0  0  0  0
   -1.2510   -6.1201   -1.0510 C   0  0  0  0  0  0  0  0  0  0  0  0
   -1.4173   -1.7438    1.1520 O   0  0  0  0  0  0  0  0  0  0  0  0
   -1.7634   -0.3486    1.3737 C   0  0  0  0  0  0  0  0  0  0  0  0
    0.8192   -0.7480   -0.0363 H   0  0  0  0  0  0  0  0  0  0  0  0
    0.8902    0.8216    0.8143 H   0  0  0  0  0  0  0  0  0  0  0  0
    2.2357    0.2218   -0.1020 H   0  0  0  0  0  0  0  0  0  0  0  0
    1.1883    1.9793   -1.3856 H   0  0  0  0  0  0  0  0  0  0  0  0
    0.9861   -0.8435   -2.5741 H   0  0  0  0  0  0  0  0  0  0  0  0
    1.3786    0.6556   -3.4671 H   0  0  0  0  0  0  0  0  0  0  0  0
    2.4217    0.0552   -2.2550 H   0  0  0  0  0  0  0  0  0  0  0  0
   -1.4290    0.7934   -1.3617 H   0  0  0  0  0  0  0  0  0  0  0  0
   -2.4592    1.8725   -2.6054 H   0  0  0  0  0  0  0  0  0  0  0  0
   -1.0773    2.8323   -3.0470 H   0  0  0  0  0  0  0  0  0  0  0  0
   -1.8076    1.2074   -4.7024 H   0  0  0  0  0  0  0  0  0  0  0  0
   -0.1987    0.8537   -4.3213 H   0  0  0  0  0  0  0  0  0  0  0  0
   -1.0933   -0.2167   -6.3888 H   0  0  0  0  0  0  0  0  0  0  0  0
   -2.4549   -1.0901   -8.2331 H   0  0  0  0  0  0  0  0  0  0  0  0
   -3.7416   -2.1594   -3.5898 H   0  0  0  0  0  0  0  0  0  0  0  0
   -6.1362   -3.8284   -8.5311 H   0  0  0  0  0  0  0  0  0  0  0  0
   -6.5774   -6.5811   -7.0917 H   0  0  0  0  0  0  0  0  0  0  0  0
   -8.4046   -3.4173   -4.7854 H   0  0  0  0  0  0  0  0  0  0  0  0
  -10.8750   -5.9987   -5.2431 H   0  0  0  0  0  0  0  0  0  0  0  0
   -9.9051   -6.4327   -3.7952 H   0  0  0  0  0  0  0  0  0  0  0  0
  -10.4033   -4.7344   -4.0664 H   0  0  0  0  0  0  0  0  0  0  0  0
   -1.4838   -0.4676   -0.7827 H   0  0  0  0  0  0  0  0  0  0  0  0
   -0.9568   -4.1860    0.4173 H   0  0  0  0  0  0  0  0  0  0  0  0
   -0.8830   -3.3393   -3.8600 H   0  0  0  0  0  0  0  0  0  0  0  0
   -0.4120   -6.1363   -0.3466 H   0  0  0  0  0  0  0  0  0  0  0  0
   -2.1815   -5.8294   -0.5406 H   0  0  0  0  0  0  0  0  0  0  0  0
   -1.3939   -7.1279   -1.4382 H   0  0  0  0  0  0  0  0  0  0  0  0
   -0.9731    0.3359    1.0697 H   0  0  0  0  0  0  0  0  0  0  0  0
   -2.6793   -0.0472    0.8486 H   0  0  0  0  0  0  0  0  0  0  0  0
   -1.8894   -0.1584    2.4411 H   0  0  0  0  0  0  0  0  0  0  0  0
  1  2  1  0  0  0  0
  1 34  1  0  0  0  0
  1 35  1  0  0  0  0
  1 36  1  0  0  0  0
  2  3  1  0  0  0  0
  2  4  1  0  0  0  0
  2 37  1  0  0  0  0
  3 38  1  0  0  0  0
  3 39  1  0  0  0  0
  3 40  1  0  0  0  0
  4  5  1  0  0  0  0
  4 41  1  0  0  0  0
  5  6  1  0  0  0  0
  5 42  1  0  0  0  0
  5 43  1  0  0  0  0
  6  7  1  0  0  0  0
  6 44  1  0  0  0  0
  6 45  1  0  0  0  0
  7  8  1  0  0  0  0
  7 24  1  0  0  0  0
  8  9  2  0  0  0  0
  8 13  1  0  0  0  0
  9 10  1  0  0  0  0
  9 46  1  0  0  0  0
 10 11  2  0  0  0  0
 10 47  1  0  0  0  0
 11 12  1  0  0  0  0
 11 17  1  0  0  0  0
 12 13  2  0  0  0  0
 12 14  1  0  0  0  0
 13 48  1  0  0  0  0
 14 15  2  0  0  0  0
 15 16  1  0  0  0  0
 15 18  1  0  0  0  0
 16 17  2  0  0  0  0
 16 49  1  0  0  0  0
 18 19  1  0  0  0  0
 18 22  2  0  0  0  0
 19 20  2  0  0  0  0
 19 50  1  0  0  0  0
 20 21  1  0  0  0  0
 21 22  1  0  0  0  0
 21 23  1  0  0  0  0
 22 51  1  0  0  0  0
 23 52  1  0  0  0  0
 23 53  1  0  0  0  0
 23 54  1  0  0  0  0
 24 25  2  0  0  0  0
 24 29  1  0  0  0  0
 25 26  1  0  0  0  0
 25 55  1  0  0  0  0
 26 27  2  0  0  0  0
 26 32  1  0  0  0  0
 27 28  1  0  0  0  0
 27 56  1  0  0  0  0
 28 29  2  0  0  0  0
 28 30  1  0  0  0  0
 29 57  1  0  0  0  0
 30 31  1  0  0  0  0
 31 58  1  0  0  0  0
 31 59  1  0  0  0  0
 31 60  1  0  0  0  0
 32 33  1  0  0  0  0
 33 61  1  0  0  0  0
 33 62  1  0  0  0  0
 33 63  1  0  0  0  0
M  END
>  <DRUGBANK_ID>
DB12147

>  <COMMON_NAME>
Erdafitinib

>  <CAS_NUMBER>
1346242-81-6

>  <UNII>
890E37NHMV

>  <SYNONYMS>
Erdafitinib

$$$$
