
 OpenBabel10282417133D

 47 49  0  0  0  0  0  0  0  0999 V2000
    1.0464   -0.1612    0.2731 S   0  0  0  0  0  0  0  0  0  0  0  0
    1.3593    3.7401    1.1108 O   0  0  0  0  0  0  0  0  0  0  0  0
   -1.2444    6.1882    0.7699 O   0  0  0  0  0  0  0  0  0  0  0  0
   -1.7968    3.6640    1.3221 O   0  0  0  0  0  0  0  0  0  0  0  0
    0.3693    0.9419   -0.7164 O   0  0  0  0  0  0  0  0  0  0  0  0
    0.4996   -1.4522   -0.0838 O   0  0  0  0  0  0  0  0  0  0  0  0
    0.8873    0.2888    1.6329 O   0  0  0  0  0  0  0  0  0  0  0  0
    4.6836   -0.4049   -0.9696 O   0  0  0  0  0  0  0  0  0  0  0  0
    2.0366    5.8578    0.5534 N   0  0  0  0  0  0  0  0  0  0  0  0
    3.8314    7.1309    0.3088 N   0  0  0  0  0  0  0  0  0  0  0  0
    1.8592    4.8973   -1.6522 N   0  0  0  0  0  0  0  0  0  0  0  0
    2.6721   -0.0789   -0.0027 N   0  0  0  0  0  0  0  0  0  0  0  0
    3.5927    5.6531   -3.1158 N   0  0  0  0  0  0  0  0  0  0  0  0
    5.2927    7.1156   -2.4582 N   0  0  0  0  0  0  0  0  0  0  0  0
    2.0124   -2.1720   -2.1023 N   0  0  0  0  0  0  0  0  0  0  0  0
   -0.3353    5.2270    0.2455 C   0  0  2  0  0  0  0  0  0  0  0  0
   -0.8789    3.8165    0.2297 C   0  0  1  0  0  0  0  0  0  0  0  0
    0.9375    5.1109    1.1048 C   0  0  1  0  0  0  0  0  0  0  0  0
    0.3535    2.9625    0.4693 C   0  0  1  0  0  0  0  0  0  0  0  0
    0.8838    2.2670   -0.7686 C   0  0  0  0  0  0  0  0  0  0  0  0
    2.4423    5.6828   -0.7358 C   0  0  0  0  0  0  0  0  0  0  0  0
    2.8912    6.7351    1.1511 C   0  0  0  0  0  0  0  0  0  0  0  0
    3.5571    6.4691   -0.8783 C   0  0  0  0  0  0  0  0  0  0  0  0
    4.1542    6.4207   -2.1452 C   0  0  0  0  0  0  0  0  0  0  0  0
    2.4864    4.9540   -2.8257 C   0  0  0  0  0  0  0  0  0  0  0  0
    3.4645   -0.4827   -1.0886 C   0  0  0  0  0  0  0  0  0  0  0  0
    2.8276   -1.0035   -2.3901 C   0  0  2  0  0  0  0  0  0  0  0  0
    2.0217    0.0775   -3.0882 C   0  0  0  0  0  0  0  0  0  0  0  0
    3.1864    0.2292    0.8194 H   0  0  0  0  0  0  0  0  0  0  0  0
    5.7212    7.6884   -1.7471 H   0  0  0  0  0  0  0  0  0  0  0  0
    5.6602    7.0223   -3.3900 H   0  0  0  0  0  0  0  0  0  0  0  0
    1.4684   -2.5045   -2.8893 H   0  0  0  0  0  0  0  0  0  0  0  0
    2.5442   -2.9364   -1.6930 H   0  0  0  0  0  0  0  0  0  0  0  0
   -1.6887    5.7765    1.5331 H   0  0  0  0  0  0  0  0  0  0  0  0
   -1.2901    3.6608    2.1535 H   0  0  0  0  0  0  0  0  0  0  0  0
   -0.1466    5.5282   -0.7854 H   0  0  0  0  0  0  0  0  0  0  0  0
   -1.4093    3.5497   -0.6922 H   0  0  0  0  0  0  0  0  0  0  0  0
    0.7691    5.3985    2.1475 H   0  0  0  0  0  0  0  0  0  0  0  0
    0.0647    2.2274    1.2068 H   0  0  0  0  0  0  0  0  0  0  0  0
    1.9788    2.2636   -0.8562 H   0  0  0  0  0  0  0  0  0  0  0  0
    0.5148    2.7272   -1.6974 H   0  0  0  0  0  0  0  0  0  0  0  0
    2.8060    7.0491    2.1861 H   0  0  0  0  0  0  0  0  0  0  0  0
    2.0417    4.3593   -3.6171 H   0  0  0  0  0  0  0  0  0  0  0  0
    3.6365   -1.3048   -3.0640 H   0  0  0  0  0  0  0  0  0  0  0  0
    2.6141    0.9826   -3.2564 H   0  0  0  0  0  0  0  0  0  0  0  0
    1.5710   -0.2607   -4.0225 H   0  0  0  0  0  0  0  0  0  0  0  0
    1.1722    0.3699   -2.4993 H   0  0  0  0  0  0  0  0  0  0  0  0
  1  5  1  0  0  0  0
  1  6  2  0  0  0  0
  1  7  2  0  0  0  0
  1 12  1  0  0  0  0
  2 18  1  0  0  0  0
  2 19  1  0  0  0  0
  3 34  1  0  0  0  0
  4 35  1  0  0  0  0
  5 20  1  0  0  0  0
  8 26  2  0  0  0  0
  9 21  1  0  0  0  0
  9 22  1  0  0  0  0
 10 22  2  0  0  0  0
 10 23  1  0  0  0  0
 11 21  2  0  0  0  0
 11 25  1  0  0  0  0
 12 26  1  0  0  0  0
 12 29  1  0  0  0  0
 13 24  1  0  0  0  0
 13 25  2  0  0  0  0
 14 24  1  0  0  0  0
 14 30  1  0  0  0  0
 14 31  1  0  0  0  0
 15 32  1  0  0  0  0
 15 33  1  0  0  0  0
 16  3  1  0  0  0  0
 16 17  1  0  0  0  0
 16 18  1  0  0  0  0
 16 36  1  6  0  0  0
 17  4  1  0  0  0  0
 17 19  1  0  0  0  0
 17 37  1  6  0  0  0
 18 38  1  1  0  0  0
 18  9  1  0  0  0  0
 19 20  1  0  0  0  0
 19 39  1  1  0  0  0
 20 40  1  0  0  0  0
 20 41  1  0  0  0  0
 21 23  1  0  0  0  0
 22 42  1  0  0  0  0
 23 24  2  0  0  0  0
 25 43  1  0  0  0  0
 26 27  1  0  0  0  0
 27 15  1  0  0  0  0
 27 28  1  0  0  0  0
 27 44  1  6  0  0  0
 28 45  1  0  0  0  0
 28 46  1  0  0  0  0
 28 47  1  0  0  0  0
M  END
>  <DRUGBANK_ID>
DB03376

>  <SECONDARY_ACCESSION_NUMBERS>
EXPT00374

>  <COMMON_NAME>
5'-O-(N-(Alanyl)sulfamoyl)adenosine

>  <CAS_NUMBER>
112921-04-7

>  <UNII>
48GG0U2X78

>  <SYNONYMS>
Ala-SA; AlaSA

$$$$
