
 OpenBabel10282417203D

 55 57  0  0  0  0  0  0  0  0999 V2000
    0.7191   -0.0509    0.2540 C   0  0  0  0  0  0  0  0  0  0  0  0
    6.6708   -0.8808   -4.0512 C   0  0  0  0  0  0  0  0  0  0  0  0
    2.8916   -3.9799   -4.1246 C   0  0  0  0  0  0  0  0  0  0  0  0
    0.1811    0.2199   -1.1505 C   0  0  0  0  0  0  0  0  0  0  0  0
    3.8166    5.9141   -0.7810 C   0  0  0  0  0  0  0  0  0  0  0  0
    4.7678    5.2960   -1.5904 C   0  0  0  0  0  0  0  0  0  0  0  0
    2.4666    5.6924   -1.0300 C   0  0  0  0  0  0  0  0  0  0  0  0
    4.3834    4.4608   -2.6503 C   0  0  0  0  0  0  0  0  0  0  0  0
    2.0785    4.8585   -2.1022 C   0  0  0  0  0  0  0  0  0  0  0  0
    0.2880   -0.1368   -3.5258 C   0  0  0  0  0  0  0  0  0  0  0  0
    0.8991    1.0386   -4.2953 C   0  0  0  0  0  0  0  0  0  0  0  0
    2.2927   -0.6747   -1.8670 C   0  0  0  0  0  0  0  0  0  0  0  0
    3.0557    0.6569   -1.8212 C   0  0  0  0  0  0  0  0  0  0  0  0
    2.6838    3.4538   -4.2323 C   0  0  0  0  0  0  0  0  0  0  0  0
    3.0414    4.2140   -2.9363 C   0  0  0  0  0  0  0  0  0  0  0  0
    3.2232    1.9644   -4.5571 C   0  0  0  0  0  0  0  0  0  0  0  0
    3.0072   -0.3178   -4.8122 C   0  0  0  0  0  0  0  0  0  0  0  0
    4.3176   -0.0024   -4.5591 C   0  0  0  0  0  0  0  0  0  0  0  0
    2.5366   -1.7024   -4.7844 C   0  0  0  0  0  0  0  0  0  0  0  0
    4.8042   -2.4006   -4.1721 C   0  0  0  0  0  0  0  0  0  0  0  0
    4.4562    1.4081   -4.4592 N   0  0  0  0  0  0  0  0  0  0  0  0
    5.2422   -1.0499   -4.2638 N   0  0  0  0  0  0  0  0  0  0  0  0
    3.4687   -2.6552   -4.3822 N   0  0  0  0  0  0  0  0  0  0  0  0
    0.8322   -0.5855   -2.1929 N   0  0  0  0  0  0  0  0  0  0  0  0
    2.2905    0.8950   -4.7508 N   0  0  0  0  0  0  0  0  0  0  0  0
    2.6078    1.7019   -0.9845 O   0  0  0  0  0  0  0  0  0  0  0  0
    1.4145   -2.0804   -5.0071 O   0  0  0  0  0  0  0  0  0  0  0  0
    5.5662   -3.3390   -3.9093 O   0  0  0  0  0  0  0  0  0  0  0  0
    0.4859   -1.0750    0.5507 H   0  0  0  0  0  0  0  0  0  0  0  0
    0.3183    0.6781    0.9519 H   0  0  0  0  0  0  0  0  0  0  0  0
    1.8034    0.0570    0.3653 H   0  0  0  0  0  0  0  0  0  0  0  0
    7.0972   -0.3642   -4.9090 H   0  0  0  0  0  0  0  0  0  0  0  0
    6.8906   -0.3745   -3.1075 H   0  0  0  0  0  0  0  0  0  0  0  0
    7.1874   -1.8532   -3.9975 H   0  0  0  0  0  0  0  0  0  0  0  0
    2.2861   -3.9336   -3.2064 H   0  0  0  0  0  0  0  0  0  0  0  0
    2.2049   -4.2411   -4.9379 H   0  0  0  0  0  0  0  0  0  0  0  0
    3.6290   -4.7776   -4.0226 H   0  0  0  0  0  0  0  0  0  0  0  0
   -0.8933    0.0198   -1.1651 H   0  0  0  0  0  0  0  0  0  0  0  0
    0.2796    1.2811   -1.3953 H   0  0  0  0  0  0  0  0  0  0  0  0
    4.1322    6.5634    0.0344 H   0  0  0  0  0  0  0  0  0  0  0  0
    5.8249    5.4678   -1.4067 H   0  0  0  0  0  0  0  0  0  0  0  0
    1.7262    6.1816   -0.3943 H   0  0  0  0  0  0  0  0  0  0  0  0
    5.1461    4.0146   -3.2805 H   0  0  0  0  0  0  0  0  0  0  0  0
    1.0061    4.7503   -2.2645 H   0  0  0  0  0  0  0  0  0  0  0  0
    0.1380   -0.8956   -4.2757 H   0  0  0  0  0  0  0  0  0  0  0  0
   -0.7872    0.0495   -3.3855 H   0  0  0  0  0  0  0  0  0  0  0  0
    0.3172    1.3095   -5.1843 H   0  0  0  0  0  0  0  0  0  0  0  0
    0.8130    1.8751   -3.5966 H   0  0  0  0  0  0  0  0  0  0  0  0
    2.4716   -1.2030   -0.9240 H   0  0  0  0  0  0  0  0  0  0  0  0
    2.7952   -1.3804   -2.5096 H   0  0  0  0  0  0  0  0  0  0  0  0
    4.1462    0.5941   -1.8646 H   0  0  0  0  0  0  0  0  0  0  0  0
    2.7641    1.0629   -2.7317 H   0  0  0  0  0  0  0  0  0  0  0  0
    2.9366    4.1069   -5.0730 H   0  0  0  0  0  0  0  0  0  0  0  0
    1.5869    3.4545   -4.2427 H   0  0  0  0  0  0  0  0  0  0  0  0
    1.9881    2.2210   -1.5340 H   0  0  0  0  0  0  0  0  0  0  0  0
  1 29  1  0  0  0  0
  1 30  1  0  0  0  0
  1 31  1  0  0  0  0
  2 32  1  0  0  0  0
  2 33  1  0  0  0  0
  2 34  1  0  0  0  0
  3 35  1  0  0  0  0
  3 36  1  0  0  0  0
  3 37  1  0  0  0  0
  4  1  1  0  0  0  0
  4 38  1  0  0  0  0
  4 39  1  0  0  0  0
  5 40  1  0  0  0  0
  6  5  2  0  0  0  0
  6 41  1  0  0  0  0
  7  5  1  0  0  0  0
  7 42  1  0  0  0  0
  8  6  1  0  0  0  0
  8 43  1  0  0  0  0
  9  7  2  0  0  0  0
  9 44  1  0  0  0  0
 10 45  1  0  0  0  0
 10 46  1  0  0  0  0
 11 10  1  0  0  0  0
 11 47  1  0  0  0  0
 11 48  1  0  0  0  0
 12 49  1  0  0  0  0
 12 50  1  0  0  0  0
 13 12  1  0  0  0  0
 13 51  1  0  0  0  0
 13 52  1  0  0  0  0
 14 53  1  0  0  0  0
 14 54  1  0  0  0  0
 15  8  2  0  0  0  0
 15  9  1  0  0  0  0
 15 14  1  0  0  0  0
 16 14  1  0  0  0  0
 18 17  2  0  0  0  0
 19 17  1  0  0  0  0
 21 16  2  0  0  0  0
 21 18  1  0  0  0  0
 22  2  1  0  0  0  0
 22 18  1  0  0  0  0
 22 20  1  0  0  0  0
 23  3  1  0  0  0  0
 23 19  1  0  0  0  0
 23 20  1  0  0  0  0
 24  4  1  0  0  0  0
 24 10  1  0  0  0  0
 24 12  1  0  0  0  0
 25 11  1  0  0  0  0
 25 16  1  0  0  0  0
 25 17  1  0  0  0  0
 26 13  1  0  0  0  0
 26 55  1  0  0  0  0
 27 19  2  0  0  0  0
 28 20  2  0  0  0  0
M  END
>  <DRUGBANK_ID>
DB13203

>  <COMMON_NAME>
Bamifylline

>  <CAS_NUMBER>
2016-63-9

>  <UNII>
ZTY15D026H

>  <SYNONYMS>
Bamifilina; Bamifylline; Bamifyllinum

$$$$
