
 OpenBabel10282417213D

 67 70  0  0  0  0  0  0  0  0999 V2000
   -3.2650    0.3170   -1.6146 C   0  0  0  0  0  0  0  0  0  0  0  0
   -2.0668   -0.8706   -1.2336 C   0  0  0  0  0  0  0  0  0  0  0  0
   -2.2474   -1.9794   -0.0441 C   0  0  0  0  0  0  0  0  0  0  0  0
   -1.5921   -3.1882    0.5235 C   0  0  0  0  0  0  0  0  0  0  0  0
   -2.6866   -2.3861    2.4289 C   0  0  0  0  0  0  0  0  0  0  0  0
   -3.7563   -1.5251    1.8772 C   0  0  0  0  0  0  0  0  0  0  0  0
   -7.3457    0.0185   -0.2106 C   0  0  0  0  0  0  0  0  0  0  0  0
   -6.9044    3.0619   -1.2813 C   0  0  0  0  0  0  0  0  0  0  0  0
   -5.7380    2.1329   -1.0220 C   0  0  0  0  0  0  0  0  0  0  0  0
   -4.8779   -0.6457   -0.1283 C   0  0  2  0  0  0  0  0  0  0  0  0
   -4.8254    0.2200    0.5680 H   0  0  0  0  0  0  0  0  0  0  0  0
   -5.8044    0.8551   -1.9176 C   0  0  1  0  0  0  0  0  0  0  0  0
   -5.6128    1.0032   -2.9860 H   0  0  0  0  0  0  0  0  0  0  0  0
   -4.7353   -0.1374   -1.5106 C   0  0  2  0  0  0  0  0  0  0  0  0
   -4.9223   -0.8973   -2.2616 H   0  0  0  0  0  0  0  0  0  0  0  0
   -7.3085    0.6505   -1.9417 C   0  0  1  0  0  0  0  0  0  0  0  0
   -7.2008    2.4254   -2.6917 C   0  0  1  0  0  0  0  0  0  0  0  0
   -2.7573   -3.4970    1.4270 C   0  0  0  0  0  0  0  0  0  0  0  0
   -3.5963   -4.3533    1.1494 O   0  0  0  0  0  0  0  0  0  0  0  0
   -6.3439   -1.2346   -0.0136 C   0  0  1  0  0  0  0  0  0  0  0  0
   -7.1222   -2.3244    0.5409 O   0  0  0  0  0  0  0  0  0  0  0  0
   -7.7439    3.5879   -3.3690 C   0  0  0  0  0  0  0  0  0  0  0  0
   -7.3191    4.6361   -2.6537 O   0  0  0  0  0  0  0  0  0  0  0  0
   -8.5913    3.6543   -5.2435 C   0  0  0  0  0  0  0  0  0  0  0  0
   -6.5560    3.4143   -4.1175 O   0  0  0  0  0  0  0  0  0  0  0  0
   -8.0832   -0.7271   -2.4081 C   0  0  0  0  0  0  0  0  0  0  0  0
   -3.7583   -1.6808    0.2637 C   0  0  2  0  0  0  0  0  0  0  0  0
   -4.1094   -2.8044   -0.8079 C   0  0  0  0  0  0  0  0  0  0  0  0
   -7.0831    5.0848   -4.6379 C   0  0  0  0  0  0  0  0  0  0  0  0
   -6.6117    5.6364   -5.5588 O   0  0  0  0  0  0  0  0  0  0  0  0
   -8.9237    5.2998   -3.8303 C   0  0  0  0  0  0  0  0  0  0  0  0
  -10.1864    3.7707   -3.7536 C   0  0  0  0  0  0  0  0  0  0  0  0
   -9.6967    2.3466   -3.2841 C   0  0  0  0  0  0  0  0  0  0  0  0
   -9.8043    4.7773   -5.7767 O   0  0  0  0  0  0  0  0  0  0  0  0
   -3.2436    0.7223   -2.6388 H   0  0  0  0  0  0  0  0  0  0  0  0
   -3.0069    1.2264   -1.0440 H   0  0  0  0  0  0  0  0  0  0  0  0
   -1.9833   -1.4123   -2.1786 H   0  0  0  0  0  0  0  0  0  0  0  0
   -1.1904   -0.2701   -0.9882 H   0  0  0  0  0  0  0  0  0  0  0  0
   -1.4452   -4.1320    1.3079 H   0  0  0  0  0  0  0  0  0  0  0  0
   -2.5547   -2.7110    3.4461 H   0  0  0  0  0  0  0  0  0  0  0  0
   -1.7657   -1.7685    2.2747 H   0  0  0  0  0  0  0  0  0  0  0  0
   -4.6856   -1.8031    2.3673 H   0  0  0  0  0  0  0  0  0  0  0  0
   -3.5381   -0.4739    2.1820 H   0  0  0  0  0  0  0  0  0  0  0  0
   -8.3608   -0.3448    0.0293 H   0  0  0  0  0  0  0  0  0  0  0  0
   -7.1192    0.6926    0.6188 H   0  0  0  0  0  0  0  0  0  0  0  0
   -8.0142    3.2078   -1.1960 H   0  0  0  0  0  0  0  0  0  0  0  0
   -7.2954    2.8757   -0.2542 H   0  0  0  0  0  0  0  0  0  0  0  0
   -5.7367    1.9840    0.0684 H   0  0  0  0  0  0  0  0  0  0  0  0
   -4.7721    2.5769   -1.2000 H   0  0  0  0  0  0  0  0  0  0  0  0
   -5.8268   -1.4989    0.8813 H   0  0  0  0  0  0  0  0  0  0  0  0
   -6.9620   -2.4100    1.5158 H   0  0  0  0  0  0  0  0  0  0  0  0
   -7.9937    3.8992   -6.1283 H   0  0  0  0  0  0  0  0  0  0  0  0
   -8.9780    2.6933   -5.5443 H   0  0  0  0  0  0  0  0  0  0  0  0
   -7.6655   -1.6429   -1.9151 H   0  0  0  0  0  0  0  0  0  0  0  0
   -9.1094   -0.7957   -1.9634 H   0  0  0  0  0  0  0  0  0  0  0  0
   -8.1418   -1.0407   -3.4456 H   0  0  0  0  0  0  0  0  0  0  0  0
   -4.3143   -2.4271   -1.8102 H   0  0  0  0  0  0  0  0  0  0  0  0
   -3.2780   -3.4408   -1.1598 H   0  0  0  0  0  0  0  0  0  0  0  0
   -4.9463   -3.3963   -0.4956 H   0  0  0  0  0  0  0  0  0  0  0  0
   -8.8953    5.6960   -2.8060 H   0  0  0  0  0  0  0  0  0  0  0  0
   -9.1944    6.2173   -4.3829 H   0  0  0  0  0  0  0  0  0  0  0  0
  -11.2046    4.0033   -3.4497 H   0  0  0  0  0  0  0  0  0  0  0  0
  -10.5591    3.3579   -4.7537 H   0  0  0  0  0  0  0  0  0  0  0  0
   -9.5024    2.4872   -2.2359 H   0  0  0  0  0  0  0  0  0  0  0  0
  -10.2152    1.4220   -3.5109 H   0  0  0  0  0  0  0  0  0  0  0  0
   -8.8159    1.9766   -3.8495 H   0  0  0  0  0  0  0  0  0  0  0  0
  -10.4297    5.1742   -5.0766 H   0  0  0  0  0  0  0  0  0  0  0  0
  1  2  1  0  0  0  0
  1 35  1  0  0  0  0
  1 36  1  0  0  0  0
  2  3  1  0  0  0  0
  2 37  1  0  0  0  0
  2 38  1  0  0  0  0
  3  4  2  0  0  0  0
  3 27  1  0  0  0  0
  4 18  1  0  0  0  0
  4 39  1  0  0  0  0
  5  6  1  0  0  0  0
  5 40  1  0  0  0  0
  5 41  1  0  0  0  0
  6 27  1  0  0  0  0
  6 42  1  0  0  0  0
  6 43  1  0  0  0  0
  7 16  1  0  0  0  0
  7 44  1  0  0  0  0
  7 45  1  0  0  0  0
  8  9  1  0  0  0  0
  8 46  1  0  0  0  0
  8 47  1  0  0  0  0
  9 12  1  0  0  0  0
  9 48  1  0  0  0  0
  9 49  1  0  0  0  0
 10 20  1  0  0  0  0
 10 11  1  6  0  0  0
 12 13  1  6  0  0  0
 14  1  1  0  0  0  0
 14 10  1  0  0  0  0
 14 12  1  0  0  0  0
 14 15  1  1  0  0  0
 16 17  1  0  0  0  0
 16 12  1  0  0  0  0
 16 26  1  1  0  0  0
 17  8  1  0  0  0  0
 17 22  1  6  0  0  0
 17 25  1  0  0  0  0
 18  5  1  0  0  0  0
 18 19  2  0  0  0  0
 20  7  1  0  0  0  0
 20 21  1  0  0  0  0
 20 50  1  6  0  0  0
 21 51  1  0  0  0  0
 22 24  1  0  0  0  0
 22 23  2  0  0  0  0
 24 34  1  0  0  0  0
 24 52  1  0  0  0  0
 24 53  1  0  0  0  0
 25 29  1  0  0  0  0
 26 54  1  0  0  0  0
 26 55  1  0  0  0  0
 26 56  1  0  0  0  0
 27 10  1  0  0  0  0
 27 28  1  1  0  0  0
 28 57  1  0  0  0  0
 28 58  1  0  0  0  0
 28 59  1  0  0  0  0
 29 30  2  0  0  0  0
 29 31  1  0  0  0  0
 31 32  1  0  0  0  0
 31 60  1  0  0  0  0
 31 61  1  0  0  0  0
 32 33  1  0  0  0  0
 32 62  1  0  0  0  0
 32 63  1  0  0  0  0
 33 64  1  0  0  0  0
 33 65  1  0  0  0  0
 33 66  1  0  0  0  0
 34 67  1  0  0  0  0
M  END
>  <DRUGBANK_ID>
DB14540

>  <SECONDARY_ACCESSION_NUMBERS>
DBSALT001234

>  <COMMON_NAME>
Hydrocortisone butyrate

>  <CAS_NUMBER>
13609-67-1

>  <UNII>
05RMF7YPWN

>  <SYNONYMS>
11β,21-dihydroxy-17α-butyryloxy-4-pregnene-3,20-dione; 17-O-butyrylcortisol; Cortisol 17-butyrate; H-17-B; Hydrocortisone butyrate; Hydrocortisone-17alpha-butyrate

$$$$
