
 OpenBabel10282417123D

 36 35  0  0  0  0  0  0  0  0999 V2000
    1.0221   -0.0569    0.0312 O   0  0  0  0  0  0  0  0  0  0  0  0
    1.0948   -1.0911   -1.9562 O   0  0  0  0  0  0  0  0  0  0  0  0
   -3.0915    0.9846   -3.6459 N   0  0  0  0  0  0  0  0  0  0  0  0
   -5.1019    1.6230   -4.6298 N   0  3  0  0  0  0  0  0  0  0  0  0
   -1.6166   -1.3550    0.1858 N   0  0  0  0  0  0  0  0  0  0  0  0
   -3.0780    2.2214   -5.6296 N   0  0  0  0  0  0  0  0  0  0  0  0
   -1.1553    1.5780   -2.2348 C   0  0  0  0  0  0  0  0  0  0  0  0
   -1.6130    0.8111   -0.9919 C   0  0  0  0  0  0  0  0  0  0  0  0
   -1.6268    0.9308   -3.5280 C   0  0  0  0  0  0  0  0  0  0  0  0
   -1.0950   -0.6331   -0.9785 C   0  0  1  0  0  0  0  0  0  0  0  0
   -3.7529    1.6140   -4.6418 C   0  0  0  0  0  0  0  0  0  0  0  0
   -5.9496    2.2491   -5.6588 C   0  0  0  0  0  0  0  0  0  0  0  0
    0.4349   -0.6536   -1.0205 C   0  0  0  0  0  0  0  0  0  0  0  0
   -6.8063    1.2161   -6.3677 C   0  0  0  0  0  0  0  0  0  0  0  0
   -7.8058    0.5914   -5.4133 C   0  0  0  0  0  0  0  0  0  0  0  0
   -3.6459    0.5220   -2.9340 H   0  0  0  0  0  0  0  0  0  0  0  0
   -5.5716    1.1698   -3.8542 H   0  0  0  0  0  0  0  0  0  0  0  0
   -2.6332   -1.3884    0.1601 H   0  0  0  0  0  0  0  0  0  0  0  0
   -1.2967   -2.3244    0.1495 H   0  0  0  0  0  0  0  0  0  0  0  0
   -2.0732    2.2390   -5.6760 H   0  0  0  0  0  0  0  0  0  0  0  0
   -3.5379    2.6944   -6.3886 H   0  0  0  0  0  0  0  0  0  0  0  0
    1.9887   -0.1325   -0.1068 H   0  0  0  0  0  0  0  0  0  0  0  0
   -1.5279    2.6082   -2.1822 H   0  0  0  0  0  0  0  0  0  0  0  0
   -0.0612    1.6453   -2.2528 H   0  0  0  0  0  0  0  0  0  0  0  0
   -2.7094    0.8182   -0.9463 H   0  0  0  0  0  0  0  0  0  0  0  0
   -1.2670    1.3524   -0.1020 H   0  0  0  0  0  0  0  0  0  0  0  0
   -1.1425    1.4449   -4.3550 H   0  0  0  0  0  0  0  0  0  0  0  0
   -1.3240   -0.1146   -3.6217 H   0  0  0  0  0  0  0  0  0  0  0  0
   -1.4544   -1.1742   -1.8593 H   0  0  0  0  0  0  0  0  0  0  0  0
   -6.5567    3.0173   -5.1706 H   0  0  0  0  0  0  0  0  0  0  0  0
   -5.3458    2.7606   -6.4071 H   0  0  0  0  0  0  0  0  0  0  0  0
   -7.3388    1.7009   -7.1935 H   0  0  0  0  0  0  0  0  0  0  0  0
   -6.1695    0.4357   -6.8014 H   0  0  0  0  0  0  0  0  0  0  0  0
   -8.4434    1.3631   -4.9708 H   0  0  0  0  0  0  0  0  0  0  0  0
   -8.4391   -0.1259   -5.9403 H   0  0  0  0  0  0  0  0  0  0  0  0
   -7.2983    0.0607   -4.6021 H   0  0  0  0  0  0  0  0  0  0  0  0
  1 13  1  0  0  0  0
  1 22  1  0  0  0  0
  2 13  2  0  0  0  0
  3  9  1  0  0  0  0
  3 11  1  0  0  0  0
  3 16  1  0  0  0  0
  4 11  2  0  0  0  0
  4 12  1  0  0  0  0
  4 17  1  0  0  0  0
  5 18  1  0  0  0  0
  5 19  1  0  0  0  0
  6 11  1  0  0  0  0
  6 20  1  0  0  0  0
  6 21  1  0  0  0  0
  7  8  1  0  0  0  0
  7  9  1  0  0  0  0
  7 23  1  0  0  0  0
  7 24  1  0  0  0  0
  8 10  1  0  0  0  0
  8 25  1  0  0  0  0
  8 26  1  0  0  0  0
  9 27  1  0  0  0  0
  9 28  1  0  0  0  0
 10  5  1  0  0  0  0
 10 13  1  0  0  0  0
 10 29  1  6  0  0  0
 12 14  1  0  0  0  0
 12 30  1  0  0  0  0
 12 31  1  0  0  0  0
 14 15  1  0  0  0  0
 14 32  1  0  0  0  0
 14 33  1  0  0  0  0
 15 34  1  0  0  0  0
 15 35  1  0  0  0  0
 15 36  1  0  0  0  0
M  CHG  1   4   1
M  END
>  <DRUGBANK_ID>
DB02644

>  <SECONDARY_ACCESSION_NUMBERS>
EXPT00162

>  <COMMON_NAME>
N-omega-propyl-L-arginine

$$$$
