
 OpenBabel10282417143D

 28 29  0  0  0  0  0  0  0  0999 V2000
    0.1962    1.6452    1.9712 C   0  0  0  0  0  0  0  0  0  0  0  0
   -0.2665    0.9995    2.9098 O   0  0  0  0  0  0  0  0  0  0  0  0
    0.1706    1.1683    0.4946 C   0  0  2  0  0  0  0  0  0  0  0  0
    1.1142   -0.0095    0.1366 C   0  0  0  0  0  0  0  0  0  0  0  0
    0.5127    2.3001   -0.4209 N   0  0  0  0  0  0  0  0  0  0  0  0
    1.1510   -1.2056    1.0429 C   0  0  0  0  0  0  0  0  0  0  0  0
    0.7111   -2.4930    0.7899 C   0  0  0  0  0  0  0  0  0  0  0  0
    0.9728   -3.2645    1.8979 N   0  0  0  0  0  0  0  0  0  0  0  0
    1.5228   -2.4934    2.8956 C   0  0  0  0  0  0  0  0  0  0  0  0
    1.7275   -1.2280    2.3532 C   0  0  0  0  0  0  0  0  0  0  0  0
    2.3473   -0.2449    3.1487 C   0  0  0  0  0  0  0  0  0  0  0  0
    1.8477   -2.7962    4.2250 C   0  0  0  0  0  0  0  0  0  0  0  0
    2.3115   -1.7485    5.0323 C   0  0  0  0  0  0  0  0  0  0  0  0
    2.5511   -0.4860    4.5042 C   0  0  0  0  0  0  0  0  0  0  0  0
    0.7513    2.8662    2.2531 N   0  0  0  0  0  0  0  0  0  0  0  0
   -0.8714    0.8901    0.2976 H   0  0  0  0  0  0  0  0  0  0  0  0
    0.8620   -0.3500   -0.8789 H   0  0  0  0  0  0  0  0  0  0  0  0
    2.1465    0.3604    0.0744 H   0  0  0  0  0  0  0  0  0  0  0  0
   -0.0312    3.1211   -0.1749 H   0  0  0  0  0  0  0  0  0  0  0  0
    1.4982    2.5323   -0.2870 H   0  0  0  0  0  0  0  0  0  0  0  0
    0.2403   -2.9353   -0.0790 H   0  0  0  0  0  0  0  0  0  0  0  0
    0.7556   -4.2475    1.9883 H   0  0  0  0  0  0  0  0  0  0  0  0
    2.5459    0.7413    2.7455 H   0  0  0  0  0  0  0  0  0  0  0  0
    1.6887   -3.7841    4.6422 H   0  0  0  0  0  0  0  0  0  0  0  0
    2.4809   -1.9160    6.0924 H   0  0  0  0  0  0  0  0  0  0  0  0
    2.8615    0.3350    5.1438 H   0  0  0  0  0  0  0  0  0  0  0  0
    0.6906    3.0963    3.2397 H   0  0  0  0  0  0  0  0  0  0  0  0
    0.5459    3.6395    1.6381 H   0  0  0  0  0  0  0  0  0  0  0  0
  1  2  2  0  0  0  0
  3  5  1  0  0  0  0
  3 16  1  6  0  0  0
  3  4  1  0  0  0  0
  3  1  1  0  0  0  0
  4  6  1  0  0  0  0
  4 17  1  0  0  0  0
  4 18  1  0  0  0  0
  5 19  1  0  0  0  0
  5 20  1  0  0  0  0
  6  7  2  0  0  0  0
  6 10  1  0  0  0  0
  7  8  1  0  0  0  0
  7 21  1  0  0  0  0
  8  9  1  0  0  0  0
  8 22  1  0  0  0  0
  9 10  2  0  0  0  0
  9 12  1  0  0  0  0
 10 11  1  0  0  0  0
 11 14  2  0  0  0  0
 11 23  1  0  0  0  0
 12 13  2  0  0  0  0
 12 24  1  0  0  0  0
 13 14  1  0  0  0  0
 13 25  1  0  0  0  0
 14 26  1  0  0  0  0
 15  1  1  0  0  0  0
 15 27  1  0  0  0  0
 15 28  1  0  0  0  0
M  END
>  <DRUGBANK_ID>
DB04537

>  <SECONDARY_ACCESSION_NUMBERS>
EXPT02063

>  <COMMON_NAME>
Tryptophanamide

>  <CAS_NUMBER>
20696-57-5

>  <UNII>
0K2B9SB26H

>  <SYNONYMS>
(S)-alpha-Amino-1H-indole-3-propionamide; L-tryptophan amide; L-tryptophanamide

$$$$
