
 OpenBabel10282417193D

 64 67  0  0  1  0  0  0  0  0999 V2000
   -1.9032   -0.6977    3.0049 C   0  0  0  0  0  0  0  0  0  0  0  0
   -1.3810   -0.3541    1.6187 C   0  0  0  0  0  0  0  0  0  0  0  0
   -2.3714   -0.5260    0.4747 C   0  0  0  0  0  0  0  0  0  0  0  0
   -3.4638   -1.3854    0.7065 C   0  0  0  0  0  0  0  0  0  0  0  0
   -4.2908   -1.8558   -0.3104 C   0  0  0  0  0  0  0  0  0  0  0  0
   -4.0671   -1.4306   -1.6118 C   0  0  0  0  0  0  0  0  0  0  0  0
   -3.0683   -0.4757   -1.8762 C   0  0  0  0  0  0  0  0  0  0  0  0
   -2.2486    0.0210   -0.8215 C   0  0  0  0  0  0  0  0  0  0  0  0
   -1.4261    1.0450   -1.2179 O   0  0  0  0  0  0  0  0  0  0  0  0
   -0.7065    1.7977   -0.2508 C   0  0  0  0  0  0  0  0  0  0  0  0
   -1.5520    2.7152    0.6906 C   0  0  2  0  0  0  0  0  0  0  0  0
   -0.6115    3.3415    1.7328 C   0  0  0  0  0  0  0  0  0  0  0  0
   -1.3570    4.0641    2.7083 O   0  0  0  0  0  0  0  0  0  0  0  0
   -2.6640    2.1261    1.3886 O   0  0  0  0  0  0  0  0  0  0  0  0
   -2.8723   -0.0218   -3.3028 C   0  0  0  0  0  0  0  0  0  0  0  0
   -5.3006   -2.8385    0.0312 C   0  0  0  0  0  0  0  0  0  0  0  0
   -6.3042   -2.5619    0.9264 N   0  0  0  0  0  0  0  0  0  0  0  0
   -6.8943   -3.7378    1.0555 C   0  0  0  0  0  0  0  0  0  0  0  0
   -6.3130   -4.7143    0.3073 O   0  0  0  0  0  0  0  0  0  0  0  0
   -5.2531   -4.1165   -0.3801 N   0  0  0  0  0  0  0  0  0  0  0  0
   -8.0902   -4.0877    1.7774 C   0  0  0  0  0  0  0  0  0  0  0  0
   -9.2537   -3.3682    1.5467 C   0  0  0  0  0  0  0  0  0  0  0  0
  -10.4159   -3.6905    2.2329 C   0  0  0  0  0  0  0  0  0  0  0  0
  -10.4462   -4.6915    3.1480 N   0  0  0  0  0  0  0  0  0  0  0  0
   -9.3025   -5.3830    3.3835 C   0  0  0  0  0  0  0  0  0  0  0  0
   -8.1168   -5.1186    2.7135 C   0  0  0  0  0  0  0  0  0  0  0  0
   -9.4381   -6.3537    4.3439 O   0  0  0  0  0  0  0  0  0  0  0  0
   -8.2657   -7.0957    4.6634 C   0  0  0  0  0  0  0  0  0  0  0  0
  -11.6908   -2.9246    1.9416 C   0  0  0  0  0  0  0  0  0  0  0  0
  -12.1592   -3.0955    0.4899 C   0  0  0  0  0  0  0  0  0  0  0  0
  -12.9726   -1.8464    0.1631 C   0  0  0  0  0  0  0  0  0  0  0  0
  -12.6583   -0.8180    1.2453 C   0  0  0  0  0  0  0  0  0  0  0  0
  -11.5231   -1.4050    2.0691 C   0  0  0  0  0  0  0  0  0  0  0  0
   -2.8717   -0.2151    3.1891 H   0  0  0  0  0  0  0  0  0  0  0  0
   -1.2129   -0.3371    3.7722 H   0  0  0  0  0  0  0  0  0  0  0  0
   -2.0071   -1.7786    3.1085 H   0  0  0  0  0  0  0  0  0  0  0  0
   -0.4671   -0.9106    1.3872 H   0  0  0  0  0  0  0  0  0  0  0  0
   -1.0408    0.6567    1.7659 H   0  0  0  0  0  0  0  0  0  0  0  0
   -3.6817   -1.7395    1.7098 H   0  0  0  0  0  0  0  0  0  0  0  0
   -4.6792   -1.8269   -2.4184 H   0  0  0  0  0  0  0  0  0  0  0  0
    0.0228    1.1435    0.2411 H   0  0  0  0  0  0  0  0  0  0  0  0
   -0.0527    2.4720   -0.8192 H   0  0  0  0  0  0  0  0  0  0  0  0
   -2.0322    3.4816    0.0809 H   0  0  0  0  0  0  0  0  0  0  0  0
   -0.0529    2.5737    2.2823 H   0  0  0  0  0  0  0  0  0  0  0  0
    0.1085    4.0075    1.2541 H   0  0  0  0  0  0  0  0  0  0  0  0
   -2.0789    4.5218    2.2403 H   0  0  0  0  0  0  0  0  0  0  0  0
   -2.4368    2.0394    2.3359 H   0  0  0  0  0  0  0  0  0  0  0  0
   -3.0617    1.0510   -3.4035 H   0  0  0  0  0  0  0  0  0  0  0  0
   -1.8530   -0.2483   -3.6333 H   0  0  0  0  0  0  0  0  0  0  0  0
   -3.5539   -0.5429   -3.9861 H   0  0  0  0  0  0  0  0  0  0  0  0
   -9.2460   -2.5657    0.8137 H   0  0  0  0  0  0  0  0  0  0  0  0
   -7.2072   -5.6704    2.9080 H   0  0  0  0  0  0  0  0  0  0  0  0
   -7.9031   -7.6523    3.7917 H   0  0  0  0  0  0  0  0  0  0  0  0
   -7.4819   -6.4428    5.0648 H   0  0  0  0  0  0  0  0  0  0  0  0
   -8.5141   -7.8263    5.4388 H   0  0  0  0  0  0  0  0  0  0  0  0
  -12.4917   -3.2552    2.6175 H   0  0  0  0  0  0  0  0  0  0  0  0
  -11.3142   -3.1543   -0.2068 H   0  0  0  0  0  0  0  0  0  0  0  0
  -12.7418   -4.0122    0.3500 H   0  0  0  0  0  0  0  0  0  0  0  0
  -12.7083   -1.4687   -0.8314 H   0  0  0  0  0  0  0  0  0  0  0  0
  -14.0448   -2.0680    0.1504 H   0  0  0  0  0  0  0  0  0  0  0  0
  -12.3756    0.1487    0.8142 H   0  0  0  0  0  0  0  0  0  0  0  0
  -13.5398   -0.6533    1.8736 H   0  0  0  0  0  0  0  0  0  0  0  0
  -11.5462   -1.0696    3.1108 H   0  0  0  0  0  0  0  0  0  0  0  0
  -10.5750   -1.0552    1.6459 H   0  0  0  0  0  0  0  0  0  0  0  0
  1  2  1  0  0  0  0
  1 34  1  0  0  0  0
  1 35  1  0  0  0  0
  1 36  1  0  0  0  0
  2  3  1  0  0  0  0
  2 37  1  0  0  0  0
  2 38  1  0  0  0  0
  3  4  2  0  0  0  0
  3  8  1  0  0  0  0
  4  5  1  0  0  0  0
  4 39  1  0  0  0  0
  5  6  2  0  0  0  0
  5 16  1  0  0  0  0
  6  7  1  0  0  0  0
  6 40  1  0  0  0  0
  7  8  2  0  0  0  0
  7 15  1  0  0  0  0
  8  9  1  0  0  0  0
  9 10  1  0  0  0  0
 10 41  1  0  0  0  0
 10 42  1  0  0  0  0
 11 14  1  0  0  0  0
 11 43  1  6  0  0  0
 11 12  1  0  0  0  0
 11 10  1  0  0  0  0
 12 13  1  0  0  0  0
 12 44  1  0  0  0  0
 12 45  1  0  0  0  0
 13 46  1  0  0  0  0
 14 47  1  0  0  0  0
 15 48  1  0  0  0  0
 15 49  1  0  0  0  0
 15 50  1  0  0  0  0
 16 17  1  0  0  0  0
 16 20  2  0  0  0  0
 17 18  2  0  0  0  0
 18 19  1  0  0  0  0
 18 21  1  0  0  0  0
 19 20  1  0  0  0  0
 21 22  2  0  0  0  0
 21 26  1  0  0  0  0
 22 23  1  0  0  0  0
 22 51  1  0  0  0  0
 23 24  2  0  0  0  0
 23 29  1  0  0  0  0
 24 25  1  0  0  0  0
 25 26  2  0  0  0  0
 25 27  1  0  0  0  0
 26 52  1  0  0  0  0
 27 28  1  0  0  0  0
 28 53  1  0  0  0  0
 28 54  1  0  0  0  0
 28 55  1  0  0  0  0
 29 30  1  0  0  0  0
 29 33  1  0  0  0  0
 29 56  1  0  0  0  0
 30 31  1  0  0  0  0
 30 57  1  0  0  0  0
 30 58  1  0  0  0  0
 31 32  1  0  0  0  0
 31 59  1  0  0  0  0
 31 60  1  0  0  0  0
 32 33  1  0  0  0  0
 32 61  1  0  0  0  0
 32 62  1  0  0  0  0
 33 63  1  0  0  0  0
 33 64  1  0  0  0  0
M  END
>  <DRUGBANK_ID>
DB12705

>  <COMMON_NAME>
Cenerimod

>  <CAS_NUMBER>
1262414-04-9

>  <UNII>
Y333RS1786

>  <SYNONYMS>
Cenerimod

$$$$
