
 OpenBabel10282417123D

 62 64  0  0  1  0  0  0  0  0999 V2000
    3.2918   -1.0575    0.6182 C   0  0  0  0  0  0  0  0  0  0  0  0
   -3.2112   -1.3795   -0.4517 C   0  0  0  0  0  0  0  0  0  0  0  0
    3.8522    0.0856    0.2016 C   0  0  0  0  0  0  0  0  0  0  0  0
   -3.8001   -0.1573   -0.3506 C   0  0  0  0  0  0  0  0  0  0  0  0
    1.8914   -1.0543    0.6534 C   0  0  0  0  0  0  0  0  0  0  0  0
   -1.8097   -1.3836   -0.6662 C   0  0  0  0  0  0  0  0  0  0  0  0
    2.9913    1.1694    0.0075 C   0  0  0  0  0  0  0  0  0  0  0  0
   -2.9832    0.9986   -0.5040 C   0  0  0  0  0  0  0  0  0  0  0  0
   -1.1971   -1.8044    7.2307 C   0  0  0  0  0  0  0  0  0  0  0  0
   -0.7627   -2.3505    5.8784 C   0  0  0  0  0  0  0  0  0  0  0  0
    0.3559   -2.7881   -0.1863 C   0  0  0  0  0  0  0  0  0  0  0  0
   -0.4147    1.5048    2.9311 C   0  0  0  0  0  0  0  0  0  0  0  0
    0.9169   -0.1308   -0.0502 C   0  0  0  0  0  0  0  0  0  0  0  0
   -0.7635   -0.2071   -0.6656 C   0  0  0  0  0  0  0  0  0  0  0  0
    1.5500    1.0800   -0.1058 C   0  0  0  0  0  0  0  0  0  0  0  0
   -1.4942    1.0063   -0.6146 C   0  0  0  0  0  0  0  0  0  0  0  0
   -2.7284   -1.7494    7.4205 C   0  0  1  0  0  0  0  0  0  0  0  0
   -0.8589    0.0124    3.1369 C   0  0  1  0  0  0  0  0  0  0  0  0
   -1.3299   -1.4602    4.8455 C   0  0  0  0  0  0  0  0  0  0  0  0
    1.7419   -2.7695   -1.1670 C   0  0  0  0  0  0  0  0  0  0  0  0
    0.7405    2.3287   -0.1639 C   0  0  2  0  0  0  0  0  0  0  0  0
   -0.7935    2.2441   -0.0641 C   0  0  2  0  0  0  0  0  0  0  0  0
   -0.8899   -0.8786    1.9017 C   0  0  0  0  0  0  0  0  0  0  0  0
   -3.3730   -3.1414    7.1980 C   0  0  0  0  0  0  0  0  0  0  0  0
   -3.0201   -1.2028    8.7601 N   0  0  0  0  0  0  0  0  0  0  0  0
   -0.1860   -2.0837    1.4408 N   0  0  0  0  0  0  0  0  0  0  0  0
   -0.3589   -0.6951    4.2358 N   0  0  0  0  0  0  0  0  0  0  0  0
   -2.5330   -1.3802    4.6272 O   0  0  0  0  0  0  0  0  0  0  0  0
    2.4802   -3.8791   -0.9784 O   0  0  0  0  0  0  0  0  0  0  0  0
    2.1271   -1.8869   -1.9273 O   0  0  0  0  0  0  0  0  0  0  0  0
    1.1106    3.0305   -1.3425 O   0  0  0  0  0  0  0  0  0  0  0  0
   -1.7491   -0.2872    1.3644 O   0  0  0  0  0  0  0  0  0  0  0  0
   -4.0356   -3.6320    8.2714 O   0  0  0  0  0  0  0  0  0  0  0  0
   -3.2826   -3.8036    6.1745 O   0  0  0  0  0  0  0  0  0  0  0  0
   -1.3360    2.7010    1.7401 S   0  0  0  0  0  0  0  0  0  0  0  0
   -3.2006   -1.0419    6.7329 H   0  0  0  0  0  0  0  0  0  0  0  0
   -1.9483    0.1805    3.3302 H   0  0  0  0  0  0  0  0  0  0  0  0
    1.0843    2.9227    0.6921 H   0  0  0  0  0  0  0  0  0  0  0  0
   -1.1922    3.0540   -0.6919 H   0  0  0  0  0  0  0  0  0  0  0  0
    3.8518   -1.9984    0.7214 H   0  0  0  0  0  0  0  0  0  0  0  0
   -3.6947   -2.2937   -0.0713 H   0  0  0  0  0  0  0  0  0  0  0  0
    4.9200    0.1127    0.0395 H   0  0  0  0  0  0  0  0  0  0  0  0
   -4.8099   -0.1123    0.0550 H   0  0  0  0  0  0  0  0  0  0  0  0
    1.7443   -2.0314    1.1145 H   0  0  0  0  0  0  0  0  0  0  0  0
   -1.6195   -2.4016   -0.3160 H   0  0  0  0  0  0  0  0  0  0  0  0
    3.4697    2.1296   -0.1126 H   0  0  0  0  0  0  0  0  0  0  0  0
   -3.4723    1.9192   -0.1851 H   0  0  0  0  0  0  0  0  0  0  0  0
   -0.7347   -2.4318    7.9973 H   0  0  0  0  0  0  0  0  0  0  0  0
   -0.7799   -0.7910    7.3464 H   0  0  0  0  0  0  0  0  0  0  0  0
   -1.0960   -3.3651    5.6637 H   0  0  0  0  0  0  0  0  0  0  0  0
    0.3271   -2.3586    5.7890 H   0  0  0  0  0  0  0  0  0  0  0  0
   -0.0524   -3.7915   -0.2103 H   0  0  0  0  0  0  0  0  0  0  0  0
   -0.0937   -2.2851   -1.0453 H   0  0  0  0  0  0  0  0  0  0  0  0
    0.6548    1.5800    2.7571 H   0  0  0  0  0  0  0  0  0  0  0  0
   -0.5973    2.0069    3.9015 H   0  0  0  0  0  0  0  0  0  0  0  0
   -4.0160   -1.0288    8.8729 H   0  0  0  0  0  0  0  0  0  0  0  0
   -2.6079   -1.7507    9.5059 H   0  0  0  0  0  0  0  0  0  0  0  0
    0.2901   -2.5377    2.1978 H   0  0  0  0  0  0  0  0  0  0  0  0
    0.5837   -1.0354    4.1556 H   0  0  0  0  0  0  0  0  0  0  0  0
    1.9599   -4.5304   -0.4879 H   0  0  0  0  0  0  0  0  0  0  0  0
    1.9696    3.4319   -1.1446 H   0  0  0  0  0  0  0  0  0  0  0  0
   -4.0502   -3.0023    9.0111 H   0  0  0  0  0  0  0  0  0  0  0  0
  1 40  1  0  0  0  0
  2 41  1  0  0  0  0
  3  1  2  0  0  0  0
  3 42  1  0  0  0  0
  4  2  2  0  0  0  0
  4 43  1  0  0  0  0
  5  1  1  0  0  0  0
  5 44  1  0  0  0  0
  6  2  1  0  0  0  0
  6 45  1  0  0  0  0
  7  3  1  0  0  0  0
  7 46  1  0  0  0  0
  8  4  1  0  0  0  0
  8 47  1  0  0  0  0
  9 48  1  0  0  0  0
  9 49  1  0  0  0  0
 10  9  1  0  0  0  0
 10 50  1  0  0  0  0
 10 51  1  0  0  0  0
 11 52  1  0  0  0  0
 11 53  1  0  0  0  0
 12 54  1  0  0  0  0
 12 55  1  0  0  0  0
 13  5  2  0  0  0  0
 14  6  2  0  0  0  0
 14 13  1  0  0  0  0
 15  7  2  0  0  0  0
 15 13  1  0  0  0  0
 16  8  2  0  0  0  0
 16 14  1  0  0  0  0
 17  9  1  0  0  0  0
 17 25  1  0  0  0  0
 17 36  1  6  0  0  0
 18 12  1  0  0  0  0
 18 27  1  0  0  0  0
 18 37  1  1  0  0  0
 19 10  1  0  0  0  0
 20 11  1  0  0  0  0
 21 15  1  0  0  0  0
 21 38  1  1  0  0  0
 21 31  1  0  0  0  0
 22 16  1  0  0  0  0
 22 21  1  0  0  0  0
 22 35  1  0  0  0  0
 22 39  1  6  0  0  0
 23 18  1  0  0  0  0
 24 17  1  0  0  0  0
 25 56  1  0  0  0  0
 25 57  1  0  0  0  0
 26 11  1  0  0  0  0
 26 23  1  0  0  0  0
 26 58  1  0  0  0  0
 27 19  1  0  0  0  0
 27 59  1  0  0  0  0
 28 19  2  0  0  0  0
 29 20  1  0  0  0  0
 29 60  1  0  0  0  0
 30 20  2  0  0  0  0
 31 61  1  0  0  0  0
 32 23  2  0  0  0  0
 33 24  1  0  0  0  0
 33 62  1  0  0  0  0
 34 24  2  0  0  0  0
 35 12  1  0  0  0  0
M  END
>  <DRUGBANK_ID>
DB01834

>  <SECONDARY_ACCESSION_NUMBERS>
EXPT01641

>  <COMMON_NAME>
(9R,10R)-9-(S-glutathionyl)-10-hydroxy-9,10-dihydrophenanthrene

$$$$
