
 OpenBabel10282417213D

 82 85  0  0  0  0  0  0  0  0999 V2000
    2.7687    0.3550    0.2057 C   0  0  0  0  0  0  0  0  0  0  0  0
   -2.0833   -0.1698   -1.8822 C   0  0  0  0  0  0  0  0  0  0  0  0
    0.4769   -0.2557   -2.0945 C   0  0  0  0  0  0  0  0  0  0  0  0
   -0.0911   -4.1978   -3.3209 C   0  0  0  0  0  0  0  0  0  0  0  0
    5.8551   -4.6566    5.1300 C   0  0  0  0  0  0  0  0  0  0  0  0
   -1.0212    1.8848    0.6876 C   0  0  0  0  0  0  0  0  0  0  0  0
   -1.9196    0.9191    0.8397 C   0  0  0  0  0  0  0  0  0  0  0  0
    0.5043    1.7016    0.5851 C   0  0  0  0  0  0  0  0  0  0  0  0
   -1.1537   -0.0818    0.4012 C   0  0  0  0  0  0  0  0  0  0  0  0
    3.0101   -4.5130    3.5173 C   0  0  0  0  0  0  0  0  0  0  0  0
    4.8592   -4.9572    1.9718 C   0  0  0  0  0  0  0  0  0  0  0  0
    3.7179   -3.4405    4.3555 C   0  0  0  0  0  0  0  0  0  0  0  0
    5.8029   -4.0119    2.7288 C   0  0  0  0  0  0  0  0  0  0  0  0
   -1.0580   -3.6107    0.3905 C   0  0  0  0  0  0  0  0  0  0  0  0
   -0.7231   -1.6462    1.8721 C   0  0  0  0  0  0  0  0  0  0  0  0
   -0.4115   -3.3811    3.0203 C   0  0  0  0  0  0  0  0  0  0  0  0
    2.1378   -2.7228    0.9670 C   0  0  0  0  0  0  0  0  0  0  0  0
    1.8055   -4.4564   -1.0461 C   0  0  0  0  0  0  0  0  0  0  0  0
    5.9095   -2.2711    4.7914 C   0  0  0  0  0  0  0  0  0  0  0  0
    1.3240    0.5178    0.5262 C   0  0  0  0  0  0  0  0  0  0  0  0
   -0.9982   -2.2981    0.2894 C   0  0  0  0  0  0  0  0  0  0  0  0
   -0.6487   -4.1048    1.6952 C   0  0  0  0  0  0  0  0  0  0  0  0
   -0.4953   -2.0500    3.1451 C   0  0  0  0  0  0  0  0  0  0  0  0
    0.5581   -0.5431    0.2756 C   0  0  0  0  0  0  0  0  0  0  0  0
    1.3654   -2.1530   -0.1295 C   0  0  0  0  0  0  0  0  0  0  0  0
    1.1684   -3.1820   -1.2365 C   0  0  0  0  0  0  0  0  0  0  0  0
    2.7370   -4.0242    1.0330 C   0  0  0  0  0  0  0  0  0  0  0  0
   -0.8039   -2.2166   -2.4938 C   0  0  0  0  0  0  0  0  0  0  0  0
   -0.8738   -1.2881   -1.4183 C   0  0  0  0  0  0  0  0  0  0  0  0
   -0.3641   -5.5612    1.6745 C   0  0  0  0  0  0  0  0  0  0  0  0
   -0.3314   -0.9885    4.2343 C   0  0  0  0  0  0  0  0  0  0  0  0
    0.8139   -5.8888    2.2540 F   0  0  0  0  0  0  0  0  0  0  0  0
   -1.3372   -6.1962    2.3588 F   0  0  0  0  0  0  0  0  0  0  0  0
   -0.3438   -6.0776    0.4179 F   0  0  0  0  0  0  0  0  0  0  0  0
    0.7179   -0.1217    4.0609 F   0  0  0  0  0  0  0  0  0  0  0  0
   -1.4259   -0.1679    4.3177 F   0  0  0  0  0  0  0  0  0  0  0  0
   -0.1592   -1.5152    5.4721 F   0  0  0  0  0  0  0  0  0  0  0  0
    2.5726   -4.8713    0.0134 N   0  0  0  0  0  0  0  0  0  0  0  0
    0.1858   -3.1479   -2.3664 N   0  0  0  0  0  0  0  0  0  0  0  0
    3.4773   -4.4599    2.1306 N   0  0  0  0  0  0  0  0  0  0  0  0
    5.3030   -3.5831    4.2289 N   0  3  0  0  0  0  0  0  0  0  0  0
   -1.5914   -2.1180   -3.4845 O   0  0  0  0  0  0  0  0  0  0  0  0
    4.4468   -1.4413    2.2217 O   0  0  0  0  0  0  0  0  0  0  0  0
    6.2479    0.2455    2.6035 O   0  5  0  0  0  0  0  0  0  0  0  0
    6.4872   -1.4138    1.0552 O   0  0  0  0  0  0  0  0  0  0  0  0
    5.5231   -1.0986    4.1726 O   0  0  0  0  0  0  0  0  0  0  0  0
    6.0318   -1.2649    2.5275 P   0  0  3  0  0  0  0  0  0  0  0  0
    3.2244   -0.2411    0.9832 H   0  0  0  0  0  0  0  0  0  0  0  0
    2.9427   -0.2181   -0.7218 H   0  0  0  0  0  0  0  0  0  0  0  0
    3.2548    1.3083    0.0882 H   0  0  0  0  0  0  0  0  0  0  0  0
   -2.1230    0.7940   -1.3617 H   0  0  0  0  0  0  0  0  0  0  0  0
   -1.8995    0.2829   -2.8674 H   0  0  0  0  0  0  0  0  0  0  0  0
   -3.0638   -0.6150   -1.7591 H   0  0  0  0  0  0  0  0  0  0  0  0
    1.4519   -0.7581   -2.1706 H   0  0  0  0  0  0  0  0  0  0  0  0
    0.2574    0.1749   -3.0767 H   0  0  0  0  0  0  0  0  0  0  0  0
    0.6470    0.6994   -1.5882 H   0  0  0  0  0  0  0  0  0  0  0  0
   -1.1744   -4.4319   -3.2818 H   0  0  0  0  0  0  0  0  0  0  0  0
    0.0964   -3.7868   -4.3201 H   0  0  0  0  0  0  0  0  0  0  0  0
    0.4342   -5.1279   -3.1872 H   0  0  0  0  0  0  0  0  0  0  0  0
    6.9482   -4.6244    5.0412 H   0  0  0  0  0  0  0  0  0  0  0  0
    5.5618   -4.4510    6.1621 H   0  0  0  0  0  0  0  0  0  0  0  0
    5.4785   -5.6166    4.7858 H   0  0  0  0  0  0  0  0  0  0  0  0
   -1.4821    2.7575    0.2457 H   0  0  0  0  0  0  0  0  0  0  0  0
   -3.0135    0.7857    0.7415 H   0  0  0  0  0  0  0  0  0  0  0  0
    0.9773    2.5890    0.1964 H   0  0  0  0  0  0  0  0  0  0  0  0
   -2.0474   -0.8019    0.2251 H   0  0  0  0  0  0  0  0  0  0  0  0
    1.9306   -4.4476    3.6131 H   0  0  0  0  0  0  0  0  0  0  0  0
    3.2737   -5.4905    3.9473 H   0  0  0  0  0  0  0  0  0  0  0  0
    5.0017   -5.9508    2.3947 H   0  0  0  0  0  0  0  0  0  0  0  0
    5.1497   -4.9659    0.9136 H   0  0  0  0  0  0  0  0  0  0  0  0
    3.4032   -2.4470    4.0178 H   0  0  0  0  0  0  0  0  0  0  0  0
    3.4482   -3.5060    5.4183 H   0  0  0  0  0  0  0  0  0  0  0  0
    6.8842   -4.1803    2.7495 H   0  0  0  0  0  0  0  0  0  0  0  0
    5.7170   -3.2207    2.0325 H   0  0  0  0  0  0  0  0  0  0  0  0
   -1.1409   -4.2375   -0.4863 H   0  0  0  0  0  0  0  0  0  0  0  0
   -0.4839   -0.5660    2.0801 H   0  0  0  0  0  0  0  0  0  0  0  0
   -0.1321   -3.9220    3.9138 H   0  0  0  0  0  0  0  0  0  0  0  0
    2.1846   -2.1179    1.8626 H   0  0  0  0  0  0  0  0  0  0  0  0
    1.6042   -5.3081   -1.6997 H   0  0  0  0  0  0  0  0  0  0  0  0
    5.5910   -2.1935    5.8416 H   0  0  0  0  0  0  0  0  0  0  0  0
    7.0026   -2.3586    4.7923 H   0  0  0  0  0  0  0  0  0  0  0  0
    4.1835   -2.3416    2.0096 H   0  0  0  0  0  0  0  0  0  0  0  0
  1 48  1  0  0  0  0
  1 49  1  0  0  0  0
  1 50  1  0  0  0  0
  2 51  1  0  0  0  0
  2 52  1  0  0  0  0
  2 53  1  0  0  0  0
  3 54  1  0  0  0  0
  3 55  1  0  0  0  0
  3 56  1  0  0  0  0
  4 57  1  0  0  0  0
  4 58  1  0  0  0  0
  4 59  1  0  0  0  0
  5 60  1  0  0  0  0
  5 61  1  0  0  0  0
  5 62  1  0  0  0  0
  6 63  1  0  0  0  0
  7  6  2  0  0  0  0
  7 64  1  0  0  0  0
  8  6  1  0  0  0  0
  8 65  1  0  0  0  0
  9  7  1  0  0  0  0
  9 66  1  0  0  0  0
 10 67  1  0  0  0  0
 10 68  1  0  0  0  0
 11 69  1  0  0  0  0
 11 70  1  0  0  0  0
 12 10  1  0  0  0  0
 12 71  1  0  0  0  0
 12 72  1  0  0  0  0
 13 11  1  0  0  0  0
 13 73  1  0  0  0  0
 13 74  1  0  0  0  0
 14 75  1  0  0  0  0
 15 76  1  0  0  0  0
 16 77  1  0  0  0  0
 17 78  1  0  0  0  0
 18 79  1  0  0  0  0
 19 80  1  0  0  0  0
 19 81  1  0  0  0  0
 20  1  1  0  0  0  0
 20  8  2  0  0  0  0
 21 14  2  0  0  0  0
 21 15  1  0  0  0  0
 22 14  1  0  0  0  0
 22 16  2  0  0  0  0
 23 15  2  0  0  0  0
 23 16  1  0  0  0  0
 24  9  2  0  0  0  0
 24 20  1  0  0  0  0
 25 17  2  0  0  0  0
 25 24  1  0  0  0  0
 26 18  2  0  0  0  0
 26 25  1  0  0  0  0
 27 17  1  0  0  0  0
 29  2  1  0  0  0  0
 29  3  1  0  0  0  0
 29 21  1  0  0  0  0
 29 28  1  0  0  0  0
 30 22  1  0  0  0  0
 31 23  1  0  0  0  0
 32 30  1  0  0  0  0
 33 30  1  0  0  0  0
 34 30  1  0  0  0  0
 35 31  1  0  0  0  0
 36 31  1  0  0  0  0
 37 31  1  0  0  0  0
 38 18  1  0  0  0  0
 38 27  2  0  0  0  0
 39  4  1  0  0  0  0
 39 26  1  0  0  0  0
 39 28  1  0  0  0  0
 40 10  1  0  0  0  0
 40 11  1  0  0  0  0
 40 27  1  0  0  0  0
 41  5  1  0  0  0  0
 41 12  1  0  0  0  0
 41 13  1  0  0  0  0
 41 19  1  0  0  0  0
 42 28  2  0  0  0  0
 43 82  1  0  0  0  0
 46 19  1  0  0  0  0
 47 43  1  0  0  0  0
 47 44  1  0  0  0  0
 47 45  2  0  0  0  0
 47 46  1  0  0  0  0
M  CHG  2  41   1  44  -1
M  END
>  <DRUGBANK_ID>
DB14019

>  <COMMON_NAME>
Fosnetupitant

>  <CAS_NUMBER>
1703748-89-3

>  <UNII>
T672P80L2S

>  <SYNONYMS>
Fosnetupitant

$$$$
