
 OpenBabel10282417203D

 52 55  0  0  0  0  0  0  0  0999 V2000
    1.0437   -0.0402   -0.1412 C   0  0  0  0  0  0  0  0  0  0  0  0
    0.5578   -1.4384    0.2226 C   0  0  3  0  0  0  0  0  0  0  0  0
    1.0230   -1.8922    1.5853 C   0  0  0  0  0  0  0  0  0  0  0  0
    1.5090   -0.9882    2.5354 C   0  0  0  0  0  0  0  0  0  0  0  0
    1.8897   -1.4076    3.8000 C   0  0  0  0  0  0  0  0  0  0  0  0
    1.8003   -2.7508    4.1676 C   0  0  0  0  0  0  0  0  0  0  0  0
    1.3249   -3.6687    3.2152 C   0  0  0  0  0  0  0  0  0  0  0  0
    0.9399   -3.2442    1.9348 C   0  0  0  0  0  0  0  0  0  0  0  0
    1.2130   -5.1090    3.5395 C   0  0  0  0  0  0  0  0  0  0  0  0
    0.8000   -5.9323    2.7217 O   0  0  0  0  0  0  0  0  0  0  0  0
    1.6050   -5.4861    4.8112 O   0  0  0  0  0  0  0  0  0  0  0  0
    2.1132   -4.5707    5.7523 C   0  0  0  0  0  0  0  0  0  0  0  0
    2.1986   -3.2145    5.4877 C   0  0  0  0  0  0  0  0  0  0  0  0
    2.6780   -2.3838    6.5175 C   0  0  0  0  0  0  0  0  0  0  0  0
    3.0591   -2.8949    7.7666 C   0  0  0  0  0  0  0  0  0  0  0  0
    2.9859   -4.2779    7.9848 C   0  0  0  0  0  0  0  0  0  0  0  0
    2.5199   -5.1086    6.9619 C   0  0  0  0  0  0  0  0  0  0  0  0
    3.2999   -4.7405    9.2325 O   0  0  0  0  0  0  0  0  0  0  0  0
    3.0736   -6.1032    9.5849 C   0  0  0  0  0  0  0  0  0  0  0  0
    1.6223   -6.5281    9.5287 C   0  0  0  0  0  0  0  0  0  0  0  0
    1.3082   -7.8887    9.4897 C   0  0  0  0  0  0  0  0  0  0  0  0
    0.0227   -8.2916    9.1195 C   0  0  0  0  0  0  0  0  0  0  0  0
   -0.9816   -7.3475    8.8865 C   0  0  0  0  0  0  0  0  0  0  0  0
   -0.7061   -5.9989    9.0835 C   0  0  0  0  0  0  0  0  0  0  0  0
    0.5865   -5.5929    9.3868 C   0  0  0  0  0  0  0  0  0  0  0  0
   -2.1858   -7.8426    8.4655 O   0  0  0  0  0  0  0  0  0  0  0  0
   -3.1841   -6.8659    8.1798 C   0  0  0  0  0  0  0  0  0  0  0  0
    3.4509   -1.9235    8.6570 O   0  0  0  0  0  0  0  0  0  0  0  0
    3.8091   -2.3429    9.9699 C   0  0  0  0  0  0  0  0  0  0  0  0
   -0.8664   -1.4407    0.2071 O   0  0  0  0  0  0  0  0  0  0  0  0
    0.6507    0.7082    0.5584 H   0  0  0  0  0  0  0  0  0  0  0  0
    0.6832    0.2580   -1.1272 H   0  0  0  0  0  0  0  0  0  0  0  0
    2.1381    0.0074   -0.1249 H   0  0  0  0  0  0  0  0  0  0  0  0
    0.9068   -2.1461   -0.5382 H   0  0  0  0  0  0  0  0  0  0  0  0
    1.6100    0.0721    2.3262 H   0  0  0  0  0  0  0  0  0  0  0  0
    2.2560   -0.6460    4.4809 H   0  0  0  0  0  0  0  0  0  0  0  0
    0.5676   -3.9705    1.2109 H   0  0  0  0  0  0  0  0  0  0  0  0
    2.7621   -1.3089    6.3796 H   0  0  0  0  0  0  0  0  0  0  0  0
    2.4020   -6.1781    7.0877 H   0  0  0  0  0  0  0  0  0  0  0  0
    3.7059   -6.7285    8.9422 H   0  0  0  0  0  0  0  0  0  0  0  0
    3.4319   -6.2223   10.6122 H   0  0  0  0  0  0  0  0  0  0  0  0
    2.0720   -8.6374    9.6874 H   0  0  0  0  0  0  0  0  0  0  0  0
   -0.1878   -9.3493    8.9850 H   0  0  0  0  0  0  0  0  0  0  0  0
   -1.4566   -5.2258    8.9672 H   0  0  0  0  0  0  0  0  0  0  0  0
    0.7844   -4.5233    9.4102 H   0  0  0  0  0  0  0  0  0  0  0  0
   -3.4546   -6.3163    9.0881 H   0  0  0  0  0  0  0  0  0  0  0  0
   -2.8604   -6.1784    7.3884 H   0  0  0  0  0  0  0  0  0  0  0  0
   -4.0783   -7.3833    7.8245 H   0  0  0  0  0  0  0  0  0  0  0  0
    2.9466   -2.7783   10.4885 H   0  0  0  0  0  0  0  0  0  0  0  0
    4.6662   -3.0246    9.9418 H   0  0  0  0  0  0  0  0  0  0  0  0
    4.1218   -1.4710   10.5491 H   0  0  0  0  0  0  0  0  0  0  0  0
   -1.1649   -0.9067    0.9631 H   0  0  0  0  0  0  0  0  0  0  0  0
  1  2  1  0  0  0  0
  1 31  1  0  0  0  0
  1 32  1  0  0  0  0
  1 33  1  0  0  0  0
  2  3  1  0  0  0  0
  2 30  1  0  0  0  0
  2 34  1  0  0  0  0
  3  4  2  0  0  0  0
  3  8  1  0  0  0  0
  4  5  1  0  0  0  0
  4 35  1  0  0  0  0
  5  6  2  0  0  0  0
  5 36  1  0  0  0  0
  6  7  1  0  0  0  0
  6 13  1  0  0  0  0
  7  8  2  0  0  0  0
  7  9  1  0  0  0  0
  8 37  1  0  0  0  0
  9 10  2  0  0  0  0
  9 11  1  0  0  0  0
 11 12  1  0  0  0  0
 12 13  1  0  0  0  0
 12 17  2  0  0  0  0
 13 14  2  0  0  0  0
 14 15  1  0  0  0  0
 14 38  1  0  0  0  0
 15 16  2  0  0  0  0
 15 28  1  0  0  0  0
 16 17  1  0  0  0  0
 16 18  1  0  0  0  0
 17 39  1  0  0  0  0
 18 19  1  0  0  0  0
 19 20  1  0  0  0  0
 19 40  1  0  0  0  0
 19 41  1  0  0  0  0
 20 21  2  0  0  0  0
 20 25  1  0  0  0  0
 21 22  1  0  0  0  0
 21 42  1  0  0  0  0
 22 23  2  0  0  0  0
 22 43  1  0  0  0  0
 23 24  1  0  0  0  0
 23 26  1  0  0  0  0
 24 25  2  0  0  0  0
 24 44  1  0  0  0  0
 25 45  1  0  0  0  0
 26 27  1  0  0  0  0
 27 46  1  0  0  0  0
 27 47  1  0  0  0  0
 27 48  1  0  0  0  0
 28 29  1  0  0  0  0
 29 49  1  0  0  0  0
 29 50  1  0  0  0  0
 29 51  1  0  0  0  0
 30 52  1  0  0  0  0
M  END
>  <DRUGBANK_ID>
DB12812

>  <COMMON_NAME>
Palomid 529

>  <CAS_NUMBER>
914913-88-5

>  <UNII>
XV9409EWG4

>  <SYNONYMS>
6H-DIBENZO(B,D)PYRAN-6-ONE, 8-(1-HYDROXYETHYL)-2-METHOXY-3-((4-METHOXYPHENYL)METHOXY)-; 8-(1-HYDROXY-ETHYL)-2-METHOXY-3-(4-METHOXY-BENZYLOXY)-BENZO(C)CHROMEN-6-ONE; 8-(1-Hydroxy-ethyl)-2-methoxy-3-(4-methoxy-benzyloxy)-benzo[c]chromen-6-one; PALOMID-529

$$$$
