
 OpenBabel10282417233D

 50 53  0  0  0  0  0  0  0  0999 V2000
    1.0061    0.1114   -0.0539 C   0  0  0  0  0  0  0  0  0  0  0  0
    0.5238   -1.3035   -0.3158 C   0  0  0  0  0  0  0  0  0  0  0  0
    0.9345   -2.3369    0.6936 C   0  0  0  0  0  0  0  0  0  0  0  0
    0.6609   -3.6143    0.5239 N   0  0  0  0  0  0  0  0  0  0  0  0
    1.0333   -4.3270    1.6423 C   0  0  0  0  0  0  0  0  0  0  0  0
    1.6718   -3.5998    2.6317 C   0  0  0  0  0  0  0  0  0  0  0  0
    1.7422   -1.9557    2.1670 S   0  0  0  0  0  0  0  0  0  0  0  0
    2.2272   -4.0495    3.9037 C   0  0  0  0  0  0  0  0  0  0  0  0
    3.2538   -5.0144    3.9292 C   0  0  0  0  0  0  0  0  0  0  0  0
    3.6717   -5.4940    5.1550 C   0  0  0  0  0  0  0  0  0  0  0  0
    4.5954   -6.5488    5.2395 N   0  0  0  0  0  0  0  0  0  0  0  0
    5.0482   -7.1978    6.3770 C   0  0  0  0  0  0  0  0  0  0  0  0
    5.9827   -8.0061    6.2839 O   0  0  0  0  0  0  0  0  0  0  0  0
    4.4288   -7.0014    7.7178 C   0  0  0  0  0  0  0  0  0  0  0  0
    3.0359   -7.0459    7.8711 C   0  0  0  0  0  0  0  0  0  0  0  0
    2.4421   -6.7319    9.0906 C   0  0  0  0  0  0  0  0  0  0  0  0
    3.2400   -6.5611   10.2147 C   0  0  0  0  0  0  0  0  0  0  0  0
    4.6291   -6.6624   10.1044 C   0  0  0  0  0  0  0  0  0  0  0  0
    5.2301   -6.8216    8.8497 C   0  0  0  0  0  0  0  0  0  0  0  0
    3.1584   -5.0002    6.2872 N   0  0  0  0  0  0  0  0  0  0  0  0
    2.1188   -4.1566    6.2584 C   0  0  0  0  0  0  0  0  0  0  0  0
    1.6312   -3.6323    5.0945 C   0  0  0  0  0  0  0  0  0  0  0  0
    0.8194   -5.7580    1.7382 C   0  0  0  0  0  0  0  0  0  0  0  0
    1.4350   -6.5997    0.8097 C   0  0  0  0  0  0  0  0  0  0  0  0
    1.3578   -7.9812    0.9666 C   0  0  0  0  0  0  0  0  0  0  0  0
    0.7005   -8.5223    2.0707 C   0  0  0  0  0  0  0  0  0  0  0  0
    0.1287   -7.6876    3.0358 C   0  0  0  0  0  0  0  0  0  0  0  0
   -0.3606   -8.2532    4.3344 C   0  0  0  0  0  0  0  0  0  0  0  0
    0.1235   -6.3053    2.8253 C   0  0  0  0  0  0  0  0  0  0  0  0
    0.6424    0.4834    0.9097 H   0  0  0  0  0  0  0  0  0  0  0  0
    0.6350    0.7880   -0.8297 H   0  0  0  0  0  0  0  0  0  0  0  0
    2.0999    0.1623   -0.0562 H   0  0  0  0  0  0  0  0  0  0  0  0
   -0.5722   -1.3018   -0.3621 H   0  0  0  0  0  0  0  0  0  0  0  0
    0.8780   -1.6241   -1.3034 H   0  0  0  0  0  0  0  0  0  0  0  0
    3.6670   -5.4010    3.0031 H   0  0  0  0  0  0  0  0  0  0  0  0
    5.0261   -6.8797    4.3865 H   0  0  0  0  0  0  0  0  0  0  0  0
    2.4020   -7.2059    7.0034 H   0  0  0  0  0  0  0  0  0  0  0  0
    1.3637   -6.6174    9.1476 H   0  0  0  0  0  0  0  0  0  0  0  0
    2.7777   -6.3594   11.1769 H   0  0  0  0  0  0  0  0  0  0  0  0
    5.2423   -6.6124   11.0001 H   0  0  0  0  0  0  0  0  0  0  0  0
    6.3140   -6.8044    8.7623 H   0  0  0  0  0  0  0  0  0  0  0  0
    1.6696   -3.9586    7.2263 H   0  0  0  0  0  0  0  0  0  0  0  0
    0.7895   -2.9508    5.1242 H   0  0  0  0  0  0  0  0  0  0  0  0
    1.9956   -6.1771   -0.0206 H   0  0  0  0  0  0  0  0  0  0  0  0
    1.8431   -8.6373    0.2501 H   0  0  0  0  0  0  0  0  0  0  0  0
    0.6594   -9.6023    2.1892 H   0  0  0  0  0  0  0  0  0  0  0  0
    0.2377   -7.8371    5.1541 H   0  0  0  0  0  0  0  0  0  0  0  0
   -1.4151   -8.0202    4.4972 H   0  0  0  0  0  0  0  0  0  0  0  0
   -0.2322   -9.3402    4.3633 H   0  0  0  0  0  0  0  0  0  0  0  0
   -0.3710   -5.6516    3.5418 H   0  0  0  0  0  0  0  0  0  0  0  0
  1  2  1  0  0  0  0
  1 30  1  0  0  0  0
  1 31  1  0  0  0  0
  1 32  1  0  0  0  0
  2  3  1  0  0  0  0
  2 33  1  0  0  0  0
  2 34  1  0  0  0  0
  3  4  2  0  0  0  0
  3  7  1  0  0  0  0
  4  5  1  0  0  0  0
  5  6  2  0  0  0  0
  5 23  1  0  0  0  0
  6  7  1  0  0  0  0
  6  8  1  0  0  0  0
  8  9  2  0  0  0  0
  8 22  1  0  0  0  0
  9 10  1  0  0  0  0
  9 35  1  0  0  0  0
 10 11  1  0  0  0  0
 10 20  2  0  0  0  0
 11 12  1  0  0  0  0
 11 36  1  0  0  0  0
 12 13  2  0  0  0  0
 12 14  1  0  0  0  0
 14 15  2  0  0  0  0
 14 19  1  0  0  0  0
 15 16  1  0  0  0  0
 15 37  1  0  0  0  0
 16 17  2  0  0  0  0
 16 38  1  0  0  0  0
 17 18  1  0  0  0  0
 17 39  1  0  0  0  0
 18 19  2  0  0  0  0
 18 40  1  0  0  0  0
 19 41  1  0  0  0  0
 20 21  1  0  0  0  0
 21 22  2  0  0  0  0
 21 42  1  0  0  0  0
 22 43  1  0  0  0  0
 23 24  2  0  0  0  0
 23 29  1  0  0  0  0
 24 25  1  0  0  0  0
 24 44  1  0  0  0  0
 25 26  2  0  0  0  0
 25 45  1  0  0  0  0
 26 27  1  0  0  0  0
 26 46  1  0  0  0  0
 27 28  1  0  0  0  0
 27 29  2  0  0  0  0
 28 47  1  0  0  0  0
 28 48  1  0  0  0  0
 28 49  1  0  0  0  0
 29 50  1  0  0  0  0
M  END
>  <DRUGBANK_ID>
DB16108

>  <COMMON_NAME>
TAK-715

>  <CAS_NUMBER>
303162-79-0

>  <UNII>
WE92U03C5Z

$$$$
