
 OpenBabel10282417203D

124126  0  0  0  0  0  0  0  0999 V2000
    6.2224   -5.5620   -2.3910 O   0  0  0  0  0  0  0  0  0  0  0  0
    5.2451   -5.6857   -4.1927 C   0  0  2  0  0  0  0  0  0  0  0  0
    5.4706   -5.7636   -0.8323 C   0  0  1  0  0  0  0  0  0  0  0  0
    4.0188   -4.5232   -5.8837 C   0  0  1  0  0  0  0  0  0  0  0  0
    6.4921   -6.5762   -3.0169 C   0  0  1  0  0  0  0  0  0  0  0  0
    4.4298   -6.7811   -1.4498 C   0  0  2  0  0  0  0  0  0  0  0  0
    4.9467   -5.3382    0.5225 O   0  0  0  0  0  0  0  0  0  0  0  0
    2.3548   -4.5836   -6.5312 O   0  0  0  0  0  0  0  0  0  0  0  0
    3.0488   -2.9796   -6.9942 C   0  0  2  0  0  0  0  0  0  0  0  0
    6.4010   -8.2335   -1.9004 C   0  0  0  0  0  0  0  0  0  0  0  0
    4.8898   -5.4415   -3.2787 C   0  0  0  0  0  0  0  0  0  0  0  0
    4.7326   -7.6885   -2.7255 O   0  0  0  0  0  0  0  0  0  0  0  0
    3.0247   -6.3063   -1.4787 C   0  0  1  0  0  0  0  0  0  0  0  0
    3.6234   -4.7516    0.5877 C   0  0  1  0  0  0  0  0  0  0  0  0
    1.1715   -4.4822   -5.8526 C   0  0  0  0  0  0  0  0  0  0  0  0
    1.8776   -1.3623   -6.7521 O   0  0  0  0  0  0  0  0  0  0  0  0
    3.9196   -2.4038   -8.4620 C   0  0  0  0  0  0  0  0  0  0  0  0
    5.7524   -8.4763   -0.4180 C   0  0  0  0  0  0  0  0  0  0  0  0
    5.9074   -3.9556   -3.5035 C   0  0  1  0  0  0  0  0  0  0  0  0
    2.1504   -7.0108   -2.4168 N   0  0  0  0  0  0  0  0  0  0  0  0
    2.5573   -5.5646   -0.2271 C   0  0  1  0  0  0  0  0  0  0  0  0
    3.0525   -4.4932    1.9675 C   0  0  0  0  0  0  0  0  0  0  0  0
    2.4072    0.3674   -6.2517 C   0  0  0  0  0  0  0  0  0  0  0  0
    3.3381   -1.5274   -9.6767 C   0  0  0  0  0  0  0  0  0  0  0  0
    4.7039   -9.1174   -0.1956 O   0  0  0  0  0  0  0  0  0  0  0  0
    6.5989   -4.4563   -5.1678 C   0  0  0  0  0  0  0  0  0  0  0  0
    4.5752   -3.6952   -3.2390 C   0  0  1  0  0  0  0  0  0  0  0  0
    2.6386   -7.1980   -3.8077 C   0  0  0  0  0  0  0  0  0  0  0  0
    2.1073   -8.1883   -1.6686 C   0  0  0  0  0  0  0  0  0  0  0  0
    1.3771   -4.7616   -0.5119 O   0  0  0  0  0  0  0  0  0  0  0  0
    4.5090    0.8410   -6.5101 C   0  0  0  0  0  0  0  0  0  0  0  0
    1.5250    1.2482   -6.3283 O   0  0  0  0  0  0  0  0  0  0  0  0
    2.4254   -1.9525  -10.3598 O   0  0  0  0  0  0  0  0  0  0  0  0
    3.8983   -0.3780  -10.1271 O   0  0  0  0  0  0  0  0  0  0  0  0
    4.2566   -3.6482   -1.6878 O   0  0  0  0  0  0  0  0  0  0  0  0
    5.1760   -2.4748   -4.1294 C   0  0  0  0  0  0  0  0  0  0  0  0
    1.7089   -3.5780   -1.2089 C   0  0  1  0  0  0  0  0  0  0  0  0
    4.8460    2.0728   -7.9841 C   0  0  0  0  0  0  0  0  0  0  0  0
    4.6838    0.3815   -9.2763 C   0  0  2  0  0  0  0  0  0  0  0  0
    4.6490   -2.1240   -5.2435 C   0  0  0  0  0  0  0  0  0  0  0  0
    2.0136   -3.8113   -2.5953 C   0  0  0  0  0  0  0  0  0  0  0  0
    0.8681   -2.5003   -1.3559 O   0  0  0  0  0  0  0  0  0  0  0  0
    6.1172   -0.1525   -8.9093 C   0  0  0  0  0  0  0  0  0  0  0  0
    3.3647    0.6880   -7.9759 C   0  0  0  0  0  0  0  0  0  0  0  0
    4.1730   -0.9408   -5.5105 C   0  0  0  0  0  0  0  0  0  0  0  0
    2.7255   -2.6328   -3.1622 C   0  0  1  0  0  0  0  0  0  0  0  0
    1.3971   -1.3406   -2.1594 C   0  0  2  0  0  0  0  0  0  0  0  0
    3.7097   -0.8152   -6.8238 C   0  0  0  0  0  0  0  0  0  0  0  0
    4.1627   -1.7494   -2.3067 C   0  0  0  0  0  0  0  0  0  0  0  0
    2.8375   -3.2764   -4.3730 O   0  0  0  0  0  0  0  0  0  0  0  0
    1.7744   -1.6625   -3.5204 C   0  0  2  0  0  0  0  0  0  0  0  0
    2.3326   -0.6582   -1.2964 C   0  0  0  0  0  0  0  0  0  0  0  0
    0.7467   -2.2415   -4.3052 O   0  0  0  0  0  0  0  0  0  0  0  0
   -0.4805   -2.5834   -3.9455 C   0  0  0  0  0  0  0  0  0  0  0  0
   -1.0396   -2.1381   -2.6617 C   0  0  0  0  0  0  0  0  0  0  0  0
   -1.2244   -3.1756   -4.7186 O   0  0  0  0  0  0  0  0  0  0  0  0
   -1.9550   -1.0076   -2.8239 C   0  0  0  0  0  0  0  0  0  0  0  0
    5.5687   -4.6520   -0.8885 H   0  0  0  0  0  0  0  0  0  0  0  0
    2.4381   -3.1066   -0.5969 H   0  0  0  0  0  0  0  0  0  0  0  0
    2.4798   -2.5715   -6.1811 H   0  0  0  0  0  0  0  0  0  0  0  0
    6.5368   -5.5131   -3.9267 H   0  0  0  0  0  0  0  0  0  0  0  0
    3.8539   -4.6972   -7.0857 H   0  0  0  0  0  0  0  0  0  0  0  0
    7.1111   -7.0445   -3.7687 H   0  0  0  0  0  0  0  0  0  0  0  0
    4.1730   -7.4944   -0.7960 H   0  0  0  0  0  0  0  0  0  0  0  0
    5.7066   -9.0988   -2.3657 H   0  0  0  0  0  0  0  0  0  0  0  0
    7.3113   -8.8024   -1.9207 H   0  0  0  0  0  0  0  0  0  0  0  0
    3.9728   -6.0176   -3.2650 H   0  0  0  0  0  0  0  0  0  0  0  0
    4.5128   -5.2205   -2.3046 H   0  0  0  0  0  0  0  0  0  0  0  0
    5.1311   -7.2117   -3.4498 H   0  0  0  0  0  0  0  0  0  0  0  0
    2.7680   -5.7148   -2.2291 H   0  0  0  0  0  0  0  0  0  0  0  0
    3.7737   -3.7107    0.2929 H   0  0  0  0  0  0  0  0  0  0  0  0
    1.3184   -5.4774   -6.1086 H   0  0  0  0  0  0  0  0  0  0  0  0
    1.4185   -3.6071   -5.3997 H   0  0  0  0  0  0  0  0  0  0  0  0
    0.0855   -4.5176   -5.7079 H   0  0  0  0  0  0  0  0  0  0  0  0
    4.6207   -3.1342   -8.6997 H   0  0  0  0  0  0  0  0  0  0  0  0
    4.6780   -1.7398   -8.0895 H   0  0  0  0  0  0  0  0  0  0  0  0
    6.0802   -7.7508    0.3336 H   0  0  0  0  0  0  0  0  0  0  0  0
    6.5363   -3.8061   -2.6050 H   0  0  0  0  0  0  0  0  0  0  0  0
    2.2992   -6.4108    0.3758 H   0  0  0  0  0  0  0  0  0  0  0  0
    3.7295   -3.8529    2.5336 H   0  0  0  0  0  0  0  0  0  0  0  0
    2.0685   -3.9940    1.9232 H   0  0  0  0  0  0  0  0  0  0  0  0
    2.9459   -5.4495    2.4644 H   0  0  0  0  0  0  0  0  0  0  0  0
    5.9162   -5.1720   -5.8044 H   0  0  0  0  0  0  0  0  0  0  0  0
    6.6367   -3.4980   -5.4948 H   0  0  0  0  0  0  0  0  0  0  0  0
    7.4357   -5.1880   -4.9638 H   0  0  0  0  0  0  0  0  0  0  0  0
    3.6284   -4.6222   -3.8492 H   0  0  0  0  0  0  0  0  0  0  0  0
    3.5483   -7.7328   -3.8931 H   0  0  0  0  0  0  0  0  0  0  0  0
    2.1048   -7.8588   -4.4117 H   0  0  0  0  0  0  0  0  0  0  0  0
    2.8002   -6.2843   -4.4095 H   0  0  0  0  0  0  0  0  0  0  0  0
    3.0931   -8.6076   -1.6261 H   0  0  0  0  0  0  0  0  0  0  0  0
    1.7524   -7.9071   -0.6767 H   0  0  0  0  0  0  0  0  0  0  0  0
    1.4943   -8.8292   -2.2159 H   0  0  0  0  0  0  0  0  0  0  0  0
    4.7940    1.1765   -5.5843 H   0  0  0  0  0  0  0  0  0  0  0  0
    5.2701   -0.1136   -6.9291 H   0  0  0  0  0  0  0  0  0  0  0  0
    3.6551   -4.3226   -1.3557 H   0  0  0  0  0  0  0  0  0  0  0  0
    5.7694   -1.7137   -3.6944 H   0  0  0  0  0  0  0  0  0  0  0  0
    4.2800    2.9655   -7.9354 H   0  0  0  0  0  0  0  0  0  0  0  0
    5.8857    1.8606   -8.0750 H   0  0  0  0  0  0  0  0  0  0  0  0
    3.9083    1.9707   -9.0364 H   0  0  0  0  0  0  0  0  0  0  0  0
    5.0213    1.3891   -9.9056 H   0  0  0  0  0  0  0  0  0  0  0  0
    3.8919   -2.6202   -5.6242 H   0  0  0  0  0  0  0  0  0  0  0  0
    2.8147   -4.4014   -2.6374 H   0  0  0  0  0  0  0  0  0  0  0  0
    1.5020   -4.5605   -3.2267 H   0  0  0  0  0  0  0  0  0  0  0  0
    6.1637   -0.9253   -8.1573 H   0  0  0  0  0  0  0  0  0  0  0  0
    6.4602   -0.5361   -9.8441 H   0  0  0  0  0  0  0  0  0  0  0  0
    6.8813    0.5523   -8.5153 H   0  0  0  0  0  0  0  0  0  0  0  0
    2.5902    1.5507   -8.0225 H   0  0  0  0  0  0  0  0  0  0  0  0
    3.4756    1.8620   -6.9914 H   0  0  0  0  0  0  0  0  0  0  0  0
    4.7996   -0.3147   -4.8852 H   0  0  0  0  0  0  0  0  0  0  0  0
    0.7205   -0.5572   -2.4425 H   0  0  0  0  0  0  0  0  0  0  0  0
    3.1456   -1.0693   -7.6786 H   0  0  0  0  0  0  0  0  0  0  0  0
    5.1831   -2.2598   -2.1268 H   0  0  0  0  0  0  0  0  0  0  0  0
    4.4363   -0.8479   -2.7969 H   0  0  0  0  0  0  0  0  0  0  0  0
    4.2482   -1.7424   -1.2387 H   0  0  0  0  0  0  0  0  0  0  0  0
    3.7117   -3.5574   -4.6135 H   0  0  0  0  0  0  0  0  0  0  0  0
    2.2823   -0.8903   -4.0697 H   0  0  0  0  0  0  0  0  0  0  0  0
    2.9463    0.0463   -1.8570 H   0  0  0  0  0  0  0  0  0  0  0  0
    1.9451   -0.3931   -0.3530 H   0  0  0  0  0  0  0  0  0  0  0  0
    2.8405   -1.4613   -0.8426 H   0  0  0  0  0  0  0  0  0  0  0  0
   -1.2794   -2.9729   -2.0193 H   0  0  0  0  0  0  0  0  0  0  0  0
   -0.4752   -1.5735   -1.9932 H   0  0  0  0  0  0  0  0  0  0  0  0
   -2.8037   -1.4291   -3.3160 H   0  0  0  0  0  0  0  0  0  0  0  0
   -2.1885   -0.6246   -1.8247 H   0  0  0  0  0  0  0  0  0  0  0  0
   -1.4819   -0.2018   -3.4008 H   0  0  0  0  0  0  0  0  0  0  0  0
  2  5  1  0  0  0  0
  2 61  1  6  0  0  0
  2  1  1  0  0  0  0
  3  7  1  0  0  0  0
  3 58  1  6  0  0  0
  3  1  1  0  0  0  0
  4  2  1  0  0  0  0
  4  8  1  0  0  0  0
  4 62  1  6  0  0  0
  5 10  1  0  0  0  0
  5 11  1  0  0  0  0
  5 63  1  6  0  0  0
  6  3  1  0  0  0  0
  6 12  1  0  0  0  0
  6 64  1  1  0  0  0
  8 15  1  0  0  0  0
  9  4  1  0  0  0  0
  9 17  1  0  0  0  0
  9 60  1  1  0  0  0
  9 16  1  0  0  0  0
 10 18  1  0  0  0  0
 10 65  1  0  0  0  0
 10 66  1  0  0  0  0
 11 67  1  0  0  0  0
 11 68  1  0  0  0  0
 12 69  1  0  0  0  0
 13  6  1  0  0  0  0
 13 20  1  0  0  0  0
 13 70  1  6  0  0  0
 14  7  1  0  0  0  0
 14 22  1  0  0  0  0
 14 71  1  6  0  0  0
 15 72  1  0  0  0  0
 15 73  1  0  0  0  0
 15 74  1  0  0  0  0
 16 23  1  0  0  0  0
 17 24  1  0  0  0  0
 17 75  1  0  0  0  0
 17 76  1  0  0  0  0
 18 25  2  0  0  0  0
 18 77  1  0  0  0  0
 19 11  1  0  0  0  0
 19 26  1  0  0  0  0
 19 78  1  1  0  0  0
 20 28  1  0  0  0  0
 20 29  1  0  0  0  0
 21 13  1  0  0  0  0
 21 14  1  0  0  0  0
 21 79  1  1  0  0  0
 21 30  1  0  0  0  0
 22 80  1  0  0  0  0
 22 81  1  0  0  0  0
 22 82  1  0  0  0  0
 23 31  1  0  0  0  0
 23 32  2  0  0  0  0
 24 33  2  0  0  0  0
 24 34  1  0  0  0  0
 26 83  1  0  0  0  0
 26 84  1  0  0  0  0
 26 85  1  0  0  0  0
 27 19  1  0  0  0  0
 27 35  1  0  0  0  0
 27 36  1  0  0  0  0
 27 86  1  6  0  0  0
 28 87  1  0  0  0  0
 28 88  1  0  0  0  0
 28 89  1  0  0  0  0
 29 90  1  0  0  0  0
 29 91  1  0  0  0  0
 29 92  1  0  0  0  0
 31 38  1  0  0  0  0
 31 93  1  0  0  0  0
 31 94  1  0  0  0  0
 35 95  1  0  0  0  0
 36 40  2  0  0  0  0
 36 96  1  0  0  0  0
 37 41  1  0  0  0  0
 37 42  1  0  0  0  0
 37 59  1  1  0  0  0
 37 30  1  0  0  0  0
 38 97  1  0  0  0  0
 38 98  1  0  0  0  0
 38 99  1  0  0  0  0
 39 34  1  0  0  0  0
 39 44  1  0  0  0  0
 39100  1  6  0  0  0
 39 43  1  0  0  0  0
 40 45  1  0  0  0  0
 40101  1  0  0  0  0
 41102  1  0  0  0  0
 41103  1  0  0  0  0
 43104  1  0  0  0  0
 43105  1  0  0  0  0
 43106  1  0  0  0  0
 44 48  1  0  0  0  0
 44107  1  0  0  0  0
 44108  1  0  0  0  0
 45 48  2  0  0  0  0
 45109  1  0  0  0  0
 46 41  1  0  0  0  0
 46 49  1  0  0  0  0
 46 50  1  6  0  0  0
 47 42  1  0  0  0  0
 47 52  1  0  0  0  0
 47110  1  6  0  0  0
 48111  1  0  0  0  0
 49112  1  0  0  0  0
 49113  1  0  0  0  0
 49114  1  0  0  0  0
 50115  1  0  0  0  0
 51 46  1  0  0  0  0
 51 47  1  0  0  0  0
 51116  1  6  0  0  0
 51 53  1  0  0  0  0
 52117  1  0  0  0  0
 52118  1  0  0  0  0
 52119  1  0  0  0  0
 53 54  1  0  0  0  0
 54 55  1  0  0  0  0
 54 56  2  0  0  0  0
 55 57  1  0  0  0  0
 55120  1  0  0  0  0
 55121  1  0  0  0  0
 57122  1  0  0  0  0
 57123  1  0  0  0  0
 57124  1  0  0  0  0
M  END
>  <DRUGBANK_ID>
DB13456

>  <COMMON_NAME>
Midecamycin

>  <CAS_NUMBER>
35457-80-8

>  <UNII>
N34Z0Y5UH7

>  <SYNONYMS>
Espinomycin A; Medecamycin A1; Medemycin A1; Midecamycin; Midecamycin A1; Momicine; Mydecamycin A1; Platenomycin B1; Rubimycin; Turimycin P3

$$$$
