GD7
 OpenBabel10282417163D

 27 26  0  0  0  0  0  0  0  0999 V2000
    4.7327   -1.6884   -0.4120 C   0  0  0  0  0  0  0  0  0  0  0  0
    4.5036    0.3775   -1.8567 C   0  0  0  0  0  0  0  0  0  0  0  0
    3.9588   -1.9234   -2.7041 C   0  0  0  0  0  0  0  0  0  0  0  0
    1.5728   -1.9769   -0.7450 C   0  0  0  0  0  0  0  0  0  0  0  0
    2.4033   -0.7301   -1.0561 C   0  0  2  0  0  0  0  0  0  0  0  0
    3.8820   -0.9859   -1.4842 C   0  0  0  0  0  0  0  0  0  0  0  0
    1.9980    1.1953    2.4198 C   0  0  0  0  0  0  0  0  0  0  0  0
    2.2774    0.2365   -0.0055 O   0  0  0  0  0  0  0  0  0  0  0  0
    2.9632    0.0400    1.4526 P   0  0  1  0  0  0  0  0  0  0  0  0
    4.3631    0.6210    1.5047 O   0  0  0  0  0  0  0  0  0  0  0  0
    1.9003   -0.2589   -1.9142 H   0  0  0  0  0  0  0  0  0  0  0  0
    2.7306   -1.3313    1.6958 H   0  0  0  0  0  0  0  0  0  0  0  0
    5.7173   -1.9638   -0.8006 H   0  0  0  0  0  0  0  0  0  0  0  0
    4.2438   -2.5910   -0.0346 H   0  0  0  0  0  0  0  0  0  0  0  0
    4.9698   -1.0714    0.4380 H   0  0  0  0  0  0  0  0  0  0  0  0
    5.5700    0.2868   -2.0792 H   0  0  0  0  0  0  0  0  0  0  0  0
    4.0082    0.8065   -2.7370 H   0  0  0  0  0  0  0  0  0  0  0  0
    4.3997    1.1121   -1.0512 H   0  0  0  0  0  0  0  0  0  0  0  0
    3.5494   -2.9121   -2.4691 H   0  0  0  0  0  0  0  0  0  0  0  0
    3.4262   -1.5236   -3.5703 H   0  0  0  0  0  0  0  0  0  0  0  0
    5.0048   -2.0838   -2.9932 H   0  0  0  0  0  0  0  0  0  0  0  0
    1.9384   -2.5070    0.1364 H   0  0  0  0  0  0  0  0  0  0  0  0
    0.5313   -1.7044   -0.5396 H   0  0  0  0  0  0  0  0  0  0  0  0
    1.5623   -2.6773   -1.5858 H   0  0  0  0  0  0  0  0  0  0  0  0
    1.7179    2.0388    1.7852 H   0  0  0  0  0  0  0  0  0  0  0  0
    1.1169    0.7325    2.8609 H   0  0  0  0  0  0  0  0  0  0  0  0
    2.6452    1.5746    3.2170 H   0  0  0  0  0  0  0  0  0  0  0  0
  1  6  1  0  0  0  0
  1 13  1  0  0  0  0
  1 14  1  0  0  0  0
  1 15  1  0  0  0  0
  2  6  1  0  0  0  0
  2 16  1  0  0  0  0
  2 17  1  0  0  0  0
  2 18  1  0  0  0  0
  3  6  1  0  0  0  0
  3 19  1  0  0  0  0
  3 20  1  0  0  0  0
  3 21  1  0  0  0  0
  4 22  1  0  0  0  0
  4 23  1  0  0  0  0
  4 24  1  0  0  0  0
  5  4  1  0  0  0  0
  5  6  1  0  0  0  0
  5  8  1  0  0  0  0
  5 11  1  6  0  0  0
  7 25  1  0  0  0  0
  7 26  1  0  0  0  0
  7 27  1  0  0  0  0
  9 10  2  0  0  0  0
  9 12  1  1  0  0  0
  9  8  1  0  0  0  0
  9  7  1  0  0  0  0
M  END
>  <DRUGBANK_ID>
DB07821

>  <COMMON_NAME>
(1R)-1,2,2-trimethylpropyl (R)-methylphosphinate

$$$$
