
 OpenBabel10282417113D

 35 36  0  0  1  0  0  0  0  0999 V2000
    0.3699    0.7717   -0.0628 C   0  0  0  0  0  0  0  0  0  0  0  0
    0.3704   -0.5815   -0.2799 C   0  0  0  0  0  0  0  0  0  0  0  0
   -0.9379    1.8814    0.0526 S   0  0  0  0  0  0  0  0  0  0  0  0
    1.8895    1.4830    0.0818 S   0  0  0  0  0  0  0  0  0  0  0  0
   -0.8428   -1.4656   -0.0386 C   0  0  2  0  0  0  0  0  0  0  0  0
    1.7201   -0.9417   -0.7019 C   0  0  0  0  0  0  0  0  0  0  0  0
   -2.3402    0.8038   -0.1289 C   0  0  2  0  0  0  0  0  0  0  0  0
   -0.7636    2.6766   -1.1641 O   0  0  0  0  0  0  0  0  0  0  0  0
   -0.8932    2.4486    1.3667 O   0  0  0  0  0  0  0  0  0  0  0  0
    2.6343    0.0027   -0.2435 C   0  0  0  0  0  0  0  0  0  0  0  0
   -2.1980   -0.7227   -0.0053 C   0  0  0  0  0  0  0  0  0  0  0  0
   -0.8464   -2.1159    1.2951 N   0  0  0  0  0  0  0  0  0  0  0  0
   -2.9481    1.0735   -1.4892 C   0  0  0  0  0  0  0  0  0  0  0  0
    4.3767    0.0197   -0.0192 S   0  0  0  0  0  0  0  0  0  0  0  0
    4.8833    0.8363   -1.3880 N   0  0  0  0  0  0  0  0  0  0  0  0
    4.6801    0.8120    1.1435 O   0  0  0  0  0  0  0  0  0  0  0  0
    4.7904   -1.3596   -0.1565 O   0  0  0  0  0  0  0  0  0  0  0  0
    0.1631   -3.1223    1.6031 C   0  0  0  0  0  0  0  0  0  0  0  0
    1.4758   -2.4484    1.9040 C   0  0  0  0  0  0  0  0  0  0  0  0
   -0.8969   -2.2347   -0.8220 H   0  0  0  0  0  0  0  0  0  0  0  0
    2.0547   -1.9546   -0.9244 H   0  0  0  0  0  0  0  0  0  0  0  0
   -3.0068    1.1327    0.6801 H   0  0  0  0  0  0  0  0  0  0  0  0
   -2.7681   -0.9956    0.9004 H   0  0  0  0  0  0  0  0  0  0  0  0
   -2.8201   -1.2042   -0.7756 H   0  0  0  0  0  0  0  0  0  0  0  0
   -0.8945   -1.4255    2.0432 H   0  0  0  0  0  0  0  0  0  0  0  0
   -3.9105    0.5744   -1.5973 H   0  0  0  0  0  0  0  0  0  0  0  0
   -3.0873    2.1444   -1.6473 H   0  0  0  0  0  0  0  0  0  0  0  0
   -2.2610    0.6948   -2.2574 H   0  0  0  0  0  0  0  0  0  0  0  0
    5.8917    0.9439   -1.4084 H   0  0  0  0  0  0  0  0  0  0  0  0
    4.4821    0.4151   -2.2241 H   0  0  0  0  0  0  0  0  0  0  0  0
   -0.1318   -3.7089    2.4801 H   0  0  0  0  0  0  0  0  0  0  0  0
    0.2468   -3.8132    0.7577 H   0  0  0  0  0  0  0  0  0  0  0  0
    1.5111   -1.7220    2.7194 H   0  0  0  0  0  0  0  0  0  0  0  0
    2.3762   -3.0397    1.7438 H   0  0  0  0  0  0  0  0  0  0  0  0
    1.5663   -1.7797    1.1128 H   0  0  0  0  0  0  0  0  0  0  0  0
  2  1  2  0  0  0  0
  3  1  1  0  0  0  0
  4  1  1  0  0  0  0
  5  2  1  0  0  0  0
  5 12  1  0  0  0  0
  5 20  1  6  0  0  0
  6  2  1  0  0  0  0
  6 21  1  0  0  0  0
  7  3  1  0  0  0  0
  7 13  1  0  0  0  0
  7 22  1  1  0  0  0
  8  3  2  0  0  0  0
  9  3  2  0  0  0  0
 10  4  1  0  0  0  0
 10  6  2  0  0  0  0
 11  5  1  0  0  0  0
 11  7  1  0  0  0  0
 11 23  1  0  0  0  0
 11 24  1  0  0  0  0
 12 18  1  0  0  0  0
 12 25  1  0  0  0  0
 13 26  1  0  0  0  0
 13 27  1  0  0  0  0
 13 28  1  0  0  0  0
 14 10  1  0  0  0  0
 15 14  1  0  0  0  0
 15 29  1  0  0  0  0
 15 30  1  0  0  0  0
 16 14  2  0  0  0  0
 17 14  2  0  0  0  0
 18 19  1  0  0  0  0
 18 31  1  0  0  0  0
 18 32  1  0  0  0  0
 19 33  1  0  0  0  0
 19 34  1  0  0  0  0
 19 35  1  0  0  0  0
M  END
>  <DRUGBANK_ID>
DB00869

>  <SECONDARY_ACCESSION_NUMBERS>
APRD00577; DB04507

>  <COMMON_NAME>
Dorzolamide

>  <CAS_NUMBER>
120279-96-1

>  <UNII>
9JDX055TW1

>  <SYNONYMS>
(4S,6S)-4-ethylamino-6-methyl-7,7-dioxo-4,5,6,7-tetrahydro-7lambda*6*-thieno[2,3-b]thiopyran-2-sulfonic acid amide; (4S,trans)-4-(ethylamino)-6-methyl-5,6-dihydro-4H-thieno[2,3-b]thiopyran-2-sulfonamide 7,7-dioxide; 4-Ethylamino-6-methyl-7,7-dioxo-4,5,6,7-tetrahydro-7lambda*6*-thieno[2,3-b]thiopyran-2-sulfonic acid amide; 4-ethylamino-6-methyl-7,7-dioxo-4,5,6,7-tetrahydro-7lambda6-thieno[2,3-b]thiopyran-2-sulfonic acid amide; 4S,6S-dorzolamide; Dorzolamid; Dorzolamida; Dorzolamide; Dorzolamidum

$$$$
