
 OpenBabel10282417233D

 72 72  0  0  0  0  0  0  0  0999 V2000
    1.6760   -1.9208    0.6116 O   0  0  0  0  0  0  0  0  0  0  0  0
    0.4117   -1.9433    1.5892 P   0  0  0  0  0  0  0  0  0  0  0  0
    0.5216   -0.5406    2.3156 O   0  0  0  0  0  0  0  0  0  0  0  0
   -0.8728   -1.7186    0.6689 O   0  0  0  0  0  0  0  0  0  0  0  0
    0.3585   -3.1424    2.4519 O   0  0  0  0  0  0  0  0  0  0  0  0
    0.8478    0.3164   -0.6053 C   0  0  0  0  0  0  0  0  0  0  0  0
    0.2609    1.3624   -1.3818 N   0  0  0  0  0  0  0  0  0  0  0  0
   -1.1946    1.2432   -1.2210 C   0  0  0  0  0  0  0  0  0  0  0  0
    0.8411    2.6393   -0.9526 C   0  0  0  0  0  0  0  0  0  0  0  0
    0.4788    3.1200    0.4288 C   0  0  0  0  0  0  0  0  0  0  0  0
    1.0040    2.2926    1.5461 C   0  0  0  0  0  0  0  0  0  0  0  0
    2.4019    2.1287    1.7607 N   0  0  0  0  0  0  0  0  0  0  0  0
    3.0217    2.6280    2.8459 C   0  0  0  0  0  0  0  0  0  0  0  0
    4.2806    2.6601    2.8156 O   0  0  0  0  0  0  0  0  0  0  0  0
    2.2248    3.0184    4.0703 C   0  0  0  0  0  0  0  0  0  0  0  0
    0.7666    2.6250    4.4240 C   0  0  0  0  0  0  0  0  0  0  0  0
    0.6177    1.6464    5.4856 O   0  0  0  0  0  0  0  0  0  0  0  0
    0.8685    0.3167    5.2306 C   0  0  0  0  0  0  0  0  0  0  0  0
    2.1719   -0.2288    4.9820 C   0  0  0  0  0  0  0  0  0  0  0  0
    3.3251    0.5240    4.9306 C   0  0  0  0  0  0  0  0  0  0  0  0
    4.5978    0.1708    4.5377 C   0  0  0  0  0  0  0  0  0  0  0  0
    4.8132   -1.1492    4.3114 C   0  0  0  0  0  0  0  0  0  0  0  0
    3.7371   -2.0300    4.4837 C   0  0  0  0  0  0  0  0  0  0  0  0
    2.4196   -1.5856    4.8224 C   0  0  0  0  0  0  0  0  0  0  0  0
    1.3399   -2.4376    5.0497 C   0  0  0  0  0  0  0  0  0  0  0  0
    0.0546   -1.9383    5.3302 C   0  0  0  0  0  0  0  0  0  0  0  0
   -0.1917   -0.5642    5.4053 C   0  0  0  0  0  0  0  0  0  0  0  0
    2.9836    3.4590    5.0999 C   0  0  0  0  0  0  0  0  0  0  0  0
    2.3990    3.5048    6.4710 C   0  0  0  0  0  0  0  0  0  0  0  0
    2.7899    2.4268    7.5368 C   0  0  0  0  0  0  0  0  0  0  0  0
    4.2153    2.5951    8.0030 C   0  0  0  0  0  0  0  0  0  0  0  0
    4.4730    4.0299    8.4600 C   0  0  0  0  0  0  0  0  0  0  0  0
    3.7641    4.4623    9.7541 C   0  0  0  0  0  0  0  0  0  0  0  0
    4.4624    4.7291   10.7386 O   0  0  0  0  0  0  0  0  0  0  0  0
    2.4219    4.5806    9.9146 N   0  0  0  0  0  0  0  0  0  0  0  0
    1.3983    4.6127    8.9770 O   0  0  0  0  0  0  0  0  0  0  0  0
    2.2576   -1.1445    0.5071 H   0  0  0  0  0  0  0  0  0  0  0  0
    1.3153   -0.3812    2.8520 H   0  0  0  0  0  0  0  0  0  0  0  0
   -0.8134   -1.4229   -0.2526 H   0  0  0  0  0  0  0  0  0  0  0  0
    0.7722   -0.6451   -1.1054 H   0  0  0  0  0  0  0  0  0  0  0  0
    0.2687    0.2495    0.3025 H   0  0  0  0  0  0  0  0  0  0  0  0
    1.8864    0.5040   -0.3263 H   0  0  0  0  0  0  0  0  0  0  0  0
   -1.5402    1.3819   -0.1857 H   0  0  0  0  0  0  0  0  0  0  0  0
   -1.7083    1.9409   -1.8764 H   0  0  0  0  0  0  0  0  0  0  0  0
   -1.5163    0.2295   -1.4982 H   0  0  0  0  0  0  0  0  0  0  0  0
    1.9385    2.5652   -1.0001 H   0  0  0  0  0  0  0  0  0  0  0  0
    0.5606    3.4052   -1.6726 H   0  0  0  0  0  0  0  0  0  0  0  0
    0.8254    4.1432    0.6014 H   0  0  0  0  0  0  0  0  0  0  0  0
   -0.6083    3.1357    0.5713 H   0  0  0  0  0  0  0  0  0  0  0  0
    0.6607    2.9263    2.3175 H   0  0  0  0  0  0  0  0  0  0  0  0
    0.4825    1.3740    1.7012 H   0  0  0  0  0  0  0  0  0  0  0  0
    3.0291    1.7387    1.0615 H   0  0  0  0  0  0  0  0  0  0  0  0
    0.3507    3.5936    4.7703 H   0  0  0  0  0  0  0  0  0  0  0  0
   -0.0200    2.3701    3.7238 H   0  0  0  0  0  0  0  0  0  0  0  0
    3.2594    1.4832    5.3323 H   0  0  0  0  0  0  0  0  0  0  0  0
    5.3592    0.9451    4.4704 H   0  0  0  0  0  0  0  0  0  0  0  0
    5.8199   -1.4721    4.0777 H   0  0  0  0  0  0  0  0  0  0  0  0
    3.9347   -3.0890    4.3698 H   0  0  0  0  0  0  0  0  0  0  0  0
    1.4889   -3.5110    4.9722 H   0  0  0  0  0  0  0  0  0  0  0  0
   -0.7600   -2.6463    5.4617 H   0  0  0  0  0  0  0  0  0  0  0  0
   -1.1985   -0.2069    5.6110 H   0  0  0  0  0  0  0  0  0  0  0  0
    4.0746    3.5265    5.0319 H   0  0  0  0  0  0  0  0  0  0  0  0
    2.6545    4.5309    6.7161 H   0  0  0  0  0  0  0  0  0  0  0  0
    1.3092    3.5215    6.4910 H   0  0  0  0  0  0  0  0  0  0  0  0
    2.1385    2.4736    8.4161 H   0  0  0  0  0  0  0  0  0  0  0  0
    2.6034    1.3937    7.2295 H   0  0  0  0  0  0  0  0  0  0  0  0
    4.4319    1.8908    8.8158 H   0  0  0  0  0  0  0  0  0  0  0  0
    4.8846    2.3218    7.1755 H   0  0  0  0  0  0  0  0  0  0  0  0
    5.5530    4.0978    8.6458 H   0  0  0  0  0  0  0  0  0  0  0  0
    4.3103    4.7613    7.6647 H   0  0  0  0  0  0  0  0  0  0  0  0
    2.0885    4.8381   10.8350 H   0  0  0  0  0  0  0  0  0  0  0  0
    1.8815    4.4846    8.1692 H   0  0  0  0  0  0  0  0  0  0  0  0
  1  2  1  0  0  0  0
  1 37  1  0  0  0  0
  2  3  1  0  0  0  0
  2  4  1  0  0  0  0
  2  5  2  0  0  0  0
  3 38  1  0  0  0  0
  4 39  1  0  0  0  0
  6  7  1  0  0  0  0
  6 40  1  0  0  0  0
  6 41  1  0  0  0  0
  6 42  1  0  0  0  0
  7  8  1  0  0  0  0
  7  9  1  0  0  0  0
  8 43  1  0  0  0  0
  8 44  1  0  0  0  0
  8 45  1  0  0  0  0
  9 10  1  0  0  0  0
  9 46  1  0  0  0  0
  9 47  1  0  0  0  0
 10 11  1  0  0  0  0
 10 48  1  0  0  0  0
 10 49  1  0  0  0  0
 11 12  1  0  0  0  0
 11 50  1  0  0  0  0
 11 51  1  0  0  0  0
 12 13  1  0  0  0  0
 12 52  1  0  0  0  0
 13 14  2  0  0  0  0
 13 15  1  0  0  0  0
 15 16  1  0  0  0  0
 15 28  2  0  0  0  0
 16 17  1  0  0  0  0
 16 53  1  0  0  0  0
 16 54  1  0  0  0  0
 17 18  1  0  0  0  0
 18 19  2  0  0  0  0
 18 27  1  0  0  0  0
 19 20  1  0  0  0  0
 19 24  1  0  0  0  0
 20 21  2  0  0  0  0
 20 55  1  0  0  0  0
 21 22  1  0  0  0  0
 21 56  1  0  0  0  0
 22 23  2  0  0  0  0
 22 57  1  0  0  0  0
 23 24  1  0  0  0  0
 23 58  1  0  0  0  0
 24 25  2  0  0  0  0
 25 26  1  0  0  0  0
 25 59  1  0  0  0  0
 26 27  2  0  0  0  0
 26 60  1  0  0  0  0
 27 61  1  0  0  0  0
 28 29  1  0  0  0  0
 28 62  1  0  0  0  0
 29 30  1  0  0  0  0
 29 63  1  0  0  0  0
 29 64  1  0  0  0  0
 30 31  1  0  0  0  0
 30 65  1  0  0  0  0
 30 66  1  0  0  0  0
 31 32  1  0  0  0  0
 31 67  1  0  0  0  0
 31 68  1  0  0  0  0
 32 33  1  0  0  0  0
 32 69  1  0  0  0  0
 32 70  1  0  0  0  0
 33 34  2  0  0  0  0
 33 35  1  0  0  0  0
 35 36  1  0  0  0  0
 35 71  1  0  0  0  0
 36 72  1  0  0  0  0
M  END
>  <DRUGBANK_ID>
DB17118

>  <COMMON_NAME>
Ivaltinostat

>  <CAS_NUMBER>
936221-33-9

>  <SYNONYMS>
(E)-N-(3-(DIMETHYLAMINO)PROPYL)-N'-HYDROXY-2-((1-NAPHTHYLOXY)METHYL)-2-OCTENEDIAMIDE; 2-OCTENEDIAMIDE, N1-(3-(DIMETHYLAMINO)PROPYL)-N8-HYDROXY-2-((1-NAPHTHALENYLOXY)METHYL)-, (2E)-

$$$$
