
 OpenBabel10282417123D

 57 61  0  0  0  0  0  0  0  0999 V2000
   -2.4063    1.5469   -0.0294 C   0  0  0  0  0  0  0  0  0  0  0  0
   -1.5503    0.3852   -0.0220 N   0  0  0  0  0  0  0  0  0  0  0  0
   -1.9036   -0.9472   -0.0011 C   0  0  0  0  0  0  0  0  0  0  0  0
   -3.3097   -1.4781   -0.0153 C   0  0  0  0  0  0  0  0  0  0  0  0
   -3.6345   -2.2547   -1.2098 N   0  0  0  0  0  0  0  0  0  0  0  0
   -3.9956   -3.5893   -1.1080 C   0  0  0  0  0  0  0  0  0  0  0  0
   -4.9517   -4.0110   -0.1822 C   0  0  0  0  0  0  0  0  0  0  0  0
   -5.3816   -5.3409   -0.1376 C   0  0  0  0  0  0  0  0  0  0  0  0
   -4.8408   -6.2910   -1.0103 C   0  0  0  0  0  0  0  0  0  0  0  0
   -3.8729   -5.8824   -1.9314 C   0  0  0  0  0  0  0  0  0  0  0  0
   -3.4265   -4.5527   -1.9481 C   0  0  0  0  0  0  0  0  0  0  0  0
   -5.2746   -7.7225   -0.8921 C   0  0  0  0  0  0  0  0  0  0  0  0
   -4.7725   -8.6845   -1.7210 N   0  0  0  0  0  0  0  0  0  0  0  0
   -6.1241   -8.0516    0.0197 N   0  0  0  0  0  0  0  0  0  0  0  0
   -0.8225   -1.7094    0.0024 N   0  0  0  0  0  0  0  0  0  0  0  0
    0.2431   -0.8615   -0.0944 C   0  0  0  0  0  0  0  0  0  0  0  0
   -0.1779    0.4608   -0.1247 C   0  0  0  0  0  0  0  0  0  0  0  0
    0.7088    1.5380   -0.2256 C   0  0  0  0  0  0  0  0  0  0  0  0
    2.0719    1.2319   -0.3178 C   0  0  0  0  0  0  0  0  0  0  0  0
    2.5346   -0.0930   -0.1958 C   0  0  0  0  0  0  0  0  0  0  0  0
    3.9978   -0.3623    0.0302 C   0  0  0  0  0  0  0  0  0  0  0  0
    4.5692    0.1748    1.2749 N   0  0  0  0  0  0  0  0  0  0  0  0
    3.9835    0.7847    2.3769 C   0  0  0  0  0  0  0  0  0  0  0  0
    2.5489    1.0635    2.6402 C   0  0  0  0  0  0  0  0  0  0  0  0
    4.8979    1.1419    3.2566 N   0  0  0  0  0  0  0  0  0  0  0  0
    6.0905    0.7064    2.7722 C   0  0  0  0  0  0  0  0  0  0  0  0
    5.9341    0.0939    1.5359 C   0  0  0  0  0  0  0  0  0  0  0  0
    7.0217   -0.4483    0.8351 C   0  0  0  0  0  0  0  0  0  0  0  0
    8.2839   -0.3522    1.4393 C   0  0  0  0  0  0  0  0  0  0  0  0
    8.4526    0.2628    2.6809 C   0  0  0  0  0  0  0  0  0  0  0  0
    7.3577    0.8003    3.3598 C   0  0  0  0  0  0  0  0  0  0  0  0
    1.6131   -1.1571   -0.1265 C   0  0  0  0  0  0  0  0  0  0  0  0
   -2.1652    2.1631    0.8419 H   0  0  0  0  0  0  0  0  0  0  0  0
   -2.2119    2.1027   -0.9506 H   0  0  0  0  0  0  0  0  0  0  0  0
   -3.4575    1.2698    0.0080 H   0  0  0  0  0  0  0  0  0  0  0  0
   -3.4457   -2.0522    0.9095 H   0  0  0  0  0  0  0  0  0  0  0  0
   -4.0406   -0.6689    0.0265 H   0  0  0  0  0  0  0  0  0  0  0  0
   -3.1575   -1.9726   -2.0574 H   0  0  0  0  0  0  0  0  0  0  0  0
   -5.4063   -3.2946    0.4950 H   0  0  0  0  0  0  0  0  0  0  0  0
   -6.1504   -5.6228    0.5773 H   0  0  0  0  0  0  0  0  0  0  0  0
   -3.4448   -6.5716   -2.6495 H   0  0  0  0  0  0  0  0  0  0  0  0
   -2.6117   -4.2848   -2.6169 H   0  0  0  0  0  0  0  0  0  0  0  0
   -4.9783   -9.6595   -1.5616 H   0  0  0  0  0  0  0  0  0  0  0  0
   -4.0180   -8.4956   -2.3616 H   0  0  0  0  0  0  0  0  0  0  0  0
   -6.3038   -9.0570   -0.0128 H   0  0  0  0  0  0  0  0  0  0  0  0
    0.3739    2.5672   -0.1507 H   0  0  0  0  0  0  0  0  0  0  0  0
    2.7879    2.0546   -0.3089 H   0  0  0  0  0  0  0  0  0  0  0  0
    4.5689    0.0661   -0.8030 H   0  0  0  0  0  0  0  0  0  0  0  0
    4.1958   -1.4422    0.0483 H   0  0  0  0  0  0  0  0  0  0  0  0
    2.2761    0.7360    3.6451 H   0  0  0  0  0  0  0  0  0  0  0  0
    2.3603    2.1407    2.5618 H   0  0  0  0  0  0  0  0  0  0  0  0
    1.8533    0.5348    2.0095 H   0  0  0  0  0  0  0  0  0  0  0  0
    6.9068   -0.9320   -0.1287 H   0  0  0  0  0  0  0  0  0  0  0  0
    9.1526   -0.7681    0.9330 H   0  0  0  0  0  0  0  0  0  0  0  0
    9.4397    0.3252    3.1313 H   0  0  0  0  0  0  0  0  0  0  0  0
    7.4662    1.2753    4.3282 H   0  0  0  0  0  0  0  0  0  0  0  0
    1.9293   -2.1910   -0.0261 H   0  0  0  0  0  0  0  0  0  0  0  0
  1  2  1  0  0  0  0
  1 33  1  0  0  0  0
  1 34  1  0  0  0  0
  1 35  1  0  0  0  0
  2  3  1  0  0  0  0
  2 17  1  0  0  0  0
  3  4  1  0  0  0  0
  3 15  2  0  0  0  0
  4  5  1  0  0  0  0
  4 36  1  0  0  0  0
  4 37  1  0  0  0  0
  5  6  1  0  0  0  0
  5 38  1  0  0  0  0
  6  7  2  0  0  0  0
  6 11  1  0  0  0  0
  7  8  1  0  0  0  0
  7 39  1  0  0  0  0
  8  9  2  0  0  0  0
  8 40  1  0  0  0  0
  9 10  1  0  0  0  0
  9 12  1  0  0  0  0
 10 11  2  0  0  0  0
 10 41  1  0  0  0  0
 11 42  1  0  0  0  0
 12 13  1  0  0  0  0
 12 14  2  0  0  0  0
 13 43  1  0  0  0  0
 13 44  1  0  0  0  0
 14 45  1  0  0  0  0
 15 16  1  0  0  0  0
 16 17  2  0  0  0  0
 16 32  1  0  0  0  0
 17 18  1  0  0  0  0
 18 19  2  0  0  0  0
 18 46  1  0  0  0  0
 19 20  1  0  0  0  0
 19 47  1  0  0  0  0
 20 21  1  0  0  0  0
 20 32  2  0  0  0  0
 21 22  1  0  0  0  0
 21 48  1  0  0  0  0
 21 49  1  0  0  0  0
 22 23  1  0  0  0  0
 22 27  1  0  0  0  0
 23 24  1  0  0  0  0
 23 25  2  0  0  0  0
 24 50  1  0  0  0  0
 24 51  1  0  0  0  0
 24 52  1  0  0  0  0
 25 26  1  0  0  0  0
 26 27  2  0  0  0  0
 26 31  1  0  0  0  0
 27 28  1  0  0  0  0
 28 29  2  0  0  0  0
 28 53  1  0  0  0  0
 29 30  1  0  0  0  0
 29 54  1  0  0  0  0
 30 31  2  0  0  0  0
 30 55  1  0  0  0  0
 31 56  1  0  0  0  0
 32 57  1  0  0  0  0
M  END
>  <DRUGBANK_ID>
DB02354

>  <SECONDARY_ACCESSION_NUMBERS>
EXPT02739

>  <COMMON_NAME>
4-{[1-Methyl-5-(2-Methyl-Benzoimidazol-1-Ylmethyl)-1h-Benzoimidazol-2-Ylmethyl]-Amino}-Benzamidine

$$$$
