
 OpenBabel10282417223D

186193  0  0  1  0  0  0  0  0999 V2000
   -0.9389    2.7042    0.1612 C   0  0  0  0  0  0  0  0  0  0  0  0
   -1.8051    2.3647   -1.5209 C   0  0  3  0  0  0  0  0  0  0  0  0
   -1.8797    3.5766   -2.0995 O   0  0  0  0  0  0  0  0  0  0  0  0
   -1.2749    1.1052   -2.8498 C   0  0  0  0  0  0  0  0  0  0  0  0
   -1.0804   -0.1184   -2.9364 O   0  0  0  0  0  0  0  0  0  0  0  0
   -0.3162    0.5088   -1.5910 C   0  0  0  0  0  0  0  0  0  0  0  0
    1.3232   -0.7090   -2.0486 C   0  0  1  0  0  0  0  0  0  0  0  0
    0.6742    1.0149   -0.9022 O   0  0  0  0  0  0  0  0  0  0  0  0
    0.4622    1.7827    1.0723 C   0  0  2  0  0  0  0  0  0  0  0  0
   -0.5763    0.3609    1.5737 O   0  0  0  0  0  0  0  0  0  0  0  0
   -0.3287   -1.6360    0.4880 C   0  0  2  0  0  0  0  0  0  0  0  0
   -0.2314   -1.2194   -1.8972 C   0  0  1  0  0  0  0  0  0  0  0  0
   -2.2840   -1.1832   -1.0247 C   0  0  0  0  0  0  0  0  0  0  0  0
   -2.4488   -1.5554    0.3327 O   0  0  0  0  0  0  0  0  0  0  0  0
    0.7820    0.5556   -2.7363 O   0  0  0  0  0  0  0  0  0  0  0  0
    2.7991    0.2173   -2.8308 C   0  0  2  0  0  0  0  0  0  0  0  0
    4.3630    1.7096   -2.5586 O   0  0  0  0  0  0  0  0  0  0  0  0
    4.2528    3.3408   -0.9483 C   0  0  2  0  0  0  0  0  0  0  0  0
    2.2031    3.4141   -1.0373 C   0  0  1  0  0  0  0  0  0  0  0  0
   -0.0604    3.8324   -1.5291 C   0  0  0  0  0  0  0  0  0  0  0  0
   -0.4177    2.5531   -2.5837 O   0  0  0  0  0  0  0  0  0  0  0  0
    1.5018    3.1613    1.1089 O   0  0  0  0  0  0  0  0  0  0  0  0
    0.8563    1.3565    2.4978 C   0  0  2  0  0  0  0  0  0  0  0  0
    0.4826   -0.5565    1.7820 O   0  0  0  0  0  0  0  0  0  0  0  0
    0.9792   -1.3445    1.1640 C   0  0  2  0  0  0  0  0  0  0  0  0
    0.2372   -0.3641   -0.4487 C   0  0  1  0  0  0  0  0  0  0  0  0
   -1.9544    0.7233    0.0501 C   0  0  0  0  0  0  0  0  0  0  0  0
   -2.3778    0.5341    1.3635 O   0  0  0  0  0  0  0  0  0  0  0  0
    1.9540    0.2804   -1.3921 O   0  0  0  0  0  0  0  0  0  0  0  0
    2.9861   -1.4096   -2.4646 C   0  0  2  0  0  0  0  0  0  0  0  0
    4.4849    0.1945   -2.4434 O   0  0  0  0  0  0  0  0  0  0  0  0
    4.5352    1.9079   -1.0156 C   0  0  2  0  0  0  0  0  0  0  0  0
    3.1074    3.6640    0.0936 C   0  0  1  0  0  0  0  0  0  0  0  0
    1.0472    4.0207   -0.5574 C   0  0  0  0  0  0  0  0  0  0  0  0
    0.7660    3.5785   -2.8087 O   0  0  0  0  0  0  0  0  0  0  0  0
    1.1938    2.0791   -4.2080 C   0  0  0  0  0  0  0  0  0  0  0  0
    1.2308    3.3793   -4.5156 C   0  0  3  0  0  0  0  0  0  0  0  0
    1.8538    4.8085   -3.0643 C   0  0  0  0  0  0  0  0  0  0  0  0
    2.4887    3.2293   -5.6116 O   0  0  0  0  0  0  0  0  0  0  0  0
    1.5021    2.2523   -0.5029 O   0  0  0  0  0  0  0  0  0  0  0  0
    1.3137    0.5223    0.9822 C   0  0  2  0  0  0  0  0  0  0  0  0
    0.9184   -0.2743    3.0648 O   0  0  0  0  0  0  0  0  0  0  0  0
    1.1013   -2.1968    2.2708 C   0  0  2  0  0  0  0  0  0  0  0  0
    0.9095   -1.7323   -0.2134 C   0  0  1  0  0  0  0  0  0  0  0  0
   -0.9987   -0.3547    0.2826 C   0  0  0  0  0  0  0  0  0  0  0  0
   -1.5472   -0.9393    2.1721 O   0  0  0  0  0  0  0  0  0  0  0  0
    1.8427   -1.0710   -0.5369 O   0  0  0  0  0  0  0  0  0  0  0  0
    4.2538   -1.5302   -0.9477 C   0  0  2  0  0  0  0  0  0  0  0  0
    5.5931   -0.5807   -1.2992 O   0  0  0  0  0  0  0  0  0  0  0  0
    5.1923    0.7363   -0.5266 C   0  0  2  0  0  0  0  0  0  0  0  0
    2.9787    1.5407   -1.4493 C   0  0  1  0  0  0  0  0  0  0  0  0
    1.4214    2.1029   -2.0631 C   0  0  0  0  0  0  0  0  0  0  0  0
    2.2327    1.9661   -2.8422 O   0  0  0  0  0  0  0  0  0  0  0  0
    2.8811    2.7047   -3.6773 C   0  0  0  0  0  0  0  0  0  0  0  0
    2.9475    4.2173   -4.0047 C   0  0  3  0  0  0  0  0  0  0  0  0
    3.2508    5.4500   -2.1298 C   0  0  0  0  0  0  0  0  0  0  0  0
    3.8457    4.6782   -4.7063 O   0  0  0  0  0  0  0  0  0  0  0  0
    1.9031    1.7198    0.5116 O   0  0  0  0  0  0  0  0  0  0  0  0
    2.9214    2.1874    2.4037 C   0  0  2  0  0  0  0  0  0  0  0  0
    3.4997    0.7674    0.4833 O   0  0  0  0  0  0  0  0  0  0  0  0
    3.4671    0.0675   -1.3440 C   0  0  1  0  0  0  0  0  0  0  0  0
    3.6365   -0.1049    0.0590 C   0  0  0  0  0  0  0  0  0  0  0  0
    2.8288    1.2597    1.3299 C   0  0  1  0  0  0  0  0  0  0  0  0
    4.5279    0.6276    2.1782 O   0  0  0  0  0  0  0  0  0  0  0  0
    3.9889    0.8523    3.5313 C   0  0  2  0  0  0  0  0  0  0  0  0
    4.9881   -0.5070    4.0850 O   0  0  0  0  0  0  0  0  0  0  0  0
    5.7040    1.4484    1.9184 C   0  0  1  0  0  0  0  0  0  0  0  0
    6.8562    1.9198    2.3381 O   0  0  0  0  0  0  0  0  0  0  0  0
    3.7286   -1.7761    1.4263 C   0  0  2  0  0  0  0  0  0  0  0  0
    5.7181   -1.5273    1.4481 O   0  0  0  0  0  0  0  0  0  0  0  0
    2.4358   -2.3249    2.6976 C   0  0  1  0  0  0  0  0  0  0  0  0
    3.4903   -2.9481    3.0803 O   0  0  0  0  0  0  0  0  0  0  0  0
    3.3909   -0.1778    1.7702 C   0  0  2  0  0  0  0  0  0  0  0  0
    4.6642   -1.2800    2.5511 O   0  0  0  0  0  0  0  0  0  0  0  0
    4.8925    0.9474    0.8416 C   0  0  1  0  0  0  0  0  0  0  0  0
    6.9138    1.5589    0.5528 O   0  0  0  0  0  0  0  0  0  0  0  0
    3.1429   -2.8644   -0.6717 C   0  0  2  0  0  0  0  0  0  0  0  0
    5.0285   -2.8851    0.1052 O   0  0  0  0  0  0  0  0  0  0  0  0
    1.6890   -3.6044    0.3762 C   0  0  1  0  0  0  0  0  0  0  0  0
    2.0324   -4.3421    1.3868 O   0  0  0  0  0  0  0  0  0  0  0  0
    2.1756    0.5595    2.3890 C   0  0  2  0  0  0  0  0  0  0  0  0
    3.3772   -0.8148    3.4325 O   0  0  0  0  0  0  0  0  0  0  0  0
    3.6937    2.5411    1.2532 C   0  0  1  0  0  0  0  0  0  0  0  0
    5.3653    3.1970    2.0319 O   0  0  0  0  0  0  0  0  0  0  0  0
    2.9883   -1.2229   -1.0228 C   0  0  2  0  0  0  0  0  0  0  0  0
    4.9553   -0.8534    0.1553 O   0  0  0  0  0  0  0  0  0  0  0  0
    6.2953    0.2096    1.2069 C   0  0  0  0  0  0  0  0  0  0  0  0
    5.4559    2.3328    0.3692 C   0  0  3  0  0  0  0  0  0  0  0  0
    3.3618    2.1673   -0.2013 C   0  0  0  0  0  0  0  0  0  0  0  0
    4.8258    4.0415    0.6759 O   0  0  0  0  0  0  0  0  0  0  0  0
    2.0142   -2.2440    0.6482 C   0  0  1  0  0  0  0  0  0  0  0  0
    3.4791   -3.3953    1.2283 O   0  0  0  0  0  0  0  0  0  0  0  0
   -0.1172    2.2147   -0.0620 H   0  0  0  0  0  0  0  0  0  0  0  0
   -0.9586    1.8640    0.7673 H   0  0  0  0  0  0  0  0  0  0  0  0
   -1.0163    3.1943    1.0123 H   0  0  0  0  0  0  0  0  0  0  0  0
   -2.6508    1.9250   -1.2514 H   0  0  0  0  0  0  0  0  0  0  0  0
   -1.7260    4.0099   -1.2667 H   0  0  0  0  0  0  0  0  0  0  0  0
   -1.7169    1.0581   -3.6506 H   0  0  0  0  0  0  0  0  0  0  0  0
   -0.3934    1.1670   -3.4803 H   0  0  0  0  0  0  0  0  0  0  0  0
   -0.0947    0.7967    0.1440 H   0  0  0  0  0  0  0  0  0  0  0  0
   -0.8690   -1.0051   -0.8133 H   0  0  0  0  0  0  0  0  0  0  0  0
    1.1849   -0.6334   -3.1408 H   0  0  0  0  0  0  0  0  0  0  0  0
    0.3633    2.8113    2.0341 H   0  0  0  0  0  0  0  0  0  0  0  0
   -0.4744   -2.5390    0.7812 H   0  0  0  0  0  0  0  0  0  0  0  0
   -0.0826   -1.7091   -2.7582 H   0  0  0  0  0  0  0  0  0  0  0  0
   -2.0925    0.4718   -1.4278 H   0  0  0  0  0  0  0  0  0  0  0  0
   -2.3655   -1.4226   -1.9088 H   0  0  0  0  0  0  0  0  0  0  0  0
   -1.7057   -2.0921    0.3896 H   0  0  0  0  0  0  0  0  0  0  0  0
    2.3427   -0.8946   -3.6681 H   0  0  0  0  0  0  0  0  0  0  0  0
    4.7928    3.4736   -1.8252 H   0  0  0  0  0  0  0  0  0  0  0  0
    2.4584    4.1856   -1.4181 H   0  0  0  0  0  0  0  0  0  0  0  0
   -0.4366    4.1171   -0.3176 H   0  0  0  0  0  0  0  0  0  0  0  0
    0.2842    4.6538   -1.8233 H   0  0  0  0  0  0  0  0  0  0  0  0
    0.3516    2.2232   -3.0123 H   0  0  0  0  0  0  0  0  0  0  0  0
    1.7884    1.0062    2.4222 H   0  0  0  0  0  0  0  0  0  0  0  0
   -0.2486   -1.6176    1.9476 H   0  0  0  0  0  0  0  0  0  0  0  0
   -0.4016   -2.0531   -0.8714 H   0  0  0  0  0  0  0  0  0  0  0  0
   -2.0806    1.7261    0.0343 H   0  0  0  0  0  0  0  0  0  0  0  0
   -2.9402    0.2750   -0.5980 H   0  0  0  0  0  0  0  0  0  0  0  0
   -1.7465   -0.4140    1.3840 H   0  0  0  0  0  0  0  0  0  0  0  0
    2.2131   -2.1792   -2.2236 H   0  0  0  0  0  0  0  0  0  0  0  0
    5.7457    2.8279   -1.2576 H   0  0  0  0  0  0  0  0  0  0  0  0
    3.2924    4.5649   -0.1994 H   0  0  0  0  0  0  0  0  0  0  0  0
    0.6328    3.2456   -0.1813 H   0  0  0  0  0  0  0  0  0  0  0  0
    1.2644    4.8810   -0.5047 H   0  0  0  0  0  0  0  0  0  0  0  0
    2.5147    1.1359   -3.9427 H   0  0  0  0  0  0  0  0  0  0  0  0
    0.9674    1.0422   -4.3446 H   0  0  0  0  0  0  0  0  0  0  0  0
    0.2739    3.7541   -4.5296 H   0  0  0  0  0  0  0  0  0  0  0  0
    3.3933    4.2167   -2.7398 H   0  0  0  0  0  0  0  0  0  0  0  0
    2.3309    5.6814   -3.5202 H   0  0  0  0  0  0  0  0  0  0  0  0
    1.3172    5.0322   -2.3806 H   0  0  0  0  0  0  0  0  0  0  0  0
    3.5258    3.0802   -5.0895 H   0  0  0  0  0  0  0  0  0  0  0  0
    1.6491    2.0834    1.7800 H   0  0  0  0  0  0  0  0  0  0  0  0
    0.2244   -2.6855    2.5221 H   0  0  0  0  0  0  0  0  0  0  0  0
    0.8538   -2.4086   -1.0621 H   0  0  0  0  0  0  0  0  0  0  0  0
   -0.8729    1.1955   -0.5298 H   0  0  0  0  0  0  0  0  0  0  0  0
   -1.3658   -0.3161   -1.3961 H   0  0  0  0  0  0  0  0  0  0  0  0
   -2.1705   -1.5853    1.6870 H   0  0  0  0  0  0  0  0  0  0  0  0
    4.1633   -2.3224   -1.5940 H   0  0  0  0  0  0  0  0  0  0  0  0
    5.9035    1.4126   -1.6536 H   0  0  0  0  0  0  0  0  0  0  0  0
    3.1078    3.2390   -2.0784 H   0  0  0  0  0  0  0  0  0  0  0  0
    0.1624    2.3320   -1.2896 H   0  0  0  0  0  0  0  0  0  0  0  0
    1.6575    2.9602   -2.1693 H   0  0  0  0  0  0  0  0  0  0  0  0
    3.7027    2.4207   -3.4976 H   0  0  0  0  0  0  0  0  0  0  0  0
    2.7705    1.8481   -4.8589 H   0  0  0  0  0  0  0  0  0  0  0  0
    1.5809    4.8295   -4.5017 H   0  0  0  0  0  0  0  0  0  0  0  0
    3.8868    4.8660   -1.5394 H   0  0  0  0  0  0  0  0  0  0  0  0
    2.5372    6.1828   -2.0549 H   0  0  0  0  0  0  0  0  0  0  0  0
    2.2912    5.4235   -1.3388 H   0  0  0  0  0  0  0  0  0  0  0  0
    4.3608    4.0664   -4.1873 H   0  0  0  0  0  0  0  0  0  0  0  0
    1.6235    2.3055    3.2828 H   0  0  0  0  0  0  0  0  0  0  0  0
    4.3634   -1.1171   -2.3269 H   0  0  0  0  0  0  0  0  0  0  0  0
    3.9457   -1.7449    0.2265 H   0  0  0  0  0  0  0  0  0  0  0  0
    3.7934   -1.7635    0.1854 H   0  0  0  0  0  0  0  0  0  0  0  0
    2.5978    1.2545    3.3119 H   0  0  0  0  0  0  0  0  0  0  0  0
    4.8562    2.2677    1.9278 H   0  0  0  0  0  0  0  0  0  0  0  0
    2.4352   -0.0857    3.4273 H   0  0  0  0  0  0  0  0  0  0  0  0
    4.7799   -1.6592    3.5250 H   0  0  0  0  0  0  0  0  0  0  0  0
    5.2892    2.2851    3.1652 H   0  0  0  0  0  0  0  0  0  0  0  0
    6.2190    1.6452    1.4599 H   0  0  0  0  0  0  0  0  0  0  0  0
    2.9887   -1.2844    1.3039 H   0  0  0  0  0  0  0  0  0  0  0  0
    5.1523   -0.6068    1.0771 H   0  0  0  0  0  0  0  0  0  0  0  0
    1.7389   -2.7812    2.2085 H   0  0  0  0  0  0  0  0  0  0  0  0
    4.1517   -2.9316    2.1857 H   0  0  0  0  0  0  0  0  0  0  0  0
    2.2456   -0.9067    2.1987 H   0  0  0  0  0  0  0  0  0  0  0  0
    4.9909   -0.5088    2.2511 H   0  0  0  0  0  0  0  0  0  0  0  0
    4.2649    1.7308    2.4495 H   0  0  0  0  0  0  0  0  0  0  0  0
    6.7147    2.6848    1.2691 H   0  0  0  0  0  0  0  0  0  0  0  0
    2.7951   -1.3478    0.2167 H   0  0  0  0  0  0  0  0  0  0  0  0
    5.0129   -2.1748    1.0848 H   0  0  0  0  0  0  0  0  0  0  0  0
    1.1634   -3.6345    1.1935 H   0  0  0  0  0  0  0  0  0  0  0  0
    2.8536   -4.0602    0.7358 H   0  0  0  0  0  0  0  0  0  0  0  0
    2.0968   -0.4534    1.1088 H   0  0  0  0  0  0  0  0  0  0  0  0
    3.6914   -1.5775    2.9006 H   0  0  0  0  0  0  0  0  0  0  0  0
    4.0687    1.8701    1.2130 H   0  0  0  0  0  0  0  0  0  0  0  0
    5.1576    3.9122    1.6352 H   0  0  0  0  0  0  0  0  0  0  0  0
    2.3056   -0.0018   -0.0379 H   0  0  0  0  0  0  0  0  0  0  0  0
    5.8197    0.4837    2.8909 H   0  0  0  0  0  0  0  0  0  0  0  0
    6.4209    0.1020    2.5053 H   0  0  0  0  0  0  0  0  0  0  0  0
    5.9922    2.0444   -0.3946 H   0  0  0  0  0  0  0  0  0  0  0  0
    2.7497    2.5035    0.3041 H   0  0  0  0  0  0  0  0  0  0  0  0
    3.6927    2.4741   -1.8421 H   0  0  0  0  0  0  0  0  0  0  0  0
    2.5143    1.1412   -0.3597 H   0  0  0  0  0  0  0  0  0  0  0  0
    3.9716    3.9442    1.7254 H   0  0  0  0  0  0  0  0  0  0  0  0
    0.5972   -2.9682    0.2106 H   0  0  0  0  0  0  0  0  0  0  0  0
    2.9785   -3.9411    2.0326 H   0  0  0  0  0  0  0  0  0  0  0  0
  1  2  1  0  0  0  0
  1 93  1  0  0  0  0
  1 94  1  0  0  0  0
  1 95  1  0  0  0  0
  2  3  1  0  0  0  0
  2  4  1  0  0  0  0
  2 96  1  0  0  0  0
  3 97  1  0  0  0  0
  4  5  1  0  0  0  0
  4 98  1  0  0  0  0
  4 99  1  0  0  0  0
  5  6  1  0  0  0  0
  6100  1  0  0  0  0
  6101  1  0  0  0  0
  7  8  1  0  0  0  0
  7 61  1  0  0  0  0
  7102  1  6  0  0  0
  7  6  1  0  0  0  0
  9  8  1  0  0  0  0
  9 10  1  0  0  0  0
  9 63  1  0  0  0  0
  9103  1  6  0  0  0
 11 10  1  0  0  0  0
 11 12  1  0  0  0  0
 11 91  1  0  0  0  0
 11104  1  6  0  0  0
 12 15  1  0  0  0  0
 12105  1  6  0  0  0
 12 13  1  0  0  0  0
 13 14  1  0  0  0  0
 13106  1  0  0  0  0
 13107  1  0  0  0  0
 14108  1  0  0  0  0
 16 15  1  0  0  0  0
 16 17  1  0  0  0  0
 16109  1  1  0  0  0
 18 17  1  0  0  0  0
 18 19  1  0  0  0  0
 18 83  1  0  0  0  0
 18110  1  1  0  0  0
 19 22  1  0  0  0  0
 19111  1  1  0  0  0
 19 20  1  0  0  0  0
 20 21  1  0  0  0  0
 20112  1  0  0  0  0
 20113  1  0  0  0  0
 21114  1  0  0  0  0
 23 22  1  0  0  0  0
 23 24  1  0  0  0  0
 23115  1  6  0  0  0
 25 24  1  0  0  0  0
 25 26  1  0  0  0  0
 25 79  1  0  0  0  0
 25116  1  6  0  0  0
 26 29  1  0  0  0  0
 26117  1  6  0  0  0
 26 27  1  0  0  0  0
 27 28  1  0  0  0  0
 27118  1  0  0  0  0
 27119  1  0  0  0  0
 28120  1  0  0  0  0
 30 29  1  0  0  0  0
 30 31  1  0  0  0  0
 30121  1  1  0  0  0
 32 31  1  0  0  0  0
 32 33  1  0  0  0  0
 32 75  1  0  0  0  0
 32122  1  1  0  0  0
 33 40  1  0  0  0  0
 33123  1  1  0  0  0
 33 34  1  0  0  0  0
 34 35  1  0  0  0  0
 34124  1  0  0  0  0
 34125  1  0  0  0  0
 35 36  1  0  0  0  0
 36 37  1  0  0  0  0
 36126  1  0  0  0  0
 36127  1  0  0  0  0
 37 38  1  0  0  0  0
 37 39  1  0  0  0  0
 37128  1  0  0  0  0
 38129  1  0  0  0  0
 38130  1  0  0  0  0
 38131  1  0  0  0  0
 39132  1  0  0  0  0
 41 40  1  0  0  0  0
 41 42  1  0  0  0  0
 41133  1  6  0  0  0
 43 42  1  0  0  0  0
 43 44  1  0  0  0  0
 43 71  1  0  0  0  0
 43134  1  6  0  0  0
 44 47  1  0  0  0  0
 44135  1  6  0  0  0
 44 45  1  0  0  0  0
 45 46  1  0  0  0  0
 45136  1  0  0  0  0
 45137  1  0  0  0  0
 46138  1  0  0  0  0
 48 47  1  0  0  0  0
 48 49  1  0  0  0  0
 48139  1  1  0  0  0
 50 49  1  0  0  0  0
 50 51  1  0  0  0  0
 50 67  1  0  0  0  0
 50140  1  1  0  0  0
 51 58  1  0  0  0  0
 51141  1  1  0  0  0
 51 52  1  0  0  0  0
 52 53  1  0  0  0  0
 52142  1  0  0  0  0
 52143  1  0  0  0  0
 53 54  1  0  0  0  0
 54 55  1  0  0  0  0
 54144  1  0  0  0  0
 54145  1  0  0  0  0
 55 56  1  0  0  0  0
 55 57  1  0  0  0  0
 55146  1  0  0  0  0
 56147  1  0  0  0  0
 56148  1  0  0  0  0
 56149  1  0  0  0  0
 57150  1  0  0  0  0
 59 58  1  0  0  0  0
 59 60  1  0  0  0  0
 59151  1  6  0  0  0
 61 60  1  0  0  0  0
 61 62  1  0  0  0  0
 61152  1  6  0  0  0
 62153  1  0  0  0  0
 62154  1  0  0  0  0
 63 62  1  0  0  0  0
 63 64  1  0  0  0  0
 63155  1  1  0  0  0
 64156  1  0  0  0  0
 65 59  1  0  0  0  0
 65 66  1  0  0  0  0
 65157  1  6  0  0  0
 66158  1  0  0  0  0
 67 65  1  0  0  0  0
 67 68  1  0  0  0  0
 67159  1  6  0  0  0
 68160  1  0  0  0  0
 69 48  1  0  0  0  0
 69 70  1  0  0  0  0
 69161  1  1  0  0  0
 70162  1  0  0  0  0
 71 69  1  0  0  0  0
 71 72  1  0  0  0  0
 71163  1  6  0  0  0
 72164  1  0  0  0  0
 73 41  1  0  0  0  0
 73 74  1  0  0  0  0
 73165  1  6  0  0  0
 74166  1  0  0  0  0
 75 73  1  0  0  0  0
 75 76  1  0  0  0  0
 75167  1  1  0  0  0
 76168  1  0  0  0  0
 77 30  1  0  0  0  0
 77 78  1  0  0  0  0
 77169  1  1  0  0  0
 78170  1  0  0  0  0
 79 77  1  0  0  0  0
 79 80  1  0  0  0  0
 79171  1  6  0  0  0
 80172  1  0  0  0  0
 81 23  1  0  0  0  0
 81 82  1  0  0  0  0
 81173  1  6  0  0  0
 82174  1  0  0  0  0
 83 81  1  0  0  0  0
 83 84  1  0  0  0  0
 83175  1  1  0  0  0
 84176  1  0  0  0  0
 85 16  1  0  0  0  0
 85 86  1  0  0  0  0
 85177  1  1  0  0  0
 86 87  1  0  0  0  0
 87 88  1  0  0  0  0
 87178  1  0  0  0  0
 87179  1  0  0  0  0
 88 89  1  0  0  0  0
 88 90  1  0  0  0  0
 88180  1  0  0  0  0
 89181  1  0  0  0  0
 89182  1  0  0  0  0
 89183  1  0  0  0  0
 90184  1  0  0  0  0
 91 85  1  0  0  0  0
 91 92  1  0  0  0  0
 91185  1  6  0  0  0
 92186  1  0  0  0  0
M  END
>  <DRUGBANK_ID>
DB15146

>  <COMMON_NAME>
Adrabetadex

>  <CAS_NUMBER>
128446-35-5

>  <UNII>
8W6Q67R6NX

>  <SYNONYMS>
Adrabetadex

$$$$
