
 OpenBabel10282417133D

 15 16  0  0  0  0  0  0  0  0999 V2000
    2.1532    0.7307   -0.0114 C   0  0  0  0  0  0  0  0  0  0  0  0
    2.1891   -0.6663   -0.0017 C   0  0  0  0  0  0  0  0  0  0  0  0
    0.9321    1.4175   -0.0037 C   0  0  0  0  0  0  0  0  0  0  0  0
    1.0127   -1.4253    0.0067 C   0  0  0  0  0  0  0  0  0  0  0  0
   -2.2843    0.0047   -0.0010 C   0  0  0  0  0  0  0  0  0  0  0  0
   -0.2570    0.6745    0.0021 C   0  0  0  0  0  0  0  0  0  0  0  0
   -0.1896   -0.7153    0.0018 C   0  0  0  0  0  0  0  0  0  0  0  0
   -1.5629    1.1021    0.0057 N   0  0  0  0  0  0  0  0  0  0  0  0
   -1.5013   -1.1150   -0.0088 N   0  0  0  0  0  0  0  0  0  0  0  0
    3.0827    1.2948   -0.0253 H   0  0  0  0  0  0  0  0  0  0  0  0
    3.1513   -1.1748   -0.0028 H   0  0  0  0  0  0  0  0  0  0  0  0
    0.8960    2.5010   -0.0061 H   0  0  0  0  0  0  0  0  0  0  0  0
    1.0421   -2.5092    0.0137 H   0  0  0  0  0  0  0  0  0  0  0  0
   -3.3649   -0.0426   -0.0029 H   0  0  0  0  0  0  0  0  0  0  0  0
   -1.8308   -2.0690   -0.0258 H   0  0  0  0  0  0  0  0  0  0  0  0
  1 10  1  0  0  0  0
  2  1  2  0  0  0  0
  2 11  1  0  0  0  0
  3  1  1  0  0  0  0
  3 12  1  0  0  0  0
  4  2  1  0  0  0  0
  4 13  1  0  0  0  0
  5 14  1  0  0  0  0
  6  3  2  0  0  0  0
  7  4  2  0  0  0  0
  7  6  1  0  0  0  0
  8  5  2  0  0  0  0
  8  6  1  0  0  0  0
  9  5  1  0  0  0  0
  9  7  1  0  0  0  0
  9 15  1  0  0  0  0
M  END
>  <DRUGBANK_ID>
DB02962

>  <SECONDARY_ACCESSION_NUMBERS>
EXPT00791

>  <COMMON_NAME>
Benzimidazole

>  <CAS_NUMBER>
51-17-2

>  <UNII>
E24GX49LD8

$$$$
