
 OpenBabel10282417163D

 46 49  0  0  0  0  0  0  0  0999 V2000
    4.7988    1.1464   -0.2255 O   0  0  0  0  0  0  0  0  0  0  0  0
    2.8943   -0.2132   -1.6724 O   0  0  0  0  0  0  0  0  0  0  0  0
    7.3817    0.7111    2.1026 O   0  0  0  0  0  0  0  0  0  0  0  0
    2.4770   -0.3473   -4.3139 O   0  0  0  0  0  0  0  0  0  0  0  0
    4.4944    2.8311    3.6024 N   0  0  0  0  0  0  0  0  0  0  0  0
    4.6188    0.5448    1.0955 N   0  0  0  0  0  0  0  0  0  0  0  0
    7.6559   -0.9658    3.6497 N   0  0  0  0  0  0  0  0  0  0  0  0
    4.7725    1.4277    3.3777 C   0  0  0  0  0  0  0  0  0  0  0  0
    4.1227    1.2858    2.1624 C   0  0  0  0  0  0  0  0  0  0  0  0
    2.9206    2.0770    2.2481 C   0  0  0  0  0  0  0  0  0  0  0  0
    3.3163    3.2449    2.8917 C   0  0  0  0  0  0  0  0  0  0  0  0
    5.8117    0.5418    3.9250 C   0  0  0  0  0  0  0  0  0  0  0  0
    5.6934   -0.4841    4.8073 C   0  0  0  0  0  0  0  0  0  0  0  0
    1.6865    2.0627    1.5384 C   0  0  0  0  0  0  0  0  0  0  0  0
    3.1282    2.2801   -1.7780 C   0  0  0  0  0  0  0  0  0  0  0  0
    6.8941   -1.3497    4.6077 C   0  0  0  0  0  0  0  0  0  0  0  0
    2.5572    4.4528    2.6406 C   0  0  0  0  0  0  0  0  0  0  0  0
    7.0487    0.1581    3.1250 C   0  0  0  0  0  0  0  0  0  0  0  0
    3.7356    2.0518   -0.4356 C   0  0  0  0  0  0  0  0  0  0  0  0
    2.4908    0.9985   -2.3288 C   0  0  1  0  0  0  0  0  0  0  0  0
    4.7224   -0.9540    5.7656 C   0  0  0  0  0  0  0  0  0  0  0  0
    1.1339    3.2525    1.0655 C   0  0  0  0  0  0  0  0  0  0  0  0
    1.5429    4.4438    1.6305 C   0  0  0  0  0  0  0  0  0  0  0  0
    7.1093   -2.5415    5.4798 C   0  0  0  0  0  0  0  0  0  0  0  0
    2.9306    0.8798   -3.7695 C   0  0  0  0  0  0  0  0  0  0  0  0
    4.9766   -2.0333    6.5385 C   0  0  0  0  0  0  0  0  0  0  0  0
    6.1891   -2.8220    6.4140 C   0  0  0  0  0  0  0  0  0  0  0  0
    3.8388   -0.1274   -1.4297 H   0  0  0  0  0  0  0  0  0  0  0  0
    2.6978   -1.0131   -3.6297 H   0  0  0  0  0  0  0  0  0  0  0  0
    5.1731    3.4932    3.9589 H   0  0  0  0  0  0  0  0  0  0  0  0
    5.5290    0.1125    1.2856 H   0  0  0  0  0  0  0  0  0  0  0  0
    1.3788    1.1242    1.0820 H   0  0  0  0  0  0  0  0  0  0  0  0
    2.3223    3.0250   -1.6644 H   0  0  0  0  0  0  0  0  0  0  0  0
    3.8616    2.7292   -2.4465 H   0  0  0  0  0  0  0  0  0  0  0  0
    2.7236    5.4040    3.1444 H   0  0  0  0  0  0  0  0  0  0  0  0
    2.9180    1.5044   -0.0308 H   0  0  0  0  0  0  0  0  0  0  0  0
    3.9754    3.0045    0.0397 H   0  0  0  0  0  0  0  0  0  0  0  0
    1.3953    1.0319   -2.2335 H   0  0  0  0  0  0  0  0  0  0  0  0
    3.7908   -0.4166    5.8732 H   0  0  0  0  0  0  0  0  0  0  0  0
    0.4430    3.2202    0.2196 H   0  0  0  0  0  0  0  0  0  0  0  0
    1.0358    5.3525    1.2869 H   0  0  0  0  0  0  0  0  0  0  0  0
    8.0022   -3.1502    5.3596 H   0  0  0  0  0  0  0  0  0  0  0  0
    2.5580    1.7239   -4.3541 H   0  0  0  0  0  0  0  0  0  0  0  0
    4.0254    0.8691   -3.7949 H   0  0  0  0  0  0  0  0  0  0  0  0
    4.2701   -2.3685    7.2956 H   0  0  0  0  0  0  0  0  0  0  0  0
    6.3250   -3.6687    7.0912 H   0  0  0  0  0  0  0  0  0  0  0  0
  1  6  1  0  0  0  0
  1 19  1  0  0  0  0
  2 28  1  0  0  0  0
  3 18  2  0  0  0  0
  4 25  1  0  0  0  0
  4 29  1  0  0  0  0
  5  8  1  0  0  0  0
  5 11  1  0  0  0  0
  5 30  1  0  0  0  0
  6  9  1  0  0  0  0
  6 31  1  0  0  0  0
  7 16  2  0  0  0  0
  7 18  1  0  0  0  0
  8  9  2  0  0  0  0
  8 12  1  0  0  0  0
  9 10  1  0  0  0  0
 10 11  1  0  0  0  0
 10 14  2  0  0  0  0
 11 17  2  0  0  0  0
 12 13  2  0  0  0  0
 12 18  1  0  0  0  0
 13 16  1  0  0  0  0
 13 21  1  0  0  0  0
 14 22  1  0  0  0  0
 14 32  1  0  0  0  0
 15 19  1  0  0  0  0
 15 33  1  0  0  0  0
 15 34  1  0  0  0  0
 16 24  1  0  0  0  0
 17 23  1  0  0  0  0
 17 35  1  0  0  0  0
 19 36  1  0  0  0  0
 19 37  1  0  0  0  0
 20 25  1  0  0  0  0
 20 38  1  1  0  0  0
 20 15  1  0  0  0  0
 20  2  1  0  0  0  0
 21 26  2  0  0  0  0
 21 39  1  0  0  0  0
 22 23  2  0  0  0  0
 22 40  1  0  0  0  0
 23 41  1  0  0  0  0
 24 27  2  0  0  0  0
 24 42  1  0  0  0  0
 25 43  1  0  0  0  0
 25 44  1  0  0  0  0
 26 27  1  0  0  0  0
 26 45  1  0  0  0  0
 27 46  1  0  0  0  0
M  END
>  <DRUGBANK_ID>
DB07676

>  <COMMON_NAME>
3-({[(3S)-3,4-dihydroxybutyl]oxy}amino)-1H,2'H-2,3'-biindol-2'-one

$$$$
