358
 OpenBabel10282417103D

 42 44  0  0  1  0  0  0  0  0999 V2000
    1.0441    0.1425    0.0024 F   0  0  0  0  0  0  0  0  0  0  0  0
    2.8219    1.3913   -0.1319 F   0  0  0  0  0  0  0  0  0  0  0  0
    2.8188   -0.3671    1.1477 F   0  0  0  0  0  0  0  0  0  0  0  0
    3.4090    1.8063   -4.3817 F   0  0  0  0  0  0  0  0  0  0  0  0
    5.4127    1.4613   -3.5731 F   0  0  0  0  0  0  0  0  0  0  0  0
    5.0847    1.4807   -5.7119 F   0  0  0  0  0  0  0  0  0  0  0  0
    3.2652   -5.0736   -1.0294 O   0  0  0  0  0  0  0  0  0  0  0  0
    0.5740   -4.1050   -0.5991 N   0  0  0  0  0  0  0  0  0  0  0  0
    3.4192   -0.2291   -2.3439 N   0  0  0  0  0  0  0  0  0  0  0  0
    1.0142   -4.6361   -1.9033 C   0  0  3  0  0  0  0  0  0  0  0  0
    0.2295   -3.9961   -3.0618 C   0  0  0  0  0  0  0  0  0  0  0  0
    2.5509   -4.4470   -2.1017 C   0  0  3  0  0  0  0  0  0  0  0  0
   -1.2734   -4.1104   -2.8471 C   0  0  0  0  0  0  0  0  0  0  0  0
   -1.6584   -3.5927   -1.4645 C   0  0  0  0  0  0  0  0  0  0  0  0
   -0.8475   -4.2770   -0.3684 C   0  0  0  0  0  0  0  0  0  0  0  0
    2.9726   -2.9867   -2.2057 C   0  0  0  0  0  0  0  0  0  0  0  0
    3.5070   -2.4163   -3.3820 C   0  0  0  0  0  0  0  0  0  0  0  0
    2.7138   -2.1445   -1.1147 C   0  0  0  0  0  0  0  0  0  0  0  0
    3.7333   -1.0122   -3.3890 C   0  0  0  0  0  0  0  0  0  0  0  0
    2.8969   -0.7777   -1.2193 C   0  0  0  0  0  0  0  0  0  0  0  0
    3.8110   -3.1625   -4.5414 C   0  0  0  0  0  0  0  0  0  0  0  0
    4.2796   -0.4278   -4.5256 C   0  0  0  0  0  0  0  0  0  0  0  0
    4.3552   -2.5638   -5.6674 C   0  0  0  0  0  0  0  0  0  0  0  0
    4.5954   -1.1997   -5.6579 C   0  0  0  0  0  0  0  0  0  0  0  0
    2.4076    0.0957   -0.0708 C   0  0  0  0  0  0  0  0  0  0  0  0
    4.5352    1.0556   -4.5327 C   0  0  0  0  0  0  0  0  0  0  0  0
    4.2069   -4.8776   -1.1772 H   0  0  0  0  0  0  0  0  0  0  0  0
    1.1263   -4.5596    0.1318 H   0  0  0  0  0  0  0  0  0  0  0  0
    0.8208   -5.7176   -1.8903 H   0  0  0  0  0  0  0  0  0  0  0  0
    0.5059   -4.4739   -4.0097 H   0  0  0  0  0  0  0  0  0  0  0  0
    0.4780   -2.9322   -3.1628 H   0  0  0  0  0  0  0  0  0  0  0  0
    2.8195   -5.0188   -2.9910 H   0  0  0  0  0  0  0  0  0  0  0  0
   -1.8008   -3.5422   -3.6211 H   0  0  0  0  0  0  0  0  0  0  0  0
   -1.5760   -5.1588   -2.9471 H   0  0  0  0  0  0  0  0  0  0  0  0
   -1.4923   -2.5077   -1.4237 H   0  0  0  0  0  0  0  0  0  0  0  0
   -2.7255   -3.7617   -1.2904 H   0  0  0  0  0  0  0  0  0  0  0  0
   -1.0993   -3.8319    0.6000 H   0  0  0  0  0  0  0  0  0  0  0  0
   -1.0882   -5.3437   -0.3132 H   0  0  0  0  0  0  0  0  0  0  0  0
    2.2923   -2.5349   -0.1925 H   0  0  0  0  0  0  0  0  0  0  0  0
    3.6371   -4.2332   -4.6000 H   0  0  0  0  0  0  0  0  0  0  0  0
    4.5922   -3.1627   -6.5425 H   0  0  0  0  0  0  0  0  0  0  0  0
    5.0278   -0.7323   -6.5403 H   0  0  0  0  0  0  0  0  0  0  0  0
  1 25  1  0  0  0  0
  2 25  1  0  0  0  0
  3 25  1  0  0  0  0
  4 26  1  0  0  0  0
  5 26  1  0  0  0  0
  6 26  1  0  0  0  0
  7 12  1  0  0  0  0
  7 27  1  0  0  0  0
  8 10  1  0  0  0  0
  8 15  1  0  0  0  0
  8 28  1  0  0  0  0
  9 19  1  0  0  0  0
  9 20  2  0  0  0  0
 10 11  1  0  0  0  0
 10 12  1  0  0  0  0
 10 29  1  0  0  0  0
 11 13  1  0  0  0  0
 11 30  1  0  0  0  0
 11 31  1  0  0  0  0
 12 16  1  0  0  0  0
 12 32  1  0  0  0  0
 13 14  1  0  0  0  0
 13 33  1  0  0  0  0
 13 34  1  0  0  0  0
 14 15  1  0  0  0  0
 14 35  1  0  0  0  0
 14 36  1  0  0  0  0
 15 37  1  0  0  0  0
 15 38  1  0  0  0  0
 16 17  1  0  0  0  0
 16 18  2  0  0  0  0
 17 19  2  0  0  0  0
 17 21  1  0  0  0  0
 18 20  1  0  0  0  0
 18 39  1  0  0  0  0
 19 22  1  0  0  0  0
 20 25  1  0  0  0  0
 21 23  2  0  0  0  0
 21 40  1  0  0  0  0
 22 24  2  0  0  0  0
 22 26  1  0  0  0  0
 23 24  1  0  0  0  0
 23 41  1  0  0  0  0
 24 42  1  0  0  0  0
M  END
>  <DRUGBANK_ID>
DB00358

>  <SECONDARY_ACCESSION_NUMBERS>
APRD00300

>  <COMMON_NAME>
Mefloquine

>  <CAS_NUMBER>
53230-10-7

>  <UNII>
TML814419R

>  <SYNONYMS>
[(R*,S*)-2,8-bis(trifluoromethyl)quinolin-4-yl]-(2-piperidyl)methanol; alpha-2-Piperidinyl-2,8-bis(trifluoromethyl)-4-quinolinemethanol; Mefloquin; Mefloquina; MÃ©floquine; Mefloquine; Mefloquinum

$$$$
