
 OpenBabel10282417143D

 44 47  0  0  1  0  0  0  0  0999 V2000
    2.9253   -1.1789    0.1790 O   0  0  0  0  0  0  0  0  0  0  0  0
    2.9188    1.2230    0.2448 O   0  0  0  0  0  0  0  0  0  0  0  0
   -2.8000    1.5658    2.9190 O   0  0  0  0  0  0  0  0  0  0  0  0
   -2.7620    0.0324    1.1690 N   0  0  0  0  0  0  0  0  0  0  0  0
   -2.9696    1.1118    0.2618 N   0  0  0  0  0  0  0  0  0  0  0  0
   -1.7815    5.7448   -4.2791 N   0  0  0  0  0  0  0  0  0  0  0  0
   -2.7989   -1.3446    0.5554 C   0  0  1  0  0  0  0  0  0  0  0  0
   -1.9543   -1.4067   -0.7390 C   0  0  0  0  0  0  0  0  0  0  0  0
   -0.6404   -0.6853   -0.5450 C   0  0  0  0  0  0  0  0  0  0  0  0
   -0.6453    0.7292   -0.4599 C   0  0  0  0  0  0  0  0  0  0  0  0
   -1.9618    1.4407   -0.5080 C   0  0  0  0  0  0  0  0  0  0  0  0
   -2.2943   -2.4926    1.4326 C   0  0  0  0  0  0  0  0  0  0  0  0
    0.5554   -1.3910   -0.3503 C   0  0  0  0  0  0  0  0  0  0  0  0
    0.5351    1.4484   -0.2364 C   0  0  0  0  0  0  0  0  0  0  0  0
    1.6956   -0.6606   -0.0920 C   0  0  0  0  0  0  0  0  0  0  0  0
    1.6881    0.7167   -0.0475 C   0  0  0  0  0  0  0  0  0  0  0  0
   -2.0667    2.5609   -1.5048 C   0  0  0  0  0  0  0  0  0  0  0  0
   -2.7731    0.3864    2.5287 C   0  0  0  0  0  0  0  0  0  0  0  0
    3.6172    0.0130    0.6062 C   0  0  0  0  0  0  0  0  0  0  0  0
   -1.7597    2.3190   -2.8499 C   0  0  0  0  0  0  0  0  0  0  0  0
   -2.3628    3.8659   -1.1080 C   0  0  0  0  0  0  0  0  0  0  0  0
   -2.6830   -0.6891    3.5894 C   0  0  0  0  0  0  0  0  0  0  0  0
   -1.6089    3.3866   -3.7491 C   0  0  0  0  0  0  0  0  0  0  0  0
   -2.2931    4.9191   -2.0427 C   0  0  0  0  0  0  0  0  0  0  0  0
   -1.8187    4.7057   -3.3422 C   0  0  0  0  0  0  0  0  0  0  0  0
   -1.1655    5.5888   -5.0724 H   0  0  0  0  0  0  0  0  0  0  0  0
   -1.6836    6.6787   -3.8921 H   0  0  0  0  0  0  0  0  0  0  0  0
   -3.8484   -1.5506    0.3026 H   0  0  0  0  0  0  0  0  0  0  0  0
   -1.7719   -2.4473   -1.0364 H   0  0  0  0  0  0  0  0  0  0  0  0
   -2.4937   -0.9601   -1.5830 H   0  0  0  0  0  0  0  0  0  0  0  0
   -2.9708   -2.6938    2.2616 H   0  0  0  0  0  0  0  0  0  0  0  0
   -2.2367   -3.4414    0.8927 H   0  0  0  0  0  0  0  0  0  0  0  0
   -1.2884   -2.2713    1.8026 H   0  0  0  0  0  0  0  0  0  0  0  0
    0.5860   -2.4750   -0.3486 H   0  0  0  0  0  0  0  0  0  0  0  0
    0.5432    2.5289   -0.1520 H   0  0  0  0  0  0  0  0  0  0  0  0
    3.7098   -0.0167    1.6999 H   0  0  0  0  0  0  0  0  0  0  0  0
    4.6241    0.0248    0.1744 H   0  0  0  0  0  0  0  0  0  0  0  0
   -1.6344    1.3032   -3.2141 H   0  0  0  0  0  0  0  0  0  0  0  0
   -2.6259    4.0792   -0.0748 H   0  0  0  0  0  0  0  0  0  0  0  0
   -3.5766   -1.3183    3.5786 H   0  0  0  0  0  0  0  0  0  0  0  0
   -1.7601   -1.2646    3.4957 H   0  0  0  0  0  0  0  0  0  0  0  0
   -2.6268   -0.2460    4.5877 H   0  0  0  0  0  0  0  0  0  0  0  0
   -1.3142    3.1770   -4.7747 H   0  0  0  0  0  0  0  0  0  0  0  0
   -2.5914    5.9190   -1.7351 H   0  0  0  0  0  0  0  0  0  0  0  0
  1 15  1  0  0  0  0
  1 19  1  0  0  0  0
  2 16  1  0  0  0  0
  2 19  1  0  0  0  0
  3 18  2  0  0  0  0
  4  5  1  0  0  0  0
  4  7  1  0  0  0  0
  4 18  1  0  0  0  0
  5 11  2  0  0  0  0
  6 25  1  0  0  0  0
  6 26  1  0  0  0  0
  6 27  1  0  0  0  0
  7  8  1  0  0  0  0
  7 12  1  0  0  0  0
  7 28  1  6  0  0  0
  8  9  1  0  0  0  0
  8 29  1  0  0  0  0
  8 30  1  0  0  0  0
  9 10  1  0  0  0  0
  9 13  2  0  0  0  0
 10 11  1  0  0  0  0
 10 14  2  0  0  0  0
 11 17  1  0  0  0  0
 12 31  1  0  0  0  0
 12 32  1  0  0  0  0
 12 33  1  0  0  0  0
 13 15  1  0  0  0  0
 13 34  1  0  0  0  0
 14 16  1  0  0  0  0
 14 35  1  0  0  0  0
 15 16  2  0  0  0  0
 17 20  2  0  0  0  0
 17 21  1  0  0  0  0
 18 22  1  0  0  0  0
 19 36  1  0  0  0  0
 19 37  1  0  0  0  0
 20 23  1  0  0  0  0
 20 38  1  0  0  0  0
 21 24  2  0  0  0  0
 21 39  1  0  0  0  0
 22 40  1  0  0  0  0
 22 41  1  0  0  0  0
 22 42  1  0  0  0  0
 23 25  2  0  0  0  0
 23 43  1  0  0  0  0
 24 25  1  0  0  0  0
 24 44  1  0  0  0  0
M  END
>  <DRUGBANK_ID>
DB04982

>  <COMMON_NAME>
Talampanel

>  <CAS_NUMBER>
161832-65-1

>  <UNII>
CVS43XG1L5

>  <SYNONYMS>
Talampanel

$$$$
