
 OpenBabel10282417183D

 25 25  0  0  0  0  0  0  0  0999 V2000
    0.9066    0.0686   -0.0866 N   0  0  0  0  0  0  0  0  0  0  0  0
    0.4251   -1.2956   -0.0126 N   0  0  0  0  0  0  0  0  0  0  0  0
    0.9860    0.2422    2.4336 C   0  0  0  0  0  0  0  0  0  0  0  0
    2.4942    0.2152    2.5519 C   0  0  0  0  0  0  0  0  0  0  0  0
    0.4425    0.8236    1.0992 C   0  0  3  0  0  0  0  0  0  0  0  0
    3.2142    1.4077    2.6819 C   0  0  0  0  0  0  0  0  0  0  0  0
    3.1987   -0.9961    2.5168 C   0  0  0  0  0  0  0  0  0  0  0  0
    0.8215    2.2980    0.8989 C   0  0  0  0  0  0  0  0  0  0  0  0
    4.6036    1.4130    2.6950 C   0  0  0  0  0  0  0  0  0  0  0  0
    4.5897   -0.9972    2.6372 C   0  0  0  0  0  0  0  0  0  0  0  0
    5.2926    0.2039    2.6952 C   0  0  0  0  0  0  0  0  0  0  0  0
    1.9356    0.0921   -0.0768 H   0  0  0  0  0  0  0  0  0  0  0  0
   -0.5971   -1.3259   -0.0552 H   0  0  0  0  0  0  0  0  0  0  0  0
    0.7445   -1.8347   -0.8219 H   0  0  0  0  0  0  0  0  0  0  0  0
    0.5826    0.8144    3.2787 H   0  0  0  0  0  0  0  0  0  0  0  0
    0.5916   -0.7746    2.5720 H   0  0  0  0  0  0  0  0  0  0  0  0
   -0.6551    0.7891    1.1358 H   0  0  0  0  0  0  0  0  0  0  0  0
    2.6964    2.3617    2.7468 H   0  0  0  0  0  0  0  0  0  0  0  0
    2.6702   -1.9387    2.3971 H   0  0  0  0  0  0  0  0  0  0  0  0
    0.3063    2.7357    0.0390 H   0  0  0  0  0  0  0  0  0  0  0  0
    0.5583    2.8880    1.7846 H   0  0  0  0  0  0  0  0  0  0  0  0
    1.8914    2.4264    0.7036 H   0  0  0  0  0  0  0  0  0  0  0  0
    5.1372    2.3571    2.7175 H   0  0  0  0  0  0  0  0  0  0  0  0
    5.1279   -1.9414    2.6813 H   0  0  0  0  0  0  0  0  0  0  0  0
    6.3767    0.2050    2.7488 H   0  0  0  0  0  0  0  0  0  0  0  0
  1 12  1  0  0  0  0
  2  1  1  0  0  0  0
  2 13  1  0  0  0  0
  2 14  1  0  0  0  0
  3  5  1  0  0  0  0
  3 15  1  0  0  0  0
  3 16  1  0  0  0  0
  4  3  1  0  0  0  0
  5  1  1  0  0  0  0
  5 17  1  0  0  0  0
  6  4  1  0  0  0  0
  6 18  1  0  0  0  0
  7  4  2  0  0  0  0
  7 19  1  0  0  0  0
  8  5  1  0  0  0  0
  8 20  1  0  0  0  0
  8 21  1  0  0  0  0
  8 22  1  0  0  0  0
  9  6  2  0  0  0  0
  9 23  1  0  0  0  0
 10  7  1  0  0  0  0
 10 11  2  0  0  0  0
 10 24  1  0  0  0  0
 11  9  1  0  0  0  0
 11 25  1  0  0  0  0
M  END
>  <DRUGBANK_ID>
DB09250

>  <COMMON_NAME>
Pheniprazine

>  <CAS_NUMBER>
55-52-7

>  <UNII>
37VKD7067M

>  <SYNONYMS>
Pheniprazine

$$$$
