
 OpenBabel10282417233D

 20 19  0  0  1  0  0  0  0  0999 V2000
    0.7109   -0.1048    0.0928 C   0  0  0  0  0  0  0  0  0  0  0  0
    2.5338   -0.1223    0.0451 S   0  0  0  0  0  0  0  0  0  0  0  0
    2.9652    0.6600   -1.5738 C   0  0  0  0  0  0  0  0  0  0  0  0
    2.5041   -0.0794   -2.8374 C   0  0  0  0  0  0  0  0  0  0  0  0
    0.9856   -0.0031   -3.0076 C   0  0  2  0  0  0  0  0  0  0  0  0
    0.3695   -1.3378   -3.0765 N   0  0  0  0  0  0  0  0  0  0  0  0
    0.5262    0.8666   -4.1734 C   0  0  0  0  0  0  0  0  0  0  0  0
   -0.2571    1.9072   -3.7890 O   0  0  0  0  0  0  0  0  0  0  0  0
    0.7703    0.6309   -5.3496 O   0  0  0  0  0  0  0  0  0  0  0  0
    0.3599   -0.4632    1.0623 H   0  0  0  0  0  0  0  0  0  0  0  0
    0.2759   -0.7988   -0.6275 H   0  0  0  0  0  0  0  0  0  0  0  0
    0.3143    0.9053   -0.0576 H   0  0  0  0  0  0  0  0  0  0  0  0
    2.6261    1.7019   -1.5877 H   0  0  0  0  0  0  0  0  0  0  0  0
    4.0626    0.6987   -1.5917 H   0  0  0  0  0  0  0  0  0  0  0  0
    3.0022    0.3709   -3.7074 H   0  0  0  0  0  0  0  0  0  0  0  0
    2.8700   -1.1146   -2.7946 H   0  0  0  0  0  0  0  0  0  0  0  0
    0.5721    0.5005   -2.1446 H   0  0  0  0  0  0  0  0  0  0  0  0
    0.6999   -1.8215   -3.9136 H   0  0  0  0  0  0  0  0  0  0  0  0
   -0.6397   -1.2459   -3.1883 H   0  0  0  0  0  0  0  0  0  0  0  0
   -0.4347    1.9803   -2.8295 H   0  0  0  0  0  0  0  0  0  0  0  0
  1  2  1  0  0  0  0
  1 10  1  0  0  0  0
  1 11  1  0  0  0  0
  1 12  1  0  0  0  0
  2  3  1  0  0  0  0
  3  4  1  0  0  0  0
  3 13  1  0  0  0  0
  3 14  1  0  0  0  0
  4 15  1  0  0  0  0
  4 16  1  0  0  0  0
  5  7  1  0  0  0  0
  5 17  1  1  0  0  0
  5  6  1  0  0  0  0
  5  4  1  0  0  0  0
  6 18  1  0  0  0  0
  6 19  1  0  0  0  0
  7  8  1  0  0  0  0
  7  9  2  0  0  0  0
  8 20  1  0  0  0  0
M  ISO  1   1  11
M  END
>  <DRUGBANK_ID>
DB17147

>  <COMMON_NAME>
Methionine C-11

>  <CAS_NUMBER>
60305-58-0

>  <UNII>
ED857BWP29

>  <SYNONYMS>
11c-methionine; 2-Amino-4-[11C]methylsulfanyl-butanoic acid, l-[S methyl[11C]methionine; L-(s-methyl-11c)methionine; L-11c-methylmethionine; L-methionine ((11c)methyl); Methionine (11c)

$$$$
