
 OpenBabel10282417123D

 27 28  0  0  0  0  0  0  0  0999 V2000
    2.3893    0.6662   -0.1207 C   0  0  0  0  0  0  0  0  0  0  0  0
    0.8689    1.0240    1.7999 C   0  0  0  0  0  0  0  0  0  0  0  0
   -0.4662    1.9595   -0.9394 C   0  0  0  0  0  0  0  0  0  0  0  0
    0.7636   -1.6497   -0.9798 C   0  0  0  0  0  0  0  0  0  0  0  0
    0.1276   -0.4354   -1.6973 C   0  0  0  0  0  0  0  0  0  0  0  0
   -0.7342   -1.3469    0.9881 C   0  0  0  0  0  0  0  0  0  0  0  0
    0.7362   -1.2339    0.5130 C   0  0  2  0  0  0  0  0  0  0  0  0
   -1.3047   -0.1630    0.2309 C   0  0  0  0  0  0  0  0  0  0  0  0
    1.0057    0.2949    0.4498 C   0  0  0  0  0  0  0  0  0  0  0  0
   -0.1732    0.5343   -0.5316 C   0  0  2  0  0  0  0  0  0  0  0  0
   -2.4833    0.1531    0.2140 O   0  0  0  0  0  0  0  0  0  0  0  0
    1.4278   -1.8094    1.1331 H   0  0  0  0  0  0  0  0  0  0  0  0
    2.4696    1.7497   -0.2623 H   0  0  0  0  0  0  0  0  0  0  0  0
    3.1847    0.3557    0.5656 H   0  0  0  0  0  0  0  0  0  0  0  0
    2.6146    0.2104   -1.0876 H   0  0  0  0  0  0  0  0  0  0  0  0
    1.6597    0.7074    2.4888 H   0  0  0  0  0  0  0  0  0  0  0  0
    0.9578    2.1076    1.6641 H   0  0  0  0  0  0  0  0  0  0  0  0
   -0.0857    0.8514    2.3033 H   0  0  0  0  0  0  0  0  0  0  0  0
    0.3797    2.4036   -1.4739 H   0  0  0  0  0  0  0  0  0  0  0  0
   -1.3405    2.0081   -1.5970 H   0  0  0  0  0  0  0  0  0  0  0  0
   -0.6842    2.5890   -0.0702 H   0  0  0  0  0  0  0  0  0  0  0  0
    1.7886   -1.8168   -1.3270 H   0  0  0  0  0  0  0  0  0  0  0  0
    0.2016   -2.5706   -1.1672 H   0  0  0  0  0  0  0  0  0  0  0  0
   -0.7769   -0.7293   -2.2411 H   0  0  0  0  0  0  0  0  0  0  0  0
    0.8265   -0.0028   -2.4215 H   0  0  0  0  0  0  0  0  0  0  0  0
   -0.8382   -1.2017    2.0655 H   0  0  0  0  0  0  0  0  0  0  0  0
   -1.2079   -2.2809    0.6772 H   0  0  0  0  0  0  0  0  0  0  0  0
  1 13  1  0  0  0  0
  1 14  1  0  0  0  0
  1 15  1  0  0  0  0
  2 16  1  0  0  0  0
  2 17  1  0  0  0  0
  2 18  1  0  0  0  0
  3 19  1  0  0  0  0
  3 20  1  0  0  0  0
  3 21  1  0  0  0  0
  4 22  1  0  0  0  0
  4 23  1  0  0  0  0
  5  4  1  0  0  0  0
  5 24  1  0  0  0  0
  5 25  1  0  0  0  0
  6 26  1  0  0  0  0
  6 27  1  0  0  0  0
  7  4  1  0  0  0  0
  7  6  1  0  0  0  0
  7 12  1  1  0  0  0
  8  6  1  0  0  0  0
  9  1  1  0  0  0  0
  9  2  1  0  0  0  0
  9  7  1  0  0  0  0
 10  3  1  6  0  0  0
 10  5  1  0  0  0  0
 10  8  1  0  0  0  0
 10  9  1  0  0  0  0
 11  8  2  0  0  0  0
M  END
>  <DRUGBANK_ID>
DB01744

>  <SECONDARY_ACCESSION_NUMBERS>
EXPT00827

>  <COMMON_NAME>
Camphor

>  <CAS_NUMBER>
464-49-3

>  <UNII>
N20HL7Q941

>  <SYNONYMS>
(+)-bornan-2-one; (+)-Camphor; (1R,4R)-camphor; (1R)-(+)-camphor; (R)-(+)-camphor; (R)-camphor; Camphor (natural); Camphor D-form; Camphor oil; Camphor(D); Camphora; D-Camphor; Dextrocamphor; Natural camphor

$$$$
