
 OpenBabel10282417183D

 42 44  0  0  0  0  0  0  0  0999 V2000
   -2.2416   -0.1704   -0.0352 Cl  0  0  0  0  0  0  0  0  0  0  0  0
    3.4520    5.0569   -0.6716 N   0  0  0  0  0  0  0  0  0  0  0  0
    1.8485    2.6336   -0.1300 N   0  0  0  0  0  0  0  0  0  0  0  0
    5.7859    1.2161    0.1400 N   0  0  0  0  0  0  0  0  0  0  0  0
    5.5478    0.4264   -0.9359 N   0  0  0  0  0  0  0  0  0  0  0  0
    2.3382    5.0053    0.3084 C   0  0  0  0  0  0  0  0  0  0  0  0
    3.1136    4.0860   -1.7242 C   0  0  0  0  0  0  0  0  0  0  0  0
    2.0475    3.6152    0.9562 C   0  0  0  0  0  0  0  0  0  0  0  0
    2.8679    2.6826   -1.1536 C   0  0  0  0  0  0  0  0  0  0  0  0
    4.8388    4.9430   -0.1297 C   0  0  0  0  0  0  0  0  0  0  0  0
    5.4694    3.6690    0.5458 C   0  0  0  0  0  0  0  0  0  0  0  0
    1.4273    1.3302    0.1382 C   0  0  0  0  0  0  0  0  0  0  0  0
    5.7989    2.4697   -0.3625 C   0  0  0  0  0  0  0  0  0  0  0  0
    0.0516    1.1781    0.1198 C   0  0  0  0  0  0  0  0  0  0  0  0
    2.2177    0.1589    0.1568 C   0  0  0  0  0  0  0  0  0  0  0  0
    5.7520    2.4113   -1.7904 C   0  0  0  0  0  0  0  0  0  0  0  0
    5.3454    1.1139   -2.0931 C   0  0  0  0  0  0  0  0  0  0  0  0
   -0.5309   -0.0775    0.0578 C   0  0  0  0  0  0  0  0  0  0  0  0
    1.6358   -1.1171    0.0788 C   0  0  0  0  0  0  0  0  0  0  0  0
    0.2500   -1.2297    0.0220 C   0  0  0  0  0  0  0  0  0  0  0  0
    4.6499    0.5850   -3.3048 C   0  0  0  0  0  0  0  0  0  0  0  0
    5.3625   -0.5707   -0.7625 H   0  0  0  0  0  0  0  0  0  0  0  0
    2.4427    5.8008    1.0504 H   0  0  0  0  0  0  0  0  0  0  0  0
    1.4279    5.2647   -0.2590 H   0  0  0  0  0  0  0  0  0  0  0  0
    2.2021    4.3953   -2.2525 H   0  0  0  0  0  0  0  0  0  0  0  0
    3.8732    4.1313   -2.5074 H   0  0  0  0  0  0  0  0  0  0  0  0
    2.8630    3.3366    1.6283 H   0  0  0  0  0  0  0  0  0  0  0  0
    1.1489    3.6879    1.5756 H   0  0  0  0  0  0  0  0  0  0  0  0
    3.6989    2.3656   -0.5787 H   0  0  0  0  0  0  0  0  0  0  0  0
    2.7032    1.9633   -1.9573 H   0  0  0  0  0  0  0  0  0  0  0  0
    5.5249    5.2353   -0.9366 H   0  0  0  0  0  0  0  0  0  0  0  0
    4.9300    5.7658    0.5962 H   0  0  0  0  0  0  0  0  0  0  0  0
    6.3854    3.9669    1.0708 H   0  0  0  0  0  0  0  0  0  0  0  0
    4.8043    3.3492    1.3551 H   0  0  0  0  0  0  0  0  0  0  0  0
   -0.5448    2.0808    0.0449 H   0  0  0  0  0  0  0  0  0  0  0  0
    3.2994    0.2057    0.2006 H   0  0  0  0  0  0  0  0  0  0  0  0
    5.6321    3.2355   -2.4683 H   0  0  0  0  0  0  0  0  0  0  0  0
    2.2520   -2.0154    0.0402 H   0  0  0  0  0  0  0  0  0  0  0  0
   -0.2185   -2.2059   -0.0552 H   0  0  0  0  0  0  0  0  0  0  0  0
    5.3485    0.0753   -3.9687 H   0  0  0  0  0  0  0  0  0  0  0  0
    3.8266   -0.1016   -3.0592 H   0  0  0  0  0  0  0  0  0  0  0  0
    4.1888    1.4064   -3.8718 H   0  0  0  0  0  0  0  0  0  0  0  0
  1 18  1  0  0  0  0
  2  6  1  0  0  0  0
  2  7  1  0  0  0  0
  2 10  1  0  0  0  0
  3  8  1  0  0  0  0
  3  9  1  0  0  0  0
  3 12  1  0  0  0  0
  4  5  1  0  0  0  0
  4 13  2  0  0  0  0
  5 17  1  0  0  0  0
  5 22  1  0  0  0  0
  6  8  1  0  0  0  0
  6 23  1  0  0  0  0
  6 24  1  0  0  0  0
  7  9  1  0  0  0  0
  7 25  1  0  0  0  0
  7 26  1  0  0  0  0
  8 27  1  0  0  0  0
  8 28  1  0  0  0  0
  9 29  1  0  0  0  0
  9 30  1  0  0  0  0
 10 11  1  0  0  0  0
 10 31  1  0  0  0  0
 10 32  1  0  0  0  0
 11 13  1  0  0  0  0
 11 33  1  0  0  0  0
 11 34  1  0  0  0  0
 12 14  2  0  0  0  0
 12 15  1  0  0  0  0
 13 16  1  0  0  0  0
 14 18  1  0  0  0  0
 14 35  1  0  0  0  0
 15 19  2  0  0  0  0
 15 36  1  0  0  0  0
 16 17  2  0  0  0  0
 16 37  1  0  0  0  0
 17 21  1  0  0  0  0
 18 20  2  0  0  0  0
 19 20  1  0  0  0  0
 19 38  1  0  0  0  0
 20 39  1  0  0  0  0
 21 40  1  0  0  0  0
 21 41  1  0  0  0  0
 21 42  1  0  0  0  0
M  END
>  <DRUGBANK_ID>
DB09197

>  <COMMON_NAME>
Mepiprazole

>  <CAS_NUMBER>
20326-12-9

>  <UNII>
977BAL0NR7

>  <SYNONYMS>
Mepiprazol; Mepiprazole; Mepiprazolum

$$$$
