291
 OpenBabel10282417103D

 38 38  0  0  0  0  0  0  0  0999 V2000
    1.1825   -0.3015   -0.5154 Cl  0  0  0  0  0  0  0  0  0  0  0  0
    0.7014    2.7128    0.7451 Cl  0  0  0  0  0  0  0  0  0  0  0  0
    4.8584   -3.5624    9.0367 O   0  0  0  0  0  0  0  0  0  0  0  0
    5.6656   -3.1128    7.0083 O   0  0  0  0  0  0  0  0  0  0  0  0
    2.8577    0.6111    2.2445 N   0  0  0  0  0  0  0  0  0  0  0  0
    3.7565    0.3786    3.2713 C   0  0  0  0  0  0  0  0  0  0  0  0
    6.4151   -0.2964    6.6542 C   0  0  0  0  0  0  0  0  0  0  0  0
    5.4898   -0.0529    5.4855 C   0  0  0  0  0  0  0  0  0  0  0  0
    5.7346   -0.2488    8.0337 C   0  0  0  0  0  0  0  0  0  0  0  0
    3.3548    0.9055    0.9026 C   0  0  0  0  0  0  0  0  0  0  0  0
    1.4200    0.6132    2.5493 C   0  0  0  0  0  0  0  0  0  0  0  0
    4.8685    1.2006    3.5068 C   0  0  0  0  0  0  0  0  0  0  0  0
    3.5704   -0.7005    4.1244 C   0  0  0  0  0  0  0  0  0  0  0  0
    5.7143    1.0055    4.6088 C   0  0  0  0  0  0  0  0  0  0  0  0
    4.4244   -0.9129    5.1962 C   0  0  0  0  0  0  0  0  0  0  0  0
    4.6322   -1.2865    8.2679 C   0  0  0  0  0  0  0  0  0  0  0  0
    2.9209   -0.1123   -0.1649 C   0  0  0  0  0  0  0  0  0  0  0  0
    0.7292    1.9747    2.3671 C   0  0  0  0  0  0  0  0  0  0  0  0
    5.1118   -2.7124    8.0270 C   0  0  0  0  0  0  0  0  0  0  0  0
    4.3951   -3.1660    9.7938 H   0  0  0  0  0  0  0  0  0  0  0  0
    6.9369   -1.2459    6.5008 H   0  0  0  0  0  0  0  0  0  0  0  0
    7.2211    0.4505    6.6524 H   0  0  0  0  0  0  0  0  0  0  0  0
    6.5028   -0.3863    8.8055 H   0  0  0  0  0  0  0  0  0  0  0  0
    5.3171    0.7557    8.1873 H   0  0  0  0  0  0  0  0  0  0  0  0
    4.4533    0.8740    0.8970 H   0  0  0  0  0  0  0  0  0  0  0  0
    3.1314    1.9374    0.6303 H   0  0  0  0  0  0  0  0  0  0  0  0
    0.9108   -0.1951    2.0213 H   0  0  0  0  0  0  0  0  0  0  0  0
    1.2569    0.3536    3.6058 H   0  0  0  0  0  0  0  0  0  0  0  0
    5.0766    2.0348    2.8445 H   0  0  0  0  0  0  0  0  0  0  0  0
    2.7776   -1.4239    3.9514 H   0  0  0  0  0  0  0  0  0  0  0  0
    6.5473    1.6863    4.7678 H   0  0  0  0  0  0  0  0  0  0  0  0
    4.2103   -1.7954    5.7802 H   0  0  0  0  0  0  0  0  0  0  0  0
    4.2508   -1.1849    9.2887 H   0  0  0  0  0  0  0  0  0  0  0  0
    3.7555   -1.0735    7.6479 H   0  0  0  0  0  0  0  0  0  0  0  0
    3.2817   -1.1046    0.1127 H   0  0  0  0  0  0  0  0  0  0  0  0
    3.3639    0.1794   -1.1179 H   0  0  0  0  0  0  0  0  0  0  0  0
   -0.3227    1.8659    2.6368 H   0  0  0  0  0  0  0  0  0  0  0  0
    1.1937    2.7095    3.0273 H   0  0  0  0  0  0  0  0  0  0  0  0
  1 17  1  0  0  0  0
  2 18  1  0  0  0  0
  3 19  1  0  0  0  0
  3 20  1  0  0  0  0
  4 19  2  0  0  0  0
  5  6  1  0  0  0  0
  5 10  1  0  0  0  0
  5 11  1  0  0  0  0
  6 12  2  0  0  0  0
  6 13  1  0  0  0  0
  7  8  1  0  0  0  0
  7  9  1  0  0  0  0
  7 21  1  0  0  0  0
  7 22  1  0  0  0  0
  8 14  2  0  0  0  0
  8 15  1  0  0  0  0
  9 16  1  0  0  0  0
  9 23  1  0  0  0  0
  9 24  1  0  0  0  0
 10 17  1  0  0  0  0
 10 25  1  0  0  0  0
 10 26  1  0  0  0  0
 11 18  1  0  0  0  0
 11 27  1  0  0  0  0
 11 28  1  0  0  0  0
 12 14  1  0  0  0  0
 12 29  1  0  0  0  0
 13 15  2  0  0  0  0
 13 30  1  0  0  0  0
 14 31  1  0  0  0  0
 15 32  1  0  0  0  0
 16 19  1  0  0  0  0
 16 33  1  0  0  0  0
 16 34  1  0  0  0  0
 17 35  1  0  0  0  0
 17 36  1  0  0  0  0
 18 37  1  0  0  0  0
 18 38  1  0  0  0  0
M  END
>  <DRUGBANK_ID>
DB00291

>  <SECONDARY_ACCESSION_NUMBERS>
APRD00115

>  <COMMON_NAME>
Chlorambucil

>  <CAS_NUMBER>
305-03-3

>  <UNII>
18D0SL7309

>  <SYNONYMS>
4-(p-bis(beta-chloroethyl)aminophenyl)butyric acid; 4-(p-bis(β-chloroethyl)aminophenyl)butyric acid; 4-[p-[bis(2-chloroethyl)amino]phenyl]butyric acid; Ambochlorin; Chlorambucil; Chloraminophen; Clorambucilo; gamma-[p-di(2-chloroethyl)aminophenyl]butyric acid; N,N-di-2-chloroethyl-gamma-p-aminophenylbutyric acid; N,N-di-2-chloroethyl-γ-p-aminophenylbutyric acid; Phenylbutyric acid nitrogen mustard; γ-[p-di(2-chloroethyl)aminophenyl]butyric acid

$$$$
