
 OpenBabel10282417153D

 53 56  0  0  0  0  0  0  0  0999 V2000
    0.8406    0.1082    0.3169 C   0  0  0  0  0  0  0  0  0  0  0  0
    0.4186    1.4660   -0.2234 C   0  0  0  0  0  0  0  0  0  0  0  0
    0.9509    1.8026   -1.6333 C   0  0  0  0  0  0  0  0  0  0  0  0
    0.5281    0.8794   -2.6909 N   0  0  0  0  0  0  0  0  0  0  0  0
   -0.1413    1.3994   -3.8007 C   0  0  0  0  0  0  0  0  0  0  0  0
   -0.4438    2.5830   -3.9571 O   0  0  0  0  0  0  0  0  0  0  0  0
   -0.4237    0.4196   -4.7858 C   0  0  0  0  0  0  0  0  0  0  0  0
   -0.1572   -0.9060   -4.6317 C   0  0  0  0  0  0  0  0  0  0  0  0
   -0.5978   -1.6369   -5.6909 N   0  0  0  0  0  0  0  0  0  0  0  0
   -1.0514   -0.7404   -6.5451 C   0  0  0  0  0  0  0  0  0  0  0  0
   -0.9731    0.5305   -6.0272 N   0  0  0  0  0  0  0  0  0  0  0  0
   -1.5883   -1.0449   -7.8784 C   0  0  0  0  0  0  0  0  0  0  0  0
   -2.6200   -1.9263   -8.2266 C   0  0  0  0  0  0  0  0  0  0  0  0
   -2.8833   -1.8809   -9.5361 N   0  0  0  0  0  0  0  0  0  0  0  0
   -1.8993   -1.0965  -10.0377 N   0  0  0  0  0  0  0  0  0  0  0  0
   -1.1507   -0.4991   -9.0601 C   0  0  0  0  0  0  0  0  0  0  0  0
   -1.7582   -0.8787  -11.4752 C   0  0  0  0  0  0  0  0  0  0  0  0
   -1.4672   -2.1444  -12.2456 C   0  0  0  0  0  0  0  0  0  0  0  0
   -2.3841   -3.2068  -12.2285 C   0  0  0  0  0  0  0  0  0  0  0  0
   -2.1660   -4.3618  -12.9699 C   0  0  0  0  0  0  0  0  0  0  0  0
   -1.0333   -4.4631  -13.7673 C   0  0  0  0  0  0  0  0  0  0  0  0
   -0.1009   -3.4167  -13.8140 C   0  0  0  0  0  0  0  0  0  0  0  0
   -0.3197   -2.2613  -13.0426 C   0  0  0  0  0  0  0  0  0  0  0  0
    1.1162   -3.5188  -14.6952 C   0  0  0  0  0  0  0  0  0  0  0  0
    1.1664   -2.5217  -15.6217 F   0  0  0  0  0  0  0  0  0  0  0  0
    2.2779   -3.4348  -13.9911 F   0  0  0  0  0  0  0  0  0  0  0  0
    1.1844   -4.6841  -15.3967 F   0  0  0  0  0  0  0  0  0  0  0  0
    0.5109   -1.3633   -3.5233 N   0  0  0  0  0  0  0  0  0  0  0  0
    1.0783   -0.4157   -2.6772 C   0  0  0  0  0  0  0  0  0  0  0  0
    2.0310   -0.7178   -1.9557 O   0  0  0  0  0  0  0  0  0  0  0  0
    0.8431   -2.7669   -3.3201 C   0  0  0  0  0  0  0  0  0  0  0  0
   -0.3872   -3.6574   -3.2972 C   0  0  0  0  0  0  0  0  0  0  0  0
    0.3380   -0.6910   -0.2369 H   0  0  0  0  0  0  0  0  0  0  0  0
    0.5650   -0.0304    1.3638 H   0  0  0  0  0  0  0  0  0  0  0  0
    1.9275   -0.0096    0.2509 H   0  0  0  0  0  0  0  0  0  0  0  0
   -0.6754    1.5197   -0.2185 H   0  0  0  0  0  0  0  0  0  0  0  0
    0.7827    2.2315    0.4736 H   0  0  0  0  0  0  0  0  0  0  0  0
    0.6190    2.8208   -1.8713 H   0  0  0  0  0  0  0  0  0  0  0  0
    2.0466    1.8272   -1.6234 H   0  0  0  0  0  0  0  0  0  0  0  0
   -1.3323    1.3718   -6.4582 H   0  0  0  0  0  0  0  0  0  0  0  0
   -3.2340   -2.5441   -7.5834 H   0  0  0  0  0  0  0  0  0  0  0  0
   -0.3426    0.1777   -9.2957 H   0  0  0  0  0  0  0  0  0  0  0  0
   -2.6835   -0.4173  -11.8365 H   0  0  0  0  0  0  0  0  0  0  0  0
   -0.9480   -0.1517  -11.6116 H   0  0  0  0  0  0  0  0  0  0  0  0
   -3.2859   -3.1446  -11.6212 H   0  0  0  0  0  0  0  0  0  0  0  0
   -2.8871   -5.1734  -12.9255 H   0  0  0  0  0  0  0  0  0  0  0  0
   -0.8827   -5.3636  -14.3593 H   0  0  0  0  0  0  0  0  0  0  0  0
    0.4091   -1.4512  -13.0839 H   0  0  0  0  0  0  0  0  0  0  0  0
    1.5578   -3.0724   -4.0906 H   0  0  0  0  0  0  0  0  0  0  0  0
    1.3456   -2.8926   -2.3521 H   0  0  0  0  0  0  0  0  0  0  0  0
   -0.9277   -3.6227   -4.2452 H   0  0  0  0  0  0  0  0  0  0  0  0
   -0.1018   -4.6960   -3.1108 H   0  0  0  0  0  0  0  0  0  0  0  0
   -1.0761   -3.3387   -2.5071 H   0  0  0  0  0  0  0  0  0  0  0  0
  1  2  1  0  0  0  0
  1 33  1  0  0  0  0
  1 34  1  0  0  0  0
  1 35  1  0  0  0  0
  2  3  1  0  0  0  0
  2 36  1  0  0  0  0
  2 37  1  0  0  0  0
  3  4  1  0  0  0  0
  3 38  1  0  0  0  0
  3 39  1  0  0  0  0
  4  5  1  0  0  0  0
  4 29  1  0  0  0  0
  5  6  2  0  0  0  0
  5  7  1  0  0  0  0
  7  8  2  0  0  0  0
  7 11  1  0  0  0  0
  8  9  1  0  0  0  0
  8 28  1  0  0  0  0
  9 10  2  0  0  0  0
 10 11  1  0  0  0  0
 10 12  1  0  0  0  0
 11 40  1  0  0  0  0
 12 13  1  0  0  0  0
 12 16  2  0  0  0  0
 13 14  2  0  0  0  0
 13 41  1  0  0  0  0
 14 15  1  0  0  0  0
 15 16  1  0  0  0  0
 15 17  1  0  0  0  0
 16 42  1  0  0  0  0
 17 18  1  0  0  0  0
 17 43  1  0  0  0  0
 17 44  1  0  0  0  0
 18 19  2  0  0  0  0
 18 23  1  0  0  0  0
 19 20  1  0  0  0  0
 19 45  1  0  0  0  0
 20 21  2  0  0  0  0
 20 46  1  0  0  0  0
 21 22  1  0  0  0  0
 21 47  1  0  0  0  0
 22 23  2  0  0  0  0
 22 24  1  0  0  0  0
 23 48  1  0  0  0  0
 24 25  1  0  0  0  0
 24 26  1  0  0  0  0
 24 27  1  0  0  0  0
 28 29  1  0  0  0  0
 28 31  1  0  0  0  0
 29 30  2  0  0  0  0
 31 32  1  0  0  0  0
 31 49  1  0  0  0  0
 31 50  1  0  0  0  0
 32 51  1  0  0  0  0
 32 52  1  0  0  0  0
 32 53  1  0  0  0  0
M  END
>  <DRUGBANK_ID>
DB05936

>  <COMMON_NAME>
CVT-6883

>  <CAS_NUMBER>
752222-83-6

>  <UNII>
67CKV7X08G

$$$$
