
 OpenBabel10282417203D

 86 90  0  0  0  0  0  0  0  0999 V2000
    1.1002    0.0656   -0.1318 N   0  0  0  0  0  0  0  0  0  0  0  0
    0.3532    0.0052   -1.3901 C   0  0  0  0  0  0  0  0  0  0  0  0
    0.5574   -1.3455   -2.0940 C   0  0  0  0  0  0  0  0  0  0  0  0
   -0.0134   -1.3474   -3.4833 C   0  0  0  0  0  0  0  0  0  0  0  0
    0.4268   -0.1996   -4.1979 O   0  0  0  0  0  0  0  0  0  0  0  0
   -0.0477    1.0169   -3.6223 C   0  0  0  0  0  0  0  0  0  0  0  0
    0.5459    1.2474   -2.2493 C   0  0  0  0  0  0  0  0  0  0  0  0
    0.3781    0.1734    1.0769 C   0  0  0  0  0  0  0  0  0  0  0  0
    0.8134    1.1370    2.0295 C   0  0  0  0  0  0  0  0  0  0  0  0
    0.1823    1.2738    3.2429 C   0  0  0  0  0  0  0  0  0  0  0  0
    0.4983    2.2188    4.3292 C   0  0  0  0  0  0  0  0  0  0  0  0
    0.7915    1.7649    5.6336 C   0  0  0  0  0  0  0  0  0  0  0  0
    1.1634    2.6511    6.6505 C   0  0  0  0  0  0  0  0  0  0  0  0
    1.1598    4.0249    6.4093 C   0  0  0  0  0  0  0  0  0  0  0  0
    1.9033    4.9747    7.3360 C   0  0  0  0  0  0  0  0  0  0  0  0
    3.1589    5.6047    6.8530 N   0  0  0  0  0  0  0  0  0  0  0  0
    3.0286    6.3689    5.5976 C   0  0  0  0  0  0  0  0  0  0  0  0
    3.1797    5.5133    4.3168 C   0  0  0  0  0  0  0  0  0  0  0  0
    4.3726    4.7259    4.3188 O   0  0  0  0  0  0  0  0  0  0  0  0
    4.3472    3.8609    5.4728 C   0  0  0  0  0  0  0  0  0  0  0  0
    4.3375    4.7195    6.7430 C   0  0  0  0  0  0  0  0  0  0  0  0
    0.5527    4.4735    5.2253 C   0  0  0  0  0  0  0  0  0  0  0  0
    0.3327    3.5883    4.1572 C   0  0  0  0  0  0  0  0  0  0  0  0
   -0.8973    0.4423    3.4586 C   0  0  0  0  0  0  0  0  0  0  0  0
   -1.4260   -0.5171    2.6100 C   0  0  0  0  0  0  0  0  0  0  0  0
   -2.6119   -1.3617    3.0185 C   0  0  0  0  0  0  0  0  0  0  0  0
   -3.1009   -2.2467    2.3337 O   0  0  0  0  0  0  0  0  0  0  0  0
   -3.2638   -1.2387    4.2043 N   0  0  0  0  0  0  0  0  0  0  0  0
   -3.1615   -0.4009    5.3730 C   0  0  0  0  0  0  0  0  0  0  0  0
   -4.3088    0.5185    5.4705 C   0  0  0  0  0  0  0  0  0  0  0  0
   -4.0536    1.9958    5.3973 C   0  0  0  0  0  0  0  0  0  0  0  0
   -2.9327    2.4786    5.1794 O   0  0  0  0  0  0  0  0  0  0  0  0
   -5.1336    2.8055    5.6179 N   0  0  0  0  0  0  0  0  0  0  0  0
   -6.3967    2.3248    5.8678 C   0  0  0  0  0  0  0  0  0  0  0  0
   -7.5091    3.2834    6.1022 C   0  0  0  0  0  0  0  0  0  0  0  0
   -6.6176    1.0048    5.9052 C   0  0  0  0  0  0  0  0  0  0  0  0
   -5.5474    0.0646    5.7184 C   0  0  0  0  0  0  0  0  0  0  0  0
   -5.8755   -1.3915    5.8430 C   0  0  0  0  0  0  0  0  0  0  0  0
   -0.7651   -0.6656    1.3834 C   0  0  0  0  0  0  0  0  0  0  0  0
   -1.1831   -1.7611    0.4430 C   0  0  0  0  0  0  0  0  0  0  0  0
    2.5764    0.0885   -0.0527 C   0  0  0  0  0  0  0  0  0  0  0  0
    3.3686   -0.0314   -1.3498 C   0  0  0  0  0  0  0  0  0  0  0  0
   -0.7160    0.1086   -1.1825 H   0  0  0  0  0  0  0  0  0  0  0  0
    1.5962   -1.6273   -2.1772 H   0  0  0  0  0  0  0  0  0  0  0  0
    0.1458   -2.1920   -1.5470 H   0  0  0  0  0  0  0  0  0  0  0  0
    0.3514   -2.2394   -4.0041 H   0  0  0  0  0  0  0  0  0  0  0  0
   -1.1066   -1.3957   -3.4581 H   0  0  0  0  0  0  0  0  0  0  0  0
   -1.1417    1.0036   -3.5808 H   0  0  0  0  0  0  0  0  0  0  0  0
    0.2614    1.8332   -4.2792 H   0  0  0  0  0  0  0  0  0  0  0  0
    0.0847    2.1158   -1.7597 H   0  0  0  0  0  0  0  0  0  0  0  0
    1.5795    1.5368   -2.3791 H   0  0  0  0  0  0  0  0  0  0  0  0
    1.6488    1.7981    1.8293 H   0  0  0  0  0  0  0  0  0  0  0  0
    0.7620    0.7011    5.8613 H   0  0  0  0  0  0  0  0  0  0  0  0
    1.5122    2.2540    7.6004 H   0  0  0  0  0  0  0  0  0  0  0  0
    1.2072    5.7710    7.6250 H   0  0  0  0  0  0  0  0  0  0  0  0
    2.1333    4.4534    8.2758 H   0  0  0  0  0  0  0  0  0  0  0  0
    3.8337    7.1152    5.5786 H   0  0  0  0  0  0  0  0  0  0  0  0
    2.1007    6.9534    5.6102 H   0  0  0  0  0  0  0  0  0  0  0  0
    2.4156    4.7759    4.1858 H   0  0  0  0  0  0  0  0  0  0  0  0
    3.0885    6.1295    3.4188 H   0  0  0  0  0  0  0  0  0  0  0  0
    5.2345    3.2259    5.4293 H   0  0  0  0  0  0  0  0  0  0  0  0
    3.4896    3.1836    5.4389 H   0  0  0  0  0  0  0  0  0  0  0  0
    5.2238    5.3703    6.6815 H   0  0  0  0  0  0  0  0  0  0  0  0
    4.4706    4.1141    7.6444 H   0  0  0  0  0  0  0  0  0  0  0  0
    0.4737    5.5380    5.0147 H   0  0  0  0  0  0  0  0  0  0  0  0
    0.1006    3.9877    3.1716 H   0  0  0  0  0  0  0  0  0  0  0  0
   -1.2734    0.6765    4.4084 H   0  0  0  0  0  0  0  0  0  0  0  0
   -4.0058   -1.9306    4.1850 H   0  0  0  0  0  0  0  0  0  0  0  0
   -3.0236   -1.0429    6.2443 H   0  0  0  0  0  0  0  0  0  0  0  0
   -2.3017    0.1998    5.4468 H   0  0  0  0  0  0  0  0  0  0  0  0
   -4.9491    3.8020    5.5831 H   0  0  0  0  0  0  0  0  0  0  0  0
   -8.2908    3.1212    5.3536 H   0  0  0  0  0  0  0  0  0  0  0  0
   -7.9327    3.1082    7.0967 H   0  0  0  0  0  0  0  0  0  0  0  0
   -7.1848    4.3252    6.0454 H   0  0  0  0  0  0  0  0  0  0  0  0
   -7.6074    0.6084    6.0998 H   0  0  0  0  0  0  0  0  0  0  0  0
   -6.3452   -1.5984    6.8040 H   0  0  0  0  0  0  0  0  0  0  0  0
   -6.5208   -1.6952    5.0143 H   0  0  0  0  0  0  0  0  0  0  0  0
   -5.0001   -2.0451    5.8229 H   0  0  0  0  0  0  0  0  0  0  0  0
   -1.5855   -1.3543   -0.4819 H   0  0  0  0  0  0  0  0  0  0  0  0
   -0.3323   -2.4292    0.3153 H   0  0  0  0  0  0  0  0  0  0  0  0
   -1.9825   -2.4290    0.7213 H   0  0  0  0  0  0  0  0  0  0  0  0
    2.9132    1.0184    0.4148 H   0  0  0  0  0  0  0  0  0  0  0  0
    2.8866   -0.7367    0.6001 H   0  0  0  0  0  0  0  0  0  0  0  0
    3.1817    0.7776   -2.0491 H   0  0  0  0  0  0  0  0  0  0  0  0
    4.4398    0.0080   -1.1518 H   0  0  0  0  0  0  0  0  0  0  0  0
    3.2190   -0.9717   -1.8687 H   0  0  0  0  0  0  0  0  0  0  0  0
  1  2  1  0  0  0  0
  1  8  1  0  0  0  0
  1 41  1  0  0  0  0
  2  3  1  0  0  0  0
  2  7  1  0  0  0  0
  2 43  1  0  0  0  0
  3  4  1  0  0  0  0
  3 44  1  0  0  0  0
  3 45  1  0  0  0  0
  4  5  1  0  0  0  0
  4 46  1  0  0  0  0
  4 47  1  0  0  0  0
  6  5  1  0  0  0  0
  6 48  1  0  0  0  0
  6 49  1  0  0  0  0
  7  6  1  0  0  0  0
  7 50  1  0  0  0  0
  7 51  1  0  0  0  0
  8  9  1  0  0  0  0
  8 39  2  0  0  0  0
  9 10  2  0  0  0  0
  9 52  1  0  0  0  0
 10 11  1  0  0  0  0
 10 24  1  0  0  0  0
 11 12  1  0  0  0  0
 11 23  2  0  0  0  0
 12 13  2  0  0  0  0
 12 53  1  0  0  0  0
 13 14  1  0  0  0  0
 13 54  1  0  0  0  0
 14 15  1  0  0  0  0
 15 16  1  0  0  0  0
 15 55  1  0  0  0  0
 15 56  1  0  0  0  0
 16 17  1  0  0  0  0
 16 21  1  0  0  0  0
 17 18  1  0  0  0  0
 17 57  1  0  0  0  0
 17 58  1  0  0  0  0
 18 19  1  0  0  0  0
 18 59  1  0  0  0  0
 18 60  1  0  0  0  0
 20 19  1  0  0  0  0
 20 61  1  0  0  0  0
 20 62  1  0  0  0  0
 21 20  1  0  0  0  0
 21 63  1  0  0  0  0
 21 64  1  0  0  0  0
 22 14  2  0  0  0  0
 22 65  1  0  0  0  0
 23 22  1  0  0  0  0
 23 66  1  0  0  0  0
 24 67  1  0  0  0  0
 25 24  2  0  0  0  0
 25 26  1  0  0  0  0
 26 27  2  0  0  0  0
 26 28  1  0  0  0  0
 28 29  1  0  0  0  0
 28 68  1  0  0  0  0
 29 30  1  0  0  0  0
 29 69  1  0  0  0  0
 29 70  1  0  0  0  0
 30 31  1  0  0  0  0
 30 37  2  0  0  0  0
 31 32  2  0  0  0  0
 31 33  1  0  0  0  0
 33 34  1  0  0  0  0
 33 71  1  0  0  0  0
 34 35  1  0  0  0  0
 35 72  1  0  0  0  0
 35 73  1  0  0  0  0
 35 74  1  0  0  0  0
 36 34  2  0  0  0  0
 36 75  1  0  0  0  0
 37 36  1  0  0  0  0
 37 38  1  0  0  0  0
 38 76  1  0  0  0  0
 38 77  1  0  0  0  0
 38 78  1  0  0  0  0
 39 25  1  0  0  0  0
 39 40  1  0  0  0  0
 40 79  1  0  0  0  0
 40 80  1  0  0  0  0
 40 81  1  0  0  0  0
 41 42  1  0  0  0  0
 41 82  1  0  0  0  0
 41 83  1  0  0  0  0
 42 84  1  0  0  0  0
 42 85  1  0  0  0  0
 42 86  1  0  0  0  0
M  END
>  <DRUGBANK_ID>
DB12887

>  <COMMON_NAME>
Tazemetostat

>  <CAS_NUMBER>
1403254-99-8

>  <UNII>
Q40W93WPE1

>  <SYNONYMS>
Tazemetostat; Tazémétostat; Tazemetostatum

$$$$
