
 OpenBabel10282417223D

 18 18  0  0  0  0  0  0  0  0999 V2000
    2.1711   -0.0355    0.0040 C   0  0  0  0  0  0  0  0  0  0  0  0
    0.6976   -0.1382    0.0040 C   0  0  0  0  0  0  0  0  0  0  0  0
   -0.1535   -1.2156   -0.0165 C   0  0  0  0  0  0  0  0  0  0  0  0
   -1.4553   -0.6813   -0.0567 C   0  0  0  0  0  0  0  0  0  0  0  0
   -1.3596    0.7061   -0.0033 C   0  0  0  0  0  0  0  0  0  0  0  0
   -0.0119    1.0260    0.0206 O   0  0  0  0  0  0  0  0  0  0  0  0
   -2.6591    1.9523    0.0387 S   0  0  0  0  0  0  0  0  0  0  0  0
   -2.5358    2.6205    1.3124 O   0  0  0  0  0  0  0  0  0  0  0  0
   -2.5706    2.6587   -1.2230 O   0  0  0  0  0  0  0  0  0  0  0  0
   -4.1612    1.0903    0.0289 N   0  0  0  0  0  0  0  0  0  0  0  0
   -4.2930    0.3625    1.2784 O   0  0  0  0  0  0  0  0  0  0  0  0
    2.5219    0.4846   -0.8921 H   0  0  0  0  0  0  0  0  0  0  0  0
    2.5242    0.5023    0.8878 H   0  0  0  0  0  0  0  0  0  0  0  0
    2.6248   -1.0330    0.0116 H   0  0  0  0  0  0  0  0  0  0  0  0
    0.1292   -2.2588   -0.0244 H   0  0  0  0  0  0  0  0  0  0  0  0
   -2.3740   -1.2443   -0.1146 H   0  0  0  0  0  0  0  0  0  0  0  0
   -4.9149    1.7832   -0.0446 H   0  0  0  0  0  0  0  0  0  0  0  0
   -3.6560   -0.3749    1.2441 H   0  0  0  0  0  0  0  0  0  0  0  0
  1  2  1  0  0  0  0
  1 12  1  0  0  0  0
  1 13  1  0  0  0  0
  1 14  1  0  0  0  0
  2  3  2  0  0  0  0
  2  6  1  0  0  0  0
  3  4  1  0  0  0  0
  3 15  1  0  0  0  0
  4  5  2  0  0  0  0
  4 16  1  0  0  0  0
  5  6  1  0  0  0  0
  5  7  1  0  0  0  0
  7  8  2  0  0  0  0
  7  9  2  0  0  0  0
  7 10  1  0  0  0  0
 10 11  1  0  0  0  0
 10 17  1  0  0  0  0
 11 18  1  0  0  0  0
M  END
>  <DRUGBANK_ID>
DB14983

>  <COMMON_NAME>
Cimlanod

>  <CAS_NUMBER>
1620330-72-4

>  <UNII>
2US4FK1EPV

>  <SYNONYMS>
BMS-986231; Cimlanod

$$$$
