
 OpenBabel10282417143D

 51 54  0  0  1  0  0  0  0  0999 V2000
    7.4268    1.0601   -3.9464 Br  0  0  0  0  0  0  0  0  0  0  0  0
   10.4840   -1.6754    2.1489 O   0  0  0  0  0  0  0  0  0  0  0  0
    4.1512    0.7604   -1.4827 O   0  0  0  0  0  0  0  0  0  0  0  0
    8.2509    0.3066    0.2425 C   0  0  2  0  0  0  0  0  0  0  0  0
    9.2590   -1.2465   -0.2744 C   0  0  2  0  0  0  0  0  0  0  0  0
    8.2077    1.4327   -0.9521 C   0  0  2  0  0  0  0  0  0  0  0  0
    7.0059    2.7081   -1.1609 C   0  0  1  0  0  0  0  0  0  0  0  0
   10.5835   -0.2051   -0.1517 C   0  0  1  0  0  0  0  0  0  0  0  0
    5.7455    2.2766   -0.4413 C   0  0  2  0  0  0  0  0  0  0  0  0
    6.7087    0.2489    0.6674 C   0  0  0  0  0  0  0  0  0  0  0  0
    9.6289    1.9435   -1.2047 C   0  0  0  0  0  0  0  0  0  0  0  0
    5.9656    1.5667    0.8893 C   0  0  0  0  0  0  0  0  0  0  0  0
   10.5955    0.7520   -1.3732 C   0  0  0  0  0  0  0  0  0  0  0  0
   10.2412   -2.9108   -0.1954 C   0  0  0  0  0  0  0  0  0  0  0  0
    6.1700    3.0015   -2.6475 C   0  0  0  0  0  0  0  0  0  0  0  0
   11.8292   -1.0193    0.0201 C   0  0  0  0  0  0  0  0  0  0  0  0
    8.1746   -1.9380    0.6420 C   0  0  0  0  0  0  0  0  0  0  0  0
    5.1852    1.3449   -1.6144 C   0  0  0  0  0  0  0  0  0  0  0  0
    5.8167    1.6019   -3.0157 C   0  0  2  0  0  0  0  0  0  0  0  0
   11.6165   -3.1528    0.6711 C   0  0  0  0  0  0  0  0  0  0  0  0
   11.6674   -1.8678    1.3731 C   0  0  2  0  0  0  0  0  0  0  0  0
    4.8322    3.5068   -0.1453 C   0  0  0  0  0  0  0  0  0  0  0  0
    8.7709    0.7282    1.1202 H   0  0  0  0  0  0  0  0  0  0  0  0
    7.9553    0.7064   -1.7013 H   0  0  0  0  0  0  0  0  0  0  0  0
    7.3948    3.6548   -0.7625 H   0  0  0  0  0  0  0  0  0  0  0  0
   10.6185    0.4468    0.7228 H   0  0  0  0  0  0  0  0  0  0  0  0
   10.0266   -0.8691    1.8690 H   0  0  0  0  0  0  0  0  0  0  0  0
    6.4689   -0.3735    1.5374 H   0  0  0  0  0  0  0  0  0  0  0  0
    6.1933   -0.2175   -0.1704 H   0  0  0  0  0  0  0  0  0  0  0  0
    9.9652    2.6017   -0.3894 H   0  0  0  0  0  0  0  0  0  0  0  0
    9.6449    2.5547   -2.1129 H   0  0  0  0  0  0  0  0  0  0  0  0
    4.9850    1.3149    1.3300 H   0  0  0  0  0  0  0  0  0  0  0  0
    6.4135    2.2417    1.6398 H   0  0  0  0  0  0  0  0  0  0  0  0
   11.6116    1.1205   -1.5480 H   0  0  0  0  0  0  0  0  0  0  0  0
   10.2853    0.2170   -2.2786 H   0  0  0  0  0  0  0  0  0  0  0  0
    9.7200   -3.8742   -0.0727 H   0  0  0  0  0  0  0  0  0  0  0  0
   10.6065   -3.0716   -1.2353 H   0  0  0  0  0  0  0  0  0  0  0  0
    5.1569    3.4662   -2.5615 H   0  0  0  0  0  0  0  0  0  0  0  0
    6.6125    3.6260   -3.4288 H   0  0  0  0  0  0  0  0  0  0  0  0
   12.8228   -1.1310   -0.4589 H   0  0  0  0  0  0  0  0  0  0  0  0
   11.5504   -1.5125   -0.9330 H   0  0  0  0  0  0  0  0  0  0  0  0
    7.2763   -1.8329    0.0196 H   0  0  0  0  0  0  0  0  0  0  0  0
    8.0660   -3.0015    0.8661 H   0  0  0  0  0  0  0  0  0  0  0  0
    8.0874   -1.4569    1.6236 H   0  0  0  0  0  0  0  0  0  0  0  0
    5.0742    1.3197   -3.7580 H   0  0  0  0  0  0  0  0  0  0  0  0
   11.7072   -4.0679    1.2785 H   0  0  0  0  0  0  0  0  0  0  0  0
   12.6223   -3.1684    0.1682 H   0  0  0  0  0  0  0  0  0  0  0  0
   12.4303   -2.0069    2.1412 H   0  0  0  0  0  0  0  0  0  0  0  0
    3.7988    3.1982    0.0364 H   0  0  0  0  0  0  0  0  0  0  0  0
    5.1905    4.0742    0.7237 H   0  0  0  0  0  0  0  0  0  0  0  0
    4.7993    4.2570   -0.9397 H   0  0  0  0  0  0  0  0  0  0  0  0
  2 27  1  0  0  0  0
  3 18  2  0  0  0  0
  4  5  1  0  0  0  0
  4  6  1  0  0  0  0
  4 10  1  0  0  0  0
  4 23  1  6  0  0  0
  5  8  1  0  0  0  0
  5 14  1  0  0  0  0
  5 17  1  1  0  0  0
  6  7  1  0  0  0  0
  6 11  1  0  0  0  0
  6 24  1  1  0  0  0
  7  9  1  0  0  0  0
  7 15  1  0  0  0  0
  7 25  1  6  0  0  0
  8 13  1  0  0  0  0
  8 16  1  0  0  0  0
  8 26  1  6  0  0  0
  9 12  1  0  0  0  0
  9 18  1  0  0  0  0
  9 22  1  1  0  0  0
 10 12  1  0  0  0  0
 10 28  1  0  0  0  0
 10 29  1  0  0  0  0
 11 13  1  0  0  0  0
 11 30  1  0  0  0  0
 11 31  1  0  0  0  0
 12 32  1  0  0  0  0
 12 33  1  0  0  0  0
 13 34  1  0  0  0  0
 13 35  1  0  0  0  0
 14 20  1  0  0  0  0
 14 36  1  0  0  0  0
 14 37  1  0  0  0  0
 15 19  1  0  0  0  0
 15 38  1  0  0  0  0
 15 39  1  0  0  0  0
 16 21  1  0  0  0  0
 16 40  1  0  0  0  0
 16 41  1  0  0  0  0
 17 42  1  0  0  0  0
 17 43  1  0  0  0  0
 17 44  1  0  0  0  0
 18 19  1  0  0  0  0
 19 45  1  6  0  0  0
 19  1  1  0  0  0  0
 20 21  1  0  0  0  0
 20 46  1  0  0  0  0
 20 47  1  0  0  0  0
 21 48  1  1  0  0  0
 21  2  1  0  0  0  0
 22 49  1  0  0  0  0
 22 50  1  0  0  0  0
 22 51  1  0  0  0  0
M  END
>  <DRUGBANK_ID>
DB05107

>  <COMMON_NAME>
16-Bromoepiandrosterone

>  <CAS_NUMBER>
28507-02-0

>  <UNII>
9735KA370S

>  <SYNONYMS>
16alpha-bromoepiandrosterone

$$$$
