
 OpenBabel10282417153D

 43 43  0  0  0  0  0  0  0  0999 V2000
   -0.9135   -0.3988    1.4327 C   0  0  0  0  0  0  0  0  0  0  0  0
    0.5639   -0.7331    1.1639 C   0  0  1  0  0  0  0  0  0  0  0  0
    1.3720   -0.5756    2.4563 C   0  0  0  0  0  0  0  0  0  0  0  0
    1.5170   -1.8553    3.2290 C   0  0  0  0  0  0  0  0  0  0  0  0
    0.8471   -2.8457    2.3156 C   0  0  0  0  0  0  0  0  0  0  0  0
    0.7938   -2.1921    0.9912 N   0  0  0  0  0  0  0  0  0  0  0  0
    0.7613   -2.9653   -0.1568 C   0  0  0  0  0  0  0  0  0  0  0  0
    0.9318   -4.1886   -0.1006 O   0  0  0  0  0  0  0  0  0  0  0  0
    0.6064   -2.3031   -1.5324 C   0  0  0  0  0  0  0  0  0  0  0  0
   -0.7259   -1.7191   -1.6645 N   0  0  0  0  0  0  0  0  0  0  0  0
    1.0476    0.3182    0.0674 C   0  0  0  0  0  0  0  0  0  0  0  0
    0.4758    0.4848   -1.0163 O   0  0  0  0  0  0  0  0  0  0  0  0
    2.1318    1.1194    0.1676 N   0  0  0  0  0  0  0  0  0  0  0  0
    2.8945    1.5975    1.3080 C   0  0  1  0  0  0  0  0  0  0  0  0
    4.3685    1.3020    1.0692 C   0  0  0  0  0  0  0  0  0  0  0  0
    4.9824    2.0938   -0.0701 C   0  0  0  0  0  0  0  0  0  0  0  0
    5.0912    3.5614    0.2376 C   0  0  0  0  0  0  0  0  0  0  0  0
    5.9698    4.1026    0.8554 O   0  0  0  0  0  0  0  0  0  0  0  0
    4.0035    4.2457   -0.1540 O   0  0  0  0  0  0  0  0  0  0  0  0
    2.4010    2.8874    1.9381 C   0  0  0  0  0  0  0  0  0  0  0  0
    2.4368    3.1242    3.1366 O   0  0  0  0  0  0  0  0  0  0  0  0
    1.9752    3.8282    1.0945 O   0  0  0  0  0  0  0  0  0  0  0  0
   -1.2823   -0.8507    2.3582 H   0  0  0  0  0  0  0  0  0  0  0  0
   -1.5590   -0.7418    0.6203 H   0  0  0  0  0  0  0  0  0  0  0  0
   -1.0557    0.6866    1.5199 H   0  0  0  0  0  0  0  0  0  0  0  0
    2.4052   -0.5492    2.1195 H   0  0  0  0  0  0  0  0  0  0  0  0
    1.0731    0.2804    3.0712 H   0  0  0  0  0  0  0  0  0  0  0  0
    2.5936   -2.0774    3.3259 H   0  0  0  0  0  0  0  0  0  0  0  0
    1.1307   -1.7751    4.2472 H   0  0  0  0  0  0  0  0  0  0  0  0
    1.3625   -3.8079    2.3097 H   0  0  0  0  0  0  0  0  0  0  0  0
   -0.1771   -2.9882    2.6762 H   0  0  0  0  0  0  0  0  0  0  0  0
    1.4207   -1.5841   -1.6806 H   0  0  0  0  0  0  0  0  0  0  0  0
    0.7444   -3.0489   -2.3225 H   0  0  0  0  0  0  0  0  0  0  0  0
   -0.7624   -1.1191   -2.4871 H   0  0  0  0  0  0  0  0  0  0  0  0
   -1.4519   -2.4222   -1.7063 H   0  0  0  0  0  0  0  0  0  0  0  0
    2.2035    1.6731   -0.6818 H   0  0  0  0  0  0  0  0  0  0  0  0
    2.7159    1.0385    2.1947 H   0  0  0  0  0  0  0  0  0  0  0  0
    4.9297    1.4170    2.0026 H   0  0  0  0  0  0  0  0  0  0  0  0
    4.4561    0.2307    0.8073 H   0  0  0  0  0  0  0  0  0  0  0  0
    5.9967    1.7322   -0.2542 H   0  0  0  0  0  0  0  0  0  0  0  0
    4.4247    1.9395   -0.9997 H   0  0  0  0  0  0  0  0  0  0  0  0
    4.0321    5.0809    0.3571 H   0  0  0  0  0  0  0  0  0  0  0  0
    2.0568    4.6378    1.6383 H   0  0  0  0  0  0  0  0  0  0  0  0
  1 23  1  0  0  0  0
  1 24  1  0  0  0  0
  1 25  1  0  0  0  0
  2  3  1  0  0  0  0
  2  6  1  0  0  0  0
  2 11  1  6  0  0  0
  2  1  1  0  0  0  0
  3  4  1  0  0  0  0
  3 26  1  0  0  0  0
  3 27  1  0  0  0  0
  4  5  1  0  0  0  0
  4 28  1  0  0  0  0
  4 29  1  0  0  0  0
  5  6  1  0  0  0  0
  5 30  1  0  0  0  0
  5 31  1  0  0  0  0
  6  7  1  0  0  0  0
  7  8  2  0  0  0  0
  7  9  1  0  0  0  0
  9 10  1  0  0  0  0
  9 32  1  0  0  0  0
  9 33  1  0  0  0  0
 10 34  1  0  0  0  0
 10 35  1  0  0  0  0
 11 12  2  0  0  0  0
 11 13  1  0  0  0  0
 13 36  1  0  0  0  0
 14 13  1  0  0  0  0
 14 15  1  0  0  0  0
 14 20  1  0  0  0  0
 14 37  1  1  0  0  0
 15 16  1  0  0  0  0
 15 38  1  0  0  0  0
 15 39  1  0  0  0  0
 16 17  1  0  0  0  0
 16 40  1  0  0  0  0
 16 41  1  0  0  0  0
 17 18  2  0  0  0  0
 17 19  1  0  0  0  0
 19 42  1  0  0  0  0
 20 21  2  0  0  0  0
 20 22  1  0  0  0  0
 22 43  1  0  0  0  0
M  END
>  <DRUGBANK_ID>
DB06045

>  <COMMON_NAME>
Trofinetide

>  <CAS_NUMBER>
853400-76-7

>  <UNII>
Z2ME8F52QL

>  <SYNONYMS>
glycyl-L-2-methylprolyl-L-glutamic acid; Trofinetide

$$$$
