
 OpenBabel10282417173D

 29 29  0  0  0  0  0  0  0  0999 V2000
    0.8151   -0.0256   -0.1445 C   0  0  0  0  0  0  0  0  0  0  0  0
    0.5357   -0.7111    1.1765 C   0  0  0  0  0  0  0  0  0  0  0  0
   -0.1718   -0.1767    2.0317 O   0  0  0  0  0  0  0  0  0  0  0  0
    1.0123   -1.9906    1.3837 N   0  0  0  0  0  0  0  0  0  0  0  0
    1.8300   -2.7541    0.5013 C   0  0  0  0  0  0  0  0  0  0  0  0
    1.4211   -4.0651    0.0766 C   0  0  0  0  0  0  0  0  0  0  0  0
    2.1572   -4.8498   -0.9018 C   0  0  0  0  0  0  0  0  0  0  0  0
    3.3494   -4.1300   -1.4507 C   0  0  0  0  0  0  0  0  0  0  0  0
    3.8361   -2.8634   -0.9454 C   0  0  0  0  0  0  0  0  0  0  0  0
    3.0748   -2.2362    0.0623 C   0  0  0  0  0  0  0  0  0  0  0  0
    3.9879   -0.6003    1.3488 I   0  0  0  0  0  0  0  0  0  0  0  0
    5.1223   -2.2498   -1.4362 C   0  0  0  0  0  0  0  0  0  0  0  0
    6.1107   -2.7949   -1.9367 O   0  0  0  0  0  0  0  0  0  0  0  0
    5.2352   -0.9311   -1.3314 O   0  0  0  0  0  0  0  0  0  0  0  0
    4.6303   -4.6132   -3.5133 I   0  0  0  0  0  0  0  0  0  0  0  0
    1.5840   -6.3281   -1.1512 C   0  0  0  0  0  0  0  0  0  0  0  0
    0.5644   -6.7661   -0.6201 O   0  0  0  0  0  0  0  0  0  0  0  0
    2.1759   -7.3021   -1.9207 N   0  0  0  0  0  0  0  0  0  0  0  0
    3.4164   -7.1670   -2.5327 C   0  0  0  0  0  0  0  0  0  0  0  0
   -0.5698   -4.6408    0.9541 I   0  0  0  0  0  0  0  0  0  0  0  0
    0.3798    0.9773   -0.1391 H   0  0  0  0  0  0  0  0  0  0  0  0
    0.3991   -0.6087   -0.9687 H   0  0  0  0  0  0  0  0  0  0  0  0
    1.8726    0.1201   -0.3327 H   0  0  0  0  0  0  0  0  0  0  0  0
    0.5008   -2.4725    2.1216 H   0  0  0  0  0  0  0  0  0  0  0  0
    6.1649   -0.8286   -1.6429 H   0  0  0  0  0  0  0  0  0  0  0  0
    1.6807   -8.1836   -2.0162 H   0  0  0  0  0  0  0  0  0  0  0  0
    4.1916   -7.8776   -2.2750 H   0  0  0  0  0  0  0  0  0  0  0  0
    3.2511   -7.0337   -3.6058 H   0  0  0  0  0  0  0  0  0  0  0  0
    3.7547   -6.3049   -2.0127 H   0  0  0  0  0  0  0  0  0  0  0  0
  1  2  1  0  0  0  0
  1 21  1  0  0  0  0
  1 22  1  0  0  0  0
  1 23  1  0  0  0  0
  2  3  2  0  0  0  0
  2  4  1  0  0  0  0
  4  5  1  0  0  0  0
  4 24  1  0  0  0  0
  5  6  2  0  0  0  0
  5 10  1  0  0  0  0
  6  7  1  0  0  0  0
  6 20  1  0  0  0  0
  7  8  2  0  0  0  0
  7 16  1  0  0  0  0
  8  9  1  0  0  0  0
  8 15  1  0  0  0  0
  9 10  2  0  0  0  0
  9 12  1  0  0  0  0
 10 11  1  0  0  0  0
 12 13  2  0  0  0  0
 12 14  1  0  0  0  0
 14 25  1  0  0  0  0
 16 17  2  0  0  0  0
 16 18  1  0  0  0  0
 18 19  1  0  0  0  0
 18 26  1  0  0  0  0
 19 27  1  0  0  0  0
 19 28  1  0  0  0  0
 19 29  1  0  0  0  0
M  END
>  <DRUGBANK_ID>
DB09133

>  <COMMON_NAME>
Iothalamic acid

>  <CAS_NUMBER>
2276-90-6

>  <UNII>
16CHD79MIX

>  <SYNONYMS>
1-deoxy-1-(methylamino)-D-glucitol 5-acetamido-2,4,6 triiodo-N-methylisophthalamate; Iotalamic acid; Iothalamate; Iothalamic acid

$$$$
