
 OpenBabel10282417123D

 29 28  0  0  0  0  0  0  0  0999 V2000
    0.5534   -0.0088   -0.0520 C   0  0  0  0  0  0  0  0  0  0  0  0
    0.1078   -0.4218   -1.4262 C   0  0  0  0  0  0  0  0  0  0  0  0
    0.8815   -1.6891   -1.9018 N   0  3  0  0  0  0  0  0  0  0  0  0
    0.4807   -2.8064   -0.9396 C   0  0  0  0  0  0  0  0  0  0  0  0
    0.4090   -2.0244   -3.3006 C   0  0  0  0  0  0  0  0  0  0  0  0
    2.4591   -1.6208   -1.8916 C   0  0  0  0  0  0  0  0  0  0  0  0
    3.0817   -0.5443   -2.7803 C   0  0  0  0  0  0  0  0  0  0  0  0
    2.8673    0.8996   -2.3614 C   0  0  0  0  0  0  0  0  0  0  0  0
    3.6093    1.4061   -0.7996 S   0  0  0  0  0  0  0  0  0  0  0  0
    4.9837    1.6407   -1.1711 O   0  5  0  0  0  0  0  0  0  0  0  0
    2.7871    2.5800   -0.4796 O   0  0  0  0  0  0  0  0  0  0  0  0
    3.4673    0.3069    0.1498 O   0  0  0  0  0  0  0  0  0  0  0  0
    0.2369   -0.6536    0.7689 H   0  0  0  0  0  0  0  0  0  0  0  0
    0.3748    1.0397    0.1898 H   0  0  0  0  0  0  0  0  0  0  0  0
    1.5987   -0.1538   -0.0681 H   0  0  0  0  0  0  0  0  0  0  0  0
   -0.9633   -0.6475   -1.4317 H   0  0  0  0  0  0  0  0  0  0  0  0
    0.2414    0.3437   -2.1860 H   0  0  0  0  0  0  0  0  0  0  0  0
   -0.6119   -2.8256   -0.8904 H   0  0  0  0  0  0  0  0  0  0  0  0
    0.8731   -3.7543   -1.3096 H   0  0  0  0  0  0  0  0  0  0  0  0
    0.9013   -2.5935    0.0478 H   0  0  0  0  0  0  0  0  0  0  0  0
    0.7325   -1.2349   -3.9831 H   0  0  0  0  0  0  0  0  0  0  0  0
    0.8371   -2.9868   -3.5923 H   0  0  0  0  0  0  0  0  0  0  0  0
   -0.6822   -2.0671   -3.2924 H   0  0  0  0  0  0  0  0  0  0  0  0
    2.8087   -1.5918   -0.8615 H   0  0  0  0  0  0  0  0  0  0  0  0
    2.7883   -2.6044   -2.2619 H   0  0  0  0  0  0  0  0  0  0  0  0
    4.1641   -0.7146   -2.8307 H   0  0  0  0  0  0  0  0  0  0  0  0
    2.7411   -0.6839   -3.8152 H   0  0  0  0  0  0  0  0  0  0  0  0
    3.3125    1.5557   -3.1161 H   0  0  0  0  0  0  0  0  0  0  0  0
    1.8239    1.1967   -2.3948 H   0  0  0  0  0  0  0  0  0  0  0  0
  1  2  1  0  0  0  0
  1 13  1  0  0  0  0
  1 14  1  0  0  0  0
  1 15  1  0  0  0  0
  2  3  1  0  0  0  0
  2 16  1  0  0  0  0
  2 17  1  0  0  0  0
  3  4  1  0  0  0  0
  3  5  1  0  0  0  0
  3  6  1  0  0  0  0
  4 18  1  0  0  0  0
  4 19  1  0  0  0  0
  4 20  1  0  0  0  0
  5 21  1  0  0  0  0
  5 22  1  0  0  0  0
  5 23  1  0  0  0  0
  6  7  1  0  0  0  0
  6 24  1  0  0  0  0
  6 25  1  0  0  0  0
  7  8  1  0  0  0  0
  7 26  1  0  0  0  0
  7 27  1  0  0  0  0
  8  9  1  0  0  0  0
  8 28  1  0  0  0  0
  8 29  1  0  0  0  0
  9 10  1  0  0  0  0
  9 11  2  0  0  0  0
  9 12  2  0  0  0  0
M  CHG  2   3   1  10  -1
M  END
>  <DRUGBANK_ID>
DB02618

>  <SECONDARY_ACCESSION_NUMBERS>
EXPT02323

>  <COMMON_NAME>
Ethyl Dimethyl Ammonio Propane Sulfonate

$$$$
