ST3
 OpenBabel10282417123D

 24 24  0  0  0  0  0  0  0  0999 V2000
    1.0052    0.0176   -0.0835 C   0  0  0  0  0  0  0  0  0  0  0  0
    0.3233   -0.9976   -0.0762 O   0  0  0  0  0  0  0  0  0  0  0  0
    0.4502    1.2354   -0.0892 O   0  0  0  0  0  0  0  0  0  0  0  0
    2.4799    0.0536   -0.0789 C   0  0  0  0  0  0  0  0  0  0  0  0
    3.2562    1.2208   -0.0789 C   0  0  0  0  0  0  0  0  0  0  0  0
    4.6736    1.1703   -0.0467 C   0  0  0  0  0  0  0  0  0  0  0  0
    5.3677    2.3771   -0.0804 N   0  0  0  0  0  0  0  0  0  0  0  0
    5.3156   -0.0924   -0.0435 C   0  0  0  0  0  0  0  0  0  0  0  0
    6.7352   -0.1920   -0.0196 N   0  0  0  0  0  0  0  0  0  0  0  0
    7.5756   -1.2823   -0.0052 C   0  0  0  0  0  0  0  0  0  0  0  0
    8.7968   -1.1111    0.0190 O   0  0  0  0  0  0  0  0  0  0  0  0
    7.0198   -2.6783   -0.0184 C   0  0  0  0  0  0  0  0  0  0  0  0
    4.4958   -1.2235   -0.0579 C   0  0  0  0  0  0  0  0  0  0  0  0
    3.1139   -1.1695   -0.0706 C   0  0  0  0  0  0  0  0  0  0  0  0
   -0.5130    1.0511   -0.0856 H   0  0  0  0  0  0  0  0  0  0  0  0
    2.7500    2.1824   -0.0999 H   0  0  0  0  0  0  0  0  0  0  0  0
    6.3704    2.4323   -0.0038 H   0  0  0  0  0  0  0  0  0  0  0  0
    4.8552    3.2503   -0.0311 H   0  0  0  0  0  0  0  0  0  0  0  0
    7.2551    0.6761   -0.0082 H   0  0  0  0  0  0  0  0  0  0  0  0
    6.4222   -2.8340    0.8868 H   0  0  0  0  0  0  0  0  0  0  0  0
    6.4583   -2.8300   -0.9471 H   0  0  0  0  0  0  0  0  0  0  0  0
    7.7998   -3.4385   -0.0047 H   0  0  0  0  0  0  0  0  0  0  0  0
    4.8425   -2.2352   -0.0609 H   0  0  0  0  0  0  0  0  0  0  0  0
    2.5640   -2.1080   -0.0746 H   0  0  0  0  0  0  0  0  0  0  0  0
  1  2  2  0  0  0  0
  1  3  1  0  0  0  0
  1  4  1  0  0  0  0
  3 15  1  0  0  0  0
  4  5  2  0  0  0  0
  4 14  1  0  0  0  0
  5  6  1  0  0  0  0
  5 16  1  0  0  0  0
  6  7  1  0  0  0  0
  6  8  2  0  0  0  0
  7 17  1  0  0  0  0
  7 18  1  0  0  0  0
  8  9  1  0  0  0  0
  8 13  1  0  0  0  0
  9 10  1  0  0  0  0
  9 19  1  0  0  0  0
 10 11  2  0  0  0  0
 10 12  1  0  0  0  0
 12 20  1  0  0  0  0
 12 21  1  0  0  0  0
 12 22  1  0  0  0  0
 13 14  2  0  0  0  0
 13 23  1  0  0  0  0
 14 24  1  0  0  0  0
M  END
>  <DRUGBANK_ID>
DB02268

>  <SECONDARY_ACCESSION_NUMBERS>
EXPT02960

>  <COMMON_NAME>
4-(Acetylamino)-3-Amino Benzoic Acid

$$$$
