
 OpenBabel10282417203D

 80 86  0  0  0  0  0  0  0  0999 V2000
    0.9875   -0.2728    0.0094 C   0  0  0  0  0  0  0  0  0  0  0  0
    0.5346   -1.6433    0.0431 O   0  0  0  0  0  0  0  0  0  0  0  0
    1.0652   -2.4705   -0.9332 C   0  0  0  0  0  0  0  0  0  0  0  0
    1.7995   -2.0944   -1.8135 O   0  0  0  0  0  0  0  0  0  0  0  0
    0.5842   -3.8363   -0.7599 C   0  0  0  0  0  0  0  0  0  0  0  0
   -0.7175   -4.1802   -0.4948 C   0  0  0  0  0  0  0  0  0  0  0  0
   -0.8718   -5.5072   -0.5379 N   0  0  0  0  0  0  0  0  0  0  0  0
    0.3080   -6.0753   -0.6275 C   0  0  0  0  0  0  0  0  0  0  0  0
    1.2487   -5.0820   -0.9184 N   0  0  0  0  0  0  0  0  0  0  0  0
    2.6293   -5.2652   -1.3499 C   0  0  0  0  0  0  0  0  0  0  0  0
    3.5103   -6.2480   -0.5879 C   0  0  0  0  0  0  0  0  0  0  0  0
    3.1507   -7.6669   -0.7356 C   0  0  0  0  0  0  0  0  0  0  0  0
    4.1888   -8.5357   -1.1255 C   0  0  0  0  0  0  0  0  0  0  0  0
    3.9327   -9.8590   -1.2519 C   0  0  0  0  0  0  0  0  0  0  0  0
    2.8327  -10.3679   -0.6546 C   0  0  0  0  0  0  0  0  0  0  0  0
    1.8318   -9.4924   -0.6084 C   0  0  0  0  0  0  0  0  0  0  0  0
    1.8724   -8.1413   -0.5249 C   0  0  0  0  0  0  0  0  0  0  0  0
    0.5474   -7.4755   -0.3681 C   0  0  0  0  0  0  0  0  0  0  0  0
   -0.5572   -8.2498    0.0047 C   0  0  0  0  0  0  0  0  0  0  0  0
   -2.0349   -7.8328   -0.0918 C   0  0  0  0  0  0  0  0  0  0  0  0
   -2.8753   -8.5572    0.9530 C   0  0  0  0  0  0  0  0  0  0  0  0
   -2.8370  -10.0226    0.9169 N   0  0  0  0  0  0  0  0  0  0  0  0
   -1.5035  -10.4310    1.2959 C   0  0  0  0  0  0  0  0  0  0  0  0
   -0.5402   -9.7653    0.3860 C   0  0  0  0  0  0  0  0  0  0  0  0
   -3.3325  -10.6630   -0.3363 C   0  0  0  0  0  0  0  0  0  0  0  0
   -2.9511  -10.3246   -1.8572 C   0  0  0  0  0  0  0  0  0  0  0  0
   -1.5684  -10.6628   -2.4611 C   0  0  0  0  0  0  0  0  0  0  0  0
   -0.6650   -9.6861   -2.9391 C   0  0  0  0  0  0  0  0  0  0  0  0
    0.6922  -10.0217   -3.2625 C   0  0  0  0  0  0  0  0  0  0  0  0
    1.2240  -11.3220   -3.0401 C   0  0  0  0  0  0  0  0  0  0  0  0
    0.3403  -12.2517   -2.4995 C   0  0  0  0  0  0  0  0  0  0  0  0
   -1.0368  -11.9521   -2.2829 C   0  0  0  0  0  0  0  0  0  0  0  0
    2.6061  -11.4657   -3.1294 O   0  0  0  0  0  0  0  0  0  0  0  0
    3.4050  -12.6449   -2.6891 C   0  0  0  0  0  0  0  0  0  0  0  0
    3.9798  -12.8498   -1.2094 C   0  0  0  0  0  0  0  0  0  0  0  0
    5.0565  -12.2385   -0.4713 C   0  0  0  0  0  0  0  0  0  0  0  0
    5.0918  -12.2423    0.9718 C   0  0  0  0  0  0  0  0  0  0  0  0
    4.2410  -13.1261    1.6437 C   0  0  0  0  0  0  0  0  0  0  0  0
    4.2872  -13.5475    3.0035 C   0  0  0  0  0  0  0  0  0  0  0  0
    3.6315  -14.7427    3.3365 C   0  0  0  0  0  0  0  0  0  0  0  0
    2.8040  -15.3755    2.4101 C   0  0  0  0  0  0  0  0  0  0  0  0
    2.5604  -14.7886    1.1928 C   0  0  0  0  0  0  0  0  0  0  0  0
    3.3152  -13.7521    0.7884 C   0  0  0  0  0  0  0  0  0  0  0  0
    3.1237  -13.5766   -0.5061 N   0  0  0  0  0  0  0  0  0  0  0  0
    0.6027    0.2609    0.8897 H   0  0  0  0  0  0  0  0  0  0  0  0
    0.6113    0.2454   -0.8789 H   0  0  0  0  0  0  0  0  0  0  0  0
    2.0803   -0.2186    0.0491 H   0  0  0  0  0  0  0  0  0  0  0  0
   -1.5916   -3.5675   -0.3151 H   0  0  0  0  0  0  0  0  0  0  0  0
    2.6138   -5.5166   -2.4204 H   0  0  0  0  0  0  0  0  0  0  0  0
    3.1338   -4.3018   -1.2474 H   0  0  0  0  0  0  0  0  0  0  0  0
    4.5367   -6.1615   -0.9733 H   0  0  0  0  0  0  0  0  0  0  0  0
    3.5508   -6.0638    0.4861 H   0  0  0  0  0  0  0  0  0  0  0  0
    5.1896   -8.2322   -1.3963 H   0  0  0  0  0  0  0  0  0  0  0  0
    4.5582  -10.4444   -1.9062 H   0  0  0  0  0  0  0  0  0  0  0  0
    2.4426  -11.3778   -0.6543 H   0  0  0  0  0  0  0  0  0  0  0  0
    0.9548   -9.9900   -0.9471 H   0  0  0  0  0  0  0  0  0  0  0  0
   -2.2822   -6.7918    0.0645 H   0  0  0  0  0  0  0  0  0  0  0  0
   -2.3859   -8.0002   -1.1073 H   0  0  0  0  0  0  0  0  0  0  0  0
   -2.4746   -8.2163    1.9221 H   0  0  0  0  0  0  0  0  0  0  0  0
   -3.9106   -8.2190    0.9237 H   0  0  0  0  0  0  0  0  0  0  0  0
   -1.1831  -10.1576    2.3073 H   0  0  0  0  0  0  0  0  0  0  0  0
   -1.3639  -11.5204    1.2050 H   0  0  0  0  0  0  0  0  0  0  0  0
   -0.7590  -10.2784   -0.5247 H   0  0  0  0  0  0  0  0  0  0  0  0
    0.3836  -10.1756    0.7807 H   0  0  0  0  0  0  0  0  0  0  0  0
   -3.2296  -11.7493   -0.2039 H   0  0  0  0  0  0  0  0  0  0  0  0
   -4.4152  -10.4915   -0.2727 H   0  0  0  0  0  0  0  0  0  0  0  0
   -3.6703  -10.8875   -2.4672 H   0  0  0  0  0  0  0  0  0  0  0  0
   -3.2363   -9.2953   -2.0813 H   0  0  0  0  0  0  0  0  0  0  0  0
   -0.9028   -8.6222   -2.8191 H   0  0  0  0  0  0  0  0  0  0  0  0
    1.3953   -9.1863   -3.3749 H   0  0  0  0  0  0  0  0  0  0  0  0
    0.7162  -13.1734   -2.0702 H   0  0  0  0  0  0  0  0  0  0  0  0
   -1.6530  -12.6962   -1.7834 H   0  0  0  0  0  0  0  0  0  0  0  0
    2.7835  -13.5161   -2.9318 H   0  0  0  0  0  0  0  0  0  0  0  0
    4.2566  -12.6838   -3.3713 H   0  0  0  0  0  0  0  0  0  0  0  0
    5.8010  -11.5976   -0.9408 H   0  0  0  0  0  0  0  0  0  0  0  0
    5.7880  -11.6096    1.5340 H   0  0  0  0  0  0  0  0  0  0  0  0
    4.8982  -13.0596    3.7642 H   0  0  0  0  0  0  0  0  0  0  0  0
    3.7818  -15.2238    4.2988 H   0  0  0  0  0  0  0  0  0  0  0  0
    2.3477  -16.3403    2.5869 H   0  0  0  0  0  0  0  0  0  0  0  0
    1.8866  -15.2191    0.4608 H   0  0  0  0  0  0  0  0  0  0  0  0
  1  2  1  0  0  0  0
  1 45  1  0  0  0  0
  1 46  1  0  0  0  0
  1 47  1  0  0  0  0
  2  3  1  0  0  0  0
  3  4  2  0  0  0  0
  3  5  1  0  0  0  0
  5  6  2  0  0  0  0
  5  9  1  0  0  0  0
  6  7  1  0  0  0  0
  6 48  1  0  0  0  0
  7  8  2  0  0  0  0
  8  9  1  0  0  0  0
  8 18  1  0  0  0  0
  9 10  1  0  0  0  0
 10 11  1  0  0  0  0
 10 49  1  0  0  0  0
 10 50  1  0  0  0  0
 11 12  1  0  0  0  0
 11 51  1  0  0  0  0
 11 52  1  0  0  0  0
 12 13  2  0  0  0  0
 12 17  1  0  0  0  0
 13 14  1  0  0  0  0
 13 53  1  0  0  0  0
 14 15  2  0  0  0  0
 14 54  1  0  0  0  0
 15 16  1  0  0  0  0
 15 55  1  0  0  0  0
 16 17  2  0  0  0  0
 16 56  1  0  0  0  0
 17 18  1  0  0  0  0
 18 19  2  0  0  0  0
 19 20  1  0  0  0  0
 19 24  1  0  0  0  0
 20 21  1  0  0  0  0
 20 57  1  0  0  0  0
 20 58  1  0  0  0  0
 21 22  1  0  0  0  0
 21 59  1  0  0  0  0
 21 60  1  0  0  0  0
 22 23  1  0  0  0  0
 22 25  1  0  0  0  0
 23 24  1  0  0  0  0
 23 61  1  0  0  0  0
 23 62  1  0  0  0  0
 24 63  1  0  0  0  0
 24 64  1  0  0  0  0
 25 26  1  0  0  0  0
 25 65  1  0  0  0  0
 25 66  1  0  0  0  0
 26 27  1  0  0  0  0
 26 67  1  0  0  0  0
 26 68  1  0  0  0  0
 27 28  2  0  0  0  0
 27 32  1  0  0  0  0
 28 29  1  0  0  0  0
 28 69  1  0  0  0  0
 29 30  2  0  0  0  0
 29 70  1  0  0  0  0
 30 31  1  0  0  0  0
 30 33  1  0  0  0  0
 31 32  2  0  0  0  0
 31 71  1  0  0  0  0
 32 72  1  0  0  0  0
 33 34  1  0  0  0  0
 34 35  1  0  0  0  0
 34 73  1  0  0  0  0
 34 74  1  0  0  0  0
 35 36  2  0  0  0  0
 35 44  1  0  0  0  0
 36 37  1  0  0  0  0
 36 75  1  0  0  0  0
 37 38  2  0  0  0  0
 37 76  1  0  0  0  0
 38 39  1  0  0  0  0
 38 43  1  0  0  0  0
 39 40  2  0  0  0  0
 39 77  1  0  0  0  0
 40 41  1  0  0  0  0
 40 78  1  0  0  0  0
 41 42  2  0  0  0  0
 41 79  1  0  0  0  0
 42 43  1  0  0  0  0
 42 80  1  0  0  0  0
 43 44  2  0  0  0  0
M  END
>  <DRUGBANK_ID>
DB12799

>  <COMMON_NAME>
Laniquidar

>  <CAS_NUMBER>
197509-46-9

>  <UNII>
K3FRN4DDOY

>  <SYNONYMS>
Laniquidar

$$$$
