
 OpenBabel10282417173D

 42 45  0  0  0  0  0  0  0  0999 V2000
    2.5859    0.6602   -0.0057 C   0  0  0  0  0  0  0  0  0  0  0  0
    1.3439   -0.0581   -0.0176 C   0  0  0  0  0  0  0  0  0  0  0  0
    1.3474   -1.4504   -0.0576 C   0  0  0  0  0  0  0  0  0  0  0  0
    0.1552   -2.1770   -0.0364 C   0  0  0  0  0  0  0  0  0  0  0  0
   -1.0633   -1.4777   -0.0315 C   0  0  0  0  0  0  0  0  0  0  0  0
   -1.0587   -0.0756   -0.0126 C   0  0  0  0  0  0  0  0  0  0  0  0
    0.1392    0.6347    0.0003 C   0  0  0  0  0  0  0  0  0  0  0  0
    3.5755    1.2511   -0.0125 N   0  0  0  0  0  0  0  0  0  0  0  0
   -2.5373    0.8081   -0.0049 Cl  0  0  0  0  0  0  0  0  0  0  0  0
    0.1274   -3.5621   -0.0198 O   0  0  0  0  0  0  0  0  0  0  0  0
    1.3119   -4.2669    0.1232 C   0  0  0  0  0  0  0  0  0  0  0  0
    2.1293   -4.2532    1.2348 C   0  0  0  0  0  0  0  0  0  0  0  0
    3.3152   -5.0070    1.2097 C   0  0  0  0  0  0  0  0  0  0  0  0
    3.6407   -5.8641    0.1332 C   0  0  0  0  0  0  0  0  0  0  0  0
    2.7946   -5.9487   -0.9522 C   0  0  0  0  0  0  0  0  0  0  0  0
    1.7124   -5.0908   -0.9303 C   0  0  0  0  0  0  0  0  0  0  0  0
    1.7854   -3.2797    2.6151 Cl  0  0  0  0  0  0  0  0  0  0  0  0
    3.0514   -6.8260   -1.9734 O   0  0  0  0  0  0  0  0  0  0  0  0
    2.1058   -6.9484   -3.0923 C   0  0  0  0  0  0  0  0  0  0  0  0
   -1.4299   -7.4227   -2.0096 C   0  0  0  0  0  0  0  0  0  0  0  0
   -0.4678   -6.5874   -2.5453 C   0  0  0  0  0  0  0  0  0  0  0  0
   -0.7970   -5.2222   -2.6251 C   0  0  0  0  0  0  0  0  0  0  0  0
   -1.9513   -4.7863   -2.0035 C   0  0  0  0  0  0  0  0  0  0  0  0
   -2.8537   -5.7142   -1.5170 C   0  0  0  0  0  0  0  0  0  0  0  0
   -2.6437   -7.0562   -1.5249 N   0  0  0  0  0  0  0  0  0  0  0  0
    0.4031   -8.7051   -2.5274 N   0  0  0  0  0  0  0  0  0  0  0  0
   -0.8865   -8.6783   -2.0956 N   0  0  0  0  0  0  0  0  0  0  0  0
    0.6947   -7.4107   -2.7463 C   0  0  0  0  0  0  0  0  0  0  0  0
   -4.0491   -5.2138   -1.0342 N   0  0  0  0  0  0  0  0  0  0  0  0
    2.3041   -1.9620   -0.0673 H   0  0  0  0  0  0  0  0  0  0  0  0
   -2.0169   -2.0022   -0.0335 H   0  0  0  0  0  0  0  0  0  0  0  0
    0.1426    1.7223    0.0178 H   0  0  0  0  0  0  0  0  0  0  0  0
    3.9980   -4.9326    2.0488 H   0  0  0  0  0  0  0  0  0  0  0  0
    4.5538   -6.4510    0.1567 H   0  0  0  0  0  0  0  0  0  0  0  0
    1.1860   -5.0394   -1.8343 H   0  0  0  0  0  0  0  0  0  0  0  0
    2.0735   -5.9941   -3.6362 H   0  0  0  0  0  0  0  0  0  0  0  0
    2.5553   -7.6582   -3.8023 H   0  0  0  0  0  0  0  0  0  0  0  0
   -0.1134   -4.4619   -2.9925 H   0  0  0  0  0  0  0  0  0  0  0  0
   -2.1193   -3.7195   -1.9029 H   0  0  0  0  0  0  0  0  0  0  0  0
   -1.3351   -9.5564   -1.8659 H   0  0  0  0  0  0  0  0  0  0  0  0
   -4.7639   -5.8671   -0.7616 H   0  0  0  0  0  0  0  0  0  0  0  0
   -4.2307   -4.2212   -1.0290 H   0  0  0  0  0  0  0  0  0  0  0  0
  1  2  1  0  0  0  0
  1  8  3  0  0  0  0
  2  3  1  0  0  0  0
  2  7  2  0  0  0  0
  3  4  2  0  0  0  0
  3 30  1  0  0  0  0
  4  5  1  0  0  0  0
  4 10  1  0  0  0  0
  5  6  2  0  0  0  0
  5 31  1  0  0  0  0
  6  7  1  0  0  0  0
  6  9  1  0  0  0  0
  7 32  1  0  0  0  0
 10 11  1  0  0  0  0
 11 12  1  0  0  0  0
 11 16  2  0  0  0  0
 12 13  2  0  0  0  0
 12 17  1  0  0  0  0
 13 14  1  0  0  0  0
 13 33  1  0  0  0  0
 14 15  2  0  0  0  0
 14 34  1  0  0  0  0
 15 16  1  0  0  0  0
 15 18  1  0  0  0  0
 16 35  1  0  0  0  0
 18 19  1  0  0  0  0
 19 28  1  0  0  0  0
 19 36  1  0  0  0  0
 19 37  1  0  0  0  0
 20 21  1  0  0  0  0
 20 25  2  0  0  0  0
 21 22  2  0  0  0  0
 22 23  1  0  0  0  0
 22 38  1  0  0  0  0
 23 24  2  0  0  0  0
 23 39  1  0  0  0  0
 24 25  1  0  0  0  0
 24 29  1  0  0  0  0
 26 27  1  0  0  0  0
 26 28  2  0  0  0  0
 27 20  1  0  0  0  0
 27 40  1  0  0  0  0
 28 21  1  0  0  0  0
 29 41  1  0  0  0  0
 29 42  1  0  0  0  0
M  END
>  <DRUGBANK_ID>
DB08460

>  <COMMON_NAME>
MK-4965

>  <CAS_NUMBER>
920035-77-4

>  <UNII>
Z8856WDK9S

$$$$
