1231
 OpenBabel10282417113D

 50 52  0  0  0  0  0  0  0  0999 V2000
    0.8965   -0.1120   -0.1234 O   0  0  0  0  0  0  0  0  0  0  0  0
    2.8844    3.9005    2.0254 N   0  0  0  0  0  0  0  0  0  0  0  0
    3.6230    4.9637    1.2919 C   0  0  0  0  0  0  0  0  0  0  0  0
    1.4847    4.2030    1.7700 C   0  0  0  0  0  0  0  0  0  0  0  0
    3.2503    2.5833    1.4347 C   0  0  0  0  0  0  0  0  0  0  0  0
    3.1528    6.3467    1.7820 C   0  0  0  0  0  0  0  0  0  0  0  0
    0.8430    5.5025    2.1771 C   0  0  0  0  0  0  0  0  0  0  0  0
    1.6579    6.6219    1.5769 C   0  0  0  0  0  0  0  0  0  0  0  0
    2.5780    1.3476    2.0526 C   0  0  0  0  0  0  0  0  0  0  0  0
    1.0479    1.1757    1.8731 C   0  0  0  0  0  0  0  0  0  0  0  0
    0.4239    1.1546    0.3971 C   0  0  0  0  0  0  0  0  0  0  0  0
    0.8155    2.2109   -0.6916 C   0  0  0  0  0  0  0  0  0  0  0  0
   -1.1321    1.0759    0.5778 C   0  0  0  0  0  0  0  0  0  0  0  0
    0.2166    3.4816   -0.7193 C   0  0  0  0  0  0  0  0  0  0  0  0
   -1.7684   -0.1689    0.6639 C   0  0  0  0  0  0  0  0  0  0  0  0
    1.8684    2.0837   -1.6072 C   0  0  0  0  0  0  0  0  0  0  0  0
   -2.0034    2.1836    0.7050 C   0  0  0  0  0  0  0  0  0  0  0  0
    0.6220    4.5951   -1.4483 C   0  0  0  0  0  0  0  0  0  0  0  0
   -3.1606   -0.2454    0.8033 C   0  0  0  0  0  0  0  0  0  0  0  0
    2.3786    3.2266   -2.2769 C   0  0  0  0  0  0  0  0  0  0  0  0
   -3.3682    2.1287    0.8901 C   0  0  0  0  0  0  0  0  0  0  0  0
    1.7708    4.4807   -2.1800 C   0  0  0  0  0  0  0  0  0  0  0  0
   -3.9642    0.8852    0.9127 C   0  0  0  0  0  0  0  0  0  0  0  0
    1.8595   -0.1239    0.0039 H   0  0  0  0  0  0  0  0  0  0  0  0
    3.4635    4.8908    0.2027 H   0  0  0  0  0  0  0  0  0  0  0  0
    4.6984    4.8452    1.4483 H   0  0  0  0  0  0  0  0  0  0  0  0
    0.7752    3.4617    2.0659 H   0  0  0  0  0  0  0  0  0  0  0  0
    1.5085    4.2758    0.7095 H   0  0  0  0  0  0  0  0  0  0  0  0
    4.3363    2.4424    1.5155 H   0  0  0  0  0  0  0  0  0  0  0  0
    3.0845    2.5691    0.3641 H   0  0  0  0  0  0  0  0  0  0  0  0
    3.7246    7.1238    1.2726 H   0  0  0  0  0  0  0  0  0  0  0  0
    3.3575    6.4029    2.8552 H   0  0  0  0  0  0  0  0  0  0  0  0
    0.7537    5.5560    3.2633 H   0  0  0  0  0  0  0  0  0  0  0  0
   -0.1807    5.5342    1.7685 H   0  0  0  0  0  0  0  0  0  0  0  0
    1.3481    7.5673    2.0281 H   0  0  0  0  0  0  0  0  0  0  0  0
    1.4383    6.7007    0.5032 H   0  0  0  0  0  0  0  0  0  0  0  0
    2.8189    1.3457    3.1259 H   0  0  0  0  0  0  0  0  0  0  0  0
    3.0683    0.4468    1.6585 H   0  0  0  0  0  0  0  0  0  0  0  0
    0.5148    1.8348    2.5636 H   0  0  0  0  0  0  0  0  0  0  0  0
    0.8176    0.2071    2.3501 H   0  0  0  0  0  0  0  0  0  0  0  0
   -0.3480    3.8072    0.1292 H   0  0  0  0  0  0  0  0  0  0  0  0
   -1.1847   -1.0809    0.5936 H   0  0  0  0  0  0  0  0  0  0  0  0
    2.4157    1.1515   -1.7121 H   0  0  0  0  0  0  0  0  0  0  0  0
   -1.7516    3.2243    0.6277 H   0  0  0  0  0  0  0  0  0  0  0  0
    0.1825    5.5594   -1.1963 H   0  0  0  0  0  0  0  0  0  0  0  0
   -3.6359   -1.2241    0.8119 H   0  0  0  0  0  0  0  0  0  0  0  0
    3.3245    3.1595   -2.8065 H   0  0  0  0  0  0  0  0  0  0  0  0
   -3.9292    3.0523    0.9738 H   0  0  0  0  0  0  0  0  0  0  0  0
    2.2273    5.3811   -2.5756 H   0  0  0  0  0  0  0  0  0  0  0  0
   -5.0374    0.8348    0.9920 H   0  0  0  0  0  0  0  0  0  0  0  0
  1 11  1  0  0  0  0
  1 24  1  0  0  0  0
  2  3  1  0  0  0  0
  2  4  1  0  0  0  0
  2  5  1  0  0  0  0
  3  6  1  0  0  0  0
  3 25  1  0  0  0  0
  3 26  1  0  0  0  0
  4  7  1  0  0  0  0
  4 27  1  0  0  0  0
  4 28  1  0  0  0  0
  5  9  1  0  0  0  0
  5 29  1  0  0  0  0
  5 30  1  0  0  0  0
  6  8  1  0  0  0  0
  6 31  1  0  0  0  0
  6 32  1  0  0  0  0
  7  8  1  0  0  0  0
  7 33  1  0  0  0  0
  7 34  1  0  0  0  0
  8 35  1  0  0  0  0
  8 36  1  0  0  0  0
  9 10  1  0  0  0  0
  9 37  1  0  0  0  0
  9 38  1  0  0  0  0
 10 11  1  0  0  0  0
 10 39  1  0  0  0  0
 10 40  1  0  0  0  0
 11 12  1  0  0  0  0
 11 13  1  0  0  0  0
 12 14  2  0  0  0  0
 12 16  1  0  0  0  0
 13 15  2  0  0  0  0
 13 17  1  0  0  0  0
 14 18  1  0  0  0  0
 14 41  1  0  0  0  0
 15 19  1  0  0  0  0
 15 42  1  0  0  0  0
 16 20  2  0  0  0  0
 16 43  1  0  0  0  0
 17 21  2  0  0  0  0
 17 44  1  0  0  0  0
 18 22  2  0  0  0  0
 18 45  1  0  0  0  0
 19 23  2  0  0  0  0
 19 46  1  0  0  0  0
 20 22  1  0  0  0  0
 20 47  1  0  0  0  0
 21 23  1  0  0  0  0
 21 48  1  0  0  0  0
 22 49  1  0  0  0  0
 23 50  1  0  0  0  0
M  END
>  <DRUGBANK_ID>
DB01231

>  <SECONDARY_ACCESSION_NUMBERS>
APRD00929

>  <COMMON_NAME>
Diphenidol

>  <CAS_NUMBER>
972-02-1

>  <UNII>
NQO8R319LY

>  <SYNONYMS>
alpha,alpha-Diphenyl-1-piperidinebutanol; Difenidol; Dif√©nidol; Difenidolo; Difenidolum; Diphenidol; Diphenyl(3-(1-piperidyl)propyl)carbinol

$$$$
