
 OpenBabel10282417163D

102101  0  0  0  0  0  0  0  0999 V2000
    1.0829    0.5001   -0.3204 C   0  0  0  0  0  0  0  0  0  0  0  0
    1.3944    1.7020    1.7244 C   0  0  0  0  0  0  0  0  0  0  0  0
    1.4155    0.3795    2.6253 C   0  0  0  0  0  0  0  0  0  0  0  0
   -1.6234   -2.4224    2.2806 C   0  0  0  0  0  0  0  0  0  0  0  0
   -0.7932   -0.4686    0.8496 C   0  0  0  0  0  0  0  0  0  0  0  0
    0.5474   -1.5055    1.2569 C   0  0  0  0  0  0  0  0  0  0  0  0
   -0.9582   -0.3133    3.6936 C   0  0  0  0  0  0  0  0  0  0  0  0
   -1.2610    1.0162    2.8364 C   0  0  0  0  0  0  0  0  0  0  0  0
    0.7472    1.6626    0.3796 O   0  0  0  0  0  0  0  0  0  0  0  0
    1.5876   -0.9951    2.1732 O   0  0  0  0  0  0  0  0  0  0  0  0
   -1.4007    0.7548    1.3838 O   0  0  0  0  0  0  0  0  0  0  0  0
   -0.8538   -1.7996    3.3651 O   0  0  0  0  0  0  0  0  0  0  0  0
    0.3536   -0.2175   -1.4845 C   0  0  0  0  0  0  0  0  0  0  0  0
   -2.9286   -1.7312    1.8158 C   0  0  0  0  0  0  0  0  0  0  0  0
    2.9199   -0.4789   -2.7709 C   0  0  0  0  0  0  0  0  0  0  0  0
   -3.3344   -1.7947    5.0708 C   0  0  0  0  0  0  0  0  0  0  0  0
    0.9392   -1.5231   -1.7965 O   0  0  0  0  0  0  0  0  0  0  0  0
    2.3797   -1.5627   -1.8376 C   0  0  0  0  0  0  0  0  0  0  0  0
   -3.7222   -0.7915    2.5348 O   0  0  0  0  0  0  0  0  0  0  0  0
   -3.6208   -0.6739    3.9880 C   0  0  0  0  0  0  0  0  0  0  0  0
   -3.2445   -3.1817    4.5824 O   0  0  0  0  0  0  0  0  0  0  0  0
   -4.0388   -3.6591    3.3993 C   0  0  0  0  0  0  0  0  0  0  0  0
   -5.3823   -3.2035    2.4824 C   0  0  0  0  0  0  0  0  0  0  0  0
    3.2428    1.3591   -1.0163 C   0  0  0  0  0  0  0  0  0  0  0  0
    4.6987    1.2706   -0.9545 C   0  0  0  0  0  0  0  0  0  0  0  0
    4.9217    3.9394    0.0493 C   0  0  0  0  0  0  0  0  0  0  0  0
    4.4689    3.6755   -1.3921 C   0  0  0  0  0  0  0  0  0  0  0  0
   -6.2388   -2.1134    3.1171 O   0  0  0  0  0  0  0  0  0  0  0  0
   -5.9134   -2.7348    5.9358 C   0  0  0  0  0  0  0  0  0  0  0  0
   -6.0509   -1.7448    4.5653 C   0  0  0  0  0  0  0  0  0  0  0  0
    6.4770    6.3818   -0.4714 C   0  0  0  0  0  0  0  0  0  0  0  0
    6.9862    5.0007   -0.8792 C   0  0  0  0  0  0  0  0  0  0  0  0
   -5.5446   -4.1313    5.8412 O   0  0  0  0  0  0  0  0  0  0  0  0
   -7.4879   -4.5220    4.1485 C   0  0  0  0  0  0  0  0  0  0  0  0
   -6.0552   -4.6755    4.6525 C   0  0  0  0  0  0  0  0  0  0  0  0
   -8.1100   -3.2440    4.2303 O   0  0  0  0  0  0  0  0  0  0  0  0
    2.6614    0.9940   -2.3947 C   0  0  0  0  0  0  0  0  0  0  0  0
    5.0936    2.3518   -1.8872 C   0  0  0  0  0  0  0  0  0  0  0  0
    6.4502    3.9295    0.0757 C   0  0  0  0  0  0  0  0  0  0  0  0
    6.9402    6.7040    0.9385 C   0  0  0  0  0  0  0  0  0  0  0  0
    1.2962    0.0576    0.5914 H   0  0  0  0  0  0  0  0  0  0  0  0
    1.9797   -0.1021   -0.2701 H   0  0  0  0  0  0  0  0  0  0  0  0
    2.4314    1.9532    1.6157 H   0  0  0  0  0  0  0  0  0  0  0  0
    0.8641    2.5305    2.2197 H   0  0  0  0  0  0  0  0  0  0  0  0
    1.3642    0.5370    3.7105 H   0  0  0  0  0  0  0  0  0  0  0  0
    0.3787    0.2661    2.4207 H   0  0  0  0  0  0  0  0  0  0  0  0
   -1.3803   -2.3600    1.2198 H   0  0  0  0  0  0  0  0  0  0  0  0
   -1.2629   -3.4469    2.0760 H   0  0  0  0  0  0  0  0  0  0  0  0
   -1.4514   -0.9627    0.1185 H   0  0  0  0  0  0  0  0  0  0  0  0
   -0.9904   -0.8121    1.7741 H   0  0  0  0  0  0  0  0  0  0  0  0
    0.7693   -1.4566    0.2321 H   0  0  0  0  0  0  0  0  0  0  0  0
    0.7608   -2.5553    0.9806 H   0  0  0  0  0  0  0  0  0  0  0  0
   -0.9771   -0.1855    4.7812 H   0  0  0  0  0  0  0  0  0  0  0  0
   -1.8645   -0.2721    3.1992 H   0  0  0  0  0  0  0  0  0  0  0  0
   -0.4674    1.6724    3.1222 H   0  0  0  0  0  0  0  0  0  0  0  0
   -2.0820    1.6794    3.1447 H   0  0  0  0  0  0  0  0  0  0  0  0
   -0.7082   -0.3431   -1.3565 H   0  0  0  0  0  0  0  0  0  0  0  0
    0.3031    0.3304   -2.4077 H   0  0  0  0  0  0  0  0  0  0  0  0
   -3.4257   -2.0740    0.8895 H   0  0  0  0  0  0  0  0  0  0  0  0
   -3.0533   -2.6865    2.2289 H   0  0  0  0  0  0  0  0  0  0  0  0
    4.0004   -0.6096   -2.8392 H   0  0  0  0  0  0  0  0  0  0  0  0
    2.5000   -0.6666   -3.7607 H   0  0  0  0  0  0  0  0  0  0  0  0
   -2.5268   -1.5352    5.7978 H   0  0  0  0  0  0  0  0  0  0  0  0
   -4.0734   -1.6316    5.8048 H   0  0  0  0  0  0  0  0  0  0  0  0
    2.8346   -1.5350   -0.8331 H   0  0  0  0  0  0  0  0  0  0  0  0
    2.6853   -2.5618   -2.1665 H   0  0  0  0  0  0  0  0  0  0  0  0
   -2.6746   -0.9359    4.1226 H   0  0  0  0  0  0  0  0  0  0  0  0
   -3.6806    0.3955    4.2672 H   0  0  0  0  0  0  0  0  0  0  0  0
   -4.1001   -2.6603    3.2080 H   0  0  0  0  0  0  0  0  0  0  0  0
   -3.4005   -4.3350    2.7919 H   0  0  0  0  0  0  0  0  0  0  0  0
   -5.3271   -3.0416    1.3952 H   0  0  0  0  0  0  0  0  0  0  0  0
   -5.8702   -4.1620    2.3979 H   0  0  0  0  0  0  0  0  0  0  0  0
    2.7174    2.2370   -0.6158 H   0  0  0  0  0  0  0  0  0  0  0  0
    3.2199    0.7041   -0.1642 H   0  0  0  0  0  0  0  0  0  0  0  0
    4.9907    1.3911    0.1000 H   0  0  0  0  0  0  0  0  0  0  0  0
    5.0042    0.2533   -1.2051 H   0  0  0  0  0  0  0  0  0  0  0  0
    4.4934    4.8783    0.4059 H   0  0  0  0  0  0  0  0  0  0  0  0
    4.5324    3.2080    0.7688 H   0  0  0  0  0  0  0  0  0  0  0  0
    4.7365    4.4599   -2.0932 H   0  0  0  0  0  0  0  0  0  0  0  0
    3.3717    3.7220   -1.4289 H   0  0  0  0  0  0  0  0  0  0  0  0
   -5.2670   -2.3326    6.7354 H   0  0  0  0  0  0  0  0  0  0  0  0
   -6.8659   -2.7359    6.4206 H   0  0  0  0  0  0  0  0  0  0  0  0
   -5.0103   -1.8629    4.3258 H   0  0  0  0  0  0  0  0  0  0  0  0
   -5.9814   -0.6637    4.8032 H   0  0  0  0  0  0  0  0  0  0  0  0
    6.8370    7.1319   -1.1786 H   0  0  0  0  0  0  0  0  0  0  0  0
    5.3825    6.4375   -0.5210 H   0  0  0  0  0  0  0  0  0  0  0  0
    8.0775    4.9727   -0.8879 H   0  0  0  0  0  0  0  0  0  0  0  0
    6.6919    4.7965   -1.9167 H   0  0  0  0  0  0  0  0  0  0  0  0
   -7.5241   -4.7264    3.0683 H   0  0  0  0  0  0  0  0  0  0  0  0
   -8.0622   -5.2114    4.7172 H   0  0  0  0  0  0  0  0  0  0  0  0
   -5.7594   -3.8358    4.1790 H   0  0  0  0  0  0  0  0  0  0  0  0
   -5.4350   -5.4513    4.1541 H   0  0  0  0  0  0  0  0  0  0  0  0
   -7.9908   -2.8642    5.1081 H   0  0  0  0  0  0  0  0  0  0  0  0
    3.0089    1.6436   -3.1947 H   0  0  0  0  0  0  0  0  0  0  0  0
    1.6368    1.3519   -2.4598 H   0  0  0  0  0  0  0  0  0  0  0  0
    6.1714    2.3285   -1.9437 H   0  0  0  0  0  0  0  0  0  0  0  0
    4.7610    2.1372   -2.9004 H   0  0  0  0  0  0  0  0  0  0  0  0
    6.8072    4.0662    1.0961 H   0  0  0  0  0  0  0  0  0  0  0  0
    6.8581    2.9514   -0.2000 H   0  0  0  0  0  0  0  0  0  0  0  0
    8.0328    6.6785    0.9792 H   0  0  0  0  0  0  0  0  0  0  0  0
    6.5817    7.6842    1.2485 H   0  0  0  0  0  0  0  0  0  0  0  0
    6.5605    5.9863    1.6732 H   0  0  0  0  0  0  0  0  0  0  0  0
  1  9  1  0  0  0  0
  1 13  1  0  0  0  0
  1 41  1  0  0  0  0
  1 42  1  0  0  0  0
  2  3  1  0  0  0  0
  2  9  1  0  0  0  0
  2 43  1  0  0  0  0
  2 44  1  0  0  0  0
  3 45  1  0  0  0  0
  3 46  1  0  0  0  0
  4 12  1  0  0  0  0
  4 47  1  0  0  0  0
  4 48  1  0  0  0  0
  5  6  1  0  0  0  0
  5 49  1  0  0  0  0
  5 50  1  0  0  0  0
  6 51  1  0  0  0  0
  6 52  1  0  0  0  0
  7  8  1  0  0  0  0
  7 53  1  0  0  0  0
  7 54  1  0  0  0  0
  8 11  1  0  0  0  0
  8 55  1  0  0  0  0
  8 56  1  0  0  0  0
 10  6  1  0  0  0  0
 10  3  1  0  0  0  0
 11  5  1  0  0  0  0
 12  7  1  0  0  0  0
 13 57  1  0  0  0  0
 13 58  1  0  0  0  0
 14  4  1  0  0  0  0
 14 59  1  0  0  0  0
 14 60  1  0  0  0  0
 15 37  1  0  0  0  0
 15 18  1  0  0  0  0
 15 61  1  0  0  0  0
 15 62  1  0  0  0  0
 16 20  1  0  0  0  0
 16 63  1  0  0  0  0
 16 64  1  0  0  0  0
 17 13  1  0  0  0  0
 17 18  1  0  0  0  0
 18 65  1  0  0  0  0
 18 66  1  0  0  0  0
 19 14  1  0  0  0  0
 20 19  1  0  0  0  0
 20 67  1  0  0  0  0
 20 68  1  0  0  0  0
 21 16  1  0  0  0  0
 21 22  1  0  0  0  0
 22 23  1  0  0  0  0
 22 69  1  0  0  0  0
 22 70  1  0  0  0  0
 23 28  1  0  0  0  0
 23 71  1  0  0  0  0
 23 72  1  0  0  0  0
 24 37  1  0  0  0  0
 24 25  1  0  0  0  0
 24 73  1  0  0  0  0
 24 74  1  0  0  0  0
 25 75  1  0  0  0  0
 25 76  1  0  0  0  0
 26 39  1  0  0  0  0
 26 27  1  0  0  0  0
 26 77  1  0  0  0  0
 26 78  1  0  0  0  0
 27 79  1  0  0  0  0
 27 80  1  0  0  0  0
 29 30  1  0  0  0  0
 29 81  1  0  0  0  0
 29 82  1  0  0  0  0
 30 28  1  0  0  0  0
 30 83  1  0  0  0  0
 30 84  1  0  0  0  0
 31 32  1  0  0  0  0
 31 85  1  0  0  0  0
 31 86  1  0  0  0  0
 32 39  1  0  0  0  0
 32 87  1  0  0  0  0
 32 88  1  0  0  0  0
 33 29  1  0  0  0  0
 33 35  1  0  0  0  0
 34 36  1  0  0  0  0
 34 35  1  0  0  0  0
 34 89  1  0  0  0  0
 34 90  1  0  0  0  0
 35 91  1  0  0  0  0
 35 92  1  0  0  0  0
 36 93  1  0  0  0  0
 37 94  1  0  0  0  0
 37 95  1  0  0  0  0
 38 25  1  0  0  0  0
 38 27  1  0  0  0  0
 38 96  1  0  0  0  0
 38 97  1  0  0  0  0
 39 98  1  0  0  0  0
 39 99  1  0  0  0  0
 40 31  1  0  0  0  0
 40100  1  0  0  0  0
 40101  1  0  0  0  0
 40102  1  0  0  0  0
M  END
>  <DRUGBANK_ID>
DB06811

>  <COMMON_NAME>
Polidocanol

>  <CAS_NUMBER>
9002-92-0

>  <UNII>
0AWH8BFG9A

>  <SYNONYMS>
Aethoxy-sklerol; Laureth 9; Laureth-9; Macrogol 9 lauryl ether; Nonaethylene glycol monododecyl ether; Nonaethylene glycol monolauryl ether; PEG-9 lauryl ether; Polidocanol; Polydocanol; Polyethylene glycol 450 lauryl ether; Polyoxyl 9 lauryl ether

$$$$
