6OC
 OpenBabel10282417163D

 52 51  0  0  0  0  0  0  0  0999 V2000
  -12.7529    5.9820    2.9779 C   0  0  0  0  0  0  0  0  0  0  0  0
  -12.3856    6.1451    4.4443 C   0  0  0  0  0  0  0  0  0  0  0  0
  -11.6531    4.9039    4.9634 C   0  0  0  0  0  0  0  0  0  0  0  0
  -10.3517    4.6634    4.2044 C   0  0  0  0  0  0  0  0  0  0  0  0
   -9.4716    5.9026    4.2495 C   0  0  0  0  0  0  0  0  0  0  0  0
   -9.1021    6.2511    5.6669 C   0  0  0  0  0  0  0  0  0  0  0  0
   -7.8489    6.3790    6.0823 C   0  0  0  0  0  0  0  0  0  0  0  0
   -6.7561    6.0680    5.1778 C   0  0  0  0  0  0  0  0  0  0  0  0
   -5.6646    7.0613    5.0860 C   0  0  0  0  0  0  0  0  0  0  0  0
   -4.4216    6.6446    5.3782 C   0  0  0  0  0  0  0  0  0  0  0  0
   -4.2391    5.1961    5.8385 C   0  0  1  0  0  0  0  0  0  0  0  0
   -4.7527    4.1559    4.7833 C   0  0  0  0  0  0  0  0  0  0  0  0
   -4.1595    2.8026    4.8529 C   0  0  0  0  0  0  0  0  0  0  0  0
   -4.8727    1.8353    5.1328 O   0  0  0  0  0  0  0  0  0  0  0  0
   -2.7098    2.6509    4.5386 C   0  0  0  0  0  0  0  0  0  0  0  0
   -2.3789    3.1047    3.1145 C   0  0  0  0  0  0  0  0  0  0  0  0
   -2.4453    4.6140    2.7755 C   0  0  0  0  0  0  0  0  0  0  0  0
   -1.6573    5.5211    3.7007 C   0  0  0  0  0  0  0  0  0  0  0  0
   -0.1751    5.3666    3.6243 C   0  0  0  0  0  0  0  0  0  0  0  0
    0.6219    6.2392    3.4030 O   0  0  0  0  0  0  0  0  0  0  0  0
    0.1924    4.1098    3.9618 O   0  0  0  0  0  0  0  0  0  0  0  0
   -2.9484    4.9543    6.3550 O   0  0  0  0  0  0  0  0  0  0  0  0
   -4.8343    5.0876    6.7464 H   0  0  0  0  0  0  0  0  0  0  0  0
  -11.8715    5.8475    2.3414 H   0  0  0  0  0  0  0  0  0  0  0  0
  -13.2748    6.8670    2.6109 H   0  0  0  0  0  0  0  0  0  0  0  0
  -13.3946    5.1055    2.8532 H   0  0  0  0  0  0  0  0  0  0  0  0
  -11.7803    7.0514    4.5688 H   0  0  0  0  0  0  0  0  0  0  0  0
  -13.2806    6.3166    5.0465 H   0  0  0  0  0  0  0  0  0  0  0  0
  -11.4445    5.0240    6.0328 H   0  0  0  0  0  0  0  0  0  0  0  0
  -12.2902    4.0195    4.8835 H   0  0  0  0  0  0  0  0  0  0  0  0
   -9.8221    3.7919    4.6110 H   0  0  0  0  0  0  0  0  0  0  0  0
  -10.5512    4.4126    3.1559 H   0  0  0  0  0  0  0  0  0  0  0  0
   -8.6456    5.6949    3.5706 H   0  0  0  0  0  0  0  0  0  0  0  0
   -9.9286    6.7878    3.8046 H   0  0  0  0  0  0  0  0  0  0  0  0
   -9.8669    6.3561    6.4272 H   0  0  0  0  0  0  0  0  0  0  0  0
   -7.6011    6.4603    7.1398 H   0  0  0  0  0  0  0  0  0  0  0  0
   -6.4807    5.1912    5.7399 H   0  0  0  0  0  0  0  0  0  0  0  0
   -6.9572    5.7073    4.1689 H   0  0  0  0  0  0  0  0  0  0  0  0
   -5.9029    8.0552    4.7179 H   0  0  0  0  0  0  0  0  0  0  0  0
   -3.6011    7.3518    5.2827 H   0  0  0  0  0  0  0  0  0  0  0  0
   -5.8096    3.8836    4.8761 H   0  0  0  0  0  0  0  0  0  0  0  0
   -4.8228    4.5593    3.7731 H   0  0  0  0  0  0  0  0  0  0  0  0
   -2.1131    3.1474    5.3016 H   0  0  0  0  0  0  0  0  0  0  0  0
   -2.4919    1.5841    4.6593 H   0  0  0  0  0  0  0  0  0  0  0  0
   -1.3640    2.7606    2.9077 H   0  0  0  0  0  0  0  0  0  0  0  0
   -3.0238    2.5629    2.4145 H   0  0  0  0  0  0  0  0  0  0  0  0
   -2.1325    4.7712    1.7409 H   0  0  0  0  0  0  0  0  0  0  0  0
   -3.4707    4.9707    2.7492 H   0  0  0  0  0  0  0  0  0  0  0  0
   -1.9543    6.5696    3.5886 H   0  0  0  0  0  0  0  0  0  0  0  0
   -1.8420    5.2808    4.7244 H   0  0  0  0  0  0  0  0  0  0  0  0
    1.1607    4.0572    3.8692 H   0  0  0  0  0  0  0  0  0  0  0  0
   -2.4828    5.7947    6.4993 H   0  0  0  0  0  0  0  0  0  0  0  0
  1  2  1  0  0  0  0
  1 24  1  0  0  0  0
  1 25  1  0  0  0  0
  1 26  1  0  0  0  0
  2  3  1  0  0  0  0
  2 27  1  0  0  0  0
  2 28  1  0  0  0  0
  3  4  1  0  0  0  0
  3 29  1  0  0  0  0
  3 30  1  0  0  0  0
  4  5  1  0  0  0  0
  4 31  1  0  0  0  0
  4 32  1  0  0  0  0
  5  6  1  0  0  0  0
  5 33  1  0  0  0  0
  5 34  1  0  0  0  0
  6  7  2  0  0  0  0
  6 35  1  0  0  0  0
  7  8  1  0  0  0  0
  7 36  1  0  0  0  0
  8  9  1  0  0  0  0
  8 37  1  0  0  0  0
  8 38  1  0  0  0  0
  9 10  2  0  0  0  0
  9 39  1  0  0  0  0
 10 40  1  0  0  0  0
 11 23  1  1  0  0  0
 11 22  1  0  0  0  0
 11 12  1  0  0  0  0
 11 10  1  0  0  0  0
 12 13  1  0  0  0  0
 12 41  1  0  0  0  0
 12 42  1  0  0  0  0
 13 14  2  0  0  0  0
 13 15  1  0  0  0  0
 15 16  1  0  0  0  0
 15 43  1  0  0  0  0
 15 44  1  0  0  0  0
 16 17  1  0  0  0  0
 16 45  1  0  0  0  0
 16 46  1  0  0  0  0
 17 18  1  0  0  0  0
 17 47  1  0  0  0  0
 17 48  1  0  0  0  0
 18 19  1  0  0  0  0
 18 49  1  0  0  0  0
 18 50  1  0  0  0  0
 19 20  2  0  0  0  0
 19 21  1  0  0  0  0
 21 51  1  0  0  0  0
 22 52  1  0  0  0  0
M  END
>  <DRUGBANK_ID>
DB07209

>  <COMMON_NAME>
(8R,9Z,12Z)-8-hydroxy-6-oxooctadeca-9,12-dienoic acid

$$$$
