
 OpenBabel10282417223D

115118  0  0  0  0  0  0  0  0999 V2000
    0.9334   -0.0598    0.0410 C   0  0  0  0  0  0  0  0  0  0  0  0
    9.3603    0.7446  -15.8488 C   0  0  0  0  0  0  0  0  0  0  0  0
   -1.1731    4.8179   -2.1330 C   0  0  0  0  0  0  0  0  0  0  0  0
    6.1636   -3.8973  -15.4384 C   0  0  0  0  0  0  0  0  0  0  0  0
   11.2990   -6.9547   -0.2304 C   0  0  0  0  0  0  0  0  0  0  0  0
   11.7021   -7.3873   -2.7667 C   0  0  0  0  0  0  0  0  0  0  0  0
    9.6998   -6.6861   -1.8330 C   0  0  0  0  0  0  0  0  0  0  0  0
    9.0214  -10.8306   -1.3583 O   0  0  0  0  0  0  0  0  0  0  0  0
    1.1106    1.5424   -4.1978 O   0  0  0  0  0  0  0  0  0  0  0  0
    5.5862   -4.2592  -12.8930 O   0  0  0  0  0  0  0  0  0  0  0  0
    6.2912   -6.8404   -2.1426 C   0  0  0  0  0  0  0  0  0  0  0  0
    5.2112   -8.9281   -2.0449 C   0  0  0  0  0  0  0  0  0  0  0  0
    0.5100   -2.4521   -6.1366 C   0  0  0  0  0  0  0  0  0  0  0  0
    2.1500   -2.6067   -4.3779 C   0  0  0  0  0  0  0  0  0  0  0  0
    6.5892   -3.6856   -8.4043 C   0  0  0  0  0  0  0  0  0  0  0  0
    6.8621   -5.8851   -9.3673 C   0  0  0  0  0  0  0  0  0  0  0  0
    7.4119   -7.6123   -2.2145 C   0  0  0  0  0  0  0  0  0  0  0  0
    6.4434   -9.6196   -1.7855 C   0  0  0  0  0  0  0  0  0  0  0  0
    0.0364   -1.2634   -5.5847 C   0  0  0  0  0  0  0  0  0  0  0  0
    1.7222   -1.3887   -3.8483 C   0  0  0  0  0  0  0  0  0  0  0  0
    6.4090   -3.1185   -9.6591 C   0  0  0  0  0  0  0  0  0  0  0  0
    6.6291   -5.3323  -10.6279 C   0  0  0  0  0  0  0  0  0  0  0  0
    0.4694    1.2906    0.5884 C   0  0  0  0  0  0  0  0  0  0  0  0
    8.1020    1.0595  -15.0530 C   0  0  0  0  0  0  0  0  0  0  0  0
    0.9527    2.4611   -0.2674 C   0  0  0  0  0  0  0  0  0  0  0  0
    6.8648    0.4649  -15.7191 C   0  0  0  0  0  0  0  0  0  0  0  0
   -1.6776    3.6291   -1.3244 C   0  0  0  0  0  0  0  0  0  0  0  0
    7.3829   -3.2506  -14.7768 C   0  0  0  0  0  0  0  0  0  0  0  0
    0.4312    2.3137   -1.6789 C   0  0  0  0  0  0  0  0  0  0  0  0
    6.9486   -1.0492  -15.8348 C   0  0  0  0  0  0  0  0  0  0  0  0
   -1.5036    1.9915   -3.2909 C   0  0  0  0  0  0  0  0  0  0  0  0
    5.9418   -1.5243  -13.5278 C   0  0  0  0  0  0  0  0  0  0  0  0
    3.2819   -5.4755   -4.6003 N   0  0  0  0  0  0  0  0  0  0  0  0
    5.4653   -6.2145   -4.9826 N   0  0  0  0  0  0  0  0  0  0  0  0
    4.3579   -4.9587   -6.6188 N   0  0  0  0  0  0  0  0  0  0  0  0
    4.1602   -6.9312   -3.0689 N   0  0  0  0  0  0  0  0  0  0  0  0
    2.1346   -4.2684   -6.2003 N   0  0  0  0  0  0  0  0  0  0  0  0
    6.6256   -5.6102   -6.9414 N   0  0  0  0  0  0  0  0  0  0  0  0
   10.2882   -8.9807   -1.4015 N   0  0  0  0  0  0  0  0  0  0  0  0
   -1.0052    0.7033   -3.7206 O   0  0  0  0  0  0  0  0  0  0  0  0
    6.1577   -2.1186  -12.2273 O   0  0  0  0  0  0  0  0  0  0  0  0
    9.0252   -9.6080   -1.5580 C   0  0  0  0  0  0  0  0  0  0  0  0
    0.2970    0.6436   -4.1141 C   0  0  0  0  0  0  0  0  0  0  0  0
    5.9794   -3.4640  -12.0868 C   0  0  0  0  0  0  0  0  0  0  0  0
    5.1793   -7.5574   -2.3637 C   0  0  0  0  0  0  0  0  0  0  0  0
    1.6171   -3.1088   -5.5800 C   0  0  0  0  0  0  0  0  0  0  0  0
    6.7553   -5.0711   -8.2342 C   0  0  0  0  0  0  0  0  0  0  0  0
    7.6487   -8.9365   -1.8564 C   0  0  0  0  0  0  0  0  0  0  0  0
    0.6613   -0.7271   -4.4661 C   0  0  0  0  0  0  0  0  0  0  0  0
    6.3792   -3.9547  -10.7612 C   0  0  0  0  0  0  0  0  0  0  0  0
    4.3408   -6.1663   -4.2462 C   0  0  0  0  0  0  0  0  0  0  0  0
    3.3108   -4.9173   -5.8011 C   0  0  0  0  0  0  0  0  0  0  0  0
    5.4465   -5.5814   -6.1576 C   0  0  0  0  0  0  0  0  0  0  0  0
   -1.0988    2.2993   -1.8359 C   0  0  3  0  0  0  0  0  0  0  0  0
    7.1326   -1.7678  -14.4841 C   0  0  3  0  0  0  0  0  0  0  0  0
   10.8133   -7.5811   -1.5255 C   0  0  0  0  0  0  0  0  0  0  0  0
    0.5277   -0.2819   -0.9527 H   0  0  0  0  0  0  0  0  0  0  0  0
    0.5951   -0.8712    0.6865 H   0  0  0  0  0  0  0  0  0  0  0  0
    2.0251   -0.0855   -0.0322 H   0  0  0  0  0  0  0  0  0  0  0  0
    9.2730    1.1444  -16.8637 H   0  0  0  0  0  0  0  0  0  0  0  0
   10.2381    1.1788  -15.3675 H   0  0  0  0  0  0  0  0  0  0  0  0
    9.5411   -0.3327  -15.9263 H   0  0  0  0  0  0  0  0  0  0  0  0
   -1.5030    4.7463   -3.1721 H   0  0  0  0  0  0  0  0  0  0  0  0
   -1.5442    5.7557   -1.7191 H   0  0  0  0  0  0  0  0  0  0  0  0
   -0.0805    4.8789   -2.1325 H   0  0  0  0  0  0  0  0  0  0  0  0
    6.0257   -3.5339  -16.4564 H   0  0  0  0  0  0  0  0  0  0  0  0
    6.2659   -4.9821  -15.4568 H   0  0  0  0  0  0  0  0  0  0  0  0
    5.2195   -3.6626  -14.9367 H   0  0  0  0  0  0  0  0  0  0  0  0
   12.2735   -7.3150    0.0747 H   0  0  0  0  0  0  0  0  0  0  0  0
   11.3495   -5.8600   -0.3564 H   0  0  0  0  0  0  0  0  0  0  0  0
   10.5681   -7.1278    0.5734 H   0  0  0  0  0  0  0  0  0  0  0  0
   11.2486   -7.8660   -3.6522 H   0  0  0  0  0  0  0  0  0  0  0  0
   11.7554   -6.3144   -3.0161 H   0  0  0  0  0  0  0  0  0  0  0  0
   12.7057   -7.7745   -2.6421 H   0  0  0  0  0  0  0  0  0  0  0  0
    9.5191   -7.1045   -2.8241 H   0  0  0  0  0  0  0  0  0  0  0  0
    8.9899   -6.8014   -1.0021 H   0  0  0  0  0  0  0  0  0  0  0  0
    9.7998   -5.6204   -2.0072 H   0  0  0  0  0  0  0  0  0  0  0  0
    6.3995   -5.7825   -2.3898 H   0  0  0  0  0  0  0  0  0  0  0  0
    4.2854   -9.4862   -2.0782 H   0  0  0  0  0  0  0  0  0  0  0  0
    0.0180   -2.8293   -7.0275 H   0  0  0  0  0  0  0  0  0  0  0  0
    2.9477   -3.1328   -3.8603 H   0  0  0  0  0  0  0  0  0  0  0  0
    6.5657   -3.0414   -7.5310 H   0  0  0  0  0  0  0  0  0  0  0  0
    7.0440   -6.9544   -9.2966 H   0  0  0  0  0  0  0  0  0  0  0  0
    7.9866   -7.0284   -2.8952 H   0  0  0  0  0  0  0  0  0  0  0  0
    6.4383  -10.6989   -1.6459 H   0  0  0  0  0  0  0  0  0  0  0  0
   -0.7704   -0.7092   -6.0560 H   0  0  0  0  0  0  0  0  0  0  0  0
    2.2502   -0.9659   -2.9961 H   0  0  0  0  0  0  0  0  0  0  0  0
    6.2237   -2.0531   -9.7554 H   0  0  0  0  0  0  0  0  0  0  0  0
    6.5840   -5.9843  -11.5020 H   0  0  0  0  0  0  0  0  0  0  0  0
   -0.6242    1.2937    0.6514 H   0  0  0  0  0  0  0  0  0  0  0  0
    0.8384    1.4241    1.6069 H   0  0  0  0  0  0  0  0  0  0  0  0
    7.9756    2.1421  -14.9639 H   0  0  0  0  0  0  0  0  0  0  0  0
    8.2106    0.6841  -14.0294 H   0  0  0  0  0  0  0  0  0  0  0  0
    0.6613    3.4245    0.1600 H   0  0  0  0  0  0  0  0  0  0  0  0
    2.0484    2.4634   -0.3149 H   0  0  0  0  0  0  0  0  0  0  0  0
    6.7402    0.8872  -16.7232 H   0  0  0  0  0  0  0  0  0  0  0  0
    5.9644    0.7424  -15.1614 H   0  0  0  0  0  0  0  0  0  0  0  0
   -2.7721    3.6001   -1.3366 H   0  0  0  0  0  0  0  0  0  0  0  0
   -1.4026    3.7727   -0.2718 H   0  0  0  0  0  0  0  0  0  0  0  0
    8.2541   -3.3728  -15.4296 H   0  0  0  0  0  0  0  0  0  0  0  0
    7.6885   -3.7474  -13.8496 H   0  0  0  0  0  0  0  0  0  0  0  0
    0.8807    3.0677   -2.3313 H   0  0  0  0  0  0  0  0  0  0  0  0
    0.8370    1.3650   -2.0043 H   0  0  0  0  0  0  0  0  0  0  0  0
    7.7736   -1.3291  -16.5042 H   0  0  0  0  0  0  0  0  0  0  0  0
    6.0420   -1.3964  -16.3400 H   0  0  0  0  0  0  0  0  0  0  0  0
   -2.6008    1.9479   -3.3444 H   0  0  0  0  0  0  0  0  0  0  0  0
   -1.1847    2.7650   -3.9953 H   0  0  0  0  0  0  0  0  0  0  0  0
    4.9827   -1.8333  -13.9572 H   0  0  0  0  0  0  0  0  0  0  0  0
    5.8363   -0.4479  -13.3419 H   0  0  0  0  0  0  0  0  0  0  0  0
    3.3796   -6.5954   -2.5233 H   0  0  0  0  0  0  0  0  0  0  0  0
    2.0343   -4.2869   -7.2062 H   0  0  0  0  0  0  0  0  0  0  0  0
    7.2473   -6.3614   -6.6815 H   0  0  0  0  0  0  0  0  0  0  0  0
   11.0029   -9.6675   -1.1668 H   0  0  0  0  0  0  0  0  0  0  0  0
   -1.5170    1.4815   -1.2345 H   0  0  0  0  0  0  0  0  0  0  0  0
    8.0395   -1.4087  -13.9796 H   0  0  0  0  0  0  0  0  0  0  0  0
  1 23  1  0  0  0  0
  1 57  1  0  0  0  0
  1 58  1  0  0  0  0
  1 59  1  0  0  0  0
  2 24  1  0  0  0  0
  2 60  1  0  0  0  0
  2 61  1  0  0  0  0
  2 62  1  0  0  0  0
  3 27  1  0  0  0  0
  3 63  1  0  0  0  0
  3 64  1  0  0  0  0
  3 65  1  0  0  0  0
  4 28  1  0  0  0  0
  4 66  1  0  0  0  0
  4 67  1  0  0  0  0
  4 68  1  0  0  0  0
  5 56  1  0  0  0  0
  5 69  1  0  0  0  0
  5 70  1  0  0  0  0
  5 71  1  0  0  0  0
  6 56  1  0  0  0  0
  6 72  1  0  0  0  0
  6 73  1  0  0  0  0
  6 74  1  0  0  0  0
  7 56  1  0  0  0  0
  7 75  1  0  0  0  0
  7 76  1  0  0  0  0
  7 77  1  0  0  0  0
  8 42  2  0  0  0  0
  9 43  2  0  0  0  0
 10 44  2  0  0  0  0
 11 17  2  0  0  0  0
 11 45  1  0  0  0  0
 11 78  1  0  0  0  0
 12 18  1  0  0  0  0
 12 45  2  0  0  0  0
 12 79  1  0  0  0  0
 13 19  2  0  0  0  0
 13 46  1  0  0  0  0
 13 80  1  0  0  0  0
 14 20  1  0  0  0  0
 14 46  2  0  0  0  0
 14 81  1  0  0  0  0
 15 21  1  0  0  0  0
 15 47  2  0  0  0  0
 15 82  1  0  0  0  0
 16 22  2  0  0  0  0
 16 47  1  0  0  0  0
 16 83  1  0  0  0  0
 17 48  1  0  0  0  0
 17 84  1  0  0  0  0
 18 48  2  0  0  0  0
 18 85  1  0  0  0  0
 19 49  1  0  0  0  0
 19 86  1  0  0  0  0
 20 49  2  0  0  0  0
 20 87  1  0  0  0  0
 21 50  2  0  0  0  0
 21 88  1  0  0  0  0
 22 50  1  0  0  0  0
 22 89  1  0  0  0  0
 23 25  1  0  0  0  0
 23 90  1  0  0  0  0
 23 91  1  0  0  0  0
 24 26  1  0  0  0  0
 24 92  1  0  0  0  0
 24 93  1  0  0  0  0
 25 29  1  0  0  0  0
 25 94  1  0  0  0  0
 25 95  1  0  0  0  0
 26 30  1  0  0  0  0
 26 96  1  0  0  0  0
 26 97  1  0  0  0  0
 27 54  1  0  0  0  0
 27 98  1  0  0  0  0
 27 99  1  0  0  0  0
 28 55  1  0  0  0  0
 28100  1  0  0  0  0
 28101  1  0  0  0  0
 29 54  1  0  0  0  0
 29102  1  0  0  0  0
 29103  1  0  0  0  0
 30 55  1  0  0  0  0
 30104  1  0  0  0  0
 30105  1  0  0  0  0
 31 40  1  0  0  0  0
 31 54  1  0  0  0  0
 31106  1  0  0  0  0
 31107  1  0  0  0  0
 32 41  1  0  0  0  0
 32 55  1  0  0  0  0
 32108  1  0  0  0  0
 32109  1  0  0  0  0
 33 51  1  0  0  0  0
 33 52  2  0  0  0  0
 34 51  2  0  0  0  0
 34 53  1  0  0  0  0
 35 52  1  0  0  0  0
 35 53  2  0  0  0  0
 36 45  1  0  0  0  0
 36 51  1  0  0  0  0
 36110  1  0  0  0  0
 37 46  1  0  0  0  0
 37 52  1  0  0  0  0
 37111  1  0  0  0  0
 38 47  1  0  0  0  0
 38 53  1  0  0  0  0
 38112  1  0  0  0  0
 39 42  1  0  0  0  0
 39 56  1  0  0  0  0
 39113  1  0  0  0  0
 40 43  1  0  0  0  0
 41 44  1  0  0  0  0
 42 48  1  0  0  0  0
 43 49  1  0  0  0  0
 44 50  1  0  0  0  0
 54114  1  0  0  0  0
 55115  1  0  0  0  0
M  END
>  <DRUGBANK_ID>
DB15468

>  <COMMON_NAME>
Iscotrizinol

>  <CAS_NUMBER>
154702-15-5

>  <UNII>
2UTZ0QC864

>  <SYNONYMS>
Iscotrizinol

$$$$
