
 OpenBabel10282417233D

 43 43  0  0  0  0  0  0  0  0999 V2000
    0.3829    1.2496   -0.1671 C   0  0  0  0  0  0  0  0  0  0  0  0
    1.0756   -0.0137    0.3258 C   0  0  1  0  0  0  0  0  0  0  0  0
    0.3451   -1.2525   -0.1898 C   0  0  0  0  0  0  0  0  0  0  0  0
   -1.1286   -1.2408    0.1989 C   0  0  0  0  0  0  0  0  0  0  0  0
   -1.8540    0.0247   -0.3150 C   0  0  2  0  0  0  0  0  0  0  0  0
   -1.0865    1.2615    0.2297 C   0  0  2  0  0  0  0  0  0  0  0  0
    2.5277   -0.0152   -0.1274 C   0  0  0  0  0  0  0  0  0  0  0  0
   -3.3570    0.0022    0.0946 C   0  0  0  0  0  0  0  0  0  0  0  0
   -4.1565    1.1586   -0.5105 C   0  0  0  0  0  0  0  0  0  0  0  0
   -4.0816   -1.2686   -0.3593 C   0  0  0  0  0  0  0  0  0  0  0  0
   -1.6034    2.5051   -0.2809 O   0  0  0  0  0  0  0  0  0  0  0  0
   -1.9913    3.5277    0.5236 C   0  0  0  0  0  0  0  0  0  0  0  0
   -2.5764    4.5081    0.0544 O   0  0  0  0  0  0  0  0  0  0  0  0
   -1.7409    3.3924    2.0216 C   0  0  0  0  0  0  0  0  0  0  0  0
   -2.4250    2.3534    2.7126 O   0  0  0  0  0  0  0  0  0  0  0  0
   -3.8440    2.4115    2.6080 C   0  0  0  0  0  0  0  0  0  0  0  0
   -4.4235    3.6293    3.2758 C   0  0  0  0  0  0  0  0  0  0  0  0
    0.8729    2.1392    0.2495 H   0  0  0  0  0  0  0  0  0  0  0  0
    0.4679    1.3448   -1.2577 H   0  0  0  0  0  0  0  0  0  0  0  0
    1.0531   -0.0215    1.4242 H   0  0  0  0  0  0  0  0  0  0  0  0
    0.4191   -1.3039   -1.2832 H   0  0  0  0  0  0  0  0  0  0  0  0
    0.8163   -2.1583    0.2081 H   0  0  0  0  0  0  0  0  0  0  0  0
   -1.2193   -1.2995    1.2926 H   0  0  0  0  0  0  0  0  0  0  0  0
   -1.5794   -2.1503   -0.2073 H   0  0  0  0  0  0  0  0  0  0  0  0
   -1.8140    0.0370   -1.4123 H   0  0  0  0  0  0  0  0  0  0  0  0
   -1.1275    1.2034    1.3152 H   0  0  0  0  0  0  0  0  0  0  0  0
    3.0499    0.8679    0.2546 H   0  0  0  0  0  0  0  0  0  0  0  0
    3.0451   -0.9056    0.2404 H   0  0  0  0  0  0  0  0  0  0  0  0
    2.5951   -0.0037   -1.2205 H   0  0  0  0  0  0  0  0  0  0  0  0
   -3.4110    0.0396    1.1907 H   0  0  0  0  0  0  0  0  0  0  0  0
   -4.1488    1.1283   -1.6011 H   0  0  0  0  0  0  0  0  0  0  0  0
   -5.1894    1.1502   -0.1476 H   0  0  0  0  0  0  0  0  0  0  0  0
   -3.7715    2.1316   -0.2523 H   0  0  0  0  0  0  0  0  0  0  0  0
   -3.6443   -2.1779    0.0555 H   0  0  0  0  0  0  0  0  0  0  0  0
   -5.1271   -1.2452   -0.0316 H   0  0  0  0  0  0  0  0  0  0  0  0
   -4.0695   -1.3383   -1.4521 H   0  0  0  0  0  0  0  0  0  0  0  0
   -0.6630    3.2564    2.1644 H   0  0  0  0  0  0  0  0  0  0  0  0
   -1.9621    4.3513    2.4988 H   0  0  0  0  0  0  0  0  0  0  0  0
   -4.1589    2.4372    1.5750 H   0  0  0  0  0  0  0  0  0  0  0  0
   -4.2527    1.4886    3.0346 H   0  0  0  0  0  0  0  0  0  0  0  0
   -4.0381    4.5423    2.8136 H   0  0  0  0  0  0  0  0  0  0  0  0
   -5.5093    3.6381    3.1606 H   0  0  0  0  0  0  0  0  0  0  0  0
   -4.1480    3.6417    4.3307 H   0  0  0  0  0  0  0  0  0  0  0  0
  1  2  1  0  0  0  0
  1  6  1  0  0  0  0
  1 18  1  0  0  0  0
  1 19  1  0  0  0  0
  2  7  1  0  0  0  0
  2  3  1  0  0  0  0
  2 20  1  1  0  0  0
  3  4  1  0  0  0  0
  3 21  1  0  0  0  0
  3 22  1  0  0  0  0
  4  5  1  0  0  0  0
  4 23  1  0  0  0  0
  4 24  1  0  0  0  0
  5  6  1  0  0  0  0
  5  8  1  0  0  0  0
  5 25  1  6  0  0  0
  6 26  1  1  0  0  0
  6 11  1  0  0  0  0
  7 27  1  0  0  0  0
  7 28  1  0  0  0  0
  7 29  1  0  0  0  0
  8  9  1  0  0  0  0
  8 10  1  0  0  0  0
  8 30  1  0  0  0  0
  9 31  1  0  0  0  0
  9 32  1  0  0  0  0
  9 33  1  0  0  0  0
 10 34  1  0  0  0  0
 10 35  1  0  0  0  0
 10 36  1  0  0  0  0
 11 12  1  0  0  0  0
 12 13  2  0  0  0  0
 12 14  1  0  0  0  0
 14 15  1  0  0  0  0
 14 37  1  0  0  0  0
 14 38  1  0  0  0  0
 15 16  1  0  0  0  0
 16 17  1  0  0  0  0
 16 39  1  0  0  0  0
 16 40  1  0  0  0  0
 17 41  1  0  0  0  0
 17 42  1  0  0  0  0
 17 43  1  0  0  0  0
M  END
>  <DRUGBANK_ID>
DB15983

>  <COMMON_NAME>
Menglytate

>  <CAS_NUMBER>
579-94-2

>  <UNII>
C3B9R0E116

>  <SYNONYMS>
Menglitato; Menglytate; Menglytatum; Menthol ethylglycolate

$$$$
