
 OpenBabel10282417133D

 26 26  0  0  0  0  0  0  0  0999 V2000
    0.8500   -2.5464    0.5081 C   0  0  0  0  0  0  0  0  0  0  0  0
    2.0094   -2.8421    0.2540 O   0  0  0  0  0  0  0  0  0  0  0  0
    0.3366   -1.1764    0.9140 C   0  0  2  0  0  0  0  0  0  0  0  0
    0.9778   -0.0829    0.0338 C   0  0  0  0  0  0  0  0  0  0  0  0
    0.6291   -0.9178    2.3429 N   0  0  0  0  0  0  0  0  0  0  0  0
    0.4347    1.3128    0.2870 C   0  0  0  0  0  0  0  0  0  0  0  0
   -0.7648    1.5072    0.9917 C   0  0  0  0  0  0  0  0  0  0  0  0
    1.1232    2.4422   -0.1792 C   0  0  0  0  0  0  0  0  0  0  0  0
    0.6032    3.7287    0.0688 C   0  0  0  0  0  0  0  0  0  0  0  0
   -0.6006    3.8887    0.7721 C   0  0  0  0  0  0  0  0  0  0  0  0
   -1.2723    2.7730    1.2412 C   0  0  0  0  0  0  0  0  0  0  0  0
   -1.2164    5.0750    1.0569 O   0  0  0  0  0  0  0  0  0  0  0  0
   -0.1156   -3.4877    0.5174 O   0  0  0  0  0  0  0  0  0  0  0  0
    2.4063    4.7129   -1.0151 O   0  5  0  0  0  0  0  0  0  0  0  0
    0.8476    6.0159   -0.1859 O   0  0  0  0  0  0  0  0  0  0  0  0
    1.3406    4.8979   -0.4115 N   0  3  0  0  0  0  0  0  0  0  0  0
   -0.7495   -1.1850    0.7539 H   0  0  0  0  0  0  0  0  0  0  0  0
    2.0647   -0.0789    0.1997 H   0  0  0  0  0  0  0  0  0  0  0  0
    0.8249   -0.3278   -1.0260 H   0  0  0  0  0  0  0  0  0  0  0  0
    0.1615   -1.6000    2.9343 H   0  0  0  0  0  0  0  0  0  0  0  0
    1.6337   -1.0052    2.4978 H   0  0  0  0  0  0  0  0  0  0  0  0
   -1.3298    0.6763    1.4035 H   0  0  0  0  0  0  0  0  0  0  0  0
    2.0618    2.3142   -0.7188 H   0  0  0  0  0  0  0  0  0  0  0  0
   -2.1918    2.8710    1.8113 H   0  0  0  0  0  0  0  0  0  0  0  0
   -0.6966    5.8142    0.6816 H   0  0  0  0  0  0  0  0  0  0  0  0
    0.3451   -4.3183    0.2760 H   0  0  0  0  0  0  0  0  0  0  0  0
  1  2  2  0  0  0  0
  3  5  1  0  0  0  0
  3 17  1  6  0  0  0
  3  4  1  0  0  0  0
  3  1  1  0  0  0  0
  4  6  1  0  0  0  0
  4 18  1  0  0  0  0
  4 19  1  0  0  0  0
  5 20  1  0  0  0  0
  5 21  1  0  0  0  0
  6  7  1  0  0  0  0
  6  8  2  0  0  0  0
  7 11  2  0  0  0  0
  7 22  1  0  0  0  0
  8  9  1  0  0  0  0
  8 23  1  0  0  0  0
  9 10  2  0  0  0  0
  9 16  1  0  0  0  0
 10 11  1  0  0  0  0
 10 12  1  0  0  0  0
 11 24  1  0  0  0  0
 12 25  1  0  0  0  0
 13  1  1  0  0  0  0
 13 26  1  0  0  0  0
 14 16  1  0  0  0  0
 16 15  2  0  0  0  0
M  CHG  2  14  -1  16   1
M  END
>  <DRUGBANK_ID>
DB03867

>  <SECONDARY_ACCESSION_NUMBERS>
EXPT02352

>  <COMMON_NAME>
3-nitro-L-tyrosine

>  <CAS_NUMBER>
621-44-3

>  <UNII>
7COY1HA6HK

>  <SYNONYMS>
(2S)-2-amino-3-(4-hydroxy-3-nitrophenyl)propanoic acid; 3-Nitro-L-tyrosine; L-3-Nitrotyrosine

$$$$
