
 OpenBabel10282417113D

 45 47  0  0  0  0  0  0  0  0999 V2000
   -0.2876    0.6865   -0.0139 C   0  0  0  0  0  0  0  0  0  0  0  0
   -2.3276   -0.4226    0.0310 O   0  0  0  0  0  0  0  0  0  0  0  0
   -0.0433   -0.6765   -0.0105 C   0  0  0  0  0  0  0  0  0  0  0  0
    0.7817    1.5684   -0.0263 C   0  0  0  0  0  0  0  0  0  0  0  0
   -1.3067   -1.4274   -0.0084 C   0  0  0  0  0  0  0  0  0  0  0  0
    1.2317   -1.2114   -0.0080 C   0  0  0  0  0  0  0  0  0  0  0  0
    2.0851    1.0509   -0.0118 C   0  0  0  0  0  0  0  0  0  0  0  0
    2.3112   -0.3357   -0.0060 C   0  0  0  0  0  0  0  0  0  0  0  0
    3.6463   -0.8756   -0.0056 C   0  0  0  0  0  0  0  0  0  0  0  0
    4.6972   -1.3408   -0.0125 N   0  0  0  0  0  0  0  0  0  0  0  0
   -1.7164    2.9466    1.6524 C   0  0  0  0  0  0  0  0  0  0  0  0
   -3.1045    1.0747    2.2894 C   0  0  0  0  0  0  0  0  0  0  0  0
   -2.0451    3.6030    2.8414 C   0  0  0  0  0  0  0  0  0  0  0  0
   -3.5798    1.8261    3.3810 C   0  0  0  0  0  0  0  0  0  0  0  0
   -2.9707    3.0319    3.7004 C   0  0  0  0  0  0  0  0  0  0  0  0
   -3.3150    3.6758    4.8226 F   0  0  0  0  0  0  0  0  0  0  0  0
   -2.1586    1.6265    1.3862 C   0  0  0  0  0  0  0  0  0  0  0  0
   -2.3162    1.7029   -1.2063 C   0  0  0  0  0  0  0  0  0  0  0  0
   -3.6221    1.1553   -1.8300 C   0  0  0  0  0  0  0  0  0  0  0  0
   -4.8130    0.9336   -0.8773 C   0  0  0  0  0  0  0  0  0  0  0  0
   -5.5016    2.1533   -0.3793 N   0  0  0  0  0  0  0  0  0  0  0  0
   -6.4912    1.7439    0.6293 C   0  0  0  0  0  0  0  0  0  0  0  0
   -4.6363    3.0926    0.3093 C   0  0  0  0  0  0  0  0  0  0  0  0
   -1.7761    0.9348    0.0522 C   0  0  1  0  0  0  0  0  0  0  0  0
    0.6289    2.6422   -0.0247 H   0  0  0  0  0  0  0  0  0  0  0  0
   -1.4020   -2.0161   -0.9256 H   0  0  0  0  0  0  0  0  0  0  0  0
   -1.3848   -2.0697    0.8730 H   0  0  0  0  0  0  0  0  0  0  0  0
    1.3679   -2.2892   -0.0014 H   0  0  0  0  0  0  0  0  0  0  0  0
    2.9258    1.7404    0.0023 H   0  0  0  0  0  0  0  0  0  0  0  0
   -1.1890    3.5195    0.8919 H   0  0  0  0  0  0  0  0  0  0  0  0
   -3.6433    0.1646    2.0271 H   0  0  0  0  0  0  0  0  0  0  0  0
   -1.6251    4.5764    3.0726 H   0  0  0  0  0  0  0  0  0  0  0  0
   -4.4791    1.5309    3.9178 H   0  0  0  0  0  0  0  0  0  0  0  0
   -2.4121    2.7666   -1.0014 H   0  0  0  0  0  0  0  0  0  0  0  0
   -1.5633    1.7473   -2.0046 H   0  0  0  0  0  0  0  0  0  0  0  0
   -3.9570    1.8071   -2.6480 H   0  0  0  0  0  0  0  0  0  0  0  0
   -3.3706    0.1983   -2.3114 H   0  0  0  0  0  0  0  0  0  0  0  0
   -5.5584    0.3393   -1.4269 H   0  0  0  0  0  0  0  0  0  0  0  0
   -4.5144    0.2732   -0.0582 H   0  0  0  0  0  0  0  0  0  0  0  0
   -6.0484    1.1379    1.4333 H   0  0  0  0  0  0  0  0  0  0  0  0
   -6.9228    2.6347    1.0993 H   0  0  0  0  0  0  0  0  0  0  0  0
   -7.2972    1.1793    0.1638 H   0  0  0  0  0  0  0  0  0  0  0  0
   -4.2253    2.5447    1.1178 H   0  0  0  0  0  0  0  0  0  0  0  0
   -3.8604    3.5415   -0.2939 H   0  0  0  0  0  0  0  0  0  0  0  0
   -5.1142    3.9350    0.8119 H   0  0  0  0  0  0  0  0  0  0  0  0
  1  3  2  0  0  0  0
  1  4  1  0  0  0  0
  2  5  1  0  0  0  0
  3  6  1  0  0  0  0
  3  5  1  0  0  0  0
  4  7  2  0  0  0  0
  4 25  1  0  0  0  0
  5 26  1  0  0  0  0
  5 27  1  0  0  0  0
  6  8  2  0  0  0  0
  6 28  1  0  0  0  0
  7  8  1  0  0  0  0
  7 29  1  0  0  0  0
  8  9  1  0  0  0  0
  9 10  3  0  0  0  0
 11 13  1  0  0  0  0
 11 30  1  0  0  0  0
 12 14  2  0  0  0  0
 12 31  1  0  0  0  0
 13 15  2  0  0  0  0
 13 32  1  0  0  0  0
 14 15  1  0  0  0  0
 14 33  1  0  0  0  0
 15 16  1  0  0  0  0
 17 11  2  0  0  0  0
 17 12  1  0  0  0  0
 18 19  1  0  0  0  0
 18 34  1  0  0  0  0
 18 35  1  0  0  0  0
 19 20  1  0  0  0  0
 19 36  1  0  0  0  0
 19 37  1  0  0  0  0
 20 21  1  0  0  0  0
 20 38  1  0  0  0  0
 20 39  1  0  0  0  0
 21 22  1  0  0  0  0
 21 23  1  0  0  0  0
 22 40  1  0  0  0  0
 22 41  1  0  0  0  0
 22 42  1  0  0  0  0
 23 43  1  0  0  0  0
 23 44  1  0  0  0  0
 23 45  1  0  0  0  0
 24  1  1  0  0  0  0
 24  2  1  0  0  0  0
 24 18  1  6  0  0  0
 24 17  1  0  0  0  0
M  END
>  <DRUGBANK_ID>
DB01175

>  <SECONDARY_ACCESSION_NUMBERS>
APRD00683

>  <COMMON_NAME>
Escitalopram

>  <CAS_NUMBER>
128196-01-0

>  <UNII>
4O4S742ANY

>  <SYNONYMS>
(+)-Citalopram; (S)-Citalopram; Escitalopram; Escitalopramum; S-(+)-Citalopram; S(+)-Citalopram

$$$$
