
 OpenBabel10282417123D

 19 18  0  0  0  0  0  0  0  0999 V2000
    3.3861    0.5495    0.5987 O   0  0  0  0  0  0  0  0  0  0  0  0
    0.9858    2.2457    2.6230 N   0  0  0  0  0  0  0  0  0  0  0  0
    2.7846    1.3517    1.5561 N   0  0  0  0  0  0  0  0  0  0  0  0
    0.6658    0.7491    0.8368 N   0  0  0  0  0  0  0  0  0  0  0  0
   -0.4452    2.4531    2.8705 C   0  0  0  0  0  0  0  0  0  0  0  0
   -1.1276    3.1388    1.6860 C   0  0  0  0  0  0  0  0  0  0  0  0
   -1.1276    1.1668    3.3383 C   0  0  0  0  0  0  0  0  0  0  0  0
    1.4320    1.4662    1.6927 C   0  0  0  0  0  0  0  0  0  0  0  0
    2.6532    0.1464    0.1175 H   0  0  0  0  0  0  0  0  0  0  0  0
    3.3878    1.8761    2.1819 H   0  0  0  0  0  0  0  0  0  0  0  0
    0.9625    0.1359    0.1050 H   0  0  0  0  0  0  0  0  0  0  0  0
   -0.3352    0.8143    0.9146 H   0  0  0  0  0  0  0  0  0  0  0  0
   -0.5190    3.1573    3.7111 H   0  0  0  0  0  0  0  0  0  0  0  0
   -1.0651    2.5767    0.7528 H   0  0  0  0  0  0  0  0  0  0  0  0
   -2.1905    3.2987    1.8869 H   0  0  0  0  0  0  0  0  0  0  0  0
   -0.6606    4.1098    1.4875 H   0  0  0  0  0  0  0  0  0  0  0  0
   -0.6606    0.8014    4.2596 H   0  0  0  0  0  0  0  0  0  0  0  0
   -2.1905    1.3365    3.5309 H   0  0  0  0  0  0  0  0  0  0  0  0
   -1.0651    0.3464    2.6215 H   0  0  0  0  0  0  0  0  0  0  0  0
  1  3  1  0  0  0  0
  1  9  1  0  0  0  0
  2  5  1  0  0  0  0
  2  8  2  0  0  0  0
  3  8  1  0  0  0  0
  3 10  1  0  0  0  0
  4  8  1  0  0  0  0
  4 11  1  0  0  0  0
  4 12  1  0  0  0  0
  5  6  1  0  0  0  0
  5  7  1  0  0  0  0
  5 13  1  0  0  0  0
  6 14  1  0  0  0  0
  6 15  1  0  0  0  0
  6 16  1  0  0  0  0
  7 17  1  0  0  0  0
  7 18  1  0  0  0  0
  7 19  1  0  0  0  0
M  END
>  <DRUGBANK_ID>
DB02143

>  <SECONDARY_ACCESSION_NUMBERS>
EXPT01853

>  <COMMON_NAME>
1-hydroxy-2-isopropylguanidine

>  <CAS_NUMBER>
478806-77-8

>  <SYNONYMS>
1-hydroxy-2-propan-2-ylguanidine; N-isopropyl-N'-hydroxyguanidine

$$$$
