
 OpenBabel10282417153D

 44 46  0  0  0  0  0  0  0  0999 V2000
    1.1190    0.0922   -0.0708 C   0  0  0  0  0  0  0  0  0  0  0  0
   -0.8463   -0.0365    1.2856 C   0  0  0  0  0  0  0  0  0  0  0  0
    1.1560   -6.9037   -2.4998 C   0  0  0  0  0  0  0  0  0  0  0  0
    4.7328   -4.7967    3.0752 C   0  0  0  0  0  0  0  0  0  0  0  0
    1.9010   -5.7276   -2.4811 C   0  0  0  0  0  0  0  0  0  0  0  0
    0.2292   -7.1570   -1.4921 C   0  0  0  0  0  0  0  0  0  0  0  0
    3.7280   -3.9988    3.6197 C   0  0  0  0  0  0  0  0  0  0  0  0
    4.5140   -5.4372    1.8711 C   0  0  0  0  0  0  0  0  0  0  0  0
    1.7388   -4.8180   -1.4352 C   0  0  0  0  0  0  0  0  0  0  0  0
    0.0709   -6.2550   -0.4416 C   0  0  0  0  0  0  0  0  0  0  0  0
    2.5051   -3.8769    2.9596 C   0  0  0  0  0  0  0  0  0  0  0  0
    3.3226   -5.2413    1.1794 C   0  0  0  0  0  0  0  0  0  0  0  0
   -1.0555   -3.0071    0.7032 C   0  0  0  0  0  0  0  0  0  0  0  0
   -1.2184   -3.9588    1.8525 C   0  0  0  0  0  0  0  0  0  0  0  0
    0.9523   -1.6824    1.5696 C   0  0  0  0  0  0  0  0  0  0  0  0
    0.8728   -5.1052   -0.3553 C   0  0  0  0  0  0  0  0  0  0  0  0
    2.2785   -4.4414    1.6947 C   0  0  0  0  0  0  0  0  0  0  0  0
    0.4561   -2.8108    0.6320 C   0  0  3  0  0  0  0  0  0  0  0  0
    0.9355   -4.2646    0.9570 C   0  0  0  0  0  0  0  0  0  0  0  0
    0.5851   -0.2945    1.2309 N   0  0  0  0  0  0  0  0  0  0  0  0
   -0.0700   -4.7965    1.8678 O   0  0  0  0  0  0  0  0  0  0  0  0
    0.8433    1.1236   -0.3049 H   0  0  0  0  0  0  0  0  0  0  0  0
    0.7371   -0.5380   -0.8802 H   0  0  0  0  0  0  0  0  0  0  0  0
    2.2118    0.0310   -0.0696 H   0  0  0  0  0  0  0  0  0  0  0  0
   -1.3468   -0.4103    0.3866 H   0  0  0  0  0  0  0  0  0  0  0  0
   -1.2921   -0.4812    2.1852 H   0  0  0  0  0  0  0  0  0  0  0  0
   -1.0679    1.0311    1.3192 H   0  0  0  0  0  0  0  0  0  0  0  0
    1.3062   -7.6312   -3.2920 H   0  0  0  0  0  0  0  0  0  0  0  0
    5.6688   -4.9311    3.6034 H   0  0  0  0  0  0  0  0  0  0  0  0
    2.6506   -5.5463   -3.2472 H   0  0  0  0  0  0  0  0  0  0  0  0
   -0.3420   -8.0813   -1.4922 H   0  0  0  0  0  0  0  0  0  0  0  0
    3.8858   -3.4912    4.5639 H   0  0  0  0  0  0  0  0  0  0  0  0
    5.2618   -6.1088    1.4512 H   0  0  0  0  0  0  0  0  0  0  0  0
    2.3889   -3.9441   -1.4022 H   0  0  0  0  0  0  0  0  0  0  0  0
   -0.6491   -6.4879    0.3395 H   0  0  0  0  0  0  0  0  0  0  0  0
    1.7236   -3.3199    3.4727 H   0  0  0  0  0  0  0  0  0  0  0  0
    3.2352   -5.7640    0.2357 H   0  0  0  0  0  0  0  0  0  0  0  0
   -1.4199   -3.4157   -0.2449 H   0  0  0  0  0  0  0  0  0  0  0  0
   -1.6964   -2.1659    0.9175 H   0  0  0  0  0  0  0  0  0  0  0  0
   -1.2518   -3.4151    2.8033 H   0  0  0  0  0  0  0  0  0  0  0  0
   -2.1372   -4.5431    1.7598 H   0  0  0  0  0  0  0  0  0  0  0  0
    2.0499   -1.6995    1.6069 H   0  0  0  0  0  0  0  0  0  0  0  0
    0.6071   -1.8611    2.5934 H   0  0  0  0  0  0  0  0  0  0  0  0
    0.7719   -2.5436   -0.3801 H   0  0  0  0  0  0  0  0  0  0  0  0
  1 22  1  0  0  0  0
  1 23  1  0  0  0  0
  1 24  1  0  0  0  0
  2 25  1  0  0  0  0
  2 26  1  0  0  0  0
  2 27  1  0  0  0  0
  3 28  1  0  0  0  0
  4 29  1  0  0  0  0
  5  3  2  0  0  0  0
  5 30  1  0  0  0  0
  6  3  1  0  0  0  0
  6 31  1  0  0  0  0
  7  4  2  0  0  0  0
  7 32  1  0  0  0  0
  8  4  1  0  0  0  0
  8 33  1  0  0  0  0
  9  5  1  0  0  0  0
  9 34  1  0  0  0  0
 10  6  2  0  0  0  0
 10 35  1  0  0  0  0
 11  7  1  0  0  0  0
 11 36  1  0  0  0  0
 12  8  2  0  0  0  0
 12 37  1  0  0  0  0
 13 38  1  0  0  0  0
 13 39  1  0  0  0  0
 14 13  1  0  0  0  0
 14 40  1  0  0  0  0
 14 41  1  0  0  0  0
 15 42  1  0  0  0  0
 15 43  1  0  0  0  0
 16  9  2  0  0  0  0
 16 10  1  0  0  0  0
 17 11  2  0  0  0  0
 17 12  1  0  0  0  0
 18 13  1  0  0  0  0
 18 15  1  0  0  0  0
 18 44  1  0  0  0  0
 19 16  1  0  0  0  0
 19 17  1  0  0  0  0
 19 18  1  0  0  0  0
 20  1  1  0  0  0  0
 20  2  1  0  0  0  0
 20 15  1  0  0  0  0
 21 14  1  0  0  0  0
 21 19  1  0  0  0  0
M  END
>  <DRUGBANK_ID>
DB05592

>  <COMMON_NAME>
Blarcamesine

>  <CAS_NUMBER>
195615-83-9

>  <UNII>
9T210MMZ3F

>  <SYNONYMS>
Anavex 2-73; ANAVEX 2-73 FREE BASE; ANAVEX2-73; ANAVEX2-73 free base; Blarcamesine; Tetrahydro-N,N-dimethyl-2,2-diphenyl-3-furanemethanamine; THD-DP-FM

$$$$
