
 OpenBabel10282417203D

 35 36  0  0  0  0  0  0  0  0999 V2000
    1.2814    0.0281    0.0489 C   0  0  0  0  0  0  0  0  0  0  0  0
    1.1302    2.3203   -0.8024 C   0  0  0  0  0  0  0  0  0  0  0  0
   -1.5710   -1.1553    0.2938 C   0  0  0  0  0  0  0  0  0  0  0  0
   -4.4309    0.2002    0.3361 C   0  0  0  0  0  0  0  0  0  0  0  0
   -5.9356    5.4582    0.2484 C   0  0  0  0  0  0  0  0  0  0  0  0
   -4.9581    5.3914   -0.7352 C   0  0  0  0  0  0  0  0  0  0  0  0
   -5.9218    4.5161    1.2774 C   0  0  0  0  0  0  0  0  0  0  0  0
   -4.0021    4.3576   -0.7035 C   0  0  0  0  0  0  0  0  0  0  0  0
   -4.9548    3.4869    1.3110 C   0  0  0  0  0  0  0  0  0  0  0  0
    0.5921    1.3704    0.2734 C   0  0  0  0  0  0  0  0  0  0  0  0
   -1.8531    0.3388    0.3260 C   0  0  0  0  0  0  0  0  0  0  0  0
   -4.0291    3.3369    0.2776 C   0  0  0  0  0  0  0  0  0  0  0  0
   -0.9166    1.3195    0.2968 C   0  0  0  0  0  0  0  0  0  0  0  0
   -1.6805    2.6119    0.3002 C   0  0  0  0  0  0  0  0  0  0  0  0
   -3.1554    0.8935    0.4218 N   0  0  0  0  0  0  0  0  0  0  0  0
   -3.0336    2.3143    0.2597 N   0  0  0  0  0  0  0  0  0  0  0  0
   -1.1580    3.7234    0.3620 O   0  0  0  0  0  0  0  0  0  0  0  0
    0.9197   -0.4303   -0.8807 H   0  0  0  0  0  0  0  0  0  0  0  0
    1.1133   -0.6315    0.9053 H   0  0  0  0  0  0  0  0  0  0  0  0
    2.3660    0.1209   -0.0454 H   0  0  0  0  0  0  0  0  0  0  0  0
    0.7658    2.0314   -1.7935 H   0  0  0  0  0  0  0  0  0  0  0  0
    0.8514    3.3606   -0.6261 H   0  0  0  0  0  0  0  0  0  0  0  0
    2.2245    2.3038   -0.8150 H   0  0  0  0  0  0  0  0  0  0  0  0
   -1.8901   -1.6654    1.2067 H   0  0  0  0  0  0  0  0  0  0  0  0
   -1.9887   -1.6481   -0.5898 H   0  0  0  0  0  0  0  0  0  0  0  0
   -0.5181   -1.4167    0.2258 H   0  0  0  0  0  0  0  0  0  0  0  0
   -5.0480    0.4228    1.2132 H   0  0  0  0  0  0  0  0  0  0  0  0
   -4.9993    0.4580   -0.5643 H   0  0  0  0  0  0  0  0  0  0  0  0
   -4.3022   -0.8914    0.3271 H   0  0  0  0  0  0  0  0  0  0  0  0
   -6.6795    6.2544    0.2312 H   0  0  0  0  0  0  0  0  0  0  0  0
   -4.9401    6.1401   -1.5265 H   0  0  0  0  0  0  0  0  0  0  0  0
   -6.6643    4.5927    2.0688 H   0  0  0  0  0  0  0  0  0  0  0  0
   -3.2283    4.3669   -1.4693 H   0  0  0  0  0  0  0  0  0  0  0  0
   -4.8729    2.8790    2.2062 H   0  0  0  0  0  0  0  0  0  0  0  0
    0.9179    1.7410    1.2552 H   0  0  0  0  0  0  0  0  0  0  0  0
  1 18  1  0  0  0  0
  1 19  1  0  0  0  0
  1 20  1  0  0  0  0
  2 21  1  0  0  0  0
  2 22  1  0  0  0  0
  2 23  1  0  0  0  0
  3 24  1  0  0  0  0
  3 25  1  0  0  0  0
  3 26  1  0  0  0  0
  4 27  1  0  0  0  0
  4 28  1  0  0  0  0
  4 29  1  0  0  0  0
  5 30  1  0  0  0  0
  6  5  2  0  0  0  0
  6 31  1  0  0  0  0
  7  5  1  0  0  0  0
  7 32  1  0  0  0  0
  8  6  1  0  0  0  0
  8 33  1  0  0  0  0
  9  7  2  0  0  0  0
  9 34  1  0  0  0  0
 10  1  1  0  0  0  0
 10  2  1  0  0  0  0
 10 35  1  0  0  0  0
 11  3  1  0  0  0  0
 12  8  2  0  0  0  0
 12  9  1  0  0  0  0
 13 10  1  0  0  0  0
 13 11  2  0  0  0  0
 14 13  1  0  0  0  0
 15  4  1  0  0  0  0
 15 11  1  0  0  0  0
 16 12  1  0  0  0  0
 16 14  1  0  0  0  0
 16 15  1  0  0  0  0
 17 14  2  0  0  0  0
M  END
>  <DRUGBANK_ID>
DB13524

>  <COMMON_NAME>
Propyphenazone

>  <CAS_NUMBER>
479-92-5

>  <UNII>
OED8FV75PY

>  <SYNONYMS>
1-Phenyl-2,3-dimethyl-4-isopropyl-3-pyrazolin-5-one; 1-Phenyl-2,3-dimethyl-4-isopropylpyrazol-5-one; 4-Isopropyl-1,5-dimethyl-2-phenyl-1,2-dihydro-pyrazol-3-one; 4-Isopropylantipyrine; Isopropylantipyrine; Isopropylphenazone; Propifenazona; Propyphenazone; Propyphenazonum

$$$$
