
 OpenBabel10282417213D

 23 22  0  0  0  0  0  0  0  0999 V2000
   -1.2669    2.4964    0.7148 O   0  0  0  0  0  0  0  0  0  0  0  0
   -2.0296    1.3660    0.7268 C   0  0  0  0  0  0  0  0  0  0  0  0
    0.6819    0.2341   -0.4324 C   0  0  0  0  0  0  0  0  0  0  0  0
    0.2623    0.3643    1.0468 C   0  0  0  0  0  0  0  0  0  0  0  0
   -1.2337    0.2429    1.3640 C   0  0  2  0  0  0  0  0  0  0  0  0
    0.5501    2.9227   -1.0521 N   0  0  0  0  0  0  0  0  0  0  0  0
    0.2648    1.5324   -1.6782 S   0  0  3  0  0  0  0  0  0  0  0  0
   -1.7569   -1.0835    0.9903 N   0  0  0  0  0  0  0  0  0  0  0  0
   -3.1225    1.2485    0.2368 O   0  0  0  0  0  0  0  0  0  0  0  0
    0.9103    1.0786   -2.8968 O   0  0  0  0  0  0  0  0  0  0  0  0
   -1.5248    1.5862   -2.0992 C   0  0  0  0  0  0  0  0  0  0  0  0
   -1.2995    3.0607   -0.0971 H   0  0  0  0  0  0  0  0  0  0  0  0
    1.7873    0.2099   -0.4255 H   0  0  0  0  0  0  0  0  0  0  0  0
    0.3835   -0.7316   -0.8499 H   0  0  0  0  0  0  0  0  0  0  0  0
    0.6635    1.2931    1.4716 H   0  0  0  0  0  0  0  0  0  0  0  0
    0.7653   -0.4282    1.6254 H   0  0  0  0  0  0  0  0  0  0  0  0
   -1.4122    0.3971    2.4324 H   0  0  0  0  0  0  0  0  0  0  0  0
    0.7706    2.9116   -0.0503 H   0  0  0  0  0  0  0  0  0  0  0  0
   -2.7804   -1.0296    0.9647 H   0  0  0  0  0  0  0  0  0  0  0  0
   -1.4851   -1.3639    0.0513 H   0  0  0  0  0  0  0  0  0  0  0  0
   -1.9399    0.5810   -2.1326 H   0  0  0  0  0  0  0  0  0  0  0  0
   -2.1287    2.2022   -1.4421 H   0  0  0  0  0  0  0  0  0  0  0  0
   -1.6728    2.1332   -3.0327 H   0  0  0  0  0  0  0  0  0  0  0  0
  1 12  1  0  0  0  0
  2  1  1  0  0  0  0
  2  9  2  0  0  0  0
  3  4  1  0  0  0  0
  3 13  1  0  0  0  0
  3 14  1  0  0  0  0
  4 15  1  0  0  0  0
  4 16  1  0  0  0  0
  5  8  1  0  0  0  0
  5 17  1  1  0  0  0
  5  4  1  0  0  0  0
  5  2  1  0  0  0  0
  6 18  1  0  0  0  0
  7  6  2  0  0  0  0
  7  3  1  0  0  0  0
  7 10  2  0  0  0  0
  7 11  1  0  0  0  0
  8 19  1  0  0  0  0
  8 20  1  0  0  0  0
 11 21  1  0  0  0  0
 11 22  1  0  0  0  0
 11 23  1  0  0  0  0
M  END
>  <DRUGBANK_ID>
DB14103

>  <COMMON_NAME>
Methionine sulfoximine

>  <CAS_NUMBER>
15985-39-4

>  <UNII>
M9P6YZ6JX9

>  <SYNONYMS>
(2S)-2-Amino-4-(S-methylsufonimidoyl)butanoic acid; BUTANOIC ACID, 2-AMINO-4-(S-METHYLSULFONIMIDOYL)-, (2S)-; L-methionine sulfoximine; L-Methionine-S,R-sulfoximine; METHIONINE-DL-SULFOXIMINE; METHIONINE-DL-SULFOXIMINE, L-

$$$$
