
 OpenBabel10282417233D

 71 77  0  0  0  0  0  0  0  0999 V2000
    0.9966    0.1796    0.0723 C   0  0  0  0  0  0  0  0  0  0  0  0
    0.6532   -0.6678   -1.0767 N   0  0  0  0  0  0  0  0  0  0  0  0
   -0.4092   -1.6390   -0.7802 C   0  0  0  0  0  0  0  0  0  0  0  0
   -0.0138   -2.6514    0.3249 C   0  0  0  0  0  0  0  0  0  0  0  0
    1.3368   -3.3807    0.0233 C   0  0  0  0  0  0  0  0  0  0  0  0
    1.1101   -4.3856   -1.1428 C   0  0  0  0  0  0  0  0  0  0  0  0
    1.4310   -5.7345   -0.7628 O   0  0  0  0  0  0  0  0  0  0  0  0
    1.7423   -5.6738    0.5614 C   0  0  0  0  0  0  0  0  0  0  0  0
    2.0741   -6.8290    1.2746 C   0  0  0  0  0  0  0  0  0  0  0  0
    2.4504   -6.7034    2.5906 C   0  0  0  0  0  0  0  0  0  0  0  0
    2.6522   -5.4243    3.0887 C   0  0  0  0  0  0  0  0  0  0  0  0
    2.2196   -4.2616    2.3807 C   0  0  0  0  0  0  0  0  0  0  0  0
    1.7511   -4.3894    1.0825 C   0  0  0  0  0  0  0  0  0  0  0  0
    3.6868   -5.5072    4.1008 N   0  0  0  0  0  0  0  0  0  0  0  0
    4.2375   -6.9275    3.9498 C   0  0  0  0  0  0  0  0  0  0  0  0
    3.0330   -7.7369    3.4987 C   0  0  0  0  0  0  0  0  0  0  0  0
    4.5937   -4.4605    3.9467 C   0  0  0  0  0  0  0  0  0  0  0  0
    5.3162   -4.3086    2.9898 O   0  0  0  0  0  0  0  0  0  0  0  0
    4.5093   -3.4032    4.9665 C   0  0  0  0  0  0  0  0  0  0  0  0
    5.6081   -3.2227    5.7927 C   0  0  0  0  0  0  0  0  0  0  0  0
    5.5967   -2.1669    6.6974 C   0  0  0  0  0  0  0  0  0  0  0  0
    4.5628   -1.2187    6.6796 C   0  0  0  0  0  0  0  0  0  0  0  0
    3.5350   -1.3517    5.7460 C   0  0  0  0  0  0  0  0  0  0  0  0
    3.4464   -2.5020    4.9901 C   0  0  0  0  0  0  0  0  0  0  0  0
    4.5161   -0.1273    7.6493 C   0  0  0  0  0  0  0  0  0  0  0  0
    3.4270    0.0215    8.5414 C   0  0  0  0  0  0  0  0  0  0  0  0
    2.2590   -0.9354    8.5352 C   0  0  0  0  0  0  0  0  0  0  0  0
    3.4168    1.1065    9.4280 C   0  0  0  0  0  0  0  0  0  0  0  0
    4.3887    2.1098    9.3321 C   0  0  0  0  0  0  0  0  0  0  0  0
    5.4669    1.9520    8.4596 C   0  0  0  0  0  0  0  0  0  0  0  0
    5.5616    0.8075    7.6741 C   0  0  0  0  0  0  0  0  0  0  0  0
    4.2379    3.3315   10.0929 C   0  0  0  0  0  0  0  0  0  0  0  0
    4.0519    4.5314    9.5189 N   0  0  0  0  0  0  0  0  0  0  0  0
    3.8834    5.3879   10.6063 O   0  0  0  0  0  0  0  0  0  0  0  0
    3.9999    4.6157   11.7234 C   0  0  0  0  0  0  0  0  0  0  0  0
    3.8533    5.2967   13.0195 C   0  0  0  0  0  0  0  0  0  0  0  0
    4.2089    3.3459   11.4653 N   0  0  0  0  0  0  0  0  0  0  0  0
    2.4020   -2.3376   -0.4600 C   0  0  0  0  0  0  0  0  0  0  0  0
    1.8365   -1.3905   -1.5522 C   0  0  0  0  0  0  0  0  0  0  0  0
    0.7373   -0.2658    1.0352 H   0  0  0  0  0  0  0  0  0  0  0  0
    0.4990    1.1497    0.0110 H   0  0  0  0  0  0  0  0  0  0  0  0
    2.0739    0.3835    0.1117 H   0  0  0  0  0  0  0  0  0  0  0  0
   -1.3397   -1.1131   -0.5300 H   0  0  0  0  0  0  0  0  0  0  0  0
   -0.6494   -2.1839   -1.7062 H   0  0  0  0  0  0  0  0  0  0  0  0
    0.0280   -2.1392    1.2935 H   0  0  0  0  0  0  0  0  0  0  0  0
   -0.8296   -3.3770    0.4356 H   0  0  0  0  0  0  0  0  0  0  0  0
    0.0691   -4.3938   -1.4753 H   0  0  0  0  0  0  0  0  0  0  0  0
    1.7313   -4.1505   -2.0120 H   0  0  0  0  0  0  0  0  0  0  0  0
    2.1529   -7.7826    0.7737 H   0  0  0  0  0  0  0  0  0  0  0  0
    2.3651   -3.2590    2.7372 H   0  0  0  0  0  0  0  0  0  0  0  0
    4.6801   -7.3438    4.8677 H   0  0  0  0  0  0  0  0  0  0  0  0
    5.0363   -6.9408    3.1888 H   0  0  0  0  0  0  0  0  0  0  0  0
    2.3789   -7.9085    4.3649 H   0  0  0  0  0  0  0  0  0  0  0  0
    3.2509   -8.6934    3.0179 H   0  0  0  0  0  0  0  0  0  0  0  0
    6.4515   -3.9032    5.7400 H   0  0  0  0  0  0  0  0  0  0  0  0
    6.4040   -2.0779    7.4173 H   0  0  0  0  0  0  0  0  0  0  0  0
    2.7628   -0.5914    5.6376 H   0  0  0  0  0  0  0  0  0  0  0  0
    2.5320   -2.6357    4.4398 H   0  0  0  0  0  0  0  0  0  0  0  0
    1.7242   -0.8832    7.5810 H   0  0  0  0  0  0  0  0  0  0  0  0
    2.5958   -1.9629    8.7042 H   0  0  0  0  0  0  0  0  0  0  0  0
    1.5214   -0.6861    9.3027 H   0  0  0  0  0  0  0  0  0  0  0  0
    2.6234    1.1963   10.1672 H   0  0  0  0  0  0  0  0  0  0  0  0
    6.2335    2.7181    8.3796 H   0  0  0  0  0  0  0  0  0  0  0  0
    6.4360    0.6658    7.0416 H   0  0  0  0  0  0  0  0  0  0  0  0
    4.5763    6.1118   13.1158 H   0  0  0  0  0  0  0  0  0  0  0  0
    2.8455    5.7093   13.1214 H   0  0  0  0  0  0  0  0  0  0  0  0
    4.0195    4.5926   13.8400 H   0  0  0  0  0  0  0  0  0  0  0  0
    2.7739   -1.7404    0.3822 H   0  0  0  0  0  0  0  0  0  0  0  0
    3.2894   -2.8320   -0.8736 H   0  0  0  0  0  0  0  0  0  0  0  0
    1.5728   -1.9436   -2.4656 H   0  0  0  0  0  0  0  0  0  0  0  0
    2.5856   -0.6616   -1.8914 H   0  0  0  0  0  0  0  0  0  0  0  0
  1  2  1  0  0  0  0
  1 40  1  0  0  0  0
  1 41  1  0  0  0  0
  1 42  1  0  0  0  0
  2  3  1  0  0  0  0
  2 39  1  0  0  0  0
  3  4  1  0  0  0  0
  3 43  1  0  0  0  0
  3 44  1  0  0  0  0
  4  5  1  0  0  0  0
  4 45  1  0  0  0  0
  4 46  1  0  0  0  0
  5  6  1  0  0  0  0
  5 13  1  0  0  0  0
  5 38  1  0  0  0  0
  6  7  1  0  0  0  0
  6 47  1  0  0  0  0
  6 48  1  0  0  0  0
  7  8  1  0  0  0  0
  8  9  2  0  0  0  0
  8 13  1  0  0  0  0
  9 10  1  0  0  0  0
  9 49  1  0  0  0  0
 10 11  2  0  0  0  0
 10 16  1  0  0  0  0
 11 12  1  0  0  0  0
 11 14  1  0  0  0  0
 12 13  2  0  0  0  0
 12 50  1  0  0  0  0
 14 15  1  0  0  0  0
 14 17  1  0  0  0  0
 15 16  1  0  0  0  0
 15 51  1  0  0  0  0
 15 52  1  0  0  0  0
 16 53  1  0  0  0  0
 16 54  1  0  0  0  0
 17 18  2  0  0  0  0
 17 19  1  0  0  0  0
 19 20  2  0  0  0  0
 19 24  1  0  0  0  0
 20 21  1  0  0  0  0
 20 55  1  0  0  0  0
 21 22  2  0  0  0  0
 21 56  1  0  0  0  0
 22 23  1  0  0  0  0
 22 25  1  0  0  0  0
 23 24  2  0  0  0  0
 23 57  1  0  0  0  0
 24 58  1  0  0  0  0
 25 26  2  0  0  0  0
 25 31  1  0  0  0  0
 26 27  1  0  0  0  0
 26 28  1  0  0  0  0
 27 59  1  0  0  0  0
 27 60  1  0  0  0  0
 27 61  1  0  0  0  0
 28 29  2  0  0  0  0
 28 62  1  0  0  0  0
 29 30  1  0  0  0  0
 29 32  1  0  0  0  0
 30 31  2  0  0  0  0
 30 63  1  0  0  0  0
 31 64  1  0  0  0  0
 32 33  2  0  0  0  0
 32 37  1  0  0  0  0
 33 34  1  0  0  0  0
 34 35  1  0  0  0  0
 35 36  1  0  0  0  0
 35 37  2  0  0  0  0
 36 65  1  0  0  0  0
 36 66  1  0  0  0  0
 36 67  1  0  0  0  0
 38 39  1  0  0  0  0
 38 68  1  0  0  0  0
 38 69  1  0  0  0  0
 39 70  1  0  0  0  0
 39 71  1  0  0  0  0
M  END
>  <DRUGBANK_ID>
DB17052

>  <COMMON_NAME>
SB 224289

>  <CAS_NUMBER>
180083-23-2

>  <UNII>
F95C648W4N

>  <SYNONYMS>
(1'-methyl-6,7-dihydro-5h-spiro(furo(2,3-f)indole-3,4'-piperidin)-5-yl)(2'-methyl-4'-(5-methyl-1,2,4-oxadiazol-3-yl)biphenyl-4-yl)methanone; (2'-methyl-4'-(5-methyl-1,2,4-oxadiazol-3-yl)-(1,1'-biphenyl)-4-yl)(1'-methyl-6,7-dihydrospiro(furo(2,3-f)indole-3,4'-piperidin)-5(2h)-yl)methanone; (4-(2-methyl-4-(5-methyl-1,2,4-oxadiazol-3-yl)phenyl)phenyl)-(1'-methylspiro(6,7-dihydro-2h-furo(2,3-f)indole-3,4'-piperidine)-5-yl)methanone; 6,7-dihydro-1'-methyl-5-((2'-methyl-4'-(5-methyl-1,2,4-oxadiazol-3-yl)-1,1'-biphenyl-4-yl)carbonyl)spiro(2h-furo(2,3-f)indole-3(5h),4'-piperidine); Methanone, (2'-methyl-4'-(5-methyl-1,2,4-oxadiazol-3-yl)(1,1'-biphenyl)-4-yl)(2,5,6,7-tetrahydro-1'-methylspiro(3h-furo(2,3-f)indole-3,4'-piperidin)-5-yl)-; Spiro(2h-furo(2,3-f)indole-3(5h),4'-piperidine), 6,7-dihydro-1'-methyl-5-((2'-methyl-4'-(5-methyl-1,2,4-oxadiazol-3-yl)(1,1'-biphenyl)-4-yl)carbonyl)-

$$$$
