749
 OpenBabel10282417113D

 42 44  0  0  1  0  0  0  0  0999 V2000
   -3.2945    0.2098   -0.4888 O   0  0  0  0  0  0  0  0  0  0  0  0
   -1.8387    0.3133    3.5357 O   0  0  0  0  0  0  0  0  0  0  0  0
   -3.7414   -0.5783    2.8072 O   0  0  0  0  0  0  0  0  0  0  0  0
   -0.0051    1.6266    0.0782 N   0  0  0  0  0  0  0  0  0  0  0  0
   -2.5407    1.2271    0.2135 C   0  0  3  0  0  0  0  0  0  0  0  0
   -1.1075    0.8171    0.1188 C   0  0  0  0  0  0  0  0  0  0  0  0
   -0.6789   -0.4841    0.0473 C   0  0  0  0  0  0  0  0  0  0  0  0
   -1.6280   -1.6185    0.0084 C   0  0  0  0  0  0  0  0  0  0  0  0
   -2.7652    2.5488   -0.5920 C   0  0  0  0  0  0  0  0  0  0  0  0
   -2.9623    1.4347    1.6919 C   0  0  0  0  0  0  0  0  0  0  0  0
    0.7331   -0.4787    0.0113 C   0  0  0  0  0  0  0  0  0  0  0  0
   -3.0900   -1.1510   -0.0737 C   0  0  0  0  0  0  0  0  0  0  0  0
    1.1409    0.8571    0.0208 C   0  0  0  0  0  0  0  0  0  0  0  0
    2.4925    1.2392   -0.0278 C   0  0  0  0  0  0  0  0  0  0  0  0
   -4.2187    3.0100   -0.6209 C   0  0  0  0  0  0  0  0  0  0  0  0
    1.6973   -1.4978   -0.0342 C   0  0  0  0  0  0  0  0  0  0  0  0
   -2.8764    0.2863    2.6798 C   0  0  0  0  0  0  0  0  0  0  0  0
    2.9592    2.6711   -0.0086 C   0  0  0  0  0  0  0  0  0  0  0  0
    3.4292    0.1858   -0.0857 C   0  0  0  0  0  0  0  0  0  0  0  0
    3.0449   -1.1528   -0.0797 C   0  0  0  0  0  0  0  0  0  0  0  0
    3.8223    2.9579    1.2103 C   0  0  0  0  0  0  0  0  0  0  0  0
   -1.3150    1.1325    3.5432 H   0  0  0  0  0  0  0  0  0  0  0  0
   -0.0071    2.6374    0.0737 H   0  0  0  0  0  0  0  0  0  0  0  0
   -1.4919   -2.2312    0.9077 H   0  0  0  0  0  0  0  0  0  0  0  0
   -1.4030   -2.2501   -0.8565 H   0  0  0  0  0  0  0  0  0  0  0  0
   -2.1561    3.3626   -0.1768 H   0  0  0  0  0  0  0  0  0  0  0  0
   -2.4394    2.4200   -1.6353 H   0  0  0  0  0  0  0  0  0  0  0  0
   -2.3960    2.2770    2.1091 H   0  0  0  0  0  0  0  0  0  0  0  0
   -4.0164    1.7257    1.7317 H   0  0  0  0  0  0  0  0  0  0  0  0
   -3.5840   -1.3062    0.8732 H   0  0  0  0  0  0  0  0  0  0  0  0
   -3.6586   -1.8158   -0.7335 H   0  0  0  0  0  0  0  0  0  0  0  0
   -4.5873    3.2241    0.3851 H   0  0  0  0  0  0  0  0  0  0  0  0
   -4.3179    3.9350   -1.1973 H   0  0  0  0  0  0  0  0  0  0  0  0
   -4.8621    2.2516   -1.0751 H   0  0  0  0  0  0  0  0  0  0  0  0
    1.3932   -2.5396   -0.0341 H   0  0  0  0  0  0  0  0  0  0  0  0
    3.5133    2.8809   -0.9306 H   0  0  0  0  0  0  0  0  0  0  0  0
    2.1022    3.3541    0.0022 H   0  0  0  0  0  0  0  0  0  0  0  0
    4.4927    0.4133   -0.1274 H   0  0  0  0  0  0  0  0  0  0  0  0
    3.7974   -1.9355   -0.1127 H   0  0  0  0  0  0  0  0  0  0  0  0
    4.7261    2.3401    1.2147 H   0  0  0  0  0  0  0  0  0  0  0  0
    4.1335    4.0059    1.2183 H   0  0  0  0  0  0  0  0  0  0  0  0
    3.2721    2.7515    2.1349 H   0  0  0  0  0  0  0  0  0  0  0  0
  1  5  1  0  0  0  0
  1 12  1  0  0  0  0
  2 17  1  0  0  0  0
  2 22  1  0  0  0  0
  3 17  2  0  0  0  0
  4  6  1  0  0  0  0
  4 13  1  0  0  0  0
  4 23  1  0  0  0  0
  5  6  1  0  0  0  0
  5  9  1  0  0  0  0
  5 10  1  0  0  0  0
  6  7  2  0  0  0  0
  7  8  1  0  0  0  0
  7 11  1  0  0  0  0
  8 12  1  0  0  0  0
  8 24  1  0  0  0  0
  8 25  1  0  0  0  0
  9 15  1  0  0  0  0
  9 26  1  0  0  0  0
  9 27  1  0  0  0  0
 10 17  1  0  0  0  0
 10 28  1  0  0  0  0
 10 29  1  0  0  0  0
 11 13  1  0  0  0  0
 11 16  2  0  0  0  0
 12 30  1  0  0  0  0
 12 31  1  0  0  0  0
 13 14  2  0  0  0  0
 14 18  1  0  0  0  0
 14 19  1  0  0  0  0
 15 32  1  0  0  0  0
 15 33  1  0  0  0  0
 15 34  1  0  0  0  0
 16 20  1  0  0  0  0
 16 35  1  0  0  0  0
 18 21  1  0  0  0  0
 18 36  1  0  0  0  0
 18 37  1  0  0  0  0
 19 20  2  0  0  0  0
 19 38  1  0  0  0  0
 20 39  1  0  0  0  0
 21 40  1  0  0  0  0
 21 41  1  0  0  0  0
 21 42  1  0  0  0  0
M  END
>  <DRUGBANK_ID>
DB00749

>  <SECONDARY_ACCESSION_NUMBERS>
APRD00067

>  <COMMON_NAME>
Etodolac

>  <CAS_NUMBER>
41340-25-4

>  <UNII>
2M36281008

>  <SYNONYMS>
(±)-1,8-diethyl-1,3,4,9-tetrahydropyrano(3,4-b)indole-1-acetic acid; (1,8-Diethyl-1,3,4,9-tetrahydro-pyrano[3,4-b]indol-1-yl)-acetic acid; 1,3,4,9-tetrahydro-1,8-diethylpyrano(3,4-b)indole-1-acetic acid; 1,8-diethyl-1,3,4,9-tetrahydropyrano(3,4-b)indole-1-acetic acid; 1,8-diethyl-1,3,4,9-tetrahydropyrano[3,4-b]indol-1-ylacetic acid; Étodolac; Etodolac; Etodolaco; Etodolacum; Etodolic acid; Etodolsäure

$$$$
