147
 OpenBabel10282417103D

 21 21  0  0  0  0  0  0  0  0999 V2000
   -1.9458    1.0588   -0.0055 O   0  0  0  0  0  0  0  0  0  0  0  0
    3.7638    1.4103    1.2625 O   0  0  0  0  0  0  0  0  0  0  0  0
    1.1176    3.8516    0.0128 O   0  0  0  0  0  0  0  0  0  0  0  0
    0.8288   -1.2587   -0.0179 N   0  0  0  0  0  0  0  0  0  0  0  0
    1.7714    0.9851    0.0275 C   0  0  0  0  0  0  0  0  0  0  0  0
    0.4716    1.5257    0.0097 C   0  0  0  0  0  0  0  0  0  0  0  0
   -0.6372    0.6551   -0.0023 C   0  0  0  0  0  0  0  0  0  0  0  0
   -0.4143   -0.7266   -0.0058 C   0  0  0  0  0  0  0  0  0  0  0  0
    3.0525    1.7667    0.0815 C   0  0  0  0  0  0  0  0  0  0  0  0
    1.8757   -0.4068   -0.0025 C   0  0  0  0  0  0  0  0  0  0  0  0
   -1.5402   -1.7229    0.0127 C   0  0  0  0  0  0  0  0  0  0  0  0
    0.2396    2.9980    0.0050 C   0  0  0  0  0  0  0  0  0  0  0  0
   -2.0636    2.0170   -0.0225 H   0  0  0  0  0  0  0  0  0  0  0  0
    3.2127    1.6977    2.0121 H   0  0  0  0  0  0  0  0  0  0  0  0
    3.6706    1.5321   -0.7914 H   0  0  0  0  0  0  0  0  0  0  0  0
    2.9513    2.8455    0.0955 H   0  0  0  0  0  0  0  0  0  0  0  0
    2.8494   -0.8973   -0.0046 H   0  0  0  0  0  0  0  0  0  0  0  0
   -1.4881   -2.3605   -0.8755 H   0  0  0  0  0  0  0  0  0  0  0  0
   -1.4606   -2.3549    0.9035 H   0  0  0  0  0  0  0  0  0  0  0  0
   -2.5273   -1.2530    0.0286 H   0  0  0  0  0  0  0  0  0  0  0  0
   -0.7980    3.3475   -0.0095 H   0  0  0  0  0  0  0  0  0  0  0  0
  1  7  1  0  0  0  0
  1 13  1  0  0  0  0
  2  9  1  0  0  0  0
  2 14  1  0  0  0  0
  3 12  2  0  0  0  0
  4  8  2  0  0  0  0
  4 10  1  0  0  0  0
  5  6  1  0  0  0  0
  5  9  1  0  0  0  0
  5 10  2  0  0  0  0
  6  7  2  0  0  0  0
  6 12  1  0  0  0  0
  7  8  1  0  0  0  0
  8 11  1  0  0  0  0
  9 15  1  0  0  0  0
  9 16  1  0  0  0  0
 10 17  1  0  0  0  0
 11 18  1  0  0  0  0
 11 19  1  0  0  0  0
 11 20  1  0  0  0  0
 12 21  1  0  0  0  0
M  END
>  <DRUGBANK_ID>
DB00147

>  <SECONDARY_ACCESSION_NUMBERS>
NUTR00049

>  <COMMON_NAME>
Pyridoxal

>  <CAS_NUMBER>
66-72-8

>  <UNII>
3THM379K8A

>  <SYNONYMS>
2-methyl-3-hydroxy-4-formyl-5-hydroxymethylpyridine; 3-hydroxy-5-(hydroxymethyl)-2-methyl-4-pyridinecarboxaldehyde; 3-hydroxy-5-(hydroxymethyl)-2-methylisonicotinaldehyde; 3-hydroxy-5-(hydroxymethyl)-2-methylpyridine-4-carboxaldehyde; Piridoxal; Pyridoxaldehyde

$$$$
