
 OpenBabel10282417183D

 70 73  0  0  0  0  0  0  0  0999 V2000
   -0.1430   -1.4689    0.0833 C   0  0  0  0  0  0  0  0  0  0  0  0
    1.0514   -0.8495    0.3173 C   0  0  0  0  0  0  0  0  0  0  0  0
    1.1441    0.4545    0.5953 N   0  0  0  0  0  0  0  0  0  0  0  0
    0.0306    1.2024    0.4695 C   0  0  0  0  0  0  0  0  0  0  0  0
   -1.1885    0.6945    0.2247 N   0  0  0  0  0  0  0  0  0  0  0  0
   -1.2538   -0.6487    0.0850 C   0  0  0  0  0  0  0  0  0  0  0  0
   -2.5747   -1.2435   -0.0448 C   0  0  0  0  0  0  0  0  0  0  0  0
    0.2083    2.5741    0.3431 N   0  0  0  0  0  0  0  0  0  0  0  0
    1.4283    3.2223    0.0824 C   0  0  0  0  0  0  0  0  0  0  0  0
   -3.0634   -2.1382    0.8905 C   0  0  0  0  0  0  0  0  0  0  0  0
   -4.3239   -2.5121    0.5112 N   0  0  0  0  0  0  0  0  0  0  0  0
   -4.6590   -1.9133   -0.6846 C   0  0  0  0  0  0  0  0  0  0  0  0
   -3.5785   -1.0999   -1.0528 C   0  0  0  0  0  0  0  0  0  0  0  0
   -5.8258   -2.0102   -1.4606 C   0  0  0  0  0  0  0  0  0  0  0  0
   -5.8974   -1.2586   -2.6352 C   0  0  0  0  0  0  0  0  0  0  0  0
   -4.8382   -0.4459   -3.0278 C   0  0  0  0  0  0  0  0  0  0  0  0
   -3.6749   -0.3625   -2.2520 C   0  0  0  0  0  0  0  0  0  0  0  0
    2.2424    3.1062   -1.0421 C   0  0  0  0  0  0  0  0  0  0  0  0
    3.4252    3.8869   -1.0909 C   0  0  0  0  0  0  0  0  0  0  0  0
    3.7860    4.8883   -0.1356 C   0  0  0  0  0  0  0  0  0  0  0  0
    2.8426    5.0813    0.9026 C   0  0  0  0  0  0  0  0  0  0  0  0
    1.7759    4.1826    1.0349 C   0  0  0  0  0  0  0  0  0  0  0  0
    2.8592    6.2265    1.7520 N   0  0  0  0  0  0  0  0  0  0  0  0
    2.0835    2.3299   -2.1674 O   0  0  0  0  0  0  0  0  0  0  0  0
    0.9008    1.5653   -2.3163 C   0  0  0  0  0  0  0  0  0  0  0  0
    4.9924    5.6060   -0.2788 N   0  0  0  0  0  0  0  0  0  0  0  0
    5.6682    6.3468    0.8455 C   0  0  0  0  0  0  0  0  0  0  0  0
    5.7304    5.4521   -1.5597 C   0  0  0  0  0  0  0  0  0  0  0  0
    6.9008    5.7725    1.6037 C   0  0  0  0  0  0  0  0  0  0  0  0
    8.1197    5.5721    0.8128 N   0  0  0  0  0  0  0  0  0  0  0  0
    9.2673    5.2400    1.6472 C   0  0  0  0  0  0  0  0  0  0  0  0
    2.0506    6.4802    2.8277 C   0  0  0  0  0  0  0  0  0  0  0  0
    2.4071    7.6936    3.6050 C   0  0  0  0  0  0  0  0  0  0  0  0
    1.0766    5.8065    3.1969 O   0  0  0  0  0  0  0  0  0  0  0  0
    1.5908    8.0277    4.6166 C   0  0  0  0  0  0  0  0  0  0  0  0
    7.9195    4.4056   -0.0313 C   0  0  0  0  0  0  0  0  0  0  0  0
   -5.1952   -3.3817    1.2713 C   0  0  0  0  0  0  0  0  0  0  0  0
   -0.1986   -2.5323   -0.0932 H   0  0  0  0  0  0  0  0  0  0  0  0
    2.0009   -1.3655    0.2226 H   0  0  0  0  0  0  0  0  0  0  0  0
   -0.6271    3.0716    0.0714 H   0  0  0  0  0  0  0  0  0  0  0  0
   -2.6197   -2.5086    1.8057 H   0  0  0  0  0  0  0  0  0  0  0  0
   -6.6567   -2.6412   -1.1606 H   0  0  0  0  0  0  0  0  0  0  0  0
   -6.7959   -1.3072   -3.2462 H   0  0  0  0  0  0  0  0  0  0  0  0
   -4.9161    0.1357   -3.9429 H   0  0  0  0  0  0  0  0  0  0  0  0
   -2.8550    0.2757   -2.5672 H   0  0  0  0  0  0  0  0  0  0  0  0
    4.0644    3.6821   -1.9473 H   0  0  0  0  0  0  0  0  0  0  0  0
    1.1285    4.2101    1.9011 H   0  0  0  0  0  0  0  0  0  0  0  0
    3.4362    6.9862    1.4236 H   0  0  0  0  0  0  0  0  0  0  0  0
    0.9276    0.7303   -1.6391 H   0  0  0  0  0  0  0  0  0  0  0  0
   -0.0053    2.1706   -2.2169 H   0  0  0  0  0  0  0  0  0  0  0  0
    0.8787    1.0563   -3.2819 H   0  0  0  0  0  0  0  0  0  0  0  0
    5.8538    7.3751    0.5151 H   0  0  0  0  0  0  0  0  0  0  0  0
    5.0233    6.4288    1.7078 H   0  0  0  0  0  0  0  0  0  0  0  0
    6.0264    4.4017   -1.7337 H   0  0  0  0  0  0  0  0  0  0  0  0
    5.1564    5.7120   -2.4508 H   0  0  0  0  0  0  0  0  0  0  0  0
    6.6419    6.0593   -1.5691 H   0  0  0  0  0  0  0  0  0  0  0  0
    7.1129    6.4988    2.4080 H   0  0  0  0  0  0  0  0  0  0  0  0
    6.6107    4.8475    2.1209 H   0  0  0  0  0  0  0  0  0  0  0  0
    9.1074    4.2804    2.1533 H   0  0  0  0  0  0  0  0  0  0  0  0
   10.1443    5.1475    0.9969 H   0  0  0  0  0  0  0  0  0  0  0  0
    9.4791    6.0029    2.3984 H   0  0  0  0  0  0  0  0  0  0  0  0
    3.3051    8.2555    3.3860 H   0  0  0  0  0  0  0  0  0  0  0  0
    1.7692    8.8815    5.2547 H   0  0  0  0  0  0  0  0  0  0  0  0
    0.7044    7.4306    4.8334 H   0  0  0  0  0  0  0  0  0  0  0  0
    8.1397    3.4324    0.4060 H   0  0  0  0  0  0  0  0  0  0  0  0
    6.8668    4.2723   -0.1438 H   0  0  0  0  0  0  0  0  0  0  0  0
    8.4115    4.5447   -0.9972 H   0  0  0  0  0  0  0  0  0  0  0  0
   -6.0897   -2.8163    1.5468 H   0  0  0  0  0  0  0  0  0  0  0  0
   -5.4613   -4.2414    0.6508 H   0  0  0  0  0  0  0  0  0  0  0  0
   -4.6820   -3.7220    2.1741 H   0  0  0  0  0  0  0  0  0  0  0  0
  1  2  2  0  0  0  0
  1  6  1  0  0  0  0
  1 38  1  0  0  0  0
  2  3  1  0  0  0  0
  2 39  1  0  0  0  0
  3  4  2  0  0  0  0
  4  5  1  0  0  0  0
  4  8  1  0  0  0  0
  5  6  2  0  0  0  0
  6  7  1  0  0  0  0
  7 10  2  0  0  0  0
  7 13  1  0  0  0  0
  8  9  1  0  0  0  0
  8 40  1  0  0  0  0
  9 18  2  0  0  0  0
  9 22  1  0  0  0  0
 10 11  1  0  0  0  0
 10 41  1  0  0  0  0
 11 12  1  0  0  0  0
 11 37  1  0  0  0  0
 12 13  2  0  0  0  0
 12 14  1  0  0  0  0
 13 17  1  0  0  0  0
 14 15  2  0  0  0  0
 14 42  1  0  0  0  0
 15 16  1  0  0  0  0
 15 43  1  0  0  0  0
 16 17  2  0  0  0  0
 16 44  1  0  0  0  0
 17 45  1  0  0  0  0
 18 19  1  0  0  0  0
 18 24  1  0  0  0  0
 19 20  2  0  0  0  0
 19 46  1  0  0  0  0
 20 21  1  0  0  0  0
 20 26  1  0  0  0  0
 21 22  2  0  0  0  0
 21 23  1  0  0  0  0
 22 47  1  0  0  0  0
 23 32  1  0  0  0  0
 23 48  1  0  0  0  0
 24 25  1  0  0  0  0
 25 49  1  0  0  0  0
 25 50  1  0  0  0  0
 25 51  1  0  0  0  0
 26 27  1  0  0  0  0
 26 28  1  0  0  0  0
 27 29  1  0  0  0  0
 27 52  1  0  0  0  0
 27 53  1  0  0  0  0
 28 54  1  0  0  0  0
 28 55  1  0  0  0  0
 28 56  1  0  0  0  0
 29 30  1  0  0  0  0
 29 57  1  0  0  0  0
 29 58  1  0  0  0  0
 30 31  1  0  0  0  0
 30 36  1  0  0  0  0
 31 59  1  0  0  0  0
 31 60  1  0  0  0  0
 31 61  1  0  0  0  0
 32 33  1  0  0  0  0
 32 34  2  0  0  0  0
 33 35  2  0  0  0  0
 33 62  1  0  0  0  0
 35 63  1  0  0  0  0
 35 64  1  0  0  0  0
 36 65  1  0  0  0  0
 36 66  1  0  0  0  0
 36 67  1  0  0  0  0
 37 68  1  0  0  0  0
 37 69  1  0  0  0  0
 37 70  1  0  0  0  0
M  END
>  <DRUGBANK_ID>
DB09330

>  <COMMON_NAME>
Osimertinib

>  <CAS_NUMBER>
1421373-65-0

>  <UNII>
3C06JJ0Z2O

>  <SYNONYMS>
Mereletinib; N-(2-{[2-(dimethylamino)ethyl](methyl)amino}-4-methoxy-5-{[4-(1-methyl-1H-indol-3-yl)pyrimidin-2-yl]amino}phenyl)prop-2-enamide; Osimertinib; Osimertinibum

$$$$
