
 OpenBabel10282417203D

 45 47  0  0  1  0  0  0  0  0999 V2000
    2.4910    1.1861   -1.1267 C   0  0  0  0  0  0  0  0  0  0  0  0
    1.5645    0.7003   -0.0272 C   0  0  0  0  0  0  0  0  0  0  0  0
    0.2684    1.5797    0.0997 C   0  0  1  0  0  0  0  0  0  0  0  0
   -0.8623    0.7120    0.4244 N   0  0  0  0  0  0  0  0  0  0  0  0
   -0.5356   -0.6758    0.4337 C   0  0  2  0  0  0  0  0  0  0  0  0
    0.8954   -0.8614   -0.6803 S   0  0  0  0  0  0  0  0  0  0  0  0
   -1.9454   -1.0253   -0.1129 C   0  0  1  0  0  0  0  0  0  0  0  0
   -2.0409    0.5225   -0.2537 C   0  0  0  0  0  0  0  0  0  0  0  0
   -2.8420    1.3012   -0.6892 O   0  0  0  0  0  0  0  0  0  0  0  0
   -2.0208   -1.9658   -1.2814 N   0  0  0  0  0  0  0  0  0  0  0  0
   -2.1997   -3.3478   -1.3203 C   0  0  0  0  0  0  0  0  0  0  0  0
   -2.1563   -3.8831   -2.4368 O   0  0  0  0  0  0  0  0  0  0  0  0
   -2.4403   -4.2554   -0.0101 C   0  0  1  0  0  0  0  0  0  0  0  0
   -1.2861   -4.3906    0.9877 C   0  0  0  0  0  0  0  0  0  0  0  0
   -0.9312   -5.4177    1.7726 C   0  0  0  0  0  0  0  0  0  0  0  0
    0.1585   -5.3121    2.8380 C   0  0  0  0  0  0  0  0  0  0  0  0
    0.8631   -3.9989    2.9659 C   0  0  0  0  0  0  0  0  0  0  0  0
    0.5875   -3.0199    2.1231 C   0  0  0  0  0  0  0  0  0  0  0  0
   -0.4980   -3.1767    1.1328 C   0  0  0  0  0  0  0  0  0  0  0  0
   -3.6818   -3.8296    0.6643 N   0  0  0  0  0  0  0  0  0  0  0  0
    0.3458    2.7282    1.0985 C   0  0  0  0  0  0  0  0  0  0  0  0
   -0.3672    3.7179    1.0975 O   0  0  0  0  0  0  0  0  0  0  0  0
    1.2383    2.5593    2.0914 O   0  0  0  0  0  0  0  0  0  0  0  0
    2.3745    0.3794    1.2523 C   0  0  0  0  0  0  0  0  0  0  0  0
    2.8734    2.1778   -0.8836 H   0  0  0  0  0  0  0  0  0  0  0  0
    3.3452    0.5085   -1.2579 H   0  0  0  0  0  0  0  0  0  0  0  0
    1.9661    1.2470   -2.0876 H   0  0  0  0  0  0  0  0  0  0  0  0
    0.0288    2.0017   -0.8806 H   0  0  0  0  0  0  0  0  0  0  0  0
   -0.3409   -0.8549    1.4907 H   0  0  0  0  0  0  0  0  0  0  0  0
   -2.6550   -1.3395    0.6517 H   0  0  0  0  0  0  0  0  0  0  0  0
   -1.8367   -1.5967   -2.2129 H   0  0  0  0  0  0  0  0  0  0  0  0
   -2.6484   -5.2608   -0.3978 H   0  0  0  0  0  0  0  0  0  0  0  0
   -1.4748   -6.3494    1.6986 H   0  0  0  0  0  0  0  0  0  0  0  0
   -0.3085   -5.4999    3.8052 H   0  0  0  0  0  0  0  0  0  0  0  0
    0.9322   -6.0481    2.6220 H   0  0  0  0  0  0  0  0  0  0  0  0
    1.6048   -3.8075    3.7346 H   0  0  0  0  0  0  0  0  0  0  0  0
    1.1158   -2.0751    2.2155 H   0  0  0  0  0  0  0  0  0  0  0  0
   -0.0846   -3.0119    0.1433 H   0  0  0  0  0  0  0  0  0  0  0  0
   -1.2668   -2.5108    1.5108 H   0  0  0  0  0  0  0  0  0  0  0  0
   -3.7869   -4.3644    1.5234 H   0  0  0  0  0  0  0  0  0  0  0  0
   -3.6568   -2.8575    0.9389 H   0  0  0  0  0  0  0  0  0  0  0  0
    1.2700    3.3808    2.6214 H   0  0  0  0  0  0  0  0  0  0  0  0
    3.1320   -0.4018    1.1113 H   0  0  0  0  0  0  0  0  0  0  0  0
    2.9502    1.2534    1.5767 H   0  0  0  0  0  0  0  0  0  0  0  0
    1.7398    0.0740    2.0934 H   0  0  0  0  0  0  0  0  0  0  0  0
  1  2  1  0  0  0  0
  1 25  1  0  0  0  0
  1 26  1  0  0  0  0
  1 27  1  0  0  0  0
  2  3  1  0  0  0  0
  2  6  1  0  0  0  0
  2 24  1  0  0  0  0
  3  4  1  0  0  0  0
  3 28  1  6  0  0  0
  3 21  1  0  0  0  0
  4  8  1  0  0  0  0
  5  4  1  0  0  0  0
  5  6  1  0  0  0  0
  5  7  1  0  0  0  0
  5 29  1  1  0  0  0
  7  8  1  0  0  0  0
  7 30  1  1  0  0  0
  7 10  1  0  0  0  0
  8  9  2  0  0  0  0
 10 11  1  0  0  0  0
 10 31  1  0  0  0  0
 11 12  2  0  0  0  0
 11 13  1  0  0  0  0
 13 14  1  0  0  0  0
 13 20  1  0  0  0  0
 13 32  1  6  0  0  0
 14 15  2  0  0  0  0
 14 19  1  0  0  0  0
 15 16  1  0  0  0  0
 15 33  1  0  0  0  0
 16 17  1  0  0  0  0
 16 34  1  0  0  0  0
 16 35  1  0  0  0  0
 17 18  2  0  0  0  0
 17 36  1  0  0  0  0
 18 19  1  0  0  0  0
 18 37  1  0  0  0  0
 19 38  1  0  0  0  0
 19 39  1  0  0  0  0
 20 40  1  0  0  0  0
 20 41  1  0  0  0  0
 21 22  2  0  0  0  0
 21 23  1  0  0  0  0
 23 42  1  0  0  0  0
 24 43  1  0  0  0  0
 24 44  1  0  0  0  0
 24 45  1  0  0  0  0
M  END
>  <DRUGBANK_ID>
DB13300

>  <COMMON_NAME>
Epicillin

>  <CAS_NUMBER>
26774-90-3

>  <UNII>
3LU1L73C8Y

>  <SYNONYMS>
Epicillin

$$$$
