
 OpenBabel10282417183D

 65 66  0  0  0  0  0  0  0  0999 V2000
    1.0833    0.0056   -0.1953 C   0  0  0  0  0  0  0  0  0  0  0  0
   -4.0344   -3.6198    9.3907 C   0  0  0  0  0  0  0  0  0  0  0  0
    4.8204    2.9199    6.5309 C   0  0  0  0  0  0  0  0  0  0  0  0
    0.6463   -1.3683    0.2860 C   0  0  0  0  0  0  0  0  0  0  0  0
   -3.3343   -4.7970    8.6789 C   0  0  0  0  0  0  0  0  0  0  0  0
    4.1934    2.1250    5.3972 C   0  0  0  0  0  0  0  0  0  0  0  0
    1.1459   -1.6036    1.7108 C   0  0  0  0  0  0  0  0  0  0  0  0
    0.5692   -0.5442    2.6493 C   0  0  0  0  0  0  0  0  0  0  0  0
   -0.9681   -0.5559    2.5503 C   0  0  0  0  0  0  0  0  0  0  0  0
   -1.5233   -1.9506    2.8898 C   0  0  0  0  0  0  0  0  0  0  0  0
   -1.0580   -2.2785    4.2623 C   0  0  0  0  0  0  0  0  0  0  0  0
   -1.5990   -1.1540    5.1036 C   0  0  0  0  0  0  0  0  0  0  0  0
   -3.0701   -1.1349    5.4150 C   0  0  0  0  0  0  0  0  0  0  0  0
   -3.4348   -2.4782    5.9952 C   0  0  0  0  0  0  0  0  0  0  0  0
   -0.8091   -1.6002    7.8047 C   0  0  0  0  0  0  0  0  0  0  0  0
    0.2626   -3.9514    8.6282 C   0  0  0  0  0  0  0  0  0  0  0  0
    3.3126   -1.9639    7.8111 C   0  0  0  0  0  0  0  0  0  0  0  0
    0.5658   -1.7761    7.7030 C   0  0  0  0  0  0  0  0  0  0  0  0
    2.8825   -0.8972    7.1132 C   0  0  0  0  0  0  0  0  0  0  0  0
    1.1340   -2.9283    8.2162 C   0  0  0  0  0  0  0  0  0  0  0  0
   -1.6219   -2.7307    7.7422 C   0  0  0  0  0  0  0  0  0  0  0  0
   -1.1293   -3.8686    8.3657 C   0  0  0  0  0  0  0  0  0  0  0  0
    1.4132   -0.7892    6.9487 C   0  0  0  0  0  0  0  0  0  0  0  0
    3.8784    0.0820    6.5999 C   0  0  0  0  0  0  0  0  0  0  0  0
    2.5286   -3.0018    8.2813 N   0  0  0  0  0  0  0  0  0  0  0  0
    0.9039    0.0393    6.2168 O   0  0  0  0  0  0  0  0  0  0  0  0
    5.0672   -0.0331    6.8102 O   0  0  0  0  0  0  0  0  0  0  0  0
   -1.9082   -4.8857    8.8601 O   0  0  0  0  0  0  0  0  0  0  0  0
    3.3089    1.1031    5.8984 O   0  0  0  0  0  0  0  0  0  0  0  0
   -2.9193   -2.6382    7.3234 O   0  0  0  0  0  0  0  0  0  0  0  0
    0.6852    0.8136    0.4287 H   0  0  0  0  0  0  0  0  0  0  0  0
    0.7263    0.1915   -1.2073 H   0  0  0  0  0  0  0  0  0  0  0  0
    2.1742    0.0717   -0.1686 H   0  0  0  0  0  0  0  0  0  0  0  0
   -3.6553   -2.6147    9.1913 H   0  0  0  0  0  0  0  0  0  0  0  0
   -5.0911   -3.5889    9.1087 H   0  0  0  0  0  0  0  0  0  0  0  0
   -3.9057   -3.6869   10.4678 H   0  0  0  0  0  0  0  0  0  0  0  0
    5.4160    2.2817    7.1882 H   0  0  0  0  0  0  0  0  0  0  0  0
    5.4774    3.7047    6.1474 H   0  0  0  0  0  0  0  0  0  0  0  0
    4.0427    3.3711    7.1544 H   0  0  0  0  0  0  0  0  0  0  0  0
   -0.4464   -1.4461    0.2260 H   0  0  0  0  0  0  0  0  0  0  0  0
    1.0227   -2.1528   -0.3721 H   0  0  0  0  0  0  0  0  0  0  0  0
   -3.5674   -4.8729    7.6068 H   0  0  0  0  0  0  0  0  0  0  0  0
   -3.7568   -5.7101    9.1109 H   0  0  0  0  0  0  0  0  0  0  0  0
    4.9494    1.6821    4.7389 H   0  0  0  0  0  0  0  0  0  0  0  0
    3.5930    2.8060    4.7793 H   0  0  0  0  0  0  0  0  0  0  0  0
    0.8625   -2.6116    2.0403 H   0  0  0  0  0  0  0  0  0  0  0  0
    2.2380   -1.5869    1.7531 H   0  0  0  0  0  0  0  0  0  0  0  0
    0.9409   -0.7212    3.6655 H   0  0  0  0  0  0  0  0  0  0  0  0
    0.9450    0.4575    2.4276 H   0  0  0  0  0  0  0  0  0  0  0  0
   -1.3608    0.2384    3.1937 H   0  0  0  0  0  0  0  0  0  0  0  0
   -1.3472   -0.2568    1.5764 H   0  0  0  0  0  0  0  0  0  0  0  0
   -2.6160   -1.9539    2.8707 H   0  0  0  0  0  0  0  0  0  0  0  0
   -1.2034   -2.7431    2.2141 H   0  0  0  0  0  0  0  0  0  0  0  0
   -1.3584   -3.2712    4.6109 H   0  0  0  0  0  0  0  0  0  0  0  0
    0.0354   -2.3272    4.3799 H   0  0  0  0  0  0  0  0  0  0  0  0
   -1.0663   -1.4836    5.9177 H   0  0  0  0  0  0  0  0  0  0  0  0
   -1.1943   -0.1448    5.0092 H   0  0  0  0  0  0  0  0  0  0  0  0
   -3.2810   -0.3585    6.1611 H   0  0  0  0  0  0  0  0  0  0  0  0
   -3.6531   -0.8887    4.5217 H   0  0  0  0  0  0  0  0  0  0  0  0
   -4.5281   -2.5099    6.0860 H   0  0  0  0  0  0  0  0  0  0  0  0
   -3.2009   -3.3253    5.3395 H   0  0  0  0  0  0  0  0  0  0  0  0
   -1.2226   -0.6217    7.5640 H   0  0  0  0  0  0  0  0  0  0  0  0
    0.6516   -4.8205    9.1502 H   0  0  0  0  0  0  0  0  0  0  0  0
    4.3667   -2.0830    8.0527 H   0  0  0  0  0  0  0  0  0  0  0  0
    2.9549   -3.7115    8.8651 H   0  0  0  0  0  0  0  0  0  0  0  0
  1 31  1  0  0  0  0
  1 32  1  0  0  0  0
  1 33  1  0  0  0  0
  2 34  1  0  0  0  0
  2 35  1  0  0  0  0
  2 36  1  0  0  0  0
  3 37  1  0  0  0  0
  3 38  1  0  0  0  0
  3 39  1  0  0  0  0
  4  1  1  0  0  0  0
  4 40  1  0  0  0  0
  4 41  1  0  0  0  0
  5  2  1  0  0  0  0
  5 42  1  0  0  0  0
  5 43  1  0  0  0  0
  6  3  1  0  0  0  0
  6 44  1  0  0  0  0
  6 45  1  0  0  0  0
  7  4  1  0  0  0  0
  7 46  1  0  0  0  0
  7 47  1  0  0  0  0
  8  7  1  0  0  0  0
  8 48  1  0  0  0  0
  8 49  1  0  0  0  0
  9  8  1  0  0  0  0
  9 50  1  0  0  0  0
  9 51  1  0  0  0  0
 10  9  1  0  0  0  0
 10 52  1  0  0  0  0
 10 53  1  0  0  0  0
 11 10  1  0  0  0  0
 11 54  1  0  0  0  0
 11 55  1  0  0  0  0
 12 11  1  0  0  0  0
 12 56  1  0  0  0  0
 12 57  1  0  0  0  0
 13 12  1  0  0  0  0
 13 58  1  0  0  0  0
 13 59  1  0  0  0  0
 14 13  1  0  0  0  0
 14 60  1  0  0  0  0
 14 61  1  0  0  0  0
 15 62  1  0  0  0  0
 16 63  1  0  0  0  0
 17 64  1  0  0  0  0
 18 15  2  0  0  0  0
 19 17  2  0  0  0  0
 20 16  2  0  0  0  0
 20 18  1  0  0  0  0
 21 15  1  0  0  0  0
 22 16  1  0  0  0  0
 22 21  2  0  0  0  0
 23 18  1  0  0  0  0
 23 19  1  0  0  0  0
 24 19  1  0  0  0  0
 25 17  1  0  0  0  0
 25 20  1  0  0  0  0
 25 65  1  0  0  0  0
 26 23  2  0  0  0  0
 27 24  2  0  0  0  0
 28  5  1  0  0  0  0
 28 22  1  0  0  0  0
 29  6  1  0  0  0  0
 29 24  1  0  0  0  0
 30 14  1  0  0  0  0
 30 21  1  0  0  0  0
M  END
>  <DRUGBANK_ID>
DB11394

>  <COMMON_NAME>
Decoquinate

>  <CAS_NUMBER>
18507-89-6

>  <UNII>
534I52PVWH

>  <SYNONYMS>
Decoquinate; Decoquinato; Decoquinatum

$$$$
