
 OpenBabel10282417143D

 16 16  0  0  0  0  0  0  0  0999 V2000
    0.7965    0.1613    0.0192 O   0  0  0  0  0  0  0  0  0  0  0  0
    0.2524   -0.1454   -1.1684 C   0  0  0  0  0  0  0  0  0  0  0  0
    0.9243   -0.4764   -2.1320 O   0  0  0  0  0  0  0  0  0  0  0  0
   -1.2217   -0.1631   -1.1387 C   0  0  0  0  0  0  0  0  0  0  0  0
   -1.9254   -1.1601   -1.8347 C   0  0  0  0  0  0  0  0  0  0  0  0
   -1.2842   -2.1667   -2.5116 O   0  0  0  0  0  0  0  0  0  0  0  0
   -3.3270   -1.1471   -1.8260 C   0  0  0  0  0  0  0  0  0  0  0  0
   -4.4535   -2.6012   -2.8337 I   0  0  0  0  0  0  0  0  0  0  0  0
   -4.0231   -0.1455   -1.1419 C   0  0  0  0  0  0  0  0  0  0  0  0
   -3.3136    0.8455   -0.4633 C   0  0  0  0  0  0  0  0  0  0  0  0
   -4.3574    2.3493    0.5260 I   0  0  0  0  0  0  0  0  0  0  0  0
   -1.9175    0.8431   -0.4528 C   0  0  0  0  0  0  0  0  0  0  0  0
    1.7663    0.0617   -0.1005 H   0  0  0  0  0  0  0  0  0  0  0  0
   -0.3222   -1.9964   -2.5483 H   0  0  0  0  0  0  0  0  0  0  0  0
   -5.1113   -0.1382   -1.1417 H   0  0  0  0  0  0  0  0  0  0  0  0
   -1.3686    1.6246    0.0679 H   0  0  0  0  0  0  0  0  0  0  0  0
  1  2  1  0  0  0  0
  1 13  1  0  0  0  0
  2  3  2  0  0  0  0
  2  4  1  0  0  0  0
  4  5  2  0  0  0  0
  4 12  1  0  0  0  0
  5  6  1  0  0  0  0
  5  7  1  0  0  0  0
  6 14  1  0  0  0  0
  7  8  1  0  0  0  0
  7  9  2  0  0  0  0
  9 10  1  0  0  0  0
  9 15  1  0  0  0  0
 10 11  1  0  0  0  0
 10 12  2  0  0  0  0
 12 16  1  0  0  0  0
M  END
>  <DRUGBANK_ID>
DB04674

>  <COMMON_NAME>
2-HYDROXY-3,5-DIIODOBENZOIC ACID

>  <UNII>
1496OH15B6

$$$$
