PXB
 OpenBabel10282417173D

 44 46  0  0  0  0  0  0  0  0999 V2000
    0.5374   -0.1821   -0.3916 C   0  0  0  0  0  0  0  0  0  0  0  0
    0.2589    1.2299   -0.8467 C   0  0  0  0  0  0  0  0  0  0  0  0
    0.9848    1.4488   -2.1333 C   0  0  0  0  0  0  0  0  0  0  0  0
    0.3745    1.5418   -3.1838 O   0  0  0  0  0  0  0  0  0  0  0  0
    2.3915    1.5042   -2.1418 N   0  0  0  0  0  0  0  0  0  0  0  0
    3.6176    1.3770   -1.0142 S   0  0  0  0  0  0  0  0  0  0  0  0
    4.2937    0.1266   -1.3109 O   0  0  0  0  0  0  0  0  0  0  0  0
    4.3443    2.6228   -1.0712 O   0  0  0  0  0  0  0  0  0  0  0  0
    2.9773    1.2293    0.6542 C   0  0  0  0  0  0  0  0  0  0  0  0
    2.8976   -0.0301    1.2811 C   0  0  0  0  0  0  0  0  0  0  0  0
    2.1545   -0.1768    2.4598 C   0  0  0  0  0  0  0  0  0  0  0  0
    1.6265    0.9493    3.0975 C   0  0  0  0  0  0  0  0  0  0  0  0
    1.8503    2.2194    2.5484 C   0  0  0  0  0  0  0  0  0  0  0  0
    2.4895    2.3614    1.3109 C   0  0  0  0  0  0  0  0  0  0  0  0
    0.7882    0.8091    4.2684 C   0  0  0  0  0  0  0  0  0  0  0  0
    1.1582    0.1641    5.4243 C   0  0  0  0  0  0  0  0  0  0  0  0
   -0.5227    1.2950    4.5408 C   0  0  0  0  0  0  0  0  0  0  0  0
    0.1576    0.2735    6.3386 O   0  0  0  0  0  0  0  0  0  0  0  0
   -0.8933    0.9898    5.7939 N   0  0  0  0  0  0  0  0  0  0  0  0
   -1.4053    2.0195    3.6394 C   0  0  0  0  0  0  0  0  0  0  0  0
   -1.8307    1.4270    2.4426 C   0  0  0  0  0  0  0  0  0  0  0  0
   -2.6577    2.1300    1.5657 C   0  0  0  0  0  0  0  0  0  0  0  0
   -3.0807    3.4174    1.8921 C   0  0  0  0  0  0  0  0  0  0  0  0
   -2.6833    4.0006    3.0954 C   0  0  0  0  0  0  0  0  0  0  0  0
   -1.8187    3.3181    3.9521 C   0  0  0  0  0  0  0  0  0  0  0  0
    2.3679   -0.5569    5.8563 C   0  0  0  0  0  0  0  0  0  0  0  0
   -0.0158   -0.9444   -0.9332 H   0  0  0  0  0  0  0  0  0  0  0  0
    0.3121   -0.2800    0.6698 H   0  0  0  0  0  0  0  0  0  0  0  0
    1.5692   -0.4581   -0.6045 H   0  0  0  0  0  0  0  0  0  0  0  0
   -0.8185    1.3634   -0.9624 H   0  0  0  0  0  0  0  0  0  0  0  0
    0.5702    2.0206   -0.1651 H   0  0  0  0  0  0  0  0  0  0  0  0
    2.7658    1.5275   -3.0912 H   0  0  0  0  0  0  0  0  0  0  0  0
    3.2216   -0.9340    0.7631 H   0  0  0  0  0  0  0  0  0  0  0  0
    1.8999   -1.1789    2.8090 H   0  0  0  0  0  0  0  0  0  0  0  0
    1.4750    3.1058    3.0567 H   0  0  0  0  0  0  0  0  0  0  0  0
    2.5049    3.3367    0.8290 H   0  0  0  0  0  0  0  0  0  0  0  0
   -1.5258    0.4142    2.1911 H   0  0  0  0  0  0  0  0  0  0  0  0
   -2.9855    1.6692    0.6372 H   0  0  0  0  0  0  0  0  0  0  0  0
   -3.7259    3.9667    1.2109 H   0  0  0  0  0  0  0  0  0  0  0  0
   -3.0530    4.9847    3.3711 H   0  0  0  0  0  0  0  0  0  0  0  0
   -1.4647    3.8026    4.8595 H   0  0  0  0  0  0  0  0  0  0  0  0
    2.8266   -0.0570    6.7128 H   0  0  0  0  0  0  0  0  0  0  0  0
    2.1234   -1.5871    6.1293 H   0  0  0  0  0  0  0  0  0  0  0  0
    3.1139   -0.5926    5.0571 H   0  0  0  0  0  0  0  0  0  0  0  0
  1  2  1  0  0  0  0
  1 27  1  0  0  0  0
  1 28  1  0  0  0  0
  1 29  1  0  0  0  0
  2  3  1  0  0  0  0
  2 30  1  0  0  0  0
  2 31  1  0  0  0  0
  3  4  2  0  0  0  0
  3  5  1  0  0  0  0
  5  6  1  0  0  0  0
  5 32  1  0  0  0  0
  6  7  2  0  0  0  0
  6  8  2  0  0  0  0
  6  9  1  0  0  0  0
  9 10  2  0  0  0  0
  9 14  1  0  0  0  0
 10 11  1  0  0  0  0
 10 33  1  0  0  0  0
 11 12  2  0  0  0  0
 11 34  1  0  0  0  0
 12 13  1  0  0  0  0
 12 15  1  0  0  0  0
 13 14  2  0  0  0  0
 13 35  1  0  0  0  0
 14 36  1  0  0  0  0
 15 16  2  0  0  0  0
 15 17  1  0  0  0  0
 16 18  1  0  0  0  0
 16 26  1  0  0  0  0
 17 19  2  0  0  0  0
 17 20  1  0  0  0  0
 18 19  1  0  0  0  0
 20 21  2  0  0  0  0
 20 25  1  0  0  0  0
 21 22  1  0  0  0  0
 21 37  1  0  0  0  0
 22 23  2  0  0  0  0
 22 38  1  0  0  0  0
 23 24  1  0  0  0  0
 23 39  1  0  0  0  0
 24 25  2  0  0  0  0
 24 40  1  0  0  0  0
 25 41  1  0  0  0  0
 26 42  1  0  0  0  0
 26 43  1  0  0  0  0
 26 44  1  0  0  0  0
M  END
>  <DRUGBANK_ID>
DB08439

>  <COMMON_NAME>
Parecoxib

>  <CAS_NUMBER>
198470-84-7

>  <UNII>
9TUW81Y3CE

>  <SYNONYMS>
N-((p-(5-methyl-3-phenyl-4-isoxazolyl)phenyl)sulfonyl)propionamide; Parecoxib; Par√©coxib; Parecoxibum

$$$$
