
 OpenBabel10282417123D

 21 22  0  0  0  0  0  0  0  0999 V2000
   -0.8145   -0.7179    0.0077 C   0  0  0  0  0  0  0  0  0  0  0  0
   -0.8650    0.6690   -0.0043 C   0  0  0  0  0  0  0  0  0  0  0  0
    0.3795   -1.4408    0.0056 C   0  0  0  0  0  0  0  0  0  0  0  0
    0.3344    1.3943   -0.0046 C   0  0  0  0  0  0  0  0  0  0  0  0
    1.5836   -0.7074   -0.0034 C   0  0  0  0  0  0  0  0  0  0  0  0
    1.5661    0.7048    0.0037 C   0  0  0  0  0  0  0  0  0  0  0  0
   -2.1663    1.1128   -0.0098 N   0  0  0  0  0  0  0  0  0  0  0  0
   -2.9004    0.0247    0.0077 C   0  0  0  0  0  0  0  0  0  0  0  0
   -2.1305   -1.1045    0.0209 N   0  0  0  0  0  0  0  0  0  0  0  0
    2.8261    1.5300    0.0242 C   0  0  0  0  0  0  0  0  0  0  0  0
    2.8842   -1.4662   -0.0330 C   0  0  0  0  0  0  0  0  0  0  0  0
    0.3784   -2.5260    0.0084 H   0  0  0  0  0  0  0  0  0  0  0  0
    0.2951    2.4788   -0.0086 H   0  0  0  0  0  0  0  0  0  0  0  0
   -3.9819   -0.0106    0.0139 H   0  0  0  0  0  0  0  0  0  0  0  0
   -2.4698   -2.0540    0.0411 H   0  0  0  0  0  0  0  0  0  0  0  0
    2.8749    2.1636   -0.8667 H   0  0  0  0  0  0  0  0  0  0  0  0
    2.8447    2.1593    0.9201 H   0  0  0  0  0  0  0  0  0  0  0  0
    3.7343    0.9227    0.0405 H   0  0  0  0  0  0  0  0  0  0  0  0
    3.4395   -1.2159   -0.9432 H   0  0  0  0  0  0  0  0  0  0  0  0
    3.4865   -1.2206    0.8473 H   0  0  0  0  0  0  0  0  0  0  0  0
    2.7240   -2.5488   -0.0315 H   0  0  0  0  0  0  0  0  0  0  0  0
  1  3  1  0  0  0  0
  1  2  2  0  0  0  0
  1  9  1  0  0  0  0
  2  4  1  0  0  0  0
  2  7  1  0  0  0  0
  3  5  2  0  0  0  0
  3 12  1  0  0  0  0
  4  6  2  0  0  0  0
  4 13  1  0  0  0  0
  5  6  1  0  0  0  0
  8  7  2  0  0  0  0
  8 14  1  0  0  0  0
  9  8  1  0  0  0  0
  9 15  1  0  0  0  0
 10  6  1  0  0  0  0
 10 16  1  0  0  0  0
 10 17  1  0  0  0  0
 10 18  1  0  0  0  0
 11  5  1  0  0  0  0
 11 19  1  0  0  0  0
 11 20  1  0  0  0  0
 11 21  1  0  0  0  0
M  END
>  <DRUGBANK_ID>
DB02591

>  <SECONDARY_ACCESSION_NUMBERS>
EXPT01222

>  <COMMON_NAME>
5,6-Dimethylbenzimidazole

>  <CAS_NUMBER>
582-60-5

>  <UNII>
553XI1DS20

$$$$
