
 OpenBabel10282417203D

 27 26  0  0  0  0  0  0  0  0999 V2000
    1.0289   -0.0989   -0.0576 C   0  0  0  0  0  0  0  0  0  0  0  0
    0.5319   -0.7704    1.2117 C   0  0  0  0  0  0  0  0  0  0  0  0
    1.0248   -0.0557    2.4904 C   0  0  3  0  0  0  0  0  0  0  0  0
    0.5060    1.3875    2.5326 C   0  0  0  0  0  0  0  0  0  0  0  0
    0.6035   -0.8230    3.7723 C   0  0  3  0  0  0  0  0  0  0  0  0
    1.0767   -2.2938    3.7922 C   0  0  0  0  0  0  0  0  0  0  0  0
    2.5887   -2.4657    3.7168 C   0  0  0  0  0  0  0  0  0  0  0  0
    1.0368   -0.0899    5.0477 C   0  0  0  0  0  0  0  0  0  0  0  0
    0.2338    0.2923    5.8983 O   0  0  0  0  0  0  0  0  0  0  0  0
    2.3665    0.1486    5.2168 N   0  0  0  0  0  0  0  0  0  0  0  0
    0.6562    0.9236   -0.1472 H   0  0  0  0  0  0  0  0  0  0  0  0
    0.6870   -0.6501   -0.9375 H   0  0  0  0  0  0  0  0  0  0  0  0
    2.1233   -0.0751   -0.0672 H   0  0  0  0  0  0  0  0  0  0  0  0
   -0.5642   -0.8183    1.2052 H   0  0  0  0  0  0  0  0  0  0  0  0
    0.8928   -1.8036    1.1778 H   0  0  0  0  0  0  0  0  0  0  0  0
    2.1182    0.0036    2.4476 H   0  0  0  0  0  0  0  0  0  0  0  0
   -0.5881    1.4095    2.5193 H   0  0  0  0  0  0  0  0  0  0  0  0
    0.8529    1.9138    3.4257 H   0  0  0  0  0  0  0  0  0  0  0  0
    0.8758    1.9661    1.6824 H   0  0  0  0  0  0  0  0  0  0  0  0
   -0.4972   -0.8426    3.8004 H   0  0  0  0  0  0  0  0  0  0  0  0
    0.7039   -2.7885    4.6966 H   0  0  0  0  0  0  0  0  0  0  0  0
    0.6225   -2.8415    2.9580 H   0  0  0  0  0  0  0  0  0  0  0  0
    3.0643   -2.1219    4.6371 H   0  0  0  0  0  0  0  0  0  0  0  0
    2.8630   -3.5161    3.6095 H   0  0  0  0  0  0  0  0  0  0  0  0
    3.0192   -1.9191    2.8726 H   0  0  0  0  0  0  0  0  0  0  0  0
    3.0729   -0.0982    4.5389 H   0  0  0  0  0  0  0  0  0  0  0  0
    2.6694    0.5741    6.0824 H   0  0  0  0  0  0  0  0  0  0  0  0
  1  2  1  0  0  0  0
  1 11  1  0  0  0  0
  1 12  1  0  0  0  0
  1 13  1  0  0  0  0
  2  3  1  0  0  0  0
  2 14  1  0  0  0  0
  2 15  1  0  0  0  0
  3  4  1  0  0  0  0
  3  5  1  0  0  0  0
  3 16  1  0  0  0  0
  4 17  1  0  0  0  0
  4 18  1  0  0  0  0
  4 19  1  0  0  0  0
  5  6  1  0  0  0  0
  5  8  1  0  0  0  0
  5 20  1  0  0  0  0
  6  7  1  0  0  0  0
  6 21  1  0  0  0  0
  6 22  1  0  0  0  0
  7 23  1  0  0  0  0
  7 24  1  0  0  0  0
  7 25  1  0  0  0  0
  8  9  2  0  0  0  0
  8 10  1  0  0  0  0
 10 26  1  0  0  0  0
 10 27  1  0  0  0  0
M  END
>  <DRUGBANK_ID>
DB13099

>  <COMMON_NAME>
Valnoctamide

>  <CAS_NUMBER>
4171-13-5

>  <UNII>
3O25NRX9YG

>  <SYNONYMS>
Valnoctamide

$$$$
