
 OpenBabel10282417193D

 31 32  0  0  0  0  0  0  0  0999 V2000
    0.9054    0.0033   -0.0837 C   0  0  0  0  0  0  0  0  0  0  0  0
    0.3577   -1.1735    0.7379 C   0  0  0  0  0  0  0  0  0  0  0  0
    0.9298   -1.2638    2.2454 C   0  0  3  0  0  0  0  0  0  0  0  0
    0.6625    0.0627    3.0855 C   0  0  0  0  0  0  0  0  0  0  0  0
    1.1204    1.3156    2.6151 C   0  0  0  0  0  0  0  0  0  0  0  0
    0.7410    2.5300    3.2173 C   0  0  0  0  0  0  0  0  0  0  0  0
   -0.0448    2.5365    4.3496 C   0  0  0  0  0  0  0  0  0  0  0  0
   -0.4244    1.3275    4.9125 C   0  0  0  0  0  0  0  0  0  0  0  0
   -0.0058    0.1313    4.3148 C   0  0  0  0  0  0  0  0  0  0  0  0
   -0.4519    4.0039    5.1416 Cl  0  0  0  0  0  0  0  0  0  0  0  0
    0.5634   -2.6243    2.9332 C   0  0  0  0  0  0  0  0  0  0  0  0
   -0.5361   -2.7489    3.8060 C   0  0  0  0  0  0  0  0  0  0  0  0
   -0.7621   -3.8822    4.5895 C   0  0  0  0  0  0  0  0  0  0  0  0
   -0.0994   -5.0547    4.2825 C   0  0  0  0  0  0  0  0  0  0  0  0
    0.8613   -5.0375    3.2808 C   0  0  0  0  0  0  0  0  0  0  0  0
    1.2715   -3.8256    2.6979 C   0  0  0  0  0  0  0  0  0  0  0  0
    2.7179   -3.9218    1.7509 Cl  0  0  0  0  0  0  0  0  0  0  0  0
   -1.4464   -1.0661    0.7567 Cl  0  0  0  0  0  0  0  0  0  0  0  0
    0.7243   -2.6094   -0.3153 Cl  0  0  0  0  0  0  0  0  0  0  0  0
    0.4725    0.9577    0.2230 H   0  0  0  0  0  0  0  0  0  0  0  0
    0.6677   -0.0760   -1.1511 H   0  0  0  0  0  0  0  0  0  0  0  0
    1.9997    0.0571   -0.0076 H   0  0  0  0  0  0  0  0  0  0  0  0
    2.0283   -1.2683    2.1776 H   0  0  0  0  0  0  0  0  0  0  0  0
    1.8007    1.3927    1.7772 H   0  0  0  0  0  0  0  0  0  0  0  0
    1.0857    3.4714    2.7869 H   0  0  0  0  0  0  0  0  0  0  0  0
   -1.0101    1.2945    5.8224 H   0  0  0  0  0  0  0  0  0  0  0  0
   -0.2120   -0.7372    4.9294 H   0  0  0  0  0  0  0  0  0  0  0  0
   -1.2597   -1.9488    3.9334 H   0  0  0  0  0  0  0  0  0  0  0  0
   -1.4851   -3.8511    5.4008 H   0  0  0  0  0  0  0  0  0  0  0  0
   -0.3447   -5.9731    4.8058 H   0  0  0  0  0  0  0  0  0  0  0  0
    1.3215   -5.9763    2.9787 H   0  0  0  0  0  0  0  0  0  0  0  0
  1  2  1  0  0  0  0
  1 20  1  0  0  0  0
  1 21  1  0  0  0  0
  1 22  1  0  0  0  0
  2  3  1  0  0  0  0
  2 18  1  0  0  0  0
  2 19  1  0  0  0  0
  3  4  1  0  0  0  0
  3 11  1  0  0  0  0
  3 23  1  0  0  0  0
  4  5  2  0  0  0  0
  4  9  1  0  0  0  0
  5  6  1  0  0  0  0
  5 24  1  0  0  0  0
  6  7  2  0  0  0  0
  6 25  1  0  0  0  0
  7  8  1  0  0  0  0
  7 10  1  0  0  0  0
  8  9  2  0  0  0  0
  8 26  1  0  0  0  0
  9 27  1  0  0  0  0
 11 12  2  0  0  0  0
 11 16  1  0  0  0  0
 12 13  1  0  0  0  0
 12 28  1  0  0  0  0
 13 14  2  0  0  0  0
 13 29  1  0  0  0  0
 14 15  1  0  0  0  0
 14 30  1  0  0  0  0
 15 16  2  0  0  0  0
 15 31  1  0  0  0  0
 16 17  1  0  0  0  0
M  END
>  <DRUGBANK_ID>
DB12117

>  <COMMON_NAME>
Mitometh

>  <CAS_NUMBER>
107465-03-2

>  <UNII>
H8MTN7XVC2

>  <SYNONYMS>
DDP

$$$$
