1353
 OpenBabel10282417113D

 31 31  0  0  0  0  0  0  0  0999 V2000
   -2.4155   -1.0822   -0.1194 O   0  0  0  0  0  0  0  0  0  0  0  0
    2.3778   -1.2011    0.1212 O   0  0  0  0  0  0  0  0  0  0  0  0
    0.0459    2.6462   -0.0073 O   0  0  0  0  0  0  0  0  0  0  0  0
   -1.1355    0.7298    0.0262 N   0  0  0  0  0  0  0  0  0  0  0  0
    1.1738    0.6899   -0.0083 N   0  0  0  0  0  0  0  0  0  0  0  0
   -0.0165   -1.4594   -0.1089 C   0  0  0  0  0  0  0  0  0  0  0  0
   -0.0608   -2.4794    1.0697 C   0  0  0  0  0  0  0  0  0  0  0  0
    0.0639   -2.0882   -1.5207 C   0  0  0  0  0  0  0  0  0  0  0  0
   -1.2475   -3.4635    1.1096 C   0  0  0  0  0  0  0  0  0  0  0  0
   -1.2795   -0.6183   -0.0435 C   0  0  0  0  0  0  0  0  0  0  0  0
    1.2712   -0.6691    0.0434 C   0  0  0  0  0  0  0  0  0  0  0  0
   -1.3504   -4.4257   -0.0709 C   0  0  0  0  0  0  0  0  0  0  0  0
    0.1486   -1.1172   -2.6811 C   0  0  0  0  0  0  0  0  0  0  0  0
    0.0296    1.4150   -0.0001 C   0  0  0  0  0  0  0  0  0  0  0  0
   -0.0616   -5.2036   -0.2782 C   0  0  0  0  0  0  0  0  0  0  0  0
   -1.9933    1.2630    0.0162 H   0  0  0  0  0  0  0  0  0  0  0  0
    2.0422    1.2050    0.0079 H   0  0  0  0  0  0  0  0  0  0  0  0
    0.8787   -3.0455    1.1218 H   0  0  0  0  0  0  0  0  0  0  0  0
   -0.0721   -1.9156    2.0162 H   0  0  0  0  0  0  0  0  0  0  0  0
    0.8889   -2.8071   -1.5851 H   0  0  0  0  0  0  0  0  0  0  0  0
   -0.8554   -2.5983   -1.7668 H   0  0  0  0  0  0  0  0  0  0  0  0
   -1.1716   -4.0608    2.0258 H   0  0  0  0  0  0  0  0  0  0  0  0
   -2.1891   -2.9177    1.2179 H   0  0  0  0  0  0  0  0  0  0  0  0
   -2.1883   -5.1119    0.0747 H   0  0  0  0  0  0  0  0  0  0  0  0
   -1.6515   -3.9169   -0.9799 H   0  0  0  0  0  0  0  0  0  0  0  0
    1.0581   -0.5190   -2.6535 H   0  0  0  0  0  0  0  0  0  0  0  0
    0.1281   -1.6891   -3.6147 H   0  0  0  0  0  0  0  0  0  0  0  0
   -0.7292   -0.4648   -2.6810 H   0  0  0  0  0  0  0  0  0  0  0  0
    0.0689   -5.9062    0.5472 H   0  0  0  0  0  0  0  0  0  0  0  0
   -0.0857   -5.7492   -1.2237 H   0  0  0  0  0  0  0  0  0  0  0  0
    0.8315   -4.5729   -0.3072 H   0  0  0  0  0  0  0  0  0  0  0  0
  1 10  2  0  0  0  0
  2 11  2  0  0  0  0
  3 14  2  0  0  0  0
  4 10  1  0  0  0  0
  4 14  1  0  0  0  0
  4 16  1  0  0  0  0
  5 11  1  0  0  0  0
  5 14  1  0  0  0  0
  5 17  1  0  0  0  0
  6  7  1  0  0  0  0
  6  8  1  0  0  0  0
  6 10  1  0  0  0  0
  6 11  1  0  0  0  0
  7  9  1  0  0  0  0
  7 18  1  0  0  0  0
  7 19  1  0  0  0  0
  8 13  1  0  0  0  0
  8 20  1  0  0  0  0
  8 21  1  0  0  0  0
  9 12  1  0  0  0  0
  9 22  1  0  0  0  0
  9 23  1  0  0  0  0
 12 15  1  0  0  0  0
 12 24  1  0  0  0  0
 12 25  1  0  0  0  0
 13 26  1  0  0  0  0
 13 27  1  0  0  0  0
 13 28  1  0  0  0  0
 15 29  1  0  0  0  0
 15 30  1  0  0  0  0
 15 31  1  0  0  0  0
M  END
>  <DRUGBANK_ID>
DB01353

>  <COMMON_NAME>
Butobarbital

>  <CAS_NUMBER>
77-28-1

>  <UNII>
OHZ8QAW6YC

>  <SYNONYMS>
Butethal; Butobarbital; Butobarbitone

$$$$
