
 OpenBabel10282417153D

 45 48  0  0  0  0  0  0  0  0999 V2000
    2.5193    0.0491   -0.1807 F   0  0  0  0  0  0  0  0  0  0  0  0
   -4.1113   -1.0321   -1.3922 N   0  0  0  0  0  0  0  0  0  0  0  0
   -4.6126   -2.4584   -2.8969 N   0  0  0  0  0  0  0  0  0  0  0  0
   -3.2469   -3.1213   -1.0249 N   0  0  0  0  0  0  0  0  0  0  0  0
   -3.1137    1.0822    0.8120 N   0  0  0  0  0  0  0  0  0  0  0  0
   -5.0016   -0.3024   -2.1851 C   0  0  0  0  0  0  0  0  0  0  0  0
   -3.9766   -2.2943   -1.7783 C   0  0  0  0  0  0  0  0  0  0  0  0
   -5.2943   -1.2712   -3.1093 C   0  0  0  0  0  0  0  0  0  0  0  0
   -3.5379   -0.4321   -0.2224 C   0  0  0  0  0  0  0  0  0  0  0  0
   -5.5224    1.0409   -2.1984 C   0  0  0  0  0  0  0  0  0  0  0  0
   -6.2195   -0.9436   -4.0802 C   0  0  0  0  0  0  0  0  0  0  0  0
   -1.6628   -0.2542    0.8385 C   0  0  0  0  0  0  0  0  0  0  0  0
   -2.3224   -2.5070   -0.0999 C   0  0  0  0  0  0  0  0  0  0  0  0
   -6.4384    1.3333   -3.1945 C   0  0  0  0  0  0  0  0  0  0  0  0
   -6.7885    0.3407   -4.1041 C   0  0  0  0  0  0  0  0  0  0  0  0
   -0.8309    1.1586    0.7350 C   0  0  0  0  0  0  0  0  0  0  0  0
   -0.6406   -1.2177    1.1833 C   0  0  0  0  0  0  0  0  0  0  0  0
   -3.0961   -2.1109    1.4994 C   0  0  0  0  0  0  0  0  0  0  0  0
   -1.5045   -1.1674   -1.1339 C   0  0  0  0  0  0  0  0  0  0  0  0
    1.2708    0.0358    0.2975 C   0  0  0  0  0  0  0  0  0  0  0  0
    0.5305    1.2211    0.3475 C   0  0  0  0  0  0  0  0  0  0  0  0
    0.7248   -1.1766    0.7224 C   0  0  0  0  0  0  0  0  0  0  0  0
   -3.8092   -0.5470    1.7097 C   0  0  0  0  0  0  0  0  0  0  0  0
   -2.1442    0.6522   -0.9695 C   0  0  0  0  0  0  0  0  0  0  0  0
   -2.8449   -3.9199   -1.5090 H   0  0  0  0  0  0  0  0  0  0  0  0
   -3.7626    1.8410    0.7193 H   0  0  0  0  0  0  0  0  0  0  0  0
   -4.6074    0.0540    0.1974 H   0  0  0  0  0  0  0  0  0  0  0  0
   -3.8649    0.6812   -0.7099 H   0  0  0  0  0  0  0  0  0  0  0  0
   -5.2672    1.8417   -1.4920 H   0  0  0  0  0  0  0  0  0  0  0  0
   -6.4821   -1.7198   -4.7739 H   0  0  0  0  0  0  0  0  0  0  0  0
   -1.6647   -3.3717    0.1835 H   0  0  0  0  0  0  0  0  0  0  0  0
   -6.8910    2.3232   -3.2506 H   0  0  0  0  0  0  0  0  0  0  0  0
   -7.5269    0.5556   -4.8624 H   0  0  0  0  0  0  0  0  0  0  0  0
   -1.3608    2.1227    0.4317 H   0  0  0  0  0  0  0  0  0  0  0  0
   -0.8281   -2.2521    1.1325 H   0  0  0  0  0  0  0  0  0  0  0  0
   -3.7973   -2.9408    1.7143 H   0  0  0  0  0  0  0  0  0  0  0  0
   -2.4130   -2.1210    2.3580 H   0  0  0  0  0  0  0  0  0  0  0  0
   -0.5920   -0.7430   -0.7877 H   0  0  0  0  0  0  0  0  0  0  0  0
   -0.7786   -1.6099   -1.8355 H   0  0  0  0  0  0  0  0  0  0  0  0
    0.9080    2.1588   -0.0721 H   0  0  0  0  0  0  0  0  0  0  0  0
    1.0427   -2.1414    0.2302 H   0  0  0  0  0  0  0  0  0  0  0  0
   -4.6710   -1.1664    1.0995 H   0  0  0  0  0  0  0  0  0  0  0  0
   -4.5612   -0.3502    2.4638 H   0  0  0  0  0  0  0  0  0  0  0  0
   -1.4184    1.3541   -1.3590 H   0  0  0  0  0  0  0  0  0  0  0  0
   -2.6938    0.4353   -1.9020 H   0  0  0  0  0  0  0  0  0  0  0  0
  1 20  1  0  0  0  0
  2  6  1  0  0  0  0
  2  7  1  0  0  0  0
  2  9  1  0  0  0  0
  3  7  2  0  0  0  0
  3  8  1  0  0  0  0
  4  7  1  0  0  0  0
  4 13  1  0  0  0  0
  4 25  1  0  0  0  0
  5 23  1  0  0  0  0
  5 24  1  0  0  0  0
  5 26  1  0  0  0  0
  6  8  1  0  0  0  0
  6 10  2  0  0  0  0
  8 11  2  0  0  0  0
  9 12  1  0  0  0  0
  9 27  1  0  0  0  0
  9 28  1  0  0  0  0
 10 14  1  0  0  0  0
 10 29  1  0  0  0  0
 11 15  1  0  0  0  0
 11 30  1  0  0  0  0
 12 16  2  0  0  0  0
 12 17  1  0  0  0  0
 13 18  1  0  0  0  0
 13 19  1  0  0  0  0
 13 31  1  0  0  0  0
 14 15  2  0  0  0  0
 14 32  1  0  0  0  0
 15 33  1  0  0  0  0
 16 21  1  0  0  0  0
 16 34  1  0  0  0  0
 17 22  2  0  0  0  0
 17 35  1  0  0  0  0
 18 23  1  0  0  0  0
 18 36  1  0  0  0  0
 18 37  1  0  0  0  0
 19 24  1  0  0  0  0
 19 38  1  0  0  0  0
 19 39  1  0  0  0  0
 20 21  2  0  0  0  0
 20 22  1  0  0  0  0
 21 40  1  0  0  0  0
 22 41  1  0  0  0  0
 23 42  1  0  0  0  0
 23 43  1  0  0  0  0
 24 44  1  0  0  0  0
 24 45  1  0  0  0  0
M  END
>  <DRUGBANK_ID>
DB06457

>  <COMMON_NAME>
Tecastemizole

>  <CAS_NUMBER>
75970-99-9

>  <UNII>
W5DCO14M05

>  <SYNONYMS>
Norastemizole; Tecastemizole

$$$$
