
 OpenBabel10282417193D

  3  2  0  0  0  0  0  0  0  0999 V2000
    0.9176   -0.0531   -0.0793 O   0  5  0  0  0  0  0  0  0  0  0  0
    2.2637   -0.0765    0.0447 O   0  3  0  0  0  0  0  0  0  0  0  0
    2.8724    0.1480   -1.1414 O   0  0  0  0  0  0  0  0  0  0  0  0
  1  2  1  0  0  0  0
  2  3  2  0  0  0  0
M  CHG  2   1  -1   2   1
M  END
>  <DRUGBANK_ID>
DB12510

>  <COMMON_NAME>
Ozone

>  <CAS_NUMBER>
10028-15-6

>  <UNII>
66H7ZZK23N

>  <SYNONYMS>
ozono

$$$$
