
 OpenBabel10282417183D

 43 45  0  0  0  0  0  0  0  0999 V2000
    0.6735   -0.2001   -0.1339 C   0  0  0  0  0  0  0  0  0  0  0  0
    0.3682   -0.7291    1.2102 C   0  0  0  0  0  0  0  0  0  0  0  0
    0.5574   -2.0474    1.5542 C   0  0  0  0  0  0  0  0  0  0  0  0
    0.1207   -2.2006    2.8835 C   0  0  0  0  0  0  0  0  0  0  0  0
    0.0298   -3.3173    3.7254 C   0  0  0  0  0  0  0  0  0  0  0  0
   -0.4484   -3.1198    5.0066 C   0  0  0  0  0  0  0  0  0  0  0  0
   -0.8092   -1.8312    5.3799 C   0  0  0  0  0  0  0  0  0  0  0  0
   -0.7388   -0.7043    4.6091 N   0  0  0  0  0  0  0  0  0  0  0  0
   -0.2601   -0.9445    3.3639 C   0  0  0  0  0  0  0  0  0  0  0  0
   -0.0440   -0.0219    2.3378 N   0  0  0  0  0  0  0  0  0  0  0  0
   -0.2884    1.4361    2.4203 C   0  0  0  0  0  0  0  0  0  0  0  0
    0.9673    2.2823    2.2163 C   0  0  0  0  0  0  0  0  0  0  0  0
    1.6264    2.3474    0.9845 C   0  0  0  0  0  0  0  0  0  0  0  0
    2.8635    2.9275    0.7849 C   0  0  0  0  0  0  0  0  0  0  0  0
    3.4825    3.5310    1.8494 C   0  0  0  0  0  0  0  0  0  0  0  0
    2.8422    3.5570    3.0964 C   0  0  0  0  0  0  0  0  0  0  0  0
    1.5467    3.0198    3.2480 C   0  0  0  0  0  0  0  0  0  0  0  0
    4.9863    4.4190    1.5645 S   0  0  0  0  0  0  0  0  0  0  0  0
    4.6782    5.8118    1.8159 O   0  0  0  0  0  0  0  0  0  0  0  0
    6.0276    3.7227    2.2960 O   0  0  0  0  0  0  0  0  0  0  0  0
    5.3553    4.2688   -0.1775 C   0  0  0  0  0  0  0  0  0  0  0  0
    1.1119   -3.1002    0.6582 C   0  0  0  0  0  0  0  0  0  0  0  0
    2.3475   -3.7359    1.2358 C   0  0  0  0  0  0  0  0  0  0  0  0
    2.4775   -4.9118    1.5025 O   0  0  0  0  0  0  0  0  0  0  0  0
    3.3619   -2.8609    1.4234 O   0  0  0  0  0  0  0  0  0  0  0  0
    0.0562    0.6620   -0.3732 H   0  0  0  0  0  0  0  0  0  0  0  0
    0.4526   -0.9089   -0.9321 H   0  0  0  0  0  0  0  0  0  0  0  0
    1.7579   -0.0206   -0.1849 H   0  0  0  0  0  0  0  0  0  0  0  0
    0.3249   -4.3017    3.3752 H   0  0  0  0  0  0  0  0  0  0  0  0
   -0.5315   -3.9605    5.6869 H   0  0  0  0  0  0  0  0  0  0  0  0
   -1.1894   -1.6741    6.3880 H   0  0  0  0  0  0  0  0  0  0  0  0
   -1.0431    1.6748    1.6602 H   0  0  0  0  0  0  0  0  0  0  0  0
   -0.7425    1.6484    3.3967 H   0  0  0  0  0  0  0  0  0  0  0  0
    1.2133    1.9628    0.0779 H   0  0  0  0  0  0  0  0  0  0  0  0
    3.2769    2.8771   -0.2147 H   0  0  0  0  0  0  0  0  0  0  0  0
    3.3447    3.9806    3.9619 H   0  0  0  0  0  0  0  0  0  0  0  0
    0.9956    3.1979    4.1703 H   0  0  0  0  0  0  0  0  0  0  0  0
    5.5140    3.2187   -0.4373 H   0  0  0  0  0  0  0  0  0  0  0  0
    4.5403    4.6943   -0.7708 H   0  0  0  0  0  0  0  0  0  0  0  0
    6.2689    4.8284   -0.3848 H   0  0  0  0  0  0  0  0  0  0  0  0
    0.3464   -3.8612    0.4853 H   0  0  0  0  0  0  0  0  0  0  0  0
    1.3889   -2.7059   -0.3246 H   0  0  0  0  0  0  0  0  0  0  0  0
    4.0691   -3.3820    1.8550 H   0  0  0  0  0  0  0  0  0  0  0  0
  1  2  1  0  0  0  0
  1 26  1  0  0  0  0
  1 27  1  0  0  0  0
  1 28  1  0  0  0  0
  2  3  2  0  0  0  0
  2 10  1  0  0  0  0
  3  4  1  0  0  0  0
  3 22  1  0  0  0  0
  4  5  2  0  0  0  0
  4  9  1  0  0  0  0
  5  6  1  0  0  0  0
  5 29  1  0  0  0  0
  6  7  2  0  0  0  0
  6 30  1  0  0  0  0
  7  8  1  0  0  0  0
  7 31  1  0  0  0  0
  8  9  2  0  0  0  0
  9 10  1  0  0  0  0
 10 11  1  0  0  0  0
 11 12  1  0  0  0  0
 11 32  1  0  0  0  0
 11 33  1  0  0  0  0
 12 13  2  0  0  0  0
 12 17  1  0  0  0  0
 13 14  1  0  0  0  0
 13 34  1  0  0  0  0
 14 15  2  0  0  0  0
 14 35  1  0  0  0  0
 15 16  1  0  0  0  0
 15 18  1  0  0  0  0
 16 17  2  0  0  0  0
 16 36  1  0  0  0  0
 17 37  1  0  0  0  0
 18 19  2  0  0  0  0
 18 20  2  0  0  0  0
 18 21  1  0  0  0  0
 21 38  1  0  0  0  0
 21 39  1  0  0  0  0
 21 40  1  0  0  0  0
 22 23  1  0  0  0  0
 22 41  1  0  0  0  0
 22 42  1  0  0  0  0
 23 24  2  0  0  0  0
 23 25  1  0  0  0  0
 25 43  1  0  0  0  0
M  END
>  <DRUGBANK_ID>
DB11658

>  <COMMON_NAME>
QAV-680

>  <CAS_NUMBER>
872365-16-7

>  <UNII>
0E3D72URPD

$$$$
