
 OpenBabel10282417133D

 18 18  0  0  0  0  0  0  0  0999 V2000
    1.0936   -0.0307    0.0170 P   0  0  0  0  0  0  0  0  0  0  0  0
    1.2619    0.1457    1.5188 O   0  0  0  0  0  0  0  0  0  0  0  0
    1.1717    1.3567   -0.8190 O   0  0  0  0  0  0  0  0  0  0  0  0
   -0.6364   -0.0307    0.0170 O   0  0  0  0  0  0  0  0  0  0  0  0
    2.8236   -0.0307    0.0170 O   0  0  0  0  0  0  0  0  0  0  0  0
   -1.3704    0.2959    1.1403 C   0  0  0  0  0  0  0  0  0  0  0  0
   -3.2809   -0.1567    2.5541 C   0  0  0  0  0  0  0  0  0  0  0  0
   -2.9147    0.8866    3.4024 C   0  0  0  0  0  0  0  0  0  0  0  0
   -1.7782    1.6418    3.1183 C   0  0  0  0  0  0  0  0  0  0  0  0
   -1.0428    1.3707    1.9661 C   0  0  0  0  0  0  0  0  0  0  0  0
   -2.4948   -0.4792    1.4410 C   0  0  0  0  0  0  0  0  0  0  0  0
    2.1100    1.6135   -0.8885 H   0  0  0  0  0  0  0  0  0  0  0  0
    3.1411   -0.9521    0.0209 H   0  0  0  0  0  0  0  0  0  0  0  0
   -4.1863   -0.7238    2.7640 H   0  0  0  0  0  0  0  0  0  0  0  0
   -3.5069    1.1192    4.2826 H   0  0  0  0  0  0  0  0  0  0  0  0
   -1.4622    2.4387    3.7830 H   0  0  0  0  0  0  0  0  0  0  0  0
   -0.1688    1.9850    1.7559 H   0  0  0  0  0  0  0  0  0  0  0  0
   -2.7578   -1.3322    0.8264 H   0  0  0  0  0  0  0  0  0  0  0  0
  1  2  2  0  0  0  0
  1  3  1  0  0  0  0
  1  4  1  0  0  0  0
  1  5  1  0  0  0  0
  3 12  1  0  0  0  0
  4  6  1  0  0  0  0
  5 13  1  0  0  0  0
  6 11  1  0  0  0  0
  7  8  1  0  0  0  0
  7 11  2  0  0  0  0
  7 14  1  0  0  0  0
  8  9  2  0  0  0  0
  8 15  1  0  0  0  0
  9 10  1  0  0  0  0
  9 16  1  0  0  0  0
 10  6  2  0  0  0  0
 10 17  1  0  0  0  0
 11 18  1  0  0  0  0
M  END
>  <DRUGBANK_ID>
DB03298

>  <SECONDARY_ACCESSION_NUMBERS>
EXPT01775

>  <COMMON_NAME>
Phenylphosphate

>  <CAS_NUMBER>
701-64-4

>  <UNII>
75M88J863E

>  <SYNONYMS>
Monophenylphosphate; Phenolic phosphate; Phenyl phosphate; Phenylphosphoric acid; Phosphoric acid, monophenyl ester

$$$$
