440
 OpenBabel10282417103D

 39 40  0  0  0  0  0  0  0  0999 V2000
    1.0130   -0.1366   -0.1491 O   0  0  0  0  0  0  0  0  0  0  0  0
    0.7261    4.2490   -2.1310 O   0  0  0  0  0  0  0  0  0  0  0  0
    1.6923    1.5342   -2.2157 O   0  0  0  0  0  0  0  0  0  0  0  0
   -4.6899    0.3213    1.7650 N   0  0  0  0  0  0  0  0  0  0  0  0
   -5.7998    2.3597    1.3078 N   0  0  0  0  0  0  0  0  0  0  0  0
   -2.5709    0.2519    2.5960 N   0  0  0  0  0  0  0  0  0  0  0  0
   -6.9292    0.3424    1.2772 N   0  0  0  0  0  0  0  0  0  0  0  0
   -2.1320    3.0867    1.7467 C   0  0  0  0  0  0  0  0  0  0  0  0
   -1.1435    2.6900    0.6572 C   0  0  0  0  0  0  0  0  0  0  0  0
   -3.4347    2.3479    1.7371 C   0  0  0  0  0  0  0  0  0  0  0  0
   -0.6965    3.6449   -0.2560 C   0  0  0  0  0  0  0  0  0  0  0  0
   -0.5777    1.4132    0.5585 C   0  0  0  0  0  0  0  0  0  0  0  0
    0.4656    1.1153   -0.3063 C   0  0  0  0  0  0  0  0  0  0  0  0
    0.2742    3.3303   -1.2256 C   0  0  0  0  0  0  0  0  0  0  0  0
    0.8384    2.0392   -1.2744 C   0  0  0  0  0  0  0  0  0  0  0  0
   -3.5578    0.9914    1.9770 C   0  0  0  0  0  0  0  0  0  0  0  0
   -4.6218    2.9883    1.4359 C   0  0  0  0  0  0  0  0  0  0  0  0
   -5.7732    1.0309    1.4452 C   0  0  0  0  0  0  0  0  0  0  0  0
    2.4340   -0.1017    0.0145 C   0  0  0  0  0  0  0  0  0  0  0  0
    0.2258    5.5700   -2.0601 C   0  0  0  0  0  0  0  0  0  0  0  0
    2.0710    2.3599   -3.2949 C   0  0  0  0  0  0  0  0  0  0  0  0
   -2.6300   -0.7362    2.3758 H   0  0  0  0  0  0  0  0  0  0  0  0
   -1.6636    0.6484    2.7714 H   0  0  0  0  0  0  0  0  0  0  0  0
   -6.8842   -0.6573    1.3803 H   0  0  0  0  0  0  0  0  0  0  0  0
   -7.7729    0.8598    1.1074 H   0  0  0  0  0  0  0  0  0  0  0  0
   -1.6490    2.9921    2.7268 H   0  0  0  0  0  0  0  0  0  0  0  0
   -2.3399    4.1640    1.6517 H   0  0  0  0  0  0  0  0  0  0  0  0
   -1.1349    4.6369   -0.2107 H   0  0  0  0  0  0  0  0  0  0  0  0
   -0.9125    0.5634    1.1217 H   0  0  0  0  0  0  0  0  0  0  0  0
   -4.6697    4.0653    1.2928 H   0  0  0  0  0  0  0  0  0  0  0  0
    2.7683   -1.1098    0.2779 H   0  0  0  0  0  0  0  0  0  0  0  0
    2.9458    0.1610   -0.9126 H   0  0  0  0  0  0  0  0  0  0  0  0
    2.7372    0.5761    0.8221 H   0  0  0  0  0  0  0  0  0  0  0  0
   -0.8451    5.5870   -2.2826 H   0  0  0  0  0  0  0  0  0  0  0  0
    0.4457    6.0221   -1.0879 H   0  0  0  0  0  0  0  0  0  0  0  0
    0.7427    6.1520   -2.8264 H   0  0  0  0  0  0  0  0  0  0  0  0
    1.1985    2.6740   -3.8765 H   0  0  0  0  0  0  0  0  0  0  0  0
    2.6654    3.2013   -2.9291 H   0  0  0  0  0  0  0  0  0  0  0  0
    2.7121    1.7721   -3.9548 H   0  0  0  0  0  0  0  0  0  0  0  0
  1 13  1  0  0  0  0
  1 19  1  0  0  0  0
  2 14  1  0  0  0  0
  2 20  1  0  0  0  0
  3 15  1  0  0  0  0
  3 21  1  0  0  0  0
  4 16  2  0  0  0  0
  4 18  1  0  0  0  0
  5 17  1  0  0  0  0
  5 18  2  0  0  0  0
  6 16  1  0  0  0  0
  6 22  1  0  0  0  0
  6 23  1  0  0  0  0
  7 18  1  0  0  0  0
  7 24  1  0  0  0  0
  7 25  1  0  0  0  0
  8  9  1  0  0  0  0
  8 10  1  0  0  0  0
  8 26  1  0  0  0  0
  8 27  1  0  0  0  0
  9 11  2  0  0  0  0
  9 12  1  0  0  0  0
 10 16  1  0  0  0  0
 10 17  2  0  0  0  0
 11 14  1  0  0  0  0
 11 28  1  0  0  0  0
 12 13  2  0  0  0  0
 12 29  1  0  0  0  0
 13 15  1  0  0  0  0
 14 15  2  0  0  0  0
 17 30  1  0  0  0  0
 19 31  1  0  0  0  0
 19 32  1  0  0  0  0
 19 33  1  0  0  0  0
 20 34  1  0  0  0  0
 20 35  1  0  0  0  0
 20 36  1  0  0  0  0
 21 37  1  0  0  0  0
 21 38  1  0  0  0  0
 21 39  1  0  0  0  0
M  END
>  <DRUGBANK_ID>
DB00440

>  <SECONDARY_ACCESSION_NUMBERS>
APRD00103

>  <COMMON_NAME>
Trimethoprim

>  <CAS_NUMBER>
738-70-5

>  <UNII>
AN164J8Y0X

>  <SYNONYMS>
2,4-diamino-5-(3,4,5-trimethoxybenzyl)pyrimidine; 5-[(3,4,5-trimethoxyphenyl)methyl]-2,4-pyrimidinediamine; Trimethoprim; Trim√©thoprime; Trimethoprimum; Trimetoprima

$$$$
