
 OpenBabel10282417213D

 59 58  0  0  0  0  0  0  0  0999 V2000
    1.1196   -0.0942    0.0147 N   0  3  0  0  0  0  0  0  0  0  0  0
    0.6078    1.1814    0.7225 C   0  0  0  0  0  0  0  0  0  0  0  0
    0.6523   -0.1571   -1.4410 C   0  0  0  0  0  0  0  0  0  0  0  0
    0.5629   -1.2293    0.8811 C   0  0  0  0  0  0  0  0  0  0  0  0
    2.6344   -0.1211    0.0463 C   0  0  0  0  0  0  0  0  0  0  0  0
    1.0848    2.4920    0.0993 C   0  0  0  0  0  0  0  0  0  0  0  0
    1.1107   -1.3295   -2.2897 C   0  0  0  0  0  0  0  0  0  0  0  0
    0.5066    2.8371   -1.2719 C   0  0  0  0  0  0  0  0  0  0  0  0
    0.4843   -2.6373   -1.8734 C   0  0  0  0  0  0  0  0  0  0  0  0
   -1.0185    2.7050   -1.2895 C   0  0  0  0  0  0  0  0  0  0  0  0
   -1.0412   -2.5097   -1.8130 C   0  0  0  0  0  0  0  0  0  0  0  0
   -1.6207    3.8365   -0.4666 C   0  0  0  0  0  0  0  0  0  0  0  0
   -1.6097   -2.3083   -3.2192 C   0  0  0  0  0  0  0  0  0  0  0  0
   -1.2141    5.1950   -1.0467 C   0  0  0  0  0  0  0  0  0  0  0  0
   -1.2034   -3.4715   -4.1293 C   0  0  0  0  0  0  0  0  0  0  0  0
   -1.6239    5.3268   -2.5159 C   0  0  0  0  0  0  0  0  0  0  0  0
   -1.6229   -4.8173   -3.5305 C   0  0  0  0  0  0  0  0  0  0  0  0
   -3.1353    5.2496   -2.6396 C   0  0  0  0  0  0  0  0  0  0  0  0
   -3.1350   -4.8800   -3.3992 C   0  0  0  0  0  0  0  0  0  0  0  0
   -0.4832    1.1084    0.7898 H   0  0  0  0  0  0  0  0  0  0  0  0
    0.9759    1.1339    1.7556 H   0  0  0  0  0  0  0  0  0  0  0  0
   -0.4114    0.0282   -1.4885 H   0  0  0  0  0  0  0  0  0  0  0  0
    1.1779    0.6437   -1.9523 H   0  0  0  0  0  0  0  0  0  0  0  0
    1.0867   -2.1515    0.6527 H   0  0  0  0  0  0  0  0  0  0  0  0
    0.7764   -1.0102    1.9315 H   0  0  0  0  0  0  0  0  0  0  0  0
   -0.5158   -1.2983    0.7342 H   0  0  0  0  0  0  0  0  0  0  0  0
    3.0072    0.7286   -0.5361 H   0  0  0  0  0  0  0  0  0  0  0  0
    2.9605   -0.0683    1.0811 H   0  0  0  0  0  0  0  0  0  0  0  0
    2.9774   -1.0486   -0.4170 H   0  0  0  0  0  0  0  0  0  0  0  0
    0.7965    3.2906    0.7959 H   0  0  0  0  0  0  0  0  0  0  0  0
    2.1739    2.5467    0.0711 H   0  0  0  0  0  0  0  0  0  0  0  0
    0.8182   -1.1022   -3.3270 H   0  0  0  0  0  0  0  0  0  0  0  0
    2.1948   -1.3963   -2.3408 H   0  0  0  0  0  0  0  0  0  0  0  0
    0.8501    3.8377   -1.5335 H   0  0  0  0  0  0  0  0  0  0  0  0
    0.9463    2.3084   -2.1107 H   0  0  0  0  0  0  0  0  0  0  0  0
    0.8184   -3.4093   -2.5714 H   0  0  0  0  0  0  0  0  0  0  0  0
    0.8923   -3.0030   -0.9408 H   0  0  0  0  0  0  0  0  0  0  0  0
   -1.3835    2.6940   -2.3217 H   0  0  0  0  0  0  0  0  0  0  0  0
   -1.3859    1.7558   -0.8917 H   0  0  0  0  0  0  0  0  0  0  0  0
   -1.4608   -3.3874   -1.3143 H   0  0  0  0  0  0  0  0  0  0  0  0
   -1.3875   -1.6850   -1.1839 H   0  0  0  0  0  0  0  0  0  0  0  0
   -2.7079    3.7247   -0.4273 H   0  0  0  0  0  0  0  0  0  0  0  0
   -1.2946    3.7628    0.5765 H   0  0  0  0  0  0  0  0  0  0  0  0
   -2.6972   -2.2041   -3.1648 H   0  0  0  0  0  0  0  0  0  0  0  0
   -1.2669   -1.3606   -3.6514 H   0  0  0  0  0  0  0  0  0  0  0  0
   -1.6542    5.9933   -0.4456 H   0  0  0  0  0  0  0  0  0  0  0  0
   -0.1342    5.3557   -0.9578 H   0  0  0  0  0  0  0  0  0  0  0  0
   -1.6412   -3.3345   -5.1213 H   0  0  0  0  0  0  0  0  0  0  0  0
   -0.1208   -3.4682   -4.3015 H   0  0  0  0  0  0  0  0  0  0  0  0
   -1.2536    6.2749   -2.9143 H   0  0  0  0  0  0  0  0  0  0  0  0
   -1.1625    4.5528   -3.1426 H   0  0  0  0  0  0  0  0  0  0  0  0
   -1.2558   -5.6308   -4.1611 H   0  0  0  0  0  0  0  0  0  0  0  0
   -1.1629   -4.9881   -2.5489 H   0  0  0  0  0  0  0  0  0  0  0  0
   -3.5928    6.0291   -2.0237 H   0  0  0  0  0  0  0  0  0  0  0  0
   -3.4480    5.3780   -3.6762 H   0  0  0  0  0  0  0  0  0  0  0  0
   -3.5242    4.2825   -2.3033 H   0  0  0  0  0  0  0  0  0  0  0  0
   -3.5942   -4.7336   -4.3808 H   0  0  0  0  0  0  0  0  0  0  0  0
   -3.4499   -5.8409   -2.9913 H   0  0  0  0  0  0  0  0  0  0  0  0
   -3.5220   -4.1054   -2.7281 H   0  0  0  0  0  0  0  0  0  0  0  0
  1  2  1  0  0  0  0
  1  3  1  0  0  0  0
  1  4  1  0  0  0  0
  1  5  1  0  0  0  0
  2  6  1  0  0  0  0
  2 20  1  0  0  0  0
  2 21  1  0  0  0  0
  3  7  1  0  0  0  0
  3 22  1  0  0  0  0
  3 23  1  0  0  0  0
  4 24  1  0  0  0  0
  4 25  1  0  0  0  0
  4 26  1  0  0  0  0
  5 27  1  0  0  0  0
  5 28  1  0  0  0  0
  5 29  1  0  0  0  0
  6  8  1  0  0  0  0
  6 30  1  0  0  0  0
  6 31  1  0  0  0  0
  7  9  1  0  0  0  0
  7 32  1  0  0  0  0
  7 33  1  0  0  0  0
  8 10  1  0  0  0  0
  8 34  1  0  0  0  0
  8 35  1  0  0  0  0
  9 11  1  0  0  0  0
  9 36  1  0  0  0  0
  9 37  1  0  0  0  0
 10 12  1  0  0  0  0
 10 38  1  0  0  0  0
 10 39  1  0  0  0  0
 11 13  1  0  0  0  0
 11 40  1  0  0  0  0
 11 41  1  0  0  0  0
 12 14  1  0  0  0  0
 12 42  1  0  0  0  0
 12 43  1  0  0  0  0
 13 15  1  0  0  0  0
 13 44  1  0  0  0  0
 13 45  1  0  0  0  0
 14 16  1  0  0  0  0
 14 46  1  0  0  0  0
 14 47  1  0  0  0  0
 15 17  1  0  0  0  0
 15 48  1  0  0  0  0
 15 49  1  0  0  0  0
 16 18  1  0  0  0  0
 16 50  1  0  0  0  0
 16 51  1  0  0  0  0
 17 19  1  0  0  0  0
 17 52  1  0  0  0  0
 17 53  1  0  0  0  0
 18 54  1  0  0  0  0
 18 55  1  0  0  0  0
 18 56  1  0  0  0  0
 19 57  1  0  0  0  0
 19 58  1  0  0  0  0
 19 59  1  0  0  0  0
M  CHG  1   1   1
M  END
>  <DRUGBANK_ID>
DB13970

>  <COMMON_NAME>
Dioctyldimonium

>  <CAS_NUMBER>
20256-55-7

>  <UNII>
3535D7RPGW

>  <SYNONYMS>
Dimethyldioctylammonium; Dioctyldimonium cation; Dioctyldimonium ion

$$$$
