
 OpenBabel10282417123D

 27 27  0  0  1  0  0  0  0  0999 V2000
    0.8679   -0.0241   -0.1783 C   0  0  0  0  0  0  0  0  0  0  0  0
    0.3201   -1.1790    0.4729 O   0  0  0  0  0  0  0  0  0  0  0  0
    1.1321   -2.3359    0.2391 C   0  0  2  0  0  0  0  0  0  0  0  0
    0.3988   -3.5677    0.3521 O   0  0  0  0  0  0  0  0  0  0  0  0
    0.0073   -4.0124    1.6665 C   0  0  2  0  0  0  0  0  0  0  0  0
   -1.2496   -3.2462    2.1405 C   0  0  0  0  0  0  0  0  0  0  0  0
   -2.3246   -3.4797    1.2296 O   0  0  0  0  0  0  0  0  0  0  0  0
    1.1625   -3.9850    2.6888 C   0  0  1  0  0  0  0  0  0  0  0  0
    2.3629   -5.3994    2.5319 S   0  0  0  0  0  0  0  0  0  0  0  0
    1.9028   -2.6434    2.6187 C   0  0  2  0  0  0  0  0  0  0  0  0
    1.0532   -1.6125    3.1548 O   0  0  0  0  0  0  0  0  0  0  0  0
    2.3491   -2.3057    1.1853 C   0  0  1  0  0  0  0  0  0  0  0  0
    3.3818   -3.1533    0.6916 O   0  0  0  0  0  0  0  0  0  0  0  0
    0.4677    0.8747    0.2976 H   0  0  0  0  0  0  0  0  0  0  0  0
    0.5885   -0.0320   -1.2346 H   0  0  0  0  0  0  0  0  0  0  0  0
    1.9596    0.0213   -0.1056 H   0  0  0  0  0  0  0  0  0  0  0  0
    1.4615   -2.3193   -0.8065 H   0  0  0  0  0  0  0  0  0  0  0  0
   -0.3173   -5.0533    1.5319 H   0  0  0  0  0  0  0  0  0  0  0  0
   -1.5665   -3.5744    3.1354 H   0  0  0  0  0  0  0  0  0  0  0  0
   -1.1251   -2.1656    2.1722 H   0  0  0  0  0  0  0  0  0  0  0  0
   -2.0138   -3.1374    0.3696 H   0  0  0  0  0  0  0  0  0  0  0  0
    0.7465   -4.1198    3.6930 H   0  0  0  0  0  0  0  0  0  0  0  0
    2.0651   -5.8384    1.2996 H   0  0  0  0  0  0  0  0  0  0  0  0
    2.7759   -2.6646    3.2790 H   0  0  0  0  0  0  0  0  0  0  0  0
    0.5816   -1.1700    2.4164 H   0  0  0  0  0  0  0  0  0  0  0  0
    2.7792   -1.3007    1.2167 H   0  0  0  0  0  0  0  0  0  0  0  0
    3.0622   -4.0775    0.7449 H   0  0  0  0  0  0  0  0  0  0  0  0
  1  2  1  0  0  0  0
  1 14  1  0  0  0  0
  1 15  1  0  0  0  0
  1 16  1  0  0  0  0
  3  2  1  0  0  0  0
  3  4  1  0  0  0  0
  3 12  1  0  0  0  0
  3 17  1  6  0  0  0
  4  5  1  0  0  0  0
  5  6  1  0  0  0  0
  5  8  1  0  0  0  0
  5 18  1  6  0  0  0
  6  7  1  0  0  0  0
  6 19  1  0  0  0  0
  6 20  1  0  0  0  0
  7 21  1  0  0  0  0
  8 10  1  0  0  0  0
  8 22  1  1  0  0  0
  8  9  1  0  0  0  0
  9 23  1  0  0  0  0
 10 11  1  0  0  0  0
 10 12  1  0  0  0  0
 10 24  1  1  0  0  0
 11 25  1  0  0  0  0
 12 13  1  0  0  0  0
 12 26  1  1  0  0  0
 13 27  1  0  0  0  0
M  END
>  <DRUGBANK_ID>
DB01648

>  <SECONDARY_ACCESSION_NUMBERS>
EXPT01657

>  <COMMON_NAME>
Methyl 4-thio-beta-D-glucopyranoside

>  <SYNONYMS>
Methyl 4-thio-Î²-D-glucopyranoside

$$$$
