
 OpenBabel10282417153D

 30 31  0  0  1  0  0  0  0  0999 V2000
    2.9162   -0.5466    1.0144 F   0  0  0  0  0  0  0  0  0  0  0  0
    3.4598    2.0811   -2.6713 O   0  0  0  0  0  0  0  0  0  0  0  0
    5.0881    0.8066    0.1245 O   0  0  0  0  0  0  0  0  0  0  0  0
    5.8583    2.5999   -4.1330 O   0  0  0  0  0  0  0  0  0  0  0  0
    0.2188    0.5704   -3.8467 O   0  0  0  0  0  0  0  0  0  0  0  0
    2.4224    0.0803   -3.4626 N   0  0  0  0  0  0  0  0  0  0  0  0
    1.2006   -0.9246   -5.2567 N   0  0  0  0  0  0  0  0  0  0  0  0
    2.1808   -2.6083   -6.5060 N   0  0  0  0  0  0  0  0  0  0  0  0
    4.7638    1.7042   -2.1459 C   0  0  1  0  0  0  0  0  0  0  0  0
    4.5423    0.5400   -1.1555 C   0  0  2  0  0  0  0  0  0  0  0  0
    2.5046    1.0490   -2.3521 C   0  0  1  0  0  0  0  0  0  0  0  0
    3.0487    0.4159   -1.1087 C   0  0  0  0  0  0  0  0  0  0  0  0
    5.6578    1.4088   -3.3703 C   0  0  0  0  0  0  0  0  0  0  0  0
    2.3220   -0.0425   -0.0849 C   0  0  0  0  0  0  0  0  0  0  0  0
    3.4333   -0.8132   -3.7123 C   0  0  0  0  0  0  0  0  0  0  0  0
    1.2215   -0.0479   -4.1770 C   0  0  0  0  0  0  0  0  0  0  0  0
    3.3716   -1.7735   -4.6138 C   0  0  0  0  0  0  0  0  0  0  0  0
    2.1896   -1.7350   -5.4626 C   0  0  0  0  0  0  0  0  0  0  0  0
    4.5875    0.2664    0.7655 H   0  0  0  0  0  0  0  0  0  0  0  0
    4.9673    2.8589   -4.4435 H   0  0  0  0  0  0  0  0  0  0  0  0
    3.0064   -3.1400   -6.7524 H   0  0  0  0  0  0  0  0  0  0  0  0
    1.4449   -2.5327   -7.1934 H   0  0  0  0  0  0  0  0  0  0  0  0
    5.1900    2.5698   -1.6256 H   0  0  0  0  0  0  0  0  0  0  0  0
    5.0152   -0.3890   -1.4805 H   0  0  0  0  0  0  0  0  0  0  0  0
    1.5393    1.5357   -2.1670 H   0  0  0  0  0  0  0  0  0  0  0  0
    6.6243    0.9905   -3.0820 H   0  0  0  0  0  0  0  0  0  0  0  0
    5.2125    0.7359   -4.0993 H   0  0  0  0  0  0  0  0  0  0  0  0
    1.2449   -0.0685    0.0132 H   0  0  0  0  0  0  0  0  0  0  0  0
    4.3395   -0.7854   -3.1520 H   0  0  0  0  0  0  0  0  0  0  0  0
    4.1632   -2.4954   -4.7324 H   0  0  0  0  0  0  0  0  0  0  0  0
  1 14  1  0  0  0  0
  2  9  1  0  0  0  0
  2 11  1  0  0  0  0
  3 19  1  0  0  0  0
  4 13  1  0  0  0  0
  4 20  1  0  0  0  0
  5 16  2  0  0  0  0
  6 15  1  0  0  0  0
  6 16  1  0  0  0  0
  7 16  1  0  0  0  0
  7 18  2  0  0  0  0
  8 18  1  0  0  0  0
  8 21  1  0  0  0  0
  8 22  1  0  0  0  0
  9 10  1  0  0  0  0
  9 13  1  0  0  0  0
  9 23  1  1  0  0  0
 10 12  1  0  0  0  0
 10 24  1  6  0  0  0
 10  3  1  0  0  0  0
 11 12  1  0  0  0  0
 11 25  1  1  0  0  0
 11  6  1  0  0  0  0
 12 14  2  0  0  0  0
 13 26  1  0  0  0  0
 13 27  1  0  0  0  0
 14 28  1  0  0  0  0
 15 17  2  0  0  0  0
 15 29  1  0  0  0  0
 17 18  1  0  0  0  0
 17 30  1  0  0  0  0
M  END
>  <DRUGBANK_ID>
DB06433

>  <COMMON_NAME>
Tezacitabine

>  <CAS_NUMBER>
171176-43-5

>  <UNII>
7607Y95N9S

>  <SYNONYMS>
2'-Deoxy-2'-(fluoromethylene)cytidine; Tezacitabine

$$$$
