11979494
 OpenBabel10282417173D

214228  0  0  1  0  0  0  0  0999 V2000
    1.2065    0.3741    1.7719 O   0  0  0  0  0  0  0  0  0  0  0  0
    4.2218   -0.3991    0.5191 O   0  0  0  0  0  0  0  0  0  0  0  0
    3.0031   -2.2614    4.5407 O   0  0  0  0  0  0  0  0  0  0  0  0
    7.1554    1.8099    1.0820 O   0  0  0  0  0  0  0  0  0  0  0  0
    3.8452   -2.3424    0.1086 O   0  0  0  0  0  0  0  0  0  0  0  0
    1.8688    0.1528   -0.3907 O   0  0  0  0  0  0  0  0  0  0  0  0
    1.9483    8.0246    0.0199 O   0  0  0  0  0  0  0  0  0  0  0  0
    4.3607    3.5560    6.1909 O   0  0  0  0  0  0  0  0  0  0  0  0
    4.4586    8.2244    0.1009 O   0  0  0  0  0  0  0  0  0  0  0  0
    4.8224    1.5232    7.3724 O   0  0  0  0  0  0  0  0  0  0  0  0
    7.2063    4.0004    3.1679 O   0  0  0  0  0  0  0  0  0  0  0  0
    0.1870    5.2405   -3.6335 O   0  0  0  0  0  0  0  0  0  0  0  0
    5.1011    3.1080   -2.3551 O   0  0  0  0  0  0  0  0  0  0  0  0
   -1.7869    0.8266   -2.7655 O   0  0  0  0  0  0  0  0  0  0  0  0
   -0.1522    0.0390    0.5286 O   0  0  0  0  0  0  0  0  0  0  0  0
    0.8185   -0.9471   -1.1200 O   0  0  0  0  0  0  0  0  0  0  0  0
   -1.7478    3.1252   -4.2842 O   0  0  0  0  0  0  0  0  0  0  0  0
    7.2386    5.5544   -0.3039 O   0  0  0  0  0  0  0  0  0  0  0  0
    1.6795    2.2409   -4.6444 O   0  0  0  0  0  0  0  0  0  0  0  0
   -2.8718   -2.8697    0.1120 O   0  0  0  0  0  0  0  0  0  0  0  0
    5.1957    0.5973   -1.7849 O   0  0  0  0  0  0  0  0  0  0  0  0
   -0.2793   -1.2275    3.1463 O   0  0  0  0  0  0  0  0  0  0  0  0
   -0.7461    5.7012    2.6997 O   0  0  0  0  0  0  0  0  0  0  0  0
    4.1804   -5.4330   -1.8169 O   0  0  0  0  0  0  0  0  0  0  0  0
    4.3366   -3.4761   -3.2101 O   0  0  0  0  0  0  0  0  0  0  0  0
   -2.1500    3.7509    3.0256 O   0  0  0  0  0  0  0  0  0  0  0  0
    1.1894   -1.7245    1.2539 O   0  0  0  0  0  0  0  0  0  0  0  0
    3.7616    1.5140    0.0821 O   0  0  0  0  0  0  0  0  0  0  0  0
    4.0006    5.1667    3.6256 O   0  0  0  0  0  0  0  0  0  0  0  0
    4.7716   -4.5926    2.9186 O   0  0  0  0  0  0  0  0  0  0  0  0
    7.0811    4.2868   -1.4829 O   0  0  0  0  0  0  0  0  0  0  0  0
    0.6948   -4.9395    5.5311 O   0  0  0  0  0  0  0  0  0  0  0  0
    3.4847   -5.1670    5.3529 O   0  0  0  0  0  0  0  0  0  0  0  0
    6.6950    6.3707    1.5835 O   0  0  0  0  0  0  0  0  0  0  0  0
    2.8073   -1.2060    2.6155 C   0  0  3  0  0  0  0  0  0  0  0  0
    5.2750    0.6939    0.4416 C   0  0  3  0  0  0  0  0  0  0  0  0
    2.9585   -0.0324    1.8852 C   0  0  3  0  0  0  0  0  0  0  0  0
    3.4945    0.1365   -0.5724 C   0  0  3  0  0  0  0  0  0  0  0  0
    2.1338    1.9707   -0.2003 C   0  0  3  0  0  0  0  0  0  0  0  0
    2.8247    1.4885    2.4720 C   0  0  3  0  0  0  0  0  0  0  0  0
    5.7484    2.2870    0.6589 C   0  0  3  0  0  0  0  0  0  0  0  0
    3.7097   -1.3889    3.7190 C   0  0  3  0  0  0  0  0  0  0  0  0
    3.1699    1.1813    3.9172 C   0  0  0  0  0  0  0  0  0  0  0  0
    2.6901    3.7201    0.6400 C   0  0  0  0  0  0  0  0  0  0  0  0
    4.9291    0.5384    1.7740 C   0  0  0  0  0  0  0  0  0  0  0  0
    1.6312   -0.4774    2.9355 C   0  0  0  0  0  0  0  0  0  0  0  0
    3.7324   -0.0523    4.3715 C   0  0  0  0  0  0  0  0  0  0  0  0
    4.5620    4.0828    0.8384 C   0  0  0  0  0  0  0  0  0  0  0  0
    3.8909   -1.2878   -0.4170 C   0  0  0  0  0  0  0  0  0  0  0  0
    2.0634    0.1049    0.8012 C   0  0  0  0  0  0  0  0  0  0  0  0
    0.6022    2.7891   -1.4232 C   0  0  0  0  0  0  0  0  0  0  0  0
    4.0635    2.5738    1.6293 C   0  0  0  0  0  0  0  0  0  0  0  0
    3.2992    2.4134    4.4558 C   0  0  0  0  0  0  0  0  0  0  0  0
    1.8629    5.4502    0.1046 C   0  0  0  0  0  0  0  0  0  0  0  0
    4.2369    0.0158    5.5920 C   0  0  0  0  0  0  0  0  0  0  0  0
    4.5167    6.1590    0.4120 C   0  0  0  0  0  0  0  0  0  0  0  0
    4.0235    2.4430    5.5435 C   0  0  0  0  0  0  0  0  0  0  0  0
    2.4628    6.8450    0.0393 C   0  0  0  0  0  0  0  0  0  0  0  0
    4.3746    1.2648    6.1335 C   0  0  0  0  0  0  0  0  0  0  0  0
    3.7684    7.1400    0.1880 C   0  0  0  0  0  0  0  0  0  0  0  0
    4.4058    2.9471   -0.3028 C   0  0  0  0  0  0  0  0  0  0  0  0
   -0.4390    1.9639   -1.8095 C   0  0  0  0  0  0  0  0  0  0  0  0
    5.2433    2.9906    2.6299 C   0  0  0  0  0  0  0  0  0  0  0  0
    0.3112    4.2597   -1.8324 C   0  0  0  0  0  0  0  0  0  0  0  0
    1.4268    1.0912   -2.1075 C   0  0  3  0  0  0  0  0  0  0  0  0
   -0.8592   -1.9253    0.0037 C   0  0  3  0  0  0  0  0  0  0  0  0
    2.6838    1.9835   -2.0242 C   0  0  3  0  0  0  0  0  0  0  0  0
   -0.5497   -2.6872    1.2337 C   0  0  3  0  0  0  0  0  0  0  0  0
    0.4479   -3.7839    0.8687 C   0  0  3  0  0  0  0  0  0  0  0  0
    2.1843    3.7668   -1.1839 C   0  0  3  0  0  0  0  0  0  0  0  0
   -0.4353    4.3321   -2.8401 C   0  0  0  0  0  0  0  0  0  0  0  0
    6.4894    3.6186    2.0820 C   0  0  0  0  0  0  0  0  0  0  0  0
   -1.5732    2.1161   -2.2708 C   0  0  0  0  0  0  0  0  0  0  0  0
    5.5085    3.1995   -1.0425 C   0  0  0  0  0  0  0  0  0  0  0  0
    0.1912   -2.0257   -1.1589 C   0  0  3  0  0  0  0  0  0  0  0  0
    0.2503    1.0655   -0.2864 C   0  0  3  0  0  0  0  0  0  0  0  0
    1.3655   -3.7428   -0.3304 C   0  0  0  0  0  0  0  0  0  0  0  0
    0.6824    3.6866    0.3060 C   0  0  0  0  0  0  0  0  0  0  0  0
    1.3724   -2.7959   -1.2728 C   0  0  0  0  0  0  0  0  0  0  0  0
   -0.0679    2.4286    0.5810 C   0  0  0  0  0  0  0  0  0  0  0  0
    5.0857    2.9349    7.2379 C   0  0  0  0  0  0  0  0  0  0  0  0
    3.2301    8.6727   -0.3163 C   0  0  0  0  0  0  0  0  0  0  0  0
    6.7770    3.8202    0.2696 C   0  0  0  0  0  0  0  0  0  0  0  0
   -1.3563    3.2560   -3.0039 C   0  0  0  0  0  0  0  0  0  0  0  0
    0.9231    1.7022   -3.6122 C   0  0  0  0  0  0  0  0  0  0  0  0
   -1.7898   -2.7160   -0.7100 C   0  0  0  0  0  0  0  0  0  0  0  0
    1.2575   -4.1971    2.0620 C   0  0  0  0  0  0  0  0  0  0  0  0
    3.4393    4.9392   -0.5921 C   0  0  0  0  0  0  0  0  0  0  0  0
    0.1848   -1.8469    1.9738 C   0  0  0  0  0  0  0  0  0  0  0  0
    4.1709    1.4503   -1.4193 C   0  0  0  0  0  0  0  0  0  0  0  0
    0.2964    4.7470    1.1263 C   0  0  0  0  0  0  0  0  0  0  0  0
    2.2434   -4.7216   -0.5968 C   0  0  0  0  0  0  0  0  0  0  0  0
   -1.1512    2.3670    1.3510 C   0  0  0  0  0  0  0  0  0  0  0  0
    2.3769   -2.5025   -2.2580 C   0  0  0  0  0  0  0  0  0  0  0  0
   -0.6184    4.6319    1.9475 C   0  0  0  0  0  0  0  0  0  0  0  0
    3.2138   -4.5386   -1.5467 C   0  0  0  0  0  0  0  0  0  0  0  0
   -1.3084    3.4984    2.0407 C   0  0  0  0  0  0  0  0  0  0  0  0
    3.3097   -3.4399   -2.3516 C   0  0  0  0  0  0  0  0  0  0  0  0
    0.5882   -4.3848    3.2344 C   0  0  0  0  0  0  0  0  0  0  0  0
    4.4108    5.1132   -1.5863 C   0  0  0  0  0  0  0  0  0  0  0  0
    2.6718   -4.2481    2.0489 C   0  0  0  0  0  0  0  0  0  0  0  0
    3.1868    5.2883    1.4784 C   0  0  0  0  0  0  0  0  0  0  0  0
    7.8186    5.1757    2.8836 C   0  0  0  0  0  0  0  0  0  0  0  0
   -0.7710    5.3538   -4.5863 C   0  0  0  0  0  0  0  0  0  0  0  0
    4.1063    3.2754   -3.3932 C   0  0  0  0  0  0  0  0  0  0  0  0
   -1.8038   -0.3210   -2.0378 C   0  0  0  0  0  0  0  0  0  0  0  0
    3.4193   -4.5989    3.1243 C   0  0  0  0  0  0  0  0  0  0  0  0
    4.3094    5.5318    2.3763 C   0  0  0  0  0  0  0  0  0  0  0  0
    1.3072   -4.7180    4.3440 C   0  0  0  0  0  0  0  0  0  0  0  0
    5.5912    5.0706   -0.6231 C   0  0  0  0  0  0  0  0  0  0  0  0
   -1.4890    4.9294    3.5662 C   0  0  0  0  0  0  0  0  0  0  0  0
    5.0085   -4.6240   -2.6687 C   0  0  0  0  0  0  0  0  0  0  0  0
    5.8330    5.4114    1.3635 C   0  0  0  0  0  0  0  0  0  0  0  0
    2.7102   -4.8532    4.2857 C   0  0  0  0  0  0  0  0  0  0  0  0
    6.5599    6.4351   -1.6792 C   0  0  0  0  0  0  0  0  0  0  0  0
   -2.5905    2.0279   -4.3887 C   0  0  0  0  0  0  0  0  0  0  0  0
    5.5320   -4.9800    4.0515 C   0  0  0  0  0  0  0  0  0  0  0  0
    5.1687    5.5420    4.2053 C   0  0  0  0  0  0  0  0  0  0  0  0
   -0.7024   -4.8530    5.6211 C   0  0  0  0  0  0  0  0  0  0  0  0
    7.5146    4.4181   -2.7767 C   0  0  0  0  0  0  0  0  0  0  0  0
    8.3249    6.2133    0.9781 C   0  0  0  0  0  0  0  0  0  0  0  0
    2.8731   -5.4458    6.5715 C   0  0  0  0  0  0  0  0  0  0  0  0
    2.1118   -1.8979    4.6630 H   0  0  0  0  0  0  0  0  0  0  0  0
    6.9862    1.8809    2.0095 H   0  0  0  0  0  0  0  0  0  0  0  0
    0.5801   -0.4836    0.8685 H   0  0  0  0  0  0  0  0  0  0  0  0
    1.7475   -1.0197   -0.8410 H   0  0  0  0  0  0  0  0  0  0  0  0
    2.0534    3.0148   -4.1951 H   0  0  0  0  0  0  0  0  0  0  0  0
   -2.5060   -3.3046    0.8870 H   0  0  0  0  0  0  0  0  0  0  0  0
    5.6411    1.3408   -2.1505 H   0  0  0  0  0  0  0  0  0  0  0  0
   -0.5585   -1.6735    3.9730 H   0  0  0  0  0  0  0  0  0  0  0  0
    2.8958   -2.0899    1.9383 H   0  0  0  0  0  0  0  0  0  0  0  0
    5.9568   -0.1150    0.3071 H   0  0  0  0  0  0  0  0  0  0  0  0
    3.9796   -0.8398    1.9522 H   0  0  0  0  0  0  0  0  0  0  0  0
    3.4408    0.0019   -1.8528 H   0  0  0  0  0  0  0  0  0  0  0  0
    1.8562    2.1955    0.9272 H   0  0  0  0  0  0  0  0  0  0  0  0
    1.8146    1.9447    2.6168 H   0  0  0  0  0  0  0  0  0  0  0  0
    6.4274    1.9452   -0.4804 H   0  0  0  0  0  0  0  0  0  0  0  0
    4.6418   -1.8006    3.2646 H   0  0  0  0  0  0  0  0  0  0  0  0
    5.6356    0.4144    2.4912 H   0  0  0  0  0  0  0  0  0  0  0  0
    4.5092    1.1897    2.5856 H   0  0  0  0  0  0  0  0  0  0  0  0
    1.4567   -1.5709    3.2221 H   0  0  0  0  0  0  0  0  0  0  0  0
    1.2218    0.2303    3.6053 H   0  0  0  0  0  0  0  0  0  0  0  0
    3.1869    3.2521    3.7859 H   0  0  0  0  0  0  0  0  0  0  0  0
    0.9892    5.5410   -0.4534 H   0  0  0  0  0  0  0  0  0  0  0  0
    4.4200   -0.9295    6.0464 H   0  0  0  0  0  0  0  0  0  0  0  0
    5.4781    6.6757    0.1849 H   0  0  0  0  0  0  0  0  0  0  0  0
    3.5474    2.9351   -0.8218 H   0  0  0  0  0  0  0  0  0  0  0  0
   -0.1848    0.7218   -1.8907 H   0  0  0  0  0  0  0  0  0  0  0  0
    5.3194    2.5752    3.5840 H   0  0  0  0  0  0  0  0  0  0  0  0
    1.0537    5.2154   -1.9303 H   0  0  0  0  0  0  0  0  0  0  0  0
    1.5760    0.1980   -2.6756 H   0  0  0  0  0  0  0  0  0  0  0  0
   -1.4413   -1.0419    0.4431 H   0  0  0  0  0  0  0  0  0  0  0  0
    2.9526    1.7892   -2.9839 H   0  0  0  0  0  0  0  0  0  0  0  0
   -1.2605   -2.6840    2.0360 H   0  0  0  0  0  0  0  0  0  0  0  0
   -0.3142   -4.4389    0.5293 H   0  0  0  0  0  0  0  0  0  0  0  0
    2.1716    4.2342   -2.1579 H   0  0  0  0  0  0  0  0  0  0  0  0
    0.2572   -1.4782   -2.0700 H   0  0  0  0  0  0  0  0  0  0  0  0
   -0.8101    0.8666   -0.4425 H   0  0  0  0  0  0  0  0  0  0  0  0
    6.1532    3.0685    7.0454 H   0  0  0  0  0  0  0  0  0  0  0  0
    4.8235    3.4378    8.1604 H   0  0  0  0  0  0  0  0  0  0  0  0
    3.3341    8.6097   -1.3943 H   0  0  0  0  0  0  0  0  0  0  0  0
    3.2433    9.4883    0.3288 H   0  0  0  0  0  0  0  0  0  0  0  0
   -0.0054    1.2934   -3.9305 H   0  0  0  0  0  0  0  0  0  0  0  0
    0.7733    2.6821   -3.3115 H   0  0  0  0  0  0  0  0  0  0  0  0
   -2.1141   -2.2813   -1.5939 H   0  0  0  0  0  0  0  0  0  0  0  0
   -1.2086   -3.5329   -1.1035 H   0  0  0  0  0  0  0  0  0  0  0  0
    0.6482    5.7936    1.3047 H   0  0  0  0  0  0  0  0  0  0  0  0
    2.2167   -5.5277    0.1012 H   0  0  0  0  0  0  0  0  0  0  0  0
   -1.6558    1.4298    1.3263 H   0  0  0  0  0  0  0  0  0  0  0  0
    2.4712   -1.5460   -2.7851 H   0  0  0  0  0  0  0  0  0  0  0  0
   -0.4802   -4.2411    3.2579 H   0  0  0  0  0  0  0  0  0  0  0  0
    4.7134    4.8798   -2.5800 H   0  0  0  0  0  0  0  0  0  0  0  0
    3.2606   -3.9308    1.1935 H   0  0  0  0  0  0  0  0  0  0  0  0
    2.3779    4.6059    2.1654 H   0  0  0  0  0  0  0  0  0  0  0  0
    8.2573    4.6464    2.0476 H   0  0  0  0  0  0  0  0  0  0  0  0
    7.6554    6.5221    2.8111 H   0  0  0  0  0  0  0  0  0  0  0  0
    8.4031    5.6101    3.6219 H   0  0  0  0  0  0  0  0  0  0  0  0
   -0.5707    4.5432   -5.2859 H   0  0  0  0  0  0  0  0  0  0  0  0
   -1.7512    5.3009   -4.0844 H   0  0  0  0  0  0  0  0  0  0  0  0
   -0.6451    6.3188   -4.9974 H   0  0  0  0  0  0  0  0  0  0  0  0
    4.2691    2.2880   -3.7388 H   0  0  0  0  0  0  0  0  0  0  0  0
    3.1083    3.4506   -3.0886 H   0  0  0  0  0  0  0  0  0  0  0  0
    3.8922    4.1087   -4.0699 H   0  0  0  0  0  0  0  0  0  0  0  0
   -1.0360   -0.9427   -2.4056 H   0  0  0  0  0  0  0  0  0  0  0  0
   -1.9409   -0.2439   -0.9779 H   0  0  0  0  0  0  0  0  0  0  0  0
   -2.5532   -0.9123   -2.4470 H   0  0  0  0  0  0  0  0  0  0  0  0
   -0.8027    4.6281    4.3530 H   0  0  0  0  0  0  0  0  0  0  0  0
   -2.2555    5.6094    3.8156 H   0  0  0  0  0  0  0  0  0  0  0  0
    5.8729   -4.2778   -2.0938 H   0  0  0  0  0  0  0  0  0  0  0  0
    5.3719   -5.2396   -3.4887 H   0  0  0  0  0  0  0  0  0  0  0  0
    6.2006    5.6083   -2.2465 H   0  0  0  0  0  0  0  0  0  0  0  0
    5.5104    6.8148   -1.7764 H   0  0  0  0  0  0  0  0  0  0  0  0
    7.4257    6.8475   -2.0040 H   0  0  0  0  0  0  0  0  0  0  0  0
   -1.9722    1.1547   -4.6618 H   0  0  0  0  0  0  0  0  0  0  0  0
   -3.2045    1.8686   -3.4666 H   0  0  0  0  0  0  0  0  0  0  0  0
   -3.2412    2.3245   -5.1409 H   0  0  0  0  0  0  0  0  0  0  0  0
    5.4132   -4.2513    4.8646 H   0  0  0  0  0  0  0  0  0  0  0  0
    5.2517   -5.9934    4.3671 H   0  0  0  0  0  0  0  0  0  0  0  0
    6.5870   -5.0061    3.7967 H   0  0  0  0  0  0  0  0  0  0  0  0
    5.8772    4.7519    4.2035 H   0  0  0  0  0  0  0  0  0  0  0  0
    5.5327    6.4571    3.7413 H   0  0  0  0  0  0  0  0  0  0  0  0
    4.9156    5.6388    5.2177 H   0  0  0  0  0  0  0  0  0  0  0  0
   -1.0179   -3.8264    5.4273 H   0  0  0  0  0  0  0  0  0  0  0  0
   -1.1733   -5.5581    4.9345 H   0  0  0  0  0  0  0  0  0  0  0  0
   -0.9802   -5.1181    6.6420 H   0  0  0  0  0  0  0  0  0  0  0  0
    7.1456    3.4224   -2.8529 H   0  0  0  0  0  0  0  0  0  0  0  0
    6.9638    5.1142   -3.4311 H   0  0  0  0  0  0  0  0  0  0  0  0
    8.4727    4.9067   -2.5652 H   0  0  0  0  0  0  0  0  0  0  0  0
    8.6028    5.0157    0.5308 H   0  0  0  0  0  0  0  0  0  0  0  0
    8.0299    7.0471    0.3763 H   0  0  0  0  0  0  0  0  0  0  0  0
    9.0121    6.4150    1.7515 H   0  0  0  0  0  0  0  0  0  0  0  0
    2.3688   -4.5502    6.9396 H   0  0  0  0  0  0  0  0  0  0  0  0
    2.2087   -6.3020    6.4461 H   0  0  0  0  0  0  0  0  0  0  0  0
    3.6496   -5.7161    7.2796 H   0  0  0  0  0  0  0  0  0  0  0  0
  1 46  1  0  0  0  0
  1 50  1  0  0  0  0
  2 45  1  0  0  0  0
  2 49  1  0  0  0  0
  3 42  1  0  0  0  0
  3123  1  0  0  0  0
  4 41  1  0  0  0  0
  4124  1  0  0  0  0
  5 49  2  0  0  0  0
  6 50  2  0  0  0  0
  7 58  1  0  0  0  0
  7 82  1  0  0  0  0
  8 57  1  0  0  0  0
  8 81  1  0  0  0  0
  9 60  1  0  0  0  0
  9 82  1  0  0  0  0
 10 59  1  0  0  0  0
 10 81  1  0  0  0  0
 11 72  1  0  0  0  0
 11103  1  0  0  0  0
 12 71  1  0  0  0  0
 12104  1  0  0  0  0
 13 74  1  0  0  0  0
 13105  1  0  0  0  0
 14 73  1  0  0  0  0
 14106  1  0  0  0  0
 15 76  1  0  0  0  0
 15125  1  0  0  0  0
 16 75  1  0  0  0  0
 16126  1  0  0  0  0
 17 84  1  0  0  0  0
 17116  1  0  0  0  0
 18 83  1  0  0  0  0
 18115  1  0  0  0  0
 19 85  1  0  0  0  0
 19127  1  0  0  0  0
 20 86  1  0  0  0  0
 20128  1  0  0  0  0
 21 90  1  0  0  0  0
 21129  1  0  0  0  0
 22 89  1  0  0  0  0
 22130  1  0  0  0  0
 23 95  1  0  0  0  0
 23111  1  0  0  0  0
 24 96  1  0  0  0  0
 24112  1  0  0  0  0
 25 98  1  0  0  0  0
 25112  1  0  0  0  0
 26 97  1  0  0  0  0
 26111  1  0  0  0  0
 27 89  2  0  0  0  0
 28 90  2  0  0  0  0
 29108  1  0  0  0  0
 29118  1  0  0  0  0
 30107  1  0  0  0  0
 30117  1  0  0  0  0
 31110  1  0  0  0  0
 31120  1  0  0  0  0
 32109  1  0  0  0  0
 32119  1  0  0  0  0
 33114  1  0  0  0  0
 33122  1  0  0  0  0
 34113  1  0  0  0  0
 34121  1  0  0  0  0
 35 37  1  0  0  0  0
 35 42  1  0  0  0  0
 35 46  1  0  0  0  0
 35131  1  0  0  0  0
 36 38  1  0  0  0  0
 36 41  1  0  0  0  0
 36 45  1  0  0  0  0
 36132  1  0  0  0  0
 37 40  1  0  0  0  0
 37 50  1  0  0  0  0
 37133  1  0  0  0  0
 38 39  1  0  0  0  0
 38 49  1  0  0  0  0
 38134  1  0  0  0  0
 39 44  1  0  0  0  0
 39 51  1  0  0  0  0
 39135  1  0  0  0  0
 40 43  1  0  0  0  0
 40 52  1  0  0  0  0
 40136  1  0  0  0  0
 41 48  1  0  0  0  0
 41137  1  0  0  0  0
 42 47  1  0  0  0  0
 42138  1  0  0  0  0
 43 47  1  0  0  0  0
 43 53  2  0  0  0  0
 44 48  1  0  0  0  0
 44 54  2  0  0  0  0
 45139  1  0  0  0  0
 45140  1  0  0  0  0
 46141  1  0  0  0  0
 46142  1  0  0  0  0
 47 55  2  0  0  0  0
 48 56  2  0  0  0  0
 51 62  2  0  0  0  0
 51 64  1  0  0  0  0
 52 61  2  0  0  0  0
 52 63  1  0  0  0  0
 53 57  1  0  0  0  0
 53143  1  0  0  0  0
 54 58  1  0  0  0  0
 54144  1  0  0  0  0
 55 59  1  0  0  0  0
 55145  1  0  0  0  0
 56 60  1  0  0  0  0
 56146  1  0  0  0  0
 57 59  2  0  0  0  0
 58 60  2  0  0  0  0
 61 74  1  0  0  0  0
 61147  1  0  0  0  0
 62 73  1  0  0  0  0
 62148  1  0  0  0  0
 63 72  2  0  0  0  0
 63149  1  0  0  0  0
 64 71  2  0  0  0  0
 64150  1  0  0  0  0
 65 67  1  0  0  0  0
 65 76  1  0  0  0  0
 65 85  1  0  0  0  0
 65151  1  0  0  0  0
 66 68  1  0  0  0  0
 66 75  1  0  0  0  0
 66 86  1  0  0  0  0
 66152  1  0  0  0  0
 67 70  1  0  0  0  0
 67 90  1  0  0  0  0
 67153  1  0  0  0  0
 68 69  1  0  0  0  0
 68 89  1  0  0  0  0
 68154  1  0  0  0  0
 69 77  1  0  0  0  0
 69 87  1  0  0  0  0
 69155  1  0  0  0  0
 70 78  1  0  0  0  0
 70 88  1  0  0  0  0
 70156  1  0  0  0  0
 71 84  1  0  0  0  0
 72 83  1  0  0  0  0
 73 84  2  0  0  0  0
 74 83  2  0  0  0  0
 75 79  1  0  0  0  0
 75157  1  0  0  0  0
 76 80  1  0  0  0  0
 76158  1  0  0  0  0
 77 79  1  0  0  0  0
 77 92  2  0  0  0  0
 78 80  1  0  0  0  0
 78 91  2  0  0  0  0
 79 94  2  0  0  0  0
 80 93  2  0  0  0  0
 81159  1  0  0  0  0
 81160  1  0  0  0  0
 82161  1  0  0  0  0
 82162  1  0  0  0  0
 85163  1  0  0  0  0
 85164  1  0  0  0  0
 86165  1  0  0  0  0
 86166  1  0  0  0  0
 87 99  2  0  0  0  0
 87101  1  0  0  0  0
 88100  2  0  0  0  0
 88102  1  0  0  0  0
 91 95  1  0  0  0  0
 91167  1  0  0  0  0
 92 96  1  0  0  0  0
 92168  1  0  0  0  0
 93 97  1  0  0  0  0
 93169  1  0  0  0  0
 94 98  1  0  0  0  0
 94170  1  0  0  0  0
 95 97  2  0  0  0  0
 96 98  2  0  0  0  0
 99109  1  0  0  0  0
 99171  1  0  0  0  0
100110  1  0  0  0  0
100172  1  0  0  0  0
101107  2  0  0  0  0
101173  1  0  0  0  0
102108  2  0  0  0  0
102174  1  0  0  0  0
103175  1  0  0  0  0
103176  1  0  0  0  0
103177  1  0  0  0  0
104178  1  0  0  0  0
104179  1  0  0  0  0
104180  1  0  0  0  0
105181  1  0  0  0  0
105182  1  0  0  0  0
105183  1  0  0  0  0
106184  1  0  0  0  0
106185  1  0  0  0  0
106186  1  0  0  0  0
107114  1  0  0  0  0
108113  1  0  0  0  0
109114  2  0  0  0  0
110113  2  0  0  0  0
111187  1  0  0  0  0
111188  1  0  0  0  0
112189  1  0  0  0  0
112190  1  0  0  0  0
115191  1  0  0  0  0
115192  1  0  0  0  0
115193  1  0  0  0  0
116194  1  0  0  0  0
116195  1  0  0  0  0
116196  1  0  0  0  0
117197  1  0  0  0  0
117198  1  0  0  0  0
117199  1  0  0  0  0
118200  1  0  0  0  0
118201  1  0  0  0  0
118202  1  0  0  0  0
119203  1  0  0  0  0
119204  1  0  0  0  0
119205  1  0  0  0  0
120206  1  0  0  0  0
120207  1  0  0  0  0
120208  1  0  0  0  0
121209  1  0  0  0  0
121210  1  0  0  0  0
121211  1  0  0  0  0
122212  1  0  0  0  0
122213  1  0  0  0  0
122214  1  0  0  0  0
M  END
>  <DRUGBANK_ID>
DB09094

>  <COMMON_NAME>
Podophyllin

>  <CAS_NUMBER>
9000-55-9

>  <UNII>
16902YVY2B

>  <SYNONYMS>
Podofillina; Podophyllum (resin); Podophyllum resin

$$$$
