
 OpenBabel10282417223D

 41 41  0  0  0  0  0  0  0  0999 V2000
    0.9968    0.0467    0.1468 C   0  0  0  0  0  0  0  0  0  0  0  0
    0.6417    1.4979    1.1734 S   0  0  0  0  0  0  0  0  0  0  0  0
    0.8619    0.8822    2.8134 C   0  0  0  0  0  0  0  0  0  0  0  0
    1.3066   -0.2375    3.0338 O   0  0  0  0  0  0  0  0  0  0  0  0
    0.5189    1.7972    3.9645 C   0  0  0  0  0  0  0  0  0  0  0  0
   -0.7873    2.3865    4.1654 C   0  0  0  0  0  0  0  0  0  0  0  0
   -1.9040    2.0238    3.2191 C   0  0  0  0  0  0  0  0  0  0  0  0
   -2.9945    1.0757    3.7584 C   0  0  0  0  0  0  0  0  0  0  0  0
   -3.6934    1.4307    5.0561 C   0  0  0  0  0  0  0  0  0  0  0  0
   -4.0570    0.9732    2.6642 C   0  0  0  0  0  0  0  0  0  0  0  0
   -1.0694    3.2301    5.3012 C   0  0  0  0  0  0  0  0  0  0  0  0
   -2.3971    3.9704    5.5558 C   0  0  0  0  0  0  0  0  0  0  0  0
   -2.8340    4.0852    6.7019 O   0  0  0  0  0  0  0  0  0  0  0  0
   -3.4088    4.6488    4.2708 S   0  0  0  0  0  0  0  0  0  0  0  0
   -5.1029    4.4242    5.0087 C   0  0  0  0  0  0  0  0  0  0  0  0
   -0.0870    3.2371    6.3059 C   0  0  0  0  0  0  0  0  0  0  0  0
    1.1563    2.6691    6.1069 N   0  0  0  0  0  0  0  0  0  0  0  0
    1.4845    2.0044    4.9483 C   0  0  0  0  0  0  0  0  0  0  0  0
    2.9520    1.5744    4.8074 C   0  0  0  0  0  0  0  0  0  0  0  0
    3.7993    2.6381    4.9690 F   0  0  0  0  0  0  0  0  0  0  0  0
    3.3344    0.6591    5.7426 F   0  0  0  0  0  0  0  0  0  0  0  0
    3.3167    1.0566    3.6024 F   0  0  0  0  0  0  0  0  0  0  0  0
   -0.2757    3.8499    7.6928 C   0  0  0  0  0  0  0  0  0  0  0  0
    0.0384    2.9748    8.6985 F   0  0  0  0  0  0  0  0  0  0  0  0
    0.5270    4.9373    7.8815 F   0  0  0  0  0  0  0  0  0  0  0  0
    0.6088    0.2273   -0.8634 H   0  0  0  0  0  0  0  0  0  0  0  0
    0.5497   -0.8878    0.5035 H   0  0  0  0  0  0  0  0  0  0  0  0
    2.0793   -0.0701    0.0720 H   0  0  0  0  0  0  0  0  0  0  0  0
   -2.2546    2.9382    2.7359 H   0  0  0  0  0  0  0  0  0  0  0  0
   -1.5276    1.4711    2.3652 H   0  0  0  0  0  0  0  0  0  0  0  0
   -2.5338    0.0979    3.9293 H   0  0  0  0  0  0  0  0  0  0  0  0
   -4.3321    2.2694    4.8522 H   0  0  0  0  0  0  0  0  0  0  0  0
   -4.3888    0.6733    5.4169 H   0  0  0  0  0  0  0  0  0  0  0  0
   -3.0085    1.6340    5.8785 H   0  0  0  0  0  0  0  0  0  0  0  0
   -3.6435    0.4831    1.7795 H   0  0  0  0  0  0  0  0  0  0  0  0
   -4.9202    0.4052    3.0164 H   0  0  0  0  0  0  0  0  0  0  0  0
   -4.4102    1.9687    2.3612 H   0  0  0  0  0  0  0  0  0  0  0  0
   -5.1804    3.7168    5.8492 H   0  0  0  0  0  0  0  0  0  0  0  0
   -5.4345    5.3898    5.3803 H   0  0  0  0  0  0  0  0  0  0  0  0
   -5.8140    4.0717    4.2461 H   0  0  0  0  0  0  0  0  0  0  0  0
   -1.2717    4.1817    7.9354 H   0  0  0  0  0  0  0  0  0  0  0  0
  1  2  1  0  0  0  0
  1 26  1  0  0  0  0
  1 27  1  0  0  0  0
  1 28  1  0  0  0  0
  2  3  1  0  0  0  0
  3  4  2  0  0  0  0
  3  5  1  0  0  0  0
  5  6  2  0  0  0  0
  5 18  1  0  0  0  0
  6  7  1  0  0  0  0
  6 11  1  0  0  0  0
  7  8  1  0  0  0  0
  7 29  1  0  0  0  0
  7 30  1  0  0  0  0
  8  9  1  0  0  0  0
  8 10  1  0  0  0  0
  8 31  1  0  0  0  0
  9 32  1  0  0  0  0
  9 33  1  0  0  0  0
  9 34  1  0  0  0  0
 10 35  1  0  0  0  0
 10 36  1  0  0  0  0
 10 37  1  0  0  0  0
 11 12  1  0  0  0  0
 11 16  2  0  0  0  0
 12 13  2  0  0  0  0
 12 14  1  0  0  0  0
 14 15  1  0  0  0  0
 15 38  1  0  0  0  0
 15 39  1  0  0  0  0
 15 40  1  0  0  0  0
 16 17  1  0  0  0  0
 16 23  1  0  0  0  0
 17 18  2  0  0  0  0
 18 19  1  0  0  0  0
 19 20  1  0  0  0  0
 19 21  1  0  0  0  0
 19 22  1  0  0  0  0
 23 24  1  0  0  0  0
 23 25  1  0  0  0  0
 23 41  1  0  0  0  0
M  END
>  <DRUGBANK_ID>
DB15230

>  <COMMON_NAME>
Dithiopyr

>  <CAS_NUMBER>
97886-45-8

>  <UNII>
2TXF17HAV1

>  <SYNONYMS>
DIMENSION

$$$$
