
 OpenBabel10282417223D

 86 89  0  0  0  0  0  0  0  0999 V2000
   -0.1007   -1.2086    0.0304 C   0  0  0  0  0  0  0  0  0  0  0  0
   -3.7582    3.7347   -0.1264 C   0  0  0  0  0  0  0  0  0  0  0  0
    1.1695   -6.9504    0.5262 C   0  0  0  0  0  0  0  0  0  0  0  0
   -4.8662    3.5693    0.6793 N   0  0  0  0  0  0  0  0  0  0  0  0
    0.6818   -0.0552    0.0100 N   0  0  0  0  0  0  0  0  0  0  0  0
    0.1070   -7.1721   -0.3700 N   0  0  0  0  0  0  0  0  0  0  0  0
    0.4710   -2.5786    0.0906 C   0  0  0  0  0  0  0  0  0  0  0  0
   -2.4813    2.9870   -0.0840 C   0  0  0  0  0  0  0  0  0  0  0  0
    0.0316   -4.9717    0.0563 C   0  0  0  0  0  0  0  0  0  0  0  0
   -1.4416    0.7068   -0.0250 C   0  0  0  0  0  0  0  0  0  0  0  0
   -5.3280    5.3966   -0.5612 C   0  0  0  0  0  0  0  0  0  0  0  0
   -4.0229    4.9011   -0.8683 C   0  0  0  0  0  0  0  0  0  0  0  0
   -1.4245   -0.7353   -0.0130 C   0  0  0  0  0  0  0  0  0  0  0  0
    1.0787   -5.5731    0.8017 C   0  0  0  0  0  0  0  0  0  0  0  0
   -0.1178    1.0686    0.0078 C   0  0  0  0  0  0  0  0  0  0  0  0
   -5.8058    4.5393    0.4048 C   0  0  0  0  0  0  0  0  0  0  0  0
   -0.5072   -5.9769   -0.6969 C   0  0  0  0  0  0  0  0  0  0  0  0
   -7.2487    6.9418   -0.6856 C   0  0  0  0  0  0  0  0  0  0  0  0
   -0.4163   -3.6507    0.0280 N   0  0  0  0  0  0  0  0  0  0  0  0
   -2.5541    1.5748   -0.0645 N   0  0  0  0  0  0  0  0  0  0  0  0
    2.2052   -7.8111    1.1815 C   0  0  0  0  0  0  0  0  0  0  0  0
   -5.9832    6.5214   -1.0967 N   0  0  0  0  0  0  0  0  0  0  0  0
    3.3847  -11.5078   -1.0500 C   0  0  0  0  0  0  0  0  0  0  0  0
   -7.8507    8.1569   -1.3029 C   0  0  0  0  0  0  0  0  0  0  0  0
   -1.4313    3.6073   -0.0856 O   0  0  0  0  0  0  0  0  0  0  0  0
    1.6756   -2.7805    0.1346 O   0  0  0  0  0  0  0  0  0  0  0  0
    3.1847  -12.6829   -1.5341 N   0  0  0  0  0  0  0  0  0  0  0  0
   -9.3676   10.3578   -2.3671 C   0  0  0  0  0  0  0  0  0  0  0  0
   -7.9491    6.3961    0.1649 O   0  0  0  0  0  0  0  0  0  0  0  0
    2.5943  -10.3473   -1.5116 C   0  0  0  0  0  0  0  0  0  0  0  0
   -9.8733   11.5386   -2.9124 N   0  0  0  0  0  0  0  0  0  0  0  0
    2.8982   -7.3998    2.1166 O   0  0  0  0  0  0  0  0  0  0  0  0
    2.5019   -9.1087    0.7861 N   0  0  0  0  0  0  0  0  0  0  0  0
   -7.9860    8.3118   -2.6713 C   0  0  0  0  0  0  0  0  0  0  0  0
   -8.5504    9.0398   -0.4714 C   0  0  0  0  0  0  0  0  0  0  0  0
   -9.3127   10.0989   -0.9970 C   0  0  0  0  0  0  0  0  0  0  0  0
   -8.8053    9.3449   -3.1685 C   0  0  0  0  0  0  0  0  0  0  0  0
    4.2909  -11.2654   -0.0800 N   0  0  0  0  0  0  0  0  0  0  0  0
    1.9007   -9.7649   -0.3187 C   0  0  0  0  0  0  0  0  0  0  0  0
   -0.4332   -8.3776   -0.9742 C   0  0  0  0  0  0  0  0  0  0  0  0
   -5.0217    2.6114    1.7524 C   0  0  0  0  0  0  0  0  0  0  0  0
    2.1290    0.0485   -0.0331 C   0  0  0  0  0  0  0  0  0  0  0  0
   -9.9538   14.9315   -3.5246 Cl  0  0  0  0  0  0  0  0  0  0  0  0
   -6.9863   10.9625   -4.8841 Cl  0  0  0  0  0  0  0  0  0  0  0  0
  -10.5590   12.5818   -2.0974 C   0  0  0  0  0  0  0  0  0  0  0  0
   -9.7218   11.7883   -4.3678 C   0  0  0  0  0  0  0  0  0  0  0  0
   -8.2938   12.1788   -4.8382 C   0  0  0  0  0  0  0  0  0  0  0  0
   -9.8585   13.9515   -2.0369 C   0  0  0  0  0  0  0  0  0  0  0  0
   -3.3119    5.3463   -1.5538 H   0  0  0  0  0  0  0  0  0  0  0  0
   -2.2997   -1.3704   -0.0254 H   0  0  0  0  0  0  0  0  0  0  0  0
    1.7134   -5.0616    1.5184 H   0  0  0  0  0  0  0  0  0  0  0  0
    0.3419    2.0495    0.0114 H   0  0  0  0  0  0  0  0  0  0  0  0
   -6.7412    4.5592    0.9504 H   0  0  0  0  0  0  0  0  0  0  0  0
   -1.2643   -5.9658   -1.4692 H   0  0  0  0  0  0  0  0  0  0  0  0
   -1.3672   -3.4873   -0.2561 H   0  0  0  0  0  0  0  0  0  0  0  0
   -3.4619    1.1390   -0.1254 H   0  0  0  0  0  0  0  0  0  0  0  0
   -5.4768    7.0675   -1.7835 H   0  0  0  0  0  0  0  0  0  0  0  0
    2.4543  -12.6612   -2.2565 H   0  0  0  0  0  0  0  0  0  0  0  0
    1.8100  -10.6469   -2.2254 H   0  0  0  0  0  0  0  0  0  0  0  0
    3.2142   -9.5941   -2.0059 H   0  0  0  0  0  0  0  0  0  0  0  0
    3.0056   -9.6463    1.4868 H   0  0  0  0  0  0  0  0  0  0  0  0
   -7.5074    7.6396   -3.3759 H   0  0  0  0  0  0  0  0  0  0  0  0
   -8.5223    8.9034    0.6073 H   0  0  0  0  0  0  0  0  0  0  0  0
   -9.8664   10.6893   -0.2771 H   0  0  0  0  0  0  0  0  0  0  0  0
   -8.9519    9.3574   -4.2455 H   0  0  0  0  0  0  0  0  0  0  0  0
    4.4561  -10.3228    0.2586 H   0  0  0  0  0  0  0  0  0  0  0  0
    4.8249  -12.0304    0.2983 H   0  0  0  0  0  0  0  0  0  0  0  0
    1.1454  -10.4545    0.0739 H   0  0  0  0  0  0  0  0  0  0  0  0
    1.5728   -8.9067   -0.8499 H   0  0  0  0  0  0  0  0  0  0  0  0
   -1.5169   -8.3556   -1.0173 H   0  0  0  0  0  0  0  0  0  0  0  0
   -0.0052   -8.4885   -1.9845 H   0  0  0  0  0  0  0  0  0  0  0  0
   -0.2496   -9.2302   -0.3371 H   0  0  0  0  0  0  0  0  0  0  0  0
   -5.1275    3.1493    2.6979 H   0  0  0  0  0  0  0  0  0  0  0  0
   -5.9063    2.0046    1.5450 H   0  0  0  0  0  0  0  0  0  0  0  0
   -4.1463    1.9683    1.8168 H   0  0  0  0  0  0  0  0  0  0  0  0
    2.4122    0.5245   -0.9758 H   0  0  0  0  0  0  0  0  0  0  0  0
    2.4672    0.6444    0.8184 H   0  0  0  0  0  0  0  0  0  0  0  0
    2.6228   -0.9140    0.0167 H   0  0  0  0  0  0  0  0  0  0  0  0
  -11.5994   12.6895   -2.4291 H   0  0  0  0  0  0  0  0  0  0  0  0
  -10.6450   12.2770   -1.0511 H   0  0  0  0  0  0  0  0  0  0  0  0
  -10.1639   10.9779   -4.9588 H   0  0  0  0  0  0  0  0  0  0  0  0
  -10.3664   12.6339   -4.6338 H   0  0  0  0  0  0  0  0  0  0  0  0
   -8.3625   12.5066   -5.8764 H   0  0  0  0  0  0  0  0  0  0  0  0
   -7.8956   12.9901   -4.2302 H   0  0  0  0  0  0  0  0  0  0  0  0
  -10.3483   14.5677   -1.2764 H   0  0  0  0  0  0  0  0  0  0  0  0
   -8.8054   13.8440   -1.7651 H   0  0  0  0  0  0  0  0  0  0  0  0
  1  5  1  0  0  0  0
  1  7  1  0  0  0  0
  1 13  2  0  0  0  0
  2  4  1  0  0  0  0
  2  8  1  0  0  0  0
  2 12  2  0  0  0  0
  3  6  1  0  0  0  0
  3 14  2  0  0  0  0
  3 21  1  0  0  0  0
  4 16  1  0  0  0  0
  4 41  1  0  0  0  0
  5 15  1  0  0  0  0
  5 42  1  0  0  0  0
  6 17  1  0  0  0  0
  6 40  1  0  0  0  0
  7 19  1  0  0  0  0
  7 26  2  0  0  0  0
  8 20  1  0  0  0  0
  8 25  2  0  0  0  0
  9 14  1  0  0  0  0
  9 17  2  0  0  0  0
  9 19  1  0  0  0  0
 10 13  1  0  0  0  0
 10 15  2  0  0  0  0
 10 20  1  0  0  0  0
 11 12  1  0  0  0  0
 11 16  2  0  0  0  0
 11 22  1  0  0  0  0
 12 49  1  0  0  0  0
 13 50  1  0  0  0  0
 14 51  1  0  0  0  0
 15 52  1  0  0  0  0
 16 53  1  0  0  0  0
 17 54  1  0  0  0  0
 18 22  1  0  0  0  0
 18 24  1  0  0  0  0
 18 29  2  0  0  0  0
 19 55  1  0  0  0  0
 20 56  1  0  0  0  0
 21 32  2  0  0  0  0
 21 33  1  0  0  0  0
 22 57  1  0  0  0  0
 23 27  2  0  0  0  0
 23 30  1  0  0  0  0
 23 38  1  0  0  0  0
 24 34  1  0  0  0  0
 24 35  2  0  0  0  0
 27 58  1  0  0  0  0
 28 31  1  0  0  0  0
 28 36  2  0  0  0  0
 28 37  1  0  0  0  0
 30 39  1  0  0  0  0
 30 59  1  0  0  0  0
 30 60  1  0  0  0  0
 31 45  1  0  0  0  0
 31 46  1  0  0  0  0
 33 39  1  0  0  0  0
 33 61  1  0  0  0  0
 34 37  2  0  0  0  0
 34 62  1  0  0  0  0
 35 36  1  0  0  0  0
 35 63  1  0  0  0  0
 36 64  1  0  0  0  0
 37 65  1  0  0  0  0
 38 66  1  0  0  0  0
 38 67  1  0  0  0  0
 39 68  1  0  0  0  0
 39 69  1  0  0  0  0
 40 70  1  0  0  0  0
 40 71  1  0  0  0  0
 40 72  1  0  0  0  0
 41 73  1  0  0  0  0
 41 74  1  0  0  0  0
 41 75  1  0  0  0  0
 42 76  1  0  0  0  0
 42 77  1  0  0  0  0
 42 78  1  0  0  0  0
 43 48  1  0  0  0  0
 44 47  1  0  0  0  0
 45 48  1  0  0  0  0
 45 79  1  0  0  0  0
 45 80  1  0  0  0  0
 46 47  1  0  0  0  0
 46 81  1  0  0  0  0
 46 82  1  0  0  0  0
 47 83  1  0  0  0  0
 47 84  1  0  0  0  0
 48 85  1  0  0  0  0
 48 86  1  0  0  0  0
M  END
>  <DRUGBANK_ID>
DB15466

>  <COMMON_NAME>
Tallimustine

>  <CAS_NUMBER>
115308-98-0

>  <UNII>
71193OXG6S

>  <SYNONYMS>
Tallimustine

$$$$
