
 OpenBabel10282417173D

 24 24  0  0  0  0  0  0  0  0999 V2000
    2.2900    0.0538    0.0092 O   0  0  0  0  0  0  0  0  0  0  0  0
    0.9259    2.3863    0.0306 O   0  0  0  0  0  0  0  0  0  0  0  0
   -1.2306   -1.1665    0.0044 C   0  0  0  0  0  0  0  0  0  0  0  0
   -2.0382   -2.4440    0.0144 C   0  0  0  0  0  0  0  0  0  0  0  0
    0.1735   -1.2068    0.0117 C   0  0  0  0  0  0  0  0  0  0  0  0
    0.9195   -0.0241    0.0094 C   0  0  0  0  0  0  0  0  0  0  0  0
   -1.8798    0.0776   -0.0215 C   0  0  0  0  0  0  0  0  0  0  0  0
    0.2415    1.2010    0.0103 C   0  0  0  0  0  0  0  0  0  0  0  0
   -1.1454    1.2604   -0.0079 C   0  0  0  0  0  0  0  0  0  0  0  0
   -2.9560   -2.5234    1.2021 C   0  0  0  0  0  0  0  0  0  0  0  0
    2.9852   -1.1901   -0.0237 C   0  0  0  0  0  0  0  0  0  0  0  0
   -4.2917   -2.5890    1.1019 C   0  0  0  0  0  0  0  0  0  0  0  0
    1.8696    2.1406    0.0519 H   0  0  0  0  0  0  0  0  0  0  0  0
   -2.5994   -2.5036   -0.9265 H   0  0  0  0  0  0  0  0  0  0  0  0
   -1.3755   -3.3182    0.0324 H   0  0  0  0  0  0  0  0  0  0  0  0
    0.6585   -2.1773    0.0242 H   0  0  0  0  0  0  0  0  0  0  0  0
   -2.9664    0.1274   -0.0365 H   0  0  0  0  0  0  0  0  0  0  0  0
   -1.6520    2.2202   -0.0077 H   0  0  0  0  0  0  0  0  0  0  0  0
   -2.4950   -2.4997    2.1873 H   0  0  0  0  0  0  0  0  0  0  0  0
    2.7724   -1.7824    0.8729 H   0  0  0  0  0  0  0  0  0  0  0  0
    2.7471   -1.7530   -0.9333 H   0  0  0  0  0  0  0  0  0  0  0  0
    4.0584   -0.9796   -0.0354 H   0  0  0  0  0  0  0  0  0  0  0  0
   -4.9173   -2.6155    1.9874 H   0  0  0  0  0  0  0  0  0  0  0  0
   -4.7839   -2.6003    0.1349 H   0  0  0  0  0  0  0  0  0  0  0  0
  1  6  1  0  0  0  0
  1 11  1  0  0  0  0
  2  8  1  0  0  0  0
  2 13  1  0  0  0  0
  3  4  1  0  0  0  0
  3  5  2  0  0  0  0
  3  7  1  0  0  0  0
  4 10  1  0  0  0  0
  4 14  1  0  0  0  0
  4 15  1  0  0  0  0
  5  6  1  0  0  0  0
  5 16  1  0  0  0  0
  6  8  2  0  0  0  0
  7  9  2  0  0  0  0
  7 17  1  0  0  0  0
  8  9  1  0  0  0  0
  9 18  1  0  0  0  0
 10 12  2  0  0  0  0
 10 19  1  0  0  0  0
 11 20  1  0  0  0  0
 11 21  1  0  0  0  0
 11 22  1  0  0  0  0
 12 23  1  0  0  0  0
 12 24  1  0  0  0  0
M  END
>  <DRUGBANK_ID>
DB09086

>  <COMMON_NAME>
Eugenol

>  <CAS_NUMBER>
97-53-0

>  <UNII>
3T8H1794QW

>  <SYNONYMS>
Eugenol

$$$$
