
 OpenBabel10282417203D

 46 49  0  0  0  0  0  0  0  0999 V2000
   -2.3826    0.0223   -0.1119 C   0  0  0  0  0  0  0  0  0  0  0  0
   -0.9746    0.0317    0.2953 N   0  0  0  0  0  0  0  0  0  0  0  0
   -0.3067   -1.1747   -0.1965 C   0  0  0  0  0  0  0  0  0  0  0  0
    1.1798   -1.1834    0.1713 C   0  0  0  0  0  0  0  0  0  0  0  0
    1.9035    0.0730   -0.3393 C   0  0  0  0  0  0  0  0  0  0  0  0
    1.1619    1.2904    0.1976 C   0  0  0  0  0  0  0  0  0  0  0  0
   -0.3091    1.2424   -0.2066 C   0  0  0  0  0  0  0  0  0  0  0  0
    3.2975    0.1637    0.1044 N   0  0  0  0  0  0  0  0  0  0  0  0
    4.3017    0.1196   -0.8463 C   0  0  0  0  0  0  0  0  0  0  0  0
    4.3713    1.0317   -1.8052 N   0  0  0  0  0  0  0  0  0  0  0  0
    5.4543    0.9640   -2.6314 C   0  0  0  0  0  0  0  0  0  0  0  0
    6.4191   -0.0266   -2.6396 C   0  0  0  0  0  0  0  0  0  0  0  0
    6.2232   -0.9579   -1.6492 C   0  0  0  0  0  0  0  0  0  0  0  0
    5.2275   -0.8226   -0.7140 N   0  0  0  0  0  0  0  0  0  0  0  0
    7.1301   -2.0424   -1.7015 C   0  0  0  0  0  0  0  0  0  0  0  0
    8.1473   -2.1231   -2.5990 N   0  0  0  0  0  0  0  0  0  0  0  0
    8.2510   -1.1154   -3.4709 C   0  0  0  0  0  0  0  0  0  0  0  0
    7.4274   -0.0641   -3.5489 N   0  0  0  0  0  0  0  0  0  0  0  0
    7.0247   -3.1344   -0.8060 N   0  0  0  0  0  0  0  0  0  0  0  0
    6.0404   -3.3564    0.1693 C   0  0  0  0  0  0  0  0  0  0  0  0
    4.6906   -3.4583   -0.2003 C   0  0  0  0  0  0  0  0  0  0  0  0
    3.6881   -3.4608    0.7652 C   0  0  0  0  0  0  0  0  0  0  0  0
    4.0163   -3.3528    2.1053 C   0  0  0  0  0  0  0  0  0  0  0  0
    5.3500   -3.3220    2.4953 C   0  0  0  0  0  0  0  0  0  0  0  0
    6.3653   -3.3398    1.5311 C   0  0  0  0  0  0  0  0  0  0  0  0
    5.7565   -3.2484    4.1662 Cl  0  0  0  0  0  0  0  0  0  0  0  0
    3.0230   -3.2721    3.0030 F   0  0  0  0  0  0  0  0  0  0  0  0
   -2.9071    0.8955    0.2903 H   0  0  0  0  0  0  0  0  0  0  0  0
   -2.4913    0.0256   -1.2029 H   0  0  0  0  0  0  0  0  0  0  0  0
   -2.8956   -0.8638    0.2793 H   0  0  0  0  0  0  0  0  0  0  0  0
   -0.7831   -2.0669    0.2330 H   0  0  0  0  0  0  0  0  0  0  0  0
   -0.4057   -1.2569   -1.2871 H   0  0  0  0  0  0  0  0  0  0  0  0
    1.2883   -1.2932    1.2595 H   0  0  0  0  0  0  0  0  0  0  0  0
    1.6044   -2.0637   -0.3064 H   0  0  0  0  0  0  0  0  0  0  0  0
    1.8424    0.0601   -1.4359 H   0  0  0  0  0  0  0  0  0  0  0  0
    1.2502    1.3315    1.2925 H   0  0  0  0  0  0  0  0  0  0  0  0
    1.6270    2.2021   -0.1919 H   0  0  0  0  0  0  0  0  0  0  0  0
   -0.3826    1.2917   -1.3005 H   0  0  0  0  0  0  0  0  0  0  0  0
   -0.8040    2.1306    0.2005 H   0  0  0  0  0  0  0  0  0  0  0  0
    3.5423   -0.3335    0.9495 H   0  0  0  0  0  0  0  0  0  0  0  0
    5.5213    1.7822   -3.3404 H   0  0  0  0  0  0  0  0  0  0  0  0
    9.0718   -1.1503   -4.1843 H   0  0  0  0  0  0  0  0  0  0  0  0
    7.8019   -3.7791   -0.8568 H   0  0  0  0  0  0  0  0  0  0  0  0
    4.4101   -3.4282   -1.2522 H   0  0  0  0  0  0  0  0  0  0  0  0
    2.6491   -3.5102    0.4777 H   0  0  0  0  0  0  0  0  0  0  0  0
    7.4022   -3.2590    1.8428 H   0  0  0  0  0  0  0  0  0  0  0  0
  1  2  1  0  0  0  0
  1 28  1  0  0  0  0
  1 29  1  0  0  0  0
  1 30  1  0  0  0  0
  2  3  1  0  0  0  0
  2  7  1  0  0  0  0
  3  4  1  0  0  0  0
  3 31  1  0  0  0  0
  3 32  1  0  0  0  0
  4  5  1  0  0  0  0
  4 33  1  0  0  0  0
  4 34  1  0  0  0  0
  5  6  1  0  0  0  0
  5  8  1  0  0  0  0
  5 35  1  0  0  0  0
  6  7  1  0  0  0  0
  6 36  1  0  0  0  0
  6 37  1  0  0  0  0
  7 38  1  0  0  0  0
  7 39  1  0  0  0  0
  8  9  1  0  0  0  0
  8 40  1  0  0  0  0
  9 10  2  0  0  0  0
  9 14  1  0  0  0  0
 10 11  1  0  0  0  0
 11 12  2  0  0  0  0
 11 41  1  0  0  0  0
 12 13  1  0  0  0  0
 12 18  1  0  0  0  0
 13 14  2  0  0  0  0
 13 15  1  0  0  0  0
 15 16  2  0  0  0  0
 15 19  1  0  0  0  0
 16 17  1  0  0  0  0
 17 18  2  0  0  0  0
 17 42  1  0  0  0  0
 19 20  1  0  0  0  0
 19 43  1  0  0  0  0
 20 21  2  0  0  0  0
 20 25  1  0  0  0  0
 21 22  1  0  0  0  0
 21 44  1  0  0  0  0
 22 23  2  0  0  0  0
 22 45  1  0  0  0  0
 23 24  1  0  0  0  0
 23 27  1  0  0  0  0
 24 25  2  0  0  0  0
 24 26  1  0  0  0  0
 25 46  1  0  0  0  0
M  END
>  <DRUGBANK_ID>
DB12966

>  <COMMON_NAME>
Falnidamol

>  <CAS_NUMBER>
196612-93-8

>  <UNII>
0MU316797D

>  <SYNONYMS>
Falnidamol

$$$$
