
 OpenBabel10282417203D

 25 25  0  0  0  0  0  0  0  0999 V2000
    0.9643    0.0834    0.0421 C   0  0  0  0  0  0  0  0  0  0  0  0
    0.4576    0.1561   -1.3891 C   0  0  0  0  0  0  0  0  0  0  0  0
   -0.2730   -0.7747   -1.8526 O   0  0  0  0  0  0  0  0  0  0  0  0
    0.8127    1.3032   -2.2371 N   0  0  0  0  0  0  0  0  0  0  0  0
    1.6579    2.3798   -1.7009 C   0  0  0  0  0  0  0  0  0  0  0  0
    1.4034    3.7168   -1.9378 C   0  0  0  0  0  0  0  0  0  0  0  0
    2.2687    4.6791   -1.4767 C   0  0  0  0  0  0  0  0  0  0  0  0
    3.4028    4.3161   -0.7839 C   0  0  0  0  0  0  0  0  0  0  0  0
    3.6910    2.9718   -0.5262 C   0  0  0  0  0  0  0  0  0  0  0  0
    2.7705    2.0071   -0.9852 C   0  0  0  0  0  0  0  0  0  0  0  0
    2.9548    0.6861   -0.7613 O   0  0  0  0  0  0  0  0  0  0  0  0
    1.8907    6.5640   -1.8036 As  0  0  0  0  0  0  0  0  0  0  0  0
    1.8102    6.8696   -3.6264 O   0  0  0  0  0  0  0  0  0  0  0  0
    0.2702    7.0109   -1.0313 O   0  0  0  0  0  0  0  0  0  0  0  0
    3.0922    7.4909   -1.1412 O   0  0  0  0  0  0  0  0  0  0  0  0
    0.6076   -0.8148    0.5015 H   0  0  0  0  0  0  0  0  0  0  0  0
    0.6076    0.9303    0.5903 H   0  0  0  0  0  0  0  0  0  0  0  0
    2.0343    0.0834    0.0421 H   0  0  0  0  0  0  0  0  0  0  0  0
    0.4727    1.3520   -3.1975 H   0  0  0  0  0  0  0  0  0  0  0  0
    0.5285    4.0042   -2.4827 H   0  0  0  0  0  0  0  0  0  0  0  0
    4.0736    5.0743   -0.4375 H   0  0  0  0  0  0  0  0  0  0  0  0
    4.5778    2.6859   -0.0000 H   0  0  0  0  0  0  0  0  0  0  0  0
    3.7517    0.3730   -0.2448 H   0  0  0  0  0  0  0  0  0  0  0  0
    2.6862    6.6280   -4.0439 H   0  0  0  0  0  0  0  0  0  0  0  0
   -0.4555    6.4511   -1.4314 H   0  0  0  0  0  0  0  0  0  0  0  0
  1  2  1  0  0  0  0
  1 16  1  0  0  0  0
  1 17  1  0  0  0  0
  1 18  1  0  0  0  0
  2  3  2  0  0  0  0
  2  4  1  0  0  0  0
  4  5  1  0  0  0  0
  4 19  1  0  0  0  0
  5  6  2  0  0  0  0
  5 10  1  0  0  0  0
  6  7  1  0  0  0  0
  6 20  1  0  0  0  0
  7  8  2  0  0  0  0
  7 12  1  0  0  0  0
  8  9  1  0  0  0  0
  8 21  1  0  0  0  0
  9 10  2  0  0  0  0
  9 22  1  0  0  0  0
 10 11  1  0  0  0  0
 11 23  1  0  0  0  0
 12 13  1  0  0  0  0
 12 14  1  0  0  0  0
 12 15  2  0  0  0  0
 13 24  1  0  0  0  0
 14 25  1  0  0  0  0
M  END
>  <DRUGBANK_ID>
DB13268

>  <COMMON_NAME>
Acetarsol

>  <CAS_NUMBER>
97-44-9

>  <UNII>
806529YU1N

>  <SYNONYMS>
Acetarsol

$$$$
