
 OpenBabel10282417173D

 33 36  0  0  0  0  0  0  0  0999 V2000
    1.0393    0.0811    0.0102 O   0  0  0  0  0  0  0  0  0  0  0  0
    0.3919   -0.3427    1.1408 C   0  0  0  0  0  0  0  0  0  0  0  0
    0.7211    0.1977    2.3654 C   0  0  0  0  0  0  0  0  0  0  0  0
   -0.0359   -0.2008    3.4582 C   0  0  0  0  0  0  0  0  0  0  0  0
   -1.0826   -1.0844    3.4598 N   0  0  0  0  0  0  0  0  0  0  0  0
   -1.3527   -1.5994    2.2289 C   0  0  0  0  0  0  0  0  0  0  0  0
   -2.3539   -2.5121    1.8717 N   0  0  0  0  0  0  0  0  0  0  0  0
   -3.3556   -3.1688    2.6476 C   0  0  0  0  0  0  0  0  0  0  0  0
   -3.4824   -2.9766    3.9872 N   0  0  0  0  0  0  0  0  0  0  0  0
   -4.2047   -3.9970    2.0782 N   0  0  0  0  0  0  0  0  0  0  0  0
   -4.0998   -4.2067    0.7293 C   0  0  0  0  0  0  0  0  0  0  0  0
   -3.1913   -3.6267   -0.0738 C   0  0  0  0  0  0  0  0  0  0  0  0
   -2.2617   -2.7395    0.5003 C   0  0  0  0  0  0  0  0  0  0  0  0
   -1.2091   -2.0183   -0.0150 C   0  0  0  0  0  0  0  0  0  0  0  0
   -0.6520   -1.2779    1.0575 C   0  0  0  0  0  0  0  0  0  0  0  0
   -0.8254   -1.9740   -1.4131 C   0  0  0  0  0  0  0  0  0  0  0  0
   -1.6675   -1.3810   -2.3244 C   0  0  0  0  0  0  0  0  0  0  0  0
   -1.0803   -1.0619   -3.5180 C   0  0  0  0  0  0  0  0  0  0  0  0
    0.1619   -1.4485   -3.8626 N   0  0  0  0  0  0  0  0  0  0  0  0
    0.8564   -2.1280   -2.9436 C   0  0  0  0  0  0  0  0  0  0  0  0
    0.4286   -2.3829   -1.7059 N   0  0  0  0  0  0  0  0  0  0  0  0
    2.1006   -2.5850   -3.3042 N   0  0  0  0  0  0  0  0  0  0  0  0
    1.9895   -0.0887    0.1245 H   0  0  0  0  0  0  0  0  0  0  0  0
    1.5181    0.9272    2.4555 H   0  0  0  0  0  0  0  0  0  0  0  0
    0.2003    0.2306    4.4309 H   0  0  0  0  0  0  0  0  0  0  0  0
   -2.8692   -2.3694    4.5164 H   0  0  0  0  0  0  0  0  0  0  0  0
   -4.2054   -3.5035    4.4641 H   0  0  0  0  0  0  0  0  0  0  0  0
   -4.8113   -4.9019    0.2942 H   0  0  0  0  0  0  0  0  0  0  0  0
   -3.1627   -3.8436   -1.1330 H   0  0  0  0  0  0  0  0  0  0  0  0
   -2.6871   -1.1092   -2.0919 H   0  0  0  0  0  0  0  0  0  0  0  0
   -1.5947   -0.4349   -4.2397 H   0  0  0  0  0  0  0  0  0  0  0  0
    2.2446   -2.6556   -4.2999 H   0  0  0  0  0  0  0  0  0  0  0  0
    2.4987   -3.2653   -2.6774 H   0  0  0  0  0  0  0  0  0  0  0  0
  1 23  1  0  0  0  0
  2  1  1  0  0  0  0
  2  3  1  0  0  0  0
  2 15  2  0  0  0  0
  3  4  2  0  0  0  0
  3 24  1  0  0  0  0
  4  5  1  0  0  0  0
  4 25  1  0  0  0  0
  6  5  2  0  0  0  0
  6  7  1  0  0  0  0
  8  7  1  0  0  0  0
  8  9  1  0  0  0  0
  8 10  2  0  0  0  0
  9 26  1  0  0  0  0
  9 27  1  0  0  0  0
 11 10  1  0  0  0  0
 11 12  2  0  0  0  0
 11 28  1  0  0  0  0
 12 13  1  0  0  0  0
 12 29  1  0  0  0  0
 13  7  1  0  0  0  0
 13 14  2  0  0  0  0
 15  6  1  0  0  0  0
 15 14  1  0  0  0  0
 16 14  1  0  0  0  0
 16 17  1  0  0  0  0
 16 21  2  0  0  0  0
 17 30  1  0  0  0  0
 18 17  2  0  0  0  0
 18 19  1  0  0  0  0
 18 31  1  0  0  0  0
 20 19  2  0  0  0  0
 20 21  1  0  0  0  0
 20 22  1  0  0  0  0
 22 32  1  0  0  0  0
 22 33  1  0  0  0  0
M  END
>  <DRUGBANK_ID>
DB08694

>  <COMMON_NAME>
Variolin B

$$$$
