
 OpenBabel10282417123D

 20 20  0  0  1  0  0  0  0  0999 V2000
    1.0455   -0.1832   -0.0789 N   0  0  0  0  0  0  0  0  0  0  0  0
    0.5302   -1.1332    0.9278 C   0  0  1  0  0  0  0  0  0  0  0  0
    1.0536   -0.8634    2.3572 C   0  0  0  0  0  0  0  0  0  0  0  0
    0.6529    0.4562    2.9053 C   0  0  0  0  0  0  0  0  0  0  0  0
   -0.2779    0.8242    3.7821 C   0  0  0  0  0  0  0  0  0  0  0  0
   -0.4308    2.1765    3.9840 O   0  0  0  0  0  0  0  0  0  0  0  0
    0.5484    2.7138    3.1210 N   0  0  0  0  0  0  0  0  0  0  0  0
    1.2064    1.7292    2.4520 C   0  0  0  0  0  0  0  0  0  0  0  0
    2.0781    1.8533    1.6052 O   0  0  0  0  0  0  0  0  0  0  0  0
   -1.0146   -1.1082    0.9166 C   0  0  0  0  0  0  0  0  0  0  0  0
   -1.6020   -2.2765    0.5721 O   0  0  0  0  0  0  0  0  0  0  0  0
   -1.6866   -0.1277    1.2115 O   0  0  0  0  0  0  0  0  0  0  0  0
    0.7017    0.7557    0.1639 H   0  0  0  0  0  0  0  0  0  0  0  0
    2.0556   -0.0644    0.0468 H   0  0  0  0  0  0  0  0  0  0  0  0
    0.8767   -2.1263    0.6206 H   0  0  0  0  0  0  0  0  0  0  0  0
    0.7040   -1.6616    3.0247 H   0  0  0  0  0  0  0  0  0  0  0  0
    2.1505   -0.9230    2.3640 H   0  0  0  0  0  0  0  0  0  0  0  0
   -0.9771    0.2063    4.3206 H   0  0  0  0  0  0  0  0  0  0  0  0
    0.6475    3.7080    2.9899 H   0  0  0  0  0  0  0  0  0  0  0  0
   -0.9949   -2.9700    0.2571 H   0  0  0  0  0  0  0  0  0  0  0  0
  1 13  1  0  0  0  0
  1 14  1  0  0  0  0
  2  1  1  0  0  0  0
  2  3  1  0  0  0  0
  2 10  1  0  0  0  0
  2 15  1  6  0  0  0
  3  4  1  0  0  0  0
  3 16  1  0  0  0  0
  3 17  1  0  0  0  0
  4  5  2  0  0  0  0
  4  8  1  0  0  0  0
  5  6  1  0  0  0  0
  5 18  1  0  0  0  0
  6  7  1  0  0  0  0
  7  8  1  0  0  0  0
  7 19  1  0  0  0  0
  8  9  2  0  0  0  0
 10 11  1  0  0  0  0
 10 12  2  0  0  0  0
 11 20  1  0  0  0  0
M  END
>  <DRUGBANK_ID>
DB01664

>  <SECONDARY_ACCESSION_NUMBERS>
EXPT02903

>  <COMMON_NAME>
(S)-DES-ME-AMPA

>  <SYNONYMS>
(S)-2-amino-3-(3-hydroxy-isoxazol-4-yl)propionic acid

$$$$
