
 OpenBabel10282417193D

134142  0  0  1  0  0  0  0  0999 V2000
   -2.1203    0.7345    1.2993 C   0  0  0  0  0  0  0  0  0  0  0  0
   -0.6425    1.2654    0.8040 C   0  0  1  0  0  0  0  0  0  0  0  0
   -1.1751    2.6008   -0.4024 C   0  0  1  0  0  0  0  0  0  0  0  0
    0.3801    3.5478   -1.5806 C   0  0  2  0  0  0  0  0  0  0  0  0
   -0.0289    5.4286   -0.6474 C   0  0  0  0  0  0  0  0  0  0  0  0
   -1.5906    5.4681    1.0217 C   0  0  1  0  0  0  0  0  0  0  0  0
   -3.1856    4.9850    2.6982 C   0  0  2  0  0  0  0  0  0  0  0  0
   -4.0781    4.1225    4.4973 C   0  0  0  0  0  0  0  0  0  0  0  0
   -3.8489    2.7017    4.9225 C   0  0  0  0  0  0  0  0  0  0  0  0
   -2.4616    2.4937    4.9583 C   0  0  0  0  0  0  0  0  0  0  0  0
   -1.7568    0.4532    4.7782 C   0  0  0  0  0  0  0  0  0  0  0  0
    0.4095    0.8384    4.2689 C   0  0  2  0  0  0  0  0  0  0  0  0
    0.2347    2.4651    2.8292 C   0  0  0  0  0  0  0  0  0  0  0  0
   -0.4729    4.6156    2.8509 C   0  0  0  0  0  0  0  0  0  0  0  0
   -2.1581    4.3359    4.1987 C   0  0  1  0  0  0  0  0  0  0  0  0
   -2.0602    2.8206    4.0722 C   0  0  0  0  0  0  0  0  0  0  0  0
   -2.1794    5.5907    3.1977 C   0  0  1  0  0  0  0  0  0  0  0  0
   -3.3632    5.6409    1.7673 C   0  0  0  0  0  0  0  0  0  0  0  0
   -3.8126    4.1842    1.1470 C   0  0  0  0  0  0  0  0  0  0  0  0
   -1.9420    4.1186    0.9852 C   0  0  2  0  0  0  0  0  0  0  0  0
   -1.8896    3.7393    2.4646 C   0  0  0  0  0  0  0  0  0  0  0  0
    0.8755   -0.0079    3.4840 O   0  0  0  0  0  0  0  0  0  0  0  0
    0.1449   -0.0893    2.3517 C   0  0  2  0  0  0  0  0  0  0  0  0
    0.4687    0.8265    0.6554 O   0  0  0  0  0  0  0  0  0  0  0  0
   -0.0552    2.9225    1.1668 C   0  0  2  0  0  0  0  0  0  0  0  0
    1.1343    3.8432    2.8963 C   0  0  0  0  0  0  0  0  0  0  0  0
    2.2844    4.1546    2.3586 O   0  0  0  0  0  0  0  0  0  0  0  0
   -1.8289    2.3662    1.2885 C   0  0  1  0  0  0  0  0  0  0  0  0
   -2.2880    1.4600   -0.2076 O   0  0  0  0  0  0  0  0  0  0  0  0
   -1.4533    0.6794   -1.9290 C   0  0  2  0  0  0  0  0  0  0  0  0
   -0.9364   -1.1187   -0.9613 O   0  0  0  0  0  0  0  0  0  0  0  0
   -0.3237   -1.2950    0.8363 C   0  0  1  0  0  0  0  0  0  0  0  0
   -0.4840   -2.2020    2.6577 C   0  0  0  0  0  0  0  0  0  0  0  0
    1.1562   -0.5665    0.8588 C   0  0  2  0  0  0  0  0  0  0  0  0
    2.0036   -0.0061    2.0889 O   0  0  0  0  0  0  0  0  0  0  0  0
    1.4077    0.8261   -0.8189 C   0  0  1  0  0  0  0  0  0  0  0  0
    3.2090    1.3485   -0.6971 O   0  0  0  0  0  0  0  0  0  0  0  0
    0.1424    0.9007   -2.4413 C   0  0  1  0  0  0  0  0  0  0  0  0
    0.7451   -0.3409   -2.5457 O   0  0  0  0  0  0  0  0  0  0  0  0
   -2.3083    1.2058    2.8511 C   0  0  2  0  0  0  0  0  0  0  0  0
   -0.9519    1.5516    4.1850 O   0  0  0  0  0  0  0  0  0  0  0  0
   -1.9800   -0.6969    2.0931 C   0  0  1  0  0  0  0  0  0  0  0  0
   -2.4857   -1.0630    0.5673 O   0  0  0  0  0  0  0  0  0  0  0  0
   -2.3119   -0.0323   -0.6688 C   0  0  2  0  0  0  0  0  0  0  0  0
   -0.3546    0.5701   -0.8334 O   0  0  0  0  0  0  0  0  0  0  0  0
    0.3447    2.2725   -0.4074 C   0  0  1  0  0  0  0  0  0  0  0  0
    2.3477    3.2817   -0.3187 C   0  0  0  0  0  0  0  0  0  0  0  0
   -0.7677    4.0588   -0.2805 C   0  0  2  0  0  0  0  0  0  0  0  0
    0.6146    4.9109    0.8610 O   0  0  0  0  0  0  0  0  0  0  0  0
   -2.7032    3.4198   -0.6858 C   0  0  1  0  0  0  0  0  0  0  0  0
   -2.7312    4.7401   -0.9655 O   0  0  0  0  0  0  0  0  0  0  0  0
   -3.2274    1.8001   -1.4869 C   0  0  1  0  0  0  0  0  0  0  0  0
   -2.5803    2.8141   -2.4346 O   0  0  0  0  0  0  0  0  0  0  0  0
    1.6908    2.2610   -1.3056 O   0  0  0  0  0  0  0  0  0  0  0  0
    1.8111    1.2418    0.6598 C   0  0  2  0  0  0  0  0  0  0  0  0
    2.4612   -0.5459   -0.2303 C   0  0  0  0  0  0  0  0  0  0  0  0
    3.6583   -0.1962    0.5121 C   0  0  0  0  0  0  0  0  0  0  0  0
    3.9016    0.6836    1.7927 C   0  0  1  0  0  0  0  0  0  0  0  0
    4.8163    0.4181    2.8562 C   0  0  0  0  0  0  0  0  0  0  0  0
    3.5970    2.0960    2.1566 C   0  0  0  0  0  0  0  0  0  0  0  0
    2.3145    1.8656    2.0855 N   0  0  0  0  0  0  0  0  0  0  0  0
   -1.1541    0.5406    2.5312 H   0  0  0  0  0  0  0  0  0  0  0  0
   -3.1550    0.3386    1.2287 H   0  0  0  0  0  0  0  0  0  0  0  0
   -3.2593    1.6685    1.5694 H   0  0  0  0  0  0  0  0  0  0  0  0
   -0.9085    0.3070    0.3999 H   0  0  0  0  0  0  0  0  0  0  0  0
   -1.3784    2.2535   -1.2675 H   0  0  0  0  0  0  0  0  0  0  0  0
   -0.0324    3.2156   -2.5843 H   0  0  0  0  0  0  0  0  0  0  0  0
    0.2209    5.9427   -1.4844 H   0  0  0  0  0  0  0  0  0  0  0  0
    0.4272    4.6740   -1.7631 H   0  0  0  0  0  0  0  0  0  0  0  0
   -0.4290    6.0874    0.7307 H   0  0  0  0  0  0  0  0  0  0  0  0
   -4.4699    5.2950    3.2794 H   0  0  0  0  0  0  0  0  0  0  0  0
   -4.5460    4.6384    5.5596 H   0  0  0  0  0  0  0  0  0  0  0  0
   -3.8637    3.6855    5.8043 H   0  0  0  0  0  0  0  0  0  0  0  0
   -3.9452    1.6921    5.1998 H   0  0  0  0  0  0  0  0  0  0  0  0
   -2.7334   -0.0314    4.3648 H   0  0  0  0  0  0  0  0  0  0  0  0
   -2.1277   -0.0802    3.7329 H   0  0  0  0  0  0  0  0  0  0  0  0
    0.9551    1.7223    4.5831 H   0  0  0  0  0  0  0  0  0  0  0  0
    1.2119    2.9852    1.6518 H   0  0  0  0  0  0  0  0  0  0  0  0
   -0.4224    1.8692    2.2996 H   0  0  0  0  0  0  0  0  0  0  0  0
   -0.2205    5.6590    2.7649 H   0  0  0  0  0  0  0  0  0  0  0  0
   -0.5661    4.5802    1.8858 H   0  0  0  0  0  0  0  0  0  0  0  0
   -0.8189    2.8802    3.9888 H   0  0  0  0  0  0  0  0  0  0  0  0
   -3.2380    1.8831    3.7098 H   0  0  0  0  0  0  0  0  0  0  0  0
   -1.5212    2.4496    3.2390 H   0  0  0  0  0  0  0  0  0  0  0  0
   -2.2066    6.0045    4.0819 H   0  0  0  0  0  0  0  0  0  0  0  0
   -3.6021    6.6184    1.6896 H   0  0  0  0  0  0  0  0  0  0  0  0
   -3.0949    6.1358    0.7619 H   0  0  0  0  0  0  0  0  0  0  0  0
   -4.1730    4.5526    0.2468 H   0  0  0  0  0  0  0  0  0  0  0  0
   -4.0907    3.5388    0.4330 H   0  0  0  0  0  0  0  0  0  0  0  0
   -2.8242    3.1582    2.6094 H   0  0  0  0  0  0  0  0  0  0  0  0
   -1.0883    3.2532    2.3230 H   0  0  0  0  0  0  0  0  0  0  0  0
   -0.9059    4.0001    3.8809 H   0  0  0  0  0  0  0  0  0  0  0  0
    0.9790   -1.1542    2.2133 H   0  0  0  0  0  0  0  0  0  0  0  0
    0.6573    3.6003    0.2551 H   0  0  0  0  0  0  0  0  0  0  0  0
    0.9219    4.6678    3.4946 H   0  0  0  0  0  0  0  0  0  0  0  0
    1.0491    3.1871    3.8892 H   0  0  0  0  0  0  0  0  0  0  0  0
    2.3880    3.4052    1.7560 H   0  0  0  0  0  0  0  0  0  0  0  0
   -2.6320    2.8208    1.2936 H   0  0  0  0  0  0  0  0  0  0  0  0
   -2.4696    0.5978   -2.4547 H   0  0  0  0  0  0  0  0  0  0  0  0
   -0.7966   -0.3693    1.3646 H   0  0  0  0  0  0  0  0  0  0  0  0
    0.3112   -1.7307    3.1416 H   0  0  0  0  0  0  0  0  0  0  0  0
   -1.0893   -1.5149    3.7957 H   0  0  0  0  0  0  0  0  0  0  0  0
   -1.2604   -2.4538    2.0272 H   0  0  0  0  0  0  0  0  0  0  0  0
    1.1380   -1.5092    0.7091 H   0  0  0  0  0  0  0  0  0  0  0  0
    1.6020    0.9221    2.6085 H   0  0  0  0  0  0  0  0  0  0  0  0
    1.3302    2.2902    0.3253 H   0  0  0  0  0  0  0  0  0  0  0  0
    3.6612    2.1355   -0.2530 H   0  0  0  0  0  0  0  0  0  0  0  0
    0.3868    1.8459   -2.3648 H   0  0  0  0  0  0  0  0  0  0  0  0
    0.4286   -0.7856   -1.7207 H   0  0  0  0  0  0  0  0  0  0  0  0
   -3.3634    0.8765    2.7525 H   0  0  0  0  0  0  0  0  0  0  0  0
   -0.5215    1.4397    3.4445 H   0  0  0  0  0  0  0  0  0  0  0  0
   -1.5845   -1.0205    2.7709 H   0  0  0  0  0  0  0  0  0  0  0  0
   -2.2039   -0.6963   -1.7386 H   0  0  0  0  0  0  0  0  0  0  0  0
    0.6133    1.8389    1.3111 H   0  0  0  0  0  0  0  0  0  0  0  0
    2.1612    4.2047   -0.6207 H   0  0  0  0  0  0  0  0  0  0  0  0
    2.7004    2.7941    0.5019 H   0  0  0  0  0  0  0  0  0  0  0  0
    3.1251    2.7015   -1.5208 H   0  0  0  0  0  0  0  0  0  0  0  0
   -1.0225    4.2162   -1.3477 H   0  0  0  0  0  0  0  0  0  0  0  0
    0.7487    4.3570    1.5603 H   0  0  0  0  0  0  0  0  0  0  0  0
   -3.2427    2.6238    0.1706 H   0  0  0  0  0  0  0  0  0  0  0  0
   -2.7536    5.0018   -0.0653 H   0  0  0  0  0  0  0  0  0  0  0  0
   -3.9949    1.6953   -0.6288 H   0  0  0  0  0  0  0  0  0  0  0  0
   -1.6019    2.9766   -2.3761 H   0  0  0  0  0  0  0  0  0  0  0  0
    2.5052   -1.4787    0.3280 H   0  0  0  0  0  0  0  0  0  0  0  0
    1.0222   -0.8114   -0.5872 H   0  0  0  0  0  0  0  0  0  0  0  0
    4.4056    0.1933   -0.0738 H   0  0  0  0  0  0  0  0  0  0  0  0
    3.1772   -0.2452   -0.5788 H   0  0  0  0  0  0  0  0  0  0  0  0
    3.5274   -0.2662    2.2185 H   0  0  0  0  0  0  0  0  0  0  0  0
    4.6947   -0.6225    3.1562 H   0  0  0  0  0  0  0  0  0  0  0  0
    5.6998    0.6334    2.3329 H   0  0  0  0  0  0  0  0  0  0  0  0
    4.6013    1.0448    3.7234 H   0  0  0  0  0  0  0  0  0  0  0  0
    3.7555    2.8894    2.8470 H   0  0  0  0  0  0  0  0  0  0  0  0
    3.7381    3.0183    1.5312 H   0  0  0  0  0  0  0  0  0  0  0  0
    1.8561    2.4491    2.6773 H   0  0  0  0  0  0  0  0  0  0  0  0
  1 62  1  0  0  0  0
  1 63  1  0  0  0  0
  1 64  1  0  0  0  0
  2  3  1  0  0  0  0
  2 55  1  0  0  0  0
  2  1  1  0  0  0  0
  2 65  1  6  0  0  0
  3  4  1  0  0  0  0
  3 20  1  0  0  0  0
  3 66  1  1  0  0  0
  4  5  1  0  0  0  0
  4 54  1  0  0  0  0
  4 67  1  1  0  0  0
  5 68  1  0  0  0  0
  5 69  1  0  0  0  0
  6  5  1  0  0  0  0
  6  7  1  0  0  0  0
  6 20  1  0  0  0  0
  6 70  1  1  0  0  0
  7  8  1  0  0  0  0
  7 17  1  0  0  0  0
  7 71  1  1  0  0  0
  8  9  1  0  0  0  0
  8 72  1  0  0  0  0
  8 73  1  0  0  0  0
  9 10  2  0  0  0  0
  9 74  1  0  0  0  0
 10 11  1  0  0  0  0
 10 15  1  0  0  0  0
 11 12  1  0  0  0  0
 11 75  1  0  0  0  0
 11 76  1  0  0  0  0
 12 13  1  0  0  0  0
 12 77  1  1  0  0  0
 12 22  1  0  0  0  0
 13 14  1  0  0  0  0
 13 78  1  0  0  0  0
 13 79  1  0  0  0  0
 14 15  1  0  0  0  0
 14 80  1  0  0  0  0
 14 81  1  0  0  0  0
 15 17  1  0  0  0  0
 15 16  1  6  0  0  0
 16 82  1  0  0  0  0
 16 83  1  0  0  0  0
 16 84  1  0  0  0  0
 17 18  1  0  0  0  0
 17 85  1  1  0  0  0
 18 19  1  0  0  0  0
 18 86  1  0  0  0  0
 18 87  1  0  0  0  0
 19 20  1  0  0  0  0
 19 88  1  0  0  0  0
 19 89  1  0  0  0  0
 20 21  1  6  0  0  0
 21 90  1  0  0  0  0
 21 91  1  0  0  0  0
 21 92  1  0  0  0  0
 23 22  1  0  0  0  0
 23 24  1  0  0  0  0
 23 42  1  0  0  0  0
 23 93  1  6  0  0  0
 24 25  1  0  0  0  0
 25 26  1  0  0  0  0
 25 28  1  0  0  0  0
 25 94  1  6  0  0  0
 26 27  1  0  0  0  0
 26 95  1  0  0  0  0
 26 96  1  0  0  0  0
 27 97  1  0  0  0  0
 28 40  1  0  0  0  0
 28 98  1  1  0  0  0
 28 29  1  0  0  0  0
 30 29  1  0  0  0  0
 30 31  1  0  0  0  0
 30 38  1  0  0  0  0
 30 99  1  6  0  0  0
 31 32  1  0  0  0  0
 32 34  1  0  0  0  0
 32100  1  1  0  0  0
 32 33  1  0  0  0  0
 33101  1  0  0  0  0
 33102  1  0  0  0  0
 33103  1  0  0  0  0
 34 35  1  0  0  0  0
 34 36  1  0  0  0  0
 34104  1  6  0  0  0
 35105  1  0  0  0  0
 36 38  1  0  0  0  0
 36106  1  1  0  0  0
 36 37  1  0  0  0  0
 37107  1  0  0  0  0
 38 39  1  0  0  0  0
 38108  1  6  0  0  0
 39109  1  0  0  0  0
 40 41  1  0  0  0  0
 40 42  1  0  0  0  0
 40110  1  1  0  0  0
 41111  1  0  0  0  0
 42 43  1  0  0  0  0
 42112  1  1  0  0  0
 44 43  1  0  0  0  0
 44 45  1  0  0  0  0
 44 52  1  0  0  0  0
 44113  1  6  0  0  0
 45 46  1  0  0  0  0
 46 48  1  0  0  0  0
 46114  1  1  0  0  0
 46 47  1  0  0  0  0
 47115  1  0  0  0  0
 47116  1  0  0  0  0
 47117  1  0  0  0  0
 48 49  1  0  0  0  0
 48 50  1  0  0  0  0
 48118  1  6  0  0  0
 49119  1  0  0  0  0
 50 52  1  0  0  0  0
 50120  1  1  0  0  0
 50 51  1  0  0  0  0
 51121  1  0  0  0  0
 52 53  1  0  0  0  0
 52122  1  6  0  0  0
 53123  1  0  0  0  0
 55 54  1  6  0  0  0
 55 56  1  0  0  0  0
 55 61  1  0  0  0  0
 56 57  1  0  0  0  0
 56124  1  0  0  0  0
 56125  1  0  0  0  0
 57 58  1  0  0  0  0
 57126  1  0  0  0  0
 57127  1  0  0  0  0
 58 60  1  0  0  0  0
 58 59  1  0  0  0  0
 58128  1  1  0  0  0
 59129  1  0  0  0  0
 59130  1  0  0  0  0
 59131  1  0  0  0  0
 60 61  1  0  0  0  0
 60132  1  0  0  0  0
 60133  1  0  0  0  0
 61134  1  0  0  0  0
M  END
>  <DRUGBANK_ID>
DB12700

>  <COMMON_NAME>
Solamargine

>  <CAS_NUMBER>
20311-51-7

>  <UNII>
8KG991E7BN

$$$$
