IPR
 OpenBabel10282417123D

 28 27  0  0  0  0  0  0  0  0999 V2000
    1.0429   -0.0868   -0.0251 P   0  0  0  0  0  0  0  0  0  0  0  0
    1.1952   -1.5618    0.6761 O   0  0  0  0  0  0  0  0  0  0  0  0
    1.1530    0.7534    1.3789 O   0  0  0  0  0  0  0  0  0  0  0  0
   -0.5054   -0.0868   -0.0251 O   0  0  0  0  0  0  0  0  0  0  0  0
    2.7729   -0.0868   -0.0251 O   0  0  0  0  0  0  0  0  0  0  0  0
    3.3496    0.7935   -1.3982 P   0  0  1  0  0  0  0  0  0  0  0  0
    2.0129    1.7175   -1.4979 O   0  0  0  0  0  0  0  0  0  0  0  0
    4.5772    1.1424   -0.5931 O   0  0  0  0  0  0  0  0  0  0  0  0
    3.9262    1.6738   -2.7713 O   0  0  0  0  0  0  0  0  0  0  0  0
    4.5386    2.9473   -2.3701 C   0  0  0  0  0  0  0  0  0  0  0  0
    3.7031    3.9040   -1.4396 C   0  0  0  0  0  0  0  0  0  0  0  0
    3.3664    3.5196    0.0475 C   0  0  0  0  0  0  0  0  0  0  0  0
    4.5417    3.3699    1.0104 C   0  0  0  0  0  0  0  0  0  0  0  0
    2.1902    4.3089    0.6161 C   0  0  0  0  0  0  0  0  0  0  0  0
    0.8005   -2.2778    0.1558 H   0  0  0  0  0  0  0  0  0  0  0  0
    2.0062    1.2184    1.4460 H   0  0  0  0  0  0  0  0  0  0  0  0
    1.5195    1.6066   -2.3127 H   0  0  0  0  0  0  0  0  0  0  0  0
    5.5260    2.7483   -1.9381 H   0  0  0  0  0  0  0  0  0  0  0  0
    4.7335    3.4777   -3.3085 H   0  0  0  0  0  0  0  0  0  0  0  0
    4.2233    4.8682   -1.4091 H   0  0  0  0  0  0  0  0  0  0  0  0
    2.7562    4.0796   -1.9671 H   0  0  0  0  0  0  0  0  0  0  0  0
    2.9328    2.5411    0.0996 H   0  0  0  0  0  0  0  0  0  0  0  0
    4.8380    4.3064    1.4754 H   0  0  0  0  0  0  0  0  0  0  0  0
    4.2555    2.6632    1.8063 H   0  0  0  0  0  0  0  0  0  0  0  0
    5.4233    2.9374    0.5278 H   0  0  0  0  0  0  0  0  0  0  0  0
    1.3684    4.3433   -0.1106 H   0  0  0  0  0  0  0  0  0  0  0  0
    1.7889    3.7886    1.4972 H   0  0  0  0  0  0  0  0  0  0  0  0
    2.4662    5.3219    0.9017 H   0  0  0  0  0  0  0  0  0  0  0  0
  1  2  1  0  0  0  0
  1  3  1  0  0  0  0
  1  4  2  0  0  0  0
  1  5  1  0  0  0  0
  2 15  1  0  0  0  0
  3 16  1  0  0  0  0
  6  5  1  0  0  0  0
  6  7  1  0  0  0  0
  6  8  2  1  0  0  0
  6  9  1  0  0  0  0
  7 17  1  0  0  0  0
  9 10  1  0  0  0  0
 10 11  1  0  0  0  0
 10 18  1  0  0  0  0
 10 19  1  0  0  0  0
 11 12  1  0  0  0  0
 11 20  1  0  0  0  0
 11 21  1  0  0  0  0
 12 13  1  0  0  0  0
 12 14  1  0  0  0  0
 12 22  1  0  0  0  0
 13 23  1  0  0  0  0
 13 24  1  0  0  0  0
 13 25  1  0  0  0  0
 14 26  1  0  0  0  0
 14 27  1  0  0  0  0
 14 28  1  0  0  0  0
M  END
>  <DRUGBANK_ID>
DB02508

>  <SECONDARY_ACCESSION_NUMBERS>
EXPT01922

>  <COMMON_NAME>
Isopentyl Pyrophosphate

$$$$
