
 OpenBabel10282417203D

 45 48  0  0  0  0  0  0  0  0999 V2000
   -3.0555   -0.0626   -0.0391 C   0  0  0  0  0  0  0  0  0  0  0  0
   -2.8423    1.3086    0.0397 C   0  0  0  0  0  0  0  0  0  0  0  0
   -1.5410    1.8471    0.0689 C   0  0  0  0  0  0  0  0  0  0  0  0
   -0.4417    1.0093    0.0088 C   0  0  0  0  0  0  0  0  0  0  0  0
   -0.6447   -0.3343   -0.0864 C   0  0  0  0  0  0  0  0  0  0  0  0
   -1.9524   -0.8843   -0.0899 C   0  0  0  0  0  0  0  0  0  0  0  0
    0.5165   -1.1789   -0.1610 C   0  0  0  0  0  0  0  0  0  0  0  0
    1.8147   -0.8009   -0.0401 C   0  0  0  0  0  0  0  0  0  0  0  0
    2.0119    0.6901    0.0005 C   0  0  0  0  0  0  0  0  0  0  0  0
    3.1245    1.1804   -0.0171 O   0  0  0  0  0  0  0  0  0  0  0  0
    0.8673    1.5112    0.0345 O   0  0  0  0  0  0  0  0  0  0  0  0
    3.1562   -1.6603    0.1260 C   0  0  3  0  0  0  0  0  0  0  0  0
    3.0513   -2.6601    1.3415 C   0  0  0  0  0  0  0  0  0  0  0  0
    1.8811   -3.6957    1.4438 C   0  0  3  0  0  0  0  0  0  0  0  0
    1.6604   -4.7096    0.2742 C   0  0  0  0  0  0  0  0  0  0  0  0
    1.0697   -5.9524    0.4229 C   0  0  0  0  0  0  0  0  0  0  0  0
    0.9331   -6.8278   -0.6899 C   0  0  0  0  0  0  0  0  0  0  0  0
    1.2617   -6.4441   -1.9885 C   0  0  0  0  0  0  0  0  0  0  0  0
    1.5611   -5.1413   -2.2068 C   0  0  0  0  0  0  0  0  0  0  0  0
    1.7752   -4.3498   -1.0893 C   0  0  0  0  0  0  0  0  0  0  0  0
    1.2804   -7.5267   -3.3131 Cl  0  0  0  0  0  0  0  0  0  0  0  0
    1.9867   -4.3710    2.6996 O   0  0  0  0  0  0  0  0  0  0  0  0
    3.8209   -2.2862   -1.1609 C   0  0  0  0  0  0  0  0  0  0  0  0
    3.5890   -1.9261   -2.4858 C   0  0  0  0  0  0  0  0  0  0  0  0
    3.8316   -3.0076   -3.3999 C   0  0  0  0  0  0  0  0  0  0  0  0
    4.4435   -4.0670   -2.7791 C   0  0  0  0  0  0  0  0  0  0  0  0
    4.8371   -3.7269   -1.1529 S   0  0  0  0  0  0  0  0  0  0  0  0
    4.6626   -5.6407   -3.4593 Cl  0  0  0  0  0  0  0  0  0  0  0  0
    0.0168   -2.4110   -0.3506 O   0  0  0  0  0  0  0  0  0  0  0  0
   -4.0505   -0.4995   -0.0672 H   0  0  0  0  0  0  0  0  0  0  0  0
   -3.7034    1.9656    0.0788 H   0  0  0  0  0  0  0  0  0  0  0  0
   -1.3917    2.9164    0.1309 H   0  0  0  0  0  0  0  0  0  0  0  0
   -2.1208   -1.9639   -0.1383 H   0  0  0  0  0  0  0  0  0  0  0  0
    3.9465   -0.9573    0.4384 H   0  0  0  0  0  0  0  0  0  0  0  0
    3.9996   -3.1916    1.4908 H   0  0  0  0  0  0  0  0  0  0  0  0
    2.9883   -2.0234    2.2433 H   0  0  0  0  0  0  0  0  0  0  0  0
    0.9707   -3.1113    1.6174 H   0  0  0  0  0  0  0  0  0  0  0  0
    0.6682   -6.2509    1.3868 H   0  0  0  0  0  0  0  0  0  0  0  0
    0.5361   -7.8232   -0.5464 H   0  0  0  0  0  0  0  0  0  0  0  0
    1.6913   -4.7180   -3.2002 H   0  0  0  0  0  0  0  0  0  0  0  0
    1.9457   -3.3322   -1.3876 H   0  0  0  0  0  0  0  0  0  0  0  0
    2.7153   -5.0050    2.6378 H   0  0  0  0  0  0  0  0  0  0  0  0
    3.0332   -1.0400   -2.7588 H   0  0  0  0  0  0  0  0  0  0  0  0
    3.4565   -3.0441   -4.4168 H   0  0  0  0  0  0  0  0  0  0  0  0
    0.7275   -2.9905   -0.1881 H   0  0  0  0  0  0  0  0  0  0  0  0
  1  2  2  0  0  0  0
  1  6  1  0  0  0  0
  1 30  1  0  0  0  0
  2  3  1  0  0  0  0
  2 31  1  0  0  0  0
  3  4  2  0  0  0  0
  3 32  1  0  0  0  0
  4  5  1  0  0  0  0
  4 11  1  0  0  0  0
  5  6  2  0  0  0  0
  5  7  1  0  0  0  0
  6 33  1  0  0  0  0
  7  8  2  0  0  0  0
  7 29  1  0  0  0  0
  8  9  1  0  0  0  0
  8 12  1  0  0  0  0
  9 10  2  0  0  0  0
  9 11  1  0  0  0  0
 12 13  1  0  0  0  0
 12 23  1  0  0  0  0
 12 34  1  0  0  0  0
 13 14  1  0  0  0  0
 13 35  1  0  0  0  0
 13 36  1  0  0  0  0
 14 15  1  0  0  0  0
 14 22  1  0  0  0  0
 14 37  1  0  0  0  0
 15 16  2  0  0  0  0
 15 20  1  0  0  0  0
 16 17  1  0  0  0  0
 16 38  1  0  0  0  0
 17 18  2  0  0  0  0
 17 39  1  0  0  0  0
 18 19  1  0  0  0  0
 18 21  1  0  0  0  0
 19 20  2  0  0  0  0
 19 40  1  0  0  0  0
 20 41  1  0  0  0  0
 22 42  1  0  0  0  0
 23 24  2  0  0  0  0
 23 27  1  0  0  0  0
 24 25  1  0  0  0  0
 24 43  1  0  0  0  0
 25 26  2  0  0  0  0
 25 44  1  0  0  0  0
 26 27  1  0  0  0  0
 26 28  1  0  0  0  0
 29 45  1  0  0  0  0
M  END
>  <DRUGBANK_ID>
DB13451

>  <COMMON_NAME>
Tioclomarol

>  <CAS_NUMBER>
22619-35-8

>  <UNII>
E5B7C16LFK

>  <SYNONYMS>
Tioclomarol

$$$$
