MP2
 OpenBabel10282417173D

 37 37  0  0  0  0  0  0  0  0999 V2000
    1.1696    0.0586    0.3034 O   0  0  0  0  0  0  0  0  0  0  0  0
    2.4058   -0.0157    0.2936 C   0  0  0  0  0  0  0  0  0  0  0  0
    3.1020    0.9688    0.9647 N   0  0  0  0  0  0  0  0  0  0  0  0
    4.5490    1.2569    1.2237 C   0  0  1  0  0  0  0  0  0  0  0  0
    5.1858    2.5887    0.6985 C   0  0  0  0  0  0  0  0  0  0  0  0
    4.7596    4.3732    0.8501 S   0  0  0  0  0  0  0  0  0  0  0  0
    5.0017    1.0137    2.6397 C   0  0  0  0  0  0  0  0  0  0  0  0
    5.7425    0.0720    2.9244 O   0  0  0  0  0  0  0  0  0  0  0  0
    4.6305    1.9298    3.5751 N   0  0  0  0  0  0  0  0  0  0  0  0
    3.7399    3.0405    3.3388 C   0  0  0  0  0  0  0  0  0  0  0  0
    2.4098    3.0920    4.0094 C   0  0  0  0  0  0  0  0  0  0  0  0
    2.1437    4.2722    4.5903 O   0  0  0  0  0  0  0  0  0  0  0  0
    1.5828    2.1737    3.9122 O   0  0  0  0  0  0  0  0  0  0  0  0
    2.9941   -0.9663   -0.4769 O   0  0  0  0  0  0  0  0  0  0  0  0
    4.3660   -0.9776   -0.9034 C   0  0  0  0  0  0  0  0  0  0  0  0
    4.7549    0.2442   -1.7514 C   0  0  0  0  0  0  0  0  0  0  0  0
    3.9121    1.3707   -1.8957 C   0  0  0  0  0  0  0  0  0  0  0  0
    4.3888    2.6258   -2.3145 C   0  0  0  0  0  0  0  0  0  0  0  0
    5.7310    2.7745   -2.6192 C   0  0  0  0  0  0  0  0  0  0  0  0
    6.5449    1.6421   -2.6416 C   0  0  0  0  0  0  0  0  0  0  0  0
    6.0568    0.3797   -2.2469 C   0  0  0  0  0  0  0  0  0  0  0  0
    5.1163    0.5198    0.6842 H   0  0  0  0  0  0  0  0  0  0  0  0
    2.4038    1.5549    1.4079 H   0  0  0  0  0  0  0  0  0  0  0  0
    6.2722    2.4847    0.5998 H   0  0  0  0  0  0  0  0  0  0  0  0
    4.8116    2.5724   -0.2727 H   0  0  0  0  0  0  0  0  0  0  0  0
    3.4278    4.2021    0.7319 H   0  0  0  0  0  0  0  0  0  0  0  0
    5.0619    1.7973    4.4795 H   0  0  0  0  0  0  0  0  0  0  0  0
    4.3074    3.9671    3.4501 H   0  0  0  0  0  0  0  0  0  0  0  0
    3.3778    2.9895    2.3204 H   0  0  0  0  0  0  0  0  0  0  0  0
    2.8647    4.9328    4.5222 H   0  0  0  0  0  0  0  0  0  0  0  0
    4.9574   -1.1426    0.0080 H   0  0  0  0  0  0  0  0  0  0  0  0
    4.5459   -1.8970   -1.4697 H   0  0  0  0  0  0  0  0  0  0  0  0
    2.9261    1.4081   -1.4443 H   0  0  0  0  0  0  0  0  0  0  0  0
    3.7828    3.5093   -2.0924 H   0  0  0  0  0  0  0  0  0  0  0  0
    6.1440    3.7732   -2.7470 H   0  0  0  0  0  0  0  0  0  0  0  0
    7.5904    1.7597   -2.9129 H   0  0  0  0  0  0  0  0  0  0  0  0
    6.7283   -0.4751   -2.2795 H   0  0  0  0  0  0  0  0  0  0  0  0
  1  2  2  0  0  0  0
  2  3  1  0  0  0  0
  2 14  1  0  0  0  0
  3 23  1  0  0  0  0
  4  3  1  0  0  0  0
  4  5  1  0  0  0  0
  4  7  1  0  0  0  0
  4 22  1  6  0  0  0
  5  6  1  0  0  0  0
  5 24  1  0  0  0  0
  5 25  1  0  0  0  0
  6 26  1  0  0  0  0
  7  8  2  0  0  0  0
  7  9  1  0  0  0  0
  9 10  1  0  0  0  0
  9 27  1  0  0  0  0
 10 11  1  0  0  0  0
 10 28  1  0  0  0  0
 10 29  1  0  0  0  0
 11 12  1  0  0  0  0
 11 13  2  0  0  0  0
 12 30  1  0  0  0  0
 14 15  1  0  0  0  0
 15 16  1  0  0  0  0
 15 31  1  0  0  0  0
 15 32  1  0  0  0  0
 16 17  1  0  0  0  0
 16 21  2  0  0  0  0
 17 18  2  0  0  0  0
 17 33  1  0  0  0  0
 18 19  1  0  0  0  0
 18 34  1  0  0  0  0
 19 20  2  0  0  0  0
 19 35  1  0  0  0  0
 20 21  1  0  0  0  0
 20 36  1  0  0  0  0
 21 37  1  0  0  0  0
M  END
>  <DRUGBANK_ID>
DB08199

>  <COMMON_NAME>
N-[(BENZYLOXY)CARBONYL]-L-CYSTEINYLGLYCINE

$$$$
