
 OpenBabel10282417133D

 68 69  0  0  0  0  0  0  0  0999 V2000
   -0.7842    1.0654    1.6167 C   0  0  0  0  0  0  0  0  0  0  0  0
   -1.8418    2.0637    1.7070 C   0  0  0  0  0  0  0  0  0  0  0  0
   -2.2856    2.0426    3.1278 C   0  0  3  0  0  0  0  0  0  0  0  0
   -3.7252    1.6619    3.0290 C   0  0  1  0  0  0  0  0  0  0  0  0
   -3.8398    0.2230    3.2455 N   0  0  0  0  0  0  0  0  0  0  0  0
   -4.6096    2.2513    3.9316 N   0  0  0  0  0  0  0  0  0  0  0  0
   -4.0967    3.1009    4.9409 C   0  0  1  0  0  0  0  0  0  0  0  0
   -4.4632    2.4024    6.1276 N   0  0  0  0  0  0  0  0  0  0  0  0
   -2.7154    3.5228    5.0008 N   0  0  0  0  0  0  0  0  0  0  0  0
   -1.9390    3.1040    4.0885 C   0  0  0  0  0  0  0  0  0  0  0  0
   -0.6317    3.4207    4.1477 O   0  0  0  0  0  0  0  0  0  0  0  0
   -4.6586    4.0322    4.8480 H   0  0  0  0  0  0  0  0  0  0  0  0
   -4.1391    1.8927    2.0398 H   0  0  0  0  0  0  0  0  0  0  0  0
    0.5546    1.3445    2.2638 C   0  0  0  0  0  0  0  0  0  0  0  0
    1.2555   -0.0339    2.3418 C   0  0  2  0  0  0  0  0  0  0  0  0
    1.0747   -0.7745    0.9721 C   0  0  0  0  0  0  0  0  0  0  0  0
    0.9611   -2.1475    0.9571 C   0  0  0  0  0  0  0  0  0  0  0  0
    0.2605   -2.8271   -0.0297 C   0  0  0  0  0  0  0  0  0  0  0  0
   -0.2259   -2.1427   -1.1348 C   0  0  0  0  0  0  0  0  0  0  0  0
   -0.0559   -0.7684   -1.1993 C   0  0  0  0  0  0  0  0  0  0  0  0
    0.7604   -0.1327   -0.2509 C   0  0  0  0  0  0  0  0  0  0  0  0
   -0.6371   -2.9472   -2.3054 C   0  0  0  0  0  0  0  0  0  0  0  0
   -0.9662   -2.2675   -3.4552 N   0  0  0  0  0  0  0  0  0  0  0  0
   -1.1965   -2.9948   -4.6929 C   0  0  1  0  0  0  0  0  0  0  0  0
   -2.5932   -2.6274   -5.2173 C   0  0  0  0  0  0  0  0  0  0  0  0
   -2.8778   -1.1387   -5.4645 C   0  0  0  0  0  0  0  0  0  0  0  0
   -2.2152   -0.5450   -6.6866 C   0  0  0  0  0  0  0  0  0  0  0  0
   -2.6243   -0.5735   -7.8101 O   0  0  0  0  0  0  0  0  0  0  0  0
   -1.0175    0.0069   -6.4054 O   0  0  0  0  0  0  0  0  0  0  0  0
   -0.0570   -2.8654   -5.7149 C   0  0  0  0  0  0  0  0  0  0  0  0
    0.1911   -3.6489   -6.6149 O   0  0  0  0  0  0  0  0  0  0  0  0
    0.5861   -1.6814   -5.6908 O   0  0  0  0  0  0  0  0  0  0  0  0
   -1.2038   -4.0654   -4.4597 H   0  0  0  0  0  0  0  0  0  0  0  0
   -0.5787   -4.1706   -2.2475 O   0  0  0  0  0  0  0  0  0  0  0  0
    0.6654   -0.7012    3.7501 C   0  0  0  0  0  0  0  0  0  0  0  0
    1.0922   -2.1553    4.0251 C   0  0  0  0  0  0  0  0  0  0  0  0
    2.4075   -2.3172    3.7841 F   0  0  0  0  0  0  0  0  0  0  0  0
    0.8544   -2.4840    5.3185 F   0  0  0  0  0  0  0  0  0  0  0  0
    0.3764   -3.0484    3.3083 F   0  0  0  0  0  0  0  0  0  0  0  0
    1.1062    0.1457    4.8391 O   0  0  0  0  0  0  0  0  0  0  0  0
   -0.7711   -0.6580    3.8645 O   0  0  0  0  0  0  0  0  0  0  0  0
    2.3294    0.1406    2.4850 H   0  0  0  0  0  0  0  0  0  0  0  0
   -0.7339    1.0404    0.5507 H   0  0  0  0  0  0  0  0  0  0  0  0
   -1.1743    0.0769    1.8910 H   0  0  0  0  0  0  0  0  0  0  0  0
   -1.5858    3.0083    1.2355 H   0  0  0  0  0  0  0  0  0  0  0  0
   -2.5804    1.5814    1.0358 H   0  0  0  0  0  0  0  0  0  0  0  0
   -1.7816    1.2410    3.6730 H   0  0  0  0  0  0  0  0  0  0  0  0
   -3.1798   -0.2427    2.6093 H   0  0  0  0  0  0  0  0  0  0  0  0
   -3.4036    0.0337    4.1508 H   0  0  0  0  0  0  0  0  0  0  0  0
   -5.2497    1.5292    4.2228 H   0  0  0  0  0  0  0  0  0  0  0  0
   -4.4892    1.4159    5.8887 H   0  0  0  0  0  0  0  0  0  0  0  0
   -5.4220    2.6629    6.3298 H   0  0  0  0  0  0  0  0  0  0  0  0
   -0.4103    3.7401    5.0398 H   0  0  0  0  0  0  0  0  0  0  0  0
    1.0825    2.1281    1.7082 H   0  0  0  0  0  0  0  0  0  0  0  0
    0.4812    1.7363    3.2783 H   0  0  0  0  0  0  0  0  0  0  0  0
    1.4577   -2.7423    1.6985 H   0  0  0  0  0  0  0  0  0  0  0  0
    0.1422   -3.9031    0.0674 H   0  0  0  0  0  0  0  0  0  0  0  0
   -0.5782   -0.1641   -1.9375 H   0  0  0  0  0  0  0  0  0  0  0  0
    0.8924    0.9456   -0.3899 H   0  0  0  0  0  0  0  0  0  0  0  0
   -0.8563   -1.2671   -3.5262 H   0  0  0  0  0  0  0  0  0  0  0  0
   -2.8307   -3.2200   -6.1063 H   0  0  0  0  0  0  0  0  0  0  0  0
   -3.3064   -2.9444   -4.4391 H   0  0  0  0  0  0  0  0  0  0  0  0
   -3.9534   -1.0125   -5.6327 H   0  0  0  0  0  0  0  0  0  0  0  0
   -2.6512   -0.5295   -4.5833 H   0  0  0  0  0  0  0  0  0  0  0  0
   -0.5781    0.0758   -7.2787 H   0  0  0  0  0  0  0  0  0  0  0  0
    0.9811   -1.6249   -6.5874 H   0  0  0  0  0  0  0  0  0  0  0  0
    2.0777    0.1287    4.8493 H   0  0  0  0  0  0  0  0  0  0  0  0
   -1.0113   -1.1403    4.6781 H   0  0  0  0  0  0  0  0  0  0  0  0
  1  2  1  0  0  0  0
  1 14  1  0  0  0  0
  1 43  1  0  0  0  0
  1 44  1  0  0  0  0
  2  3  1  0  0  0  0
  2 45  1  0  0  0  0
  2 46  1  0  0  0  0
  3  4  1  0  0  0  0
  3 10  1  0  0  0  0
  3 47  1  0  0  0  0
  4  5  1  0  0  0  0
  4  6  1  0  0  0  0
  4 13  1  6  0  0  0
  5 48  1  0  0  0  0
  5 49  1  0  0  0  0
  6  7  1  0  0  0  0
  6 50  1  0  0  0  0
  7  9  1  0  0  0  0
  7 12  1  6  0  0  0
  7  8  1  0  0  0  0
  8 51  1  0  0  0  0
  8 52  1  0  0  0  0
  9 10  2  0  0  0  0
 10 11  1  0  0  0  0
 11 53  1  0  0  0  0
 14 54  1  0  0  0  0
 14 55  1  0  0  0  0
 15 35  1  0  0  0  0
 15 42  1  1  0  0  0
 15 16  1  0  0  0  0
 15 14  1  0  0  0  0
 16 17  2  0  0  0  0
 16 21  1  0  0  0  0
 17 18  1  0  0  0  0
 17 56  1  0  0  0  0
 18 19  2  0  0  0  0
 18 57  1  0  0  0  0
 19 20  1  0  0  0  0
 19 22  1  0  0  0  0
 20 21  2  0  0  0  0
 20 58  1  0  0  0  0
 21 59  1  0  0  0  0
 22 23  1  0  0  0  0
 22 34  2  0  0  0  0
 23 24  1  0  0  0  0
 23 60  1  0  0  0  0
 24 25  1  0  0  0  0
 24 30  1  0  0  0  0
 24 33  1  1  0  0  0
 25 26  1  0  0  0  0
 25 61  1  0  0  0  0
 25 62  1  0  0  0  0
 26 27  1  0  0  0  0
 26 63  1  0  0  0  0
 26 64  1  0  0  0  0
 27 28  2  0  0  0  0
 27 29  1  0  0  0  0
 29 65  1  0  0  0  0
 30 31  2  0  0  0  0
 30 32  1  0  0  0  0
 32 66  1  0  0  0  0
 35 36  1  0  0  0  0
 35 40  1  0  0  0  0
 35 41  1  0  0  0  0
 36 37  1  0  0  0  0
 36 38  1  0  0  0  0
 36 39  1  0  0  0  0
 40 67  1  0  0  0  0
 41 68  1  0  0  0  0
M  END
>  <DRUGBANK_ID>
DB03546

>  <SECONDARY_ACCESSION_NUMBERS>
EXPT01969

>  <COMMON_NAME>
N-({4-[(1R)-4-[(2R,4S,5S)-2,4-diamino-6-oxohexahydropyrimidin-5-yl]-1-(2,2,2-trifluoro-1,1-dihydroxyethyl)butyl]phenyl}carbonyl)-L-glutamic acid

$$$$
