
 OpenBabel10282417173D

 56 58  0  0  0  0  0  0  0  0999 V2000
    0.7743   -0.3825   -0.1362 O   0  0  0  0  0  0  0  0  0  0  0  0
    5.6400    1.4122   -0.6823 N   0  0  0  0  0  0  0  0  0  0  0  0
    2.9510   -1.2773    0.3089 N   0  0  0  0  0  0  0  0  0  0  0  0
    4.5527   -1.2084    0.3543 C   0  0  3  0  0  0  0  0  0  0  0  0
    5.2326   -0.1898    1.3018 C   0  0  0  0  0  0  0  0  0  0  0  0
    5.2807   -1.1218   -1.0282 C   0  0  0  0  0  0  0  0  0  0  0  0
    5.3293    1.2096    0.7314 C   0  0  0  0  0  0  0  0  0  0  0  0
    5.3842    0.3100   -1.6658 C   0  0  0  0  0  0  0  0  0  0  0  0
    5.2677    2.8303   -1.0505 C   0  0  0  0  0  0  0  0  0  0  0  0
    3.7414    3.3111   -1.0031 C   0  0  3  0  0  0  0  0  0  0  0  0
    2.3502   -2.5136    0.7036 C   0  0  0  0  0  0  0  0  0  0  0  0
    1.9623   -0.4274   -0.3351 C   0  0  0  0  0  0  0  0  0  0  0  0
    2.7999    3.2335    0.3641 C   0  0  0  0  0  0  0  0  0  0  0  0
    3.3882    4.5380   -1.8803 C   0  0  0  0  0  0  0  0  0  0  0  0
    2.5487    0.5832   -1.2179 C   0  0  0  0  0  0  0  0  0  0  0  0
    1.2655   -2.9687   -0.0721 C   0  0  0  0  0  0  0  0  0  0  0  0
    2.7877   -3.2917    1.7677 C   0  0  0  0  0  0  0  0  0  0  0  0
    2.3766    2.0604    1.1381 C   0  0  0  0  0  0  0  0  0  0  0  0
    2.4805    4.3705    1.0438 C   0  0  0  0  0  0  0  0  0  0  0  0
    1.8514    1.2094   -2.3668 C   0  0  0  0  0  0  0  0  0  0  0  0
    0.6111   -4.1481    0.1860 C   0  0  0  0  0  0  0  0  0  0  0  0
    2.1762   -4.5314    1.9825 C   0  0  0  0  0  0  0  0  0  0  0  0
    1.8912    1.8962    2.4160 C   0  0  0  0  0  0  0  0  0  0  0  0
    2.1067    4.2562    2.4137 C   0  0  0  0  0  0  0  0  0  0  0  0
    1.0832   -4.9438    1.2087 C   0  0  0  0  0  0  0  0  0  0  0  0
    1.8416    3.0470    3.1014 C   0  0  0  0  0  0  0  0  0  0  0  0
    4.8518   -2.1811    0.7696 H   0  0  0  0  0  0  0  0  0  0  0  0
    4.7161   -0.1723    2.2713 H   0  0  0  0  0  0  0  0  0  0  0  0
    6.2672   -0.4970    1.5113 H   0  0  0  0  0  0  0  0  0  0  0  0
    6.3111   -1.4820   -0.9132 H   0  0  0  0  0  0  0  0  0  0  0  0
    4.7683   -1.8221   -1.7010 H   0  0  0  0  0  0  0  0  0  0  0  0
    4.3722    1.5886    0.9333 H   0  0  0  0  0  0  0  0  0  0  0  0
    5.9085    1.8978    1.3630 H   0  0  0  0  0  0  0  0  0  0  0  0
    6.0587    0.3556   -2.5240 H   0  0  0  0  0  0  0  0  0  0  0  0
    4.5024    0.3936   -2.3227 H   0  0  0  0  0  0  0  0  0  0  0  0
    5.8436    3.5329   -0.4411 H   0  0  0  0  0  0  0  0  0  0  0  0
    5.6454    2.9591   -2.0772 H   0  0  0  0  0  0  0  0  0  0  0  0
    3.4953    2.6021   -1.7613 H   0  0  0  0  0  0  0  0  0  0  0  0
    3.7971    4.4567   -2.9015 H   0  0  0  0  0  0  0  0  0  0  0  0
    2.2968    4.5942   -2.0190 H   0  0  0  0  0  0  0  0  0  0  0  0
    3.7470    5.4632   -1.4398 H   0  0  0  0  0  0  0  0  0  0  0  0
    2.8149    1.4282   -0.6997 H   0  0  0  0  0  0  0  0  0  0  0  0
    3.5248    0.2902   -1.1000 H   0  0  0  0  0  0  0  0  0  0  0  0
    0.8929   -2.4029   -0.9237 H   0  0  0  0  0  0  0  0  0  0  0  0
    3.5612   -2.9515    2.4495 H   0  0  0  0  0  0  0  0  0  0  0  0
    2.6441    1.0481    0.9332 H   0  0  0  0  0  0  0  0  0  0  0  0
    2.6325    5.3386    0.5878 H   0  0  0  0  0  0  0  0  0  0  0  0
    0.8457    1.4762   -2.0490 H   0  0  0  0  0  0  0  0  0  0  0  0
    2.2003    2.1813   -2.7470 H   0  0  0  0  0  0  0  0  0  0  0  0
    1.9942    0.5573   -3.2080 H   0  0  0  0  0  0  0  0  0  0  0  0
   -0.2309   -4.4170   -0.4410 H   0  0  0  0  0  0  0  0  0  0  0  0
    2.5524   -5.1919    2.7569 H   0  0  0  0  0  0  0  0  0  0  0  0
    1.8171    0.8840    2.8318 H   0  0  0  0  0  0  0  0  0  0  0  0
    2.1180    5.1558    3.0064 H   0  0  0  0  0  0  0  0  0  0  0  0
    0.5916   -5.8901    1.3963 H   0  0  0  0  0  0  0  0  0  0  0  0
    1.6656    2.9735    4.1642 H   0  0  0  0  0  0  0  0  0  0  0  0
  1 12  2  0  0  0  0
  2  7  1  0  0  0  0
  2  8  1  0  0  0  0
  2  9  1  0  0  0  0
  3  4  1  0  0  0  0
  3 11  1  0  0  0  0
  3 12  1  0  0  0  0
  4  5  1  0  0  0  0
  4  6  1  0  0  0  0
  4 27  1  0  0  0  0
  5  7  1  0  0  0  0
  5 28  1  0  0  0  0
  5 29  1  0  0  0  0
  6  8  1  0  0  0  0
  6 30  1  0  0  0  0
  6 31  1  0  0  0  0
  7 32  1  0  0  0  0
  7 33  1  0  0  0  0
  8 34  1  0  0  0  0
  8 35  1  0  0  0  0
  9 10  1  0  0  0  0
  9 36  1  0  0  0  0
  9 37  1  0  0  0  0
 10 13  1  0  0  0  0
 10 14  1  0  0  0  0
 10 38  1  0  0  0  0
 11 16  2  0  0  0  0
 11 17  1  0  0  0  0
 12 15  1  0  0  0  0
 13 18  2  0  0  0  0
 13 19  1  0  0  0  0
 14 39  1  0  0  0  0
 14 40  1  0  0  0  0
 14 41  1  0  0  0  0
 15 20  1  0  0  0  0
 15 42  1  0  0  0  0
 15 43  1  0  0  0  0
 16 21  1  0  0  0  0
 16 44  1  0  0  0  0
 17 22  2  0  0  0  0
 17 45  1  0  0  0  0
 18 23  1  0  0  0  0
 18 46  1  0  0  0  0
 19 24  2  0  0  0  0
 19 47  1  0  0  0  0
 20 48  1  0  0  0  0
 20 49  1  0  0  0  0
 20 50  1  0  0  0  0
 21 25  2  0  0  0  0
 21 51  1  0  0  0  0
 22 25  1  0  0  0  0
 22 52  1  0  0  0  0
 23 26  2  0  0  0  0
 23 53  1  0  0  0  0
 24 26  1  0  0  0  0
 24 54  1  0  0  0  0
 25 55  1  0  0  0  0
 26 56  1  0  0  0  0
M  END
>  <DRUGBANK_ID>
DB09171

>  <COMMON_NAME>
Î²-Methylfentanyl

>  <CAS_NUMBER>
79146-56-8

>  <UNII>
9658A8O6GK

>  <SYNONYMS>
beta-Methylfentanyl; Betamethylfentanyl

$$$$
