N2G
 OpenBabel10282417173D

 56 60  0  0  0  0  0  0  0  0999 V2000
    0.9243    0.0637   -0.0143 P   0  0  0  0  0  0  0  0  0  0  0  0
    0.6992    0.6968   -1.4835 O   0  0  0  0  0  0  0  0  0  0  0  0
    0.7864   -1.4114    0.2786 O   0  0  0  0  0  0  0  0  0  0  0  0
   -0.8057    0.0637   -0.0143 O   0  0  0  0  0  0  0  0  0  0  0  0
    2.6543    0.0637   -0.0143 O   0  0  0  0  0  0  0  0  0  0  0  0
    4.0479   -1.8897    3.1620 C   0  0  0  0  0  0  0  0  0  0  0  0
    3.4258   -2.2973    1.9723 C   0  0  0  0  0  0  0  0  0  0  0  0
    2.2622   -3.0617    1.9737 C   0  0  0  0  0  0  0  0  0  0  0  0
    1.6282   -3.3685    3.1626 C   0  0  0  0  0  0  0  0  0  0  0  0
    2.2044   -2.9663    4.3624 C   0  0  0  0  0  0  0  0  0  0  0  0
    3.4213   -2.2588    4.3794 C   0  0  0  0  0  0  0  0  0  0  0  0
    4.0252   -1.9192    5.5951 C   0  0  0  0  0  0  0  0  0  0  0  0
    5.2312   -1.2218    5.6199 C   0  0  0  0  0  0  0  0  0  0  0  0
    5.8435   -0.8368    4.4267 C   0  0  0  0  0  0  0  0  0  0  0  0
    5.2594   -1.1464    3.1849 C   0  0  0  0  0  0  0  0  0  0  0  0
    5.9295   -0.6711    1.9075 C   0  0  0  0  0  0  0  0  0  0  0  0
    6.8382   -1.6657    1.3736 N   0  0  0  0  0  0  0  0  0  0  0  0
    6.6946   -2.2659    0.1467 C   0  0  0  0  0  0  0  0  0  0  0  0
    7.6757   -3.2028   -0.1517 N   0  0  0  0  0  0  0  0  0  0  0  0
    7.7473   -3.9488   -1.3230 C   0  0  0  0  0  0  0  0  0  0  0  0
    8.6347   -4.7521   -1.5356 O   0  0  0  0  0  0  0  0  0  0  0  0
    5.7195   -1.9830   -0.6892 N   0  0  0  0  0  0  0  0  0  0  0  0
    5.7487   -2.6922   -1.8535 C   0  0  0  0  0  0  0  0  0  0  0  0
    6.6672   -3.6458   -2.2264 C   0  0  0  0  0  0  0  0  0  0  0  0
    6.4049   -4.1955   -3.4554 N   0  0  0  0  0  0  0  0  0  0  0  0
    5.3233   -3.5771   -3.8478 C   0  0  0  0  0  0  0  0  0  0  0  0
    4.9002   -2.6583   -2.9263 N   0  0  0  0  0  0  0  0  0  0  0  0
    3.6727   -1.9771   -3.1620 C   0  0  2  0  0  0  0  0  0  0  0  0
    3.8760   -0.5630   -3.1334 O   0  0  0  0  0  0  0  0  0  0  0  0
    2.5852   -2.4003   -2.2366 C   0  0  0  0  0  0  0  0  0  0  0  0
    1.7099   -1.2342   -2.4534 C   0  0  1  0  0  0  0  0  0  0  0  0
    2.7082   -0.0189   -2.5086 C   0  0  1  0  0  0  0  0  0  0  0  0
    3.1881    0.6710   -1.1829 C   0  0  0  0  0  0  0  0  0  0  0  0
    0.8178   -1.3620   -3.5546 O   0  0  0  0  0  0  0  0  0  0  0  0
    3.3244   -2.1930   -4.1793 H   0  0  0  0  0  0  0  0  0  0  0  0
    2.3440    0.7740   -3.1772 H   0  0  0  0  0  0  0  0  0  0  0  0
    1.0098   -1.3587   -1.6724 H   0  0  0  0  0  0  0  0  0  0  0  0
    0.5067    1.6443   -1.5642 H   0  0  0  0  0  0  0  0  0  0  0  0
   -1.0501   -0.5679    0.6911 H   0  0  0  0  0  0  0  0  0  0  0  0
    3.8283   -2.0248    1.0029 H   0  0  0  0  0  0  0  0  0  0  0  0
    1.8279   -3.3677    1.0251 H   0  0  0  0  0  0  0  0  0  0  0  0
    0.6909   -3.9154    3.1427 H   0  0  0  0  0  0  0  0  0  0  0  0
    1.6969   -3.2218    5.2888 H   0  0  0  0  0  0  0  0  0  0  0  0
    3.5653   -2.2159    6.5355 H   0  0  0  0  0  0  0  0  0  0  0  0
    5.6900   -0.9783    6.5751 H   0  0  0  0  0  0  0  0  0  0  0  0
    6.7797   -0.2850    4.4738 H   0  0  0  0  0  0  0  0  0  0  0  0
    6.4868    0.2511    2.1140 H   0  0  0  0  0  0  0  0  0  0  0  0
    5.1778   -0.3706    1.1736 H   0  0  0  0  0  0  0  0  0  0  0  0
    7.5847   -1.9441    1.9965 H   0  0  0  0  0  0  0  0  0  0  0  0
    8.4224   -3.3948    0.4919 H   0  0  0  0  0  0  0  0  0  0  0  0
    4.7758   -3.7397   -4.7678 H   0  0  0  0  0  0  0  0  0  0  0  0
    2.9164   -2.4472   -1.1917 H   0  0  0  0  0  0  0  0  0  0  0  0
    2.0826   -3.3361   -2.4882 H   0  0  0  0  0  0  0  0  0  0  0  0
    2.8619    1.7238   -1.1548 H   0  0  0  0  0  0  0  0  0  0  0  0
    4.2787    0.7114   -1.0954 H   0  0  0  0  0  0  0  0  0  0  0  0
    1.2276   -1.0510   -4.3664 H   0  0  0  0  0  0  0  0  0  0  0  0
  1  2  1  0  0  0  0
  1  3  2  0  0  0  0
  1  4  1  0  0  0  0
  1  5  1  0  0  0  0
  2 38  1  0  0  0  0
  4 39  1  0  0  0  0
  5 33  1  0  0  0  0
  6  7  1  0  0  0  0
  6 11  2  0  0  0  0
  6 15  1  0  0  0  0
  7  8  2  0  0  0  0
  7 40  1  0  0  0  0
  8  9  1  0  0  0  0
  8 41  1  0  0  0  0
  9 10  2  0  0  0  0
  9 42  1  0  0  0  0
 10 11  1  0  0  0  0
 10 43  1  0  0  0  0
 11 12  1  0  0  0  0
 12 13  2  0  0  0  0
 12 44  1  0  0  0  0
 13 14  1  0  0  0  0
 13 45  1  0  0  0  0
 14 15  2  0  0  0  0
 14 46  1  0  0  0  0
 15 16  1  0  0  0  0
 16 17  1  0  0  0  0
 16 47  1  0  0  0  0
 16 48  1  0  0  0  0
 17 18  1  0  0  0  0
 17 49  1  0  0  0  0
 18 19  1  0  0  0  0
 18 22  2  0  0  0  0
 19 20  1  0  0  0  0
 19 50  1  0  0  0  0
 20 21  2  0  0  0  0
 20 24  1  0  0  0  0
 22 23  1  0  0  0  0
 23 24  2  0  0  0  0
 23 27  1  0  0  0  0
 24 25  1  0  0  0  0
 25 26  2  0  0  0  0
 26 27  1  0  0  0  0
 26 51  1  0  0  0  0
 28 29  1  0  0  0  0
 28 30  1  0  0  0  0
 28 35  1  6  0  0  0
 28 27  1  0  0  0  0
 29 32  1  0  0  0  0
 30 31  1  0  0  0  0
 30 52  1  0  0  0  0
 30 53  1  0  0  0  0
 31 32  1  0  0  0  0
 31 34  1  0  0  0  0
 31 37  1  1  0  0  0
 32 33  1  0  0  0  0
 32 36  1  6  0  0  0
 33 54  1  0  0  0  0
 33 55  1  0  0  0  0
 34 56  1  0  0  0  0
M  END
>  <DRUGBANK_ID>
DB08237

>  <COMMON_NAME>
2'-deoxy-N-(naphthalen-1-ylmethyl)guanosine 5'-(dihydrogen phosphate)

$$$$
