344
 OpenBabel10282417163D

 22 24  0  0  0  0  0  0  0  0999 V2000
    2.8343   -1.0507   -0.1188 N   0  0  0  0  0  0  0  0  0  0  0  0
    3.5098    0.0803   -0.1737 C   0  0  0  0  0  0  0  0  0  0  0  0
    2.6929    1.1565    0.0098 N   0  0  0  0  0  0  0  0  0  0  0  0
    1.4136    0.6912    0.1407 C   0  0  0  0  0  0  0  0  0  0  0  0
    0.2170    1.3748    0.3001 C   0  0  0  0  0  0  0  0  0  0  0  0
   -0.9620    0.6456    0.1781 C   0  0  0  0  0  0  0  0  0  0  0  0
   -2.1441    1.3963    0.1025 N   0  0  0  0  0  0  0  0  0  0  0  0
   -3.2615    0.7821   -0.0930 C   0  0  0  0  0  0  0  0  0  0  0  0
   -4.4028    1.4955   -0.2149 N   0  0  0  0  0  0  0  0  0  0  0  0
   -3.3274   -0.5776   -0.1808 N   0  0  0  0  0  0  0  0  0  0  0  0
   -2.2309   -1.4134   -0.0802 C   0  0  0  0  0  0  0  0  0  0  0  0
   -2.3491   -2.6361   -0.1437 O   0  0  0  0  0  0  0  0  0  0  0  0
   -0.9146   -0.7496    0.0826 C   0  0  0  0  0  0  0  0  0  0  0  0
    0.3181   -1.4533    0.0925 C   0  0  0  0  0  0  0  0  0  0  0  0
    1.5077   -0.6906    0.0407 C   0  0  0  0  0  0  0  0  0  0  0  0
    4.5726    0.2035   -0.3453 H   0  0  0  0  0  0  0  0  0  0  0  0
    2.9580    2.1308   -0.0199 H   0  0  0  0  0  0  0  0  0  0  0  0
    0.1864    2.4479    0.4327 H   0  0  0  0  0  0  0  0  0  0  0  0
   -4.3282    2.5054   -0.1609 H   0  0  0  0  0  0  0  0  0  0  0  0
   -5.3192    1.1005   -0.3515 H   0  0  0  0  0  0  0  0  0  0  0  0
   -4.2199   -1.0228   -0.3165 H   0  0  0  0  0  0  0  0  0  0  0  0
    0.3617   -2.5388    0.0794 H   0  0  0  0  0  0  0  0  0  0  0  0
  1  2  2  0  0  0  0
  1 15  1  0  0  0  0
  2  3  1  0  0  0  0
  2 16  1  0  0  0  0
  3  4  1  0  0  0  0
  3 17  1  0  0  0  0
  4  5  1  0  0  0  0
  4 15  2  0  0  0  0
  5  6  2  0  0  0  0
  5 18  1  0  0  0  0
  6  7  1  0  0  0  0
  6 13  1  0  0  0  0
  7  8  2  0  0  0  0
  8  9  1  0  0  0  0
  8 10  1  0  0  0  0
  9 19  1  0  0  0  0
  9 20  1  0  0  0  0
 10 11  1  0  0  0  0
 10 21  1  0  0  0  0
 11 12  2  0  0  0  0
 11 13  1  0  0  0  0
 13 14  2  0  0  0  0
 14 15  1  0  0  0  0
 14 22  1  0  0  0  0
M  END
>  <DRUGBANK_ID>
DB07012

>  <COMMON_NAME>
6-AMINO-3,7-DIHYDRO-IMIDAZO[4,5-G]QUINAZOLIN-8-ONE

$$$$
