GVP
 OpenBabel10282417163D

 44 47  0  0  0  0  0  0  0  0999 V2000
   -2.2347   -0.0816   -0.0008 Cl  0  0  0  0  0  0  0  0  0  0  0  0
   -0.5203   -0.0605   -0.0216 C   0  0  0  0  0  0  0  0  0  0  0  0
    0.1470    1.1471   -0.0158 C   0  0  0  0  0  0  0  0  0  0  0  0
    1.5402    1.1605   -0.0066 C   0  0  0  0  0  0  0  0  0  0  0  0
    2.3255   -0.0069   -0.0178 C   0  0  0  0  0  0  0  0  0  0  0  0
    1.6008   -1.2127   -0.0828 C   0  0  0  0  0  0  0  0  0  0  0  0
    0.2014   -1.2434   -0.0548 C   0  0  0  0  0  0  0  0  0  0  0  0
    3.8968    0.0367    0.0439 C   0  0  0  0  0  0  0  0  0  0  0  0
    4.4047    0.7792    1.3166 C   0  0  0  0  0  0  0  0  0  0  0  0
    4.2015    2.2915    1.2838 C   0  0  0  0  0  0  0  0  0  0  0  0
    4.7129    2.9085    0.0630 N   0  0  0  0  0  0  0  0  0  0  0  0
    4.2460    2.3021   -1.1798 C   0  0  0  0  0  0  0  0  0  0  0  0
    4.4588    0.7963   -1.1948 C   0  0  0  0  0  0  0  0  0  0  0  0
    4.4922   -1.4089    0.0991 C   0  0  0  0  0  0  0  0  0  0  0  0
    5.2471   -1.9562   -0.9538 C   0  0  0  0  0  0  0  0  0  0  0  0
    5.5880   -3.3064   -0.9654 C   0  0  0  0  0  0  0  0  0  0  0  0
    5.2240   -4.1282    0.0976 C   0  0  0  0  0  0  0  0  0  0  0  0
    4.4984   -3.6094    1.1672 C   0  0  0  0  0  0  0  0  0  0  0  0
    4.1706   -2.2538    1.1847 C   0  0  0  0  0  0  0  0  0  0  0  0
    5.7101   -5.4817    0.1329 C   0  0  0  0  0  0  0  0  0  0  0  0
    4.9490   -6.6163    0.2130 C   0  0  0  0  0  0  0  0  0  0  0  0
    5.8358   -7.6558    0.2384 N   0  0  0  0  0  0  0  0  0  0  0  0
    7.1229   -7.2651    0.1846 N   0  0  0  0  0  0  0  0  0  0  0  0
    7.0450   -5.9358    0.1198 C   0  0  0  0  0  0  0  0  0  0  0  0
   -0.3871    2.0927   -0.0123 H   0  0  0  0  0  0  0  0  0  0  0  0
    1.9617    2.1526    0.0054 H   0  0  0  0  0  0  0  0  0  0  0  0
    2.0935   -2.1788   -0.1469 H   0  0  0  0  0  0  0  0  0  0  0  0
   -0.3071   -2.2021   -0.0625 H   0  0  0  0  0  0  0  0  0  0  0  0
    3.9270    0.3812    2.2214 H   0  0  0  0  0  0  0  0  0  0  0  0
    5.4836    0.5976    1.4414 H   0  0  0  0  0  0  0  0  0  0  0  0
    3.1547    2.5475    1.4582 H   0  0  0  0  0  0  0  0  0  0  0  0
    4.7144    2.7344    2.1444 H   0  0  0  0  0  0  0  0  0  0  0  0
    4.4896    3.9028    0.0615 H   0  0  0  0  0  0  0  0  0  0  0  0
    4.8055    2.7380   -2.0150 H   0  0  0  0  0  0  0  0  0  0  0  0
    3.2102    2.5600   -1.4061 H   0  0  0  0  0  0  0  0  0  0  0  0
    5.5492    0.6621   -1.2505 H   0  0  0  0  0  0  0  0  0  0  0  0
    4.0408    0.3769   -2.1203 H   0  0  0  0  0  0  0  0  0  0  0  0
    5.5832   -1.3654   -1.8001 H   0  0  0  0  0  0  0  0  0  0  0  0
    6.1280   -3.7085   -1.8204 H   0  0  0  0  0  0  0  0  0  0  0  0
    4.1820   -4.2455    1.9892 H   0  0  0  0  0  0  0  0  0  0  0  0
    3.5765   -1.8800    2.0167 H   0  0  0  0  0  0  0  0  0  0  0  0
    3.8787   -6.7846    0.2467 H   0  0  0  0  0  0  0  0  0  0  0  0
    5.6411   -8.6459    0.2929 H   0  0  0  0  0  0  0  0  0  0  0  0
    7.9503   -5.3439    0.0782 H   0  0  0  0  0  0  0  0  0  0  0  0
  1  2  1  0  0  0  0
  2  3  1  0  0  0  0
  2  7  2  0  0  0  0
  3  4  2  0  0  0  0
  3 25  1  0  0  0  0
  4  5  1  0  0  0  0
  4 26  1  0  0  0  0
  5  6  2  0  0  0  0
  5  8  1  0  0  0  0
  6  7  1  0  0  0  0
  6 27  1  0  0  0  0
  7 28  1  0  0  0  0
  8  9  1  0  0  0  0
  8 13  1  0  0  0  0
  8 14  1  0  0  0  0
  9 10  1  0  0  0  0
  9 29  1  0  0  0  0
  9 30  1  0  0  0  0
 10 11  1  0  0  0  0
 10 31  1  0  0  0  0
 10 32  1  0  0  0  0
 11 12  1  0  0  0  0
 11 33  1  0  0  0  0
 12 13  1  0  0  0  0
 12 34  1  0  0  0  0
 12 35  1  0  0  0  0
 13 36  1  0  0  0  0
 13 37  1  0  0  0  0
 14 19  2  0  0  0  0
 14 15  1  0  0  0  0
 15 16  2  0  0  0  0
 15 38  1  0  0  0  0
 16 17  1  0  0  0  0
 16 39  1  0  0  0  0
 17 18  2  0  0  0  0
 17 20  1  0  0  0  0
 18 19  1  0  0  0  0
 18 40  1  0  0  0  0
 19 41  1  0  0  0  0
 20 21  2  0  0  0  0
 20 24  1  0  0  0  0
 21 22  1  0  0  0  0
 21 42  1  0  0  0  0
 22 23  1  0  0  0  0
 22 43  1  0  0  0  0
 23 24  2  0  0  0  0
 24 44  1  0  0  0  0
M  END
>  <DRUGBANK_ID>
DB07859

>  <COMMON_NAME>
4-(4-CHLOROPHENYL)-4-[4-(1H-PYRAZOL-4-YL)PHENYL]PIPERIDINE

>  <UNII>
ERF7YL2CE2

$$$$
