
 OpenBabel10282417213D

 66 70  0  0  0  0  0  0  0  0999 V2000
    5.4988    7.3211    4.2311 C   0  0  2  0  0  0  0  0  0  0  0  0
    4.7640    6.6404    5.9089 C   0  0  1  0  0  0  0  0  0  0  0  0
    6.5997    3.7810    0.1425 C   0  0  0  0  0  0  0  0  0  0  0  0
    5.5208    5.8667    3.7291 C   0  0  2  0  0  0  0  0  0  0  0  0
    5.9206    5.2671    2.3304 C   0  0  1  0  0  0  0  0  0  0  0  0
    5.1020    5.5571    0.8950 C   0  0  1  0  0  0  0  0  0  0  0  0
    5.3706    4.3068   -0.5344 C   0  0  1  0  0  0  0  0  0  0  0  0
    7.3344    3.3256   -0.9412 C   0  0  0  0  0  0  0  0  0  0  0  0
    5.1534    5.1620    6.5488 C   0  0  0  0  0  0  0  0  0  0  0  0
    6.4169    3.1778    1.4027 C   0  0  0  0  0  0  0  0  0  0  0  0
    7.0736    1.9512   -1.2232 C   0  0  0  0  0  0  0  0  0  0  0  0
    4.7071    7.7777    2.6400 C   0  0  0  0  0  0  0  0  0  0  0  0
    5.7768    3.8048    2.5471 C   0  0  0  0  0  0  0  0  0  0  0  0
    4.4107    7.2506    7.2740 O   0  0  0  0  0  0  0  0  0  0  0  0
    5.5342    7.2316    1.1841 C   0  0  0  0  0  0  0  0  0  0  0  0
    3.9565    5.5919    3.9563 C   0  0  0  0  0  0  0  0  0  0  0  0
    5.1925    4.3042    7.4361 C   0  0  0  0  0  0  0  0  0  0  0  0
    4.9658    2.6766   -1.6225 C   0  0  0  0  0  0  0  0  0  0  0  0
    3.4890    6.5820    8.2296 C   0  0  0  0  0  0  0  0  0  0  0  0
    3.5017    6.5052    5.0958 C   0  0  0  0  0  0  0  0  0  0  0  0
    6.5696    1.1380   -0.2446 O   0  0  0  0  0  0  0  0  0  0  0  0
    3.7179    5.8971    9.2376 O   0  0  0  0  0  0  0  0  0  0  0  0
    6.3231    1.9374   -2.4228 C   0  0  0  0  0  0  0  0  0  0  0  0
    6.6596    8.4645    4.0834 C   0  0  0  0  0  0  0  0  0  0  0  0
    7.6160    0.3845    0.2915 C   0  0  0  0  0  0  0  0  0  0  0  0
    2.1247    7.1273    8.0129 C   0  0  0  0  0  0  0  0  0  0  0  0
    8.8918    1.2046    0.4894 C   0  0  0  0  0  0  0  0  0  0  0  0
    7.8537   -0.6434   -0.7859 C   0  0  0  0  0  0  0  0  0  0  0  0
    9.9431    0.4225   -0.2464 C   0  0  0  0  0  0  0  0  0  0  0  0
    9.3158   -0.9036   -0.6781 C   0  0  0  0  0  0  0  0  0  0  0  0
    6.2266    5.4223    4.4505 H   0  0  0  0  0  0  0  0  0  0  0  0
    6.9901    5.5640    2.1993 H   0  0  0  0  0  0  0  0  0  0  0  0
    4.0133    5.5603    0.9987 H   0  0  0  0  0  0  0  0  0  0  0  0
    5.5640    4.9770   -1.3849 H   0  0  0  0  0  0  0  0  0  0  0  0
    7.2924    3.9313   -1.8493 H   0  0  0  0  0  0  0  0  0  0  0  0
    6.0002    2.1864    1.4119 H   0  0  0  0  0  0  0  0  0  0  0  0
    4.7214    8.8191    2.9983 H   0  0  0  0  0  0  0  0  0  0  0  0
    3.8369    8.2739    2.1655 H   0  0  0  0  0  0  0  0  0  0  0  0
    6.1539    3.5116    3.5412 H   0  0  0  0  0  0  0  0  0  0  0  0
    4.7237    3.5085    2.5540 H   0  0  0  0  0  0  0  0  0  0  0  0
    5.9141    8.2424    0.8951 H   0  0  0  0  0  0  0  0  0  0  0  0
    5.1828    7.3999    0.1506 H   0  0  0  0  0  0  0  0  0  0  0  0
    3.6204    4.5658    4.0683 H   0  0  0  0  0  0  0  0  0  0  0  0
    3.4832    5.9238    3.0312 H   0  0  0  0  0  0  0  0  0  0  0  0
    5.1028    3.7692    8.3914 H   0  0  0  0  0  0  0  0  0  0  0  0
    4.6021    1.8013   -1.0366 H   0  0  0  0  0  0  0  0  0  0  0  0
    4.3221    2.6772   -2.5117 H   0  0  0  0  0  0  0  0  0  0  0  0
    2.5669    6.4938    5.6340 H   0  0  0  0  0  0  0  0  0  0  0  0
    3.2986    7.4512    4.5814 H   0  0  0  0  0  0  0  0  0  0  0  0
    6.3277    0.8690   -2.7736 H   0  0  0  0  0  0  0  0  0  0  0  0
    6.8033    2.4801   -3.2528 H   0  0  0  0  0  0  0  0  0  0  0  0
    7.4402    8.2010    3.3524 H   0  0  0  0  0  0  0  0  0  0  0  0
    6.2662    9.3875    3.5761 H   0  0  0  0  0  0  0  0  0  0  0  0
    7.0994    8.9383    4.9661 H   0  0  0  0  0  0  0  0  0  0  0  0
    7.3057   -0.0629    1.2462 H   0  0  0  0  0  0  0  0  0  0  0  0
    2.3432    8.1315    7.6670 H   0  0  0  0  0  0  0  0  0  0  0  0
    1.5673    6.5192    7.3028 H   0  0  0  0  0  0  0  0  0  0  0  0
    1.5365    7.2165    8.9344 H   0  0  0  0  0  0  0  0  0  0  0  0
    8.9255    2.2090    0.0672 H   0  0  0  0  0  0  0  0  0  0  0  0
    9.0723    1.4242    1.5417 H   0  0  0  0  0  0  0  0  0  0  0  0
    7.1464   -1.4797   -0.7345 H   0  0  0  0  0  0  0  0  0  0  0  0
    7.6964   -0.2423   -1.7881 H   0  0  0  0  0  0  0  0  0  0  0  0
   10.2671    1.0019   -1.1241 H   0  0  0  0  0  0  0  0  0  0  0  0
   10.7897    0.2777    0.4149 H   0  0  0  0  0  0  0  0  0  0  0  0
    9.6898   -1.2172   -1.6545 H   0  0  0  0  0  0  0  0  0  0  0  0
    9.4785   -1.6747    0.0697 H   0  0  0  0  0  0  0  0  0  0  0  0
  1 24  1  6  0  0  0
  2  1  1  0  0  0  0
  2 14  1  0  0  0  0
  2  9  1  1  0  0  0
  3  7  1  0  0  0  0
  4  1  1  0  0  0  0
  4 31  1  1  0  0  0
  5  4  1  0  0  0  0
  5  6  1  0  0  0  0
  5 32  1  1  0  0  0
  6 15  1  0  0  0  0
  6 33  1  6  0  0  0
  7  6  1  0  0  0  0
  7 34  1  1  0  0  0
  8  3  1  0  0  0  0
  8 11  2  0  0  0  0
  8 35  1  0  0  0  0
 10 13  1  0  0  0  0
 10  3  2  0  0  0  0
 10 36  1  0  0  0  0
 11 23  1  0  0  0  0
 12  1  1  0  0  0  0
 12 37  1  0  0  0  0
 12 38  1  0  0  0  0
 13  5  1  0  0  0  0
 13 39  1  0  0  0  0
 13 40  1  0  0  0  0
 15 12  1  0  0  0  0
 15 41  1  0  0  0  0
 15 42  1  0  0  0  0
 16  4  1  0  0  0  0
 16 43  1  0  0  0  0
 16 44  1  0  0  0  0
 17  9  3  0  0  0  0
 17 45  1  0  0  0  0
 18  7  1  0  0  0  0
 18 46  1  0  0  0  0
 18 47  1  0  0  0  0
 19 14  1  0  0  0  0
 20  2  1  0  0  0  0
 20 16  1  0  0  0  0
 20 48  1  0  0  0  0
 20 49  1  0  0  0  0
 21 11  1  0  0  0  0
 22 19  2  0  0  0  0
 23 18  1  0  0  0  0
 23 50  1  0  0  0  0
 23 51  1  0  0  0  0
 24 52  1  0  0  0  0
 24 53  1  0  0  0  0
 24 54  1  0  0  0  0
 25 21  1  0  0  0  0
 25 55  1  0  0  0  0
 26 19  1  0  0  0  0
 26 56  1  0  0  0  0
 26 57  1  0  0  0  0
 26 58  1  0  0  0  0
 27 25  1  0  0  0  0
 27 59  1  0  0  0  0
 27 60  1  0  0  0  0
 28 25  1  0  0  0  0
 28 61  1  0  0  0  0
 28 62  1  0  0  0  0
 29 27  1  0  0  0  0
 29 30  1  0  0  0  0
 29 63  1  0  0  0  0
 29 64  1  0  0  0  0
 30 28  1  0  0  0  0
 30 65  1  0  0  0  0
 30 66  1  0  0  0  0
M  END
>  <DRUGBANK_ID>
DB14679

>  <COMMON_NAME>
Quingestanol acetate

>  <CAS_NUMBER>
3000-39-3

>  <UNII>
M33GGZ63KG

>  <SYNONYMS>
Norethindrone acetate 3-cyclopentyl enol ether; Quingestanol acetate

$$$$
