
 OpenBabel10282417233D

 25 26  0  0  0  0  0  0  0  0999 V2000
   -1.0762    1.2465   -0.0029 C   0  0  0  0  0  0  0  0  0  0  0  0
   -1.8076    2.4157    0.0087 O   0  0  0  0  0  0  0  0  0  0  0  0
    0.3187    1.1976    0.0292 C   0  0  0  0  0  0  0  0  0  0  0  0
   -1.7979    0.0497   -0.0169 C   0  0  0  0  0  0  0  0  0  0  0  0
   -1.1414    3.6250    0.0381 C   0  0  0  0  0  0  0  0  0  0  0  0
    1.0014   -0.0209    0.0096 C   0  0  0  0  0  0  0  0  0  0  0  0
   -1.1242   -1.1765   -0.0057 C   0  0  0  0  0  0  0  0  0  0  0  0
   -0.2252    4.0688   -1.0433 C   0  0  0  0  0  0  0  0  0  0  0  0
   -1.2621    4.5102    1.0305 C   0  0  0  0  0  0  0  0  0  0  0  0
    0.2716   -1.2111    0.0012 C   0  0  0  0  0  0  0  0  0  0  0  0
    2.4998   -0.0258   -0.0092 C   0  0  0  0  0  0  0  0  0  0  0  0
    0.4334    5.1821   -1.0770 N   0  0  0  0  0  0  0  0  0  0  0  0
   -0.5604    5.6838    0.9998 N   0  0  0  0  0  0  0  0  0  0  0  0
    0.2623    6.0614   -0.0378 C   0  0  0  0  0  0  0  0  0  0  0  0
    0.8079    7.1621    0.0040 O   0  0  0  0  0  0  0  0  0  0  0  0
    0.9146    2.1025    0.0693 H   0  0  0  0  0  0  0  0  0  0  0  0
   -2.8853    0.0600   -0.0268 H   0  0  0  0  0  0  0  0  0  0  0  0
   -1.6846   -2.1088   -0.0044 H   0  0  0  0  0  0  0  0  0  0  0  0
   -0.0805    3.3535   -1.8696 H   0  0  0  0  0  0  0  0  0  0  0  0
   -1.8969    4.3364    1.8918 H   0  0  0  0  0  0  0  0  0  0  0  0
    0.7875   -2.1687    0.0017 H   0  0  0  0  0  0  0  0  0  0  0  0
    2.8885   -0.5438    0.8712 H   0  0  0  0  0  0  0  0  0  0  0  0
    2.8616   -0.5113   -0.9201 H   0  0  0  0  0  0  0  0  0  0  0  0
    2.8980    0.9957    0.0008 H   0  0  0  0  0  0  0  0  0  0  0  0
   -0.6304    6.3562    1.7528 H   0  0  0  0  0  0  0  0  0  0  0  0
  1  2  1  0  0  0  0
  1  3  2  0  0  0  0
  1  4  1  0  0  0  0
  2  5  1  0  0  0  0
  3  6  1  0  0  0  0
  3 16  1  0  0  0  0
  4  7  2  0  0  0  0
  4 17  1  0  0  0  0
  5  8  1  0  0  0  0
  5  9  2  0  0  0  0
  6 10  2  0  0  0  0
  6 11  1  0  0  0  0
  7 10  1  0  0  0  0
  7 18  1  0  0  0  0
  8 12  2  0  0  0  0
  8 19  1  0  0  0  0
  9 13  1  0  0  0  0
  9 20  1  0  0  0  0
 10 21  1  0  0  0  0
 11 22  1  0  0  0  0
 11 23  1  0  0  0  0
 11 24  1  0  0  0  0
 12 14  1  0  0  0  0
 13 14  1  0  0  0  0
 13 25  1  0  0  0  0
 14 15  2  0  0  0  0
M  END
>  <DRUGBANK_ID>
DB16841

>  <COMMON_NAME>
Tolimidone

>  <CAS_NUMBER>
41964-07-2

>  <UNII>
MU3JD8E9IS

>  <SYNONYMS>
Tolimidone

$$$$
