I11
 OpenBabel10282417173D

 68 70  0  0  0  0  0  0  0  0999 V2000
   -0.2399   -3.1493    3.4344 C   0  0  0  0  0  0  0  0  0  0  0  0
    0.2535   -2.7656    2.0240 C   0  0  0  0  0  0  0  0  0  0  0  0
   -0.2635   -1.3920    1.3484 C   0  0  0  0  0  0  0  0  0  0  0  0
    0.1039   -0.2994    2.3076 C   0  0  0  0  0  0  0  0  0  0  0  0
   -0.3357   -0.6538    3.7390 C   0  0  0  0  0  0  0  0  0  0  0  0
    0.1841   -1.9922    4.2918 C   0  0  0  0  0  0  0  0  0  0  0  0
    0.3627   -0.8045   -0.4929 S   0  0  0  0  0  0  0  0  0  0  0  0
   -0.0489   -1.5732   -1.6758 O   0  0  0  0  0  0  0  0  0  0  0  0
    0.2617    0.6042   -0.6064 O   0  0  0  0  0  0  0  0  0  0  0  0
    1.9319   -1.3222   -0.5269 N   0  0  0  0  0  0  0  0  0  0  0  0
    2.1149   -2.7881   -0.3235 C   0  0  0  0  0  0  0  0  0  0  0  0
    1.3394   -3.9356   -1.0628 C   0  0  0  0  0  0  0  0  0  0  0  0
    2.0371   -4.7128   -1.7344 O   0  0  0  0  0  0  0  0  0  0  0  0
   -0.0136   -4.2878   -0.9863 N   0  0  0  0  0  0  0  0  0  0  0  0
   -1.2165   -3.6055   -0.4132 C   0  0  2  0  0  0  0  0  0  0  0  0
   -1.9458   -4.2586    0.7925 C   0  0  0  0  0  0  0  0  0  0  0  0
   -2.7484   -3.2725    1.6952 C   0  0  0  0  0  0  0  0  0  0  0  0
   -3.5952   -2.3393    1.0053 N   0  0  0  0  0  0  0  0  0  0  0  0
   -4.8244   -1.9979    1.4982 C   0  0  0  0  0  0  0  0  0  0  0  0
   -5.1690   -2.0801    2.8345 C   0  0  0  0  0  0  0  0  0  0  0  0
   -6.5093   -2.1370    3.1494 C   0  0  0  0  0  0  0  0  0  0  0  0
   -7.4243   -2.1707    2.1668 N   0  3  0  0  0  0  0  0  0  0  0  0
   -7.0993   -1.9933    0.8797 C   0  0  0  0  0  0  0  0  0  0  0  0
   -5.7924   -1.7487    0.5446 C   0  0  0  0  0  0  0  0  0  0  0  0
   -2.1723   -2.7606   -1.3088 C   0  0  0  0  0  0  0  0  0  0  0  0
   -2.4414   -1.5710   -1.0980 O   0  0  0  0  0  0  0  0  0  0  0  0
   -2.8241   -3.4922   -2.2453 N   0  0  0  0  0  0  0  0  0  0  0  0
   -3.0894   -2.9010   -3.5307 C   0  0  0  0  0  0  0  0  0  0  0  0
   -4.5309   -2.4370   -3.6575 C   0  0  0  0  0  0  0  0  0  0  0  0
   -5.5122   -3.5310   -3.2244 C   0  0  0  0  0  0  0  0  0  0  0  0
   -5.1768   -4.0894   -1.8698 C   0  0  0  0  0  0  0  0  0  0  0  0
   -3.7369   -4.4925   -1.7705 C   0  0  0  0  0  0  0  0  0  0  0  0
   -0.6778   -2.8372    0.0240 H   0  0  0  0  0  0  0  0  0  0  0  0
   -1.2940   -3.3807    3.6236 H   0  0  0  0  0  0  0  0  0  0  0  0
    0.2368   -4.0964    3.7286 H   0  0  0  0  0  0  0  0  0  0  0  0
    1.3133   -2.6501    2.2105 H   0  0  0  0  0  0  0  0  0  0  0  0
    0.2276   -3.6761    1.4412 H   0  0  0  0  0  0  0  0  0  0  0  0
   -1.3398   -1.3009    1.2088 H   0  0  0  0  0  0  0  0  0  0  0  0
    1.1847   -0.1690    2.2369 H   0  0  0  0  0  0  0  0  0  0  0  0
   -0.3822    0.6262    1.9840 H   0  0  0  0  0  0  0  0  0  0  0  0
    0.0264    0.1396    4.3899 H   0  0  0  0  0  0  0  0  0  0  0  0
   -1.4338   -0.6592    3.7837 H   0  0  0  0  0  0  0  0  0  0  0  0
   -0.1560   -2.1605    5.3152 H   0  0  0  0  0  0  0  0  0  0  0  0
    1.2785   -1.9912    4.2944 H   0  0  0  0  0  0  0  0  0  0  0  0
    2.2009   -1.1215   -1.5005 H   0  0  0  0  0  0  0  0  0  0  0  0
    3.1781   -2.9183   -0.5678 H   0  0  0  0  0  0  0  0  0  0  0  0
    2.1662   -2.9975    0.7306 H   0  0  0  0  0  0  0  0  0  0  0  0
   -0.2193   -4.9855   -1.6930 H   0  0  0  0  0  0  0  0  0  0  0  0
   -2.5768   -5.0864    0.4951 H   0  0  0  0  0  0  0  0  0  0  0  0
   -1.2551   -4.8312    1.4184 H   0  0  0  0  0  0  0  0  0  0  0  0
   -3.2848   -3.8737    2.4331 H   0  0  0  0  0  0  0  0  0  0  0  0
   -2.1581   -2.6029    2.2923 H   0  0  0  0  0  0  0  0  0  0  0  0
   -3.1725   -1.6028    0.4122 H   0  0  0  0  0  0  0  0  0  0  0  0
   -4.4049   -2.1169    3.6078 H   0  0  0  0  0  0  0  0  0  0  0  0
   -6.8648   -2.2021    4.1693 H   0  0  0  0  0  0  0  0  0  0  0  0
   -8.4041   -2.3064    2.4052 H   0  0  0  0  0  0  0  0  0  0  0  0
   -7.8788   -2.0824    0.1320 H   0  0  0  0  0  0  0  0  0  0  0  0
   -5.4920   -1.5482   -0.4813 H   0  0  0  0  0  0  0  0  0  0  0  0
   -2.8687   -3.6993   -4.2416 H   0  0  0  0  0  0  0  0  0  0  0  0
   -2.3917   -2.0741   -3.7238 H   0  0  0  0  0  0  0  0  0  0  0  0
   -4.7248   -2.1705   -4.6999 H   0  0  0  0  0  0  0  0  0  0  0  0
   -4.6833   -1.5328   -3.0527 H   0  0  0  0  0  0  0  0  0  0  0  0
   -6.5271   -3.1270   -3.1951 H   0  0  0  0  0  0  0  0  0  0  0  0
   -5.4771   -4.3607   -3.9331 H   0  0  0  0  0  0  0  0  0  0  0  0
   -5.3461   -3.3149   -1.1414 H   0  0  0  0  0  0  0  0  0  0  0  0
   -5.8177   -4.9147   -1.5489 H   0  0  0  0  0  0  0  0  0  0  0  0
   -3.6605   -4.5935   -0.7066 H   0  0  0  0  0  0  0  0  0  0  0  0
   -3.4681   -5.4332   -2.2382 H   0  0  0  0  0  0  0  0  0  0  0  0
  1  2  1  0  0  0  0
  1  6  1  0  0  0  0
  1 34  1  0  0  0  0
  1 35  1  0  0  0  0
  2  3  1  0  0  0  0
  2 36  1  0  0  0  0
  2 37  1  0  0  0  0
  3  4  1  0  0  0  0
  3  7  1  0  0  0  0
  3 38  1  0  0  0  0
  4  5  1  0  0  0  0
  4 39  1  0  0  0  0
  4 40  1  0  0  0  0
  5  6  1  0  0  0  0
  5 41  1  0  0  0  0
  5 42  1  0  0  0  0
  6 43  1  0  0  0  0
  6 44  1  0  0  0  0
  7  8  2  0  0  0  0
  7  9  2  0  0  0  0
  7 10  1  0  0  0  0
 10 11  1  0  0  0  0
 10 45  1  0  0  0  0
 11 12  1  0  0  0  0
 11 46  1  0  0  0  0
 11 47  1  0  0  0  0
 12 13  2  0  0  0  0
 12 14  1  0  0  0  0
 14 48  1  0  0  0  0
 15 25  1  0  0  0  0
 15 33  1  1  0  0  0
 15 16  1  0  0  0  0
 15 14  1  0  0  0  0
 16 17  1  0  0  0  0
 16 49  1  0  0  0  0
 16 50  1  0  0  0  0
 17 18  1  0  0  0  0
 17 51  1  0  0  0  0
 17 52  1  0  0  0  0
 18 19  1  0  0  0  0
 18 53  1  0  0  0  0
 19 20  2  0  0  0  0
 19 24  1  0  0  0  0
 20 21  1  0  0  0  0
 20 54  1  0  0  0  0
 21 22  2  0  0  0  0
 21 55  1  0  0  0  0
 22 23  1  0  0  0  0
 22 56  1  0  0  0  0
 23 24  2  0  0  0  0
 23 57  1  0  0  0  0
 24 58  1  0  0  0  0
 25 26  2  0  0  0  0
 25 27  1  0  0  0  0
 27 28  1  0  0  0  0
 27 32  1  0  0  0  0
 28 29  1  0  0  0  0
 28 59  1  0  0  0  0
 28 60  1  0  0  0  0
 29 30  1  0  0  0  0
 29 61  1  0  0  0  0
 29 62  1  0  0  0  0
 30 31  1  0  0  0  0
 30 63  1  0  0  0  0
 30 64  1  0  0  0  0
 31 32  1  0  0  0  0
 31 65  1  0  0  0  0
 31 66  1  0  0  0  0
 32 67  1  0  0  0  0
 32 68  1  0  0  0  0
M  CHG  1  22   1
M  END
>  <DRUGBANK_ID>
DB07934

>  <COMMON_NAME>
[[CYCLOHEXANESULFONYL-GLYCYL]-3[PYRIDIN-4-YL-AMINOMETHYL]ALANYL]PIPERIDINE

$$$$
