
 OpenBabel10282417143D

 54 56  0  0  1  0  0  0  0  0999 V2000
    0.9938    0.0490    0.0227 N   0  0  0  0  0  0  0  0  0  0  0  0
    0.3715   -1.0418    0.3255 C   0  0  0  0  0  0  0  0  0  0  0  0
    1.0532   -2.1758    0.6631 N   0  0  0  0  0  0  0  0  0  0  0  0
   -1.1183   -1.0601    0.2902 C   0  0  0  0  0  0  0  0  0  0  0  0
   -1.8100   -0.3822   -0.7122 C   0  0  0  0  0  0  0  0  0  0  0  0
   -3.2119   -0.4592   -0.7795 C   0  0  0  0  0  0  0  0  0  0  0  0
   -3.9602   -1.1876    0.1582 C   0  0  0  0  0  0  0  0  0  0  0  0
   -5.3454   -1.1925    0.0527 N   0  0  0  0  0  0  0  0  0  0  0  0
   -6.2643   -1.8297    0.9934 C   0  0  1  0  0  0  0  0  0  0  0  0
   -7.0155   -0.8648    1.9445 C   0  0  0  0  0  0  0  0  0  0  0  0
   -8.3436   -1.0951    2.1409 O   0  0  0  0  0  0  0  0  0  0  0  0
   -6.4637    0.0050    2.5909 O   0  0  0  0  0  0  0  0  0  0  0  0
   -7.1132   -2.8220    0.2318 C   0  0  0  0  0  0  0  0  0  0  0  0
   -6.5667   -4.0853    0.1199 C   0  0  0  0  0  0  0  0  0  0  0  0
   -5.2452   -4.0709    0.1149 F   0  0  0  0  0  0  0  0  0  0  0  0
   -7.2841   -5.2429   -0.0800 C   0  0  0  0  0  0  0  0  0  0  0  0
   -6.8685   -6.5290    0.0794 O   0  0  0  0  0  0  0  0  0  0  0  0
   -5.7136   -6.8958    0.8654 C   0  0  2  0  0  0  0  0  0  0  0  0
   -5.7777   -6.5482    2.3468 C   0  0  0  0  0  0  0  0  0  0  0  0
   -5.0158   -5.2561    2.4328 C   0  0  0  0  0  0  0  0  0  0  0  0
   -3.9906   -5.3498    1.4282 O   0  0  0  0  0  0  0  0  0  0  0  0
   -4.3959   -6.3008    0.4050 C   0  0  0  0  0  0  0  0  0  0  0  0
   -8.5759   -5.0524   -0.5211 C   0  0  0  0  0  0  0  0  0  0  0  0
   -9.0800   -3.7507   -0.7263 C   0  0  0  0  0  0  0  0  0  0  0  0
  -10.3172   -3.4530   -1.2184 O   0  0  0  0  0  0  0  0  0  0  0  0
  -11.1397   -4.5703   -1.5404 C   0  0  0  0  0  0  0  0  0  0  0  0
  -10.6541   -5.2487   -2.8146 C   0  0  0  0  0  0  0  0  0  0  0  0
   -8.3282   -2.6272   -0.3797 C   0  0  0  0  0  0  0  0  0  0  0  0
   -3.2289   -1.9027    1.1189 C   0  0  0  0  0  0  0  0  0  0  0  0
   -1.8328   -1.8017    1.2244 C   0  0  0  0  0  0  0  0  0  0  0  0
    2.0015   -0.0870    0.1088 H   0  0  0  0  0  0  0  0  0  0  0  0
    0.5628   -3.0645    0.6330 H   0  0  0  0  0  0  0  0  0  0  0  0
    2.0467   -2.2363    0.4828 H   0  0  0  0  0  0  0  0  0  0  0  0
   -1.2606    0.2013   -1.4462 H   0  0  0  0  0  0  0  0  0  0  0  0
   -3.7155    0.0620   -1.5897 H   0  0  0  0  0  0  0  0  0  0  0  0
   -5.7642   -0.5434   -0.5985 H   0  0  0  0  0  0  0  0  0  0  0  0
   -5.7061   -2.4104    1.7385 H   0  0  0  0  0  0  0  0  0  0  0  0
   -8.7547   -1.8506    1.6858 H   0  0  0  0  0  0  0  0  0  0  0  0
   -5.6572   -7.9858    0.7598 H   0  0  0  0  0  0  0  0  0  0  0  0
   -5.2015   -7.2749    2.9287 H   0  0  0  0  0  0  0  0  0  0  0  0
   -6.7909   -6.4790    2.7481 H   0  0  0  0  0  0  0  0  0  0  0  0
   -5.7133   -4.4313    2.2756 H   0  0  0  0  0  0  0  0  0  0  0  0
   -4.5511   -5.0139    3.3886 H   0  0  0  0  0  0  0  0  0  0  0  0
   -3.5950   -7.0379    0.3455 H   0  0  0  0  0  0  0  0  0  0  0  0
   -4.4707   -5.8501   -0.5958 H   0  0  0  0  0  0  0  0  0  0  0  0
   -9.1399   -5.9461   -0.7661 H   0  0  0  0  0  0  0  0  0  0  0  0
  -11.2257   -5.2519   -0.6834 H   0  0  0  0  0  0  0  0  0  0  0  0
  -12.1443   -4.1722   -1.7092 H   0  0  0  0  0  0  0  0  0  0  0  0
   -9.6469   -5.6691   -2.7362 H   0  0  0  0  0  0  0  0  0  0  0  0
  -11.3209   -6.0662   -3.0880 H   0  0  0  0  0  0  0  0  0  0  0  0
  -10.5852   -4.5150   -3.6214 H   0  0  0  0  0  0  0  0  0  0  0  0
   -8.7038   -1.6221   -0.5535 H   0  0  0  0  0  0  0  0  0  0  0  0
   -3.7073   -2.5797    1.8165 H   0  0  0  0  0  0  0  0  0  0  0  0
   -1.3242   -2.2908    2.0508 H   0  0  0  0  0  0  0  0  0  0  0  0
  1  2  2  0  0  0  0
  1 31  1  0  0  0  0
  2  3  1  0  0  0  0
  2  4  1  0  0  0  0
  3 32  1  0  0  0  0
  3 33  1  0  0  0  0
  4  5  2  0  0  0  0
  4 30  1  0  0  0  0
  5  6  1  0  0  0  0
  5 34  1  0  0  0  0
  6  7  2  0  0  0  0
  6 35  1  0  0  0  0
  7  8  1  0  0  0  0
  7 29  1  0  0  0  0
  8 36  1  0  0  0  0
  9  8  1  0  0  0  0
  9 10  1  0  0  0  0
  9 13  1  0  0  0  0
  9 37  1  1  0  0  0
 10 11  1  0  0  0  0
 10 12  2  0  0  0  0
 11 38  1  0  0  0  0
 13 14  2  0  0  0  0
 13 28  1  0  0  0  0
 14 15  1  0  0  0  0
 14 16  1  0  0  0  0
 16 17  1  0  0  0  0
 16 23  2  0  0  0  0
 18 17  1  0  0  0  0
 18 19  1  0  0  0  0
 18 22  1  0  0  0  0
 18 39  1  6  0  0  0
 19 20  1  0  0  0  0
 19 40  1  0  0  0  0
 19 41  1  0  0  0  0
 20 21  1  0  0  0  0
 20 42  1  0  0  0  0
 20 43  1  0  0  0  0
 21 22  1  0  0  0  0
 22 44  1  0  0  0  0
 22 45  1  0  0  0  0
 23 24  1  0  0  0  0
 23 46  1  0  0  0  0
 24 25  1  0  0  0  0
 24 28  2  0  0  0  0
 25 26  1  0  0  0  0
 26 27  1  0  0  0  0
 26 47  1  0  0  0  0
 26 48  1  0  0  0  0
 27 49  1  0  0  0  0
 27 50  1  0  0  0  0
 27 51  1  0  0  0  0
 28 52  1  0  0  0  0
 29 30  2  0  0  0  0
 29 53  1  0  0  0  0
 30 54  1  0  0  0  0
M  END
>  <DRUGBANK_ID>
DB04590

>  <COMMON_NAME>
(2R)-({4-[AMINO(IMINO)METHYL]PHENYL}AMINO){5-ETHOXY-2-FLUORO-3-[(3R)-TETRAHYDROFURAN-3-YLOXY]PHENYL}ACETICACID

$$$$
