
 OpenBabel10282417123D

 15 14  0  0  1  0  0  0  0  0999 V2000
    1.0953   -0.0686   -0.1300 O   0  0  0  0  0  0  0  0  0  0  0  0
    0.5350   -0.9557    0.8409 C   0  0  0  0  0  0  0  0  0  0  0  0
    0.9568   -2.3939    0.5318 C   0  0  1  0  0  0  0  0  0  0  0  0
    2.3975   -2.4505    0.5636 O   0  0  0  0  0  0  0  0  0  0  0  0
    0.4150   -3.4164    1.5346 C   0  0  0  0  0  0  0  0  0  0  0  0
   -1.3998   -3.6320    1.5275 S   0  0  0  0  0  0  0  0  0  0  0  0
   -1.8828   -2.2104    2.2429 O   0  0  0  0  0  0  0  0  0  0  0  0
    2.0345    0.0477    0.1063 H   0  0  0  0  0  0  0  0  0  0  0  0
    0.8827   -0.6443    1.8321 H   0  0  0  0  0  0  0  0  0  0  0  0
   -0.5470   -0.8291    0.7870 H   0  0  0  0  0  0  0  0  0  0  0  0
    0.6637   -2.6664   -0.4890 H   0  0  0  0  0  0  0  0  0  0  0  0
    2.7079   -1.9242   -0.1954 H   0  0  0  0  0  0  0  0  0  0  0  0
    0.8471   -4.3972    1.3005 H   0  0  0  0  0  0  0  0  0  0  0  0
    0.7558   -3.1809    2.5495 H   0  0  0  0  0  0  0  0  0  0  0  0
   -2.7704   -1.9285    1.9047 H   0  0  0  0  0  0  0  0  0  0  0  0
  1  2  1  0  0  0  0
  1  8  1  0  0  0  0
  2  3  1  0  0  0  0
  2  9  1  0  0  0  0
  2 10  1  0  0  0  0
  3  4  1  0  0  0  0
  3  5  1  0  0  0  0
  3 11  1  6  0  0  0
  4 12  1  0  0  0  0
  5  6  1  0  0  0  0
  5 13  1  0  0  0  0
  5 14  1  0  0  0  0
  6  7  1  0  0  0  0
  7 15  1  0  0  0  0
M  END
>  <DRUGBANK_ID>
DB01684

>  <SECONDARY_ACCESSION_NUMBERS>
EXPT02896

>  <COMMON_NAME>
1-Hydroxy-1-Thio-Glycerol

$$$$
