
 OpenBabel10282417183D

 71 72  0  0  1  0  0  0  0  0999 V2000
    0.8672   -0.0810    0.0810 C   0  0  0  0  0  0  0  0  0  0  0  0
    0.2776   -1.5075   -0.0546 C   0  0  0  0  0  0  0  0  0  0  0  0
    0.3612   -2.4294    1.0954 N   0  0  0  0  0  0  0  0  0  0  0  0
    0.2168   -3.8538    0.8534 C   0  0  0  0  0  0  0  0  0  0  0  0
    1.0299   -4.4173   -0.3306 C   0  0  0  0  0  0  0  0  0  0  0  0
    2.8818   -4.2444   -0.5890 S   0  0  0  0  0  0  0  0  0  0  0  0
    3.8289   -5.1058    0.1253 O   0  0  0  0  0  0  0  0  0  0  0  0
    3.0803   -4.2611   -2.0047 O   0  0  0  0  0  0  0  0  0  0  0  0
    3.3348   -2.7443   -0.0200 N   0  0  0  0  0  0  0  0  0  0  0  0
    3.1435   -2.0773    1.3582 C   0  0  0  0  0  0  0  0  0  0  0  0
    3.7082   -2.6115    2.6516 C   0  0  2  0  0  0  0  0  0  0  0  0
    5.1458   -2.7373    2.5388 N   0  0  0  0  0  0  0  0  0  0  0  0
    5.6253   -4.1004    2.8469 N   0  0  0  0  0  0  0  0  0  0  0  0
    4.6135   -4.9180    2.9412 C   0  0  0  0  0  0  0  0  0  0  0  0
    3.1077   -4.2140    2.6700 S   0  0  0  0  0  0  0  0  0  0  0  0
    4.5819   -6.2900    3.2277 N   0  0  0  0  0  0  0  0  0  0  0  0
    3.6008   -7.3273    3.3027 C   0  0  0  0  0  0  0  0  0  0  0  0
    3.9746   -8.4574    3.6324 O   0  0  0  0  0  0  0  0  0  0  0  0
    2.0905   -7.0947    2.9744 C   0  0  0  0  0  0  0  0  0  0  0  0
    1.4722   -6.1131    3.9973 C   0  0  0  0  0  0  0  0  0  0  0  0
    1.9763   -6.7977    1.4898 C   0  0  0  0  0  0  0  0  0  0  0  0
    1.1479   -8.2910    3.0305 C   0  0  0  0  0  0  0  0  0  0  0  0
    6.0131   -1.7992    1.9277 C   0  0  0  0  0  0  0  0  0  0  0  0
    7.2200   -2.0671    1.8512 O   0  0  0  0  0  0  0  0  0  0  0  0
    5.5066   -0.3613    1.2583 C   0  0  0  0  0  0  0  0  0  0  0  0
    4.8715   -0.3429   -0.1875 C   0  0  0  0  0  0  0  0  0  0  0  0
    4.7206    0.5627    2.2140 C   0  0  0  0  0  0  0  0  0  0  0  0
    6.7524    0.4742    0.9838 C   0  0  0  0  0  0  0  0  0  0  0  0
    3.0898   -1.9671    3.9110 C   0  0  0  0  0  0  0  0  0  0  0  0
    3.6764   -0.8486    4.4493 C   0  0  0  0  0  0  0  0  0  0  0  0
    2.8853    0.1487    5.0044 C   0  0  0  0  0  0  0  0  0  0  0  0
    1.6323   -0.1706    5.4945 C   0  0  0  0  0  0  0  0  0  0  0  0
    1.1429   -1.4496    5.3070 C   0  0  0  0  0  0  0  0  0  0  0  0
    1.8411   -2.3202    4.4794 C   0  0  0  0  0  0  0  0  0  0  0  0
    0.5789    0.4251    1.0056 H   0  0  0  0  0  0  0  0  0  0  0  0
    0.5303    0.5246   -0.7688 H   0  0  0  0  0  0  0  0  0  0  0  0
    1.9590   -0.0391    0.0135 H   0  0  0  0  0  0  0  0  0  0  0  0
   -0.7834   -1.4024   -0.2599 H   0  0  0  0  0  0  0  0  0  0  0  0
    0.7807   -1.9172   -0.9313 H   0  0  0  0  0  0  0  0  0  0  0  0
    1.3113   -2.5662    1.3134 H   0  0  0  0  0  0  0  0  0  0  0  0
    0.5171   -4.3405    1.7894 H   0  0  0  0  0  0  0  0  0  0  0  0
   -0.8570   -4.0344    0.7924 H   0  0  0  0  0  0  0  0  0  0  0  0
    0.7626   -5.4596   -0.4959 H   0  0  0  0  0  0  0  0  0  0  0  0
    0.6577   -3.8993   -1.2160 H   0  0  0  0  0  0  0  0  0  0  0  0
    4.3480   -2.7862   -0.2214 H   0  0  0  0  0  0  0  0  0  0  0  0
    3.5816   -1.1383    1.2379 H   0  0  0  0  0  0  0  0  0  0  0  0
    2.2685   -1.4732    1.5400 H   0  0  0  0  0  0  0  0  0  0  0  0
    5.5017   -6.6604    3.4270 H   0  0  0  0  0  0  0  0  0  0  0  0
    2.1578   -5.3736    4.4012 H   0  0  0  0  0  0  0  0  0  0  0  0
    0.5836   -5.6067    3.6026 H   0  0  0  0  0  0  0  0  0  0  0  0
    1.2197   -6.6104    4.9327 H   0  0  0  0  0  0  0  0  0  0  0  0
    2.3559   -7.5687    0.8072 H   0  0  0  0  0  0  0  0  0  0  0  0
    0.9733   -6.5030    1.1950 H   0  0  0  0  0  0  0  0  0  0  0  0
    2.6103   -5.9960    1.2848 H   0  0  0  0  0  0  0  0  0  0  0  0
    1.4607   -9.0805    2.3432 H   0  0  0  0  0  0  0  0  0  0  0  0
    1.0665   -8.6812    4.0402 H   0  0  0  0  0  0  0  0  0  0  0  0
    0.1429   -7.9600    2.7095 H   0  0  0  0  0  0  0  0  0  0  0  0
    3.9064   -0.7745   -0.4207 H   0  0  0  0  0  0  0  0  0  0  0  0
    4.6051    0.6844   -0.4478 H   0  0  0  0  0  0  0  0  0  0  0  0
    5.5187   -0.8417   -0.9082 H   0  0  0  0  0  0  0  0  0  0  0  0
    5.3051    0.7431    3.1223 H   0  0  0  0  0  0  0  0  0  0  0  0
    4.4616    1.5384    1.8026 H   0  0  0  0  0  0  0  0  0  0  0  0
    3.7377    0.1866    2.4656 H   0  0  0  0  0  0  0  0  0  0  0  0
    7.3482    0.5978    1.8869 H   0  0  0  0  0  0  0  0  0  0  0  0
    7.3479    0.0076    0.1973 H   0  0  0  0  0  0  0  0  0  0  0  0
    6.4326    1.4648    0.6344 H   0  0  0  0  0  0  0  0  0  0  0  0
    4.7245   -0.6826    4.2604 H   0  0  0  0  0  0  0  0  0  0  0  0
    3.2563    1.1692    5.0384 H   0  0  0  0  0  0  0  0  0  0  0  0
    1.0765    0.5579    6.0718 H   0  0  0  0  0  0  0  0  0  0  0  0
    0.2011   -1.7624    5.7455 H   0  0  0  0  0  0  0  0  0  0  0  0
    1.3674   -3.2846    4.3141 H   0  0  0  0  0  0  0  0  0  0  0  0
  1  2  1  0  0  0  0
  1 35  1  0  0  0  0
  1 36  1  0  0  0  0
  1 37  1  0  0  0  0
  2  3  1  0  0  0  0
  2 38  1  0  0  0  0
  2 39  1  0  0  0  0
  3  4  1  0  0  0  0
  3 40  1  0  0  0  0
  4  5  1  0  0  0  0
  4 41  1  0  0  0  0
  4 42  1  0  0  0  0
  5  6  1  0  0  0  0
  5 43  1  0  0  0  0
  5 44  1  0  0  0  0
  6  7  2  0  0  0  0
  6  8  2  0  0  0  0
  6  9  1  0  0  0  0
  9 10  1  0  0  0  0
  9 45  1  0  0  0  0
 10 46  1  0  0  0  0
 10 47  1  0  0  0  0
 11 10  1  6  0  0  0
 11 12  1  0  0  0  0
 11 15  1  0  0  0  0
 11 29  1  0  0  0  0
 12 13  1  0  0  0  0
 12 23  1  0  0  0  0
 13 14  2  0  0  0  0
 14 15  1  0  0  0  0
 14 16  1  0  0  0  0
 16 17  1  0  0  0  0
 16 48  1  0  0  0  0
 17 18  2  0  0  0  0
 17 19  1  0  0  0  0
 19 20  1  0  0  0  0
 19 21  1  0  0  0  0
 19 22  1  0  0  0  0
 20 49  1  0  0  0  0
 20 50  1  0  0  0  0
 20 51  1  0  0  0  0
 21 52  1  0  0  0  0
 21 53  1  0  0  0  0
 21 54  1  0  0  0  0
 22 55  1  0  0  0  0
 22 56  1  0  0  0  0
 22 57  1  0  0  0  0
 23 24  2  0  0  0  0
 23 25  1  0  0  0  0
 25 26  1  0  0  0  0
 25 27  1  0  0  0  0
 25 28  1  0  0  0  0
 26 58  1  0  0  0  0
 26 59  1  0  0  0  0
 26 60  1  0  0  0  0
 27 61  1  0  0  0  0
 27 62  1  0  0  0  0
 27 63  1  0  0  0  0
 28 64  1  0  0  0  0
 28 65  1  0  0  0  0
 28 66  1  0  0  0  0
 29 30  2  0  0  0  0
 29 34  1  0  0  0  0
 30 31  1  0  0  0  0
 30 67  1  0  0  0  0
 31 32  2  0  0  0  0
 31 68  1  0  0  0  0
 32 33  1  0  0  0  0
 32 69  1  0  0  0  0
 33 34  2  0  0  0  0
 33 70  1  0  0  0  0
 34 71  1  0  0  0  0
M  END
>  <DRUGBANK_ID>
DB11861

>  <COMMON_NAME>
Litronesib

>  <CAS_NUMBER>
910634-41-2

>  <UNII>
6611F8KYCV

>  <SYNONYMS>
Litronesib

$$$$
