
 OpenBabel10282417103D

 13 13  0  0  0  0  0  0  0  0999 V2000
   -0.7498   -0.9632    0.1290 O   0  0  0  0  0  0  0  0  0  0  0  0
    0.6776   -1.0430    0.0997 C   0  0  0  0  0  0  0  0  0  0  0  0
   -1.0613    0.4097    0.1707 N   0  0  0  0  0  0  0  0  0  0  0  0
    1.2510    0.3690    0.0196 C   0  0  1  0  0  0  0  0  0  0  0  0
    2.2455    0.5727   -1.0426 N   0  0  0  0  0  0  0  0  0  0  0  0
    0.0077    1.2064   -0.1401 C   0  0  0  0  0  0  0  0  0  0  0  0
   -0.0548    2.4049   -0.3881 O   0  0  0  0  0  0  0  0  0  0  0  0
    0.9896   -1.5306    1.0283 H   0  0  0  0  0  0  0  0  0  0  0  0
    1.0006   -1.6787   -0.7328 H   0  0  0  0  0  0  0  0  0  0  0  0
   -2.0144    0.7122    0.3185 H   0  0  0  0  0  0  0  0  0  0  0  0
    1.6943    0.6299    0.9878 H   0  0  0  0  0  0  0  0  0  0  0  0
    2.7498   -0.2899   -1.2334 H   0  0  0  0  0  0  0  0  0  0  0  0
    2.9389    1.2464   -0.7133 H   0  0  0  0  0  0  0  0  0  0  0  0
  1  2  1  0  0  0  0
  1  3  1  0  0  0  0
  2  4  1  0  0  0  0
  2  8  1  0  0  0  0
  2  9  1  0  0  0  0
  3 10  1  0  0  0  0
  4  6  1  0  0  0  0
  4 11  1  1  0  0  0
  4  5  1  0  0  0  0
  5 12  1  0  0  0  0
  5 13  1  0  0  0  0
  6  3  1  0  0  0  0
  6  7  2  0  0  0  0
M  END
>  <DRUGBANK_ID>
DB00260

>  <SECONDARY_ACCESSION_NUMBERS>
APRD00894; DB03123

>  <COMMON_NAME>
Cycloserine

>  <CAS_NUMBER>
68-41-7

>  <UNII>
95IK5KI84Z

>  <SYNONYMS>
(+)-4-amino-3-isoxazolidinone; (+)-cycloserine; alpha-Cycloserine; Cicloserina; cyclo-D-Serine; Cyclosérine; Cycloserine; Cycloserinum; D-(+)-cycloserine; D-4-amino-3-isoxazolidinone; D-4-amino-3-isoxazolidone; D-Cycloserine; DCS; Orientomycin; α-Cycloserine

$$$$
