
 OpenBabel10282417123D

 12 11  0  0  1  0  0  0  0  0999 V2000
    0.9358    0.0433   -0.0606 O   0  0  0  0  0  0  0  0  0  0  0  0
    0.4804    1.3718    0.2063 C   0  0  0  0  0  0  0  0  0  0  0  0
    1.0000    1.8315    1.5627 C   0  0  1  0  0  0  0  0  0  0  0  0
    2.4269    1.8635    1.5180 O   0  0  0  0  0  0  0  0  0  0  0  0
    0.4718    3.2153    1.8757 C   0  0  0  0  0  0  0  0  0  0  0  0
   -0.2709    3.4638    2.8252 O   0  0  0  0  0  0  0  0  0  0  0  0
    1.8984    0.0859   -0.1963 H   0  0  0  0  0  0  0  0  0  0  0  0
    0.8422    2.0188   -0.6011 H   0  0  0  0  0  0  0  0  0  0  0  0
   -0.6133    1.3690    0.1803 H   0  0  0  0  0  0  0  0  0  0  0  0
    0.6950    1.1407    2.3567 H   0  0  0  0  0  0  0  0  0  0  0  0
    2.7235    0.9364    1.5387 H   0  0  0  0  0  0  0  0  0  0  0  0
    0.7755    4.0127    1.1772 H   0  0  0  0  0  0  0  0  0  0  0  0
  1  2  1  0  0  0  0
  1  7  1  0  0  0  0
  2  3  1  0  0  0  0
  2  8  1  0  0  0  0
  2  9  1  0  0  0  0
  3  4  1  0  0  0  0
  3  5  1  0  0  0  0
  3 10  1  1  0  0  0
  4 11  1  0  0  0  0
  5  6  2  0  0  0  0
  5 12  1  0  0  0  0
M  END
>  <DRUGBANK_ID>
DB02536

>  <SECONDARY_ACCESSION_NUMBERS>
EXPT00170

>  <COMMON_NAME>
D-glyceraldehyde

>  <CAS_NUMBER>
453-17-8

>  <UNII>
41A680M0WB

>  <SYNONYMS>
D-(+)-glyceraldehyde; D-2,3-dihydroxypropanal; D-2,3-dihydroxypropionaldehyde; D-aldotriose; D-glycerose; Triose

$$$$
