BPZ
 OpenBabel10282417163D

 40 42  0  0  0  0  0  0  0  0999 V2000
    2.3340   -0.0404    0.0280 O   0  0  0  0  0  0  0  0  0  0  0  0
    0.9722   -0.0487    0.0122 C   0  0  0  0  0  0  0  0  0  0  0  0
    0.3345    1.1738   -0.0201 C   0  0  0  0  0  0  0  0  0  0  0  0
   -1.0556    1.2229   -0.0789 C   0  0  0  0  0  0  0  0  0  0  0  0
    0.2374   -1.2290    0.0144 C   0  0  0  0  0  0  0  0  0  0  0  0
   -1.1641   -1.1732   -0.0044 C   0  0  0  0  0  0  0  0  0  0  0  0
   -1.8489    0.0575   -0.0483 C   0  0  0  0  0  0  0  0  0  0  0  0
   -3.4076    0.1231   -0.0619 C   0  0  0  0  0  0  0  0  0  0  0  0
   -3.9276   -0.6583   -1.3180 C   0  0  0  0  0  0  0  0  0  0  0  0
   -5.4555   -0.8439   -1.3487 C   0  0  0  0  0  0  0  0  0  0  0  0
   -3.9710   -0.6179    1.1969 C   0  0  0  0  0  0  0  0  0  0  0  0
   -5.4975   -0.7407    1.1727 C   0  0  0  0  0  0  0  0  0  0  0  0
   -5.9770   -1.4822   -0.0717 C   0  0  0  0  0  0  0  0  0  0  0  0
   -3.9189    1.5962   -0.0506 C   0  0  0  0  0  0  0  0  0  0  0  0
   -3.6713    2.4372    1.0544 C   0  0  0  0  0  0  0  0  0  0  0  0
   -4.0480    3.7841    1.0387 C   0  0  0  0  0  0  0  0  0  0  0  0
   -4.7592    4.2790   -0.0494 C   0  0  0  0  0  0  0  0  0  0  0  0
   -5.1666    5.5769   -0.1151 O   0  0  0  0  0  0  0  0  0  0  0  0
   -5.0543    3.4724   -1.1266 C   0  0  0  0  0  0  0  0  0  0  0  0
   -4.5845    2.1649   -1.1524 C   0  0  0  0  0  0  0  0  0  0  0  0
    2.6498   -0.9552   -0.0190 H   0  0  0  0  0  0  0  0  0  0  0  0
    0.9048    2.0984   -0.0121 H   0  0  0  0  0  0  0  0  0  0  0  0
   -1.4910    2.2139   -0.1467 H   0  0  0  0  0  0  0  0  0  0  0  0
    0.7291   -2.1954    0.0330 H   0  0  0  0  0  0  0  0  0  0  0  0
   -1.7105   -2.1146    0.0074 H   0  0  0  0  0  0  0  0  0  0  0  0
   -3.5833   -0.1740   -2.2417 H   0  0  0  0  0  0  0  0  0  0  0  0
   -3.4889   -1.6638   -1.3516 H   0  0  0  0  0  0  0  0  0  0  0  0
   -5.7307   -1.4454   -2.2216 H   0  0  0  0  0  0  0  0  0  0  0  0
   -5.9893    0.1009   -1.4766 H   0  0  0  0  0  0  0  0  0  0  0  0
   -3.5638   -1.6362    1.2606 H   0  0  0  0  0  0  0  0  0  0  0  0
   -3.6602   -0.1258    2.1264 H   0  0  0  0  0  0  0  0  0  0  0  0
   -5.8373   -1.2754    2.0664 H   0  0  0  0  0  0  0  0  0  0  0  0
   -5.9557    0.2547    1.2146 H   0  0  0  0  0  0  0  0  0  0  0  0
   -5.6463   -2.5255   -0.0326 H   0  0  0  0  0  0  0  0  0  0  0  0
   -7.0725   -1.4877   -0.0935 H   0  0  0  0  0  0  0  0  0  0  0  0
   -3.0982    2.0700    1.9064 H   0  0  0  0  0  0  0  0  0  0  0  0
   -3.7649    4.4214    1.8674 H   0  0  0  0  0  0  0  0  0  0  0  0
   -4.8256    6.0440    0.6611 H   0  0  0  0  0  0  0  0  0  0  0  0
   -5.6236    3.8534   -1.9702 H   0  0  0  0  0  0  0  0  0  0  0  0
   -4.7638    1.6161   -2.0684 H   0  0  0  0  0  0  0  0  0  0  0  0
  1  2  1  0  0  0  0
  1 21  1  0  0  0  0
  2  5  2  0  0  0  0
  2  3  1  0  0  0  0
  3  4  2  0  0  0  0
  3 22  1  0  0  0  0
  4  7  1  0  0  0  0
  4 23  1  0  0  0  0
  5  6  1  0  0  0  0
  5 24  1  0  0  0  0
  6  7  2  0  0  0  0
  6 25  1  0  0  0  0
  7  8  1  0  0  0  0
  8 14  1  0  0  0  0
  8 11  1  0  0  0  0
  8  9  1  0  0  0  0
  9 10  1  0  0  0  0
  9 26  1  0  0  0  0
  9 27  1  0  0  0  0
 10 13  1  0  0  0  0
 10 28  1  0  0  0  0
 10 29  1  0  0  0  0
 11 30  1  0  0  0  0
 11 31  1  0  0  0  0
 12 11  1  0  0  0  0
 12 13  1  0  0  0  0
 12 32  1  0  0  0  0
 12 33  1  0  0  0  0
 13 34  1  0  0  0  0
 13 35  1  0  0  0  0
 14 20  1  0  0  0  0
 15 14  2  0  0  0  0
 15 16  1  0  0  0  0
 15 36  1  0  0  0  0
 16 17  2  0  0  0  0
 16 37  1  0  0  0  0
 17 18  1  0  0  0  0
 17 19  1  0  0  0  0
 18 38  1  0  0  0  0
 19 39  1  0  0  0  0
 20 19  2  0  0  0  0
 20 40  1  0  0  0  0
M  END
>  <DRUGBANK_ID>
DB07485

>  <COMMON_NAME>
Bisphenol Z

>  <CAS_NUMBER>
843-55-0

>  <UNII>
64ZF6464QY

>  <SYNONYMS>
4,4'-cyclohexane-1,1-diyldiphenol; 4,4'-cyclohexylidenebisphenol; Antigene W; Bis-Z

$$$$
