
 OpenBabel10282417153D

 25 26  0  0  0  0  0  0  0  0999 V2000
    2.3480    0.9056   -0.0070 F   0  0  0  0  0  0  0  0  0  0  0  0
   -2.3824    0.7476    0.2252 F   0  0  0  0  0  0  0  0  0  0  0  0
   -3.4271    3.9267   -4.7518 O   0  0  0  0  0  0  0  0  0  0  0  0
   -0.7484    2.9487   -1.2183 N   0  0  0  0  0  0  0  0  0  0  0  0
   -0.0940    3.6400   -2.1691 N   0  0  0  0  0  0  0  0  0  0  0  0
   -0.9576    3.8859   -3.1536 N   0  0  0  0  0  0  0  0  0  0  0  0
   -4.4908    2.7655   -3.1463 N   0  0  0  0  0  0  0  0  0  0  0  0
   -0.0567    2.4408   -0.0369 C   0  0  0  0  0  0  0  0  0  0  0  0
   -0.0212    0.9344    0.0011 C   0  0  0  0  0  0  0  0  0  0  0  0
   -2.0680    2.8344   -1.5406 C   0  0  0  0  0  0  0  0  0  0  0  0
    1.1867    0.2367   -0.0102 C   0  0  0  0  0  0  0  0  0  0  0  0
   -1.1890    0.1667    0.0666 C   0  0  0  0  0  0  0  0  0  0  0  0
   -2.1831    3.3659   -2.8049 C   0  0  0  0  0  0  0  0  0  0  0  0
    1.2233   -1.1606    0.0022 C   0  0  0  0  0  0  0  0  0  0  0  0
   -1.1758   -1.2216    0.0156 C   0  0  0  0  0  0  0  0  0  0  0  0
    0.0372   -1.8931   -0.0041 C   0  0  0  0  0  0  0  0  0  0  0  0
   -3.3736    3.3930   -3.6457 C   0  0  0  0  0  0  0  0  0  0  0  0
   -4.5267    2.2874   -2.2588 H   0  0  0  0  0  0  0  0  0  0  0  0
   -5.3234    2.7776   -3.7190 H   0  0  0  0  0  0  0  0  0  0  0  0
   -0.5722    2.8360    0.8459 H   0  0  0  0  0  0  0  0  0  0  0  0
    0.9548    2.8676   -0.0378 H   0  0  0  0  0  0  0  0  0  0  0  0
   -2.7964    2.3667   -0.9077 H   0  0  0  0  0  0  0  0  0  0  0  0
    2.1810   -1.6729    0.0121 H   0  0  0  0  0  0  0  0  0  0  0  0
   -2.1203   -1.7573    0.0101 H   0  0  0  0  0  0  0  0  0  0  0  0
    0.0533   -2.9792   -0.0053 H   0  0  0  0  0  0  0  0  0  0  0  0
  1 11  1  0  0  0  0
  2 12  1  0  0  0  0
  3 17  2  0  0  0  0
  4  5  1  0  0  0  0
  4  8  1  0  0  0  0
  4 10  1  0  0  0  0
  5  6  2  0  0  0  0
  6 13  1  0  0  0  0
  7 17  1  0  0  0  0
  7 18  1  0  0  0  0
  7 19  1  0  0  0  0
  8  9  1  0  0  0  0
  8 20  1  0  0  0  0
  8 21  1  0  0  0  0
  9 11  2  0  0  0  0
  9 12  1  0  0  0  0
 10 13  2  0  0  0  0
 10 22  1  0  0  0  0
 11 14  1  0  0  0  0
 12 15  2  0  0  0  0
 13 17  1  0  0  0  0
 14 16  2  0  0  0  0
 14 23  1  0  0  0  0
 15 16  1  0  0  0  0
 15 24  1  0  0  0  0
 16 25  1  0  0  0  0
M  END
>  <DRUGBANK_ID>
DB06201

>  <COMMON_NAME>
Rufinamide

>  <CAS_NUMBER>
106308-44-5

>  <UNII>
WFW942PR79

>  <SYNONYMS>
Rufinamida; Rufinamide; Xilep

$$$$
