5HE
 OpenBabel10282417163D

 53 52  0  0  0  0  0  0  0  0999 V2000
    1.0045   -0.1044    0.0367 C   0  0  0  0  0  0  0  0  0  0  0  0
    0.5470    0.8847    1.0849 C   0  0  0  0  0  0  0  0  0  0  0  0
    0.9467    2.2832    0.7159 C   0  0  0  0  0  0  0  0  0  0  0  0
    0.0730    3.2660    0.4705 C   0  0  0  0  0  0  0  0  0  0  0  0
   -1.4002    3.0683    0.5113 C   0  0  0  0  0  0  0  0  0  0  0  0
   -2.0523    3.9931    1.4805 C   0  0  0  0  0  0  0  0  0  0  0  0
   -3.0411    4.8168    1.1260 C   0  0  0  0  0  0  0  0  0  0  0  0
   -3.5223    4.9110   -0.2774 C   0  0  0  0  0  0  0  0  0  0  0  0
   -4.9808    4.6418   -0.3787 C   0  0  0  0  0  0  0  0  0  0  0  0
   -5.8262    5.5189   -0.9237 C   0  0  0  0  0  0  0  0  0  0  0  0
   -5.3801    6.8522   -1.4131 C   0  0  0  0  0  0  0  0  0  0  0  0
   -5.7513    7.0683   -2.8393 C   0  0  0  0  0  0  0  0  0  0  0  0
   -6.5057    8.0892   -3.2564 C   0  0  0  0  0  0  0  0  0  0  0  0
   -7.0350    9.0526   -2.3353 C   0  0  0  0  0  0  0  0  0  0  0  0
   -7.8318   10.0606   -2.6726 C   0  0  0  0  0  0  0  0  0  0  0  0
   -8.2667   11.0463   -1.6328 C   0  0  1  0  0  0  0  0  0  0  0  0
   -7.8008   12.4505   -2.0211 C   0  0  0  0  0  0  0  0  0  0  0  0
   -8.3230   12.9541   -3.3769 C   0  0  0  0  0  0  0  0  0  0  0  0
   -9.8428   13.0741   -3.4985 C   0  0  0  0  0  0  0  0  0  0  0  0
  -10.4419   13.9530   -2.4121 C   0  0  0  0  0  0  0  0  0  0  0  0
  -11.2211   14.9450   -2.8938 O   0  0  0  0  0  0  0  0  0  0  0  0
  -10.2740   13.8145   -1.2175 O   0  0  0  0  0  0  0  0  0  0  0  0
   -9.6675   10.9440   -1.4640 O   0  0  0  0  0  0  0  0  0  0  0  0
   -7.8357   10.8138   -0.6507 H   0  0  0  0  0  0  0  0  0  0  0  0
    0.6134    0.1575   -0.9538 H   0  0  0  0  0  0  0  0  0  0  0  0
    0.6318   -1.1007    0.2908 H   0  0  0  0  0  0  0  0  0  0  0  0
    2.0950   -0.1360   -0.0136 H   0  0  0  0  0  0  0  0  0  0  0  0
   -0.5307    0.7492    1.1807 H   0  0  0  0  0  0  0  0  0  0  0  0
    0.9504    0.6493    2.0721 H   0  0  0  0  0  0  0  0  0  0  0  0
    2.0086    2.5013    0.6336 H   0  0  0  0  0  0  0  0  0  0  0  0
    0.4300    4.2524    0.1725 H   0  0  0  0  0  0  0  0  0  0  0  0
   -1.7155    3.1568   -0.5263 H   0  0  0  0  0  0  0  0  0  0  0  0
   -1.7444    2.0759    0.7907 H   0  0  0  0  0  0  0  0  0  0  0  0
   -1.7283    3.9563    2.5177 H   0  0  0  0  0  0  0  0  0  0  0  0
   -3.4905    5.4766    1.8654 H   0  0  0  0  0  0  0  0  0  0  0  0
   -3.1765    5.8845   -0.6157 H   0  0  0  0  0  0  0  0  0  0  0  0
   -3.0744    4.2315   -0.9977 H   0  0  0  0  0  0  0  0  0  0  0  0
   -5.3471    3.6783   -0.0312 H   0  0  0  0  0  0  0  0  0  0  0  0
   -6.8864    5.2833   -0.9781 H   0  0  0  0  0  0  0  0  0  0  0  0
   -5.7838    7.5613   -0.6935 H   0  0  0  0  0  0  0  0  0  0  0  0
   -4.3109    7.0492   -1.3775 H   0  0  0  0  0  0  0  0  0  0  0  0
   -5.3375    6.3717   -3.5667 H   0  0  0  0  0  0  0  0  0  0  0  0
   -6.7091    8.2011   -4.3171 H   0  0  0  0  0  0  0  0  0  0  0  0
   -6.7861    8.9913   -1.2823 H   0  0  0  0  0  0  0  0  0  0  0  0
   -8.1222   10.1860   -3.7078 H   0  0  0  0  0  0  0  0  0  0  0  0
   -8.0722   13.1552   -1.2303 H   0  0  0  0  0  0  0  0  0  0  0  0
   -6.7020   12.4659   -2.0436 H   0  0  0  0  0  0  0  0  0  0  0  0
   -7.8716   13.9318   -3.5773 H   0  0  0  0  0  0  0  0  0  0  0  0
   -7.9521   12.2992   -4.1763 H   0  0  0  0  0  0  0  0  0  0  0  0
  -10.0759   13.4733   -4.4913 H   0  0  0  0  0  0  0  0  0  0  0  0
  -10.3474   12.1063   -3.4882 H   0  0  0  0  0  0  0  0  0  0  0  0
  -11.3155   14.9549   -3.8606 H   0  0  0  0  0  0  0  0  0  0  0  0
  -10.0659   10.6692   -2.3010 H   0  0  0  0  0  0  0  0  0  0  0  0
  1  2  1  0  0  0  0
  1 25  1  0  0  0  0
  1 26  1  0  0  0  0
  1 27  1  0  0  0  0
  2  3  1  0  0  0  0
  2 28  1  0  0  0  0
  2 29  1  0  0  0  0
  3  4  2  0  0  0  0
  3 30  1  0  0  0  0
  4  5  1  0  0  0  0
  4 31  1  0  0  0  0
  5  6  1  0  0  0  0
  5 32  1  0  0  0  0
  5 33  1  0  0  0  0
  6  7  2  0  0  0  0
  6 34  1  0  0  0  0
  7  8  1  0  0  0  0
  7 35  1  0  0  0  0
  8  9  1  0  0  0  0
  8 36  1  0  0  0  0
  8 37  1  0  0  0  0
  9 10  2  0  0  0  0
  9 38  1  0  0  0  0
 10 11  1  0  0  0  0
 10 39  1  0  0  0  0
 11 12  1  0  0  0  0
 11 40  1  0  0  0  0
 11 41  1  0  0  0  0
 12 13  2  0  0  0  0
 12 42  1  0  0  0  0
 13 14  1  0  0  0  0
 13 43  1  0  0  0  0
 14 15  2  0  0  0  0
 14 44  1  0  0  0  0
 15 16  1  0  0  0  0
 15 45  1  0  0  0  0
 16 17  1  0  0  0  0
 16 23  1  0  0  0  0
 16 24  1  1  0  0  0
 17 18  1  0  0  0  0
 17 46  1  0  0  0  0
 17 47  1  0  0  0  0
 18 19  1  0  0  0  0
 18 48  1  0  0  0  0
 18 49  1  0  0  0  0
 19 20  1  0  0  0  0
 19 50  1  0  0  0  0
 19 51  1  0  0  0  0
 20 21  1  0  0  0  0
 20 22  2  0  0  0  0
 21 52  1  0  0  0  0
 23 53  1  0  0  0  0
M  END
>  <DRUGBANK_ID>
DB07172

>  <COMMON_NAME>
(5R,6E,8Z,11Z,14Z,17Z)-5-hydroxyicosa-6,8,11,14,17-pentaenoic acid

$$$$
