
 OpenBabel10282417153D

 40 40  0  0  0  0  0  0  0  0999 V2000
    1.0928   -0.3728   -0.0055 O   0  0  0  0  0  0  0  0  0  0  0  0
    1.8350    4.0759   -0.7134 O   0  0  0  0  0  0  0  0  0  0  0  0
    6.1224    0.3910   -2.2805 O   0  0  0  0  0  0  0  0  0  0  0  0
    4.4616   -0.5579   -3.4241 O   0  0  0  0  0  0  0  0  0  0  0  0
    6.0352   -4.2158   -3.3530 O   0  0  0  0  0  0  0  0  0  0  0  0
    4.2680   -2.9636   -3.8678 O   0  0  0  0  0  0  0  0  0  0  0  0
    2.5189    2.2908    0.5385 N   0  0  0  0  0  0  0  0  0  0  0  0
    3.0949   -1.0053   -0.7981 N   0  0  0  0  0  0  0  0  0  0  0  0
    3.2282    1.5027   -2.3058 N   0  0  0  0  0  0  0  0  0  0  0  0
    2.9778    0.9245    0.7799 C   0  0  1  0  0  0  0  0  0  0  0  0
    2.6429    0.7510    2.2632 C   0  0  0  0  0  0  0  0  0  0  0  0
    3.0276    2.0988    2.8575 C   0  0  0  0  0  0  0  0  0  0  0  0
    2.7697    3.0987    1.7257 C   0  0  0  0  0  0  0  0  0  0  0  0
    2.3137   -0.2034   -0.0094 C   0  0  0  0  0  0  0  0  0  0  0  0
    2.0936    2.8705   -0.6483 C   0  0  0  0  0  0  0  0  0  0  0  0
    4.5563   -0.9946   -0.9964 C   0  0  1  0  0  0  0  0  0  0  0  0
    5.0878   -2.3942   -0.6700 C   0  0  0  0  0  0  0  0  0  0  0  0
    1.9234    2.0021   -1.9057 C   0  0  0  0  0  0  0  0  0  0  0  0
    4.5707   -3.5366   -1.5518 C   0  0  0  0  0  0  0  0  0  0  0  0
    5.0365   -0.4174   -2.3567 C   0  0  0  0  0  0  0  0  0  0  0  0
    4.9363   -3.5060   -3.0235 C   0  0  0  0  0  0  0  0  0  0  0  0
    2.5410   -1.5278   -1.4709 H   0  0  0  0  0  0  0  0  0  0  0  0
    3.1039    0.8247   -3.0763 H   0  0  0  0  0  0  0  0  0  0  0  0
    3.7901    2.2474   -2.7109 H   0  0  0  0  0  0  0  0  0  0  0  0
    6.0775    0.9977   -1.5180 H   0  0  0  0  0  0  0  0  0  0  0  0
    6.1793   -4.9986   -2.7959 H   0  0  0  0  0  0  0  0  0  0  0  0
    4.0616    0.9493    0.6822 H   0  0  0  0  0  0  0  0  0  0  0  0
    1.5664    0.5846    2.4027 H   0  0  0  0  0  0  0  0  0  0  0  0
    3.1719   -0.0893    2.7227 H   0  0  0  0  0  0  0  0  0  0  0  0
    2.4513    2.3329    3.7573 H   0  0  0  0  0  0  0  0  0  0  0  0
    4.0885    2.0906    3.1371 H   0  0  0  0  0  0  0  0  0  0  0  0
    1.9171    3.7520    1.9204 H   0  0  0  0  0  0  0  0  0  0  0  0
    3.6608    3.7207    1.5656 H   0  0  0  0  0  0  0  0  0  0  0  0
    4.9966   -0.3405   -0.2443 H   0  0  0  0  0  0  0  0  0  0  0  0
    6.1814   -2.3810   -0.6300 H   0  0  0  0  0  0  0  0  0  0  0  0
    4.7528   -2.6179    0.3587 H   0  0  0  0  0  0  0  0  0  0  0  0
    1.2049    1.1972   -1.7400 H   0  0  0  0  0  0  0  0  0  0  0  0
    1.5117    2.5890   -2.7303 H   0  0  0  0  0  0  0  0  0  0  0  0
    4.8990   -4.4900   -1.1268 H   0  0  0  0  0  0  0  0  0  0  0  0
    3.4760   -3.5661   -1.5117 H   0  0  0  0  0  0  0  0  0  0  0  0
  1 14  2  0  0  0  0
  2 15  2  0  0  0  0
  3 20  1  0  0  0  0
  3 25  1  0  0  0  0
  4 20  2  0  0  0  0
  5 21  1  0  0  0  0
  5 26  1  0  0  0  0
  6 21  2  0  0  0  0
  7 10  1  0  0  0  0
  7 13  1  0  0  0  0
  7 15  1  0  0  0  0
  8 14  1  0  0  0  0
  8 22  1  0  0  0  0
  9 18  1  0  0  0  0
  9 23  1  0  0  0  0
  9 24  1  0  0  0  0
 10 11  1  0  0  0  0
 10 14  1  0  0  0  0
 10 27  1  6  0  0  0
 11 12  1  0  0  0  0
 11 28  1  0  0  0  0
 11 29  1  0  0  0  0
 12 13  1  0  0  0  0
 12 30  1  0  0  0  0
 12 31  1  0  0  0  0
 13 32  1  0  0  0  0
 13 33  1  0  0  0  0
 15 18  1  0  0  0  0
 16  8  1  0  0  0  0
 16 17  1  0  0  0  0
 16 20  1  0  0  0  0
 16 34  1  1  0  0  0
 17 19  1  0  0  0  0
 17 35  1  0  0  0  0
 17 36  1  0  0  0  0
 18 37  1  0  0  0  0
 18 38  1  0  0  0  0
 19 21  1  0  0  0  0
 19 39  1  0  0  0  0
 19 40  1  0  0  0  0
M  END
>  <DRUGBANK_ID>
DB05633

>  <COMMON_NAME>
Glypromate

>  <CAS_NUMBER>
32302-76-4

>  <UNII>
ZYK4RVV5LS

>  <SYNONYMS>
Gly-pro-glu; Glycyl-prolyl-glutamic acid; GPE

$$$$
