
 OpenBabel10282417193D

115114  0  0  0  0  0  0  0  0999 V2000
    0.9643   -0.0404   -0.0010 C   0  0  0  0  0  0  0  0  0  0  0  0
    0.5195    1.2302    0.7049 C   0  0  0  0  0  0  0  0  0  0  0  0
    1.0173    2.4620   -0.0525 C   0  0  0  0  0  0  0  0  0  0  0  0
    0.4630    2.4980   -1.4810 C   0  0  0  0  0  0  0  0  0  0  0  0
   -1.0695    2.5154   -1.4668 C   0  0  0  0  0  0  0  0  0  0  0  0
   -1.5730    3.7646   -0.7380 C   0  0  0  0  0  0  0  0  0  0  0  0
   -1.0649    5.0190   -1.4548 C   0  0  0  0  0  0  0  0  0  0  0  0
   -1.5781    5.0266   -2.8976 C   0  0  0  0  0  0  0  0  0  0  0  0
   -3.1091    5.0204   -2.8888 C   0  0  0  0  0  0  0  0  0  0  0  0
   -3.6119    6.2612   -2.1447 C   0  0  0  0  0  0  0  0  0  0  0  0
   -3.1031    7.5146   -2.8606 C   0  0  0  0  0  0  0  0  0  0  0  0
   -3.6141    7.4971   -4.3036 C   0  0  0  0  0  0  0  0  0  0  0  0
   -5.1475    7.4559   -4.2813 C   0  0  0  0  0  0  0  0  0  0  0  0
   -5.6787    8.7003   -3.5765 C   0  0  0  0  0  0  0  0  0  0  0  0
   -5.0441    9.9390   -4.1605 C   0  0  0  0  0  0  0  0  0  0  0  0
   -5.5741   10.1419   -5.5184 C   0  0  0  0  0  0  0  0  0  0  0  0
   -6.2253   11.1780   -5.6105 O   0  0  0  0  0  0  0  0  0  0  0  0
   -5.3391    9.1307   -6.4247 O   0  0  0  0  0  0  0  0  0  0  0  0
   -5.8125    8.9333   -7.8307 C   0  0  0  0  0  0  0  0  0  0  0  0
   -7.3155    9.1337   -8.0211 C   0  0  3  0  0  0  0  0  0  0  0  0
   -7.8494   10.3777   -7.3475 C   0  0  0  0  0  0  0  0  0  0  0  0
   -7.2139   11.6459   -7.8229 O   0  0  0  0  0  0  0  0  0  0  0  0
   -5.8601   11.9270   -7.9565 C   0  0  0  0  0  0  0  0  0  0  0  0
   -4.8676   11.2915   -7.6031 O   0  0  0  0  0  0  0  0  0  0  0  0
   -5.5576   13.1513   -8.7260 C   0  0  0  0  0  0  0  0  0  0  0  0
   -7.8158    9.1762   -9.3865 O   0  0  0  0  0  0  0  0  0  0  0  0
   -7.3379   10.0871  -10.2653 C   0  0  0  0  0  0  0  0  0  0  0  0
   -6.3796   10.8316  -10.0878 O   0  0  0  0  0  0  0  0  0  0  0  0
   -7.9437   10.0519  -11.6148 C   0  0  0  0  0  0  0  0  0  0  0  0
   -7.3811    8.8150  -12.2921 C   0  0  0  0  0  0  0  0  0  0  0  0
   -7.9201    7.5456  -11.6288 C   0  0  0  0  0  0  0  0  0  0  0  0
   -9.4538    7.5864  -11.5993 C   0  0  0  0  0  0  0  0  0  0  0  0
   -9.9949    7.6294  -13.0322 C   0  0  0  0  0  0  0  0  0  0  0  0
   -9.5255    6.3949  -13.7922 C   0  0  0  0  0  0  0  0  0  0  0  0
   -9.9427    5.1414  -13.0423 C   0  0  0  0  0  0  0  0  0  0  0  0
  -11.4392    5.0545  -13.0098 C   0  0  0  0  0  0  0  0  0  0  0  0
  -12.1138    4.0761  -13.6067 C   0  0  0  0  0  0  0  0  0  0  0  0
  -11.4205    2.9663  -14.2977 C   0  0  0  0  0  0  0  0  0  0  0  0
  -11.8197    1.6753  -13.6938 C   0  0  0  0  0  0  0  0  0  0  0  0
  -12.3835    0.7075  -14.4140 C   0  0  0  0  0  0  0  0  0  0  0  0
  -12.6216    0.8216  -15.8914 C   0  0  0  0  0  0  0  0  0  0  0  0
  -11.8122   -0.2246  -16.6408 C   0  0  0  0  0  0  0  0  0  0  0  0
  -12.2894   -1.6347  -16.3046 C   0  0  0  0  0  0  0  0  0  0  0  0
  -13.7865   -1.8102  -16.5751 C   0  0  0  0  0  0  0  0  0  0  0  0
  -14.1102   -1.5689  -18.0415 C   0  0  0  0  0  0  0  0  0  0  0  0
    0.5674   -0.1071   -1.0193 H   0  0  0  0  0  0  0  0  0  0  0  0
    0.6113   -0.9236    0.5319 H   0  0  0  0  0  0  0  0  0  0  0  0
    2.0560   -0.0654   -0.0640 H   0  0  0  0  0  0  0  0  0  0  0  0
   -0.5731    1.2366    0.7992 H   0  0  0  0  0  0  0  0  0  0  0  0
    0.9000    1.2500    1.7296 H   0  0  0  0  0  0  0  0  0  0  0  0
    0.7358    3.3671    0.4998 H   0  0  0  0  0  0  0  0  0  0  0  0
    2.1107    2.4761   -0.0830 H   0  0  0  0  0  0  0  0  0  0  0  0
    0.8728    3.3647   -2.0103 H   0  0  0  0  0  0  0  0  0  0  0  0
    0.8166    1.6501   -2.0723 H   0  0  0  0  0  0  0  0  0  0  0  0
   -1.4465    2.4606   -2.4932 H   0  0  0  0  0  0  0  0  0  0  0  0
   -1.4890    1.6211   -0.9993 H   0  0  0  0  0  0  0  0  0  0  0  0
   -2.6655    3.7392   -0.6749 H   0  0  0  0  0  0  0  0  0  0  0  0
   -1.2630    3.7859    0.3097 H   0  0  0  0  0  0  0  0  0  0  0  0
   -1.3701    5.9108   -0.8997 H   0  0  0  0  0  0  0  0  0  0  0  0
    0.0253    5.0896   -1.4494 H   0  0  0  0  0  0  0  0  0  0  0  0
   -1.1658    5.8871   -3.4322 H   0  0  0  0  0  0  0  0  0  0  0  0
   -1.2082    4.1787   -3.4795 H   0  0  0  0  0  0  0  0  0  0  0  0
   -3.4839    4.9613   -3.9145 H   0  0  0  0  0  0  0  0  0  0  0  0
   -3.5251    4.1204   -2.4298 H   0  0  0  0  0  0  0  0  0  0  0  0
   -4.7019    6.2327   -2.0718 H   0  0  0  0  0  0  0  0  0  0  0  0
   -3.3050    6.2816   -1.0968 H   0  0  0  0  0  0  0  0  0  0  0  0
   -3.4192    8.4072   -2.3126 H   0  0  0  0  0  0  0  0  0  0  0  0
   -2.0125    7.5923   -2.8531 H   0  0  0  0  0  0  0  0  0  0  0  0
   -3.2089    8.3547   -4.8484 H   0  0  0  0  0  0  0  0  0  0  0  0
   -3.2293    6.6556   -4.8839 H   0  0  0  0  0  0  0  0  0  0  0  0
   -5.5367    7.3434   -5.2925 H   0  0  0  0  0  0  0  0  0  0  0  0
   -5.5493    6.5660   -3.7943 H   0  0  0  0  0  0  0  0  0  0  0  0
   -6.7711    8.7383   -3.6521 H   0  0  0  0  0  0  0  0  0  0  0  0
   -5.4593    8.6849   -2.5040 H   0  0  0  0  0  0  0  0  0  0  0  0
   -5.3838   10.7987   -3.5673 H   0  0  0  0  0  0  0  0  0  0  0  0
   -3.9578   10.0275   -4.1666 H   0  0  0  0  0  0  0  0  0  0  0  0
   -5.2119    9.4871   -8.5532 H   0  0  0  0  0  0  0  0  0  0  0  0
   -5.5395    7.9059   -8.1225 H   0  0  0  0  0  0  0  0  0  0  0  0
   -7.7891    8.2460   -7.5665 H   0  0  0  0  0  0  0  0  0  0  0  0
   -8.9197   10.4624   -7.5723 H   0  0  0  0  0  0  0  0  0  0  0  0
   -7.8766   10.2334   -6.2625 H   0  0  0  0  0  0  0  0  0  0  0  0
   -5.9280   13.0845   -9.7461 H   0  0  0  0  0  0  0  0  0  0  0  0
   -5.8954   14.0236   -8.1823 H   0  0  0  0  0  0  0  0  0  0  0  0
   -4.4586   13.1819   -8.8006 H   0  0  0  0  0  0  0  0  0  0  0  0
   -9.0317   10.1479  -11.5779 H   0  0  0  0  0  0  0  0  0  0  0  0
   -7.6038   10.9471  -12.1472 H   0  0  0  0  0  0  0  0  0  0  0  0
   -7.6309    8.8460  -13.3568 H   0  0  0  0  0  0  0  0  0  0  0  0
   -6.2861    8.8147  -12.2447 H   0  0  0  0  0  0  0  0  0  0  0  0
   -7.5255    6.6672  -12.1456 H   0  0  0  0  0  0  0  0  0  0  0  0
   -7.5288    7.4053  -10.6191 H   0  0  0  0  0  0  0  0  0  0  0  0
   -9.8323    6.7356  -11.0268 H   0  0  0  0  0  0  0  0  0  0  0  0
   -9.8519    8.4352  -11.0382 H   0  0  0  0  0  0  0  0  0  0  0  0
  -11.0859    7.6969  -13.0150 H   0  0  0  0  0  0  0  0  0  0  0  0
   -9.6758    8.5284  -13.5672 H   0  0  0  0  0  0  0  0  0  0  0  0
   -9.9156    6.3995  -14.8156 H   0  0  0  0  0  0  0  0  0  0  0  0
   -8.4356    6.3849  -13.9118 H   0  0  0  0  0  0  0  0  0  0  0  0
   -9.4260    4.3194  -13.5282 H   0  0  0  0  0  0  0  0  0  0  0  0
   -9.5723    5.0758  -12.0171 H   0  0  0  0  0  0  0  0  0  0  0  0
  -12.0118    5.8397  -12.5217 H   0  0  0  0  0  0  0  0  0  0  0  0
  -13.2022    4.0889  -13.6165 H   0  0  0  0  0  0  0  0  0  0  0  0
  -11.6383    3.1129  -15.3515 H   0  0  0  0  0  0  0  0  0  0  0  0
  -10.3345    2.9632  -14.2669 H   0  0  0  0  0  0  0  0  0  0  0  0
  -11.6167    1.5248  -12.6341 H   0  0  0  0  0  0  0  0  0  0  0  0
  -12.6496   -0.2143  -13.9035 H   0  0  0  0  0  0  0  0  0  0  0  0
  -13.6966    0.7693  -16.0738 H   0  0  0  0  0  0  0  0  0  0  0  0
  -12.3463    1.7774  -16.3315 H   0  0  0  0  0  0  0  0  0  0  0  0
  -11.8985   -0.0300  -17.7156 H   0  0  0  0  0  0  0  0  0  0  0  0
  -10.7428   -0.1192  -16.4148 H   0  0  0  0  0  0  0  0  0  0  0  0
  -11.7107   -2.3582  -16.8862 H   0  0  0  0  0  0  0  0  0  0  0  0
  -12.0813   -1.8580  -15.2515 H   0  0  0  0  0  0  0  0  0  0  0  0
  -14.0920   -2.8172  -16.2804 H   0  0  0  0  0  0  0  0  0  0  0  0
  -14.3854   -1.1341  -15.9533 H   0  0  0  0  0  0  0  0  0  0  0  0
  -13.5519   -2.2718  -18.6661 H   0  0  0  0  0  0  0  0  0  0  0  0
  -15.1784   -1.6955  -18.2257 H   0  0  0  0  0  0  0  0  0  0  0  0
  -13.8511   -0.5539  -18.3615 H   0  0  0  0  0  0  0  0  0  0  0  0
  1  2  1  0  0  0  0
  1 46  1  0  0  0  0
  1 47  1  0  0  0  0
  1 48  1  0  0  0  0
  2  3  1  0  0  0  0
  2 49  1  0  0  0  0
  2 50  1  0  0  0  0
  3  4  1  0  0  0  0
  3 51  1  0  0  0  0
  3 52  1  0  0  0  0
  4  5  1  0  0  0  0
  4 53  1  0  0  0  0
  4 54  1  0  0  0  0
  5  6  1  0  0  0  0
  5 55  1  0  0  0  0
  5 56  1  0  0  0  0
  6  7  1  0  0  0  0
  6 57  1  0  0  0  0
  6 58  1  0  0  0  0
  7  8  1  0  0  0  0
  7 59  1  0  0  0  0
  7 60  1  0  0  0  0
  8  9  1  0  0  0  0
  8 61  1  0  0  0  0
  8 62  1  0  0  0  0
  9 10  1  0  0  0  0
  9 63  1  0  0  0  0
  9 64  1  0  0  0  0
 10 11  1  0  0  0  0
 10 65  1  0  0  0  0
 10 66  1  0  0  0  0
 11 12  1  0  0  0  0
 11 67  1  0  0  0  0
 11 68  1  0  0  0  0
 12 13  1  0  0  0  0
 12 69  1  0  0  0  0
 12 70  1  0  0  0  0
 13 14  1  0  0  0  0
 13 71  1  0  0  0  0
 13 72  1  0  0  0  0
 14 15  1  0  0  0  0
 14 73  1  0  0  0  0
 14 74  1  0  0  0  0
 15 16  1  0  0  0  0
 15 75  1  0  0  0  0
 15 76  1  0  0  0  0
 16 17  2  0  0  0  0
 16 18  1  0  0  0  0
 18 19  1  0  0  0  0
 19 20  1  0  0  0  0
 19 77  1  0  0  0  0
 19 78  1  0  0  0  0
 20 21  1  0  0  0  0
 20 26  1  0  0  0  0
 20 79  1  0  0  0  0
 21 22  1  0  0  0  0
 21 80  1  0  0  0  0
 21 81  1  0  0  0  0
 22 23  1  0  0  0  0
 23 24  2  0  0  0  0
 23 25  1  0  0  0  0
 25 82  1  0  0  0  0
 25 83  1  0  0  0  0
 25 84  1  0  0  0  0
 26 27  1  0  0  0  0
 27 28  2  0  0  0  0
 27 29  1  0  0  0  0
 29 30  1  0  0  0  0
 29 85  1  0  0  0  0
 29 86  1  0  0  0  0
 30 31  1  0  0  0  0
 30 87  1  0  0  0  0
 30 88  1  0  0  0  0
 31 32  1  0  0  0  0
 31 89  1  0  0  0  0
 31 90  1  0  0  0  0
 32 33  1  0  0  0  0
 32 91  1  0  0  0  0
 32 92  1  0  0  0  0
 33 34  1  0  0  0  0
 33 93  1  0  0  0  0
 33 94  1  0  0  0  0
 34 35  1  0  0  0  0
 34 95  1  0  0  0  0
 34 96  1  0  0  0  0
 35 36  1  0  0  0  0
 35 97  1  0  0  0  0
 35 98  1  0  0  0  0
 36 37  2  0  0  0  0
 36 99  1  0  0  0  0
 37 38  1  0  0  0  0
 37100  1  0  0  0  0
 38 39  1  0  0  0  0
 38101  1  0  0  0  0
 38102  1  0  0  0  0
 39 40  2  0  0  0  0
 39103  1  0  0  0  0
 40 41  1  0  0  0  0
 40104  1  0  0  0  0
 41 42  1  0  0  0  0
 41105  1  0  0  0  0
 41106  1  0  0  0  0
 42 43  1  0  0  0  0
 42107  1  0  0  0  0
 42108  1  0  0  0  0
 43 44  1  0  0  0  0
 43109  1  0  0  0  0
 43110  1  0  0  0  0
 44 45  1  0  0  0  0
 44111  1  0  0  0  0
 44112  1  0  0  0  0
 45113  1  0  0  0  0
 45114  1  0  0  0  0
 45115  1  0  0  0  0
M  END
>  <DRUGBANK_ID>
DB12592

>  <COMMON_NAME>
Mosedipimod

>  <CAS_NUMBER>
221139-79-3

>  <UNII>
88928BS57E

>  <SYNONYMS>
1-Palmitoyl-2-linoleoyl-3-acetyl-rac-glycerol; Mosedipimod

$$$$
