
 OpenBabel10282417183D

 76 78  0  0  1  0  0  0  0  0999 V2000
    2.3638    1.2964    0.0874 C   0  0  0  0  0  0  0  0  0  0  0  0
    1.0527    0.5398    0.0001 C   0  0  0  0  0  0  0  0  0  0  0  0
    0.9644   -0.8286   -0.0248 C   0  0  0  0  0  0  0  0  0  0  0  0
   -0.1563   -1.6615   -0.1456 C   0  0  0  0  0  0  0  0  0  0  0  0
   -1.3663   -1.0242   -0.0905 C   0  0  0  0  0  0  0  0  0  0  0  0
   -1.3775    0.3834   -0.0352 C   0  0  0  0  0  0  0  0  0  0  0  0
   -0.1718    1.1538   -0.0347 C   0  0  0  0  0  0  0  0  0  0  0  0
   -0.1652    2.5929   -0.0492 C   0  0  0  0  0  0  0  0  0  0  0  0
    0.4199    3.2654   -1.1265 C   0  0  0  0  0  0  0  0  0  0  0  0
    0.4582    4.6368   -1.1344 C   0  0  0  0  0  0  0  0  0  0  0  0
   -0.1485    5.3545   -0.0981 C   0  0  0  0  0  0  0  0  0  0  0  0
   -0.7570    4.6578    0.9614 C   0  0  0  0  0  0  0  0  0  0  0  0
   -0.6727    3.2891    1.0366 C   0  0  0  0  0  0  0  0  0  0  0  0
   -0.1219    6.8719   -0.0655 C   0  0  0  0  0  0  0  0  0  0  0  0
   -1.5647    7.3959   -0.1083 C   0  0  0  0  0  0  0  0  0  0  0  0
    0.5685    7.3213    1.2356 C   0  0  0  0  0  0  0  0  0  0  0  0
    0.6595    7.4575   -1.2554 C   0  0  0  0  0  0  0  0  0  0  0  0
   -2.7012    1.0806   -0.0200 C   0  0  0  0  0  0  0  0  0  0  0  0
   -0.1128   -3.0353   -0.1535 O   0  0  0  0  0  0  0  0  0  0  0  0
    1.1358   -3.8023    0.0177 C   0  0  1  0  0  0  0  0  0  0  0  0
    2.0954   -3.6567   -1.2386 C   0  0  0  0  0  0  0  0  0  0  0  0
    2.7733   -2.3154   -1.5563 C   0  0  0  0  0  0  0  0  0  0  0  0
    3.8740   -1.9359   -0.5527 C   0  0  0  0  0  0  0  0  0  0  0  0
    4.9324   -2.7548   -0.6742 F   0  0  0  0  0  0  0  0  0  0  0  0
    4.3017   -0.6789   -0.7848 F   0  0  0  0  0  0  0  0  0  0  0  0
    3.5396   -1.9792    0.7448 F   0  0  0  0  0  0  0  0  0  0  0  0
    1.7014   -3.7202    1.4459 C   0  0  0  0  0  0  0  0  0  0  0  0
    1.4386   -2.5799    2.1828 C   0  0  0  0  0  0  0  0  0  0  0  0
    2.2459   -2.1307    3.1899 C   0  0  0  0  0  0  0  0  0  0  0  0
    3.1274   -2.9675    3.8042 C   0  0  0  0  0  0  0  0  0  0  0  0
    3.1242   -4.2979    3.3507 C   0  0  0  0  0  0  0  0  0  0  0  0
    2.5103   -4.6468    2.1091 C   0  0  0  0  0  0  0  0  0  0  0  0
    3.9388   -2.4773    4.9457 C   0  0  0  0  0  0  0  0  0  0  0  0
    4.4470   -3.3077    5.7057 O   0  0  0  0  0  0  0  0  0  0  0  0
    4.1449   -1.1365    5.2042 N   0  0  0  0  0  0  0  0  0  0  0  0
    3.7556    0.1238    4.5504 C   0  0  0  0  0  0  0  0  0  0  0  0
    2.6338    0.8349    5.3022 C   0  0  0  0  0  0  0  0  0  0  0  0
    3.2369    1.5352    6.4903 C   0  0  0  0  0  0  0  0  0  0  0  0
    3.2937    2.7248    6.6631 O   0  0  0  0  0  0  0  0  0  0  0  0
    3.7869    0.6624    7.3677 O   0  0  0  0  0  0  0  0  0  0  0  0
    2.5498    1.8575   -0.8354 H   0  0  0  0  0  0  0  0  0  0  0  0
    2.3582    1.9741    0.9460 H   0  0  0  0  0  0  0  0  0  0  0  0
    3.2640    0.7075    0.2325 H   0  0  0  0  0  0  0  0  0  0  0  0
    1.8780   -1.2897    0.2029 H   0  0  0  0  0  0  0  0  0  0  0  0
   -2.2895   -1.5963   -0.0499 H   0  0  0  0  0  0  0  0  0  0  0  0
    0.9034    2.7217   -1.9370 H   0  0  0  0  0  0  0  0  0  0  0  0
    0.9616    5.1060   -1.9727 H   0  0  0  0  0  0  0  0  0  0  0  0
   -1.2964    5.1728    1.7494 H   0  0  0  0  0  0  0  0  0  0  0  0
   -1.0233    2.7597    1.9186 H   0  0  0  0  0  0  0  0  0  0  0  0
   -2.1563    7.0464    0.7459 H   0  0  0  0  0  0  0  0  0  0  0  0
   -1.5790    8.4889   -0.0879 H   0  0  0  0  0  0  0  0  0  0  0  0
   -2.0791    7.0596   -1.0166 H   0  0  0  0  0  0  0  0  0  0  0  0
    1.5928    6.9318    1.2934 H   0  0  0  0  0  0  0  0  0  0  0  0
    0.6119    8.4118    1.2958 H   0  0  0  0  0  0  0  0  0  0  0  0
    0.0411    6.9681    2.1296 H   0  0  0  0  0  0  0  0  0  0  0  0
    1.6993    7.1034   -1.2563 H   0  0  0  0  0  0  0  0  0  0  0  0
    0.2046    7.1652   -2.2107 H   0  0  0  0  0  0  0  0  0  0  0  0
    0.6835    8.5482   -1.2219 H   0  0  0  0  0  0  0  0  0  0  0  0
   -2.7968    1.6952    0.8782 H   0  0  0  0  0  0  0  0  0  0  0  0
   -2.7810    1.6961   -0.9193 H   0  0  0  0  0  0  0  0  0  0  0  0
   -3.5203    0.3604   -0.0089 H   0  0  0  0  0  0  0  0  0  0  0  0
    0.7964   -4.8474   -0.0553 H   0  0  0  0  0  0  0  0  0  0  0  0
    2.8945   -4.4020   -1.2000 H   0  0  0  0  0  0  0  0  0  0  0  0
    1.4803   -3.8871   -2.1229 H   0  0  0  0  0  0  0  0  0  0  0  0
    3.2530   -2.2934   -2.5384 H   0  0  0  0  0  0  0  0  0  0  0  0
    1.9897   -1.5825   -1.7717 H   0  0  0  0  0  0  0  0  0  0  0  0
    0.7196   -1.8326    1.9184 H   0  0  0  0  0  0  0  0  0  0  0  0
    2.0930   -1.0906    3.3853 H   0  0  0  0  0  0  0  0  0  0  0  0
    3.6104   -5.0631    3.9525 H   0  0  0  0  0  0  0  0  0  0  0  0
    2.6766   -5.6418    1.7028 H   0  0  0  0  0  0  0  0  0  0  0  0
    4.6163   -1.0088    6.0959 H   0  0  0  0  0  0  0  0  0  0  0  0
    4.6475    0.7542    4.4877 H   0  0  0  0  0  0  0  0  0  0  0  0
    3.4974   -0.0156    3.5057 H   0  0  0  0  0  0  0  0  0  0  0  0
    2.1797    1.6010    4.6615 H   0  0  0  0  0  0  0  0  0  0  0  0
    1.8232    0.1728    5.6305 H   0  0  0  0  0  0  0  0  0  0  0  0
    4.2078    1.2136    8.0585 H   0  0  0  0  0  0  0  0  0  0  0  0
  1  2  1  0  0  0  0
  1 41  1  0  0  0  0
  1 42  1  0  0  0  0
  1 43  1  0  0  0  0
  2  3  2  0  0  0  0
  2  7  1  0  0  0  0
  3  4  1  0  0  0  0
  3 44  1  0  0  0  0
  4  5  2  0  0  0  0
  4 19  1  0  0  0  0
  5  6  1  0  0  0  0
  5 45  1  0  0  0  0
  6  7  2  0  0  0  0
  6 18  1  0  0  0  0
  7  8  1  0  0  0  0
  8  9  2  0  0  0  0
  8 13  1  0  0  0  0
  9 10  1  0  0  0  0
  9 46  1  0  0  0  0
 10 11  2  0  0  0  0
 10 47  1  0  0  0  0
 11 12  1  0  0  0  0
 11 14  1  0  0  0  0
 12 13  2  0  0  0  0
 12 48  1  0  0  0  0
 13 49  1  0  0  0  0
 14 15  1  0  0  0  0
 14 16  1  0  0  0  0
 14 17  1  0  0  0  0
 15 50  1  0  0  0  0
 15 51  1  0  0  0  0
 15 52  1  0  0  0  0
 16 53  1  0  0  0  0
 16 54  1  0  0  0  0
 16 55  1  0  0  0  0
 17 56  1  0  0  0  0
 17 57  1  0  0  0  0
 17 58  1  0  0  0  0
 18 59  1  0  0  0  0
 18 60  1  0  0  0  0
 18 61  1  0  0  0  0
 20 19  1  0  0  0  0
 20 21  1  0  0  0  0
 20 27  1  0  0  0  0
 20 62  1  6  0  0  0
 21 22  1  0  0  0  0
 21 63  1  0  0  0  0
 21 64  1  0  0  0  0
 22 23  1  0  0  0  0
 22 65  1  0  0  0  0
 22 66  1  0  0  0  0
 23 24  1  0  0  0  0
 23 25  1  0  0  0  0
 23 26  1  0  0  0  0
 27 28  2  0  0  0  0
 27 32  1  0  0  0  0
 28 29  1  0  0  0  0
 28 67  1  0  0  0  0
 29 30  2  0  0  0  0
 29 68  1  0  0  0  0
 30 31  1  0  0  0  0
 30 33  1  0  0  0  0
 31 32  2  0  0  0  0
 31 69  1  0  0  0  0
 32 70  1  0  0  0  0
 33 34  2  0  0  0  0
 33 35  1  0  0  0  0
 35 36  1  0  0  0  0
 35 71  1  0  0  0  0
 36 37  1  0  0  0  0
 36 72  1  0  0  0  0
 36 73  1  0  0  0  0
 37 38  1  0  0  0  0
 37 74  1  0  0  0  0
 37 75  1  0  0  0  0
 38 39  2  0  0  0  0
 38 40  1  0  0  0  0
 40 76  1  0  0  0  0
M  END
>  <DRUGBANK_ID>
DB11704

>  <COMMON_NAME>
Adomeglivant

>  <CAS_NUMBER>
1488363-78-5

>  <UNII>
74Z5ZL2KVG

>  <SYNONYMS>
Adomeglivant

$$$$
