
 OpenBabel10282417203D

 57 59  0  0  0  0  0  0  0  0999 V2000
    1.0596    0.0903   -0.0918 C   0  0  0  0  0  0  0  0  0  0  0  0
    0.3581   -0.5880    0.8259 C   0  0  0  0  0  0  0  0  0  0  0  0
   -1.1494   -0.7790    0.8490 C   0  0  0  0  0  0  0  0  0  0  0  0
   -1.6800   -2.1934    0.5974 C   0  0  0  0  0  0  0  0  0  0  0  0
   -2.9248   -2.4005   -0.0096 C   0  0  0  0  0  0  0  0  0  0  0  0
   -3.4115   -3.6993   -0.2638 C   0  0  0  0  0  0  0  0  0  0  0  0
   -2.6631   -4.8301    0.0575 C   0  0  0  0  0  0  0  0  0  0  0  0
   -1.4613   -4.6570    0.7112 C   0  0  0  0  0  0  0  0  0  0  0  0
   -1.0146   -3.3460    1.0214 C   0  0  0  0  0  0  0  0  0  0  0  0
    0.0781   -3.1250    1.8047 O   0  0  0  0  0  0  0  0  0  0  0  0
   -0.7150   -5.8412    1.1801 C   0  0  0  0  0  0  0  0  0  0  0  0
   -0.8732   -7.0851    0.8664 N   0  0  0  0  0  0  0  0  0  0  0  0
   -0.0182   -8.0552    1.4023 N   0  0  0  0  0  0  0  0  0  0  0  0
    1.2255   -8.0191    2.0016 C   0  0  0  0  0  0  0  0  0  0  0  0
    1.8315   -9.0955    2.2183 O   0  0  0  0  0  0  0  0  0  0  0  0
    1.9368   -6.7291    2.3304 C   0  0  0  0  0  0  0  0  0  0  0  0
    2.0847   -5.9664    1.1037 N   0  0  0  0  0  0  0  0  0  0  0  0
    2.7838   -6.6866    0.0203 C   0  0  0  0  0  0  0  0  0  0  0  0
    4.3001   -6.6640    0.2359 C   0  0  0  0  0  0  0  0  0  0  0  0
    4.8543   -5.2994    0.3624 N   0  0  0  0  0  0  0  0  0  0  0  0
    4.1983   -4.6061    1.4685 C   0  0  0  0  0  0  0  0  0  0  0  0
    2.6899   -4.6813    1.3831 C   0  0  0  0  0  0  0  0  0  0  0  0
    4.8962   -4.5027   -0.8967 C   0  0  0  0  0  0  0  0  0  0  0  0
    3.6194   -4.0932   -1.6386 C   0  0  0  0  0  0  0  0  0  0  0  0
    2.7591   -3.0968   -1.1585 C   0  0  0  0  0  0  0  0  0  0  0  0
    1.4118   -3.0931   -1.5491 C   0  0  0  0  0  0  0  0  0  0  0  0
    0.9850   -3.8315   -2.6360 C   0  0  0  0  0  0  0  0  0  0  0  0
    1.9207   -4.5845   -3.3280 C   0  0  0  0  0  0  0  0  0  0  0  0
    3.2026   -4.7789   -2.7900 C   0  0  0  0  0  0  0  0  0  0  0  0
    0.5804    0.6017   -0.9171 H   0  0  0  0  0  0  0  0  0  0  0  0
    2.1467    0.1051   -0.0490 H   0  0  0  0  0  0  0  0  0  0  0  0
    0.9305   -1.0502    1.6288 H   0  0  0  0  0  0  0  0  0  0  0  0
   -1.5194   -0.4413    1.8240 H   0  0  0  0  0  0  0  0  0  0  0  0
   -1.5787   -0.1123    0.0907 H   0  0  0  0  0  0  0  0  0  0  0  0
   -3.5459   -1.5491   -0.2776 H   0  0  0  0  0  0  0  0  0  0  0  0
   -4.3931   -3.8343   -0.7087 H   0  0  0  0  0  0  0  0  0  0  0  0
   -3.0335   -5.8319   -0.1383 H   0  0  0  0  0  0  0  0  0  0  0  0
    0.6210   -3.9115    1.7386 H   0  0  0  0  0  0  0  0  0  0  0  0
    0.0259   -5.5606    1.9005 H   0  0  0  0  0  0  0  0  0  0  0  0
   -0.2783   -8.9992    1.1353 H   0  0  0  0  0  0  0  0  0  0  0  0
    1.3467   -6.1847    3.0774 H   0  0  0  0  0  0  0  0  0  0  0  0
    2.9057   -6.9025    2.8055 H   0  0  0  0  0  0  0  0  0  0  0  0
    2.4197   -7.7106   -0.1260 H   0  0  0  0  0  0  0  0  0  0  0  0
    2.5226   -6.2335   -0.9330 H   0  0  0  0  0  0  0  0  0  0  0  0
    4.4927   -7.2120    1.1724 H   0  0  0  0  0  0  0  0  0  0  0  0
    4.8236   -7.2341   -0.5357 H   0  0  0  0  0  0  0  0  0  0  0  0
    4.4763   -5.0599    2.4305 H   0  0  0  0  0  0  0  0  0  0  0  0
    4.5166   -3.5598    1.5376 H   0  0  0  0  0  0  0  0  0  0  0  0
    2.2887   -4.1362    0.5674 H   0  0  0  0  0  0  0  0  0  0  0  0
    2.2959   -4.1390    2.2424 H   0  0  0  0  0  0  0  0  0  0  0  0
    5.4530   -3.5845   -0.6786 H   0  0  0  0  0  0  0  0  0  0  0  0
    5.5273   -5.0703   -1.5881 H   0  0  0  0  0  0  0  0  0  0  0  0
    3.0312   -2.5004   -0.2866 H   0  0  0  0  0  0  0  0  0  0  0  0
    0.6745   -2.5761   -0.9470 H   0  0  0  0  0  0  0  0  0  0  0  0
   -0.0633   -3.8194   -2.9237 H   0  0  0  0  0  0  0  0  0  0  0  0
    1.6292   -5.0797   -4.2476 H   0  0  0  0  0  0  0  0  0  0  0  0
    3.8391   -5.5411   -3.2298 H   0  0  0  0  0  0  0  0  0  0  0  0
  1  2  2  0  0  0  0
  1 30  1  0  0  0  0
  1 31  1  0  0  0  0
  2  3  1  0  0  0  0
  2 32  1  0  0  0  0
  3  4  1  0  0  0  0
  3 33  1  0  0  0  0
  3 34  1  0  0  0  0
  4  5  2  0  0  0  0
  4  9  1  0  0  0  0
  5  6  1  0  0  0  0
  5 35  1  0  0  0  0
  6  7  2  0  0  0  0
  6 36  1  0  0  0  0
  7  8  1  0  0  0  0
  7 37  1  0  0  0  0
  8  9  2  0  0  0  0
  8 11  1  0  0  0  0
  9 10  1  0  0  0  0
 10 38  1  0  0  0  0
 11 12  2  0  0  0  0
 11 39  1  0  0  0  0
 12 13  1  0  0  0  0
 13 14  1  0  0  0  0
 13 40  1  0  0  0  0
 14 15  2  0  0  0  0
 14 16  1  0  0  0  0
 16 17  1  0  0  0  0
 16 41  1  0  0  0  0
 16 42  1  0  0  0  0
 17 18  1  0  0  0  0
 17 22  1  0  0  0  0
 18 19  1  0  0  0  0
 18 43  1  0  0  0  0
 18 44  1  0  0  0  0
 19 20  1  0  0  0  0
 19 45  1  0  0  0  0
 19 46  1  0  0  0  0
 20 21  1  0  0  0  0
 20 23  1  0  0  0  0
 21 22  1  0  0  0  0
 21 47  1  0  0  0  0
 21 48  1  0  0  0  0
 22 49  1  0  0  0  0
 22 50  1  0  0  0  0
 23 24  1  0  0  0  0
 23 51  1  0  0  0  0
 23 52  1  0  0  0  0
 24 25  2  0  0  0  0
 24 29  1  0  0  0  0
 25 26  1  0  0  0  0
 25 53  1  0  0  0  0
 26 27  2  0  0  0  0
 26 54  1  0  0  0  0
 27 28  1  0  0  0  0
 27 55  1  0  0  0  0
 28 29  2  0  0  0  0
 28 56  1  0  0  0  0
 29 57  1  0  0  0  0
M  END
>  <DRUGBANK_ID>
DB13048

>  <COMMON_NAME>
PAC-1

>  <CAS_NUMBER>
315183-21-2

>  <UNII>
9LIS8N0B2C

>  <SYNONYMS>
Procaspase activating compound 1; Procaspase-activating compound 1

$$$$
