
 OpenBabel10282417183D

 20 20  0  0  0  0  0  0  0  0999 V2000
    1.4172   -0.1738    0.0607 C   0  0  0  0  0  0  0  0  0  0  0  0
    0.5761   -1.2661    0.2214 C   0  0  0  0  0  0  0  0  0  0  0  0
    0.8806    1.1138    0.0215 C   0  0  0  0  0  0  0  0  0  0  0  0
   -0.8006   -1.0781    0.3327 C   0  0  0  0  0  0  0  0  0  0  0  0
   -0.5050    1.2916    0.0589 C   0  0  0  0  0  0  0  0  0  0  0  0
   -3.3931   -1.4246   -1.6571 C   0  0  0  0  0  0  0  0  0  0  0  0
   -3.5548   -0.6773   -0.3162 C   0  0  0  0  0  0  0  0  0  0  0  0
   -1.3528    0.1881    0.1331 C   0  0  0  0  0  0  0  0  0  0  0  0
   -2.1477   -2.0830   -1.8532 O   0  0  0  0  0  0  0  0  0  0  0  0
   -2.6750    0.4379   -0.1125 O   0  0  0  0  0  0  0  0  0  0  0  0
    2.4893   -0.3248   -0.0305 H   0  0  0  0  0  0  0  0  0  0  0  0
    0.9751   -2.2785    0.2186 H   0  0  0  0  0  0  0  0  0  0  0  0
    1.5378    1.9713   -0.0801 H   0  0  0  0  0  0  0  0  0  0  0  0
   -1.4214   -1.9581    0.4575 H   0  0  0  0  0  0  0  0  0  0  0  0
   -0.9203    2.2953   -0.0100 H   0  0  0  0  0  0  0  0  0  0  0  0
   -4.1546   -2.2083   -1.7107 H   0  0  0  0  0  0  0  0  0  0  0  0
   -3.5313   -0.7455   -2.5013 H   0  0  0  0  0  0  0  0  0  0  0  0
   -3.5268   -1.3461    0.5506 H   0  0  0  0  0  0  0  0  0  0  0  0
   -4.5644   -0.2469   -0.3299 H   0  0  0  0  0  0  0  0  0  0  0  0
   -1.4725   -1.3842   -1.9476 H   0  0  0  0  0  0  0  0  0  0  0  0
  1 11  1  0  0  0  0
  2  1  2  0  0  0  0
  2 12  1  0  0  0  0
  3  1  1  0  0  0  0
  3 13  1  0  0  0  0
  4  2  1  0  0  0  0
  4 14  1  0  0  0  0
  5  3  2  0  0  0  0
  5 15  1  0  0  0  0
  6 16  1  0  0  0  0
  6 17  1  0  0  0  0
  7  6  1  0  0  0  0
  7 18  1  0  0  0  0
  7 19  1  0  0  0  0
  8  4  2  0  0  0  0
  8  5  1  0  0  0  0
  9  6  1  0  0  0  0
  9 20  1  0  0  0  0
 10  7  1  0  0  0  0
 10  8  1  0  0  0  0
M  END
>  <DRUGBANK_ID>
DB11304

>  <COMMON_NAME>
Phenoxyethanol

>  <CAS_NUMBER>
122-99-6

>  <UNII>
HIE492ZZ3T

>  <SYNONYMS>
1-Hydroxy-2-phenoxyethane; 2-Hydroxyethyl phenyl ether; 2-phenoxyethanol; 2-Phenoxyethyl alcohol; beta-Hydroxyethyl phenyl ether; Ethylene glycol monophenyl ether; Phenoxytol; Phenyl cellosolve; Phenylmonoglycol ether

$$$$
