
 OpenBabel10282417203D

 56 57  0  0  0  0  0  0  0  0999 V2000
    0.9035    0.0808    0.0442 C   0  0  0  0  0  0  0  0  0  0  0  0
    0.4975   -0.0228   -1.4164 C   0  0  0  0  0  0  0  0  0  0  0  0
    0.9930   -1.2283   -2.0141 O   0  0  0  0  0  0  0  0  0  0  0  0
    2.3527   -1.3237   -2.1111 C   0  0  0  0  0  0  0  0  0  0  0  0
    3.1481   -0.4523   -1.8085 O   0  0  0  0  0  0  0  0  0  0  0  0
    2.7768   -2.6324   -2.7476 C   0  0  0  0  0  0  0  0  0  0  0  0
    2.1332   -3.7957   -2.0909 N   0  0  0  0  0  0  0  0  0  0  0  0
    3.1236   -4.7779   -1.6212 C   0  0  0  0  0  0  0  0  0  0  0  0
    3.8853   -5.4197   -2.7841 C   0  0  0  0  0  0  0  0  0  0  0  0
    2.9762   -6.1267   -3.6845 N   0  0  0  0  0  0  0  0  0  0  0  0
    1.9738   -5.1968   -4.2183 C   0  0  0  0  0  0  0  0  0  0  0  0
    1.2318   -4.4757   -3.0583 C   0  0  0  0  0  0  0  0  0  0  0  0
    2.8987   -7.4604   -4.0374 C   0  0  0  0  0  0  0  0  0  0  0  0
    2.0628   -7.8641   -4.8533 O   0  0  0  0  0  0  0  0  0  0  0  0
    3.7981   -8.5147   -3.4718 C   0  0  0  0  0  0  0  0  0  0  0  0
    4.7547   -8.3958   -2.5483 C   0  0  0  0  0  0  0  0  0  0  0  0
    5.6874   -9.3624   -2.0112 C   0  0  0  0  0  0  0  0  0  0  0  0
    6.3502  -10.1975   -2.8854 C   0  0  0  0  0  0  0  0  0  0  0  0
    7.4080  -10.9685   -2.4311 C   0  0  0  0  0  0  0  0  0  0  0  0
    7.8171  -10.8826   -1.0826 C   0  0  0  0  0  0  0  0  0  0  0  0
    7.2250   -9.9297   -0.2286 C   0  0  0  0  0  0  0  0  0  0  0  0
    6.1227   -9.2133   -0.6871 C   0  0  0  0  0  0  0  0  0  0  0  0
    7.6301   -9.5735    1.0388 O   0  0  0  0  0  0  0  0  0  0  0  0
    8.8563  -10.1356    1.5022 C   0  0  0  0  0  0  0  0  0  0  0  0
    8.7604  -11.6875   -0.5072 O   0  0  0  0  0  0  0  0  0  0  0  0
    9.3460  -12.7335   -1.2511 C   0  0  0  0  0  0  0  0  0  0  0  0
    8.1056  -11.7863   -3.2727 O   0  0  0  0  0  0  0  0  0  0  0  0
    7.7209  -11.8304   -4.6342 C   0  0  0  0  0  0  0  0  0  0  0  0
    0.5533   -0.7944    0.5997 H   0  0  0  0  0  0  0  0  0  0  0  0
    0.4983    0.9877    0.4980 H   0  0  0  0  0  0  0  0  0  0  0  0
    1.9898    0.1090    0.1635 H   0  0  0  0  0  0  0  0  0  0  0  0
   -0.5965   -0.0603   -1.4801 H   0  0  0  0  0  0  0  0  0  0  0  0
    0.8242    0.8455   -1.9993 H   0  0  0  0  0  0  0  0  0  0  0  0
    2.5247   -2.5504   -3.8102 H   0  0  0  0  0  0  0  0  0  0  0  0
    3.8716   -2.6735   -2.6893 H   0  0  0  0  0  0  0  0  0  0  0  0
    3.8372   -4.3320   -0.9173 H   0  0  0  0  0  0  0  0  0  0  0  0
    2.6073   -5.5671   -1.0529 H   0  0  0  0  0  0  0  0  0  0  0  0
    4.4335   -4.6940   -3.3913 H   0  0  0  0  0  0  0  0  0  0  0  0
    4.6692   -5.9679   -2.3284 H   0  0  0  0  0  0  0  0  0  0  0  0
    2.5330   -4.4719   -4.8237 H   0  0  0  0  0  0  0  0  0  0  0  0
    1.2539   -5.6730   -4.8879 H   0  0  0  0  0  0  0  0  0  0  0  0
    0.6390   -5.2127   -2.5017 H   0  0  0  0  0  0  0  0  0  0  0  0
    0.5242   -3.7417   -3.4565 H   0  0  0  0  0  0  0  0  0  0  0  0
    3.5920   -9.4983   -3.8951 H   0  0  0  0  0  0  0  0  0  0  0  0
    5.0516   -7.4887   -2.0961 H   0  0  0  0  0  0  0  0  0  0  0  0
    6.0515  -10.1884   -3.9269 H   0  0  0  0  0  0  0  0  0  0  0  0
    5.6304   -8.5003   -0.0242 H   0  0  0  0  0  0  0  0  0  0  0  0
    8.7192  -11.2024    1.7052 H   0  0  0  0  0  0  0  0  0  0  0  0
    9.6820   -9.9466    0.8033 H   0  0  0  0  0  0  0  0  0  0  0  0
    9.1337   -9.6734    2.4524 H   0  0  0  0  0  0  0  0  0  0  0  0
    8.5871  -13.4298   -1.6224 H   0  0  0  0  0  0  0  0  0  0  0  0
    9.9762  -12.3205   -2.0432 H   0  0  0  0  0  0  0  0  0  0  0  0
   10.0001  -13.2888   -0.5773 H   0  0  0  0  0  0  0  0  0  0  0  0
    6.6899  -12.1836   -4.7340 H   0  0  0  0  0  0  0  0  0  0  0  0
    7.8629  -10.8540   -5.1088 H   0  0  0  0  0  0  0  0  0  0  0  0
    8.3764  -12.5485   -5.1291 H   0  0  0  0  0  0  0  0  0  0  0  0
  1  2  1  0  0  0  0
  1 29  1  0  0  0  0
  1 30  1  0  0  0  0
  1 31  1  0  0  0  0
  2  3  1  0  0  0  0
  2 32  1  0  0  0  0
  2 33  1  0  0  0  0
  3  4  1  0  0  0  0
  4  5  2  0  0  0  0
  4  6  1  0  0  0  0
  6  7  1  0  0  0  0
  6 34  1  0  0  0  0
  6 35  1  0  0  0  0
  7  8  1  0  0  0  0
  7 12  1  0  0  0  0
  8  9  1  0  0  0  0
  8 36  1  0  0  0  0
  8 37  1  0  0  0  0
  9 10  1  0  0  0  0
  9 38  1  0  0  0  0
  9 39  1  0  0  0  0
 10 11  1  0  0  0  0
 10 13  1  0  0  0  0
 11 12  1  0  0  0  0
 11 40  1  0  0  0  0
 11 41  1  0  0  0  0
 12 42  1  0  0  0  0
 12 43  1  0  0  0  0
 13 14  2  0  0  0  0
 13 15  1  0  0  0  0
 15 16  2  0  0  0  0
 15 44  1  0  0  0  0
 16 17  1  0  0  0  0
 16 45  1  0  0  0  0
 17 18  2  0  0  0  0
 17 22  1  0  0  0  0
 18 19  1  0  0  0  0
 18 46  1  0  0  0  0
 19 20  2  0  0  0  0
 19 27  1  0  0  0  0
 20 21  1  0  0  0  0
 20 25  1  0  0  0  0
 21 22  2  0  0  0  0
 21 23  1  0  0  0  0
 22 47  1  0  0  0  0
 23 24  1  0  0  0  0
 24 48  1  0  0  0  0
 24 49  1  0  0  0  0
 24 50  1  0  0  0  0
 25 26  1  0  0  0  0
 26 51  1  0  0  0  0
 26 52  1  0  0  0  0
 26 53  1  0  0  0  0
 27 28  1  0  0  0  0
 28 54  1  0  0  0  0
 28 55  1  0  0  0  0
 28 56  1  0  0  0  0
M  END
>  <DRUGBANK_ID>
DB13342

>  <COMMON_NAME>
Cinepazet

>  <CAS_NUMBER>
23887-41-4

>  <UNII>
0LC95WWE9Q

>  <SYNONYMS>
Cinepazet

$$$$
