
 OpenBabel10282417133D

 85 93  0  0  0  0  0  0  0  0999 V2000
    1.0259   -0.0353    0.0899 C   0  0  0  0  0  0  0  0  0  0  0  0
    0.5192   -1.4490   -0.1444 C   0  0  0  0  0  0  0  0  0  0  0  0
    0.4753   -2.3019   -1.2583 C   0  0  0  0  0  0  0  0  0  0  0  0
    0.6562   -2.1666   -2.6370 C   0  0  0  0  0  0  0  0  0  0  0  0
    0.5720   -3.2260   -3.5325 C   0  0  0  0  0  0  0  0  0  0  0  0
    0.6468   -3.3932   -4.9290 C   0  0  0  0  0  0  0  0  0  0  0  0
    0.2118   -2.3978   -5.9922 C   0  0  0  0  0  0  0  0  0  0  0  0
   -0.3144   -1.1979   -5.6260 C   0  0  0  0  0  0  0  0  0  0  0  0
    1.1956   -4.6452   -5.1381 C   0  0  0  0  0  0  0  0  0  0  0  0
    1.5296   -5.2898   -6.4736 C   0  0  0  0  0  0  0  0  0  0  0  0
    1.3784   -5.1915   -3.8731 C   0  0  0  0  0  0  0  0  0  0  0  0
    0.5017   -4.5153   -3.0444 N   0  3  0  0  0  0  0  0  0  0  0  0
   -0.0033   -4.8087   -1.5900 Fe  0  0  3  0  0  0  0  0  0  0  0  0
    0.9594   -5.9988   -1.2335 N   0  0  0  0  0  0  0  0  0  0  0  0
    0.6622   -7.1269   -0.4976 C   0  0  0  0  0  0  0  0  0  0  0  0
   -0.6461   -7.6073   -0.3900 C   0  0  0  0  0  0  0  0  0  0  0  0
   -1.6577   -6.7444   -0.8532 C   0  0  0  0  0  0  0  0  0  0  0  0
   -1.3801   -5.4313   -1.1818 N   0  3  0  0  0  0  0  0  0  0  0  0
   -2.4559   -4.7670   -0.6067 C   0  0  0  0  0  0  0  0  0  0  0  0
   -3.5689   -5.5968   -0.8527 C   0  0  0  0  0  0  0  0  0  0  0  0
   -5.0197   -5.1795   -1.0302 C   0  0  0  0  0  0  0  0  0  0  0  0
   -5.5060   -5.6096   -2.4047 C   0  0  0  0  0  0  0  0  0  0  0  0
   -5.3940   -7.1201   -2.5320 C   0  0  0  0  0  0  0  0  0  0  0  0
   -6.5546   -7.8997   -2.7803 O   0  0  0  0  0  0  0  0  0  0  0  0
   -4.2616   -7.6853   -2.4162 O   0  0  0  0  0  0  0  0  0  0  0  0
   -3.0363   -6.8946   -0.8967 C   0  0  0  0  0  0  0  0  0  0  0  0
   -3.8121   -8.1993   -0.9759 C   0  0  0  0  0  0  0  0  0  0  0  0
   -2.3035   -3.6024    0.1495 C   0  0  0  0  0  0  0  0  0  0  0  0
   -3.4547   -3.0058    0.9428 C   0  0  0  0  0  0  0  0  0  0  0  0
   -3.8808   -1.7747    0.6859 C   0  0  0  0  0  0  0  0  0  0  0  0
   -5.0392   -1.3026    1.2544 C   0  0  0  0  0  0  0  0  0  0  0  0
   -5.7308   -2.0510    2.1660 C   0  0  0  0  0  0  0  0  0  0  0  0
   -5.3193   -3.2939    2.3388 C   0  0  0  0  0  0  0  0  0  0  0  0
   -4.0697   -3.7936    1.9018 C   0  0  0  0  0  0  0  0  0  0  0  0
   -1.0282   -3.0124    0.1371 C   0  0  0  0  0  0  0  0  0  0  0  0
   -0.1098   -3.4521   -0.7988 N   0  0  0  0  0  0  0  0  0  0  0  0
   -0.4418   -1.9141    0.7383 C   0  0  0  0  0  0  0  0  0  0  0  0
   -0.7842   -1.3316    2.0998 C   0  0  0  0  0  0  0  0  0  0  0  0
   -2.2423   -0.9025    2.1152 C   0  0  0  0  0  0  0  0  0  0  0  0
   -3.1279   -2.1074    1.8424 C   0  0  0  0  0  0  0  0  0  0  0  0
   -4.0887   -2.5150    2.8053 O   0  0  0  0  0  0  0  0  0  0  0  0
   -3.0084   -2.7501    0.7525 O   0  0  0  0  0  0  0  0  0  0  0  0
    1.8933   -7.7122   -0.1439 C   0  0  0  0  0  0  0  0  0  0  0  0
    2.1876   -8.6051    1.0505 C   0  0  0  0  0  0  0  0  0  0  0  0
    2.7866   -7.2892   -1.1370 C   0  0  0  0  0  0  0  0  0  0  0  0
    4.2334   -7.7235   -1.3057 C   0  0  0  0  0  0  0  0  0  0  0  0
    4.9797   -7.2216   -2.3263 C   0  0  0  0  0  0  0  0  0  0  0  0
    2.0865   -6.3929   -1.9379 C   0  0  0  0  0  0  0  0  0  0  0  0
    2.2853   -6.0917   -3.3028 C   0  0  0  0  0  0  0  0  0  0  0  0
    0.6692    0.3195    1.0343 H   0  0  0  0  0  0  0  0  0  0  0  0
    0.6692    0.6052   -0.6895 H   0  0  0  0  0  0  0  0  0  0  0  0
    2.0959   -0.0353    0.0899 H   0  0  0  0  0  0  0  0  0  0  0  0
    0.8715   -1.1930   -3.0251 H   0  0  0  0  0  0  0  0  0  0  0  0
    0.3195   -2.6408   -7.0286 H   0  0  0  0  0  0  0  0  0  0  0  0
   -0.6206   -0.4972   -6.3744 H   0  0  0  0  0  0  0  0  0  0  0  0
   -0.4220   -0.9548   -4.5895 H   0  0  0  0  0  0  0  0  0  0  0  0
    2.5768   -5.5061   -6.5132 H   0  0  0  0  0  0  0  0  0  0  0  0
    0.9736   -6.1977   -6.5803 H   0  0  0  0  0  0  0  0  0  0  0  0
    1.2736   -4.6193   -7.2672 H   0  0  0  0  0  0  0  0  0  0  0  0
   -0.8653   -8.5714    0.0191 H   0  0  0  0  0  0  0  0  0  0  0  0
   -5.6198   -5.6464   -0.2774 H   0  0  0  0  0  0  0  0  0  0  0  0
   -5.0986   -4.1162   -0.9406 H   0  0  0  0  0  0  0  0  0  0  0  0
   -6.5273   -5.3159   -2.5297 H   0  0  0  0  0  0  0  0  0  0  0  0
   -4.9059   -5.1427   -3.1575 H   0  0  0  0  0  0  0  0  0  0  0  0
   -7.4456   -7.4550   -2.8714 H   0  0  0  0  0  0  0  0  0  0  0  0
   -3.5373   -8.7241   -1.8670 H   0  0  0  0  0  0  0  0  0  0  0  0
   -3.5839   -8.8024   -0.1221 H   0  0  0  0  0  0  0  0  0  0  0  0
   -4.8612   -7.9899   -0.9945 H   0  0  0  0  0  0  0  0  0  0  0  0
   -3.3170   -1.1445    0.0302 H   0  0  0  0  0  0  0  0  0  0  0  0
   -5.4052   -0.3354    0.9798 H   0  0  0  0  0  0  0  0  0  0  0  0
   -6.5609   -1.6512    2.7100 H   0  0  0  0  0  0  0  0  0  0  0  0
   -5.9765   -3.9701    2.8445 H   0  0  0  0  0  0  0  0  0  0  0  0
   -3.6390   -4.6979    2.2780 H   0  0  0  0  0  0  0  0  0  0  0  0
   -0.6222   -2.0717    2.8554 H   0  0  0  0  0  0  0  0  0  0  0  0
   -0.1608   -0.4834    2.2919 H   0  0  0  0  0  0  0  0  0  0  0  0
   -2.4834   -0.4925    3.0737 H   0  0  0  0  0  0  0  0  0  0  0  0
   -2.4043   -0.1624    1.3596 H   0  0  0  0  0  0  0  0  0  0  0  0
   -4.1827   -2.0093    3.6629 H   0  0  0  0  0  0  0  0  0  0  0  0
    2.5406   -9.5551    0.7072 H   0  0  0  0  0  0  0  0  0  0  0  0
    2.9359   -8.1466    1.6627 H   0  0  0  0  0  0  0  0  0  0  0  0
    1.2937   -8.7421    1.6223 H   0  0  0  0  0  0  0  0  0  0  0  0
    4.6649   -8.4241   -0.6216 H   0  0  0  0  0  0  0  0  0  0  0  0
    5.9982   -7.5273   -2.4451 H   0  0  0  0  0  0  0  0  0  0  0  0
    4.5482   -6.5210   -3.0104 H   0  0  0  0  0  0  0  0  0  0  0  0
    3.0830   -6.5263   -3.8682 H   0  0  0  0  0  0  0  0  0  0  0  0
  1  2  1  0  0  0  0
  1 50  1  0  0  0  0
  1 51  1  0  0  0  0
  1 52  1  0  0  0  0
  2  3  2  0  0  0  0
  2 37  1  0  0  0  0
  3  4  1  0  0  0  0
  3 36  1  0  0  0  0
  4  5  2  0  0  0  0
  4 53  1  0  0  0  0
  5  6  1  0  0  0  0
  5 12  1  0  0  0  0
  6  7  1  0  0  0  0
  6  9  2  0  0  0  0
  7  8  2  0  0  0  0
  7 54  1  0  0  0  0
  8 55  1  0  0  0  0
  8 56  1  0  0  0  0
  9 10  1  0  0  0  0
  9 11  1  0  0  0  0
 10 57  1  0  0  0  0
 10 58  1  0  0  0  0
 10 59  1  0  0  0  0
 11 12  2  0  0  0  0
 11 49  1  0  0  0  0
 12 13  1  0  0  0  0
 13 14  1  0  0  0  0
 13 18  1  0  0  0  0
 13 36  1  0  0  0  0
 14 15  1  0  0  0  0
 14 48  1  0  0  0  0
 15 16  2  0  0  0  0
 15 43  1  0  0  0  0
 16 17  1  0  0  0  0
 16 60  1  0  0  0  0
 17 18  2  0  0  0  0
 17 26  1  0  0  0  0
 18 19  1  0  0  0  0
 19 20  1  0  0  0  0
 19 28  2  0  0  0  0
 20 21  1  0  0  0  0
 20 26  2  0  0  0  0
 21 22  1  0  0  0  0
 21 61  1  0  0  0  0
 21 62  1  0  0  0  0
 22 23  1  0  0  0  0
 22 63  1  0  0  0  0
 22 64  1  0  0  0  0
 23 24  1  0  0  0  0
 23 25  2  0  0  0  0
 24 65  1  0  0  0  0
 26 27  1  0  0  0  0
 27 66  1  0  0  0  0
 27 67  1  0  0  0  0
 27 68  1  0  0  0  0
 28 29  1  0  0  0  0
 28 35  1  0  0  0  0
 29 30  2  0  0  0  0
 29 34  1  0  0  0  0
 30 31  1  0  0  0  0
 30 69  1  0  0  0  0
 31 32  2  0  0  0  0
 31 70  1  0  0  0  0
 32 33  1  0  0  0  0
 32 71  1  0  0  0  0
 33 34  2  0  0  0  0
 33 72  1  0  0  0  0
 34 73  1  0  0  0  0
 35 36  1  0  0  0  0
 35 37  2  0  0  0  0
 37 38  1  0  0  0  0
 38 39  1  0  0  0  0
 38 74  1  0  0  0  0
 38 75  1  0  0  0  0
 39 40  1  0  0  0  0
 39 76  1  0  0  0  0
 39 77  1  0  0  0  0
 40 41  1  0  0  0  0
 40 42  2  0  0  0  0
 41 78  1  0  0  0  0
 43 44  1  0  0  0  0
 43 45  2  0  0  0  0
 44 79  1  0  0  0  0
 44 80  1  0  0  0  0
 44 81  1  0  0  0  0
 45 46  1  0  0  0  0
 45 48  1  0  0  0  0
 46 47  2  0  0  0  0
 46 82  1  0  0  0  0
 47 83  1  0  0  0  0
 47 84  1  0  0  0  0
 48 49  2  0  0  0  0
 49 85  1  0  0  0  0
M  CHG  2  12   1  18   1
M  END
>  <DRUGBANK_ID>
DB03906

>  <SECONDARY_ACCESSION_NUMBERS>
EXPT00117

>  <COMMON_NAME>
2-Phenylheme

$$$$
