
 OpenBabel10282417113D

 40 42  0  0  0  0  0  0  0  0999 V2000
   -0.9395   -0.0600    0.3720 S   0  0  0  0  0  0  0  0  0  0  0  0
   -1.8070    2.7382   -0.3477 N   0  0  0  0  0  0  0  0  0  0  0  0
   -0.3265    2.7518   -0.0473 C   0  0  0  0  0  0  0  0  0  0  0  0
    0.4432    3.6366   -1.0982 C   0  0  0  0  0  0  0  0  0  0  0  0
    0.1257    3.3223    1.3500 C   0  0  0  0  0  0  0  0  0  0  0  0
    0.2095    5.1608   -0.9733 C   0  0  0  0  0  0  0  0  0  0  0  0
   -0.0553    4.8156    1.5971 C   0  0  0  0  0  0  0  0  0  0  0  0
   -2.4944    4.0197   -0.2504 C   0  0  0  0  0  0  0  0  0  0  0  0
   -2.0947    2.1852   -1.7010 C   0  0  0  0  0  0  0  0  0  0  0  0
    0.4174    5.6963    0.4402 C   0  0  0  0  0  0  0  0  0  0  0  0
    0.1692    1.2424   -0.0012 C   0  0  0  0  0  0  0  0  0  0  0  0
   -3.9936    3.9929   -0.4287 C   0  0  0  0  0  0  0  0  0  0  0  0
   -3.5989    2.0583   -1.9397 C   0  0  0  0  0  0  0  0  0  0  0  0
   -4.2853    3.4111   -1.7989 C   0  0  0  0  0  0  0  0  0  0  0  0
    1.4599    0.7180   -0.0429 C   0  0  0  0  0  0  0  0  0  0  0  0
    1.4797   -0.7161   -0.0139 C   0  0  0  0  0  0  0  0  0  0  0  0
    0.2324   -1.2567    0.0683 C   0  0  0  0  0  0  0  0  0  0  0  0
    1.5229    3.4825   -0.9893 H   0  0  0  0  0  0  0  0  0  0  0  0
    0.2348    3.3224   -2.1263 H   0  0  0  0  0  0  0  0  0  0  0  0
   -0.3165    2.7481    2.1735 H   0  0  0  0  0  0  0  0  0  0  0  0
    1.2126    3.1540    1.4426 H   0  0  0  0  0  0  0  0  0  0  0  0
    0.8684    5.6833   -1.6755 H   0  0  0  0  0  0  0  0  0  0  0  0
   -0.7544    5.5117   -1.3342 H   0  0  0  0  0  0  0  0  0  0  0  0
    0.5058    5.1026    2.4955 H   0  0  0  0  0  0  0  0  0  0  0  0
   -1.0815    5.0375    1.8939 H   0  0  0  0  0  0  0  0  0  0  0  0
   -2.1937    4.6322   -1.0855 H   0  0  0  0  0  0  0  0  0  0  0  0
   -2.3187    4.5367    0.6761 H   0  0  0  0  0  0  0  0  0  0  0  0
   -1.6474    1.2026   -1.8747 H   0  0  0  0  0  0  0  0  0  0  0  0
   -1.6857    2.8310   -2.4853 H   0  0  0  0  0  0  0  0  0  0  0  0
    1.4925    5.8580    0.5568 H   0  0  0  0  0  0  0  0  0  0  0  0
   -0.0593    6.6814    0.5303 H   0  0  0  0  0  0  0  0  0  0  0  0
   -4.3462    5.0317   -0.3841 H   0  0  0  0  0  0  0  0  0  0  0  0
   -4.4722    3.4376    0.3820 H   0  0  0  0  0  0  0  0  0  0  0  0
   -4.0261    1.3441   -1.2269 H   0  0  0  0  0  0  0  0  0  0  0  0
   -3.7621    1.6681   -2.9487 H   0  0  0  0  0  0  0  0  0  0  0  0
   -5.3612    3.3383   -1.9582 H   0  0  0  0  0  0  0  0  0  0  0  0
   -3.8857    4.0906   -2.5665 H   0  0  0  0  0  0  0  0  0  0  0  0
    2.3477    1.3269   -0.0993 H   0  0  0  0  0  0  0  0  0  0  0  0
    2.3843   -1.3214   -0.0683 H   0  0  0  0  0  0  0  0  0  0  0  0
   -0.0563   -2.3066    0.0521 H   0  0  0  0  0  0  0  0  0  0  0  0
  1 11  1  0  0  0  0
  1 17  1  0  0  0  0
  2  3  1  0  0  0  0
  2  8  1  0  0  0  0
  2  9  1  0  0  0  0
  3  4  1  0  0  0  0
  3  5  1  0  0  0  0
  3 11  1  0  0  0  0
  4  6  1  0  0  0  0
  4 18  1  0  0  0  0
  4 19  1  0  0  0  0
  5  7  1  0  0  0  0
  5 20  1  0  0  0  0
  5 21  1  0  0  0  0
  6 10  1  0  0  0  0
  6 22  1  0  0  0  0
  6 23  1  0  0  0  0
  7 10  1  0  0  0  0
  7 24  1  0  0  0  0
  7 25  1  0  0  0  0
  8 12  1  0  0  0  0
  8 26  1  0  0  0  0
  8 27  1  0  0  0  0
  9 13  1  0  0  0  0
  9 28  1  0  0  0  0
  9 29  1  0  0  0  0
 10 30  1  0  0  0  0
 10 31  1  0  0  0  0
 11 15  2  0  0  0  0
 12 14  1  0  0  0  0
 12 32  1  0  0  0  0
 12 33  1  0  0  0  0
 13 14  1  0  0  0  0
 13 34  1  0  0  0  0
 13 35  1  0  0  0  0
 14 36  1  0  0  0  0
 14 37  1  0  0  0  0
 15 16  1  0  0  0  0
 15 38  1  0  0  0  0
 16 17  2  0  0  0  0
 16 39  1  0  0  0  0
 17 40  1  0  0  0  0
M  END
>  <DRUGBANK_ID>
DB01520

>  <COMMON_NAME>
Tenocyclidine

>  <CAS_NUMBER>
21500-98-1

>  <UNII>
8BQ45Q6VCL

>  <SYNONYMS>
1-[1-(thiophen-2-yl)cyclohexyl]piperidine; TCP; Tenociclidina; Tenocyclidine; Tenocyclidinum; Thienyl cyclohexylpiperidine

$$$$
