CMG
 OpenBabel10282417123D

 35 37  0  0  0  0  0  0  0  0999 V2000
   -1.5253    1.1205   -0.1872 N   0  0  0  0  0  0  0  0  0  0  0  0
   -1.7390   -0.1941   -0.0265 C   0  0  0  0  0  0  0  0  0  0  0  0
   -0.8178   -1.1661   -0.0269 N   0  0  0  0  0  0  0  0  0  0  0  0
    0.4033   -0.6972   -0.3404 C   0  0  0  0  0  0  0  0  0  0  0  0
    0.7474    0.5985   -0.6747 C   0  0  0  0  0  0  0  0  0  0  0  0
   -0.2630    1.5621   -0.4659 C   0  0  0  0  0  0  0  0  0  0  0  0
   -0.0844    2.9217   -0.2231 O   0  0  0  0  0  0  0  0  0  0  0  0
    1.2603    3.3831   -0.0158 C   0  0  0  0  0  0  0  0  0  0  0  0
    2.1237    0.6703   -0.8954 N   0  0  0  0  0  0  0  0  0  0  0  0
    2.5964   -0.4935   -0.4964 C   0  0  0  0  0  0  0  0  0  0  0  0
    1.5857   -1.3842   -0.2432 N   0  0  0  0  0  0  0  0  0  0  0  0
   -3.0457   -0.5845    0.1887 N   0  0  0  0  0  0  0  0  0  0  0  0
    1.9185    3.0232    1.3598 C   0  0  0  0  0  0  0  0  0  0  0  0
    1.5384    1.6414    1.8745 C   0  0  0  0  0  0  0  0  0  0  0  0
    2.0997    1.1696    3.1767 C   0  0  0  0  0  0  0  0  0  0  0  0
    1.6342    2.1340    4.2245 C   0  0  0  0  0  0  0  0  0  0  0  0
    2.0809    3.5471    3.8439 C   0  0  0  0  0  0  0  0  0  0  0  0
    1.5597    4.0152    2.4696 C   0  0  0  0  0  0  0  0  0  0  0  0
    1.8808    3.0824   -0.8671 H   0  0  0  0  0  0  0  0  0  0  0  0
    1.2204    4.4794   -0.0970 H   0  0  0  0  0  0  0  0  0  0  0  0
    3.6381   -0.7127   -0.2783 H   0  0  0  0  0  0  0  0  0  0  0  0
    1.6897   -2.3249    0.0975 H   0  0  0  0  0  0  0  0  0  0  0  0
   -3.7317    0.1202   -0.0281 H   0  0  0  0  0  0  0  0  0  0  0  0
   -3.2316   -1.5591    0.0247 H   0  0  0  0  0  0  0  0  0  0  0  0
    3.0074    3.0704    1.2064 H   0  0  0  0  0  0  0  0  0  0  0  0
    0.4487    1.5532    1.9324 H   0  0  0  0  0  0  0  0  0  0  0  0
    1.9653    0.9128    1.2332 H   0  0  0  0  0  0  0  0  0  0  0  0
    1.7214    0.1541    3.3566 H   0  0  0  0  0  0  0  0  0  0  0  0
    3.1915    1.1010    3.1082 H   0  0  0  0  0  0  0  0  0  0  0  0
    0.5390    2.0888    4.2856 H   0  0  0  0  0  0  0  0  0  0  0  0
    2.0362    1.8212    5.1901 H   0  0  0  0  0  0  0  0  0  0  0  0
    1.7408    4.2405    4.6148 H   0  0  0  0  0  0  0  0  0  0  0  0
    3.1780    3.5687    3.8274 H   0  0  0  0  0  0  0  0  0  0  0  0
    1.9809    5.0008    2.2375 H   0  0  0  0  0  0  0  0  0  0  0  0
    0.4704    4.1287    2.5088 H   0  0  0  0  0  0  0  0  0  0  0  0
  1  2  2  0  0  0  0
  1  6  1  0  0  0  0
  2  3  1  0  0  0  0
  2 12  1  0  0  0  0
  3  4  2  0  0  0  0
  4  5  1  0  0  0  0
  4 11  1  0  0  0  0
  5  6  2  0  0  0  0
  5  9  1  0  0  0  0
  6  7  1  0  0  0  0
  7  8  1  0  0  0  0
  8 13  1  0  0  0  0
  8 19  1  0  0  0  0
  8 20  1  0  0  0  0
  9 10  2  0  0  0  0
 10 11  1  0  0  0  0
 10 21  1  0  0  0  0
 11 22  1  0  0  0  0
 12 23  1  0  0  0  0
 12 24  1  0  0  0  0
 13 14  1  0  0  0  0
 13 18  1  0  0  0  0
 13 25  1  0  0  0  0
 14 15  1  0  0  0  0
 14 26  1  0  0  0  0
 14 27  1  0  0  0  0
 15 16  1  0  0  0  0
 15 28  1  0  0  0  0
 15 29  1  0  0  0  0
 16 17  1  0  0  0  0
 16 30  1  0  0  0  0
 16 31  1  0  0  0  0
 17 18  1  0  0  0  0
 17 32  1  0  0  0  0
 17 33  1  0  0  0  0
 18 34  1  0  0  0  0
 18 35  1  0  0  0  0
M  END
>  <DRUGBANK_ID>
DB02407

>  <SECONDARY_ACCESSION_NUMBERS>
EXPT00955

>  <COMMON_NAME>
6-O-Cyclohexylmethyl Guanine

>  <UNII>
884MN6AR44

$$$$
