
 OpenBabel10282417213D

 53 52  0  0  0  0  0  0  0  0999 V2000
    0.9200    0.1220   -0.0199 C   0  0  0  0  0  0  0  0  0  0  0  0
    0.4765   -0.6801   -1.2328 C   0  0  0  0  0  0  0  0  0  0  0  0
    0.9700   -2.1243   -1.1305 C   0  0  0  0  0  0  0  0  0  0  0  0
    0.4100   -2.8199    0.1144 C   0  0  0  0  0  0  0  0  0  0  0  0
   -1.1236   -2.8158    0.0971 C   0  0  0  0  0  0  0  0  0  0  0  0
   -1.6558   -3.5766   -1.1235 C   0  0  0  0  0  0  0  0  0  0  0  0
   -1.1803   -5.0266   -1.0940 C   0  0  0  0  0  0  0  0  0  0  0  0
   -1.5980   -5.6906    0.2075 C   0  0  0  0  0  0  0  0  0  0  0  0
   -3.0900   -5.7662    0.2457 C   0  0  0  0  0  0  0  0  0  0  0  0
   -3.7531   -6.9175    0.2102 C   0  0  0  0  0  0  0  0  0  0  0  0
   -3.0711   -8.2435    0.2979 C   0  0  0  0  0  0  0  0  0  0  0  0
   -3.4745   -8.9044    1.6061 C   0  0  0  0  0  0  0  0  0  0  0  0
   -4.9652   -9.2273    1.5934 C   0  0  0  0  0  0  0  0  0  0  0  0
   -5.3031  -10.0910    0.3742 C   0  0  0  0  0  0  0  0  0  0  0  0
   -4.5076  -11.4039    0.4124 C   0  0  0  0  0  0  0  0  0  0  0  0
   -4.9329  -12.2582    1.6035 C   0  0  0  0  0  0  0  0  0  0  0  0
   -6.4359  -12.5372    1.6151 C   0  0  0  0  0  0  0  0  0  0  0  0
   -6.9216  -13.4408    0.4928 C   0  0  0  0  0  0  0  0  0  0  0  0
   -7.3161  -14.5817    0.7497 O   0  0  0  0  0  0  0  0  0  0  0  0
   -6.9572  -12.7441   -1.1038 Cl  0  0  0  0  0  0  0  0  0  0  0  0
    0.5217   -0.2880    0.9141 H   0  0  0  0  0  0  0  0  0  0  0  0
    0.5675    1.1518   -0.0868 H   0  0  0  0  0  0  0  0  0  0  0  0
    2.0116    0.1161    0.0494 H   0  0  0  0  0  0  0  0  0  0  0  0
   -0.6156   -0.6399   -1.3218 H   0  0  0  0  0  0  0  0  0  0  0  0
    0.8598   -0.2252   -2.1501 H   0  0  0  0  0  0  0  0  0  0  0  0
    0.6885   -2.6709   -2.0389 H   0  0  0  0  0  0  0  0  0  0  0  0
    2.0638   -2.1518   -1.1059 H   0  0  0  0  0  0  0  0  0  0  0  0
    0.8118   -3.8374    0.1771 H   0  0  0  0  0  0  0  0  0  0  0  0
    0.7678   -2.3446    1.0318 H   0  0  0  0  0  0  0  0  0  0  0  0
   -1.4983   -3.2348    1.0364 H   0  0  0  0  0  0  0  0  0  0  0  0
   -1.5323   -1.8027    0.1006 H   0  0  0  0  0  0  0  0  0  0  0  0
   -2.7486   -3.5204   -1.1438 H   0  0  0  0  0  0  0  0  0  0  0  0
   -1.3437   -3.1130   -2.0631 H   0  0  0  0  0  0  0  0  0  0  0  0
   -1.5733   -5.5743   -1.9594 H   0  0  0  0  0  0  0  0  0  0  0  0
   -0.0909   -5.0941   -1.1876 H   0  0  0  0  0  0  0  0  0  0  0  0
   -1.0823   -6.6458    0.2428 H   0  0  0  0  0  0  0  0  0  0  0  0
   -1.2463   -5.1893    1.1109 H   0  0  0  0  0  0  0  0  0  0  0  0
   -3.6699   -4.8447    0.2516 H   0  0  0  0  0  0  0  0  0  0  0  0
   -4.8405   -6.8782    0.1684 H   0  0  0  0  0  0  0  0  0  0  0  0
   -3.3016   -8.8186   -0.6011 H   0  0  0  0  0  0  0  0  0  0  0  0
   -1.9858   -8.2135    0.2914 H   0  0  0  0  0  0  0  0  0  0  0  0
   -2.8691   -9.8064    1.7447 H   0  0  0  0  0  0  0  0  0  0  0  0
   -3.2281   -8.2694    2.4651 H   0  0  0  0  0  0  0  0  0  0  0  0
   -5.2400   -9.7198    2.5302 H   0  0  0  0  0  0  0  0  0  0  0  0
   -5.5683   -8.3137    1.5765 H   0  0  0  0  0  0  0  0  0  0  0  0
   -6.3831  -10.2446    0.3399 H   0  0  0  0  0  0  0  0  0  0  0  0
   -5.1075   -9.5728   -0.5696 H   0  0  0  0  0  0  0  0  0  0  0  0
   -4.6165  -11.9519   -0.5226 H   0  0  0  0  0  0  0  0  0  0  0  0
   -3.4274  -11.2276    0.4494 H   0  0  0  0  0  0  0  0  0  0  0  0
   -4.3613  -13.1907    1.6132 H   0  0  0  0  0  0  0  0  0  0  0  0
   -4.6589  -11.7450    2.5368 H   0  0  0  0  0  0  0  0  0  0  0  0
   -6.6706  -13.0398    2.5603 H   0  0  0  0  0  0  0  0  0  0  0  0
   -7.0387  -11.6233    1.6411 H   0  0  0  0  0  0  0  0  0  0  0  0
  1  2  1  0  0  0  0
  1 21  1  0  0  0  0
  1 22  1  0  0  0  0
  1 23  1  0  0  0  0
  2  3  1  0  0  0  0
  2 24  1  0  0  0  0
  2 25  1  0  0  0  0
  3  4  1  0  0  0  0
  3 26  1  0  0  0  0
  3 27  1  0  0  0  0
  4  5  1  0  0  0  0
  4 28  1  0  0  0  0
  4 29  1  0  0  0  0
  5  6  1  0  0  0  0
  5 30  1  0  0  0  0
  5 31  1  0  0  0  0
  6  7  1  0  0  0  0
  6 32  1  0  0  0  0
  6 33  1  0  0  0  0
  7  8  1  0  0  0  0
  7 34  1  0  0  0  0
  7 35  1  0  0  0  0
  8  9  1  0  0  0  0
  8 36  1  0  0  0  0
  8 37  1  0  0  0  0
  9 10  2  0  0  0  0
  9 38  1  0  0  0  0
 10 11  1  0  0  0  0
 10 39  1  0  0  0  0
 11 12  1  0  0  0  0
 11 40  1  0  0  0  0
 11 41  1  0  0  0  0
 12 13  1  0  0  0  0
 12 42  1  0  0  0  0
 12 43  1  0  0  0  0
 13 14  1  0  0  0  0
 13 44  1  0  0  0  0
 13 45  1  0  0  0  0
 14 15  1  0  0  0  0
 14 46  1  0  0  0  0
 14 47  1  0  0  0  0
 15 16  1  0  0  0  0
 15 48  1  0  0  0  0
 15 49  1  0  0  0  0
 16 17  1  0  0  0  0
 16 50  1  0  0  0  0
 16 51  1  0  0  0  0
 17 18  1  0  0  0  0
 17 52  1  0  0  0  0
 17 53  1  0  0  0  0
 18 19  2  0  0  0  0
 18 20  1  0  0  0  0
M  END
>  <DRUGBANK_ID>
DB14666

>  <SECONDARY_ACCESSION_NUMBERS>
DBSALT002228

>  <COMMON_NAME>
Oleoyl chloride

>  <CAS_NUMBER>
112-77-6

>  <UNII>
U83VP176UX

>  <SYNONYMS>
Oleic acid chloride; Oleic chloride; Oleyl chloride

$$$$
