
 OpenBabel10282417133D

 12 11  0  0  0  0  0  0  0  0999 V2000
    0.9973   -0.0635   -0.0525 C   0  0  0  0  0  0  0  0  0  0  0  0
    0.5023    1.3731    0.0384 C   0  0  0  0  0  0  0  0  0  0  0  0
    0.9991    2.2360   -1.1154 C   0  0  0  0  0  0  0  0  0  0  0  0
    0.5062    1.7608   -2.3595 O   0  0  0  0  0  0  0  0  0  0  0  0
    0.6254   -0.5592   -0.9544 H   0  0  0  0  0  0  0  0  0  0  0  0
    0.6479   -0.6411    0.8086 H   0  0  0  0  0  0  0  0  0  0  0  0
    2.0912   -0.0977   -0.0671 H   0  0  0  0  0  0  0  0  0  0  0  0
   -0.5937    1.3646    0.0451 H   0  0  0  0  0  0  0  0  0  0  0  0
    0.8370    1.8097    0.9861 H   0  0  0  0  0  0  0  0  0  0  0  0
    0.6438    3.2639   -0.9914 H   0  0  0  0  0  0  0  0  0  0  0  0
    2.0931    2.2599   -1.1531 H   0  0  0  0  0  0  0  0  0  0  0  0
    0.8849    0.8769   -2.5116 H   0  0  0  0  0  0  0  0  0  0  0  0
  1  2  1  0  0  0  0
  1  5  1  0  0  0  0
  1  6  1  0  0  0  0
  1  7  1  0  0  0  0
  2  3  1  0  0  0  0
  2  8  1  0  0  0  0
  2  9  1  0  0  0  0
  3  4  1  0  0  0  0
  3 10  1  0  0  0  0
  3 11  1  0  0  0  0
  4 12  1  0  0  0  0
M  END
>  <DRUGBANK_ID>
DB03175

>  <SECONDARY_ACCESSION_NUMBERS>
EXPT02630

>  <COMMON_NAME>
Propyl alcohol

>  <CAS_NUMBER>
71-23-8

>  <UNII>
96F264O9SV

>  <SYNONYMS>
1-propanol; 1-proponol; N-propanol; N-propyl alcohol; Propanol

$$$$
