
 OpenBabel10282417213D

 53 55  0  0  0  0  0  0  0  0999 V2000
   -0.4215   -0.0142   -0.0241 C   0  0  0  0  0  0  0  0  0  0  0  0
    0.2758    1.1934   -0.0289 C   0  0  0  0  0  0  0  0  0  0  0  0
    1.6626    1.1744   -0.0263 C   0  0  0  0  0  0  0  0  0  0  0  0
    2.3347   -0.0568   -0.0010 C   0  0  0  0  0  0  0  0  0  0  0  0
    1.6343   -1.2594   -0.0200 C   0  0  0  0  0  0  0  0  0  0  0  0
    0.2508   -1.2373   -0.0297 C   0  0  0  0  0  0  0  0  0  0  0  0
   -2.1387    0.0008   -0.0021 Cl  0  0  0  0  0  0  0  0  0  0  0  0
    3.8159   -0.1055    0.0620 C   0  0  0  0  0  0  0  0  0  0  0  0
    4.3860   -0.5070    1.3554 N   0  0  0  0  0  0  0  0  0  0  0  0
    5.8264   -0.5439    1.2563 C   0  0  0  0  0  0  0  0  0  0  0  0
    3.8773   -0.0570    2.6978 C   0  0  0  0  0  0  0  0  0  0  0  0
    4.2134    1.3573    3.3084 C   0  0  0  0  0  0  0  0  0  0  0  0
    5.6955    1.8376    4.2454 S   0  0  0  0  0  0  0  0  0  0  0  0
    5.5030    3.5590    3.8028 C   0  0  0  0  0  0  0  0  0  0  0  0
    4.1824    3.7519    3.3861 C   0  0  0  0  0  0  0  0  0  0  0  0
    3.4473    2.5083    3.1510 C   0  0  0  0  0  0  0  0  0  0  0  0
    6.6858    4.4813    3.6168 N   0  3  0  0  0  0  0  0  0  0  0  0
    7.7935    3.9680    3.3740 O   0  5  0  0  0  0  0  0  0  0  0  0
    6.4833    5.7081    3.6332 O   0  0  0  0  0  0  0  0  0  0  0  0
    6.4362    0.8454    0.9878 C   0  0  3  0  0  0  0  0  0  0  0  0
    5.6106    2.1344    1.0434 C   0  0  0  0  0  0  0  0  0  0  0  0
    6.3775    3.1625    0.4614 N   0  0  0  0  0  0  0  0  0  0  0  0
    6.9739    2.5351   -0.6758 C   0  0  0  0  0  0  0  0  0  0  0  0
    6.9331    1.0227   -0.4290 C   0  0  0  0  0  0  0  0  0  0  0  0
    6.1027    4.5085    0.6904 C   0  0  0  0  0  0  0  0  0  0  0  0
    7.1401    5.3790    0.7165 O   0  0  0  0  0  0  0  0  0  0  0  0
    5.0064    4.9337    1.1039 O   0  0  0  0  0  0  0  0  0  0  0  0
    8.2189    5.1576   -0.1645 C   0  0  0  0  0  0  0  0  0  0  0  0
    9.2248    4.1544    0.3908 C   0  0  0  0  0  0  0  0  0  0  0  0
   -0.2491    2.1442   -0.0265 H   0  0  0  0  0  0  0  0  0  0  0  0
    2.2132    2.1151   -0.0295 H   0  0  0  0  0  0  0  0  0  0  0  0
    2.1827   -2.1992   -0.0055 H   0  0  0  0  0  0  0  0  0  0  0  0
   -0.2893   -2.1771   -0.0285 H   0  0  0  0  0  0  0  0  0  0  0  0
    4.1744   -0.7683   -0.7461 H   0  0  0  0  0  0  0  0  0  0  0  0
    4.1578    0.8463   -0.3220 H   0  0  0  0  0  0  0  0  0  0  0  0
    6.2293   -1.0313    2.1570 H   0  0  0  0  0  0  0  0  0  0  0  0
    6.1400   -1.2461    0.4616 H   0  0  0  0  0  0  0  0  0  0  0  0
    2.7838   -0.1396    2.6488 H   0  0  0  0  0  0  0  0  0  0  0  0
    4.1762   -0.8178    3.4306 H   0  0  0  0  0  0  0  0  0  0  0  0
    3.7872    4.6735    2.9659 H   0  0  0  0  0  0  0  0  0  0  0  0
    2.4992    2.4801    2.6217 H   0  0  0  0  0  0  0  0  0  0  0  0
    7.2691    0.9193    1.7043 H   0  0  0  0  0  0  0  0  0  0  0  0
    4.5909    2.2099    0.6745 H   0  0  0  0  0  0  0  0  0  0  0  0
    5.5968    2.4402    2.0204 H   0  0  0  0  0  0  0  0  0  0  0  0
    8.0001    2.7844   -0.8397 H   0  0  0  0  0  0  0  0  0  0  0  0
    6.3799    2.8632   -1.5229 H   0  0  0  0  0  0  0  0  0  0  0  0
    7.9168    0.5623   -0.5260 H   0  0  0  0  0  0  0  0  0  0  0  0
    6.2470    0.5809   -1.1497 H   0  0  0  0  0  0  0  0  0  0  0  0
    7.7678    4.8733   -1.1206 H   0  0  0  0  0  0  0  0  0  0  0  0
    8.7079    6.1147   -0.3414 H   0  0  0  0  0  0  0  0  0  0  0  0
    8.7752    3.3207    0.9464 H   0  0  0  0  0  0  0  0  0  0  0  0
    9.7928    3.7443   -0.4498 H   0  0  0  0  0  0  0  0  0  0  0  0
    9.9084    4.6001    1.1085 H   0  0  0  0  0  0  0  0  0  0  0  0
  1  2  1  0  0  0  0
  1  6  2  0  0  0  0
  1  7  1  0  0  0  0
  2  3  2  0  0  0  0
  2 30  1  0  0  0  0
  3  4  1  0  0  0  0
  3 31  1  0  0  0  0
  4  5  2  0  0  0  0
  4  8  1  0  0  0  0
  5  6  1  0  0  0  0
  5 32  1  0  0  0  0
  6 33  1  0  0  0  0
  8  9  1  0  0  0  0
  8 34  1  0  0  0  0
  8 35  1  0  0  0  0
  9 10  1  0  0  0  0
  9 11  1  0  0  0  0
 10 20  1  0  0  0  0
 10 36  1  0  0  0  0
 10 37  1  0  0  0  0
 11 12  1  0  0  0  0
 11 38  1  0  0  0  0
 11 39  1  0  0  0  0
 12 13  1  0  0  0  0
 12 16  2  0  0  0  0
 13 14  1  0  0  0  0
 14 15  2  0  0  0  0
 14 17  1  0  0  0  0
 15 16  1  0  0  0  0
 15 40  1  0  0  0  0
 16 41  1  0  0  0  0
 17 18  1  0  0  0  0
 17 19  2  0  0  0  0
 20 21  1  0  0  0  0
 20 24  1  0  0  0  0
 20 42  1  0  0  0  0
 21 22  1  0  0  0  0
 21 43  1  0  0  0  0
 21 44  1  0  0  0  0
 22 23  1  0  0  0  0
 22 25  1  0  0  0  0
 23 24  1  0  0  0  0
 23 45  1  0  0  0  0
 23 46  1  0  0  0  0
 24 47  1  0  0  0  0
 24 48  1  0  0  0  0
 25 26  1  0  0  0  0
 25 27  2  0  0  0  0
 26 28  1  0  0  0  0
 28 29  1  0  0  0  0
 28 49  1  0  0  0  0
 28 50  1  0  0  0  0
 29 51  1  0  0  0  0
 29 52  1  0  0  0  0
 29 53  1  0  0  0  0
M  CHG  2  17   1  18  -1
M  END
>  <DRUGBANK_ID>
DB14013

>  <COMMON_NAME>
SR-9009

>  <CAS_NUMBER>
1379686-30-2

>  <UNII>
X5DCA09N30

>  <SYNONYMS>
1-Pyrrolidinecarboxylic acid, 3-((((4-chlorophenyl)methyl)((5-nitro-2-thienyl)methyl)amino)methyl)-, ethyl ester

$$$$
