
 OpenBabel10282417163D

 41 44  0  0  0  0  0  0  0  0999 V2000
    2.2814    0.8535    0.7024 F   0  0  0  0  0  0  0  0  0  0  0  0
   -2.4063    0.8189    0.6343 F   0  0  0  0  0  0  0  0  0  0  0  0
   -2.4775   -2.5165   -3.8099 O   0  0  0  0  0  0  0  0  0  0  0  0
    2.2056    0.3683   -2.0659 O   0  0  0  0  0  0  0  0  0  0  0  0
   -1.1977   -5.9760   -1.9273 N   0  0  0  0  0  0  0  0  0  0  0  0
    0.0363   -6.2141    0.0795 N   0  0  0  0  0  0  0  0  0  0  0  0
   -0.6112   -4.0417   -0.9237 C   0  0  0  0  0  0  0  0  0  0  0  0
   -1.3172   -3.7425   -2.1613 C   0  0  0  0  0  0  0  0  0  0  0  0
   -0.0119   -3.3668    0.1841 C   0  0  0  0  0  0  0  0  0  0  0  0
   -0.5406   -5.4423   -0.8599 C   0  0  0  0  0  0  0  0  0  0  0  0
   -1.6774   -4.9730   -2.7123 C   0  0  0  0  0  0  0  0  0  0  0  0
   -0.0520   -1.9286    0.4366 C   0  0  0  0  0  0  0  0  0  0  0  0
   -1.7030   -2.5072   -2.8680 C   0  0  0  0  0  0  0  0  0  0  0  0
    0.6260   -4.1479    1.1622 C   0  0  0  0  0  0  0  0  0  0  0  0
   -1.1020   -1.1981   -2.5576 C   0  0  0  0  0  0  0  0  0  0  0  0
    0.6133   -5.5199    1.0704 C   0  0  0  0  0  0  0  0  0  0  0  0
   -1.2575   -1.2320    0.5321 C   0  0  0  0  0  0  0  0  0  0  0  0
    1.1427   -1.2101    0.6361 C   0  0  0  0  0  0  0  0  0  0  0  0
    0.2874   -1.0708   -2.5285 C   0  0  0  0  0  0  0  0  0  0  0  0
   -1.9306   -0.0889   -2.3294 C   0  0  0  0  0  0  0  0  0  0  0  0
    1.1307    0.1719    0.8038 C   0  0  0  0  0  0  0  0  0  0  0  0
   -1.2528    0.1460    0.7540 C   0  0  0  0  0  0  0  0  0  0  0  0
    0.8677    0.1721   -2.2933 C   0  0  0  0  0  0  0  0  0  0  0  0
   -0.0663    0.8606    0.8702 C   0  0  0  0  0  0  0  0  0  0  0  0
   -1.3544    1.1657   -2.1180 C   0  0  0  0  0  0  0  0  0  0  0  0
    0.0415    1.2944   -2.1162 C   0  0  0  0  0  0  0  0  0  0  0  0
    3.0593   -0.7758   -2.0989 C   0  0  0  0  0  0  0  0  0  0  0  0
   -1.3089   -6.9691   -2.0803 H   0  0  0  0  0  0  0  0  0  0  0  0
   -2.2358   -5.2025   -3.6132 H   0  0  0  0  0  0  0  0  0  0  0  0
    1.0965   -3.6703    2.0171 H   0  0  0  0  0  0  0  0  0  0  0  0
    1.0762   -6.1119    1.8545 H   0  0  0  0  0  0  0  0  0  0  0  0
   -2.2005   -1.7271    0.3145 H   0  0  0  0  0  0  0  0  0  0  0  0
    2.1039   -1.7069    0.5402 H   0  0  0  0  0  0  0  0  0  0  0  0
    0.8896   -1.9700   -2.5717 H   0  0  0  0  0  0  0  0  0  0  0  0
   -3.0023   -0.2214   -2.1788 H   0  0  0  0  0  0  0  0  0  0  0  0
   -0.0720    1.9443    0.8262 H   0  0  0  0  0  0  0  0  0  0  0  0
   -1.9787    2.0025   -1.8020 H   0  0  0  0  0  0  0  0  0  0  0  0
    0.4814    2.2392   -1.7959 H   0  0  0  0  0  0  0  0  0  0  0  0
    2.7946   -1.5481   -1.3719 H   0  0  0  0  0  0  0  0  0  0  0  0
    3.0617   -1.2195   -3.0953 H   0  0  0  0  0  0  0  0  0  0  0  0
    4.0719   -0.4525   -1.8420 H   0  0  0  0  0  0  0  0  0  0  0  0
  1 21  1  0  0  0  0
  2 22  1  0  0  0  0
  3 13  2  0  0  0  0
  4 23  1  0  0  0  0
  4 27  1  0  0  0  0
  5 10  1  0  0  0  0
  5 11  1  0  0  0  0
  5 28  1  0  0  0  0
  6 10  2  0  0  0  0
  6 16  1  0  0  0  0
  7  8  1  0  0  0  0
  7  9  2  0  0  0  0
  7 10  1  0  0  0  0
  8 11  2  0  0  0  0
  8 13  1  0  0  0  0
  9 12  1  0  0  0  0
  9 14  1  0  0  0  0
 11 29  1  0  0  0  0
 12 17  2  0  0  0  0
 12 18  1  0  0  0  0
 13 15  1  0  0  0  0
 14 16  2  0  0  0  0
 14 30  1  0  0  0  0
 15 19  2  0  0  0  0
 15 20  1  0  0  0  0
 16 31  1  0  0  0  0
 17 22  1  0  0  0  0
 17 32  1  0  0  0  0
 18 21  2  0  0  0  0
 18 33  1  0  0  0  0
 19 23  1  0  0  0  0
 19 34  1  0  0  0  0
 20 25  2  0  0  0  0
 20 35  1  0  0  0  0
 21 24  1  0  0  0  0
 22 24  2  0  0  0  0
 23 26  2  0  0  0  0
 24 36  1  0  0  0  0
 25 26  1  0  0  0  0
 25 37  1  0  0  0  0
 26 38  1  0  0  0  0
 27 39  1  0  0  0  0
 27 40  1  0  0  0  0
 27 41  1  0  0  0  0
M  END
>  <DRUGBANK_ID>
DB07840

>  <COMMON_NAME>
(E)-[4-(3,5-Difluorophenyl)-3H-pyrrolo[2,3-b]pyridin-3-ylidene](3-methoxyphenyl)methanol

$$$$
