
 OpenBabel10282417123D

 45 47  0  0  0  0  0  0  0  0999 V2000
   -0.3287   -0.6664   -0.2708 C   0  0  0  0  0  0  0  0  0  0  0  0
   -1.6491   -1.2086   -0.5088 C   0  0  0  0  0  0  0  0  0  0  0  0
   -2.8107   -0.3312   -0.5410 C   0  0  0  0  0  0  0  0  0  0  0  0
   -2.6055    0.9856   -0.1725 C   0  0  0  0  0  0  0  0  0  0  0  0
   -1.3898    1.5554   -0.1505 C   0  0  0  0  0  0  0  0  0  0  0  0
   -0.3053    0.7099   -0.1524 C   0  0  0  0  0  0  0  0  0  0  0  0
    0.8233    1.4362    0.1040 O   0  0  0  0  0  0  0  0  0  0  0  0
    2.0747    0.9407   -0.0927 C   0  0  0  0  0  0  0  0  0  0  0  0
    2.2392   -0.5824   -0.0046 C   0  0  0  0  0  0  0  0  0  0  0  0
    1.0498   -1.2857   -0.0915 C   0  0  0  0  0  0  0  0  0  0  0  0
   -3.6565    1.6323    0.4234 O   0  0  0  0  0  0  0  0  0  0  0  0
   -4.6543    0.5964    0.5544 C   0  0  1  0  0  0  0  0  0  0  0  0
   -4.3440   -0.3457   -0.6339 C   0  0  0  0  0  0  0  0  0  0  0  0
    2.8717    1.8191   -0.2995 O   0  0  0  0  0  0  0  0  0  0  0  0
    3.6893   -1.3516    0.1154 C   0  0  0  0  0  0  0  0  0  0  0  0
    3.7261   -2.2630    1.3700 C   0  0  0  0  0  0  0  0  0  0  0  0
    3.8527   -2.2728   -1.1248 C   0  0  0  0  0  0  0  0  0  0  0  0
    5.0466   -0.5885    0.1514 C   0  0  0  0  0  0  0  0  0  0  0  0
    5.2081    0.7304    0.3042 C   0  0  0  0  0  0  0  0  0  0  0  0
   -4.6212   -0.1933    1.9178 C   0  0  0  0  0  0  0  0  0  0  0  0
   -4.3873    0.6975    3.0090 O   0  0  0  0  0  0  0  0  0  0  0  0
   -5.9682   -0.8915    2.1442 C   0  0  0  0  0  0  0  0  0  0  0  0
   -3.5515   -1.2901    1.9753 C   0  0  0  0  0  0  0  0  0  0  0  0
   -1.7582   -2.2958   -0.5337 H   0  0  0  0  0  0  0  0  0  0  0  0
   -1.2638    2.6176   -0.0151 H   0  0  0  0  0  0  0  0  0  0  0  0
    1.0816   -2.3728   -0.0389 H   0  0  0  0  0  0  0  0  0  0  0  0
   -5.6062    1.1428    0.4876 H   0  0  0  0  0  0  0  0  0  0  0  0
   -4.9472   -1.2509   -0.5691 H   0  0  0  0  0  0  0  0  0  0  0  0
   -4.6539    0.1985   -1.5434 H   0  0  0  0  0  0  0  0  0  0  0  0
    2.9297   -3.0134    1.3543 H   0  0  0  0  0  0  0  0  0  0  0  0
    4.6715   -2.8242    1.4430 H   0  0  0  0  0  0  0  0  0  0  0  0
    3.6296   -1.6778    2.2907 H   0  0  0  0  0  0  0  0  0  0  0  0
    3.8500   -1.6880   -2.0515 H   0  0  0  0  0  0  0  0  0  0  0  0
    4.7995   -2.8344   -1.1007 H   0  0  0  0  0  0  0  0  0  0  0  0
    3.0579   -3.0216   -1.1878 H   0  0  0  0  0  0  0  0  0  0  0  0
    5.9776   -1.1618    0.0817 H   0  0  0  0  0  0  0  0  0  0  0  0
    6.0731    1.3669    0.2452 H   0  0  0  0  0  0  0  0  0  0  0  0
    4.3494    1.2430    0.6332 H   0  0  0  0  0  0  0  0  0  0  0  0
   -3.5619    1.1764    2.7998 H   0  0  0  0  0  0  0  0  0  0  0  0
   -6.2272   -1.5528    1.3102 H   0  0  0  0  0  0  0  0  0  0  0  0
   -5.9297   -1.5054    3.0514 H   0  0  0  0  0  0  0  0  0  0  0  0
   -6.7794   -0.1709    2.2834 H   0  0  0  0  0  0  0  0  0  0  0  0
   -3.6932   -2.0095    1.1587 H   0  0  0  0  0  0  0  0  0  0  0  0
   -2.5551   -0.8433    1.9385 H   0  0  0  0  0  0  0  0  0  0  0  0
   -3.5682   -1.8764    2.8927 H   0  0  0  0  0  0  0  0  0  0  0  0
  1  2  2  0  0  0  0
  1  6  1  0  0  0  0
  1 10  1  0  0  0  0
  2  3  1  0  0  0  0
  2 24  1  0  0  0  0
  3  4  2  0  0  0  0
  4  5  1  0  0  0  0
  4 11  1  0  0  0  0
  5  6  2  0  0  0  0
  5 25  1  0  0  0  0
  6  7  1  0  0  0  0
  8  7  1  0  0  0  0
  8  9  1  0  0  0  0
  8 14  2  0  0  0  0
 10  9  2  0  0  0  0
 10 26  1  0  0  0  0
 12 11  1  0  0  0  0
 12 13  1  0  0  0  0
 12 20  1  0  0  0  0
 12 27  1  6  0  0  0
 13  3  1  0  0  0  0
 13 28  1  0  0  0  0
 13 29  1  0  0  0  0
 15  9  1  0  0  0  0
 15 16  1  0  0  0  0
 15 17  1  0  0  0  0
 15 18  1  0  0  0  0
 16 30  1  0  0  0  0
 16 31  1  0  0  0  0
 16 32  1  0  0  0  0
 17 33  1  0  0  0  0
 17 34  1  0  0  0  0
 17 35  1  0  0  0  0
 18 19  2  0  0  0  0
 18 36  1  0  0  0  0
 19 37  1  0  0  0  0
 19 38  1  0  0  0  0
 20 21  1  0  0  0  0
 20 22  1  0  0  0  0
 20 23  1  0  0  0  0
 21 39  1  0  0  0  0
 22 40  1  0  0  0  0
 22 41  1  0  0  0  0
 22 42  1  0  0  0  0
 23 43  1  0  0  0  0
 23 44  1  0  0  0  0
 23 45  1  0  0  0  0
M  END
>  <DRUGBANK_ID>
DB02205

>  <SECONDARY_ACCESSION_NUMBERS>
EXPT00760

>  <COMMON_NAME>
(+)-Rutamarin alcohol

>  <CAS_NUMBER>
14755-47-6

>  <UNII>
V0632559OD

>  <SYNONYMS>
(+)-Chalepin

$$$$
