
 OpenBabel10282417193D

 46 48  0  0  0  0  0  0  0  0999 V2000
   -2.5298    0.4161    0.8414 C   0  0  0  0  0  0  0  0  0  0  0  0
   -1.9100    1.6781    0.9158 C   0  0  0  0  0  0  0  0  0  0  0  0
   -0.4944    1.7667    1.1230 C   0  0  0  0  0  0  0  0  0  0  0  0
    0.1385    0.7081    1.7215 C   0  0  0  0  0  0  0  0  0  0  0  0
   -0.4723   -0.5331    1.5902 C   0  0  0  0  0  0  0  0  0  0  0  0
   -1.7505   -0.6950    1.0714 C   0  0  0  0  0  0  0  0  0  0  0  0
    0.1839   -1.6556    1.8699 F   0  0  0  0  0  0  0  0  0  0  0  0
    1.6038    1.0034    2.6120 Cl  0  0  0  0  0  0  0  0  0  0  0  0
    0.2985    2.7565    0.4688 N   0  0  0  0  0  0  0  0  0  0  0  0
    1.6291    2.7425    0.0581 C   0  0  0  0  0  0  0  0  0  0  0  0
    2.1141    3.8563   -0.2005 O   0  0  0  0  0  0  0  0  0  0  0  0
    2.4552    1.5654   -0.1091 N   0  0  0  0  0  0  0  0  0  0  0  0
    2.2863    0.0160   -0.2915 C   0  0  0  0  0  0  0  0  0  0  0  0
    2.7206   -1.0162    0.5093 C   0  0  0  0  0  0  0  0  0  0  0  0
    2.0683   -2.3209    0.4146 C   0  0  0  0  0  0  0  0  0  0  0  0
    0.9917   -2.6406   -0.5064 C   0  0  0  0  0  0  0  0  0  0  0  0
    0.5561   -1.6371   -1.3448 C   0  0  0  0  0  0  0  0  0  0  0  0
    1.2589   -0.4478   -1.1078 C   0  0  0  0  0  0  0  0  0  0  0  0
    0.6084    0.6195   -1.4115 O   0  0  0  0  0  0  0  0  0  0  0  0
   -1.0755   -1.6411   -2.3424 S   0  0  0  0  0  0  0  0  0  0  0  0
   -0.7910   -2.5657   -3.4566 O   0  0  0  0  0  0  0  0  0  0  0  0
   -2.1554   -1.9668   -1.4527 O   0  0  0  0  0  0  0  0  0  0  0  0
   -1.5986   -0.1523   -3.1738 N   0  0  0  0  0  0  0  0  0  0  0  0
   -0.7475    0.4283   -4.2668 C   0  0  0  0  0  0  0  0  0  0  0  0
    0.4410    1.1540   -3.6851 C   0  0  0  0  0  0  0  0  0  0  0  0
   -0.1143    2.2282   -2.8180 N   0  0  0  0  0  0  0  0  0  0  0  0
   -1.2300    1.8746   -1.9013 C   0  0  0  0  0  0  0  0  0  0  0  0
   -2.2919    0.9830   -2.4662 C   0  0  0  0  0  0  0  0  0  0  0  0
    0.1227   -4.1118   -0.2537 Cl  0  0  0  0  0  0  0  0  0  0  0  0
   -3.5309    0.2620    0.4259 H   0  0  0  0  0  0  0  0  0  0  0  0
   -2.5020    2.4990    0.5138 H   0  0  0  0  0  0  0  0  0  0  0  0
   -2.1063   -1.6941    0.8290 H   0  0  0  0  0  0  0  0  0  0  0  0
   -0.1859    3.6293    0.2512 H   0  0  0  0  0  0  0  0  0  0  0  0
    3.4259    1.8739   -0.1494 H   0  0  0  0  0  0  0  0  0  0  0  0
    3.2690   -0.8128    1.4255 H   0  0  0  0  0  0  0  0  0  0  0  0
    2.1971   -2.9788    1.2845 H   0  0  0  0  0  0  0  0  0  0  0  0
    1.1957    1.3843   -1.5264 H   0  0  0  0  0  0  0  0  0  0  0  0
   -0.4660   -0.3474   -4.9693 H   0  0  0  0  0  0  0  0  0  0  0  0
   -1.3182    1.2049   -4.7878 H   0  0  0  0  0  0  0  0  0  0  0  0
    1.0387    0.3155   -3.2959 H   0  0  0  0  0  0  0  0  0  0  0  0
    1.2114    1.5790   -4.3280 H   0  0  0  0  0  0  0  0  0  0  0  0
    0.3971    3.0841   -2.6455 H   0  0  0  0  0  0  0  0  0  0  0  0
   -1.0290    1.1984   -1.0841 H   0  0  0  0  0  0  0  0  0  0  0  0
   -1.5545    2.7691   -1.3790 H   0  0  0  0  0  0  0  0  0  0  0  0
   -2.8536    1.6720   -3.1009 H   0  0  0  0  0  0  0  0  0  0  0  0
   -2.9996    0.6185   -1.7172 H   0  0  0  0  0  0  0  0  0  0  0  0
  1  2  2  0  0  0  0
  1  6  1  0  0  0  0
  1 30  1  0  0  0  0
  2  3  1  0  0  0  0
  2 31  1  0  0  0  0
  3  4  2  0  0  0  0
  3  9  1  0  0  0  0
  4  5  1  0  0  0  0
  4  8  1  0  0  0  0
  5  6  2  0  0  0  0
  5  7  1  0  0  0  0
  6 32  1  0  0  0  0
  9 10  1  0  0  0  0
  9 33  1  0  0  0  0
 10 11  2  0  0  0  0
 10 12  1  0  0  0  0
 12 13  1  0  0  0  0
 12 34  1  0  0  0  0
 13 14  2  0  0  0  0
 13 18  1  0  0  0  0
 14 15  1  0  0  0  0
 14 35  1  0  0  0  0
 15 16  2  0  0  0  0
 15 36  1  0  0  0  0
 16 17  1  0  0  0  0
 16 29  1  0  0  0  0
 17 18  2  0  0  0  0
 17 20  1  0  0  0  0
 18 19  1  0  0  0  0
 19 37  1  0  0  0  0
 20 21  2  0  0  0  0
 20 22  2  0  0  0  0
 20 23  1  0  0  0  0
 23 24  1  0  0  0  0
 23 28  1  0  0  0  0
 24 25  1  0  0  0  0
 24 38  1  0  0  0  0
 24 39  1  0  0  0  0
 25 26  1  0  0  0  0
 25 40  1  0  0  0  0
 25 41  1  0  0  0  0
 26 27  1  0  0  0  0
 26 42  1  0  0  0  0
 27 28  1  0  0  0  0
 27 43  1  0  0  0  0
 27 44  1  0  0  0  0
 28 45  1  0  0  0  0
 28 46  1  0  0  0  0
M  END
>  <DRUGBANK_ID>
DB12135

>  <COMMON_NAME>
Elubrixin

>  <CAS_NUMBER>
688763-64-6

>  <UNII>
MW2AIJ8USP

>  <SYNONYMS>
Elubrixin

$$$$
