
 OpenBabel10282417173D

 75 78  0  0  1  0  0  0  0  0999 V2000
   -4.0464   -8.5569    0.0782 C   0  0  0  0  0  0  0  0  0  0  0  0
   -2.5555   -8.8712    0.4727 C   0  0  0  0  0  0  0  0  0  0  0  0
   -2.3731   -8.3382    1.8878 C   0  0  0  0  0  0  0  0  0  0  0  0
   -2.4213  -10.4157    0.4444 C   0  0  0  0  0  0  0  0  0  0  0  0
   -1.6778  -11.0855   -0.2564 O   0  0  0  0  0  0  0  0  0  0  0  0
   -3.2484  -11.0607    1.3136 O   0  0  0  0  0  0  0  0  0  0  0  0
   -1.5864   -8.1980   -0.4139 O   0  0  0  0  0  0  0  0  0  0  0  0
   -0.2091   -7.9925    0.1518 N   0  0  0  0  0  0  0  0  0  0  0  0
    0.6189   -7.2475   -0.6102 C   0  0  0  0  0  0  0  0  0  0  0  0
    2.3251   -7.0783   -0.0551 C   0  0  0  0  0  0  0  0  0  0  0  0
    3.1372   -8.2285    0.0586 N   0  0  0  0  0  0  0  0  0  0  0  0
    4.4515   -8.2076    0.1415 C   0  0  0  0  0  0  0  0  0  0  0  0
    4.9286   -6.6676   -0.4034 S   0  0  0  0  0  0  0  0  0  0  0  0
    3.1812   -6.0187   -0.2612 N   0  0  0  0  0  0  0  0  0  0  0  0
    5.1830   -9.3248    0.4993 N   0  0  0  0  0  0  0  0  0  0  0  0
   -0.1065   -6.7786   -2.1897 C   0  0  0  0  0  0  0  0  0  0  0  0
   -1.3274   -6.7095   -2.3690 O   0  0  0  0  0  0  0  0  0  0  0  0
    0.6036   -6.5527   -3.4026 N   0  0  0  0  0  0  0  0  0  0  0  0
    2.0321   -6.7825   -3.5905 C   0  0  1  0  0  0  0  0  0  0  0  0
    2.4139   -7.7778   -2.4992 C   0  0  2  0  0  0  0  0  0  0  0  0
    3.5074   -8.1656   -3.2442 N   0  0  0  0  0  0  0  0  0  0  0  0
    2.9103   -7.7315   -4.3888 C   0  0  0  0  0  0  0  0  0  0  0  0
    2.9685   -8.0303   -5.6051 O   0  0  0  0  0  0  0  0  0  0  0  0
    4.2975   -9.2360   -2.8546 C   0  0  0  0  0  0  0  0  0  0  0  0
    4.0306  -10.1190   -1.7959 C   0  0  0  0  0  0  0  0  0  0  0  0
    2.6570  -10.2824   -0.8825 C   0  0  0  0  0  0  0  0  0  0  0  0
    1.3852   -9.4845   -2.1351 S   0  0  0  0  0  0  0  0  0  0  0  0
    5.1576  -11.0842   -1.4632 C   0  0  0  0  0  0  0  0  0  0  0  0
    4.8869  -12.0741   -2.3825 N   0  3  0  0  0  0  0  0  0  0  0  0
    5.0467  -12.0617   -3.8076 C   0  0  0  0  0  0  0  0  0  0  0  0
    4.7027  -13.3239   -4.2793 C   0  0  0  0  0  0  0  0  0  0  0  0
    4.5171  -13.9639   -3.0252 C   0  0  0  0  0  0  0  0  0  0  0  0
    4.3433  -13.1842   -1.9667 N   0  0  0  0  0  0  0  0  0  0  0  0
    4.0061  -13.6863   -0.6266 C   0  0  0  0  0  0  0  0  0  0  0  0
    5.0042  -15.1671   -2.7127 N   0  0  0  0  0  0  0  0  0  0  0  0
    4.7268  -13.7614   -5.5841 N   0  0  0  0  0  0  0  0  0  0  0  0
    4.3434  -14.9327   -6.1745 C   0  0  0  0  0  0  0  0  0  0  0  0
    4.5342  -15.0643   -7.3833 O   0  0  0  0  0  0  0  0  0  0  0  0
    3.7443  -15.9768   -5.5176 N   0  0  0  0  0  0  0  0  0  0  0  0
    3.2644  -16.0694   -4.1860 C   0  0  0  0  0  0  0  0  0  0  0  0
    2.0075  -15.8113   -3.3746 C   0  0  0  0  0  0  0  0  0  0  0  0
    1.4840  -17.1322   -3.3405 N   0  0  0  0  0  0  0  0  0  0  0  0
    5.6853   -9.2636   -3.6845 C   0  0  0  0  0  0  0  0  0  0  0  0
    5.6205   -8.8651   -4.8705 O   0  0  0  0  0  0  0  0  0  0  0  0
    6.6528   -9.8421   -3.1175 O   0  5  0  0  0  0  0  0  0  0  0  0
   -4.7709   -9.0047    0.7853 H   0  0  0  0  0  0  0  0  0  0  0  0
   -4.3174   -8.9398   -0.9126 H   0  0  0  0  0  0  0  0  0  0  0  0
   -4.2505   -7.4800    0.0754 H   0  0  0  0  0  0  0  0  0  0  0  0
   -3.0681   -8.7844    2.6066 H   0  0  0  0  0  0  0  0  0  0  0  0
   -1.3600   -8.5497    2.2311 H   0  0  0  0  0  0  0  0  0  0  0  0
   -2.5137   -7.2515    1.8985 H   0  0  0  0  0  0  0  0  0  0  0  0
   -3.0556  -12.0177    1.2052 H   0  0  0  0  0  0  0  0  0  0  0  0
    6.0764   -9.5327    0.0408 H   0  0  0  0  0  0  0  0  0  0  0  0
    4.6258  -10.1779    0.5865 H   0  0  0  0  0  0  0  0  0  0  0  0
    0.0703   -6.0523   -4.1146 H   0  0  0  0  0  0  0  0  0  0  0  0
    2.4997   -5.7613   -3.5363 H   0  0  0  0  0  0  0  0  0  0  0  0
    2.3668   -6.8674   -1.9261 H   0  0  0  0  0  0  0  0  0  0  0  0
    2.6463   -9.9369    0.2063 H   0  0  0  0  0  0  0  0  0  0  0  0
    2.3496  -11.2740   -0.4644 H   0  0  0  0  0  0  0  0  0  0  0  0
    6.2132  -10.8196   -1.4718 H   0  0  0  0  0  0  0  0  0  0  0  0
    5.1591  -11.5871   -0.4921 H   0  0  0  0  0  0  0  0  0  0  0  0
    5.3895  -11.2744   -4.4439 H   0  0  0  0  0  0  0  0  0  0  0  0
    2.9608  -14.0072   -0.6592 H   0  0  0  0  0  0  0  0  0  0  0  0
    4.6211  -14.5690   -0.4087 H   0  0  0  0  0  0  0  0  0  0  0  0
    4.1292  -12.9999    0.2046 H   0  0  0  0  0  0  0  0  0  0  0  0
    5.3154  -15.5984   -3.5762 H   0  0  0  0  0  0  0  0  0  0  0  0
    4.3309  -15.7063   -2.1707 H   0  0  0  0  0  0  0  0  0  0  0  0
    5.0663  -13.0643   -6.2523 H   0  0  0  0  0  0  0  0  0  0  0  0
    3.6689  -16.8172   -6.0663 H   0  0  0  0  0  0  0  0  0  0  0  0
    3.9322  -16.7690   -3.6538 H   0  0  0  0  0  0  0  0  0  0  0  0
    3.3314  -15.0284   -4.1587 H   0  0  0  0  0  0  0  0  0  0  0  0
    2.1931  -15.4535   -2.3354 H   0  0  0  0  0  0  0  0  0  0  0  0
    1.4167  -15.0101   -3.8347 H   0  0  0  0  0  0  0  0  0  0  0  0
    0.5240  -17.1077   -3.0346 H   0  0  0  0  0  0  0  0  0  0  0  0
    1.5128  -17.4473   -4.3103 H   0  0  0  0  0  0  0  0  0  0  0  0
  1  2  1  0  0  0  0
  1 46  1  0  0  0  0
  1 47  1  0  0  0  0
  1 48  1  0  0  0  0
  2  3  1  0  0  0  0
  2  4  1  0  0  0  0
  2  7  1  0  0  0  0
  3 49  1  0  0  0  0
  3 50  1  0  0  0  0
  3 51  1  0  0  0  0
  4  5  2  0  0  0  0
  4  6  1  0  0  0  0
  6 52  1  0  0  0  0
  7  8  1  0  0  0  0
  8  9  2  0  0  0  0
  9 10  1  0  0  0  0
  9 16  1  0  0  0  0
 10 11  1  0  0  0  0
 10 14  2  0  0  0  0
 11 12  2  0  0  0  0
 12 13  1  0  0  0  0
 12 15  1  0  0  0  0
 13 14  1  0  0  0  0
 15 53  1  0  0  0  0
 15 54  1  0  0  0  0
 16 17  2  0  0  0  0
 16 18  1  0  0  0  0
 18 55  1  0  0  0  0
 19 20  1  0  0  0  0
 19 22  1  0  0  0  0
 19 56  1  1  0  0  0
 19 18  1  0  0  0  0
 20 21  1  0  0  0  0
 20 27  1  0  0  0  0
 20 57  1  1  0  0  0
 21 22  1  0  0  0  0
 21 24  1  0  0  0  0
 22 23  2  0  0  0  0
 24 25  2  0  0  0  0
 24 43  1  0  0  0  0
 25 26  1  0  0  0  0
 25 28  1  0  0  0  0
 26 27  1  0  0  0  0
 26 58  1  0  0  0  0
 26 59  1  0  0  0  0
 28 29  1  0  0  0  0
 28 60  1  0  0  0  0
 28 61  1  0  0  0  0
 29 30  2  0  0  0  0
 29 33  1  0  0  0  0
 30 31  1  0  0  0  0
 30 62  1  0  0  0  0
 31 32  2  0  0  0  0
 31 36  1  0  0  0  0
 32 33  1  0  0  0  0
 32 35  1  0  0  0  0
 33 34  1  0  0  0  0
 34 63  1  0  0  0  0
 34 64  1  0  0  0  0
 34 65  1  0  0  0  0
 35 66  1  0  0  0  0
 35 67  1  0  0  0  0
 36 37  1  0  0  0  0
 36 68  1  0  0  0  0
 37 38  2  0  0  0  0
 37 39  1  0  0  0  0
 39 40  1  0  0  0  0
 39 69  1  0  0  0  0
 40 41  1  0  0  0  0
 40 70  1  0  0  0  0
 40 71  1  0  0  0  0
 41 42  1  0  0  0  0
 41 72  1  0  0  0  0
 41 73  1  0  0  0  0
 42 74  1  0  0  0  0
 42 75  1  0  0  0  0
 43 44  2  0  0  0  0
 43 45  1  0  0  0  0
M  CHG  2  29   1  45  -1
M  END
>  <DRUGBANK_ID>
DB09050

>  <COMMON_NAME>
Ceftolozane

>  <CAS_NUMBER>
689293-68-3

>  <UNII>
37A4IES95Q

>  <SYNONYMS>
(6R,7R)-3-([3-Amino-4-(2-aminoethylcarbamoylamino)-2-methylpyrazol-1-ium-1-yl]methyl)-7-([(2Z)-2-(5-amino-1,2,4-thiadiazol-3-yl)-2-(2-carboxypropan-2-yloxyimino)acetyl]amino)-8-oxo-5-thia-1-azabicyclo[4.2.0]oct-2-ene-2-carboxylate; Ceftolozane; ceftolozano

$$$$
