
 OpenBabel10282417183D

 41 43  0  0  0  0  0  0  0  0999 V2000
   -0.9930    1.0688    0.0141 N   0  0  0  0  0  0  0  0  0  0  0  0
   -2.0653    0.2212    0.0168 C   0  0  0  0  0  0  0  0  0  0  0  0
   -1.7621   -1.2313    0.0145 C   0  0  0  0  0  0  0  0  0  0  0  0
   -0.5046   -1.7015    0.1235 C   0  0  0  0  0  0  0  0  0  0  0  0
    0.5966   -0.7269    0.3092 C   0  0  0  0  0  0  0  0  0  0  0  0
    1.9222   -1.1084    0.5533 C   0  0  0  0  0  0  0  0  0  0  0  0
    2.9741   -0.2150    0.3458 C   0  0  0  0  0  0  0  0  0  0  0  0
    2.7010    1.1227    0.0952 C   0  0  0  0  0  0  0  0  0  0  0  0
    1.3767    1.5613    0.0478 C   0  0  0  0  0  0  0  0  0  0  0  0
    0.3329    0.6351    0.1242 C   0  0  0  0  0  0  0  0  0  0  0  0
    1.8893   -3.1059   -1.5342 C   0  0  0  0  0  0  0  0  0  0  0  0
    0.4981   -3.6893   -1.2553 C   0  0  3  0  0  0  0  0  0  0  0  0
   -0.2061   -3.1833    0.0289 C   0  0  0  0  0  0  0  0  0  0  0  0
    2.9552   -3.5579   -1.1356 O   0  0  0  0  0  0  0  0  0  0  0  0
    1.8335   -1.9032   -2.1504 O   0  0  0  0  0  0  0  0  0  0  0  0
   -3.2231    0.6231   -0.0117 O   0  0  0  0  0  0  0  0  0  0  0  0
    0.6379   -5.1529   -1.1664 N   0  0  0  0  0  0  0  0  0  0  0  0
    0.2733   -5.9413   -2.2388 C   0  0  0  0  0  0  0  0  0  0  0  0
    0.5736   -7.3920   -2.1345 C   0  0  0  0  0  0  0  0  0  0  0  0
    0.3600   -8.1046   -0.9494 C   0  0  0  0  0  0  0  0  0  0  0  0
    0.6008   -9.4830   -0.9163 C   0  0  0  0  0  0  0  0  0  0  0  0
    1.0559  -10.1406   -2.0606 C   0  0  0  0  0  0  0  0  0  0  0  0
    1.2528   -9.4377   -3.2477 C   0  0  0  0  0  0  0  0  0  0  0  0
    1.0047   -8.0630   -3.2868 C   0  0  0  0  0  0  0  0  0  0  0  0
   -0.2571   -5.5047   -3.2427 O   0  0  0  0  0  0  0  0  0  0  0  0
    1.3739  -11.8307   -2.0054 Cl  0  0  0  0  0  0  0  0  0  0  0  0
   -1.2081    2.0549   -0.0288 H   0  0  0  0  0  0  0  0  0  0  0  0
   -2.6264   -1.8760   -0.1099 H   0  0  0  0  0  0  0  0  0  0  0  0
    2.1800   -2.1396    0.7771 H   0  0  0  0  0  0  0  0  0  0  0  0
    3.9978   -0.5856    0.3308 H   0  0  0  0  0  0  0  0  0  0  0  0
    3.5197    1.8217   -0.0548 H   0  0  0  0  0  0  0  0  0  0  0  0
    1.1739    2.6179   -0.0946 H   0  0  0  0  0  0  0  0  0  0  0  0
   -0.1156   -3.4375   -2.1260 H   0  0  0  0  0  0  0  0  0  0  0  0
    0.3334   -3.4995    0.9305 H   0  0  0  0  0  0  0  0  0  0  0  0
   -1.1615   -3.7295    0.0841 H   0  0  0  0  0  0  0  0  0  0  0  0
    2.6686   -1.4381   -1.9278 H   0  0  0  0  0  0  0  0  0  0  0  0
    1.2880   -5.5194   -0.4795 H   0  0  0  0  0  0  0  0  0  0  0  0
   -0.0299   -7.6102   -0.0638 H   0  0  0  0  0  0  0  0  0  0  0  0
    0.4202  -10.0429   -0.0019 H   0  0  0  0  0  0  0  0  0  0  0  0
    1.5897   -9.9514   -4.1446 H   0  0  0  0  0  0  0  0  0  0  0  0
    1.1438   -7.5154   -4.2172 H   0  0  0  0  0  0  0  0  0  0  0  0
  1  2  1  0  0  0  0
  1 10  1  0  0  0  0
  1 27  1  0  0  0  0
  2  3  1  0  0  0  0
  2 16  2  0  0  0  0
  3  4  2  0  0  0  0
  3 28  1  0  0  0  0
  4  5  1  0  0  0  0
  4 13  1  0  0  0  0
  5  6  1  0  0  0  0
  5 10  2  0  0  0  0
  6  7  2  0  0  0  0
  6 29  1  0  0  0  0
  7  8  1  0  0  0  0
  7 30  1  0  0  0  0
  8  9  2  0  0  0  0
  8 31  1  0  0  0  0
  9 10  1  0  0  0  0
  9 32  1  0  0  0  0
 11 12  1  0  0  0  0
 11 14  2  0  0  0  0
 11 15  1  0  0  0  0
 12 13  1  0  0  0  0
 12 17  1  0  0  0  0
 12 33  1  0  0  0  0
 13 34  1  0  0  0  0
 13 35  1  0  0  0  0
 15 36  1  0  0  0  0
 17 18  1  0  0  0  0
 17 37  1  0  0  0  0
 18 19  1  0  0  0  0
 18 25  2  0  0  0  0
 19 20  1  0  0  0  0
 19 24  2  0  0  0  0
 20 21  2  0  0  0  0
 20 38  1  0  0  0  0
 21 22  1  0  0  0  0
 21 39  1  0  0  0  0
 22 23  2  0  0  0  0
 22 26  1  0  0  0  0
 23 24  1  0  0  0  0
 23 40  1  0  0  0  0
 24 41  1  0  0  0  0
M  END
>  <DRUGBANK_ID>
DB11656

>  <COMMON_NAME>
Rebamipide

>  <CAS_NUMBER>
90098-04-7

>  <UNII>
LR583V32ZR

>  <SYNONYMS>
Rebamipida; Rebamipide; RÃ©bamipide; Rebamipidum

$$$$
