
 OpenBabel10282417193D

 51 53  0  0  0  0  0  0  0  0999 V2000
   -1.8877    0.0490    0.0434 C   0  0  0  0  0  0  0  0  0  0  0  0
   -1.1442    1.2389    0.0079 C   0  0  0  0  0  0  0  0  0  0  0  0
    0.2598    1.1966    0.0225 C   0  0  0  0  0  0  0  0  0  0  0  0
    0.8829   -0.0551    0.0739 C   0  0  0  0  0  0  0  0  0  0  0  0
    0.1558   -1.2259    0.0732 C   0  0  0  0  0  0  0  0  0  0  0  0
   -1.2331   -1.1904    0.0920 C   0  0  0  0  0  0  0  0  0  0  0  0
   -1.9592   -2.5031    0.1628 C   0  0  0  0  0  0  0  0  0  0  0  0
   -1.5888   -3.3201   -0.9854 N   0  0  0  0  0  0  0  0  0  0  0  0
   -2.3812   -4.5436   -1.0759 C   0  0  0  0  0  0  0  0  0  0  0  0
   -3.8845   -4.2921   -1.2757 C   0  0  0  0  0  0  0  0  0  0  0  0
   -4.2193   -3.4577   -2.5341 C   0  0  0  0  0  0  0  0  0  0  0  0
   -3.2131   -3.6968   -3.6763 C   0  0  0  0  0  0  0  0  0  0  0  0
   -3.3150   -2.6824   -4.7889 C   0  0  0  0  0  0  0  0  0  0  0  0
   -3.3228   -1.3548   -4.2694 O   0  0  0  0  0  0  0  0  0  0  0  0
   -4.4579   -1.1078   -3.4441 C   0  0  0  0  0  0  0  0  0  0  0  0
   -4.3860   -1.9661   -2.2000 C   0  0  0  0  0  0  0  0  0  0  0  0
    2.2104   -0.2055    0.1373 F   0  0  0  0  0  0  0  0  0  0  0  0
    0.9175    2.4142    0.0073 O   0  0  0  0  0  0  0  0  0  0  0  0
    2.2996    2.4124   -0.0788 C   0  0  0  0  0  0  0  0  0  0  0  0
    2.9473    1.8424   -1.1711 C   0  0  0  0  0  0  0  0  0  0  0  0
    4.3388    1.7410   -1.1552 C   0  0  0  0  0  0  0  0  0  0  0  0
    5.0586    2.2965   -0.0984 C   0  0  0  0  0  0  0  0  0  0  0  0
    4.3254    2.9211    0.9093 C   0  0  0  0  0  0  0  0  0  0  0  0
    2.9634    2.9903    0.9459 N   0  0  0  0  0  0  0  0  0  0  0  0
    6.5407    2.2610   -0.0150 C   0  0  0  0  0  0  0  0  0  0  0  0
    7.1416    2.7945    0.9176 O   0  0  0  0  0  0  0  0  0  0  0  0
    7.2402    1.6280   -1.0054 N   0  0  0  0  0  0  0  0  0  0  0  0
   -2.9763    0.0959    0.0331 H   0  0  0  0  0  0  0  0  0  0  0  0
   -1.6733    2.1905   -0.0109 H   0  0  0  0  0  0  0  0  0  0  0  0
    0.6872   -2.1731    0.0630 H   0  0  0  0  0  0  0  0  0  0  0  0
   -1.6887   -3.0310    1.0796 H   0  0  0  0  0  0  0  0  0  0  0  0
   -3.0299   -2.2993    0.2158 H   0  0  0  0  0  0  0  0  0  0  0  0
   -1.7026   -2.7356   -1.8149 H   0  0  0  0  0  0  0  0  0  0  0  0
   -2.0091   -5.1505   -1.9134 H   0  0  0  0  0  0  0  0  0  0  0  0
   -2.1997   -5.1608   -0.1924 H   0  0  0  0  0  0  0  0  0  0  0  0
   -4.3880   -5.2638   -1.3467 H   0  0  0  0  0  0  0  0  0  0  0  0
   -4.3141   -3.8243   -0.3804 H   0  0  0  0  0  0  0  0  0  0  0  0
   -5.2034   -3.7905   -2.8921 H   0  0  0  0  0  0  0  0  0  0  0  0
   -2.1777   -3.6044   -3.3516 H   0  0  0  0  0  0  0  0  0  0  0  0
   -3.2978   -4.7254   -4.0419 H   0  0  0  0  0  0  0  0  0  0  0  0
   -2.4258   -2.7786   -5.4216 H   0  0  0  0  0  0  0  0  0  0  0  0
   -4.2010   -2.8601   -5.4000 H   0  0  0  0  0  0  0  0  0  0  0  0
   -5.3787   -1.2914   -4.0036 H   0  0  0  0  0  0  0  0  0  0  0  0
   -4.4353   -0.0521   -3.1531 H   0  0  0  0  0  0  0  0  0  0  0  0
   -5.2624   -1.8050   -1.5598 H   0  0  0  0  0  0  0  0  0  0  0  0
   -3.5277   -1.6006   -1.6465 H   0  0  0  0  0  0  0  0  0  0  0  0
    2.3792    1.3799   -1.9709 H   0  0  0  0  0  0  0  0  0  0  0  0
    4.8196    1.2023   -1.9612 H   0  0  0  0  0  0  0  0  0  0  0  0
    4.8234    3.3965    1.7525 H   0  0  0  0  0  0  0  0  0  0  0  0
    6.8342    1.1557   -1.7984 H   0  0  0  0  0  0  0  0  0  0  0  0
    8.2502    1.6231   -0.9336 H   0  0  0  0  0  0  0  0  0  0  0  0
  1  2  2  0  0  0  0
  1  6  1  0  0  0  0
  1 28  1  0  0  0  0
  2  3  1  0  0  0  0
  2 29  1  0  0  0  0
  3  4  2  0  0  0  0
  3 18  1  0  0  0  0
  4  5  1  0  0  0  0
  4 17  1  0  0  0  0
  5  6  2  0  0  0  0
  5 30  1  0  0  0  0
  6  7  1  0  0  0  0
  7  8  1  0  0  0  0
  7 31  1  0  0  0  0
  7 32  1  0  0  0  0
  8  9  1  0  0  0  0
  8 33  1  0  0  0  0
  9 10  1  0  0  0  0
  9 34  1  0  0  0  0
  9 35  1  0  0  0  0
 10 11  1  0  0  0  0
 10 36  1  0  0  0  0
 10 37  1  0  0  0  0
 11 12  1  0  0  0  0
 11 16  1  0  0  0  0
 11 38  1  0  0  0  0
 12 13  1  0  0  0  0
 12 39  1  0  0  0  0
 12 40  1  0  0  0  0
 13 14  1  0  0  0  0
 13 41  1  0  0  0  0
 13 42  1  0  0  0  0
 14 15  1  0  0  0  0
 15 16  1  0  0  0  0
 15 43  1  0  0  0  0
 15 44  1  0  0  0  0
 16 45  1  0  0  0  0
 16 46  1  0  0  0  0
 18 19  1  0  0  0  0
 19 20  2  0  0  0  0
 19 24  1  0  0  0  0
 20 21  1  0  0  0  0
 20 47  1  0  0  0  0
 21 22  2  0  0  0  0
 21 48  1  0  0  0  0
 22 23  1  0  0  0  0
 22 25  1  0  0  0  0
 23 24  2  0  0  0  0
 23 49  1  0  0  0  0
 25 26  2  0  0  0  0
 25 27  1  0  0  0  0
 27 50  1  0  0  0  0
 27 51  1  0  0  0  0
M  END
>  <DRUGBANK_ID>
DB12585

>  <COMMON_NAME>
Ondelopran

>  <CAS_NUMBER>
676501-25-0

>  <UNII>
4VZT670SD9

>  <SYNONYMS>
Ondelopran

$$$$
