
 OpenBabel10282417233D

144145  0  0  1  0  0  0  0  0999 V2000
  -10.5861    0.1857    0.3836 C   0  0  0  0  0  0  0  0  0  0  0  0
   -9.5281   -1.2579    0.2058 S   0  0  0  0  0  0  0  0  0  0  0  0
   -8.7343   -0.9206   -1.4018 C   0  0  0  0  0  0  0  0  0  0  0  0
   -9.5240   -1.1441   -2.6408 C   0  0  0  0  0  0  0  0  0  0  0  0
  -10.6697   -0.1859   -2.7531 C   0  0  2  0  0  0  0  0  0  0  0  0
  -12.0928   -0.4397   -3.1703 N   0  0  0  0  0  0  0  0  0  0  0  0
  -12.5304   -1.4173   -3.9205 C   0  0  0  0  0  0  0  0  0  0  0  0
  -13.6748   -1.8614   -3.9279 O   0  0  0  0  0  0  0  0  0  0  0  0
  -11.1135   -1.7255   -4.4134 C   0  0  2  0  0  0  0  0  0  0  0  0
  -10.5980   -3.4508   -5.1449 C   0  0  0  0  0  0  0  0  0  0  0  0
   -8.9709   -3.1686   -6.3541 C   0  0  0  0  0  0  0  0  0  0  0  0
   -8.2229   -1.2348   -6.0047 C   0  0  0  0  0  0  0  0  0  0  0  0
   -9.6404   -0.2914   -5.0356 N   0  0  0  0  0  0  0  0  0  0  0  0
   -9.8645    1.4760   -5.3674 C   0  0  0  0  0  0  0  0  0  0  0  0
   -8.7874    2.0772   -5.6470 O   0  0  0  0  0  0  0  0  0  0  0  0
  -11.5797    2.2413   -4.4863 C   0  0  2  0  0  0  0  0  0  0  0  0
  -12.7608    2.7186   -5.2637 C   0  0  0  0  0  0  0  0  0  0  0  0
  -13.7680    1.7293   -5.5803 O   0  0  0  0  0  0  0  0  0  0  0  0
  -11.7397    2.6365   -2.8300 N   0  0  0  0  0  0  0  0  0  0  0  0
  -12.0104    2.0172   -1.5678 C   0  0  0  0  0  0  0  0  0  0  0  0
  -11.4881    2.6427   -0.6236 O   0  0  0  0  0  0  0  0  0  0  0  0
  -12.9172    0.5608   -1.1756 C   0  0  1  0  0  0  0  0  0  0  0  0
  -14.1654    0.7120   -1.9731 C   0  0  0  0  0  0  0  0  0  0  0  0
  -12.3358   -1.1103   -1.1278 N   0  0  0  0  0  0  0  0  0  0  0  0
  -10.5719    0.7212   -3.7711 C   0  0  0  0  0  0  0  0  0  0  0  0
   -9.7898    1.7044   -3.4218 O   0  0  0  0  0  0  0  0  0  0  0  0
  -11.4840    0.3534   -5.3828 N   0  0  0  0  0  0  0  0  0  0  0  0
  -11.2952   -0.7293   -6.4250 C   0  0  1  0  0  0  0  0  0  0  0  0
  -12.5761   -1.2932   -6.8671 C   0  0  0  0  0  0  0  0  0  0  0  0
  -12.4444   -0.8647   -8.2350 C   0  0  0  0  0  0  0  0  0  0  0  0
  -11.6322   -2.0660   -8.7934 C   0  0  0  0  0  0  0  0  0  0  0  0
  -13.7620   -0.9443   -8.7872 C   0  0  0  0  0  0  0  0  0  0  0  0
  -10.0407   -1.5030   -6.5562 C   0  0  0  0  0  0  0  0  0  0  0  0
   -9.5002   -2.0618   -5.2567 O   0  0  0  0  0  0  0  0  0  0  0  0
   -9.2701   -1.2973   -7.9469 N   0  0  0  0  0  0  0  0  0  0  0  0
   -9.7957   -0.1445   -8.7693 C   0  0  1  0  0  0  0  0  0  0  0  0
   -9.0027    1.1100   -8.7717 C   0  0  0  0  0  0  0  0  0  0  0  0
   -7.8506    0.7346   -9.5650 C   0  0  0  0  0  0  0  0  0  0  0  0
   -9.9087    2.1086   -9.4697 C   0  0  0  0  0  0  0  0  0  0  0  0
  -10.5139   -0.4897  -10.3091 C   0  0  0  0  0  0  0  0  0  0  0  0
  -11.6865   -0.3599  -10.6696 O   0  0  0  0  0  0  0  0  0  0  0  0
   -9.8086   -1.4024  -11.0377 N   0  0  0  0  0  0  0  0  0  0  0  0
   -8.4173   -1.7066  -10.8270 C   0  0  1  0  0  0  0  0  0  0  0  0
   -7.9454   -3.1071  -10.6635 C   0  0  0  0  0  0  0  0  0  0  0  0
   -7.6603   -0.9174  -11.8776 C   0  0  0  0  0  0  0  0  0  0  0  0
   -6.8585    0.0016  -11.7431 O   0  0  0  0  0  0  0  0  0  0  0  0
   -7.9899   -1.2164  -13.1281 N   0  0  0  0  0  0  0  0  0  0  0  0
   -8.8674   -2.2747  -13.6000 C   0  0  1  0  0  0  0  0  0  0  0  0
  -10.1409   -1.7537  -14.3389 C   0  0  0  0  0  0  0  0  0  0  0  0
  -10.0860   -0.8461  -15.6354 C   0  0  0  0  0  0  0  0  0  0  0  0
   -9.1042    0.3613  -15.6429 C   0  0  0  0  0  0  0  0  0  0  0  0
   -8.4944    0.9066  -16.9225 C   0  0  0  0  0  0  0  0  0  0  0  0
   -8.9346    0.3280  -18.2655 C   0  0  0  0  0  0  0  0  0  0  0  0
   -7.9171    0.2850  -19.2970 O   0  0  0  0  0  0  0  0  0  0  0  0
  -10.0613   -0.8199  -18.3296 C   0  0  0  0  0  0  0  0  0  0  0  0
  -10.6154   -1.4244  -16.9667 C   0  0  0  0  0  0  0  0  0  0  0  0
   -7.9962   -3.4064  -14.1936 C   0  0  0  0  0  0  0  0  0  0  0  0
   -7.9416   -4.5319  -13.6997 O   0  0  0  0  0  0  0  0  0  0  0  0
   -7.1614   -3.1730  -15.2286 N   0  0  0  0  0  0  0  0  0  0  0  0
   -7.0348   -1.9697  -15.9107 C   0  0  1  0  0  0  0  0  0  0  0  0
   -5.9799   -0.9086  -15.9327 C   0  0  0  0  0  0  0  0  0  0  0  0
   -4.8250   -1.4541  -16.5666 C   0  0  0  0  0  0  0  0  0  0  0  0
   -4.2651   -0.6266  -17.5104 O   0  0  0  0  0  0  0  0  0  0  0  0
   -4.5398   -2.6244  -16.3268 O   0  0  0  0  0  0  0  0  0  0  0  0
   -7.6399   -2.1940  -17.2000 C   0  0  0  0  0  0  0  0  0  0  0  0
   -8.4773   -1.3911  -17.1229 O   0  0  0  0  0  0  0  0  0  0  0  0
   -7.5476   -2.8161  -18.3452 N   0  0  0  0  0  0  0  0  0  0  0  0
   -6.3091   -3.4062  -18.4611 C   0  0  2  0  0  0  0  0  0  0  0  0
   -5.3178   -2.3810  -18.8851 C   0  0  0  0  0  0  0  0  0  0  0  0
   -6.1913   -4.4562  -19.4517 C   0  0  0  0  0  0  0  0  0  0  0  0
   -5.9752   -5.6580  -18.8875 O   0  0  0  0  0  0  0  0  0  0  0  0
   -6.2278   -4.2040  -20.6448 O   0  0  0  0  0  0  0  0  0  0  0  0
  -11.5234    0.1124    0.9584 H   0  0  0  0  0  0  0  0  0  0  0  0
  -10.9510    0.2232   -0.5866 H   0  0  0  0  0  0  0  0  0  0  0  0
  -10.1455    1.1705    0.3319 H   0  0  0  0  0  0  0  0  0  0  0  0
   -8.2982    0.0839   -1.4673 H   0  0  0  0  0  0  0  0  0  0  0  0
   -7.9554   -1.6687   -1.5035 H   0  0  0  0  0  0  0  0  0  0  0  0
   -8.7292   -1.0159   -3.3902 H   0  0  0  0  0  0  0  0  0  0  0  0
   -9.9239   -2.1431   -2.7108 H   0  0  0  0  0  0  0  0  0  0  0  0
  -10.4684    0.5921   -2.0432 H   0  0  0  0  0  0  0  0  0  0  0  0
  -12.8280   -0.5757   -2.5276 H   0  0  0  0  0  0  0  0  0  0  0  0
  -12.0366   -1.9636   -5.0690 H   0  0  0  0  0  0  0  0  0  0  0  0
  -10.3346   -3.7095   -4.1268 H   0  0  0  0  0  0  0  0  0  0  0  0
  -11.5380   -3.9301   -5.5137 H   0  0  0  0  0  0  0  0  0  0  0  0
   -8.2885   -3.9854   -6.1778 H   0  0  0  0  0  0  0  0  0  0  0  0
   -9.6114   -3.4147   -7.3115 H   0  0  0  0  0  0  0  0  0  0  0  0
   -7.4044   -1.0055   -5.3481 H   0  0  0  0  0  0  0  0  0  0  0  0
   -8.4306   -0.2809   -6.6277 H   0  0  0  0  0  0  0  0  0  0  0  0
  -12.2902    1.4127   -4.1539 H   0  0  0  0  0  0  0  0  0  0  0  0
  -13.2036    3.4078   -4.5490 H   0  0  0  0  0  0  0  0  0  0  0  0
  -12.2005    2.9659   -6.1399 H   0  0  0  0  0  0  0  0  0  0  0  0
  -13.3136    0.9238   -5.8811 H   0  0  0  0  0  0  0  0  0  0  0  0
  -10.8421    3.0846   -2.6943 H   0  0  0  0  0  0  0  0  0  0  0  0
  -13.1587    0.5282   -0.1280 H   0  0  0  0  0  0  0  0  0  0  0  0
  -13.9708    0.9122   -3.0328 H   0  0  0  0  0  0  0  0  0  0  0  0
  -14.6899   -0.2327   -1.8775 H   0  0  0  0  0  0  0  0  0  0  0  0
  -14.6397    1.5896   -1.5678 H   0  0  0  0  0  0  0  0  0  0  0  0
  -12.9362   -1.8848   -1.4296 H   0  0  0  0  0  0  0  0  0  0  0  0
  -11.6386   -1.3411   -1.8576 H   0  0  0  0  0  0  0  0  0  0  0  0
  -11.3012    0.9588   -6.2036 H   0  0  0  0  0  0  0  0  0  0  0  0
  -11.0679   -1.6462   -6.0645 H   0  0  0  0  0  0  0  0  0  0  0  0
  -12.6291   -2.4037   -6.8225 H   0  0  0  0  0  0  0  0  0  0  0  0
  -13.3713   -0.8476   -6.3134 H   0  0  0  0  0  0  0  0  0  0  0  0
  -12.1797    0.2294   -8.1280 H   0  0  0  0  0  0  0  0  0  0  0  0
  -11.7053   -3.1054   -8.5451 H   0  0  0  0  0  0  0  0  0  0  0  0
  -10.7739   -2.1161   -9.4072 H   0  0  0  0  0  0  0  0  0  0  0  0
  -10.9549   -1.9362   -8.0597 H   0  0  0  0  0  0  0  0  0  0  0  0
  -14.4236   -0.4378   -8.0926 H   0  0  0  0  0  0  0  0  0  0  0  0
  -13.7006   -0.4263   -9.7253 H   0  0  0  0  0  0  0  0  0  0  0  0
  -13.8913   -2.0209   -8.8435 H   0  0  0  0  0  0  0  0  0  0  0  0
   -8.5070   -1.9540   -8.2119 H   0  0  0  0  0  0  0  0  0  0  0  0
  -10.4958    0.2619   -8.0818 H   0  0  0  0  0  0  0  0  0  0  0  0
   -8.6616    1.4313   -7.7974 H   0  0  0  0  0  0  0  0  0  0  0  0
   -8.4140    0.4820  -10.4523 H   0  0  0  0  0  0  0  0  0  0  0  0
   -7.1758    1.4871   -9.8959 H   0  0  0  0  0  0  0  0  0  0  0  0
   -7.2922   -0.0961   -9.1007 H   0  0  0  0  0  0  0  0  0  0  0  0
  -10.7434    2.3716   -8.8136 H   0  0  0  0  0  0  0  0  0  0  0  0
   -9.3107    2.9496   -9.7809 H   0  0  0  0  0  0  0  0  0  0  0  0
  -10.3719    1.7133  -10.3849 H   0  0  0  0  0  0  0  0  0  0  0  0
  -10.4317   -1.8920  -11.6685 H   0  0  0  0  0  0  0  0  0  0  0  0
   -8.1903   -1.3959   -9.8510 H   0  0  0  0  0  0  0  0  0  0  0  0
   -8.1283   -3.6874  -11.5422 H   0  0  0  0  0  0  0  0  0  0  0  0
   -6.8642   -3.0577  -10.4918 H   0  0  0  0  0  0  0  0  0  0  0  0
   -8.4341   -3.5944   -9.8180 H   0  0  0  0  0  0  0  0  0  0  0  0
   -7.4070   -0.6584  -13.7215 H   0  0  0  0  0  0  0  0  0  0  0  0
   -9.2858   -2.7936  -12.7372 H   0  0  0  0  0  0  0  0  0  0  0  0
  -10.7317   -2.6688  -14.5037 H   0  0  0  0  0  0  0  0  0  0  0  0
  -10.7009   -1.1352  -13.6226 H   0  0  0  0  0  0  0  0  0  0  0  0
   -8.5187    0.5713  -14.7096 H   0  0  0  0  0  0  0  0  0  0  0  0
   -7.4831    1.3896  -16.7922 H   0  0  0  0  0  0  0  0  0  0  0  0
   -7.1968    0.9253  -19.1210 H   0  0  0  0  0  0  0  0  0  0  0  0
  -10.0172   -1.5493  -19.2015 H   0  0  0  0  0  0  0  0  0  0  0  0
  -10.9636   -2.5078  -16.9405 H   0  0  0  0  0  0  0  0  0  0  0  0
   -6.7765   -3.9680  -15.6888 H   0  0  0  0  0  0  0  0  0  0  0  0
   -7.7295   -1.3978  -15.3200 H   0  0  0  0  0  0  0  0  0  0  0  0
   -6.2054   -0.0087  -16.5060 H   0  0  0  0  0  0  0  0  0  0  0  0
   -5.6798   -0.6750  -14.9274 H   0  0  0  0  0  0  0  0  0  0  0  0
   -4.8335   -0.1153  -18.1537 H   0  0  0  0  0  0  0  0  0  0  0  0
   -8.0612   -2.4579  -19.1687 H   0  0  0  0  0  0  0  0  0  0  0  0
   -6.1967   -3.8110  -17.4619 H   0  0  0  0  0  0  0  0  0  0  0  0
   -4.8968   -2.3001  -19.8717 H   0  0  0  0  0  0  0  0  0  0  0  0
   -5.8309   -1.4230  -18.7383 H   0  0  0  0  0  0  0  0  0  0  0  0
   -4.3859   -2.6086  -18.3667 H   0  0  0  0  0  0  0  0  0  0  0  0
   -5.9720   -5.6865  -17.9051 H   0  0  0  0  0  0  0  0  0  0  0  0
  1  2  1  0  0  0  0
  1 73  1  0  0  0  0
  1 74  1  0  0  0  0
  1 75  1  0  0  0  0
  2  3  1  0  0  0  0
  3  4  1  0  0  0  0
  3 76  1  0  0  0  0
  3 77  1  0  0  0  0
  4 78  1  0  0  0  0
  4 79  1  0  0  0  0
  5 25  1  0  0  0  0
  5 80  1  1  0  0  0
  5  6  1  0  0  0  0
  5  4  1  0  0  0  0
  6  7  1  0  0  0  0
  6 81  1  0  0  0  0
  7  8  2  0  0  0  0
  9  7  1  0  0  0  0
  9 10  1  0  0  0  0
  9 13  1  0  0  0  0
  9 82  1  6  0  0  0
 10 11  1  0  0  0  0
 10 83  1  0  0  0  0
 10 84  1  0  0  0  0
 11 12  1  0  0  0  0
 11 85  1  0  0  0  0
 11 86  1  0  0  0  0
 12 13  1  0  0  0  0
 12 87  1  0  0  0  0
 12 88  1  0  0  0  0
 13 14  1  0  0  0  0
 14 15  2  0  0  0  0
 16 19  1  0  0  0  0
 16 89  1  1  0  0  0
 16 17  1  0  0  0  0
 16 14  1  0  0  0  0
 17 18  1  0  0  0  0
 17 90  1  0  0  0  0
 17 91  1  0  0  0  0
 18 92  1  0  0  0  0
 19 20  1  0  0  0  0
 19 93  1  0  0  0  0
 20 21  2  0  0  0  0
 22 20  1  0  0  0  0
 22 23  1  0  0  0  0
 22 24  1  0  0  0  0
 22 94  1  1  0  0  0
 23 95  1  0  0  0  0
 23 96  1  0  0  0  0
 23 97  1  0  0  0  0
 24 98  1  0  0  0  0
 24 99  1  0  0  0  0
 25 26  2  0  0  0  0
 25 27  1  0  0  0  0
 27100  1  0  0  0  0
 28 27  1  0  0  0  0
 28 29  1  0  0  0  0
 28 33  1  0  0  0  0
 28101  1  1  0  0  0
 29 30  1  0  0  0  0
 29102  1  0  0  0  0
 29103  1  0  0  0  0
 30 31  1  0  0  0  0
 30 32  1  0  0  0  0
 30104  1  0  0  0  0
 31105  1  0  0  0  0
 31106  1  0  0  0  0
 31107  1  0  0  0  0
 32108  1  0  0  0  0
 32109  1  0  0  0  0
 32110  1  0  0  0  0
 33 34  2  0  0  0  0
 33 35  1  0  0  0  0
 35111  1  0  0  0  0
 36 35  1  0  0  0  0
 36 37  1  0  0  0  0
 36 40  1  0  0  0  0
 36112  1  1  0  0  0
 37 38  1  0  0  0  0
 37 39  1  0  0  0  0
 37113  1  0  0  0  0
 38114  1  0  0  0  0
 38115  1  0  0  0  0
 38116  1  0  0  0  0
 39117  1  0  0  0  0
 39118  1  0  0  0  0
 39119  1  0  0  0  0
 40 41  2  0  0  0  0
 40 42  1  0  0  0  0
 42120  1  0  0  0  0
 43 42  1  0  0  0  0
 43 44  1  0  0  0  0
 43 45  1  0  0  0  0
 43121  1  1  0  0  0
 44122  1  0  0  0  0
 44123  1  0  0  0  0
 44124  1  0  0  0  0
 45 46  2  0  0  0  0
 45 47  1  0  0  0  0
 47125  1  0  0  0  0
 48 47  1  0  0  0  0
 48 49  1  0  0  0  0
 48 57  1  0  0  0  0
 48126  1  1  0  0  0
 49 50  1  0  0  0  0
 49127  1  0  0  0  0
 49128  1  0  0  0  0
 50 51  2  0  0  0  0
 50 56  1  0  0  0  0
 51 52  1  0  0  0  0
 51129  1  0  0  0  0
 52 53  2  0  0  0  0
 52130  1  0  0  0  0
 53 54  1  0  0  0  0
 53 55  1  0  0  0  0
 54131  1  0  0  0  0
 55 56  2  0  0  0  0
 55132  1  0  0  0  0
 56133  1  0  0  0  0
 57 58  2  0  0  0  0
 57 59  1  0  0  0  0
 59134  1  0  0  0  0
 60 59  1  0  0  0  0
 60 61  1  0  0  0  0
 60 65  1  0  0  0  0
 60135  1  1  0  0  0
 61 62  1  0  0  0  0
 61136  1  0  0  0  0
 61137  1  0  0  0  0
 62 63  1  0  0  0  0
 62 64  2  0  0  0  0
 63138  1  0  0  0  0
 65 66  2  0  0  0  0
 65 67  1  0  0  0  0
 67139  1  0  0  0  0
 68 70  1  0  0  0  0
 68140  1  1  0  0  0
 68 69  1  0  0  0  0
 68 67  1  0  0  0  0
 69141  1  0  0  0  0
 69142  1  0  0  0  0
 69143  1  0  0  0  0
 70 71  1  0  0  0  0
 70 72  2  0  0  0  0
 71144  1  0  0  0  0
M  END
>  <DRUGBANK_ID>
DB16687

>  <COMMON_NAME>
Reltecimod

>  <CAS_NUMBER>
1447799-33-8

>  <UNII>
U00J02UY29

>  <SYNONYMS>
D-alanyl-L-seryl-L-prolyl-L-methionyl-L-leucyl-L-valyl-L-alanyl-L-tyrosyl-L-aspartyl-D-alanine

$$$$
