NBL
 OpenBabel10282417133D

 52 53  0  0  0  0  0  0  0  0999 V2000
   -0.3372   -2.2760    2.9189 C   0  0  0  0  0  0  0  0  0  0  0  0
   -1.1174   -1.1791    3.6272 C   0  0  0  0  0  0  0  0  0  0  0  0
   -0.6431   -1.0462    5.0730 C   0  0  0  0  0  0  0  0  0  0  0  0
   -0.9138    0.1467    2.9004 C   0  0  0  0  0  0  0  0  0  0  0  0
   -1.5024    0.1473    1.4802 C   0  0  2  0  0  0  0  0  0  0  0  0
   -0.8811    1.1717    0.6534 N   0  0  0  0  0  0  0  0  0  0  0  0
    0.2514    0.9609   -0.0734 C   0  0  0  0  0  0  0  0  0  0  0  0
    0.8402    1.8825   -0.6168 O   0  0  0  0  0  0  0  0  0  0  0  0
    0.5939   -0.3468   -0.1120 O   0  0  0  0  0  0  0  0  0  0  0  0
    1.7130   -0.6875   -0.9268 C   0  0  0  0  0  0  0  0  0  0  0  0
    1.5206   -0.3859   -2.3893 C   0  0  0  0  0  0  0  0  0  0  0  0
    2.6501   -0.1213   -3.1710 C   0  0  0  0  0  0  0  0  0  0  0  0
    2.5278    0.0440   -4.5466 C   0  0  0  0  0  0  0  0  0  0  0  0
    1.2779   -0.0690   -5.1518 C   0  0  0  0  0  0  0  0  0  0  0  0
    0.1497   -0.3481   -4.3834 C   0  0  0  0  0  0  0  0  0  0  0  0
    0.2602   -0.4515   -2.9999 C   0  0  0  0  0  0  0  0  0  0  0  0
   -3.0364    0.2144    1.4953 C   0  0  0  0  0  0  0  0  0  0  0  0
   -3.7168   -0.7305    1.0901 O   0  0  0  0  0  0  0  0  0  0  0  0
   -3.6639    1.3126    2.0216 N   0  0  0  0  0  0  0  0  0  0  0  0
   -3.0361    2.4743    2.6267 C   0  0  2  0  0  0  0  0  0  0  0  0
   -3.2239    2.5772    4.1391 C   0  0  0  0  0  0  0  0  0  0  0  0
   -3.1392    4.0695    4.4465 C   0  0  0  0  0  0  0  0  0  0  0  0
   -3.0070    4.7511    3.1335 N   0  0  0  0  0  0  0  0  0  0  0  0
   -3.4952    3.8223    2.0899 C   0  0  0  0  0  0  0  0  0  0  0  0
   -2.4830    5.9615    2.9358 C   0  0  0  0  0  0  0  0  0  0  0  0
   -2.0209    7.0159    2.7731 N   0  0  0  0  0  0  0  0  0  0  0  0
   -1.2781   -0.7985    0.9906 H   0  0  0  0  0  0  0  0  0  0  0  0
   -1.9655    2.4493    2.4416 H   0  0  0  0  0  0  0  0  0  0  0  0
    0.7250   -2.0131    2.8746 H   0  0  0  0  0  0  0  0  0  0  0  0
   -0.6842   -2.4294    1.8948 H   0  0  0  0  0  0  0  0  0  0  0  0
   -0.4541   -3.2290    3.4351 H   0  0  0  0  0  0  0  0  0  0  0  0
   -2.1863   -1.4289    3.6397 H   0  0  0  0  0  0  0  0  0  0  0  0
    0.4163   -0.7711    5.1106 H   0  0  0  0  0  0  0  0  0  0  0  0
   -1.2101   -0.2755    5.6075 H   0  0  0  0  0  0  0  0  0  0  0  0
   -0.7737   -1.9925    5.6049 H   0  0  0  0  0  0  0  0  0  0  0  0
   -1.3794    0.8969    3.5243 H   0  0  0  0  0  0  0  0  0  0  0  0
    0.1464    0.4281    2.8895 H   0  0  0  0  0  0  0  0  0  0  0  0
   -1.1710    2.1373    0.6780 H   0  0  0  0  0  0  0  0  0  0  0  0
    2.6128   -0.2171   -0.5170 H   0  0  0  0  0  0  0  0  0  0  0  0
    1.8520   -1.7740   -0.8435 H   0  0  0  0  0  0  0  0  0  0  0  0
    3.6282   -0.0379   -2.7033 H   0  0  0  0  0  0  0  0  0  0  0  0
    3.4123    0.2377   -5.1456 H   0  0  0  0  0  0  0  0  0  0  0  0
    1.1800    0.0662   -6.2243 H   0  0  0  0  0  0  0  0  0  0  0  0
   -0.8132   -0.5016   -4.8620 H   0  0  0  0  0  0  0  0  0  0  0  0
   -0.6416   -0.5785   -2.4040 H   0  0  0  0  0  0  0  0  0  0  0  0
   -4.6758    1.2165    2.0383 H   0  0  0  0  0  0  0  0  0  0  0  0
   -4.1700    2.1427    4.4747 H   0  0  0  0  0  0  0  0  0  0  0  0
   -2.4390    2.0555    4.6971 H   0  0  0  0  0  0  0  0  0  0  0  0
   -4.0593    4.4005    4.9352 H   0  0  0  0  0  0  0  0  0  0  0  0
   -2.2906    4.2893    5.1034 H   0  0  0  0  0  0  0  0  0  0  0  0
   -3.0586    4.0218    1.1050 H   0  0  0  0  0  0  0  0  0  0  0  0
   -4.5844    3.8806    2.0198 H   0  0  0  0  0  0  0  0  0  0  0  0
  1  2  1  0  0  0  0
  1 29  1  0  0  0  0
  1 30  1  0  0  0  0
  1 31  1  0  0  0  0
  2  3  1  0  0  0  0
  2  4  1  0  0  0  0
  2 32  1  0  0  0  0
  3 33  1  0  0  0  0
  3 34  1  0  0  0  0
  3 35  1  0  0  0  0
  4 36  1  0  0  0  0
  4 37  1  0  0  0  0
  5 17  1  0  0  0  0
  5 27  1  6  0  0  0
  5  6  1  0  0  0  0
  5  4  1  0  0  0  0
  6  7  1  0  0  0  0
  6 38  1  0  0  0  0
  7  8  2  0  0  0  0
  7  9  1  0  0  0  0
  9 10  1  0  0  0  0
 10 11  1  0  0  0  0
 10 39  1  0  0  0  0
 10 40  1  0  0  0  0
 11 12  2  0  0  0  0
 11 16  1  0  0  0  0
 12 13  1  0  0  0  0
 12 41  1  0  0  0  0
 13 14  2  0  0  0  0
 13 42  1  0  0  0  0
 14 15  1  0  0  0  0
 14 43  1  0  0  0  0
 15 16  2  0  0  0  0
 15 44  1  0  0  0  0
 16 45  1  0  0  0  0
 17 18  2  0  0  0  0
 17 19  1  0  0  0  0
 19 46  1  0  0  0  0
 20 19  1  0  0  0  0
 20 21  1  0  0  0  0
 20 24  1  0  0  0  0
 20 28  1  6  0  0  0
 21 22  1  0  0  0  0
 21 47  1  0  0  0  0
 21 48  1  0  0  0  0
 22 23  1  0  0  0  0
 22 49  1  0  0  0  0
 22 50  1  0  0  0  0
 23 24  1  0  0  0  0
 23 25  1  0  0  0  0
 24 51  1  0  0  0  0
 24 52  1  0  0  0  0
 25 26  3  0  0  0  0
M  END
>  <DRUGBANK_ID>
DB03456

>  <SECONDARY_ACCESSION_NUMBERS>
EXPT02301

>  <COMMON_NAME>
N2-[(benzyloxy)carbonyl]-n1-[(3S)-1-cyanopyrrolidin-3-yl]-l-leucinamide

$$$$
