721
 OpenBabel10282417103D

 37 37  0  0  0  0  0  0  0  0999 V2000
    1.0964    0.1928   -0.5782 O   0  0  0  0  0  0  0  0  0  0  0  0
    3.0692   -0.8172   -0.9641 O   0  0  0  0  0  0  0  0  0  0  0  0
    1.6325    1.8023    2.0386 N   0  0  0  0  0  0  0  0  0  0  0  0
    5.6437    4.9655    0.1936 N   0  0  0  0  0  0  0  0  0  0  0  0
    0.3280    1.7488    1.3889 C   0  0  0  0  0  0  0  0  0  0  0  0
    1.9644    2.8692    2.9714 C   0  0  0  0  0  0  0  0  0  0  0  0
    2.4280    0.5760    2.0371 C   0  0  0  0  0  0  0  0  0  0  0  0
    0.2454    1.2793   -0.1194 C   0  0  0  0  0  0  0  0  0  0  0  0
    1.8033    2.2535    4.3167 C   0  0  0  0  0  0  0  0  0  0  0  0
    2.2273   -0.5833    2.9258 C   0  0  0  0  0  0  0  0  0  0  0  0
    2.4409    0.2749   -0.8270 C   0  0  0  0  0  0  0  0  0  0  0  0
    3.2350    1.5832   -0.7836 C   0  0  0  0  0  0  0  0  0  0  0  0
    3.0789    2.5760    0.1926 C   0  0  0  0  0  0  0  0  0  0  0  0
    4.4672    1.7154   -1.3728 C   0  0  0  0  0  0  0  0  0  0  0  0
    4.7996    3.9825   -0.3281 C   0  0  0  0  0  0  0  0  0  0  0  0
    3.5869    3.8608    0.2713 C   0  0  0  0  0  0  0  0  0  0  0  0
    5.2415    2.9013   -1.1386 C   0  0  0  0  0  0  0  0  0  0  0  0
    6.3124    5.3272   -0.4692 H   0  0  0  0  0  0  0  0  0  0  0  0
    5.1489    5.7040    0.6950 H   0  0  0  0  0  0  0  0  0  0  0  0
   -0.1690    2.7317    1.4070 H   0  0  0  0  0  0  0  0  0  0  0  0
   -0.2852    1.0974    2.0175 H   0  0  0  0  0  0  0  0  0  0  0  0
    3.0198    3.1812    2.9104 H   0  0  0  0  0  0  0  0  0  0  0  0
    1.4049    3.8059    2.8122 H   0  0  0  0  0  0  0  0  0  0  0  0
    2.1035    0.0824    1.1658 H   0  0  0  0  0  0  0  0  0  0  0  0
    3.5150    0.6724    1.9034 H   0  0  0  0  0  0  0  0  0  0  0  0
    0.3925    2.0920   -0.8286 H   0  0  0  0  0  0  0  0  0  0  0  0
   -0.7898    0.9269   -0.2612 H   0  0  0  0  0  0  0  0  0  0  0  0
    2.5846    1.4986    4.4058 H   0  0  0  0  0  0  0  0  0  0  0  0
    1.9775    2.9512    5.1270 H   0  0  0  0  0  0  0  0  0  0  0  0
    0.8176    1.7866    4.3765 H   0  0  0  0  0  0  0  0  0  0  0  0
    1.1604   -0.7778    2.9778 H   0  0  0  0  0  0  0  0  0  0  0  0
    2.7304   -1.4240    2.4259 H   0  0  0  0  0  0  0  0  0  0  0  0
    2.7171   -0.4113    3.8730 H   0  0  0  0  0  0  0  0  0  0  0  0
    3.6133    2.2202    1.1178 H   0  0  0  0  0  0  0  0  0  0  0  0
    4.8632    0.8704   -1.9295 H   0  0  0  0  0  0  0  0  0  0  0  0
    3.3615    4.4578    1.1628 H   0  0  0  0  0  0  0  0  0  0  0  0
    6.2409    2.9354   -1.5497 H   0  0  0  0  0  0  0  0  0  0  0  0
  1  8  1  0  0  0  0
  1 11  1  0  0  0  0
  2 11  2  0  0  0  0
  3  5  1  0  0  0  0
  3  6  1  0  0  0  0
  3  7  1  0  0  0  0
  4 15  1  0  0  0  0
  4 18  1  0  0  0  0
  4 19  1  0  0  0  0
  5  8  1  0  0  0  0
  5 20  1  0  0  0  0
  5 21  1  0  0  0  0
  6  9  1  0  0  0  0
  6 22  1  0  0  0  0
  6 23  1  0  0  0  0
  7 10  1  0  0  0  0
  7 24  1  0  0  0  0
  7 25  1  0  0  0  0
  8 26  1  0  0  0  0
  8 27  1  0  0  0  0
  9 28  1  0  0  0  0
  9 29  1  0  0  0  0
  9 30  1  0  0  0  0
 10 31  1  0  0  0  0
 10 32  1  0  0  0  0
 10 33  1  0  0  0  0
 11 12  1  0  0  0  0
 12 13  2  0  0  0  0
 12 14  1  0  0  0  0
 13 16  1  0  0  0  0
 13 34  1  0  0  0  0
 14 17  2  0  0  0  0
 14 35  1  0  0  0  0
 15 16  2  0  0  0  0
 15 17  1  0  0  0  0
 16 36  1  0  0  0  0
 17 37  1  0  0  0  0
M  END
>  <DRUGBANK_ID>
DB00721

>  <SECONDARY_ACCESSION_NUMBERS>
APRD00650; DB05342

>  <COMMON_NAME>
Procaine

>  <CAS_NUMBER>
59-46-1

>  <UNII>
4Z8Y51M438

>  <SYNONYMS>
2-Diethylaminoethyl p-aminobenzoate; 4-aminobenzoic acid 2-diethylaminoethyl ester; Novocaine; p-Aminobenzoic acid 2-diethylaminoethyl ester; Procaina; Procaine; Procainum; Vitamin H3; β-(diethylamino)ethyl 4-aminobenzoate; β-(diethylamino)ethyl p-aminobenzoate

$$$$
