
 OpenBabel10282417133D

 65 67  0  0  0  0  0  0  0  0999 V2000
   -1.1501   -0.5985   -0.1298 C   0  0  0  0  0  0  0  0  0  0  0  0
    0.0590   -1.3254   -0.2012 C   0  0  0  0  0  0  0  0  0  0  0  0
    1.2380   -0.5903   -0.2614 C   0  0  0  0  0  0  0  0  0  0  0  0
    1.1008    0.8000   -0.2336 C   0  0  0  0  0  0  0  0  0  0  0  0
   -0.0063    1.4211   -0.3536 O   0  3  0  0  0  0  0  0  0  0  0  0
   -1.0977    0.7864   -0.1693 C   0  0  0  0  0  0  0  0  0  0  0  0
   -2.3331    1.5034   -0.0760 C   0  0  0  0  0  0  0  0  0  0  0  0
   -3.6417    0.8856    0.0186 C   0  0  0  0  0  0  0  0  0  0  0  0
   -3.6600   -0.5130    0.0144 C   0  0  0  0  0  0  0  0  0  0  0  0
   -2.4265   -1.1974   -0.0109 C   0  0  0  0  0  0  0  0  0  0  0  0
    2.5360   -1.1672   -0.2261 C   0  0  0  0  0  0  0  0  0  0  0  0
    3.7017   -0.3983   -0.0849 C   0  0  0  0  0  0  0  0  0  0  0  0
    3.5832    1.0016   -0.0205 C   0  0  0  0  0  0  0  0  0  0  0  0
    2.2779    1.5589   -0.1067 C   0  0  0  0  0  0  0  0  0  0  0  0
    4.9945   -1.1718    0.0629 C   0  0  0  0  0  0  0  0  0  0  0  0
   -4.8046   -1.4948    0.0528 C   0  0  0  0  0  0  0  0  0  0  0  0
   -4.7614    1.7081    0.1061 N   0  0  0  0  0  0  0  0  0  0  0  0
   -6.1790    1.3580    0.1269 C   0  0  0  0  0  0  0  0  0  0  0  0
   -6.8491    1.6250    1.4586 C   0  0  0  0  0  0  0  0  0  0  0  0
    4.7139    1.7869    0.1314 N   0  0  0  0  0  0  0  0  0  0  0  0
    4.7433    3.2340    0.1916 C   0  0  0  0  0  0  0  0  0  0  0  0
    5.3789    3.6916    1.4898 C   0  0  0  0  0  0  0  0  0  0  0  0
    0.0444   -2.8005   -0.1293 C   0  0  0  0  0  0  0  0  0  0  0  0
   -0.1929   -5.5653    0.2705 C   0  0  0  0  0  0  0  0  0  0  0  0
    0.5905   -4.8413    1.1323 C   0  0  0  0  0  0  0  0  0  0  0  0
    0.6374   -3.4585    0.9828 C   0  0  0  0  0  0  0  0  0  0  0  0
   -0.6689   -3.5628   -1.0700 C   0  0  0  0  0  0  0  0  0  0  0  0
   -0.9314   -4.8918   -0.6968 C   0  0  0  0  0  0  0  0  0  0  0  0
   -1.0565   -2.8961   -2.4121 C   0  0  0  0  0  0  0  0  0  0  0  0
   -1.6200   -3.5916   -3.4318 O   0  0  0  0  0  0  0  0  0  0  0  0
   -1.8130   -4.9983   -3.4584 C   0  0  0  0  0  0  0  0  0  0  0  0
   -0.8065   -1.7267   -2.6389 O   0  0  0  0  0  0  0  0  0  0  0  0
    0.3427    0.0755    3.0212 Cl  0  5  0  0  0  0  0  0  0  0  0  0
   -0.4768   -5.7370   -3.3823 C   0  0  0  0  0  0  0  0  0  0  0  0
   -2.2546    2.5889   -0.0624 H   0  0  0  0  0  0  0  0  0  0  0  0
   -2.4964   -2.2798    0.0639 H   0  0  0  0  0  0  0  0  0  0  0  0
    2.6518   -2.2508   -0.2181 H   0  0  0  0  0  0  0  0  0  0  0  0
    2.1177    2.6228   -0.0029 H   0  0  0  0  0  0  0  0  0  0  0  0
    4.9716   -1.7889    0.9705 H   0  0  0  0  0  0  0  0  0  0  0  0
    5.1321   -1.8334   -0.8000 H   0  0  0  0  0  0  0  0  0  0  0  0
    5.8867   -0.5478    0.1249 H   0  0  0  0  0  0  0  0  0  0  0  0
   -4.7263   -2.1568   -0.8173 H   0  0  0  0  0  0  0  0  0  0  0  0
   -4.7693   -2.0699    0.9826 H   0  0  0  0  0  0  0  0  0  0  0  0
   -5.8245   -1.1787   -0.0179 H   0  0  0  0  0  0  0  0  0  0  0  0
   -4.5941    2.7097    0.1239 H   0  0  0  0  0  0  0  0  0  0  0  0
   -6.7030    1.8219   -0.7149 H   0  0  0  0  0  0  0  0  0  0  0  0
   -6.3904    0.3307   -0.0435 H   0  0  0  0  0  0  0  0  0  0  0  0
   -7.0429    2.6881    1.6055 H   0  0  0  0  0  0  0  0  0  0  0  0
   -7.8114    1.0946    1.4912 H   0  0  0  0  0  0  0  0  0  0  0  0
   -6.2497    1.2408    2.2903 H   0  0  0  0  0  0  0  0  0  0  0  0
    5.6208    1.3387    0.1895 H   0  0  0  0  0  0  0  0  0  0  0  0
    5.3171    3.6068   -0.6628 H   0  0  0  0  0  0  0  0  0  0  0  0
    3.7561    3.6884    0.1239 H   0  0  0  0  0  0  0  0  0  0  0  0
    6.4280    3.3859    1.5504 H   0  0  0  0  0  0  0  0  0  0  0  0
    5.3325    4.7829    1.5560 H   0  0  0  0  0  0  0  0  0  0  0  0
    4.8521    3.2735    2.3542 H   0  0  0  0  0  0  0  0  0  0  0  0
   -0.2484   -6.6504    0.3243 H   0  0  0  0  0  0  0  0  0  0  0  0
    1.1012   -5.3438    1.9480 H   0  0  0  0  0  0  0  0  0  0  0  0
    1.1566   -2.8848    1.7517 H   0  0  0  0  0  0  0  0  0  0  0  0
   -1.6388   -5.5351   -1.1860 H   0  0  0  0  0  0  0  0  0  0  0  0
   -2.5744   -5.2299   -2.7072 H   0  0  0  0  0  0  0  0  0  0  0  0
   -2.3030   -5.2520   -4.3989 H   0  0  0  0  0  0  0  0  0  0  0  0
    0.2258   -5.3642   -2.6314 H   0  0  0  0  0  0  0  0  0  0  0  0
   -0.6383   -6.7968   -3.1768 H   0  0  0  0  0  0  0  0  0  0  0  0
    0.0878   -5.5918   -4.3018 H   0  0  0  0  0  0  0  0  0  0  0  0
  1  2  1  0  0  0  0
  1  6  2  0  0  0  0
  1 10  1  0  0  0  0
  2  3  2  0  0  0  0
  2 23  1  0  0  0  0
  3  4  1  0  0  0  0
  4  5  2  0  0  0  0
  5  6  1  0  0  0  0
  6  7  1  0  0  0  0
  7  8  2  0  0  0  0
  7 35  1  0  0  0  0
  8  9  1  0  0  0  0
  8 17  1  0  0  0  0
  9 10  2  0  0  0  0
  9 16  1  0  0  0  0
 10 36  1  0  0  0  0
 11  3  1  0  0  0  0
 11 12  2  0  0  0  0
 11 37  1  0  0  0  0
 12 13  1  0  0  0  0
 12 15  1  0  0  0  0
 13 14  2  0  0  0  0
 13 20  1  0  0  0  0
 14  4  1  0  0  0  0
 14 38  1  0  0  0  0
 15 39  1  0  0  0  0
 15 40  1  0  0  0  0
 15 41  1  0  0  0  0
 16 42  1  0  0  0  0
 16 43  1  0  0  0  0
 16 44  1  0  0  0  0
 17 18  1  0  0  0  0
 17 45  1  0  0  0  0
 18 19  1  0  0  0  0
 18 46  1  0  0  0  0
 18 47  1  0  0  0  0
 19 48  1  0  0  0  0
 19 49  1  0  0  0  0
 19 50  1  0  0  0  0
 20 21  1  0  0  0  0
 20 51  1  0  0  0  0
 21 22  1  0  0  0  0
 21 52  1  0  0  0  0
 21 53  1  0  0  0  0
 22 54  1  0  0  0  0
 22 55  1  0  0  0  0
 22 56  1  0  0  0  0
 23 27  1  0  0  0  0
 24 25  2  0  0  0  0
 24 28  1  0  0  0  0
 24 57  1  0  0  0  0
 25 26  1  0  0  0  0
 25 58  1  0  0  0  0
 26 23  2  0  0  0  0
 26 59  1  0  0  0  0
 27 28  2  0  0  0  0
 27 29  1  0  0  0  0
 28 60  1  0  0  0  0
 29 30  1  0  0  0  0
 29 32  2  0  0  0  0
 30 31  1  0  0  0  0
 31 34  1  0  0  0  0
 31 61  1  0  0  0  0
 31 62  1  0  0  0  0
 34 63  1  0  0  0  0
 34 64  1  0  0  0  0
 34 65  1  0  0  0  0
M  CHG  2   5   1  33  -1
M  END
>  <DRUGBANK_ID>
DB03825

>  <SECONDARY_ACCESSION_NUMBERS>
EXPT02782

>  <COMMON_NAME>
Rhodamine 6G

>  <CAS_NUMBER>
989-38-8

>  <UNII>
037VRW83CF

>  <SYNONYMS>
Basic red 1; Calcozine rhodamine 6GX; CI basic red 1; R6G

$$$$
