
 OpenBabel10282417133D

 95102  0  0  0  0  0  0  0  0999 V2000
    1.0581    0.1411    0.2027 N   0  0  0  0  0  0  0  0  0  0  0  0
    0.3818    0.8612   -0.7623 C   0  0  0  0  0  0  0  0  0  0  0  0
    0.8480    0.9621   -2.0616 C   0  0  0  0  0  0  0  0  0  0  0  0
    0.1534    1.7002   -3.0011 C   0  0  0  0  0  0  0  0  0  0  0  0
   -1.0209    2.3595   -2.6578 C   0  0  0  0  0  0  0  0  0  0  0  0
   -1.5065    2.2784   -1.3291 C   0  0  0  0  0  0  0  0  0  0  0  0
   -0.7976    1.4963   -0.4130 C   0  0  0  0  0  0  0  0  0  0  0  0
   -2.6825    2.9574   -0.9557 C   0  0  0  0  0  0  0  0  0  0  0  0
   -3.2202    2.9214    0.4272 C   0  0  0  0  0  0  0  0  0  0  0  0
   -2.4493    3.4014    1.4997 C   0  0  0  0  0  0  0  0  0  0  0  0
   -2.8191    3.1201    2.8132 C   0  0  0  0  0  0  0  0  0  0  0  0
   -4.0682    2.5704    3.0804 C   0  0  0  0  0  0  0  0  0  0  0  0
   -4.9420    2.2913    2.0371 C   0  0  0  0  0  0  0  0  0  0  0  0
   -4.4799    2.3564    0.7248 C   0  0  0  0  0  0  0  0  0  0  0  0
   -3.3694    3.6453   -1.9056 N   0  3  0  0  0  0  0  0  0  0  0  0
   -4.6007    4.4294   -1.4556 C   0  0  0  0  0  0  0  0  0  0  0  0
   -4.4392    5.9474   -1.4749 C   0  0  0  0  0  0  0  0  0  0  0  0
   -4.3487    6.4566   -2.8594 C   0  0  0  0  0  0  0  0  0  0  0  0
   -5.6004    5.9576   -3.5692 C   0  0  0  0  0  0  0  0  0  0  0  0
   -6.9262    6.5702   -3.2900 C   0  0  0  0  0  0  0  0  0  0  0  0
   -6.7854    7.9740   -3.7361 C   0  0  0  0  0  0  0  0  0  0  0  0
   -6.5828    8.0995   -5.2273 C   0  0  0  0  0  0  0  0  0  0  0  0
   -6.4379    9.3127   -5.8670 C   0  0  0  0  0  0  0  0  0  0  0  0
   -6.1561    9.1081   -7.1750 N   0  0  0  0  0  0  0  0  0  0  0  0
   -6.1141    7.8008   -7.3986 N   0  0  0  0  0  0  0  0  0  0  0  0
   -6.5262    7.1523   -6.2893 N   0  0  0  0  0  0  0  0  0  0  0  0
   -6.5510    5.6924   -6.3517 C   0  0  0  0  0  0  0  0  0  0  0  0
   -7.5181    4.7752   -7.1183 C   0  0  0  0  0  0  0  0  0  0  0  0
   -7.4691    4.7725   -8.6276 N   0  0  0  0  0  0  0  0  0  0  0  0
   -6.9397    3.8216   -9.6525 C   0  0  0  0  0  0  0  0  0  0  0  0
   -7.5377    2.5221  -10.1658 C   0  0  0  0  0  0  0  0  0  0  0  0
   -7.3391    1.0564  -11.4787 C   0  0  0  0  0  0  0  0  0  0  0  0
   -8.6325    1.0212  -12.1130 C   0  0  0  0  0  0  0  0  0  0  0  0
   -9.3644    0.8362  -10.8070 C   0  0  0  0  0  0  0  0  0  0  0  0
   -8.2202    0.7438   -9.4655 C   0  0  0  0  0  0  0  0  0  0  0  0
   -6.6413    1.6913   -9.6580 C   0  0  0  0  0  0  0  0  0  0  0  0
   -5.6612    1.9953  -10.6493 N   0  0  0  0  0  0  0  0  0  0  0  0
   -5.4051    3.2805  -11.1503 C   0  0  0  0  0  0  0  0  0  0  0  0
   -5.8116    4.3091  -10.3058 C   0  0  0  0  0  0  0  0  0  0  0  0
   -5.0791    5.5289  -10.3334 C   0  0  0  0  0  0  0  0  0  0  0  0
   -4.4072    5.8631  -11.4990 C   0  0  0  0  0  0  0  0  0  0  0  0
   -4.4295    4.9707  -12.5795 C   0  0  0  0  0  0  0  0  0  0  0  0
   -4.8165    3.6625  -12.3332 C   0  0  0  0  0  0  0  0  0  0  0  0
   -2.9006    3.6173   -3.2266 C   0  0  0  0  0  0  0  0  0  0  0  0
   -1.7173    3.0576   -3.6377 C   0  0  0  0  0  0  0  0  0  0  0  0
   -1.3219    3.1945   -5.0310 C   0  0  0  0  0  0  0  0  0  0  0  0
   -2.0128    3.9522   -5.9648 C   0  0  0  0  0  0  0  0  0  0  0  0
   -3.1120    4.5943   -5.5374 C   0  0  0  0  0  0  0  0  0  0  0  0
   -3.5900    5.6396   -6.2885 N   0  0  0  0  0  0  0  0  0  0  0  0
   -3.5820    4.1713   -4.2928 C   0  0  0  0  0  0  0  0  0  0  0  0
    0.5288   -0.5703    0.6984 H   0  0  0  0  0  0  0  0  0  0  0  0
    2.0279   -0.0842    0.0206 H   0  0  0  0  0  0  0  0  0  0  0  0
    1.7499    0.4543   -2.3797 H   0  0  0  0  0  0  0  0  0  0  0  0
    0.5507    1.7280   -4.0103 H   0  0  0  0  0  0  0  0  0  0  0  0
   -1.1301    1.3875    0.6166 H   0  0  0  0  0  0  0  0  0  0  0  0
   -1.5067    3.9197    1.3237 H   0  0  0  0  0  0  0  0  0  0  0  0
   -2.1291    3.3217    3.6301 H   0  0  0  0  0  0  0  0  0  0  0  0
   -4.3602    2.3614    4.1069 H   0  0  0  0  0  0  0  0  0  0  0  0
   -5.9653    1.9903    2.2505 H   0  0  0  0  0  0  0  0  0  0  0  0
   -5.1405    2.0068   -0.0683 H   0  0  0  0  0  0  0  0  0  0  0  0
   -5.4573    3.9845   -1.9705 H   0  0  0  0  0  0  0  0  0  0  0  0
   -4.8606    4.2706   -0.4169 H   0  0  0  0  0  0  0  0  0  0  0  0
   -5.3284    6.4121   -1.0324 H   0  0  0  0  0  0  0  0  0  0  0  0
   -3.5720    6.2726   -0.9032 H   0  0  0  0  0  0  0  0  0  0  0  0
   -4.2147    7.5288   -2.9942 H   0  0  0  0  0  0  0  0  0  0  0  0
   -3.3887    6.1290   -3.2692 H   0  0  0  0  0  0  0  0  0  0  0  0
   -5.2609    6.1195   -4.5685 H   0  0  0  0  0  0  0  0  0  0  0  0
   -5.9329    4.9161   -3.5064 H   0  0  0  0  0  0  0  0  0  0  0  0
   -7.7302    6.0793   -3.8562 H   0  0  0  0  0  0  0  0  0  0  0  0
   -7.1742    6.3918   -2.2439 H   0  0  0  0  0  0  0  0  0  0  0  0
   -7.6620    8.5235   -3.4092 H   0  0  0  0  0  0  0  0  0  0  0  0
   -5.9429    8.4317   -3.1938 H   0  0  0  0  0  0  0  0  0  0  0  0
   -6.5192   10.3013   -5.4257 H   0  0  0  0  0  0  0  0  0  0  0  0
   -5.5837    5.2964   -6.5937 H   0  0  0  0  0  0  0  0  0  0  0  0
   -6.7569    5.3540   -5.3518 H   0  0  0  0  0  0  0  0  0  0  0  0
   -7.3137    3.7808   -6.6983 H   0  0  0  0  0  0  0  0  0  0  0  0
   -8.4794    5.1445   -6.7363 H   0  0  0  0  0  0  0  0  0  0  0  0
   -7.0613    5.6988   -8.8279 H   0  0  0  0  0  0  0  0  0  0  0  0
   -6.5551    0.9334  -12.2323 H   0  0  0  0  0  0  0  0  0  0  0  0
   -7.1003    0.0018  -10.9888 H   0  0  0  0  0  0  0  0  0  0  0  0
   -8.8291    0.2727  -12.8935 H   0  0  0  0  0  0  0  0  0  0  0  0
   -8.5195    1.9878  -12.6037 H   0  0  0  0  0  0  0  0  0  0  0  0
   -9.9628   -0.0818  -10.8234 H   0  0  0  0  0  0  0  0  0  0  0  0
  -10.0388    1.7014  -10.7585 H   0  0  0  0  0  0  0  0  0  0  0  0
   -7.9370   -0.2894   -9.2683 H   0  0  0  0  0  0  0  0  0  0  0  0
   -8.7563    1.1741   -8.6084 H   0  0  0  0  0  0  0  0  0  0  0  0
   -5.0982    6.2499   -9.5050 H   0  0  0  0  0  0  0  0  0  0  0  0
   -3.9002    6.8147  -11.6057 H   0  0  0  0  0  0  0  0  0  0  0  0
   -4.0936    5.2578  -13.5675 H   0  0  0  0  0  0  0  0  0  0  0  0
   -4.6474    2.8709  -13.0686 H   0  0  0  0  0  0  0  0  0  0  0  0
   -0.4103    2.7610   -5.4169 H   0  0  0  0  0  0  0  0  0  0  0  0
   -1.6744    4.1213   -6.9811 H   0  0  0  0  0  0  0  0  0  0  0  0
   -3.6272    5.5561   -7.3019 H   0  0  0  0  0  0  0  0  0  0  0  0
   -4.1145    6.4363   -5.9486 H   0  0  0  0  0  0  0  0  0  0  0  0
   -4.5896    4.2550   -4.0704 H   0  0  0  0  0  0  0  0  0  0  0  0
  1  2  1  0  0  0  0
  1 51  1  0  0  0  0
  1 52  1  0  0  0  0
  2  3  2  0  0  0  0
  2  7  1  0  0  0  0
  3  4  1  0  0  0  0
  3 53  1  0  0  0  0
  4  5  2  0  0  0  0
  4 54  1  0  0  0  0
  5  6  1  0  0  0  0
  5 45  1  0  0  0  0
  6  7  2  0  0  0  0
  6  8  1  0  0  0  0
  7 55  1  0  0  0  0
  8  9  1  0  0  0  0
  8 15  2  0  0  0  0
  9 10  2  0  0  0  0
  9 14  1  0  0  0  0
 10 11  1  0  0  0  0
 10 56  1  0  0  0  0
 11 12  2  0  0  0  0
 11 57  1  0  0  0  0
 12 13  1  0  0  0  0
 12 58  1  0  0  0  0
 13 14  2  0  0  0  0
 13 59  1  0  0  0  0
 14 60  1  0  0  0  0
 15 16  1  0  0  0  0
 15 44  1  0  0  0  0
 16 17  1  0  0  0  0
 16 61  1  0  0  0  0
 16 62  1  0  0  0  0
 17 18  1  0  0  0  0
 17 63  1  0  0  0  0
 17 64  1  0  0  0  0
 18 19  1  0  0  0  0
 18 65  1  0  0  0  0
 18 66  1  0  0  0  0
 19 20  1  0  0  0  0
 19 67  1  0  0  0  0
 19 68  1  0  0  0  0
 20 21  1  0  0  0  0
 20 69  1  0  0  0  0
 20 70  1  0  0  0  0
 21 22  1  0  0  0  0
 21 71  1  0  0  0  0
 21 72  1  0  0  0  0
 22 23  2  0  0  0  0
 22 26  1  0  0  0  0
 23 24  1  0  0  0  0
 23 73  1  0  0  0  0
 24 25  2  0  0  0  0
 25 26  1  0  0  0  0
 26 27  1  0  0  0  0
 27 28  1  0  0  0  0
 27 74  1  0  0  0  0
 27 75  1  0  0  0  0
 28 29  1  0  0  0  0
 28 76  1  0  0  0  0
 28 77  1  0  0  0  0
 29 30  1  0  0  0  0
 29 78  1  0  0  0  0
 30 31  2  0  0  0  0
 30 39  1  0  0  0  0
 31 32  1  0  0  0  0
 31 36  1  0  0  0  0
 32 33  1  0  0  0  0
 32 79  1  0  0  0  0
 32 80  1  0  0  0  0
 33 34  1  0  0  0  0
 33 81  1  0  0  0  0
 33 82  1  0  0  0  0
 34 35  1  0  0  0  0
 34 83  1  0  0  0  0
 34 84  1  0  0  0  0
 35 36  1  0  0  0  0
 35 85  1  0  0  0  0
 35 86  1  0  0  0  0
 36 37  2  0  0  0  0
 37 38  1  0  0  0  0
 38 39  2  0  0  0  0
 38 43  1  0  0  0  0
 39 40  1  0  0  0  0
 40 41  2  0  0  0  0
 40 87  1  0  0  0  0
 41 42  1  0  0  0  0
 41 88  1  0  0  0  0
 42 43  2  0  0  0  0
 42 89  1  0  0  0  0
 43 90  1  0  0  0  0
 44 45  2  0  0  0  0
 44 50  1  0  0  0  0
 45 46  1  0  0  0  0
 46 47  2  0  0  0  0
 46 91  1  0  0  0  0
 47 48  1  0  0  0  0
 47 92  1  0  0  0  0
 48 49  1  0  0  0  0
 48 50  2  0  0  0  0
 49 93  1  0  0  0  0
 49 94  1  0  0  0  0
 50 95  1  0  0  0  0
M  CHG  1  15   1
M  END
>  <DRUGBANK_ID>
DB03005

>  <SECONDARY_ACCESSION_NUMBERS>
EXPT03147

>  <COMMON_NAME>
3,8-Diamino-6-Phenyl-5-[6-[1-[2-[(1,2,3,4-Tetrahydro-9-Acridinyl)Amino]Ethyl]-1h-1,2,3-Triazol-5-Yl]Hexyl]-Phenanthridinium

$$$$
