
 OpenBabel10282417203D

 32 34  0  0  0  0  0  0  0  0999 V2000
    0.8740   -0.3114   -0.2275 C   0  0  0  0  0  0  0  0  0  0  0  0
    0.5409    0.8932   -1.0221 C   0  0  0  0  0  0  0  0  0  0  0  0
   -0.1438    0.6183   -2.2144 C   0  0  0  0  0  0  0  0  0  0  0  0
   -0.6446    1.6459   -2.9810 C   0  0  0  0  0  0  0  0  0  0  0  0
   -0.2293    2.9474   -2.7245 C   0  0  0  0  0  0  0  0  0  0  0  0
    0.5773    3.2204   -1.5906 C   0  0  0  0  0  0  0  0  0  0  0  0
    0.9155    2.2068   -0.6525 C   0  0  0  0  0  0  0  0  0  0  0  0
    1.8174    2.6567    0.8727 S   0  0  0  0  0  0  0  0  0  0  0  0
    2.0635    1.2763    1.9630 C   0  0  0  0  0  0  0  0  0  0  0  0
    2.9268    0.2270    1.6448 C   0  0  0  0  0  0  0  0  0  0  0  0
    2.7924   -0.9611    2.3478 C   0  0  0  0  0  0  0  0  0  0  0  0
    2.1050   -1.0646    3.4989 N   0  0  0  0  0  0  0  0  0  0  0  0
    1.4794    0.0527    3.9241 C   0  0  0  0  0  0  0  0  0  0  0  0
    1.3590    1.2040    3.1622 C   0  0  0  0  0  0  0  0  0  0  0  0
    1.0847    4.6134   -1.5238 C   0  0  0  0  0  0  0  0  0  0  0  0
    1.8430    5.0566   -0.6588 O   0  0  0  0  0  0  0  0  0  0  0  0
    0.7122    5.4514   -2.5355 N   0  0  0  0  0  0  0  0  0  0  0  0
   -0.0853    5.0965   -3.5739 C   0  0  0  0  0  0  0  0  0  0  0  0
   -0.5795    3.9123   -3.6861 N   0  0  0  0  0  0  0  0  0  0  0  0
   -0.3309    6.0545   -4.4877 N   0  0  0  0  0  0  0  0  0  0  0  0
    0.4369   -1.2501   -0.5637 H   0  0  0  0  0  0  0  0  0  0  0  0
    0.4930   -0.1630    0.7825 H   0  0  0  0  0  0  0  0  0  0  0  0
    1.9468   -0.4372   -0.3456 H   0  0  0  0  0  0  0  0  0  0  0  0
   -0.2841   -0.4133   -2.5349 H   0  0  0  0  0  0  0  0  0  0  0  0
   -1.3170    1.4209   -3.8040 H   0  0  0  0  0  0  0  0  0  0  0  0
    3.5372    0.2545    0.7478 H   0  0  0  0  0  0  0  0  0  0  0  0
    3.1831   -1.8954    1.9493 H   0  0  0  0  0  0  0  0  0  0  0  0
    1.0568   -0.0074    4.9219 H   0  0  0  0  0  0  0  0  0  0  0  0
    0.7237    2.0152    3.4995 H   0  0  0  0  0  0  0  0  0  0  0  0
    1.0920    6.3796   -2.4732 H   0  0  0  0  0  0  0  0  0  0  0  0
   -0.9141    5.8189   -5.2796 H   0  0  0  0  0  0  0  0  0  0  0  0
    0.0294    6.9922   -4.4128 H   0  0  0  0  0  0  0  0  0  0  0  0
  1  2  1  0  0  0  0
  1 21  1  0  0  0  0
  1 22  1  0  0  0  0
  1 23  1  0  0  0  0
  2  3  2  0  0  0  0
  2  7  1  0  0  0  0
  3  4  1  0  0  0  0
  3 24  1  0  0  0  0
  4  5  2  0  0  0  0
  4 25  1  0  0  0  0
  5  6  1  0  0  0  0
  5 19  1  0  0  0  0
  6  7  2  0  0  0  0
  6 15  1  0  0  0  0
  7  8  1  0  0  0  0
  8  9  1  0  0  0  0
  9 10  2  0  0  0  0
  9 14  1  0  0  0  0
 10 11  1  0  0  0  0
 10 26  1  0  0  0  0
 11 12  2  0  0  0  0
 11 27  1  0  0  0  0
 12 13  1  0  0  0  0
 13 14  2  0  0  0  0
 13 28  1  0  0  0  0
 14 29  1  0  0  0  0
 15 16  2  0  0  0  0
 15 17  1  0  0  0  0
 17 18  1  0  0  0  0
 17 30  1  0  0  0  0
 18 19  2  0  0  0  0
 18 20  1  0  0  0  0
 20 31  1  0  0  0  0
 20 32  1  0  0  0  0
M  END
>  <DRUGBANK_ID>
DB12912

>  <COMMON_NAME>
Nolatrexed

>  <CAS_NUMBER>
147149-76-6

>  <UNII>
K75ZUN743Q

>  <SYNONYMS>
Nolatrexed

$$$$
