
 OpenBabel10282417133D

 17 16  0  0  0  0  0  0  0  0999 V2000
    1.0280   -0.0468   -0.0342 C   0  0  0  0  0  0  0  0  0  0  0  0
    0.4535    0.2088   -1.4244 C   0  0  0  0  0  0  0  0  0  0  0  0
    1.0280   -0.6941   -2.5118 C   0  0  0  0  0  0  0  0  0  0  0  0
   -1.3578    0.2115   -1.4251 S   0  0  0  0  0  0  0  0  0  0  0  0
   -1.9194   -1.3814   -1.0089 C   0  0  0  0  0  0  0  0  0  0  0  0
   -1.0904   -2.4094   -0.7403 N   0  0  0  0  0  0  0  0  0  0  0  0
   -3.1939   -1.5315   -0.9697 N   0  0  0  0  0  0  0  0  0  0  0  0
    0.7640   -1.0221    0.3747 H   0  0  0  0  0  0  0  0  0  0  0  0
    0.6805    0.7083    0.6798 H   0  0  0  0  0  0  0  0  0  0  0  0
    2.1215   -0.0019   -0.0582 H   0  0  0  0  0  0  0  0  0  0  0  0
    0.7453    1.2340   -1.6922 H   0  0  0  0  0  0  0  0  0  0  0  0
    0.7640   -1.7448   -2.3914 H   0  0  0  0  0  0  0  0  0  0  0  0
    0.6805   -0.3847   -3.5040 H   0  0  0  0  0  0  0  0  0  0  0  0
    2.1215   -0.6432   -2.5129 H   0  0  0  0  0  0  0  0  0  0  0  0
   -1.4491   -3.3204   -0.5023 H   0  0  0  0  0  0  0  0  0  0  0  0
   -0.0911   -2.3248   -0.7625 H   0  0  0  0  0  0  0  0  0  0  0  0
   -3.4168   -2.4933   -0.7184 H   0  0  0  0  0  0  0  0  0  0  0  0
  1  2  1  0  0  0  0
  1  8  1  0  0  0  0
  1  9  1  0  0  0  0
  1 10  1  0  0  0  0
  2  3  1  0  0  0  0
  2  4  1  0  0  0  0
  2 11  1  0  0  0  0
  3 12  1  0  0  0  0
  3 13  1  0  0  0  0
  3 14  1  0  0  0  0
  4  5  1  0  0  0  0
  5  6  1  0  0  0  0
  5  7  2  0  0  0  0
  6 15  1  0  0  0  0
  6 16  1  0  0  0  0
  7 17  1  0  0  0  0
M  END
>  <DRUGBANK_ID>
DB04018

>  <SECONDARY_ACCESSION_NUMBERS>
EXPT01925

>  <COMMON_NAME>
S-Isopropyl-Isothiourea

$$$$
