
 OpenBabel10282417143D

 41 42  0  0  1  0  0  0  0  0999 V2000
    1.0491   -0.0170   -0.0473 Cl  0  0  0  0  0  0  0  0  0  0  0  0
    4.7962    0.7970    5.0802 O   0  0  0  0  0  0  0  0  0  0  0  0
    2.5762    1.0046    2.0616 O   0  0  0  0  0  0  0  0  0  0  0  0
    3.5079   -0.3278   -4.7263 O   0  5  0  0  0  0  0  0  0  0  0  0
    6.4611    1.1062    2.4700 N   0  0  0  0  0  0  0  0  0  0  0  0
    3.4049    0.5807    1.0062 N   0  0  0  0  0  0  0  0  0  0  0  0
    3.8867   -0.6241   -3.5537 N   0  3  0  0  0  0  0  0  0  0  0  0
    6.0573    1.8523    1.2712 C   0  0  0  0  0  0  0  0  0  0  0  0
    6.7413    2.0010    3.5978 C   0  0  0  0  0  0  0  0  0  0  0  0
    7.0816    2.9123    0.8806 C   0  0  0  0  0  0  0  0  0  0  0  0
    7.7834    3.0540    3.2774 C   0  0  0  0  0  0  0  0  0  0  0  0
    7.3754    3.8490    2.0464 C   0  0  0  0  0  0  0  0  0  0  0  0
    5.4985    0.0455    2.8653 C   0  0  0  0  0  0  0  0  0  0  0  0
    4.2920    0.4241    3.7804 C   0  0  2  0  0  0  0  0  0  0  0  0
    3.3624    1.4909    3.1673 C   0  0  0  0  0  0  0  0  0  0  0  0
    2.7757    0.0551   -0.0106 C   0  0  0  0  0  0  0  0  0  0  0  0
    3.5773   -0.4804   -1.1549 C   0  0  0  0  0  0  0  0  0  0  0  0
    3.1670   -0.1886   -2.4542 C   0  0  0  0  0  0  0  0  0  0  0  0
    4.7329   -1.2507   -0.9688 C   0  0  0  0  0  0  0  0  0  0  0  0
    5.4613   -1.7054   -2.0701 C   0  0  0  0  0  0  0  0  0  0  0  0
    5.0279   -1.3804   -3.3525 C   0  0  0  0  0  0  0  0  0  0  0  0
    4.1119    1.2654    5.5820 H   0  0  0  0  0  0  0  0  0  0  0  0
    5.1128    2.3806    1.4007 H   0  0  0  0  0  0  0  0  0  0  0  0
    5.9295    1.1716    0.4227 H   0  0  0  0  0  0  0  0  0  0  0  0
    7.0945    1.4178    4.4554 H   0  0  0  0  0  0  0  0  0  0  0  0
    5.8407    2.5481    3.8970 H   0  0  0  0  0  0  0  0  0  0  0  0
    6.6919    3.4929    0.0362 H   0  0  0  0  0  0  0  0  0  0  0  0
    8.0024    2.4225    0.5478 H   0  0  0  0  0  0  0  0  0  0  0  0
    8.7551    2.5742    3.1238 H   0  0  0  0  0  0  0  0  0  0  0  0
    7.8744    3.7254    4.1388 H   0  0  0  0  0  0  0  0  0  0  0  0
    8.1682    4.5517    1.7780 H   0  0  0  0  0  0  0  0  0  0  0  0
    6.4783    4.4404    2.2751 H   0  0  0  0  0  0  0  0  0  0  0  0
    6.0799   -0.7261    3.3876 H   0  0  0  0  0  0  0  0  0  0  0  0
    5.1462   -0.4823    1.9779 H   0  0  0  0  0  0  0  0  0  0  0  0
    3.7029   -0.4813    3.9564 H   0  0  0  0  0  0  0  0  0  0  0  0
    3.8823    2.4132    2.8947 H   0  0  0  0  0  0  0  0  0  0  0  0
    2.6596    1.8308    3.9367 H   0  0  0  0  0  0  0  0  0  0  0  0
    2.3065    0.4022   -2.7235 H   0  0  0  0  0  0  0  0  0  0  0  0
    5.0797   -1.5145    0.0280 H   0  0  0  0  0  0  0  0  0  0  0  0
    6.3630   -2.3011   -1.9402 H   0  0  0  0  0  0  0  0  0  0  0  0
    5.5202   -1.6696   -4.2700 H   0  0  0  0  0  0  0  0  0  0  0  0
  1 16  1  0  0  0  0
  2 22  1  0  0  0  0
  3  6  1  0  0  0  0
  3 15  1  0  0  0  0
  4  7  1  0  0  0  0
  5  8  1  0  0  0  0
  5  9  1  0  0  0  0
  5 13  1  0  0  0  0
  6 16  2  3  0  0  0
  7 18  1  0  0  0  0
  7 21  2  0  0  0  0
  8 10  1  0  0  0  0
  8 23  1  0  0  0  0
  8 24  1  0  0  0  0
  9 11  1  0  0  0  0
  9 25  1  0  0  0  0
  9 26  1  0  0  0  0
 10 12  1  0  0  0  0
 10 27  1  0  0  0  0
 10 28  1  0  0  0  0
 11 12  1  0  0  0  0
 11 29  1  0  0  0  0
 11 30  1  0  0  0  0
 12 31  1  0  0  0  0
 12 32  1  0  0  0  0
 13 33  1  0  0  0  0
 13 34  1  0  0  0  0
 14 15  1  0  0  0  0
 14 35  1  1  0  0  0
 14 13  1  0  0  0  0
 14  2  1  0  0  0  0
 15 36  1  0  0  0  0
 15 37  1  0  0  0  0
 16 17  1  0  0  0  0
 17 18  2  0  0  0  0
 17 19  1  0  0  0  0
 18 38  1  0  0  0  0
 19 20  2  0  0  0  0
 19 39  1  0  0  0  0
 20 21  1  0  0  0  0
 20 40  1  0  0  0  0
 21 41  1  0  0  0  0
M  CHG  2   4  -1   7   1
M  END
>  <DRUGBANK_ID>
DB05025

>  <COMMON_NAME>
Arimoclomol

>  <CAS_NUMBER>
289893-25-0

>  <UNII>
EUT3557RT5

>  <SYNONYMS>
Arimoclomol

$$$$
