
 OpenBabel10282417113D

118125  0  0  0  0  0  0  0  0999 V2000
    3.8202   -1.8712   -7.7272 C   0  0  0  0  0  0  0  0  0  0  0  0
    4.5456   -1.8112   -9.0483 C   0  0  0  0  0  0  0  0  0  0  0  0
    4.4813    0.6832   -8.7393 C   0  0  0  0  0  0  0  0  0  0  0  0
    3.0929    1.7647   -6.8215 C   0  0  0  0  0  0  0  0  0  0  0  0
    1.7039    1.6699   -7.3530 C   0  0  0  0  0  0  0  0  0  0  0  0
    1.2569   -2.2846   -7.1913 C   0  0  0  0  0  0  0  0  0  0  0  0
   -0.4804    0.3638   -8.9696 C   0  0  0  0  0  0  0  0  0  0  0  0
    5.4031   -0.5177   -9.1754 C   0  0  1  0  0  0  0  0  0  0  0  0
    3.8077    0.5643   -7.3500 C   0  0  1  0  0  0  0  0  0  0  0  0
    4.7047    0.6098   -6.8389 H   0  0  0  0  0  0  0  0  0  0  0  0
    3.1012   -0.7794   -6.9316 C   0  0  2  0  0  0  0  0  0  0  0  0
    2.7058   -1.0033   -5.2761 C   0  0  0  0  0  0  0  0  0  0  0  0
    1.7976   -0.8867   -7.5513 C   0  0  2  0  0  0  0  0  0  0  0  0
    1.9550   -0.8180   -8.6328 H   0  0  0  0  0  0  0  0  0  0  0  0
   -0.3499    0.1861   -7.4710 C   0  0  1  0  0  0  0  0  0  0  0  0
   -1.0313    1.2316   -6.7955 O   0  0  0  0  0  0  0  0  0  0  0  0
   -0.0970   -2.3694   -7.7559 C   0  0  0  0  0  0  0  0  0  0  0  0
   -0.9613   -1.2174   -7.1980 C   0  0  1  0  0  0  0  0  0  0  0  0
   -1.1990   -1.5047   -5.6986 C   0  0  0  0  0  0  0  0  0  0  0  0
   -3.6115    0.5455   -6.6694 C   0  0  0  0  0  0  0  0  0  0  0  0
   -4.5144   -1.5258   -7.1503 C   0  0  0  0  0  0  0  0  0  0  0  0
   -3.4433   -0.7638   -7.3429 C   0  0  0  0  0  0  0  0  0  0  0  0
   -4.9099    0.4897   -6.1021 O   0  0  0  0  0  0  0  0  0  0  0  0
   -5.4470   -0.7287   -6.3597 C   0  0  0  0  0  0  0  0  0  0  0  0
   -6.5455   -1.1022   -5.9975 O   0  0  0  0  0  0  0  0  0  0  0  0
   -2.2145   -1.1714   -8.0838 C   0  0  1  0  0  0  0  0  0  0  0  0
   -2.3807   -2.1692   -8.5155 H   0  0  0  0  0  0  0  0  0  0  0  0
    1.0461    0.3088   -7.0178 C   0  0  2  0  0  0  0  0  0  0  0  0
    0.9699    0.2880   -5.9328 H   0  0  0  0  0  0  0  0  0  0  0  0
   -1.8664   -0.1924   -9.2383 C   0  0  0  0  0  0  0  0  0  0  0  0
    6.8713   -0.6160   -8.6836 O   0  0  0  0  0  0  0  0  0  0  0  0
    7.1708   -0.8176   -7.2322 C   0  0  2  0  0  0  0  0  0  0  0  0
    8.4549   -0.7446   -6.5571 O   0  0  0  0  0  0  0  0  0  0  0  0
    6.9691   -2.2685   -6.7517 C   0  0  0  0  0  0  0  0  0  0  0  0
    8.4039   -1.1532   -5.1049 C   0  0  2  0  0  0  0  0  0  0  0  0
    9.6034   -0.7117   -4.3655 C   0  0  0  0  0  0  0  0  0  0  0  0
    6.6845   -2.6814   -4.7946 C   0  0  2  0  0  0  0  0  0  0  0  0
    5.2295   -2.6855   -3.7553 O   0  0  0  0  0  0  0  0  0  0  0  0
    7.8734   -2.3026   -4.2284 C   0  0  2  0  0  0  0  0  0  0  0  0
    7.4808   -1.9840   -2.8927 O   0  0  0  0  0  0  0  0  0  0  0  0
    6.6895   -0.7840   -2.7852 C   0  0  1  0  0  0  0  0  0  0  0  0
    7.5211    0.4997   -3.1783 C   0  0  0  0  0  0  0  0  0  0  0  0
    5.3816   -0.6699   -3.4371 O   0  0  0  0  0  0  0  0  0  0  0  0
    5.3505   -0.6106   -4.8541 C   0  0  2  0  0  0  0  0  0  0  0  0
    4.9215   -2.2987   -5.7407 C   0  0  0  0  0  0  0  0  0  0  0  0
    7.1871    1.1913   -4.5561 C   0  0  2  0  0  0  0  0  0  0  0  0
    7.6582    2.5104   -4.6891 O   0  0  0  0  0  0  0  0  0  0  0  0
    5.7898    0.9521   -5.0612 C   0  0  2  0  0  0  0  0  0  0  0  0
    4.7988    1.8659   -4.5053 O   0  0  0  0  0  0  0  0  0  0  0  0
    4.3736    1.7148   -3.1630 C   0  0  1  0  0  0  0  0  0  0  0  0
    5.5412    1.8741   -2.2802 C   0  0  0  0  0  0  0  0  0  0  0  0
    3.5431    2.7359   -2.7020 O   0  0  0  0  0  0  0  0  0  0  0  0
    3.4480    2.5946   -1.2646 C   0  0  2  0  0  0  0  0  0  0  0  0
    2.5891    3.7113   -0.8410 C   0  0  0  0  0  0  0  0  0  0  0  0
    4.7696    2.7526   -0.4387 C   0  0  1  0  0  0  0  0  0  0  0  0
    4.5738    2.5931    0.9494 O   0  0  0  0  0  0  0  0  0  0  0  0
    5.6181    1.6294   -0.8289 C   0  0  1  0  0  0  0  0  0  0  0  0
    5.0407    0.3744   -0.4061 O   0  0  0  0  0  0  0  0  0  0  0  0
    4.6415   -1.3992   -7.3555 H   0  0  0  0  0  0  0  0  0  0  0  0
    3.6930   -2.9041   -7.3762 H   0  0  0  0  0  0  0  0  0  0  0  0
    5.2278   -2.6614   -9.1630 H   0  0  0  0  0  0  0  0  0  0  0  0
    3.7515   -1.8958   -9.7739 H   0  0  0  0  0  0  0  0  0  0  0  0
    5.0800    1.5999   -8.7704 H   0  0  0  0  0  0  0  0  0  0  0  0
    3.6546    0.7663   -9.4498 H   0  0  0  0  0  0  0  0  0  0  0  0
    3.0311    1.7359   -5.7318 H   0  0  0  0  0  0  0  0  0  0  0  0
    3.6355    2.6835   -7.0718 H   0  0  0  0  0  0  0  0  0  0  0  0
    1.1461    2.4929   -6.9103 H   0  0  0  0  0  0  0  0  0  0  0  0
    1.7826    1.7860   -8.4324 H   0  0  0  0  0  0  0  0  0  0  0  0
    1.8465   -3.1071   -7.6079 H   0  0  0  0  0  0  0  0  0  0  0  0
    1.2290   -2.5081   -6.1230 H   0  0  0  0  0  0  0  0  0  0  0  0
   -0.3725    1.4071   -9.2766 H   0  0  0  0  0  0  0  0  0  0  0  0
    0.2644   -0.2081   -9.5378 H   0  0  0  0  0  0  0  0  0  0  0  0
    5.5334   -0.3888  -10.2562 H   0  0  0  0  0  0  0  0  0  0  0  0
    2.1997   -0.1361   -4.8543 H   0  0  0  0  0  0  0  0  0  0  0  0
    2.6214   -2.0566   -5.0016 H   0  0  0  0  0  0  0  0  0  0  0  0
    3.3203   -0.8642   -4.3996 H   0  0  0  0  0  0  0  0  0  0  0  0
   -0.8697    1.1182   -5.8384 H   0  0  0  0  0  0  0  0  0  0  0  0
    0.0312   -2.3196   -8.8411 H   0  0  0  0  0  0  0  0  0  0  0  0
   -0.4980   -3.3547   -7.5078 H   0  0  0  0  0  0  0  0  0  0  0  0
   -1.8375   -0.7710   -5.2193 H   0  0  0  0  0  0  0  0  0  0  0  0
   -1.6690   -2.4831   -5.5666 H   0  0  0  0  0  0  0  0  0  0  0  0
   -0.2791   -1.4851   -5.1050 H   0  0  0  0  0  0  0  0  0  0  0  0
   -3.5312    1.3869   -7.3600 H   0  0  0  0  0  0  0  0  0  0  0  0
   -2.9355    0.7029   -5.8323 H   0  0  0  0  0  0  0  0  0  0  0  0
   -4.6928   -2.5304   -7.4866 H   0  0  0  0  0  0  0  0  0  0  0  0
   -2.5693    0.6402   -9.2830 H   0  0  0  0  0  0  0  0  0  0  0  0
   -1.8794   -0.6945  -10.2089 H   0  0  0  0  0  0  0  0  0  0  0  0
    6.5192   -0.0183   -6.9400 H   0  0  0  0  0  0  0  0  0  0  0  0
    6.1385   -2.3891   -7.4239 H   0  0  0  0  0  0  0  0  0  0  0  0
    7.4992   -3.0193   -7.2970 H   0  0  0  0  0  0  0  0  0  0  0  0
    7.4875   -0.6893   -4.9007 H   0  0  0  0  0  0  0  0  0  0  0  0
    9.9274   -1.5960   -3.8239 H   0  0  0  0  0  0  0  0  0  0  0  0
   10.3220   -0.2482   -5.0041 H   0  0  0  0  0  0  0  0  0  0  0  0
    9.4681    0.0006   -3.5744 H   0  0  0  0  0  0  0  0  0  0  0  0
    6.4775   -3.7054   -4.5845 H   0  0  0  0  0  0  0  0  0  0  0  0
    4.7112   -1.8314   -3.5794 H   0  0  0  0  0  0  0  0  0  0  0  0
    8.3862   -3.2424   -4.3972 H   0  0  0  0  0  0  0  0  0  0  0  0
    6.4090   -0.8574   -1.7186 H   0  0  0  0  0  0  0  0  0  0  0  0
    7.3886    1.4635   -2.7655 H   0  0  0  0  0  0  0  0  0  0  0  0
    8.3288    0.5283   -2.4492 H   0  0  0  0  0  0  0  0  0  0  0  0
    4.4606   -0.2338   -5.2729 H   0  0  0  0  0  0  0  0  0  0  0  0
    4.2444   -3.0426   -5.4065 H   0  0  0  0  0  0  0  0  0  0  0  0
    5.4647   -1.4751   -6.1843 H   0  0  0  0  0  0  0  0  0  0  0  0
    5.6317   -3.3791   -6.1374 H   0  0  0  0  0  0  0  0  0  0  0  0
    7.7585    0.8494   -5.3935 H   0  0  0  0  0  0  0  0  0  0  0  0
    8.6214    2.3634   -4.7363 H   0  0  0  0  0  0  0  0  0  0  0  0
    5.9107    1.3800   -6.0597 H   0  0  0  0  0  0  0  0  0  0  0  0
    3.8283    0.7737   -3.0321 H   0  0  0  0  0  0  0  0  0  0  0  0
    5.8423    0.9127   -2.3850 H   0  0  0  0  0  0  0  0  0  0  0  0
    6.1790    2.7091   -2.6065 H   0  0  0  0  0  0  0  0  0  0  0  0
    2.9999    1.6098   -1.0632 H   0  0  0  0  0  0  0  0  0  0  0  0
    2.6958    3.8510    0.2305 H   0  0  0  0  0  0  0  0  0  0  0  0
    2.9182    4.6064   -1.3760 H   0  0  0  0  0  0  0  0  0  0  0  0
    1.5693    3.4580   -1.1063 H   0  0  0  0  0  0  0  0  0  0  0  0
    5.3108    3.6741   -0.7013 H   0  0  0  0  0  0  0  0  0  0  0  0
    4.2811    1.6610    1.0397 H   0  0  0  0  0  0  0  0  0  0  0  0
    6.6667    1.6176   -0.4813 H   0  0  0  0  0  0  0  0  0  0  0  0
    4.4193    0.0339   -1.0778 H   0  0  0  0  0  0  0  0  0  0  0  0
  1  2  1  0  0  0  0
  1 11  1  0  0  0  0
  1 59  1  0  0  0  0
  1 60  1  0  0  0  0
  2  8  1  0  0  0  0
  2 61  1  0  0  0  0
  2 62  1  0  0  0  0
  3  9  1  0  0  0  0
  3 63  1  0  0  0  0
  3 64  1  0  0  0  0
  4  5  1  0  0  0  0
  4 65  1  0  0  0  0
  4 66  1  0  0  0  0
  5 28  1  0  0  0  0
  5 67  1  0  0  0  0
  5 68  1  0  0  0  0
  6 13  1  0  0  0  0
  6 69  1  0  0  0  0
  6 70  1  0  0  0  0
  7 30  1  0  0  0  0
  7 71  1  0  0  0  0
  7 72  1  0  0  0  0
  8  3  1  0  0  0  0
  8 31  1  0  0  0  0
  8 73  1  6  0  0  0
  9  4  1  0  0  0  0
  9 10  1  1  0  0  0
 11  9  1  0  0  0  0
 11 12  1  1  0  0  0
 12 74  1  0  0  0  0
 12 75  1  0  0  0  0
 12 76  1  0  0  0  0
 13 11  1  0  0  0  0
 13 28  1  0  0  0  0
 13 14  1  6  0  0  0
 15  7  1  0  0  0  0
 15 16  1  1  0  0  0
 16 77  1  0  0  0  0
 17  6  1  0  0  0  0
 17 18  1  0  0  0  0
 17 78  1  0  0  0  0
 17 79  1  0  0  0  0
 18 15  1  0  0  0  0
 18 19  1  1  0  0  0
 19 80  1  0  0  0  0
 19 81  1  0  0  0  0
 19 82  1  0  0  0  0
 20 23  1  0  0  0  0
 20 22  1  0  0  0  0
 20 83  1  0  0  0  0
 20 84  1  0  0  0  0
 21 22  2  0  0  0  0
 21 85  1  0  0  0  0
 23 24  1  0  0  0  0
 24 21  1  0  0  0  0
 24 25  2  0  0  0  0
 26 18  1  0  0  0  0
 26 30  1  0  0  0  0
 26 27  1  6  0  0  0
 26 22  1  0  0  0  0
 28 15  1  0  0  0  0
 28 29  1  1  0  0  0
 30 86  1  0  0  0  0
 30 87  1  0  0  0  0
 32 33  1  0  0  0  0
 32 88  1  1  0  0  0
 32 31  1  0  0  0  0
 34 32  1  0  0  0  0
 34 89  1  0  0  0  0
 34 90  1  0  0  0  0
 35 39  1  0  0  0  0
 35 33  1  0  0  0  0
 35 91  1  1  0  0  0
 35 36  1  0  0  0  0
 36 92  1  0  0  0  0
 36 93  1  0  0  0  0
 36 94  1  0  0  0  0
 37 34  1  0  0  0  0
 37 38  1  0  0  0  0
 37 95  1  6  0  0  0
 38 96  1  0  0  0  0
 39 37  1  0  0  0  0
 39 40  1  0  0  0  0
 39 97  1  6  0  0  0
 41 40  1  0  0  0  0
 41 98  1  1  0  0  0
 42 41  1  0  0  0  0
 42 46  1  0  0  0  0
 42 99  1  0  0  0  0
 42100  1  0  0  0  0
 43 41  1  0  0  0  0
 44 43  1  0  0  0  0
 44 45  1  0  0  0  0
 44101  1  1  0  0  0
 45102  1  0  0  0  0
 45103  1  0  0  0  0
 45104  1  0  0  0  0
 46 48  1  0  0  0  0
 46105  1  6  0  0  0
 46 47  1  0  0  0  0
 47106  1  0  0  0  0
 48 44  1  0  0  0  0
 48107  1  6  0  0  0
 48 49  1  0  0  0  0
 50 52  1  0  0  0  0
 50108  1  1  0  0  0
 50 49  1  0  0  0  0
 51 50  1  0  0  0  0
 51109  1  0  0  0  0
 51110  1  0  0  0  0
 53 55  1  0  0  0  0
 53 52  1  0  0  0  0
 53111  1  1  0  0  0
 53 54  1  0  0  0  0
 54112  1  0  0  0  0
 54113  1  0  0  0  0
 54114  1  0  0  0  0
 55 57  1  0  0  0  0
 55 56  1  0  0  0  0
 55115  1  6  0  0  0
 56116  1  0  0  0  0
 57 51  1  0  0  0  0
 57 58  1  0  0  0  0
 57117  1  1  0  0  0
 58118  1  0  0  0  0
M  END
>  <DRUGBANK_ID>
DB01396

>  <COMMON_NAME>
Digitoxin

>  <CAS_NUMBER>
71-63-6

>  <UNII>
E90NZP2L9U

>  <SYNONYMS>
Digitoksin; Digitoxin; Digitoxina; Digitoxine; Digitoxinum; Digitoxoside

$$$$
