
 OpenBabel10282417183D

 62 64  0  0  0  0  0  0  0  0999 V2000
   -0.5051    2.3611    1.6283 P   0  0  2  0  0  0  0  0  0  0  0  0
   -2.3966    1.7233    1.1392 O   0  0  0  0  0  0  0  0  0  0  0  0
   -1.9095    5.1502   -0.6104 O   0  0  0  0  0  0  0  0  0  0  0  0
    0.7844    1.1670    1.0146 O   0  0  0  0  0  0  0  0  0  0  0  0
   -0.3394    0.8600   -0.6884 O   0  0  0  0  0  0  0  0  0  0  0  0
   -0.6480   -1.4185   -0.4896 O   0  0  0  0  0  0  0  0  0  0  0  0
   -1.6732    2.6675   -2.9832 N   0  0  0  0  0  0  0  0  0  0  0  0
    0.6094    2.1377   -2.4705 N   0  0  0  0  0  0  0  0  0  0  0  0
   -1.5550    1.9800   -5.1166 N   0  0  0  0  0  0  0  0  0  0  0  0
    0.7170    0.9806   -5.5933 N   0  0  0  0  0  0  0  0  0  0  0  0
   -0.7666    0.9660    2.3046 N   0  0  0  0  0  0  0  0  0  0  0  0
    2.4640    0.7089   -3.9152 N   0  0  0  0  0  0  0  0  0  0  0  0
   -1.0545    2.0161   -3.9391 C   0  0  0  0  0  0  0  0  0  0  0  0
    0.2670    1.6163   -3.5476 C   0  0  0  0  0  0  0  0  0  0  0  0
    1.1821    1.0339   -4.3493 C   0  0  0  0  0  0  0  0  0  0  0  0
   -0.5185    2.7097   -2.3983 C   0  0  0  0  0  0  0  0  0  0  0  0
   -2.8633    3.4975   -2.6745 C   0  0  0  0  0  0  0  0  0  0  0  0
   -3.1610    4.2324   -1.3088 C   0  0  1  0  0  0  0  0  0  0  0  0
   -0.2748    4.4292   -0.0426 C   0  0  0  0  0  0  0  0  0  0  0  0
   -0.5714    1.4526   -5.8458 C   0  0  0  0  0  0  0  0  0  0  0  0
   -1.2132   -0.1767    1.4855 C   0  0  2  0  0  0  0  0  0  0  0  0
   -3.8013    2.4572    1.7642 C   0  0  0  0  0  0  0  0  0  0  0  0
   -0.7014   -0.2903    0.0179 C   0  0  0  0  0  0  0  0  0  0  0  0
   -3.9414    4.1396    1.8017 C   0  0  0  0  0  0  0  0  0  0  0  0
   -4.8913    1.6896    1.3724 C   0  0  0  0  0  0  0  0  0  0  0  0
   -3.4932    2.9152   -0.6002 C   0  0  0  0  0  0  0  0  0  0  0  0
   -2.6685   -0.4415    1.7515 C   0  0  0  0  0  0  0  0  0  0  0  0
   -5.1011    4.8198    1.8011 C   0  0  0  0  0  0  0  0  0  0  0  0
   -5.9888    2.3996    1.7145 C   0  0  0  0  0  0  0  0  0  0  0  0
   -6.0570    3.8604    1.9721 C   0  0  0  0  0  0  0  0  0  0  0  0
    0.2283    2.4292   -0.2501 C   0  0  0  0  0  0  0  0  0  0  0  0
   -1.5371    3.1633    0.1924 C   0  0  0  0  0  0  0  0  0  0  0  0
    1.4339    3.0306    1.2144 C   0  0  0  0  0  0  0  0  0  0  0  0
    0.2151    0.7017    2.3493 H   0  0  0  0  0  0  0  0  0  0  0  0
    2.7542    0.7802   -2.9353 H   0  0  0  0  0  0  0  0  0  0  0  0
    3.0610    0.2771   -4.5890 H   0  0  0  0  0  0  0  0  0  0  0  0
   -0.7130    3.2508   -1.6448 H   0  0  0  0  0  0  0  0  0  0  0  0
   -3.6710    2.7421   -2.6912 H   0  0  0  0  0  0  0  0  0  0  0  0
   -2.8349    4.3363   -3.3304 H   0  0  0  0  0  0  0  0  0  0  0  0
   -4.0903    4.7917   -1.0650 H   0  0  0  0  0  0  0  0  0  0  0  0
    0.4082    5.2109    0.1228 H   0  0  0  0  0  0  0  0  0  0  0  0
   -0.1804    4.5207   -1.2343 H   0  0  0  0  0  0  0  0  0  0  0  0
   -0.9338    1.4053   -6.8316 H   0  0  0  0  0  0  0  0  0  0  0  0
   -0.6981   -0.9302    2.0425 H   0  0  0  0  0  0  0  0  0  0  0  0
   -3.2283    4.8920    1.3154 H   0  0  0  0  0  0  0  0  0  0  0  0
   -4.9215    0.7104    0.8566 H   0  0  0  0  0  0  0  0  0  0  0  0
   -3.2683    3.4081    0.2968 H   0  0  0  0  0  0  0  0  0  0  0  0
   -4.2593    2.2278   -0.7167 H   0  0  0  0  0  0  0  0  0  0  0  0
   -2.6843    1.9183   -0.7490 H   0  0  0  0  0  0  0  0  0  0  0  0
   -3.0799   -1.1386    1.0442 H   0  0  0  0  0  0  0  0  0  0  0  0
   -2.9954    0.0195    2.7006 H   0  0  0  0  0  0  0  0  0  0  0  0
   -3.3552    0.1932    1.2717 H   0  0  0  0  0  0  0  0  0  0  0  0
   -5.0705    5.9175    1.8394 H   0  0  0  0  0  0  0  0  0  0  0  0
   -6.8219    1.7629    1.9413 H   0  0  0  0  0  0  0  0  0  0  0  0
   -6.9571    4.1979    2.4272 H   0  0  0  0  0  0  0  0  0  0  0  0
    0.8645    3.0016   -0.8869 H   0  0  0  0  0  0  0  0  0  0  0  0
   -2.0162    3.2436    1.3746 H   0  0  0  0  0  0  0  0  0  0  0  0
   -1.6127    4.1915    0.8896 H   0  0  0  0  0  0  0  0  0  0  0  0
   -1.8232    3.1755   -0.7688 H   0  0  0  0  0  0  0  0  0  0  0  0
    2.4402    2.7238    1.1774 H   0  0  0  0  0  0  0  0  0  0  0  0
    0.9909    3.9706    1.6101 H   0  0  0  0  0  0  0  0  0  0  0  0
    1.3264    2.2870    2.2382 H   0  0  0  0  0  0  0  0  0  0  0  0
  1  2  1  0  0  0  0
  1  4  2  6  0  0  0
  1 11  1  0  0  0  0
  1 19  1  0  0  0  0
  2 22  1  0  0  0  0
  3 18  1  0  0  0  0
  3 19  1  0  0  0  0
  5 23  1  0  0  0  0
  5 31  1  0  0  0  0
  6 23  2  0  0  0  0
  7 13  1  0  0  0  0
  7 16  1  0  0  0  0
  7 17  1  0  0  0  0
  8 14  1  0  0  0  0
  8 16  2  0  0  0  0
  9 13  2  0  0  0  0
  9 20  1  0  0  0  0
 10 15  1  0  0  0  0
 10 20  2  0  0  0  0
 11 34  1  0  0  0  0
 12 15  1  0  0  0  0
 12 35  1  0  0  0  0
 12 36  1  0  0  0  0
 13 14  1  0  0  0  0
 14 15  2  0  0  0  0
 16 37  1  0  0  0  0
 17 18  1  0  0  0  0
 17 38  1  0  0  0  0
 17 39  1  0  0  0  0
 18 26  1  0  0  0  0
 18 40  1  6  0  0  0
 19 41  1  0  0  0  0
 19 42  1  0  0  0  0
 20 43  1  0  0  0  0
 21 27  1  0  0  0  0
 21 44  1  1  0  0  0
 21 23  1  0  0  0  0
 21 11  1  0  0  0  0
 22 24  2  0  0  0  0
 22 25  1  0  0  0  0
 24 28  1  0  0  0  0
 24 45  1  0  0  0  0
 25 29  2  0  0  0  0
 25 46  1  0  0  0  0
 26 47  1  0  0  0  0
 26 48  1  0  0  0  0
 26 49  1  0  0  0  0
 27 50  1  0  0  0  0
 27 51  1  0  0  0  0
 27 52  1  0  0  0  0
 28 30  2  0  0  0  0
 28 53  1  0  0  0  0
 29 30  1  0  0  0  0
 29 54  1  0  0  0  0
 30 55  1  0  0  0  0
 31 32  1  0  0  0  0
 31 33  1  0  0  0  0
 31 56  1  0  0  0  0
 32 57  1  0  0  0  0
 32 58  1  0  0  0  0
 32 59  1  0  0  0  0
 33 60  1  0  0  0  0
 33 61  1  0  0  0  0
 33 62  1  0  0  0  0
M  END
>  <DRUGBANK_ID>
DB09299

>  <COMMON_NAME>
Tenofovir alafenamide

>  <CAS_NUMBER>
379270-37-8

>  <UNII>
EL9943AG5J

>  <SYNONYMS>
Tenofovir alafenamide

$$$$
