
 OpenBabel10282417143D

 42 44  0  0  0  0  0  0  0  0999 V2000
    1.0956    0.0738    0.1484 O   0  0  0  0  0  0  0  0  0  0  0  0
    0.3565    1.2238    0.0812 C   0  0  0  0  0  0  0  0  0  0  0  0
    0.4138    2.0905   -1.0008 C   0  0  0  0  0  0  0  0  0  0  0  0
   -0.4664    3.1509   -1.0492 C   0  0  0  0  0  0  0  0  0  0  0  0
   -1.2385    3.4984    0.0708 C   0  0  0  0  0  0  0  0  0  0  0  0
   -1.2390    2.6694    1.2030 C   0  0  0  0  0  0  0  0  0  0  0  0
   -0.5065    1.4688    1.1439 C   0  0  0  0  0  0  0  0  0  0  0  0
   -1.9557    4.6996    0.0657 C   0  0  0  0  0  0  0  0  0  0  0  0
   -2.6237    5.1050    1.2208 C   0  0  0  0  0  0  0  0  0  0  0  0
   -2.6208    4.3099    2.3478 N   0  0  0  0  0  0  0  0  0  0  0  0
   -1.9540    3.1155    2.3265 C   0  0  0  0  0  0  0  0  0  0  0  0
   -1.9438    2.2723    3.5827 C   0  0  0  0  0  0  0  0  0  0  0  0
   -1.8791    5.3332   -1.1413 O   0  0  0  0  0  0  0  0  0  0  0  0
   -3.4210    6.4127    1.3652 C   0  0  0  0  0  0  0  0  0  0  0  0
   -3.5461    7.3079    0.3019 N   0  0  0  0  0  0  0  0  0  0  0  0
   -4.2224    8.5926    0.3787 C   0  0  0  0  0  0  0  0  0  0  0  0
   -3.1914    9.7005    0.1179 C   0  0  0  0  0  0  0  0  0  0  0  0
   -3.4337   10.4495   -0.9893 O   0  0  0  0  0  0  0  0  0  0  0  0
   -3.9860    6.6707    2.4333 O   0  0  0  0  0  0  0  0  0  0  0  0
   -2.1651    9.8426    0.7553 O   0  0  0  0  0  0  0  0  0  0  0  0
    2.4638    0.1709    0.0722 C   0  0  0  0  0  0  0  0  0  0  0  0
    3.1843    1.3675    0.0983 C   0  0  0  0  0  0  0  0  0  0  0  0
    3.1435   -1.0433   -0.0118 C   0  0  0  0  0  0  0  0  0  0  0  0
    4.5525    1.3612   -0.1423 C   0  0  0  0  0  0  0  0  0  0  0  0
    4.5334   -1.0523   -0.1040 C   0  0  0  0  0  0  0  0  0  0  0  0
    5.2284    0.1494   -0.2391 C   0  0  0  0  0  0  0  0  0  0  0  0
    1.1472    1.9860   -1.7936 H   0  0  0  0  0  0  0  0  0  0  0  0
   -0.5049    3.7447   -1.9605 H   0  0  0  0  0  0  0  0  0  0  0  0
   -0.5464    0.7370    1.9454 H   0  0  0  0  0  0  0  0  0  0  0  0
   -2.3731    1.2844    3.3746 H   0  0  0  0  0  0  0  0  0  0  0  0
   -0.9142    2.1275    3.9365 H   0  0  0  0  0  0  0  0  0  0  0  0
   -2.5169    2.7268    4.3930 H   0  0  0  0  0  0  0  0  0  0  0  0
   -2.1583    6.2342   -1.0976 H   0  0  0  0  0  0  0  0  0  0  0  0
   -3.0684    7.2656   -0.5603 H   0  0  0  0  0  0  0  0  0  0  0  0
   -4.9631    8.5764   -0.4271 H   0  0  0  0  0  0  0  0  0  0  0  0
   -4.7150    8.7451    1.3371 H   0  0  0  0  0  0  0  0  0  0  0  0
   -4.2415   10.2586   -1.4997 H   0  0  0  0  0  0  0  0  0  0  0  0
    2.6988    2.3210    0.2810 H   0  0  0  0  0  0  0  0  0  0  0  0
    2.5911   -1.9797    0.0037 H   0  0  0  0  0  0  0  0  0  0  0  0
    5.0832    2.3035   -0.2406 H   0  0  0  0  0  0  0  0  0  0  0  0
    5.0729   -1.9943   -0.0822 H   0  0  0  0  0  0  0  0  0  0  0  0
    6.3012    0.1445   -0.4043 H   0  0  0  0  0  0  0  0  0  0  0  0
  1  2  1  0  0  0  0
  1 21  1  0  0  0  0
  2  3  1  0  0  0  0
  3  4  2  0  0  0  0
  3 27  1  0  0  0  0
  4  5  1  0  0  0  0
  4 28  1  0  0  0  0
  5  6  2  0  0  0  0
  5  8  1  0  0  0  0
  6  7  1  0  0  0  0
  7  2  2  0  0  0  0
  7 29  1  0  0  0  0
  8  9  2  0  0  0  0
  8 13  1  0  0  0  0
  9 10  1  0  0  0  0
  9 14  1  0  0  0  0
 10 11  2  0  0  0  0
 11  6  1  0  0  0  0
 11 12  1  0  0  0  0
 12 30  1  0  0  0  0
 12 31  1  0  0  0  0
 12 32  1  0  0  0  0
 13 33  1  0  0  0  0
 14 15  1  0  0  0  0
 14 19  2  0  0  0  0
 15 16  1  0  0  0  0
 15 34  1  0  0  0  0
 16 17  1  0  0  0  0
 16 35  1  0  0  0  0
 16 36  1  0  0  0  0
 17 18  1  0  0  0  0
 17 20  2  0  0  0  0
 18 37  1  0  0  0  0
 22 21  1  0  0  0  0
 22 38  1  0  0  0  0
 23 21  2  0  0  0  0
 23 39  1  0  0  0  0
 24 22  2  0  0  0  0
 24 40  1  0  0  0  0
 25 23  1  0  0  0  0
 25 41  1  0  0  0  0
 26 24  1  0  0  0  0
 26 25  2  0  0  0  0
 26 42  1  0  0  0  0
M  END
>  <DRUGBANK_ID>
DB04847

>  <COMMON_NAME>
Roxadustat

>  <CAS_NUMBER>
808118-40-3

>  <UNII>
X3O30D9YMX

>  <SYNONYMS>
Roxadustat; Roxadustatum

$$$$
