
 OpenBabel10282417143D

 19 19  0  0  1  0  0  0  0  0999 V2000
    0.9747   -0.0742   -0.0511 C   0  0  0  0  0  0  0  0  0  0  0  0
    0.4625   -0.0831   -1.4887 C   0  0  1  0  0  0  0  0  0  0  0  0
    0.9703   -1.2318   -2.1648 O   0  0  0  0  0  0  0  0  0  0  0  0
   -1.0499   -0.1031   -1.4872 C   0  0  0  0  0  0  0  0  0  0  0  0
   -1.7531   -1.3138   -1.4239 C   0  0  0  0  0  0  0  0  0  0  0  0
   -3.1414   -1.3284   -1.2951 C   0  0  0  0  0  0  0  0  0  0  0  0
   -3.8421   -0.1268   -1.2093 C   0  0  0  0  0  0  0  0  0  0  0  0
   -3.1585    1.0847   -1.2712 C   0  0  0  0  0  0  0  0  0  0  0  0
   -1.7713    1.1007   -1.4332 C   0  0  0  0  0  0  0  0  0  0  0  0
    0.6377   -0.9653    0.4924 H   0  0  0  0  0  0  0  0  0  0  0  0
    0.6221    0.8078    0.4946 H   0  0  0  0  0  0  0  0  0  0  0  0
    2.0688   -0.0860   -0.0267 H   0  0  0  0  0  0  0  0  0  0  0  0
    0.8268    0.7976   -2.0298 H   0  0  0  0  0  0  0  0  0  0  0  0
    1.9388   -1.1982   -2.1041 H   0  0  0  0  0  0  0  0  0  0  0  0
   -1.2113   -2.2577   -1.4591 H   0  0  0  0  0  0  0  0  0  0  0  0
   -3.6681   -2.2759   -1.2434 H   0  0  0  0  0  0  0  0  0  0  0  0
   -4.9222   -0.1388   -1.0908 H   0  0  0  0  0  0  0  0  0  0  0  0
   -3.7042    2.0207   -1.1777 H   0  0  0  0  0  0  0  0  0  0  0  0
   -1.2556    2.0554   -1.4926 H   0  0  0  0  0  0  0  0  0  0  0  0
  1  2  1  0  0  0  0
  1 10  1  0  0  0  0
  1 11  1  0  0  0  0
  1 12  1  0  0  0  0
  2  3  1  0  0  0  0
  2  4  1  0  0  0  0
  2 13  1  6  0  0  0
  3 14  1  0  0  0  0
  4  5  2  0  0  0  0
  4  9  1  0  0  0  0
  5  6  1  0  0  0  0
  5 15  1  0  0  0  0
  6  7  2  0  0  0  0
  6 16  1  0  0  0  0
  7  8  1  0  0  0  0
  7 17  1  0  0  0  0
  8  9  2  0  0  0  0
  8 18  1  0  0  0  0
  9 19  1  0  0  0  0
M  END
>  <DRUGBANK_ID>
DB04784

>  <COMMON_NAME>
(R)-1-phenylethanol

>  <CAS_NUMBER>
1517-69-7

>  <UNII>
36N222W94B

>  <SYNONYMS>
(1R)-1-phenylethanol; (R)-alpha-methylbenzenemethanol; (R)-alpha-methylbenzyl alcohol; (R)-α-methylbenzenemethanol; (R)-α-methylbenzyl alcohol

$$$$
