
 OpenBabel10282417193D

129131  0  0  0  0  0  0  0  0999 V2000
    4.2146    5.3770   -0.5722 O   0  0  0  0  0  0  0  0  0  0  0  0
    4.9227    6.6256   -3.7331 O   0  0  0  0  0  0  0  0  0  0  0  0
    5.9617    5.6830   -2.0090 O   0  0  0  0  0  0  0  0  0  0  0  0
    6.8156    2.9944    2.8343 O   0  0  0  0  0  0  0  0  0  0  0  0
    1.9454    6.4779    2.1813 O   0  0  0  0  0  0  0  0  0  0  0  0
    2.8659    0.0055    1.2067 O   0  0  0  0  0  0  0  0  0  0  0  0
    2.8864    3.3814    6.5004 O   0  0  0  0  0  0  0  0  0  0  0  0
   -1.9958    2.3477    3.2834 O   0  0  0  0  0  0  0  0  0  0  0  0
   -1.4139    7.4808    7.6837 O   0  0  0  0  0  0  0  0  0  0  0  0
   -4.8165    1.0040    6.4141 O   0  0  0  0  0  0  0  0  0  0  0  0
   -3.7366    2.7439    5.4233 O   0  0  0  0  0  0  0  0  0  0  0  0
    3.4624    3.8734   -2.0459 N   0  0  0  0  0  0  0  0  0  0  0  0
    5.4005    3.0598    1.0725 N   0  0  0  0  0  0  0  0  0  0  0  0
    3.7068    5.0426    3.0397 N   0  0  0  0  0  0  0  0  0  0  0  0
    0.8429    5.1256   -0.4260 N   0  0  0  0  0  0  0  0  0  0  0  0
    1.7329    2.2418    1.4956 N   0  0  0  0  0  0  0  0  0  0  0  0
    2.4052    1.7348    5.1817 N   0  0  0  0  0  0  0  0  0  0  0  0
   -1.0502    4.0245    0.0538 N   0  0  0  0  0  0  0  0  0  0  0  0
   -0.7905    2.7562    5.1418 N   0  0  0  0  0  0  0  0  0  0  0  0
   -1.0144    2.2846    9.0706 N   0  0  0  0  0  0  0  0  0  0  0  0
   -1.2753   -0.4529    5.4731 N   0  0  0  0  0  0  0  0  0  0  0  0
   -1.7151    3.6009    7.2221 N   0  0  0  0  0  0  0  0  0  0  0  0
   -3.2077    2.6439    8.4313 N   0  0  0  0  0  0  0  0  0  0  0  0
    4.2057    4.3432   -3.1468 C   0  0  1  0  0  0  0  0  0  0  0  0
    3.0747    4.4389   -4.1322 C   0  0  0  0  0  0  0  0  0  0  0  0
    2.2078    3.1973   -3.8794 C   0  0  0  0  0  0  0  0  0  0  0  0
    2.3781    2.9303   -2.4091 C   0  0  0  0  0  0  0  0  0  0  0  0
    4.1072    4.1849   -0.9039 C   0  0  0  0  0  0  0  0  0  0  0  0
    4.2053    3.0934    0.0373 C   0  0  2  0  0  0  0  0  0  0  0  0
    5.0959    5.6113   -2.8767 C   0  0  0  0  0  0  0  0  0  0  0  0
    4.7022    3.6614    3.4826 C   0  0  1  0  0  0  0  0  0  0  0  0
    3.0039    3.7951    0.5338 C   0  0  0  0  0  0  0  0  0  0  0  0
    4.1649    2.0256    3.6913 C   0  0  2  0  0  0  0  0  0  0  0  0
    5.7053    3.3396    2.4024 C   0  0  0  0  0  0  0  0  0  0  0  0
    2.7611    2.5649    3.3217 C   0  0  0  0  0  0  0  0  0  0  0  0
    1.3038    3.9107   -0.0158 C   0  0  0  0  0  0  0  0  0  0  0  0
    4.4477    1.0557    5.2812 C   0  0  0  0  0  0  0  0  0  0  0  0
    1.3008    4.0807    2.3094 C   0  0  2  0  0  0  0  0  0  0  0  0
    2.3396    5.3318    2.4453 C   0  0  0  0  0  0  0  0  0  0  0  0
    0.9408    2.1937    3.3073 C   0  0  0  0  0  0  0  0  0  0  0  0
    1.3223    4.5870    4.0037 C   0  0  0  0  0  0  0  0  0  0  0  0
    2.2175    0.4813    3.8309 C   0  0  1  0  0  0  0  0  0  0  0  0
    0.0089    3.2145    0.2200 C   0  0  0  0  0  0  0  0  0  0  0  0
    0.8340    0.0394    4.0109 C   0  0  0  0  0  0  0  0  0  0  0  0
    2.3720    0.8589    2.0494 C   0  0  0  0  0  0  0  0  0  0  0  0
    0.0393   -0.7450    3.0377 C   0  0  0  0  0  0  0  0  0  0  0  0
    0.6523    5.5067    4.9172 C   0  0  0  0  0  0  0  0  0  0  0  0
    0.5644    2.6761    6.2179 C   0  0  2  0  0  0  0  0  0  0  0  0
   -0.5152    5.0642   -0.5113 C   0  0  0  0  0  0  0  0  0  0  0  0
    1.9921    2.7126    5.9773 C   0  0  0  0  0  0  0  0  0  0  0  0
    0.6559    1.3624    6.8925 C   0  0  0  0  0  0  0  0  0  0  0  0
    0.3399   -2.1071    3.6349 C   0  0  0  0  0  0  0  0  0  0  0  0
    1.1293    1.2914    8.2607 C   0  0  0  0  0  0  0  0  0  0  0  0
    1.1741    5.6300    6.2519 C   0  0  0  0  0  0  0  0  0  0  0  0
   -0.6381    5.7929    4.6005 C   0  0  0  0  0  0  0  0  0  0  0  0
    0.3623   -2.3981    5.2745 C   0  0  0  0  0  0  0  0  0  0  0  0
    0.4610    2.4086    9.0165 C   0  0  0  0  0  0  0  0  0  0  0  0
   -1.5796    1.9266    4.3744 C   0  0  0  0  0  0  0  0  0  0  0  0
    0.4221    6.1333    7.2484 C   0  0  0  0  0  0  0  0  0  0  0  0
   -1.3530    6.4050    5.5759 C   0  0  0  0  0  0  0  0  0  0  0  0
   -2.0543    0.5851    4.8956 C   0  0  2  0  0  0  0  0  0  0  0  0
   -0.7872    6.6358    6.8375 C   0  0  0  0  0  0  0  0  0  0  0  0
   -2.6034    0.8128    6.2036 C   0  0  0  0  0  0  0  0  0  0  0  0
   -3.7620    1.6242    5.9003 C   0  0  0  0  0  0  0  0  0  0  0  0
   -1.8903    2.8755    8.3391 C   0  0  0  0  0  0  0  0  0  0  0  0
    4.2264    5.9103    3.0900 H   0  0  0  0  0  0  0  0  0  0  0  0
    4.3346    6.4288   -4.4754 H   0  0  0  0  0  0  0  0  0  0  0  0
   -0.7414    7.6367    8.3675 H   0  0  0  0  0  0  0  0  0  0  0  0
   -4.4718    0.2086    6.8735 H   0  0  0  0  0  0  0  0  0  0  0  0
    6.2083    2.6090    0.6677 H   0  0  0  0  0  0  0  0  0  0  0  0
    1.4802    5.8672   -0.6607 H   0  0  0  0  0  0  0  0  0  0  0  0
    1.7494    2.0886    0.5012 H   0  0  0  0  0  0  0  0  0  0  0  0
    3.2158    2.3771    5.1799 H   0  0  0  0  0  0  0  0  0  0  0  0
   -0.7951    3.5526    4.4972 H   0  0  0  0  0  0  0  0  0  0  0  0
   -0.6991   -0.3129    6.2910 H   0  0  0  0  0  0  0  0  0  0  0  0
   -0.6120   -0.7762    4.8491 H   0  0  0  0  0  0  0  0  0  0  0  0
   -2.3621    3.6070    6.4209 H   0  0  0  0  0  0  0  0  0  0  0  0
   -1.1115    3.0095    6.7125 H   0  0  0  0  0  0  0  0  0  0  0  0
   -3.5677    2.0641    9.1632 H   0  0  0  0  0  0  0  0  0  0  0  0
   -3.8150    2.8833    7.6527 H   0  0  0  0  0  0  0  0  0  0  0  0
    4.8986    3.5255   -3.3682 H   0  0  0  0  0  0  0  0  0  0  0  0
    2.4871    5.3442   -3.9208 H   0  0  0  0  0  0  0  0  0  0  0  0
    3.4642    4.4660   -5.1405 H   0  0  0  0  0  0  0  0  0  0  0  0
    1.1586    3.3766   -4.1454 H   0  0  0  0  0  0  0  0  0  0  0  0
    2.5682    2.3295   -4.4272 H   0  0  0  0  0  0  0  0  0  0  0  0
    1.4115    3.1582   -1.9707 H   0  0  0  0  0  0  0  0  0  0  0  0
    2.5813    1.8898   -2.1320 H   0  0  0  0  0  0  0  0  0  0  0  0
    3.9036    2.0614   -0.2064 H   0  0  0  0  0  0  0  0  0  0  0  0
    5.0326    3.9199    4.4941 H   0  0  0  0  0  0  0  0  0  0  0  0
    3.2609    3.0616    1.2239 H   0  0  0  0  0  0  0  0  0  0  0  0
    3.3265    4.7041    1.0039 H   0  0  0  0  0  0  0  0  0  0  0  0
    4.5224    1.3447    2.9036 H   0  0  0  0  0  0  0  0  0  0  0  0
    2.7796    3.3437    3.9606 H   0  0  0  0  0  0  0  0  0  0  0  0
    2.9412    3.2343    2.5964 H   0  0  0  0  0  0  0  0  0  0  0  0
    3.7251    0.1995    5.5406 H   0  0  0  0  0  0  0  0  0  0  0  0
    5.4402    1.0832    5.6481 H   0  0  0  0  0  0  0  0  0  0  0  0
    4.1038    1.5415    6.2298 H   0  0  0  0  0  0  0  0  0  0  0  0
    0.2043    4.2566    2.1881 H   0  0  0  0  0  0  0  0  0  0  0  0
    0.7476    2.1588    4.2784 H   0  0  0  0  0  0  0  0  0  0  0  0
    0.0703    2.6588    2.8344 H   0  0  0  0  0  0  0  0  0  0  0  0
    0.6098    1.3774    2.6453 H   0  0  0  0  0  0  0  0  0  0  0  0
    0.8209    3.8026    4.4029 H   0  0  0  0  0  0  0  0  0  0  0  0
    2.2694    4.6360    4.5319 H   0  0  0  0  0  0  0  0  0  0  0  0
    2.8570   -0.3603    4.0783 H   0  0  0  0  0  0  0  0  0  0  0  0
   -0.2622    2.2987    0.7801 H   0  0  0  0  0  0  0  0  0  0  0  0
    0.7337    0.2337    5.0319 H   0  0  0  0  0  0  0  0  0  0  0  0
    0.0322    0.7277    4.0078 H   0  0  0  0  0  0  0  0  0  0  0  0
   -1.0299   -0.4274    3.0296 H   0  0  0  0  0  0  0  0  0  0  0  0
    0.2057   -0.4645    1.9821 H   0  0  0  0  0  0  0  0  0  0  0  0
    0.4544    3.5551    6.8261 H   0  0  0  0  0  0  0  0  0  0  0  0
   -1.1151    5.7646   -1.0451 H   0  0  0  0  0  0  0  0  0  0  0  0
   -0.3230    1.0649    6.9067 H   0  0  0  0  0  0  0  0  0  0  0  0
    1.2950    0.5821    6.4845 H   0  0  0  0  0  0  0  0  0  0  0  0
   -0.3796   -2.7386    3.1355 H   0  0  0  0  0  0  0  0  0  0  0  0
    1.3788   -2.2079    3.3318 H   0  0  0  0  0  0  0  0  0  0  0  0
    0.8379    0.2745    8.5436 H   0  0  0  0  0  0  0  0  0  0  0  0
    2.2284    1.3383    8.2048 H   0  0  0  0  0  0  0  0  0  0  0  0
    2.0568    5.1499    6.6632 H   0  0  0  0  0  0  0  0  0  0  0  0
   -1.0899    5.4267    3.6808 H   0  0  0  0  0  0  0  0  0  0  0  0
   -0.6488   -2.4408    5.7286 H   0  0  0  0  0  0  0  0  0  0  0  0
    0.7823   -3.3490    5.5720 H   0  0  0  0  0  0  0  0  0  0  0  0
    0.9334   -1.6443    5.8642 H   0  0  0  0  0  0  0  0  0  0  0  0
    0.8912    2.3113   10.0058 H   0  0  0  0  0  0  0  0  0  0  0  0
    0.7941    3.3827    8.6489 H   0  0  0  0  0  0  0  0  0  0  0  0
    0.8155    6.0933    8.2625 H   0  0  0  0  0  0  0  0  0  0  0  0
   -2.3491    6.7009    5.3077 H   0  0  0  0  0  0  0  0  0  0  0  0
   -2.6992    0.1346    4.1450 H   0  0  0  0  0  0  0  0  0  0  0  0
   -2.7267   -0.0999    6.8080 H   0  0  0  0  0  0  0  0  0  0  0  0
   -1.9486    1.3416    6.8416 H   0  0  0  0  0  0  0  0  0  0  0  0
  1 28  2  0  0  0  0
  2 30  1  0  0  0  0
  2 67  1  0  0  0  0
  3 30  2  0  0  0  0
  4 34  2  0  0  0  0
  5 39  2  0  0  0  0
  6 45  2  0  0  0  0
  7 50  2  0  0  0  0
  8 58  2  0  0  0  0
  9 62  1  0  0  0  0
  9 68  1  0  0  0  0
 10 64  1  0  0  0  0
 10 69  1  0  0  0  0
 11 64  2  0  0  0  0
 12 24  1  0  0  0  0
 12 27  1  0  0  0  0
 12 28  1  0  0  0  0
 13 34  1  0  0  0  0
 13 70  1  0  0  0  0
 14 39  1  0  0  0  0
 14 66  1  0  0  0  0
 15 36  1  0  0  0  0
 15 49  1  0  0  0  0
 15 71  1  0  0  0  0
 16 45  1  0  0  0  0
 16 72  1  0  0  0  0
 17 50  1  0  0  0  0
 17 73  1  0  0  0  0
 18 43  1  0  0  0  0
 18 49  2  0  0  0  0
 19 58  1  0  0  0  0
 19 74  1  0  0  0  0
 20 57  1  0  0  0  0
 20 65  2  0  0  0  0
 21 75  1  0  0  0  0
 21 76  1  0  0  0  0
 22 65  1  0  0  0  0
 22 77  1  0  0  0  0
 22 78  1  0  0  0  0
 23 65  1  0  0  0  0
 23 79  1  0  0  0  0
 23 80  1  0  0  0  0
 24 25  1  0  0  0  0
 24 81  1  6  0  0  0
 24 30  1  0  0  0  0
 25 26  1  0  0  0  0
 25 82  1  0  0  0  0
 25 83  1  0  0  0  0
 26 27  1  0  0  0  0
 26 84  1  0  0  0  0
 26 85  1  0  0  0  0
 27 86  1  0  0  0  0
 27 87  1  0  0  0  0
 28 29  1  0  0  0  0
 29 13  1  0  0  0  0
 29 32  1  0  0  0  0
 29 88  1  6  0  0  0
 31 14  1  0  0  0  0
 31 34  1  0  0  0  0
 31 89  1  1  0  0  0
 32 36  1  0  0  0  0
 32 90  1  0  0  0  0
 32 91  1  0  0  0  0
 33 37  1  0  0  0  0
 33 92  1  6  0  0  0
 33 35  1  0  0  0  0
 33 31  1  0  0  0  0
 35 40  1  0  0  0  0
 35 93  1  0  0  0  0
 35 94  1  0  0  0  0
 36 43  2  0  0  0  0
 37 95  1  0  0  0  0
 37 96  1  0  0  0  0
 37 97  1  0  0  0  0
 38 16  1  0  0  0  0
 38 39  1  0  0  0  0
 38 41  1  0  0  0  0
 38 98  1  6  0  0  0
 40 99  1  0  0  0  0
 40100  1  0  0  0  0
 40101  1  0  0  0  0
 41 47  1  0  0  0  0
 41102  1  0  0  0  0
 41103  1  0  0  0  0
 42 17  1  0  0  0  0
 42 44  1  0  0  0  0
 42 45  1  0  0  0  0
 42104  1  1  0  0  0
 43105  1  0  0  0  0
 44 46  1  0  0  0  0
 44106  1  0  0  0  0
 44107  1  0  0  0  0
 46 52  1  0  0  0  0
 46108  1  0  0  0  0
 46109  1  0  0  0  0
 47 54  2  0  0  0  0
 47 55  1  0  0  0  0
 48 19  1  0  0  0  0
 48 50  1  0  0  0  0
 48 51  1  0  0  0  0
 48110  1  1  0  0  0
 49111  1  0  0  0  0
 51 53  1  0  0  0  0
 51112  1  0  0  0  0
 51113  1  0  0  0  0
 52 56  1  0  0  0  0
 52114  1  0  0  0  0
 52115  1  0  0  0  0
 53 57  1  0  0  0  0
 53116  1  0  0  0  0
 53117  1  0  0  0  0
 54 59  1  0  0  0  0
 54118  1  0  0  0  0
 55 60  2  0  0  0  0
 55119  1  0  0  0  0
 56120  1  0  0  0  0
 56121  1  0  0  0  0
 56122  1  0  0  0  0
 57123  1  0  0  0  0
 57124  1  0  0  0  0
 58 61  1  0  0  0  0
 59 62  2  0  0  0  0
 59125  1  0  0  0  0
 60 62  1  0  0  0  0
 60126  1  0  0  0  0
 61 21  1  0  0  0  0
 61 63  1  0  0  0  0
 61127  1  6  0  0  0
 63 64  1  0  0  0  0
 63128  1  0  0  0  0
 63129  1  0  0  0  0
M  END
>  <DRUGBANK_ID>
DB12631

>  <COMMON_NAME>
Aclerastide

>  <CAS_NUMBER>
227803-63-6

>  <UNII>
YYD6UT8T47

>  <SYNONYMS>
1-7-ANGIOTENSIN II, 3-L-NORLEUCINE-5-L-ISOLEUCINE; Aclerastide; ASP-ARG-NLE-TYR-ILE-HIS-PRO; NorLeu3-A(1-7); NORLEU3-ANGIOTENSIN(1-7); NorLeu3-Angiotensin(1-7) [NorLeu3-A(1-7)]

$$$$
