
 OpenBabel10282417183D

219224  0  0  0  0  0  0  0  0999 V2000
   -1.7776    0.7679    1.1178 C   0  0  1  0  0  0  0  0  0  0  0  0
   -3.4596    0.8605    1.1323 C   0  0  2  0  0  0  0  0  0  0  0  0
   -1.0624    1.5334    2.3165 C   0  0  2  0  0  0  0  0  0  0  0  0
   -1.3833   -0.6267    1.0259 O   0  0  0  0  0  0  0  0  0  0  0  0
   -3.4063    2.7569    1.2770 O   0  0  0  0  0  0  0  0  0  0  0  0
   -4.1377    0.1990    2.9507 O   0  0  0  0  0  0  0  0  0  0  0  0
   -1.7235    3.0209    2.6524 C   0  0  2  0  0  0  0  0  0  0  0  0
    0.3379    1.5356    2.2983 O   0  0  0  0  0  0  0  0  0  0  0  0
   -1.5233   -1.2459    2.2887 C   0  0  1  0  0  0  0  0  0  0  0  0
   -3.0920    3.4482    2.8369 C   0  0  1  0  0  0  0  0  0  0  0  0
   -5.3783   -0.8025    2.2791 P   0  0  3  0  0  0  0  0  0  0  0  0
   -1.3832    3.7781    1.4602 C   0  0  0  0  0  0  0  0  0  0  0  0
   -1.6714    3.5354    3.9240 O   0  0  0  0  0  0  0  0  0  0  0  0
    1.0177    2.7234    2.4875 C   0  0  0  0  0  0  0  0  0  0  0  0
   -2.7726   -0.6338    2.5891 C   0  0  1  0  0  0  0  0  0  0  0  0
   -2.0202   -2.6298    2.4062 O   0  0  0  0  0  0  0  0  0  0  0  0
   -3.4574    4.8659    3.8486 C   0  0  0  0  0  0  0  0  0  0  0  0
   -6.5808   -0.7176    3.2734 O   0  0  0  0  0  0  0  0  0  0  0  0
   -5.4408   -0.1951    0.7935 O   0  0  0  0  0  0  0  0  0  0  0  0
   -6.4886   -1.6987    1.6780 O   0  0  0  0  0  0  0  0  0  0  0  0
    0.4315    3.9411    2.9018 N   0  0  0  0  0  0  0  0  0  0  0  0
    2.2187    2.6921    2.3467 O   0  0  0  0  0  0  0  0  0  0  0  0
   -3.9042   -1.8484    3.5948 C   0  0  2  0  0  0  0  0  0  0  0  0
   -3.1716    1.4101    2.6859 N   0  0  0  0  0  0  0  0  0  0  0  0
   -1.9531   -3.1689    3.7676 C   0  0  1  0  0  0  0  0  0  0  0  0
   -4.1353    4.8395    5.0734 O   0  0  0  0  0  0  0  0  0  0  0  0
   -2.9619    5.8985    3.4400 O   0  0  0  0  0  0  0  0  0  0  0  0
   -6.7326   -2.0429    4.0724 C   0  0  0  0  0  0  0  0  0  0  0  0
   -3.3565   -3.1721    4.3612 C   0  0  1  0  0  0  0  0  0  0  0  0
   -4.9332   -1.3379    4.2089 O   0  0  0  0  0  0  0  0  0  0  0  0
   -4.9105    2.0967    2.1909 C   0  0  0  0  0  0  0  0  0  0  0  0
   -1.6342   -4.5024    4.0844 C   0  0  0  0  0  0  0  0  0  0  0  0
   -6.5108   -3.4695    4.3739 C   0  0  2  0  0  0  0  0  0  0  0  0
   -3.3410   -3.7053    5.9160 O   0  0  0  0  0  0  0  0  0  0  0  0
   -5.3470    3.5557    2.2229 C   0  0  0  0  0  0  0  0  0  0  0  0
   -5.9475    1.6169    1.6665 O   0  0  0  0  0  0  0  0  0  0  0  0
   -0.3119   -4.5771    3.5800 O   0  0  0  0  0  0  0  0  0  0  0  0
   -7.9195   -3.7581    4.3863 C   0  0  0  0  0  0  0  0  0  0  0  0
   -5.9537   -4.0663    5.7273 O   0  0  0  0  0  0  0  0  0  0  0  0
   -2.8513   -2.8379    7.2112 C   0  0  1  0  0  0  0  0  0  0  0  0
   -0.4471   -4.3840    2.1914 C   0  0  2  0  0  0  0  0  0  0  0  0
   -8.9158   -2.8006    4.3935 O   0  0  0  0  0  0  0  0  0  0  0  0
   -8.1392   -4.9602    4.4569 O   0  0  0  0  0  0  0  0  0  0  0  0
   -2.3868   -1.3381    7.2878 C   0  0  1  0  0  0  0  0  0  0  0  0
   -2.9748   -3.1398    8.6669 O   0  0  0  0  0  0  0  0  0  0  0  0
   -1.5175   -5.2556    1.8086 O   0  0  0  0  0  0  0  0  0  0  0  0
    0.7126   -4.5171    1.2820 C   0  0  1  0  0  0  0  0  0  0  0  0
   -8.8623   -1.3339    4.5534 C   0  0  0  0  0  0  0  0  0  0  0  0
   -1.4261   -0.2350    8.9403 C   0  0  2  0  0  0  0  0  0  0  0  0
   -2.7646   -0.0176    6.1861 N   0  0  0  0  0  0  0  0  0  0  0  0
   -2.2838   -2.2168    9.8990 C   0  0  1  0  0  0  0  0  0  0  0  0
   -1.1463   -6.6451    2.1532 C   0  0  1  0  0  0  0  0  0  0  0  0
    1.1693   -5.9235    1.4595 C   0  0  2  0  0  0  0  0  0  0  0  0
    0.2482   -4.1898   -0.0304 O   0  0  0  0  0  0  0  0  0  0  0  0
   -8.3977   -0.9724    5.9869 C   0  0  0  0  0  0  0  0  0  0  0  0
   -1.9179   -0.6673   10.1553 C   0  0  1  0  0  0  0  0  0  0  0  0
   -1.7886    1.5836    8.9392 O   0  0  0  0  0  0  0  0  0  0  0  0
   -4.0499    0.4975    5.2675 C   0  0  0  0  0  0  0  0  0  0  0  0
   -2.0745   -3.0021   11.0753 C   0  0  0  0  0  0  0  0  0  0  0  0
    0.0184   -6.8987    1.2011 C   0  0  2  0  0  0  0  0  0  0  0  0
   -0.7999   -7.0610    3.6351 C   0  0  0  0  0  0  0  0  0  0  0  0
    1.6649   -6.0716    2.7889 O   0  0  0  0  0  0  0  0  0  0  0  0
   -6.7768   -1.4281    6.6060 C   0  0  0  0  0  0  0  0  0  0  0  0
   -0.6660   -0.1642   10.5928 O   0  0  0  0  0  0  0  0  0  0  0  0
   -4.4188    1.5174    4.3585 C   0  0  0  0  0  0  0  0  0  0  0  0
   -5.2235    0.3400    4.9232 O   0  0  0  0  0  0  0  0  0  0  0  0
   -0.4888   -6.7010   -0.1298 O   0  0  0  0  0  0  0  0  0  0  0  0
   -1.9118   -7.1208    4.5107 O   0  0  0  0  0  0  0  0  0  0  0  0
   -5.4992   -0.6054    6.4738 C   0  0  0  0  0  0  0  0  0  0  0  0
    0.5296   -0.4660    9.7062 C   0  0  2  0  0  0  0  0  0  0  0  0
   -4.3245   -1.6565    6.1009 C   0  0  0  0  0  0  0  0  0  0  0  0
   -5.4218    1.5421    6.2820 C   0  0  0  0  0  0  0  0  0  0  0  0
    0.6249   -0.0936    8.2816 O   0  0  0  0  0  0  0  0  0  0  0  0
    0.8657   -1.9266    9.5267 C   0  0  1  0  0  0  0  0  0  0  0  0
   -2.4929   -1.3175    5.0671 C   0  0  0  0  0  0  0  0  0  0  0  0
   -0.6671   -0.4343    7.2443 C   0  0  2  0  0  0  0  0  0  0  0  0
    0.3107   -2.7268    8.3606 C   0  0  2  0  0  0  0  0  0  0  0  0
    2.2090   -1.9957    9.1084 O   0  0  0  0  0  0  0  0  0  0  0  0
   -1.8257    0.5446    4.6345 C   0  0  0  0  0  0  0  0  0  0  0  0
   -2.7474    0.3236    7.9504 C   0  0  0  0  0  0  0  0  0  0  0  0
    0.2194   -2.0759    7.0197 C   0  0  1  0  0  0  0  0  0  0  0  0
   -0.9864   -2.7360    8.1487 O   0  0  0  0  0  0  0  0  0  0  0  0
   -0.9480    1.1882    5.3723 C   0  0  0  0  0  0  0  0  0  0  0  0
   -3.5886    1.1815    7.6249 N   0  0  0  0  0  0  0  0  0  0  0  0
   -3.4268   -0.5067    8.7391 O   0  0  0  0  0  0  0  0  0  0  0  0
   -0.2372   -3.1254    6.1408 O   0  0  0  0  0  0  0  0  0  0  0  0
   -1.0389    2.5428    6.0014 C   0  0  0  0  0  0  0  0  0  0  0  0
   -4.9473    0.7269    8.0840 C   0  0  0  0  0  0  0  0  0  0  0  0
   -0.2884    3.0075    7.1359 C   0  0  0  0  0  0  0  0  0  0  0  0
   -0.0957    3.0486    5.0439 C   0  0  0  0  0  0  0  0  0  0  0  0
   -2.3409    3.3142    6.2003 C   0  0  0  0  0  0  0  0  0  0  0  0
   -6.6905    0.6430    7.3405 C   0  0  0  0  0  0  0  0  0  0  0  0
   -5.1786    1.3165    9.1778 C   0  0  0  0  0  0  0  0  0  0  0  0
    0.9215    2.1523    7.2035 C   0  0  0  0  0  0  0  0  0  0  0  0
   -7.6719    1.2026    8.0351 C   0  0  0  0  0  0  0  0  0  0  0  0
   -7.0567    0.6316    6.0809 O   0  0  0  0  0  0  0  0  0  0  0  0
   -6.6179    1.5328    9.0939 C   0  0  0  0  0  0  0  0  0  0  0  0
   -4.1225    1.8851    9.8578 O   0  0  0  0  0  0  0  0  0  0  0  0
    1.9771    2.0737    6.1842 C   0  0  0  0  0  0  0  0  0  0  0  0
    3.0529    3.0181    6.4060 C   0  0  0  0  0  0  0  0  0  0  0  0
    2.0179    1.3707    5.0129 C   0  0  0  0  0  0  0  0  0  0  0  0
    4.2204    2.2565    5.9022 C   0  0  0  0  0  0  0  0  0  0  0  0
    4.9717    2.7273    4.9088 C   0  0  0  0  0  0  0  0  0  0  0  0
    6.0195    1.8570    4.2954 C   0  0  0  0  0  0  0  0  0  0  0  0
    4.7515    4.1326    4.4384 C   0  0  0  0  0  0  0  0  0  0  0  0
    5.8760    1.6926    2.7864 C   0  0  0  0  0  0  0  0  0  0  0  0
    5.9688    2.9904    2.0410 C   0  0  0  0  0  0  0  0  0  0  0  0
    6.9647    3.3489    1.2276 C   0  0  0  0  0  0  0  0  0  0  0  0
    7.0115    4.7184    0.6258 C   0  0  0  0  0  0  0  0  0  0  0  0
    8.0060    2.3455    0.8761 C   0  0  0  0  0  0  0  0  0  0  0  0
   -1.4871    1.4160    0.3337 H   0  0  0  0  0  0  0  0  0  0  0  0
   -4.0466    0.9108    0.2339 H   0  0  0  0  0  0  0  0  0  0  0  0
   -1.0630    0.8096    3.0701 H   0  0  0  0  0  0  0  0  0  0  0  0
   -0.8500   -0.9629    3.0963 H   0  0  0  0  0  0  0  0  0  0  0  0
   -3.4103    2.9609    3.7862 H   0  0  0  0  0  0  0  0  0  0  0  0
   -1.5460    4.7765    1.8100 H   0  0  0  0  0  0  0  0  0  0  0  0
   -0.4233    3.4657    1.1144 H   0  0  0  0  0  0  0  0  0  0  0  0
   -1.8957    3.4404    0.5955 H   0  0  0  0  0  0  0  0  0  0  0  0
   -1.4480    4.3512    4.4205 H   0  0  0  0  0  0  0  0  0  0  0  0
   -3.3945   -1.1948    1.8176 H   0  0  0  0  0  0  0  0  0  0  0  0
   -5.8008    0.7175    0.7426 H   0  0  0  0  0  0  0  0  0  0  0  0
    0.6390    4.8710    3.1950 H   0  0  0  0  0  0  0  0  0  0  0  0
   -0.4928    4.0394    3.2674 H   0  0  0  0  0  0  0  0  0  0  0  0
   -3.8785   -1.1248    4.3099 H   0  0  0  0  0  0  0  0  0  0  0  0
   -2.6927    1.7052    3.4583 H   0  0  0  0  0  0  0  0  0  0  0  0
   -1.0278   -2.7100    4.1818 H   0  0  0  0  0  0  0  0  0  0  0  0
   -4.3823    4.1402    5.7396 H   0  0  0  0  0  0  0  0  0  0  0  0
   -5.9442   -2.3235    4.7540 H   0  0  0  0  0  0  0  0  0  0  0  0
   -6.9433   -1.3785    4.8036 H   0  0  0  0  0  0  0  0  0  0  0  0
   -4.0785   -3.7631    3.8410 H   0  0  0  0  0  0  0  0  0  0  0  0
   -5.5454   -0.4829    4.1862 H   0  0  0  0  0  0  0  0  0  0  0  0
   -1.6798   -4.7002    5.1652 H   0  0  0  0  0  0  0  0  0  0  0  0
   -2.5055   -4.9488    3.5620 H   0  0  0  0  0  0  0  0  0  0  0  0
   -5.8225   -3.8513    3.6421 H   0  0  0  0  0  0  0  0  0  0  0  0
   -5.1839    3.8832    1.1854 H   0  0  0  0  0  0  0  0  0  0  0  0
   -6.3334    3.5834    2.6858 H   0  0  0  0  0  0  0  0  0  0  0  0
   -4.8756    4.1091    2.9410 H   0  0  0  0  0  0  0  0  0  0  0  0
   -6.0702   -3.6635    6.6303 H   0  0  0  0  0  0  0  0  0  0  0  0
   -2.0168   -2.8399    6.6244 H   0  0  0  0  0  0  0  0  0  0  0  0
   -0.4481   -3.3143    2.0357 H   0  0  0  0  0  0  0  0  0  0  0  0
   -3.2776   -0.9564    7.0502 H   0  0  0  0  0  0  0  0  0  0  0  0
    1.4867   -3.8027    1.5738 H   0  0  0  0  0  0  0  0  0  0  0  0
   -8.3708   -0.8592    3.6884 H   0  0  0  0  0  0  0  0  0  0  0  0
   -9.7511   -0.7553    4.3414 H   0  0  0  0  0  0  0  0  0  0  0  0
   -0.8334    0.7524    8.3865 H   0  0  0  0  0  0  0  0  0  0  0  0
   -1.7265   -0.2946    5.9214 H   0  0  0  0  0  0  0  0  0  0  0  0
   -1.2483   -2.3814    9.8167 H   0  0  0  0  0  0  0  0  0  0  0  0
   -2.0134   -7.2480    1.8713 H   0  0  0  0  0  0  0  0  0  0  0  0
    1.9791   -6.0799    0.7623 H   0  0  0  0  0  0  0  0  0  0  0  0
   -0.4810   -4.8152   -0.2265 H   0  0  0  0  0  0  0  0  0  0  0  0
   -8.6246    0.0953    5.8590 H   0  0  0  0  0  0  0  0  0  0  0  0
   -9.0124   -1.2882    6.7965 H   0  0  0  0  0  0  0  0  0  0  0  0
   -2.8418   -0.1828   10.4962 H   0  0  0  0  0  0  0  0  0  0  0  0
   -1.9818    1.8551    7.9411 H   0  0  0  0  0  0  0  0  0  0  0  0
   -2.1031   -4.0056   10.6559 H   0  0  0  0  0  0  0  0  0  0  0  0
   -1.0597   -2.7220   11.4337 H   0  0  0  0  0  0  0  0  0  0  0  0
   -2.8532   -2.4644   11.5697 H   0  0  0  0  0  0  0  0  0  0  0  0
    0.3936   -7.9088    1.3063 H   0  0  0  0  0  0  0  0  0  0  0  0
   -0.3403   -8.0379    3.6492 H   0  0  0  0  0  0  0  0  0  0  0  0
   -0.0887   -6.4639    4.1902 H   0  0  0  0  0  0  0  0  0  0  0  0
    1.0642   -5.5414    3.3608 H   0  0  0  0  0  0  0  0  0  0  0  0
   -6.9659   -2.4622    6.4680 H   0  0  0  0  0  0  0  0  0  0  0  0
   -5.4255    1.1874    3.5668 H   0  0  0  0  0  0  0  0  0  0  0  0
   -4.8011    2.4943    4.3129 H   0  0  0  0  0  0  0  0  0  0  0  0
   -3.5753    0.8938    4.2570 H   0  0  0  0  0  0  0  0  0  0  0  0
   -1.4236   -6.4232   -0.0310 H   0  0  0  0  0  0  0  0  0  0  0  0
   -2.3401   -6.2637    4.5330 H   0  0  0  0  0  0  0  0  0  0  0  0
    1.2526    0.1641   10.2033 H   0  0  0  0  0  0  0  0  0  0  0  0
   -4.4349   -1.7291    7.3256 H   0  0  0  0  0  0  0  0  0  0  0  0
   -4.6890   -2.6587    6.3071 H   0  0  0  0  0  0  0  0  0  0  0  0
   -6.0942    2.0108    5.4773 H   0  0  0  0  0  0  0  0  0  0  0  0
   -5.7433    2.2696    7.0366 H   0  0  0  0  0  0  0  0  0  0  0  0
   -4.5057    2.0947    6.1749 H   0  0  0  0  0  0  0  0  0  0  0  0
    0.6578   -2.3846   10.4789 H   0  0  0  0  0  0  0  0  0  0  0  0
   -1.6296   -1.8257    5.3906 H   0  0  0  0  0  0  0  0  0  0  0  0
   -2.3087   -1.4624    4.0996 H   0  0  0  0  0  0  0  0  0  0  0  0
   -0.1553   -0.2554    6.3688 H   0  0  0  0  0  0  0  0  0  0  0  0
    0.1427   -3.7758    8.5877 H   0  0  0  0  0  0  0  0  0  0  0  0
    2.1899   -1.5681    8.2232 H   0  0  0  0  0  0  0  0  0  0  0  0
   -2.4227    1.4525    5.0014 H   0  0  0  0  0  0  0  0  0  0  0  0
    1.2074   -1.9169    6.6268 H   0  0  0  0  0  0  0  0  0  0  0  0
   -1.3663   -1.9366    8.4409 H   0  0  0  0  0  0  0  0  0  0  0  0
   -0.1886    0.5419    5.0434 H   0  0  0  0  0  0  0  0  0  0  0  0
   -3.1907    1.1311    6.7019 H   0  0  0  0  0  0  0  0  0  0  0  0
   -0.7910   -3.6960    6.7477 H   0  0  0  0  0  0  0  0  0  0  0  0
   -0.2167    4.0802    7.0126 H   0  0  0  0  0  0  0  0  0  0  0  0
   -0.9233    3.0276    7.9831 H   0  0  0  0  0  0  0  0  0  0  0  0
   -0.3058    2.4591    4.1668 H   0  0  0  0  0  0  0  0  0  0  0  0
    0.1679    4.0895    5.0557 H   0  0  0  0  0  0  0  0  0  0  0  0
    0.8218    2.7450    4.7595 H   0  0  0  0  0  0  0  0  0  0  0  0
   -2.9501    3.1555    5.3785 H   0  0  0  0  0  0  0  0  0  0  0  0
   -3.1521    2.9790    6.8018 H   0  0  0  0  0  0  0  0  0  0  0  0
   -2.2301    4.3882    6.1486 H   0  0  0  0  0  0  0  0  0  0  0  0
    1.2245    2.1941    8.2217 H   0  0  0  0  0  0  0  0  0  0  0  0
    0.6077    1.1872    6.9496 H   0  0  0  0  0  0  0  0  0  0  0  0
   -7.8001    1.8848    7.1169 H   0  0  0  0  0  0  0  0  0  0  0  0
   -8.0569    0.1716    7.9748 H   0  0  0  0  0  0  0  0  0  0  0  0
   -6.8691    0.7608    9.7828 H   0  0  0  0  0  0  0  0  0  0  0  0
   -6.6528    2.5939    8.9990 H   0  0  0  0  0  0  0  0  0  0  0  0
   -3.2647    1.5926    9.4153 H   0  0  0  0  0  0  0  0  0  0  0  0
    2.8445    3.9805    5.9110 H   0  0  0  0  0  0  0  0  0  0  0  0
    3.1000    3.1750    7.4717 H   0  0  0  0  0  0  0  0  0  0  0  0
    1.2386    0.8347    4.5139 H   0  0  0  0  0  0  0  0  0  0  0  0
    2.4993    2.0206    4.2782 H   0  0  0  0  0  0  0  0  0  0  0  0
    4.2315    1.1853    6.1468 H   0  0  0  0  0  0  0  0  0  0  0  0
    6.9894    2.2914    4.5553 H   0  0  0  0  0  0  0  0  0  0  0  0
    6.0027    0.8520    4.7481 H   0  0  0  0  0  0  0  0  0  0  0  0
    3.8000    4.2356    3.8894 H   0  0  0  0  0  0  0  0  0  0  0  0
    4.7687    4.8234    5.2770 H   0  0  0  0  0  0  0  0  0  0  0  0
    5.5702    4.4879    3.8279 H   0  0  0  0  0  0  0  0  0  0  0  0
    6.6684    1.0125    2.4644 H   0  0  0  0  0  0  0  0  0  0  0  0
    4.9274    1.2113    2.5389 H   0  0  0  0  0  0  0  0  0  0  0  0
    5.1684    3.7064    2.1783 H   0  0  0  0  0  0  0  0  0  0  0  0
    7.9546    5.2135    0.8753 H   0  0  0  0  0  0  0  0  0  0  0  0
    6.9130    4.6528   -0.4593 H   0  0  0  0  0  0  0  0  0  0  0  0
    6.2009    5.3597    0.9974 H   0  0  0  0  0  0  0  0  0  0  0  0
    8.5545    2.0323    1.7711 H   0  0  0  0  0  0  0  0  0  0  0  0
    7.5174    1.4635    0.4399 H   0  0  0  0  0  0  0  0  0  0  0  0
    8.7090    2.7391    0.1474 H   0  0  0  0  0  0  0  0  0  0  0  0
  1  2  1  0  0  0  0
  1  3  1  0  0  0  0
  1  4  1  0  0  0  0
  1111  1  6  0  0  0
  2  5  1  0  0  0  0
  2112  1  6  0  0  0
  2  6  1  0  0  0  0
  3  7  1  0  0  0  0
  3113  1  1  0  0  0
  3  8  1  0  0  0  0
  5 10  1  0  0  0  0
  6 11  1  0  0  0  0
  7 12  1  0  0  0  0
  7 13  1  1  0  0  0
  7 10  1  0  0  0  0
  8 14  1  0  0  0  0
  9 15  1  0  0  0  0
  9 16  1  0  0  0  0
  9114  1  1  0  0  0
  9  4  1  0  0  0  0
 10 17  1  0  0  0  0
 10115  1  1  0  0  0
 11 18  1  0  0  0  0
 11 19  1  0  0  0  0
 11 20  2  0  0  0  0
 12116  1  0  0  0  0
 12117  1  0  0  0  0
 12118  1  0  0  0  0
 13119  1  0  0  0  0
 14 21  1  0  0  0  0
 14 22  2  0  0  0  0
 15 23  1  0  0  0  0
 15 24  1  0  0  0  0
 15120  1  6  0  0  0
 16 25  1  0  0  0  0
 17 26  1  0  0  0  0
 17 27  2  0  0  0  0
 18 28  1  0  0  0  0
 19121  1  0  0  0  0
 21122  1  0  0  0  0
 21123  1  0  0  0  0
 23 29  1  0  0  0  0
 23124  1  1  0  0  0
 23 30  1  0  0  0  0
 24 31  1  0  0  0  0
 24125  1  0  0  0  0
 25 29  1  0  0  0  0
 25126  1  1  0  0  0
 25 32  1  0  0  0  0
 26127  1  0  0  0  0
 28128  1  0  0  0  0
 28129  1  0  0  0  0
 29 34  1  0  0  0  0
 29130  1  6  0  0  0
 30131  1  0  0  0  0
 31 35  1  0  0  0  0
 31 36  2  0  0  0  0
 32 37  1  0  0  0  0
 32132  1  0  0  0  0
 32133  1  0  0  0  0
 33 39  1  0  0  0  0
 33134  1  6  0  0  0
 33 38  1  0  0  0  0
 33 28  1  0  0  0  0
 35135  1  0  0  0  0
 35136  1  0  0  0  0
 35137  1  0  0  0  0
 38 42  1  0  0  0  0
 38 43  2  0  0  0  0
 39138  1  0  0  0  0
 40 44  1  0  0  0  0
 40 45  1  0  0  0  0
 40139  1  6  0  0  0
 40 34  1  0  0  0  0
 41 37  1  0  0  0  0
 41 46  1  0  0  0  0
 41 47  1  0  0  0  0
 41140  1  6  0  0  0
 42 48  1  0  0  0  0
 44 49  1  0  0  0  0
 44 50  1  0  0  0  0
 44141  1  1  0  0  0
 45 51  1  0  0  0  0
 46 52  1  0  0  0  0
 47 53  1  0  0  0  0
 47 54  1  0  0  0  0
 47142  1  1  0  0  0
 48 55  1  0  0  0  0
 48143  1  0  0  0  0
 48144  1  0  0  0  0
 49 56  1  0  0  0  0
 49145  1  6  0  0  0
 49 57  1  0  0  0  0
 50 58  1  0  0  0  0
 50146  1  0  0  0  0
 51 56  1  0  0  0  0
 51147  1  6  0  0  0
 51 59  1  0  0  0  0
 52 60  1  0  0  0  0
 52 61  1  0  0  0  0
 52148  1  6  0  0  0
 53 62  1  0  0  0  0
 53 60  1  0  0  0  0
 53149  1  6  0  0  0
 54150  1  0  0  0  0
 55 63  1  0  0  0  0
 55151  1  0  0  0  0
 55152  1  0  0  0  0
 56 64  1  0  0  0  0
 56153  1  1  0  0  0
 57154  1  0  0  0  0
 58 65  1  0  0  0  0
 58 66  2  0  0  0  0
 59155  1  0  0  0  0
 59156  1  0  0  0  0
 59157  1  0  0  0  0
 60158  1  1  0  0  0
 60 67  1  0  0  0  0
 61 68  1  0  0  0  0
 61159  1  0  0  0  0
 61160  1  0  0  0  0
 62161  1  0  0  0  0
 63 69  2  0  0  0  0
 63162  1  0  0  0  0
 65163  1  0  0  0  0
 65164  1  0  0  0  0
 65165  1  0  0  0  0
 67166  1  0  0  0  0
 68167  1  0  0  0  0
 69 71  1  0  0  0  0
 69 72  1  0  0  0  0
 70 64  1  0  0  0  0
 70 73  1  0  0  0  0
 70 74  1  0  0  0  0
 70168  1  1  0  0  0
 71 75  1  0  0  0  0
 71169  1  0  0  0  0
 71170  1  0  0  0  0
 72171  1  0  0  0  0
 72172  1  0  0  0  0
 72173  1  0  0  0  0
 73 76  1  0  0  0  0
 74 77  1  0  0  0  0
 74 78  1  0  0  0  0
 74174  1  1  0  0  0
 75 79  1  0  0  0  0
 75175  1  0  0  0  0
 75176  1  0  0  0  0
 76 80  1  0  0  0  0
 76 81  1  0  0  0  0
 76177  1  6  0  0  0
 77 82  1  0  0  0  0
 77 81  1  0  0  0  0
 77178  1  6  0  0  0
 78179  1  0  0  0  0
 79 83  2  0  0  0  0
 79180  1  0  0  0  0
 80 84  1  0  0  0  0
 80 85  2  0  0  0  0
 81 86  1  0  0  0  0
 81181  1  6  0  0  0
 82182  1  0  0  0  0
 83 87  1  0  0  0  0
 83183  1  0  0  0  0
 84 88  1  0  0  0  0
 84184  1  0  0  0  0
 86185  1  0  0  0  0
 87 89  1  0  0  0  0
 87 90  1  0  0  0  0
 87 91  1  0  0  0  0
 88 92  1  0  0  0  0
 88 93  2  0  0  0  0
 89 94  1  0  0  0  0
 89186  1  0  0  0  0
 89187  1  0  0  0  0
 90188  1  0  0  0  0
 90189  1  0  0  0  0
 90190  1  0  0  0  0
 91191  1  0  0  0  0
 91192  1  0  0  0  0
 91193  1  0  0  0  0
 92 95  1  0  0  0  0
 92 96  2  0  0  0  0
 93 97  1  0  0  0  0
 93 98  1  0  0  0  0
 94 99  1  0  0  0  0
 94194  1  0  0  0  0
 94195  1  0  0  0  0
 95 97  1  0  0  0  0
 95196  1  0  0  0  0
 95197  1  0  0  0  0
 97198  1  0  0  0  0
 97199  1  0  0  0  0
 98200  1  0  0  0  0
 99100  1  0  0  0  0
 99101  2  0  0  0  0
100102  1  0  0  0  0
100201  1  0  0  0  0
100202  1  0  0  0  0
101203  1  0  0  0  0
101204  1  0  0  0  0
102103  2  0  0  0  0
102205  1  0  0  0  0
103104  1  0  0  0  0
103105  1  0  0  0  0
104106  1  0  0  0  0
104206  1  0  0  0  0
104207  1  0  0  0  0
105208  1  0  0  0  0
105209  1  0  0  0  0
105210  1  0  0  0  0
106107  1  0  0  0  0
106211  1  0  0  0  0
106212  1  0  0  0  0
107108  2  0  0  0  0
107213  1  0  0  0  0
108109  1  0  0  0  0
108110  1  0  0  0  0
109214  1  0  0  0  0
109215  1  0  0  0  0
109216  1  0  0  0  0
110217  1  0  0  0  0
110218  1  0  0  0  0
110219  1  0  0  0  0
M  END
>  <DRUGBANK_ID>
DB11377

>  <COMMON_NAME>
Bambermycins

>  <CAS_NUMBER>
11015-37-5

>  <UNII>
PP922A42V2

>  <SYNONYMS>
Bambermicina; Bambermycin; Bambermycine; Bambermycins; Bambermycinum; Flavofosfolipol; Moenomycin; Moenomycin A

$$$$
