BIA
 OpenBabel10282417133D

 51 53  0  0  0  0  0  0  0  0999 V2000
   -1.4609   -0.6906    0.5145 N   0  0  0  0  0  0  0  0  0  0  0  0
   -1.8186    3.0028    0.1427 C   0  0  0  0  0  0  0  0  0  0  0  0
   -2.8713   -0.7784    2.3354 C   0  0  0  0  0  0  0  0  0  0  0  0
   -1.6869    2.1276    3.8325 O   0  0  0  0  0  0  0  0  0  0  0  0
   -0.3259    2.1058   -1.9934 C   0  0  0  0  0  0  0  0  0  0  0  0
   -2.1420    2.8661    1.5820 C   0  0  0  0  0  0  0  0  0  0  0  0
   -1.0513    2.6114   -2.8679 O   0  0  0  0  0  0  0  0  0  0  0  0
   -3.4747    2.8730    1.9548 O   0  0  0  0  0  0  0  0  0  0  0  0
   -4.0767   -0.6877    3.0120 C   0  0  0  0  0  0  0  0  0  0  0  0
   -0.4618    2.8803   -0.3360 C   0  0  0  0  0  0  0  0  0  0  0  0
    0.7971    0.4280    0.0319 C   0  0  0  0  0  0  0  0  0  0  0  0
    1.0842    1.6440    3.1721 N   0  3  0  0  0  0  0  0  0  0  0  0
    0.6712   -1.7852    0.0632 C   0  0  0  0  0  0  0  0  0  0  0  0
    2.1575    1.1680    2.6859 O   0  0  0  0  0  0  0  0  0  0  0  0
    0.7390    1.4391    4.3220 O   0  5  0  0  0  0  0  0  0  0  0  0
    0.5137    2.8233    0.8355 C   0  0  0  0  0  0  0  0  0  0  0  0
   -0.9028   -1.8638   -0.1059 C   0  0  0  0  0  0  0  0  0  0  0  0
    0.2394    0.4496   -2.5032 C   0  0  0  0  0  0  0  0  0  0  0  0
    1.4432   -0.6778   -0.5542 N   0  0  0  0  0  0  0  0  0  0  0  0
   -5.0816    0.3827    1.0946 C   0  0  0  0  0  0  0  0  0  0  0  0
   -0.7761    0.4179    0.0368 C   0  0  0  0  0  0  0  0  0  0  0  0
   -3.8295    0.2656    0.4197 C   0  0  0  0  0  0  0  0  0  0  0  0
    1.5125   -0.2634   -1.9584 C   0  0  0  0  0  0  0  0  0  0  0  0
    0.1501    2.4595    2.2377 C   0  0  0  0  0  0  0  0  0  0  0  0
   -2.7394   -0.4452    0.9951 C   0  0  0  0  0  0  0  0  0  0  0  0
   -1.1986    2.5140    2.6032 C   0  0  0  0  0  0  0  0  0  0  0  0
   -6.2882    1.0020    0.4100 C   0  0  0  0  0  0  0  0  0  0  0  0
   -6.2165    2.3522    0.2436 F   0  0  0  0  0  0  0  0  0  0  0  0
   -6.4774    0.4861   -0.8381 F   0  0  0  0  0  0  0  0  0  0  0  0
   -7.4644    0.7798    1.0713 F   0  0  0  0  0  0  0  0  0  0  0  0
   -5.1929   -0.1430    2.3880 C   0  0  0  0  0  0  0  0  0  0  0  0
   -2.6498    2.8641   -0.5668 H   0  0  0  0  0  0  0  0  0  0  0  0
   -1.9683   -1.0788    2.8601 H   0  0  0  0  0  0  0  0  0  0  0  0
   -0.9476    1.8714    4.4387 H   0  0  0  0  0  0  0  0  0  0  0  0
   -3.5060    2.6188    2.9046 H   0  0  0  0  0  0  0  0  0  0  0  0
   -4.1208   -1.0801    4.0201 H   0  0  0  0  0  0  0  0  0  0  0  0
    1.1554    0.4527    1.0335 H   0  0  0  0  0  0  0  0  0  0  0  0
    1.2729    1.2866   -0.4628 H   0  0  0  0  0  0  0  0  0  0  0  0
    0.8148   -1.6258    1.1600 H   0  0  0  0  0  0  0  0  0  0  0  0
    1.1603   -2.7196   -0.1564 H   0  0  0  0  0  0  0  0  0  0  0  0
    1.5900    2.7089    0.6630 H   0  0  0  0  0  0  0  0  0  0  0  0
   -1.3240   -2.7264    0.3918 H   0  0  0  0  0  0  0  0  0  0  0  0
   -1.1470   -1.8631   -1.1684 H   0  0  0  0  0  0  0  0  0  0  0  0
    0.3388    0.4364   -3.6029 H   0  0  0  0  0  0  0  0  0  0  0  0
   -0.5722   -0.2924   -2.3983 H   0  0  0  0  0  0  0  0  0  0  0  0
   -1.2985    0.6439   -0.8830 H   0  0  0  0  0  0  0  0  0  0  0  0
   -1.0181    1.0720    0.8104 H   0  0  0  0  0  0  0  0  0  0  0  0
   -3.7673    0.7972   -0.5332 H   0  0  0  0  0  0  0  0  0  0  0  0
    2.2962    0.5110   -2.0780 H   0  0  0  0  0  0  0  0  0  0  0  0
    1.8972   -1.1111   -2.5315 H   0  0  0  0  0  0  0  0  0  0  0  0
   -6.1401   -0.1285    2.9232 H   0  0  0  0  0  0  0  0  0  0  0  0
  1 17  1  0  0  0  0
  1 21  1  0  0  0  0
  1 25  1  0  0  0  0
  2  6  2  0  0  0  0
  2 10  1  0  0  0  0
  2 32  1  0  0  0  0
  3  9  2  0  0  0  0
  3 25  1  0  0  0  0
  3 33  1  0  0  0  0
  4 26  1  0  0  0  0
  4 34  1  0  0  0  0
  5  7  2  0  0  0  0
  5 10  1  0  0  0  0
  5 18  1  0  0  0  0
  6  8  1  0  0  0  0
  6 26  1  0  0  0  0
  8 35  1  0  0  0  0
  9 31  1  0  0  0  0
  9 36  1  0  0  0  0
 10 16  2  0  0  0  0
 11 19  1  0  0  0  0
 11 21  1  0  0  0  0
 11 37  1  0  0  0  0
 11 38  1  0  0  0  0
 12 14  2  0  0  0  0
 12 15  1  0  0  0  0
 12 24  1  0  0  0  0
 13 17  1  0  0  0  0
 13 19  1  0  0  0  0
 13 39  1  0  0  0  0
 13 40  1  0  0  0  0
 16 24  1  0  0  0  0
 16 41  1  0  0  0  0
 17 42  1  0  0  0  0
 17 43  1  0  0  0  0
 18 23  1  0  0  0  0
 18 44  1  0  0  0  0
 18 45  1  0  0  0  0
 19 23  1  0  0  0  0
 20 22  1  0  0  0  0
 20 27  1  0  0  0  0
 20 31  2  0  0  0  0
 21 46  1  0  0  0  0
 21 47  1  0  0  0  0
 22 25  2  0  0  0  0
 22 48  1  0  0  0  0
 23 49  1  0  0  0  0
 23 50  1  0  0  0  0
 24 26  2  0  0  0  0
 27 28  1  0  0  0  0
 27 29  1  0  0  0  0
 27 30  1  0  0  0  0
 31 51  1  0  0  0  0
M  CHG  2  12   1  15  -1
M  END
>  <DRUGBANK_ID>
DB03336

>  <SECONDARY_ACCESSION_NUMBERS>
EXPT00705

>  <COMMON_NAME>
BIA

>  <UNII>
X6H65DT067

$$$$
