
 OpenBabel10282417133D

 73 74  0  0  0  0  0  0  0  0999 V2000
    0.6599   -0.1901   -0.2193 F   0  0  0  0  0  0  0  0  0  0  0  0
    2.4061   -0.8804    0.8432 F   0  0  0  0  0  0  0  0  0  0  0  0
    2.4254   -0.8992   -1.3095 F   0  0  0  0  0  0  0  0  0  0  0  0
    9.5806    1.3766   -0.6526 O   0  0  0  0  0  0  0  0  0  0  0  0
    5.7955   -0.7936    1.9477 O   0  0  0  0  0  0  0  0  0  0  0  0
    1.9027    2.2556   -0.0922 O   0  0  0  0  0  0  0  0  0  0  0  0
    4.3292    3.6173    1.2752 O   0  0  0  0  0  0  0  0  0  0  0  0
    4.1839   -1.9146    6.3140 O   0  0  0  0  0  0  0  0  0  0  0  0
    8.1400    1.3829    8.8184 O   0  0  0  0  0  0  0  0  0  0  0  0
    6.0373    1.8429    8.1681 O   0  0  0  0  0  0  0  0  0  0  0  0
    7.9854   -0.2339   -0.3928 N   0  0  0  0  0  0  0  0  0  0  0  0
    4.6566    0.4763    0.4169 N   0  0  0  0  0  0  0  0  0  0  0  0
    6.4460    2.7702    0.9790 N   0  0  0  0  0  0  0  0  0  0  0  0
    6.0734   -0.8911    6.9884 N   0  0  0  0  0  0  0  0  0  0  0  0
    6.6391   -0.7247   -0.2156 C   0  0  1  0  0  0  0  0  0  0  0  0
    6.7235   -2.2197   -0.3304 C   0  0  0  0  0  0  0  0  0  0  0  0
    7.5363   -2.2772   -1.6146 C   0  0  0  0  0  0  0  0  0  0  0  0
    8.4736   -1.0297   -1.5436 C   0  0  0  0  0  0  0  0  0  0  0  0
    8.5193    1.0408   -0.0992 C   0  0  0  0  0  0  0  0  0  0  0  0
    7.8839    2.0972    1.0495 C   0  0  2  0  0  0  0  0  0  0  0  0
    5.6749   -0.3446    0.8120 C   0  0  0  0  0  0  0  0  0  0  0  0
    8.0697    1.5772    2.4495 C   0  0  0  0  0  0  0  0  0  0  0  0
    4.0942    1.3513   -0.6103 C   0  0  1  0  0  0  0  0  0  0  0  0
    4.7312    1.0291   -1.8947 C   0  0  0  0  0  0  0  0  0  0  0  0
    9.1824    0.6296    2.7881 C   0  0  0  0  0  0  0  0  0  0  0  0
    8.0685    2.6729    3.5712 C   0  0  0  0  0  0  0  0  0  0  0  0
    2.5768    1.2470   -0.3283 C   0  0  0  0  0  0  0  0  0  0  0  0
    4.0689    1.7277   -3.0037 C   0  0  0  0  0  0  0  0  0  0  0  0
    6.1662    1.5678   -1.8509 C   0  0  0  0  0  0  0  0  0  0  0  0
    5.1429    2.7355    1.6397 C   0  0  0  0  0  0  0  0  0  0  0  0
    2.0138   -0.1634   -0.2484 C   0  0  0  0  0  0  0  0  0  0  0  0
    4.5791    1.7384    2.7879 C   0  0  0  0  0  0  0  0  0  0  0  0
    5.3703    1.8672    3.8468 C   0  0  0  0  0  0  0  0  0  0  0  0
    3.6887    0.6594    3.0130 C   0  0  0  0  0  0  0  0  0  0  0  0
    5.4546    1.0893    4.9488 C   0  0  0  0  0  0  0  0  0  0  0  0
    3.8001   -0.2728    4.0738 C   0  0  0  0  0  0  0  0  0  0  0  0
    4.7721   -0.0767    5.0362 C   0  0  0  0  0  0  0  0  0  0  0  0
    4.9946   -1.0142    6.1383 C   0  0  0  0  0  0  0  0  0  0  0  0
    7.2273    0.0150    7.0443 C   0  0  0  0  0  0  0  0  0  0  0  0
    7.0425    1.1546    8.0614 C   0  0  0  0  0  0  0  0  0  0  0  0
    4.1409    0.7787    1.1736 H   0  0  0  0  0  0  0  0  0  0  0  0
    6.4521    3.4645    0.2274 H   0  0  0  0  0  0  0  0  0  0  0  0
    5.9307   -1.4849    7.7939 H   0  0  0  0  0  0  0  0  0  0  0  0
    8.8909    0.7872    8.6416 H   0  0  0  0  0  0  0  0  0  0  0  0
    6.1307   -0.5347   -1.1346 H   0  0  0  0  0  0  0  0  0  0  0  0
    7.2325   -2.6592    0.5303 H   0  0  0  0  0  0  0  0  0  0  0  0
    5.7166   -2.6512   -0.4171 H   0  0  0  0  0  0  0  0  0  0  0  0
    8.0608   -3.2223   -1.7186 H   0  0  0  0  0  0  0  0  0  0  0  0
    6.8388   -2.1814   -2.4660 H   0  0  0  0  0  0  0  0  0  0  0  0
    9.5251   -1.2844   -1.4458 H   0  0  0  0  0  0  0  0  0  0  0  0
    8.3478   -0.4512   -2.4726 H   0  0  0  0  0  0  0  0  0  0  0  0
    8.5640    2.9701    0.9497 H   0  0  0  0  0  0  0  0  0  0  0  0
    7.2173    0.9054    2.4889 H   0  0  0  0  0  0  0  0  0  0  0  0
    4.3097    2.4124   -0.4660 H   0  0  0  0  0  0  0  0  0  0  0  0
    4.6204   -0.0531   -2.0123 H   0  0  0  0  0  0  0  0  0  0  0  0
   10.0434    1.2058    3.1185 H   0  0  0  0  0  0  0  0  0  0  0  0
    8.8183    0.0130    3.6217 H   0  0  0  0  0  0  0  0  0  0  0  0
    9.4546   -0.0513    1.9848 H   0  0  0  0  0  0  0  0  0  0  0  0
    7.3430    3.5029    3.4380 H   0  0  0  0  0  0  0  0  0  0  0  0
    7.8265    2.1086    4.4812 H   0  0  0  0  0  0  0  0  0  0  0  0
    8.9636    3.2181    3.8290 H   0  0  0  0  0  0  0  0  0  0  0  0
    4.2581    2.7993   -2.8945 H   0  0  0  0  0  0  0  0  0  0  0  0
    4.5307    1.3261   -3.9016 H   0  0  0  0  0  0  0  0  0  0  0  0
    3.0041    1.5212   -2.9533 H   0  0  0  0  0  0  0  0  0  0  0  0
    6.4986    1.4600   -0.8410 H   0  0  0  0  0  0  0  0  0  0  0  0
    6.8290    1.0063   -2.5018 H   0  0  0  0  0  0  0  0  0  0  0  0
    6.3250    2.6379   -1.9780 H   0  0  0  0  0  0  0  0  0  0  0  0
    6.1628    2.4064    3.5090 H   0  0  0  0  0  0  0  0  0  0  0  0
    3.0254    0.2396    2.2769 H   0  0  0  0  0  0  0  0  0  0  0  0
    6.1300    1.4972    5.6654 H   0  0  0  0  0  0  0  0  0  0  0  0
    3.1488   -1.1433    4.0848 H   0  0  0  0  0  0  0  0  0  0  0  0
    8.1043   -0.5881    7.2746 H   0  0  0  0  0  0  0  0  0  0  0  0
    7.5021    0.4483    6.0830 H   0  0  0  0  0  0  0  0  0  0  0  0
  1 31  1  0  0  0  0
  2 31  1  0  0  0  0
  3 31  1  0  0  0  0
  4 19  2  0  0  0  0
  5 21  2  0  0  0  0
  6 27  2  0  0  0  0
  7 30  2  0  0  0  0
  8 38  2  0  0  0  0
  9 40  1  0  0  0  0
  9 44  1  0  0  0  0
 10 40  2  0  0  0  0
 11 15  1  0  0  0  0
 11 18  1  0  0  0  0
 11 19  1  0  0  0  0
 12 21  1  0  0  0  0
 12 41  1  0  0  0  0
 13 30  1  0  0  0  0
 13 42  1  0  0  0  0
 14 38  1  0  0  0  0
 14 39  1  0  0  0  0
 14 43  1  0  0  0  0
 15 16  1  0  0  0  0
 15 21  1  0  0  0  0
 15 45  1  6  0  0  0
 16 17  1  0  0  0  0
 16 46  1  0  0  0  0
 16 47  1  0  0  0  0
 17 18  1  0  0  0  0
 17 48  1  0  0  0  0
 17 49  1  0  0  0  0
 18 50  1  0  0  0  0
 18 51  1  0  0  0  0
 19 20  1  0  0  0  0
 20 13  1  0  0  0  0
 20 22  1  0  0  0  0
 20 52  1  6  0  0  0
 22 25  1  0  0  0  0
 22 26  1  0  0  0  0
 22 53  1  0  0  0  0
 23 12  1  0  0  0  0
 23 24  1  0  0  0  0
 23 27  1  0  0  0  0
 23 54  1  1  0  0  0
 24 28  1  0  0  0  0
 24 29  1  0  0  0  0
 24 55  1  0  0  0  0
 25 56  1  0  0  0  0
 25 57  1  0  0  0  0
 25 58  1  0  0  0  0
 26 59  1  0  0  0  0
 26 60  1  0  0  0  0
 26 61  1  0  0  0  0
 27 31  1  0  0  0  0
 28 62  1  0  0  0  0
 28 63  1  0  0  0  0
 28 64  1  0  0  0  0
 29 65  1  0  0  0  0
 29 66  1  0  0  0  0
 29 67  1  0  0  0  0
 30 32  1  0  0  0  0
 32 33  2  0  0  0  0
 32 34  1  0  0  0  0
 33 35  1  0  0  0  0
 33 68  1  0  0  0  0
 34 36  2  0  0  0  0
 34 69  1  0  0  0  0
 35 37  2  0  0  0  0
 35 70  1  0  0  0  0
 36 37  1  0  0  0  0
 36 71  1  0  0  0  0
 37 38  1  0  0  0  0
 39 40  1  0  0  0  0
 39 72  1  0  0  0  0
 39 73  1  0  0  0  0
M  END
>  <DRUGBANK_ID>
DB03702

>  <SECONDARY_ACCESSION_NUMBERS>
EXPT01482

>  <COMMON_NAME>
N-{4-[(Carboxymethyl)carbamoyl]benzoyl}-L-valyl-N-[(3S)-1,1,1-trifluoro-4-methyl-2-oxo-3-pentanyl]-L-prolinamide

$$$$
