
 OpenBabel10282417173D

 55 58  0  0  0  0  0  0  0  0999 V2000
   -0.0018    0.9892   -0.0317 C   0  0  0  0  0  0  0  0  0  0  0  0
   -1.1989    0.2832   -0.0251 C   0  0  0  0  0  0  0  0  0  0  0  0
   -1.2045   -1.1137   -0.0213 C   0  0  0  0  0  0  0  0  0  0  0  0
   -0.0010   -1.8162   -0.0055 C   0  0  0  0  0  0  0  0  0  0  0  0
    1.2010   -1.1111   -0.0018 C   0  0  0  0  0  0  0  0  0  0  0  0
    1.1967    0.2871   -0.0156 C   0  0  0  0  0  0  0  0  0  0  0  0
    2.3827    0.9057    0.0013 F   0  0  0  0  0  0  0  0  0  0  0  0
   -2.3796    0.9169   -0.0172 F   0  0  0  0  0  0  0  0  0  0  0  0
   -0.0429    2.7444    0.0500 S   0  0  0  0  0  0  0  0  0  0  0  0
   -0.9447    3.1547   -1.3364 N   0  0  0  0  0  0  0  0  0  0  0  0
   -2.0015    4.1315   -1.2112 C   0  0  0  0  0  0  0  0  0  0  0  0
   -3.1067    3.9465   -2.0475 C   0  0  0  0  0  0  0  0  0  0  0  0
   -4.2324    4.7671   -1.9331 C   0  0  0  0  0  0  0  0  0  0  0  0
   -4.2434    5.8151   -1.0152 C   0  0  0  0  0  0  0  0  0  0  0  0
   -3.1058    6.0783   -0.2409 C   0  0  0  0  0  0  0  0  0  0  0  0
   -1.9748    5.2588   -0.3739 C   0  0  0  0  0  0  0  0  0  0  0  0
   -0.8764    5.5359    0.3465 F   0  0  0  0  0  0  0  0  0  0  0  0
   -3.1207    7.1617    0.7278 C   0  0  0  0  0  0  0  0  0  0  0  0
   -2.1934    8.1786    0.6485 N   0  0  0  0  0  0  0  0  0  0  0  0
   -2.3625    9.0409    1.6300 C   0  0  0  0  0  0  0  0  0  0  0  0
   -3.6875    8.6701    2.6828 S   0  0  0  0  0  0  0  0  0  0  0  0
   -4.0221    7.2470    1.7794 C   0  0  0  0  0  0  0  0  0  0  0  0
   -5.0546    6.2948    2.1943 C   0  0  0  0  0  0  0  0  0  0  0  0
   -4.7107    4.9847    2.4553 C   0  0  0  0  0  0  0  0  0  0  0  0
   -5.7553    4.1346    2.6994 C   0  0  0  0  0  0  0  0  0  0  0  0
   -7.0399    4.5270    2.6930 N   0  0  0  0  0  0  0  0  0  0  0  0
   -7.2759    5.8174    2.4304 C   0  0  0  0  0  0  0  0  0  0  0  0
   -6.3323    6.7337    2.1778 N   0  0  0  0  0  0  0  0  0  0  0  0
   -1.4739   10.2722    1.8189 C   0  0  0  0  0  0  0  0  0  0  0  0
   -2.3005   11.5647    1.7203 C   0  0  0  0  0  0  0  0  0  0  0  0
   -0.7429   10.2331    3.1717 C   0  0  0  0  0  0  0  0  0  0  0  0
   -0.4010   10.3098    0.7045 C   0  0  0  0  0  0  0  0  0  0  0  0
   -8.5869    6.1990    2.3836 N   0  0  0  0  0  0  0  0  0  0  0  0
   -0.7908    3.0517    1.2568 O   0  0  0  0  0  0  0  0  0  0  0  0
    1.2873    3.2531   -0.1755 O   0  0  0  0  0  0  0  0  0  0  0  0
   -2.1512   -1.6473   -0.0205 H   0  0  0  0  0  0  0  0  0  0  0  0
    0.0012   -2.9043    0.0111 H   0  0  0  0  0  0  0  0  0  0  0  0
    2.1494   -1.6426    0.0214 H   0  0  0  0  0  0  0  0  0  0  0  0
   -0.3587    3.2669   -2.1662 H   0  0  0  0  0  0  0  0  0  0  0  0
   -3.1213    3.1286   -2.7630 H   0  0  0  0  0  0  0  0  0  0  0  0
   -5.1135    4.5752   -2.5414 H   0  0  0  0  0  0  0  0  0  0  0  0
   -5.1402    6.4254   -0.9096 H   0  0  0  0  0  0  0  0  0  0  0  0
   -3.6863    4.6354    2.4397 H   0  0  0  0  0  0  0  0  0  0  0  0
   -5.5852    3.0811    2.8988 H   0  0  0  0  0  0  0  0  0  0  0  0
   -3.0572   11.6246    2.5098 H   0  0  0  0  0  0  0  0  0  0  0  0
   -1.6599   12.4494    1.8174 H   0  0  0  0  0  0  0  0  0  0  0  0
   -2.8179   11.6320    0.7565 H   0  0  0  0  0  0  0  0  0  0  0  0
   -0.1228    9.3342    3.2646 H   0  0  0  0  0  0  0  0  0  0  0  0
   -0.0845   11.1033    3.2864 H   0  0  0  0  0  0  0  0  0  0  0  0
   -1.4426   10.2445    4.0140 H   0  0  0  0  0  0  0  0  0  0  0  0
    0.2369    9.4179    0.7334 H   0  0  0  0  0  0  0  0  0  0  0  0
   -0.8606   10.3534   -0.2904 H   0  0  0  0  0  0  0  0  0  0  0  0
    0.2513   11.1850    0.8048 H   0  0  0  0  0  0  0  0  0  0  0  0
   -8.7902    7.1793    2.3052 H   0  0  0  0  0  0  0  0  0  0  0  0
   -9.2652    5.5208    2.6886 H   0  0  0  0  0  0  0  0  0  0  0  0
  1  2  2  0  0  0  0
  1  6  1  0  0  0  0
  1  9  1  0  0  0  0
  2  3  1  0  0  0  0
  2  8  1  0  0  0  0
  3  4  2  0  0  0  0
  3 36  1  0  0  0  0
  4  5  1  0  0  0  0
  4 37  1  0  0  0  0
  5  6  2  0  0  0  0
  5 38  1  0  0  0  0
  6  7  1  0  0  0  0
  9 10  1  0  0  0  0
  9 34  2  0  0  0  0
  9 35  2  0  0  0  0
 10 11  1  0  0  0  0
 10 39  1  0  0  0  0
 11 12  2  0  0  0  0
 11 16  1  0  0  0  0
 12 13  1  0  0  0  0
 12 40  1  0  0  0  0
 13 14  2  0  0  0  0
 13 41  1  0  0  0  0
 14 15  1  0  0  0  0
 14 42  1  0  0  0  0
 15 16  2  0  0  0  0
 15 18  1  0  0  0  0
 16 17  1  0  0  0  0
 18 19  1  0  0  0  0
 18 22  2  0  0  0  0
 19 20  2  0  0  0  0
 20 21  1  0  0  0  0
 20 29  1  0  0  0  0
 21 22  1  0  0  0  0
 22 23  1  0  0  0  0
 23 24  1  0  0  0  0
 23 28  2  0  0  0  0
 24 25  2  0  0  0  0
 24 43  1  0  0  0  0
 25 26  1  0  0  0  0
 25 44  1  0  0  0  0
 26 27  2  0  0  0  0
 27 28  1  0  0  0  0
 27 33  1  0  0  0  0
 29 30  1  0  0  0  0
 29 31  1  0  0  0  0
 29 32  1  0  0  0  0
 30 45  1  0  0  0  0
 30 46  1  0  0  0  0
 30 47  1  0  0  0  0
 31 48  1  0  0  0  0
 31 49  1  0  0  0  0
 31 50  1  0  0  0  0
 32 51  1  0  0  0  0
 32 52  1  0  0  0  0
 32 53  1  0  0  0  0
 33 54  1  0  0  0  0
 33 55  1  0  0  0  0
M  END
>  <DRUGBANK_ID>
DB08912

>  <COMMON_NAME>
Dabrafenib

>  <CAS_NUMBER>
1195765-45-7

>  <UNII>
QGP4HA4G1B

>  <SYNONYMS>
Dabrafenib

$$$$
