
 OpenBabel10282417143D

 46 49  0  0  0  0  0  0  0  0999 V2000
    3.7027   -0.6092    0.5167 C   0  0  2  0  0  0  0  0  0  0  0  0
    3.6325    0.8811    0.1650 C   0  0  2  0  0  0  0  0  0  0  0  0
    1.8193    1.0273    0.3050 C   0  0  1  0  0  0  0  0  0  0  0  0
    0.9454   -0.3053   -0.2992 C   0  0  1  0  0  0  0  0  0  0  0  0
   -0.5770   -0.3529    0.0184 C   0  0  2  0  0  0  0  0  0  0  0  0
   -1.3348    0.9508   -0.3000 C   0  0  2  0  0  0  0  0  0  0  0  0
   -2.6883    0.8401    0.4495 C   0  0  0  0  0  0  0  0  0  0  0  0
   -3.4466   -0.3780   -0.0476 C   0  0  0  0  0  0  0  0  0  0  0  0
   -4.5644   -0.2988   -0.5521 O   0  0  0  0  0  0  0  0  0  0  0  0
   -2.7246   -1.6967    0.0807 C   0  0  0  0  0  0  0  0  0  0  0  0
   -1.3798   -1.5463   -0.6427 C   0  0  0  0  0  0  0  0  0  0  0  0
   -0.5116    2.1654    0.1700 C   0  0  0  0  0  0  0  0  0  0  0  0
    0.9826    2.1819   -0.3568 C   0  0  0  0  0  0  0  0  0  0  0  0
   -1.5244    1.0285   -1.3845 H   0  0  0  0  0  0  0  0  0  0  0  0
   -0.6381   -0.4850    1.1091 H   0  0  0  0  0  0  0  0  0  0  0  0
    1.0455   -0.2907   -1.3956 H   0  0  0  0  0  0  0  0  0  0  0  0
    1.4917   -1.6095    0.2430 C   0  0  0  0  0  0  0  0  0  0  0  0
    2.9042   -1.6393   -0.2246 C   0  0  0  0  0  0  0  0  0  0  0  0
    1.5713    1.1162    1.3651 H   0  0  0  0  0  0  0  0  0  0  0  0
    5.2824    1.0697    0.9604 C   0  0  0  0  0  0  0  0  0  0  0  0
    5.9349   -0.3646    1.2997 C   0  0  0  0  0  0  0  0  0  0  0  0
    5.1465   -0.9466    0.1886 C   0  0  0  0  0  0  0  0  0  0  0  0
    5.5734   -1.3011   -0.8691 O   0  0  0  0  0  0  0  0  0  0  0  0
    3.8687    1.3496   -0.8001 H   0  0  0  0  0  0  0  0  0  0  0  0
    3.3621   -0.6164    2.0942 C   0  0  0  0  0  0  0  0  0  0  0  0
   -3.3315    1.7220    0.3750 H   0  0  0  0  0  0  0  0  0  0  0  0
   -2.4908    0.6866    1.5173 H   0  0  0  0  0  0  0  0  0  0  0  0
   -3.3793   -2.4941   -0.2935 H   0  0  0  0  0  0  0  0  0  0  0  0
   -2.5353   -1.9466    1.1330 H   0  0  0  0  0  0  0  0  0  0  0  0
   -0.9043   -2.5320   -0.6136 H   0  0  0  0  0  0  0  0  0  0  0  0
   -1.4930   -1.3177   -1.7115 H   0  0  0  0  0  0  0  0  0  0  0  0
   -1.0392    3.0858   -0.1189 H   0  0  0  0  0  0  0  0  0  0  0  0
   -0.5167    2.1563    1.2672 H   0  0  0  0  0  0  0  0  0  0  0  0
    1.4041    3.1737   -0.1798 H   0  0  0  0  0  0  0  0  0  0  0  0
    0.9409    2.0288   -1.4434 H   0  0  0  0  0  0  0  0  0  0  0  0
    1.0234   -2.5382   -0.0898 H   0  0  0  0  0  0  0  0  0  0  0  0
    1.3174   -1.6134    1.3248 H   0  0  0  0  0  0  0  0  0  0  0  0
    3.3491   -2.6209   -0.0439 H   0  0  0  0  0  0  0  0  0  0  0  0
    2.9259   -1.5006   -1.3157 H   0  0  0  0  0  0  0  0  0  0  0  0
    6.0382    1.2157    0.1536 H   0  0  0  0  0  0  0  0  0  0  0  0
    5.5523    2.0155    1.4562 H   0  0  0  0  0  0  0  0  0  0  0  0
    7.0082   -0.5380    1.2105 H   0  0  0  0  0  0  0  0  0  0  0  0
    5.6548   -0.9933    2.1515 H   0  0  0  0  0  0  0  0  0  0  0  0
    4.1597   -0.4002    2.8025 H   0  0  0  0  0  0  0  0  0  0  0  0
    2.6882    0.1834    2.4041 H   0  0  0  0  0  0  0  0  0  0  0  0
    2.9396   -1.5652    2.4066 H   0  0  0  0  0  0  0  0  0  0  0  0
  1 25  1  6  0  0  0
  2  1  1  0  0  0  0
  2 24  1  1  0  0  0
  3  2  1  0  0  0  0
  3 19  1  6  0  0  0
  4  3  1  0  0  0  0
  4 16  1  1  0  0  0
  5  4  1  0  0  0  0
  5 15  1  6  0  0  0
  6  5  1  0  0  0  0
  6 14  1  1  0  0  0
  7  6  1  0  0  0  0
  7 26  1  0  0  0  0
  7 27  1  0  0  0  0
  8  7  1  0  0  0  0
  8 10  1  0  0  0  0
  8  9  2  0  0  0  0
 10 11  1  0  0  0  0
 10 28  1  0  0  0  0
 10 29  1  0  0  0  0
 11  5  1  0  0  0  0
 11 30  1  0  0  0  0
 11 31  1  0  0  0  0
 12  6  1  0  0  0  0
 12 13  1  0  0  0  0
 12 32  1  0  0  0  0
 12 33  1  0  0  0  0
 13  3  1  0  0  0  0
 13 34  1  0  0  0  0
 13 35  1  0  0  0  0
 17  4  1  0  0  0  0
 17 18  1  0  0  0  0
 17 36  1  0  0  0  0
 17 37  1  0  0  0  0
 18  1  1  0  0  0  0
 18 38  1  0  0  0  0
 18 39  1  0  0  0  0
 20  2  1  0  0  0  0
 20 40  1  0  0  0  0
 20 41  1  0  0  0  0
 21 20  1  0  0  0  0
 21 22  1  0  0  0  0
 21 42  1  0  0  0  0
 21 43  1  0  0  0  0
 22  1  1  0  0  0  0
 22 23  2  0  0  0  0
 25 44  1  0  0  0  0
 25 45  1  0  0  0  0
 25 46  1  0  0  0  0
M  END
>  <DRUGBANK_ID>
DB04693

>  <COMMON_NAME>
Estrane-3,17-dione

>  <CAS_NUMBER>
5696-58-2

>  <UNII>
M6NR2239PB

>  <SYNONYMS>
(5alpha)-Estrane-3,17-dione; Estrane-3,17-dione

$$$$
