1143
 OpenBabel10282417113D

 27 26  0  0  0  0  0  0  0  0999 V2000
    0.9428   -0.0306   -0.0761 S   0  0  0  0  0  0  0  0  0  0  0  0
    0.2361    0.8612    1.7127 P   0  0  0  0  0  0  0  0  0  0  0  0
    1.8011    0.9364    2.1877 O   0  0  0  0  0  0  0  0  0  0  0  0
    0.1391    2.2640    0.8715 O   0  0  0  0  0  0  0  0  0  0  0  0
   -0.2800    1.5125    3.0192 O   0  0  0  0  0  0  0  0  0  0  0  0
    2.9014    0.1150   -2.5226 N   0  0  0  0  0  0  0  0  0  0  0  0
    0.6371   -1.2407   -5.0521 N   0  0  0  0  0  0  0  0  0  0  0  0
    3.3208   -0.5580   -3.7510 C   0  0  0  0  0  0  0  0  0  0  0  0
    2.7261   -1.9597   -3.9481 C   0  0  0  0  0  0  0  0  0  0  0  0
    3.3224   -0.6173   -1.3244 C   0  0  0  0  0  0  0  0  0  0  0  0
    2.7667    0.0216   -0.0581 C   0  0  0  0  0  0  0  0  0  0  0  0
    1.1965   -1.9998   -3.9406 C   0  0  0  0  0  0  0  0  0  0  0  0
    1.8851    0.6303    3.1092 H   0  0  0  0  0  0  0  0  0  0  0  0
    0.1657    2.0915   -0.0934 H   0  0  0  0  0  0  0  0  0  0  0  0
    1.8850    0.2129   -2.5025 H   0  0  0  0  0  0  0  0  0  0  0  0
   -0.3790   -1.2321   -4.9838 H   0  0  0  0  0  0  0  0  0  0  0  0
    0.9303   -0.2659   -4.9919 H   0  0  0  0  0  0  0  0  0  0  0  0
    3.0408    0.0823   -4.5952 H   0  0  0  0  0  0  0  0  0  0  0  0
    4.4151   -0.6120   -3.7760 H   0  0  0  0  0  0  0  0  0  0  0  0
    3.1013   -2.3704   -4.8929 H   0  0  0  0  0  0  0  0  0  0  0  0
    3.1010   -2.6392   -3.1731 H   0  0  0  0  0  0  0  0  0  0  0  0
    4.4159   -0.6342   -1.2722 H   0  0  0  0  0  0  0  0  0  0  0  0
    2.9775   -1.6569   -1.3416 H   0  0  0  0  0  0  0  0  0  0  0  0
    3.1105    1.0572    0.0296 H   0  0  0  0  0  0  0  0  0  0  0  0
    3.1313   -0.5498    0.8021 H   0  0  0  0  0  0  0  0  0  0  0  0
    0.8639   -3.0403   -4.0148 H   0  0  0  0  0  0  0  0  0  0  0  0
    0.7979   -1.6135   -2.9966 H   0  0  0  0  0  0  0  0  0  0  0  0
  1  2  1  0  0  0  0
  1 11  1  0  0  0  0
  2  3  1  0  0  0  0
  2  4  1  0  0  0  0
  2  5  2  0  0  0  0
  3 13  1  0  0  0  0
  4 14  1  0  0  0  0
  6  8  1  0  0  0  0
  6 10  1  0  0  0  0
  6 15  1  0  0  0  0
  7 12  1  0  0  0  0
  7 16  1  0  0  0  0
  7 17  1  0  0  0  0
  8  9  1  0  0  0  0
  8 18  1  0  0  0  0
  8 19  1  0  0  0  0
  9 12  1  0  0  0  0
  9 20  1  0  0  0  0
  9 21  1  0  0  0  0
 10 11  1  0  0  0  0
 10 22  1  0  0  0  0
 10 23  1  0  0  0  0
 11 24  1  0  0  0  0
 11 25  1  0  0  0  0
 12 26  1  0  0  0  0
 12 27  1  0  0  0  0
M  END
>  <DRUGBANK_ID>
DB01143

>  <SECONDARY_ACCESSION_NUMBERS>
APRD00021

>  <COMMON_NAME>
Amifostine

>  <CAS_NUMBER>
20537-88-6

>  <UNII>
ILA426L95O

>  <SYNONYMS>
Amifostina; Amifostine; Amifostine anhydrous; Amifostinum; Aminopropylaminoethyl thiophosphate; Ethiofos

$$$$
