
 OpenBabel10282417143D

 36 35  0  0  0  0  0  0  0  0999 V2000
    0.4107   -0.2619   -0.5092 C   0  0  0  0  0  0  0  0  0  0  0  0
    0.8807   -1.3247   -2.5703 C   0  0  0  0  0  0  0  0  0  0  0  0
   -1.2396   -0.1569   -1.9996 C   0  0  0  0  0  0  0  0  0  0  0  0
    0.8941    1.2826   -2.2590 C   0  0  0  0  0  0  0  0  0  0  0  0
    0.4779    2.4845   -1.2181 C   0  0  0  0  0  0  0  0  0  0  0  0
    3.0871   -0.9239   -0.1842 C   0  0  0  0  0  0  0  0  0  0  0  0
    1.2247   -1.0195    1.9333 C   0  0  0  0  0  0  0  0  0  0  0  0
    2.0381   -1.8096    0.6476 C   0  0  2  0  0  0  0  0  0  0  0  0
    0.2847   -0.1293   -1.9101 N   0  3  0  0  0  0  0  0  0  0  0  0
    3.8605   -0.2226    0.7678 O   0  0  0  0  0  0  0  0  0  0  0  0
    2.8306   -2.8857    1.1483 O   0  0  0  0  0  0  0  0  0  0  0  0
   -0.2796    2.5386    2.6265 O   0  0  0  0  0  0  0  0  0  0  0  0
   -1.4846    1.3791    0.6122 O   0  5  0  0  0  0  0  0  0  0  0  0
    0.8806    2.3110    0.2632 O   0  0  0  0  0  0  0  0  0  0  0  0
    0.2675    0.1147    1.9125 O   0  0  0  0  0  0  0  0  0  0  0  0
   -0.2304    1.6292    1.3914 P   0  0  3  0  0  0  0  0  0  0  0  0
    1.3003   -2.3264    0.0054 H   0  0  0  0  0  0  0  0  0  0  0  0
   -0.3016   -0.8946    0.0108 H   0  0  0  0  0  0  0  0  0  0  0  0
    0.1999    0.7027   -0.3168 H   0  0  0  0  0  0  0  0  0  0  0  0
    1.3229   -0.0376   -0.0143 H   0  0  0  0  0  0  0  0  0  0  0  0
    0.5500   -2.2157   -2.0197 H   0  0  0  0  0  0  0  0  0  0  0  0
    0.5137   -1.3552   -3.5892 H   0  0  0  0  0  0  0  0  0  0  0  0
    1.9724   -1.2751   -2.5552 H   0  0  0  0  0  0  0  0  0  0  0  0
   -1.6494    0.7790   -1.6245 H   0  0  0  0  0  0  0  0  0  0  0  0
   -1.4979   -0.3215   -3.0317 H   0  0  0  0  0  0  0  0  0  0  0  0
   -1.6051   -0.9924   -1.3790 H   0  0  0  0  0  0  0  0  0  0  0  0
    1.9880    1.1803   -2.2611 H   0  0  0  0  0  0  0  0  0  0  0  0
    0.5743    1.4662   -3.2895 H   0  0  0  0  0  0  0  0  0  0  0  0
    0.9789    3.3884   -1.6013 H   0  0  0  0  0  0  0  0  0  0  0  0
   -0.5985    2.6628   -1.3061 H   0  0  0  0  0  0  0  0  0  0  0  0
    3.6931   -1.5031   -0.8898 H   0  0  0  0  0  0  0  0  0  0  0  0
    2.7413   -0.1333   -0.8584 H   0  0  0  0  0  0  0  0  0  0  0  0
    1.9671   -0.8118    2.6957 H   0  0  0  0  0  0  0  0  0  0  0  0
    0.6273   -1.8600    2.3590 H   0  0  0  0  0  0  0  0  0  0  0  0
    3.2428    0.3758    1.2430 H   0  0  0  0  0  0  0  0  0  0  0  0
    3.6611   -2.4512    1.4233 H   0  0  0  0  0  0  0  0  0  0  0  0
  1 18  1  0  0  0  0
  1 19  1  0  0  0  0
  1 20  1  0  0  0  0
  2 21  1  0  0  0  0
  2 22  1  0  0  0  0
  2 23  1  0  0  0  0
  3 24  1  0  0  0  0
  3 25  1  0  0  0  0
  3 26  1  0  0  0  0
  4 27  1  0  0  0  0
  4 28  1  0  0  0  0
  5  4  1  0  0  0  0
  5 29  1  0  0  0  0
  5 30  1  0  0  0  0
  6 31  1  0  0  0  0
  6 32  1  0  0  0  0
  7 33  1  0  0  0  0
  7 34  1  0  0  0  0
  8  6  1  0  0  0  0
  8  7  1  0  0  0  0
  8 11  1  0  0  0  0
  8 17  1  6  0  0  0
  9  1  1  0  0  0  0
  9  2  1  0  0  0  0
  9  3  1  0  0  0  0
  9  4  1  0  0  0  0
 10  6  1  0  0  0  0
 10 35  1  0  0  0  0
 11 36  1  0  0  0  0
 14  5  1  0  0  0  0
 15  7  1  0  0  0  0
 16 12  2  0  0  0  0
 16 13  1  0  0  0  0
 16 14  1  0  0  0  0
 16 15  1  0  0  0  0
M  CHG  2   9   1  13  -1
M  END
>  <DRUGBANK_ID>
DB04660

>  <COMMON_NAME>
Choline alfoscerate

>  <CAS_NUMBER>
28319-77-9

>  <UNII>
60M22SGW66

>  <SYNONYMS>
(2R)-2,3-dihydroxypropyl 2-(trimethylammonio)ethyl phosphate; alpha-Glycerophosphorylcholine; Choline alfoscerate; Choline alphoscerate; Choline glycerophosphate; Cholini glycerophosphas; Glicerofosfato de colina; Glycerol phosphorylcholine; Glycerol-3-phosphatidylcholine; glycerol-3-phosphocholine; Glycerophosphate de choline; Glycerophosphocholine; Glycerophosphorylcholine; GPCho; L-alpha-Glycerophosphocholine; L-alpha-Glycerophosphorylcholine; sn-3-GPC; sn-Glycero-3-phosphocholine

$$$$
