
 OpenBabel10282417123D

 27 27  0  0  0  0  0  0  0  0999 V2000
    0.2277    1.2085   -0.0196 C   0  0  0  0  0  0  0  0  0  0  0  0
   -1.1768    1.1812    0.0062 C   0  0  0  0  0  0  0  0  0  0  0  0
   -1.8648   -0.0319    0.0099 C   0  0  0  0  0  0  0  0  0  0  0  0
    0.2344   -1.2179    0.0026 C   0  0  0  0  0  0  0  0  0  0  0  0
   -1.1608   -1.2292   -0.0022 C   0  0  0  0  0  0  0  0  0  0  0  0
    0.9817    2.5023   -0.1456 C   0  0  0  0  0  0  0  0  0  0  0  0
    0.2811    3.8451   -0.0622 C   0  0  0  0  0  0  0  0  0  0  0  0
    2.1868    2.4682   -0.4131 O   0  0  0  0  0  0  0  0  0  0  0  0
    0.6775    4.6522    1.1717 C   0  0  1  0  0  0  0  0  0  0  0  0
    2.1657    5.0368    1.1931 C   0  0  0  0  0  0  0  0  0  0  0  0
   -0.1513    5.8936    1.1663 N   0  0  0  0  0  0  0  0  0  0  0  0
    2.6172    6.1596    0.9916 O   0  0  0  0  0  0  0  0  0  0  0  0
    2.9795    4.0087    1.4812 O   0  0  0  0  0  0  0  0  0  0  0  0
    0.9490   -0.0131   -0.0242 C   0  0  0  0  0  0  0  0  0  0  0  0
    2.3374   -0.0637    0.1775 N   0  0  0  0  0  0  0  0  0  0  0  0
   -1.7826    2.0793    0.0108 H   0  0  0  0  0  0  0  0  0  0  0  0
   -2.9523   -0.0356    0.0151 H   0  0  0  0  0  0  0  0  0  0  0  0
    0.7692   -2.1641    0.0211 H   0  0  0  0  0  0  0  0  0  0  0  0
   -1.6961   -2.1746   -0.0028 H   0  0  0  0  0  0  0  0  0  0  0  0
    0.5304    4.3778   -0.9896 H   0  0  0  0  0  0  0  0  0  0  0  0
   -0.8038    3.7415   -0.0812 H   0  0  0  0  0  0  0  0  0  0  0  0
    0.4488    4.1053    2.0926 H   0  0  0  0  0  0  0  0  0  0  0  0
    0.1487    6.4750    1.9524 H   0  0  0  0  0  0  0  0  0  0  0  0
    0.1210    6.4460    0.3466 H   0  0  0  0  0  0  0  0  0  0  0  0
    3.8730    4.2615    1.1700 H   0  0  0  0  0  0  0  0  0  0  0  0
    2.8386   -0.9064   -0.0718 H   0  0  0  0  0  0  0  0  0  0  0  0
    2.8163    0.8126   -0.0652 H   0  0  0  0  0  0  0  0  0  0  0  0
  1  6  1  0  0  0  0
  1  2  2  0  0  0  0
  2  3  1  0  0  0  0
  2 16  1  0  0  0  0
  3  5  2  0  0  0  0
  3 17  1  0  0  0  0
  4 18  1  0  0  0  0
  5  4  1  0  0  0  0
  5 19  1  0  0  0  0
  6  7  1  0  0  0  0
  6  8  2  0  0  0  0
  7  9  1  0  0  0  0
  7 20  1  0  0  0  0
  7 21  1  0  0  0  0
  9 10  1  0  0  0  0
  9 11  1  0  0  0  0
  9 22  1  1  0  0  0
 10 12  2  0  0  0  0
 10 13  1  0  0  0  0
 11 23  1  0  0  0  0
 11 24  1  0  0  0  0
 13 25  1  0  0  0  0
 14  1  1  0  0  0  0
 14  4  2  0  0  0  0
 14 15  1  0  0  0  0
 15 26  1  0  0  0  0
 15 27  1  0  0  0  0
M  END
>  <DRUGBANK_ID>
DB02070

>  <SECONDARY_ACCESSION_NUMBERS>
EXPT01985

>  <COMMON_NAME>
Kynurenine

>  <CAS_NUMBER>
2922-83-0

>  <UNII>
02JW4J5R44

>  <SYNONYMS>
(2S)-2-amino-4-(2-aminophenyl)-4-oxobutanoic acid; 3-Anthraniloyl-L-alanine; L-kynurenine

$$$$
