
 OpenBabel10282417163D

 36 35  0  0  0  0  0  0  0  0999 V2000
    0.9819   -0.0282    0.1086 C   0  0  0  0  0  0  0  0  0  0  0  0
    0.3897    1.2752   -0.5726 C   0  0  3  0  0  0  0  0  0  0  0  0
    0.7645   -1.2559   -0.8178 C   0  0  0  0  0  0  0  0  0  0  0  0
    0.3558   -0.2733    1.5196 C   0  0  0  0  0  0  0  0  0  0  0  0
    2.4853    0.2413    0.3180 C   0  0  0  0  0  0  0  0  0  0  0  0
    0.8883    1.5148   -2.0389 C   0  0  0  0  0  0  0  0  0  0  0  0
   -1.1422    1.3581   -0.5211 C   0  0  0  0  0  0  0  0  0  0  0  0
    1.2679   -2.5439   -0.4364 O   0  0  0  0  0  0  0  0  0  0  0  0
    0.7451   -1.5231    2.1356 O   0  0  0  0  0  0  0  0  0  0  0  0
    0.4038    0.5482   -3.1246 C   0  0  0  0  0  0  0  0  0  0  0  0
    2.5771   -2.8857   -0.3271 C   0  0  0  0  0  0  0  0  0  0  0  0
    0.2457   -2.7631    1.8574 C   0  0  0  0  0  0  0  0  0  0  0  0
    3.4561   -2.0843   -0.9848 N   0  0  0  0  0  0  0  0  0  0  0  0
    2.9577   -3.8329    0.3173 O   0  0  0  0  0  0  0  0  0  0  0  0
   -0.7927   -2.8573    0.9686 N   0  0  0  0  0  0  0  0  0  0  0  0
    0.7798   -3.7770    2.2833 O   0  0  0  0  0  0  0  0  0  0  0  0
    0.7494    2.1363    0.0184 H   0  0  0  0  0  0  0  0  0  0  0  0
   -0.3116   -1.3321   -1.0304 H   0  0  0  0  0  0  0  0  0  0  0  0
    1.2271   -1.1674   -1.7650 H   0  0  0  0  0  0  0  0  0  0  0  0
    0.7130    0.5199    2.1943 H   0  0  0  0  0  0  0  0  0  0  0  0
   -0.7321   -0.2180    1.5448 H   0  0  0  0  0  0  0  0  0  0  0  0
    2.9866    0.4115   -0.6386 H   0  0  0  0  0  0  0  0  0  0  0  0
    2.6980    1.1310    0.9160 H   0  0  0  0  0  0  0  0  0  0  0  0
    2.9525   -0.5924    0.8415 H   0  0  0  0  0  0  0  0  0  0  0  0
    0.5623    2.5161   -2.3434 H   0  0  0  0  0  0  0  0  0  0  0  0
    1.9825    1.5491   -2.0614 H   0  0  0  0  0  0  0  0  0  0  0  0
   -1.5233    1.3373    0.5032 H   0  0  0  0  0  0  0  0  0  0  0  0
   -1.4930    2.2988   -0.9577 H   0  0  0  0  0  0  0  0  0  0  0  0
   -1.6085    0.5340   -1.0634 H   0  0  0  0  0  0  0  0  0  0  0  0
   -0.6549    0.3041   -3.0155 H   0  0  0  0  0  0  0  0  0  0  0  0
    0.6017    0.9330   -4.1221 H   0  0  0  0  0  0  0  0  0  0  0  0
    0.9630   -0.3788   -3.1849 H   0  0  0  0  0  0  0  0  0  0  0  0
    4.3598   -2.0387   -0.5328 H   0  0  0  0  0  0  0  0  0  0  0  0
    3.1529   -1.2681   -1.4757 H   0  0  0  0  0  0  0  0  0  0  0  0
   -0.5709   -3.5945    0.2961 H   0  0  0  0  0  0  0  0  0  0  0  0
   -1.1360   -2.0357    0.5111 H   0  0  0  0  0  0  0  0  0  0  0  0
  1  2  1  0  0  0  0
  1  3  1  0  0  0  0
  1  4  1  0  0  0  0
  1  5  1  0  0  0  0
  2  6  1  0  0  0  0
  2  7  1  0  0  0  0
  2 17  1  0  0  0  0
  3  8  1  0  0  0  0
  3 18  1  0  0  0  0
  3 19  1  0  0  0  0
  4  9  1  0  0  0  0
  4 20  1  0  0  0  0
  4 21  1  0  0  0  0
  5 22  1  0  0  0  0
  5 23  1  0  0  0  0
  5 24  1  0  0  0  0
  6 10  1  0  0  0  0
  6 25  1  0  0  0  0
  6 26  1  0  0  0  0
  7 27  1  0  0  0  0
  7 28  1  0  0  0  0
  7 29  1  0  0  0  0
  8 11  1  0  0  0  0
  9 12  1  0  0  0  0
 10 30  1  0  0  0  0
 10 31  1  0  0  0  0
 10 32  1  0  0  0  0
 11 13  1  0  0  0  0
 11 14  2  0  0  0  0
 12 15  1  0  0  0  0
 12 16  2  0  0  0  0
 13 33  1  0  0  0  0
 13 34  1  0  0  0  0
 15 35  1  0  0  0  0
 15 36  1  0  0  0  0
M  END
>  <DRUGBANK_ID>
DB06797

>  <COMMON_NAME>
Mebutamate

>  <CAS_NUMBER>
64-55-1

>  <UNII>
5H8F175RER

>  <SYNONYMS>
2-Methyl-2-sec-butyl-1,3-propanediol dicarbamate; 2-sec-Butyl-2-methyl-1,3-propanediol dicarbamate; 2-sec-Butyl-2-methylpropane-1,3-diyl dicarbamate; 2-sec-Butyl-2-methyltrimethylene dicarbamate; 2,2-Dicarbamyloxymethyl-3-methylpentane; Dicamoylmethtane; Mebutamate; Mebutamato; Mebutamatum

$$$$
