
 OpenBabel10282417213D

 49 51  0  0  0  0  0  0  0  0999 V2000
    0.8164   -0.4059   -0.0231 C   0  0  0  0  0  0  0  0  0  0  0  0
   -0.6516   -0.4358    0.0154 C   0  0  0  0  0  0  0  0  0  0  0  0
    1.4596    0.8291   -0.0258 C   0  0  0  0  0  0  0  0  0  0  0  0
    1.6243   -1.5533   -0.0223 C   0  0  0  0  0  0  0  0  0  0  0  0
   -1.3617    0.7782   -0.0058 C   0  0  0  0  0  0  0  0  0  0  0  0
   -1.4108   -1.6006    0.1026 C   0  0  0  0  0  0  0  0  0  0  0  0
    0.6442    2.1117    0.0110 C   0  0  0  0  0  0  0  0  0  0  0  0
    2.8715    0.8886   -0.0150 C   0  0  0  0  0  0  0  0  0  0  0  0
    3.0203   -1.5001   -0.0120 C   0  0  0  0  0  0  0  0  0  0  0  0
   -0.7870    2.0090   -0.0598 O   0  0  0  0  0  0  0  0  0  0  0  0
   -2.7633    0.8256    0.0056 C   0  0  0  0  0  0  0  0  0  0  0  0
   -2.7924   -1.5434    0.2135 C   0  0  0  0  0  0  0  0  0  0  0  0
   -0.8586   -2.8536    0.0747 O   0  0  0  0  0  0  0  0  0  0  0  0
    0.9230    2.8159    1.3465 C   0  0  0  0  0  0  0  0  0  0  0  0
    1.0029    2.9644   -1.2137 C   0  0  0  0  0  0  0  0  0  0  0  0
    3.6434   -0.2662   -0.0085 C   0  0  0  0  0  0  0  0  0  0  0  0
    3.7788   -2.7877    0.0043 C   0  0  0  0  0  0  0  0  0  0  0  0
   -3.4947   -0.3448    0.0842 C   0  0  0  0  0  0  0  0  0  0  0  0
   -4.9970   -0.3254   -0.0141 C   0  0  0  0  0  0  0  0  0  0  0  0
   -5.5129   -1.0416   -1.2767 C   0  0  0  0  0  0  0  0  0  0  0  0
   -5.2031   -2.5467   -1.3447 C   0  0  0  0  0  0  0  0  0  0  0  0
   -5.6474   -3.3039   -0.0851 C   0  0  0  0  0  0  0  0  0  0  0  0
   -7.1564   -3.3023    0.0302 C   0  0  0  0  0  0  0  0  0  0  0  0
    1.1993   -2.5472   -0.0176 H   0  0  0  0  0  0  0  0  0  0  0  0
    3.3797    1.8482    0.0035 H   0  0  0  0  0  0  0  0  0  0  0  0
   -3.2657    1.7896   -0.0464 H   0  0  0  0  0  0  0  0  0  0  0  0
   -3.3027   -2.4784    0.3627 H   0  0  0  0  0  0  0  0  0  0  0  0
   -1.5447   -3.5335    0.0079 H   0  0  0  0  0  0  0  0  0  0  0  0
    1.9843    3.0307    1.5006 H   0  0  0  0  0  0  0  0  0  0  0  0
    0.3610    3.7507    1.4354 H   0  0  0  0  0  0  0  0  0  0  0  0
    0.5920    2.1781    2.1790 H   0  0  0  0  0  0  0  0  0  0  0  0
    0.6610    2.4580   -2.1279 H   0  0  0  0  0  0  0  0  0  0  0  0
    0.4923    3.9324   -1.1903 H   0  0  0  0  0  0  0  0  0  0  0  0
    2.0757    3.1433   -1.3195 H   0  0  0  0  0  0  0  0  0  0  0  0
    4.7262   -0.1885    0.0053 H   0  0  0  0  0  0  0  0  0  0  0  0
    3.5155   -3.3627    0.8987 H   0  0  0  0  0  0  0  0  0  0  0  0
    3.5266   -3.3757   -0.8843 H   0  0  0  0  0  0  0  0  0  0  0  0
    4.8568   -2.6125    0.0103 H   0  0  0  0  0  0  0  0  0  0  0  0
   -5.4240   -0.7481    0.9013 H   0  0  0  0  0  0  0  0  0  0  0  0
   -5.3558    0.7117   -0.0419 H   0  0  0  0  0  0  0  0  0  0  0  0
   -6.5987   -0.9037   -1.3336 H   0  0  0  0  0  0  0  0  0  0  0  0
   -5.1038   -0.5556   -2.1715 H   0  0  0  0  0  0  0  0  0  0  0  0
   -5.6847   -2.9842   -2.2256 H   0  0  0  0  0  0  0  0  0  0  0  0
   -4.1353   -2.7011   -1.5364 H   0  0  0  0  0  0  0  0  0  0  0  0
   -5.2627   -4.3290   -0.1155 H   0  0  0  0  0  0  0  0  0  0  0  0
   -5.2431   -2.8681    0.8349 H   0  0  0  0  0  0  0  0  0  0  0  0
   -7.5950   -3.7781   -0.8498 H   0  0  0  0  0  0  0  0  0  0  0  0
   -7.4717   -3.8393    0.9268 H   0  0  0  0  0  0  0  0  0  0  0  0
   -7.5454   -2.2821    0.1041 H   0  0  0  0  0  0  0  0  0  0  0  0
  1  2  1  0  0  0  0
  1  3  2  0  0  0  0
  1  4  1  0  0  0  0
  2  5  2  0  0  0  0
  2  6  1  0  0  0  0
  3  7  1  0  0  0  0
  3  8  1  0  0  0  0
  4  9  2  0  0  0  0
  4 24  1  0  0  0  0
  5 10  1  0  0  0  0
  5 11  1  0  0  0  0
  6 12  2  0  0  0  0
  6 13  1  0  0  0  0
  7 14  1  0  0  0  0
  7 15  1  0  0  0  0
  7 10  1  0  0  0  0
  8 16  2  0  0  0  0
  8 25  1  0  0  0  0
  9 17  1  0  0  0  0
  9 16  1  0  0  0  0
 11 18  2  0  0  0  0
 11 26  1  0  0  0  0
 12 18  1  0  0  0  0
 12 27  1  0  0  0  0
 13 28  1  0  0  0  0
 14 29  1  0  0  0  0
 14 30  1  0  0  0  0
 14 31  1  0  0  0  0
 15 32  1  0  0  0  0
 15 33  1  0  0  0  0
 15 34  1  0  0  0  0
 16 35  1  0  0  0  0
 17 36  1  0  0  0  0
 17 37  1  0  0  0  0
 17 38  1  0  0  0  0
 18 19  1  0  0  0  0
 19 20  1  0  0  0  0
 19 39  1  0  0  0  0
 19 40  1  0  0  0  0
 20 21  1  0  0  0  0
 20 41  1  0  0  0  0
 20 42  1  0  0  0  0
 21 22  1  0  0  0  0
 21 43  1  0  0  0  0
 21 44  1  0  0  0  0
 22 23  1  0  0  0  0
 22 45  1  0  0  0  0
 22 46  1  0  0  0  0
 23 47  1  0  0  0  0
 23 48  1  0  0  0  0
 23 49  1  0  0  0  0
M  END
>  <DRUGBANK_ID>
DB14737

>  <COMMON_NAME>
Cannabinol

>  <CAS_NUMBER>
521-35-7

>  <UNII>
7UYP6MC9GH

>  <SYNONYMS>
6,6,9-Trimethyl-3-pentyl-6H-dibenzo(b,d)pyran-1-ol; Cannabinol; Cannabinolo; Cannabinolum; CBN

$$$$
