TL1
 OpenBabel10282417143D

 50 53  0  0  0  0  0  0  0  0999 V2000
    1.0408   -0.0745   -0.0693 N   0  0  0  0  0  0  0  0  0  0  0  0
    0.4157   -0.9328   -0.8138 C   0  0  0  0  0  0  0  0  0  0  0  0
    1.0718   -1.8251   -1.6003 N   0  0  0  0  0  0  0  0  0  0  0  0
   -1.0538   -0.8829   -0.8502 C   0  0  0  0  0  0  0  0  0  0  0  0
   -1.6446    0.3879   -0.8161 C   0  0  0  0  0  0  0  0  0  0  0  0
   -2.9841    0.5022   -1.0496 C   0  0  0  0  0  0  0  0  0  0  0  0
   -3.6682   -0.6522   -1.3663 C   0  0  0  0  0  0  0  0  0  0  0  0
   -3.1423   -1.9405   -1.3321 C   0  0  0  0  0  0  0  0  0  0  0  0
   -3.8637   -3.0730   -1.5965 O   0  0  0  0  0  0  0  0  0  0  0  0
   -5.2582   -2.9424   -1.9096 C   0  0  2  0  0  0  0  0  0  0  0  0
   -5.6076   -2.1051   -3.1447 C   0  0  0  0  0  0  0  0  0  0  0  0
   -6.8714   -1.4795   -2.9011 O   0  0  0  0  0  0  0  0  0  0  0  0
   -7.1502   -1.5016   -1.4922 C   0  0  2  0  0  0  0  0  0  0  0  0
   -6.9340   -0.1461   -0.7988 C   0  0  1  0  0  0  0  0  0  0  0  0
   -8.1420    0.5792   -0.5664 O   0  0  0  0  0  0  0  0  0  0  0  0
   -9.0055    0.0718    0.3606 C   0  0  0  0  0  0  0  0  0  0  0  0
   -8.8643   -1.1705    0.9850 C   0  0  0  0  0  0  0  0  0  0  0  0
   -9.6882   -1.5837    1.9992 C   0  0  0  0  0  0  0  0  0  0  0  0
  -10.7075   -0.7480    2.3872 C   0  0  0  0  0  0  0  0  0  0  0  0
  -10.8767    0.5156    1.7929 C   0  0  0  0  0  0  0  0  0  0  0  0
  -11.8782    1.4444    2.3904 C   0  0  0  0  0  0  0  0  0  0  0  0
  -12.0590    2.6630    1.9905 N   0  0  0  0  0  0  0  0  0  0  0  0
  -12.6504    1.0449    3.4373 N   0  0  0  0  0  0  0  0  0  0  0  0
  -10.0505    0.9037    0.7317 C   0  0  0  0  0  0  0  0  0  0  0  0
   -6.0975   -0.4422    0.4602 C   0  0  0  0  0  0  0  0  0  0  0  0
   -5.5481   -1.7616    0.3047 O   0  0  0  0  0  0  0  0  0  0  0  0
   -6.1800   -2.4453   -0.7918 C   0  0  2  0  0  0  0  0  0  0  0  0
   -1.8009   -2.0603   -1.0362 C   0  0  0  0  0  0  0  0  0  0  0  0
   -5.6032   -3.9596   -2.1495 H   0  0  0  0  0  0  0  0  0  0  0  0
   -8.1846   -1.8454   -1.4205 H   0  0  0  0  0  0  0  0  0  0  0  0
   -6.3618    0.5161   -1.4601 H   0  0  0  0  0  0  0  0  0  0  0  0
   -6.7093   -3.2937   -0.3426 H   0  0  0  0  0  0  0  0  0  0  0  0
    2.0434   -0.2093   -0.1521 H   0  0  0  0  0  0  0  0  0  0  0  0
    0.5589   -2.2223   -2.3851 H   0  0  0  0  0  0  0  0  0  0  0  0
    2.0503   -1.6624   -1.7952 H   0  0  0  0  0  0  0  0  0  0  0  0
   -1.0579    1.2851   -0.6533 H   0  0  0  0  0  0  0  0  0  0  0  0
   -3.5118    1.4496   -1.0288 H   0  0  0  0  0  0  0  0  0  0  0  0
   -4.6866   -0.4856   -1.6191 H   0  0  0  0  0  0  0  0  0  0  0  0
   -4.8967   -1.3144   -3.3894 H   0  0  0  0  0  0  0  0  0  0  0  0
   -5.6583   -2.7067   -4.0562 H   0  0  0  0  0  0  0  0  0  0  0  0
   -8.0775   -1.8698    0.7629 H   0  0  0  0  0  0  0  0  0  0  0  0
   -9.4939   -2.5315    2.4888 H   0  0  0  0  0  0  0  0  0  0  0  0
  -11.3466   -1.1156    3.1754 H   0  0  0  0  0  0  0  0  0  0  0  0
  -11.4558    2.9142    1.2075 H   0  0  0  0  0  0  0  0  0  0  0  0
  -12.4307    0.2393    4.0017 H   0  0  0  0  0  0  0  0  0  0  0  0
  -13.1497    1.7876    3.9082 H   0  0  0  0  0  0  0  0  0  0  0  0
  -10.1695    1.8448    0.2039 H   0  0  0  0  0  0  0  0  0  0  0  0
   -5.2985    0.2909    0.6163 H   0  0  0  0  0  0  0  0  0  0  0  0
   -6.6274   -0.4211    1.4141 H   0  0  0  0  0  0  0  0  0  0  0  0
   -1.3339   -3.0373   -0.9638 H   0  0  0  0  0  0  0  0  0  0  0  0
  1  2  2  0  0  0  0
  1 33  1  0  0  0  0
  2  3  1  0  0  0  0
  2  4  1  0  0  0  0
  3 34  1  0  0  0  0
  3 35  1  0  0  0  0
  4  5  2  0  0  0  0
  4 28  1  0  0  0  0
  5  6  1  0  0  0  0
  5 36  1  0  0  0  0
  6  7  2  0  0  0  0
  6 37  1  0  0  0  0
  7  8  1  0  0  0  0
  7 38  1  0  0  0  0
  8  9  1  0  0  0  0
  8 28  2  0  0  0  0
 10  9  1  0  0  0  0
 10 11  1  0  0  0  0
 10 27  1  0  0  0  0
 10 29  1  6  0  0  0
 11 12  1  0  0  0  0
 11 39  1  0  0  0  0
 11 40  1  0  0  0  0
 12 13  1  0  0  0  0
 13 14  1  0  0  0  0
 13 27  1  0  0  0  0
 13 30  1  1  0  0  0
 14 25  1  0  0  0  0
 14 31  1  6  0  0  0
 14 15  1  0  0  0  0
 15 16  1  0  0  0  0
 16 17  2  0  0  0  0
 16 24  1  0  0  0  0
 17 18  1  0  0  0  0
 17 41  1  0  0  0  0
 18 19  2  0  0  0  0
 18 42  1  0  0  0  0
 19 20  1  0  0  0  0
 19 43  1  0  0  0  0
 20 21  1  0  0  0  0
 20 24  2  0  0  0  0
 21 22  2  0  0  0  0
 21 23  1  0  0  0  0
 22 44  1  0  0  0  0
 23 45  1  0  0  0  0
 23 46  1  0  0  0  0
 24 47  1  0  0  0  0
 25 26  1  0  0  0  0
 25 48  1  0  0  0  0
 25 49  1  0  0  0  0
 26 27  1  0  0  0  0
 27 32  1  1  0  0  0
 28 50  1  0  0  0  0
M  END
>  <DRUGBANK_ID>
DB04790

>  <COMMON_NAME>
2,5-bis-O-{3-[amino(imino)methyl]phenyl}-1,4:3,6-dianhydro-D-glucitol

>  <SYNONYMS>
1,4:3,6-Dianhydro-2,5-bis-O-(3-carbamimidoylphenyl)-D-glucitol

$$$$
