MBT
 OpenBabel10282417173D

 38 40  0  0  0  0  0  0  0  0999 V2000
    1.1849   -0.8437   -0.0087 C   0  0  0  0  0  0  0  0  0  0  0  0
    1.3695    0.5473    0.0035 C   0  0  0  0  0  0  0  0  0  0  0  0
   -0.0008    1.6843   -0.0055 S   0  3  0  0  0  0  0  0  0  0  0  0
   -1.3709    0.5470   -0.0026 C   0  0  0  0  0  0  0  0  0  0  0  0
   -1.1858   -0.8439   -0.0021 C   0  0  0  0  0  0  0  0  0  0  0  0
   -0.0004   -1.4920   -0.0116 N   0  0  0  0  0  0  0  0  0  0  0  0
   -2.6470    1.1308   -0.0007 C   0  0  0  0  0  0  0  0  0  0  0  0
   -3.8191    0.3774    0.0006 C   0  0  0  0  0  0  0  0  0  0  0  0
   -3.6253   -1.0121    0.0178 C   0  0  0  0  0  0  0  0  0  0  0  0
   -2.3422   -1.5975    0.0134 C   0  0  0  0  0  0  0  0  0  0  0  0
    2.6453    1.1315    0.0216 C   0  0  0  0  0  0  0  0  0  0  0  0
    3.8175    0.3784    0.0205 C   0  0  0  0  0  0  0  0  0  0  0  0
    3.6244   -1.0112    0.0011 C   0  0  0  0  0  0  0  0  0  0  0  0
    2.3416   -1.5970   -0.0133 C   0  0  0  0  0  0  0  0  0  0  0  0
   -5.0737    0.9617   -0.0110 N   0  0  0  0  0  0  0  0  0  0  0  0
   -5.2972    2.4052   -0.0533 C   0  0  0  0  0  0  0  0  0  0  0  0
   -6.2775    0.1376   -0.0260 C   0  0  0  0  0  0  0  0  0  0  0  0
    5.0720    0.9628    0.0368 N   0  0  0  0  0  0  0  0  0  0  0  0
    5.2955    2.4068    0.0537 C   0  0  0  0  0  0  0  0  0  0  0  0
    6.2759    0.1389    0.0284 C   0  0  0  0  0  0  0  0  0  0  0  0
   -2.6756    2.2134    0.0005 H   0  0  0  0  0  0  0  0  0  0  0  0
   -4.4713   -1.6934    0.0344 H   0  0  0  0  0  0  0  0  0  0  0  0
   -2.2600   -2.6829    0.0235 H   0  0  0  0  0  0  0  0  0  0  0  0
    2.6734    2.2139    0.0372 H   0  0  0  0  0  0  0  0  0  0  0  0
    4.4707   -1.6923   -0.0020 H   0  0  0  0  0  0  0  0  0  0  0  0
    2.2600   -2.6824   -0.0270 H   0  0  0  0  0  0  0  0  0  0  0  0
   -5.8542    2.6703   -0.9581 H   0  0  0  0  0  0  0  0  0  0  0  0
   -5.8811    2.7142    0.8199 H   0  0  0  0  0  0  0  0  0  0  0  0
   -4.3996    3.0246   -0.0547 H   0  0  0  0  0  0  0  0  0  0  0  0
   -6.3034   -0.5039   -0.9137 H   0  0  0  0  0  0  0  0  0  0  0  0
   -6.3368   -0.4814    0.8757 H   0  0  0  0  0  0  0  0  0  0  0  0
   -7.1821    0.7560   -0.0509 H   0  0  0  0  0  0  0  0  0  0  0  0
    5.8630    2.6839    0.9482 H   0  0  0  0  0  0  0  0  0  0  0  0
    5.8688    2.7044   -0.8306 H   0  0  0  0  0  0  0  0  0  0  0  0
    4.3977    3.0259    0.0581 H   0  0  0  0  0  0  0  0  0  0  0  0
    6.3157   -0.5038    0.9146 H   0  0  0  0  0  0  0  0  0  0  0  0
    6.3208   -0.4789   -0.8750 H   0  0  0  0  0  0  0  0  0  0  0  0
    7.1808    0.7572    0.0394 H   0  0  0  0  0  0  0  0  0  0  0  0
  1 14  1  0  0  0  0
  1  6  2  0  0  0  0
  1  2  1  0  0  0  0
  2  3  2  0  0  0  0
  2 11  1  0  0  0  0
  3  4  1  0  0  0  0
  4  7  2  0  0  0  0
  4  5  1  0  0  0  0
  5  6  1  0  0  0  0
  5 10  2  0  0  0  0
  7  8  1  0  0  0  0
  7 21  1  0  0  0  0
  8  9  2  0  0  0  0
  8 15  1  0  0  0  0
  9 10  1  0  0  0  0
  9 22  1  0  0  0  0
 10 23  1  0  0  0  0
 11 12  2  0  0  0  0
 11 24  1  0  0  0  0
 12 18  1  0  0  0  0
 12 13  1  0  0  0  0
 13 14  2  0  0  0  0
 13 25  1  0  0  0  0
 14 26  1  0  0  0  0
 15 16  1  0  0  0  0
 15 17  1  0  0  0  0
 16 27  1  0  0  0  0
 16 28  1  0  0  0  0
 16 29  1  0  0  0  0
 17 30  1  0  0  0  0
 17 31  1  0  0  0  0
 17 32  1  0  0  0  0
 18 19  1  0  0  0  0
 18 20  1  0  0  0  0
 19 33  1  0  0  0  0
 19 34  1  0  0  0  0
 19 35  1  0  0  0  0
 20 36  1  0  0  0  0
 20 37  1  0  0  0  0
 20 38  1  0  0  0  0
M  CHG  1   3   1
M  END
>  <DRUGBANK_ID>
DB08167

>  <COMMON_NAME>
Methylthioninium

>  <CAS_NUMBER>
7060-82-4

>  <UNII>
ZMZ79891ZH

>  <SYNONYMS>
Methylene blue cation

$$$$
