
 OpenBabel10282417113D

 41 43  0  0  1  0  0  0  0  0999 V2000
    0.1623    0.7086   -0.6104 C   0  0  2  0  0  0  0  0  0  0  0  0
   -0.5616   -0.5344   -0.3735 N   0  0  0  0  0  0  0  0  0  0  0  0
    0.0369   -1.7257   -0.1189 C   0  0  0  0  0  0  0  0  0  0  0  0
    1.3756   -1.7624    0.0306 C   0  0  0  0  0  0  0  0  0  0  0  0
    2.2907   -0.5692    0.0362 C   0  0  0  0  0  0  0  0  0  0  0  0
    1.4569    0.9451    0.5929 S   0  0  0  0  0  0  0  0  0  0  0  0
   -1.1549    1.4096   -0.4285 C   0  0  1  0  0  0  0  0  0  0  0  0
   -1.6969    0.0466    0.0934 C   0  0  0  0  0  0  0  0  0  0  0  0
   -1.3853    2.6399    0.2935 N   0  0  0  0  0  0  0  0  0  0  0  0
   -2.1178    3.7033   -0.1681 C   0  0  0  0  0  0  0  0  0  0  0  0
   -2.1191    4.6717    0.5965 O   0  0  0  0  0  0  0  0  0  0  0  0
   -2.6353   -0.3732    0.7183 O   0  0  0  0  0  0  0  0  0  0  0  0
   -2.8288    3.7389   -1.5593 C   0  0  0  0  0  0  0  0  0  0  0  0
   -2.9110    2.6058   -2.4780 C   0  0  0  0  0  0  0  0  0  0  0  0
    0.5006    0.8025   -1.6552 H   0  0  0  0  0  0  0  0  0  0  0  0
   -2.4868    2.6221   -3.7970 C   0  0  0  0  0  0  0  0  0  0  0  0
   -2.4870    1.0255   -4.4393 S   0  0  0  0  0  0  0  0  0  0  0  0
   -3.0363    0.4229   -2.9267 C   0  0  0  0  0  0  0  0  0  0  0  0
   -3.3384    1.3529   -2.0442 N   0  0  0  0  0  0  0  0  0  0  0  0
   -3.3762    4.9075   -1.9762 C   0  0  0  0  0  0  0  0  0  0  0  0
   -0.8025   -2.9688   -0.0530 C   0  0  0  0  0  0  0  0  0  0  0  0
   -1.9898   -3.0642   -0.3114 O   0  0  0  0  0  0  0  0  0  0  0  0
   -0.0804   -4.0672    0.2545 O   0  0  0  0  0  0  0  0  0  0  0  0
   -3.0243   -0.8892   -2.6548 N   0  0  0  0  0  0  0  0  0  0  0  0
   -3.4956    6.2348   -1.2837 C   0  0  0  0  0  0  0  0  0  0  0  0
   -2.8452    7.3556   -2.0575 C   0  0  0  0  0  0  0  0  0  0  0  0
   -3.3868    8.3988   -2.3880 O   0  0  0  0  0  0  0  0  0  0  0  0
   -1.5407    7.1446   -2.3288 O   0  0  0  0  0  0  0  0  0  0  0  0
    1.8672   -2.7131    0.2098 H   0  0  0  0  0  0  0  0  0  0  0  0
    2.7030   -0.4219   -0.9688 H   0  0  0  0  0  0  0  0  0  0  0  0
    3.1133   -0.7352    0.7308 H   0  0  0  0  0  0  0  0  0  0  0  0
   -1.3201    1.6285   -1.4578 H   0  0  0  0  0  0  0  0  0  0  0  0
   -1.0222    2.7879    1.2322 H   0  0  0  0  0  0  0  0  0  0  0  0
   -2.1224    3.4487   -4.3894 H   0  0  0  0  0  0  0  0  0  0  0  0
   -3.8530    4.9128   -2.9590 H   0  0  0  0  0  0  0  0  0  0  0  0
   -0.7335   -4.7983    0.2563 H   0  0  0  0  0  0  0  0  0  0  0  0
   -2.9183   -1.5991   -3.3671 H   0  0  0  0  0  0  0  0  0  0  0  0
   -3.2633   -1.2363   -1.7253 H   0  0  0  0  0  0  0  0  0  0  0  0
   -4.5631    6.4554   -1.1814 H   0  0  0  0  0  0  0  0  0  0  0  0
   -3.0871    6.2903   -0.2814 H   0  0  0  0  0  0  0  0  0  0  0  0
   -1.2378    7.9790   -2.7442 H   0  0  0  0  0  0  0  0  0  0  0  0
  1  2  1  0  0  0  0
  1  6  1  0  0  0  0
  1  7  1  0  0  0  0
  1 15  1  6  0  0  0
  2  3  1  0  0  0  0
  2  8  1  0  0  0  0
  3  4  2  0  0  0  0
  3 21  1  0  0  0  0
  4  5  1  0  0  0  0
  4 29  1  0  0  0  0
  5  6  1  0  0  0  0
  5 30  1  0  0  0  0
  5 31  1  0  0  0  0
  7  8  1  0  0  0  0
  7  9  1  0  0  0  0
  7 32  1  6  0  0  0
  8 12  2  0  0  0  0
  9 10  1  0  0  0  0
  9 33  1  0  0  0  0
 10 11  2  0  0  0  0
 10 13  1  0  0  0  0
 13 14  1  0  0  0  0
 13 20  2  0  0  0  0
 14 16  2  0  0  0  0
 14 19  1  0  0  0  0
 16 17  1  0  0  0  0
 16 34  1  0  0  0  0
 17 18  1  0  0  0  0
 18 19  2  0  0  0  0
 18 24  1  0  0  0  0
 20 25  1  0  0  0  0
 20 35  1  0  0  0  0
 21 22  2  0  0  0  0
 21 23  1  0  0  0  0
 23 36  1  0  0  0  0
 24 37  1  0  0  0  0
 24 38  1  0  0  0  0
 25 26  1  0  0  0  0
 25 39  1  0  0  0  0
 25 40  1  0  0  0  0
 26 27  2  0  0  0  0
 26 28  1  0  0  0  0
 28 41  1  0  0  0  0
M  END
>  <DRUGBANK_ID>
DB01415

>  <COMMON_NAME>
Ceftibuten

>  <CAS_NUMBER>
97519-39-6

>  <UNII>
IW71N46B4Y

>  <SYNONYMS>
(+)-(6R,7R)-7-((Z)-2-(2-amino-4-thiazolyl)-4-carboxycrotonamido)-8-oxo-5-thia-1-azabicyclo(4.2.0)oct-2-ene-2-carboxylic acid; Ceftibuten; Ceftibutene; Ceftibuteno; Ceftibutenum; cis-ceftibuten

$$$$
