819
 OpenBabel10282417113D

 19 19  0  0  0  0  0  0  0  0999 V2000
    0.9602    0.0420    0.0574 S   0  0  0  0  0  0  0  0  0  0  0  0
    3.7058    1.3860    0.0412 S   0  0  0  0  0  0  0  0  0  0  0  0
    0.5476   -0.5068   -1.2127 O   0  0  0  0  0  0  0  0  0  0  0  0
    0.5180   -0.5278    1.3136 O   0  0  0  0  0  0  0  0  0  0  0  0
    8.5683    0.6226   -0.0683 O   0  0  0  0  0  0  0  0  0  0  0  0
    6.3258    0.8514   -0.0097 N   0  0  0  0  0  0  0  0  0  0  0  0
    3.3910   -1.1574    0.0577 N   0  0  0  0  0  0  0  0  0  0  0  0
    0.3892    1.6321    0.0377 N   0  0  0  0  0  0  0  0  0  0  0  0
    4.7379   -0.9422    0.0354 N   0  0  0  0  0  0  0  0  0  0  0  0
    2.7226   -0.0259    0.0673 C   0  0  0  0  0  0  0  0  0  0  0  0
    5.0578    0.3275    0.0227 C   0  0  0  0  0  0  0  0  0  0  0  0
    7.4625    0.0774   -0.0365 C   0  0  0  0  0  0  0  0  0  0  0  0
    7.3505   -1.4314   -0.0290 C   0  0  0  0  0  0  0  0  0  0  0  0
    6.4717    1.8517   -0.0167 H   0  0  0  0  0  0  0  0  0  0  0  0
    0.6577    2.0978   -0.8287 H   0  0  0  0  0  0  0  0  0  0  0  0
   -0.6321    1.5944    0.1166 H   0  0  0  0  0  0  0  0  0  0  0  0
    6.8555   -1.7653    0.8880 H   0  0  0  0  0  0  0  0  0  0  0  0
    6.8100   -1.7710   -0.9179 H   0  0  0  0  0  0  0  0  0  0  0  0
    8.3411   -1.8918   -0.0526 H   0  0  0  0  0  0  0  0  0  0  0  0
  1  3  2  0  0  0  0
  1  4  2  0  0  0  0
  1  8  1  0  0  0  0
  1 10  1  0  0  0  0
  2 10  1  0  0  0  0
  2 11  1  0  0  0  0
  5 12  2  0  0  0  0
  6 11  1  0  0  0  0
  6 12  1  0  0  0  0
  6 14  1  0  0  0  0
  7  9  1  0  0  0  0
  7 10  2  0  0  0  0
  8 15  1  0  0  0  0
  8 16  1  0  0  0  0
  9 11  2  0  0  0  0
 12 13  1  0  0  0  0
 13 17  1  0  0  0  0
 13 18  1  0  0  0  0
 13 19  1  0  0  0  0
M  END
>  <DRUGBANK_ID>
DB00819

>  <SECONDARY_ACCESSION_NUMBERS>
APRD00119; EXPT00604

>  <COMMON_NAME>
Acetazolamide

>  <CAS_NUMBER>
59-66-5

>  <UNII>
O3FX965V0I

>  <SYNONYMS>
2-acetylamino-1,3,4-thiadiazole-5-sulfonamide; 5-acetamido-1,3,4-thiadiazole-2-sulfonamide; 5-acetylamino-1,3,4-thiadiazole-2-sulfonamide; Acetazolamid; Acetazolamida; Ac√©tazolamide; Acetazolamide; Acetazolamidum; N-[5-(aminosulfonyl)-1,3,4-thiadiazol-2-yl]acetamide; N-[5-(aminosulfonyl)-1,3,5-thiadiazol-2-yl]acetamide

$$$$
