
 OpenBabel10282417103D

 62 62  0  0  0  0  0  0  0  0999 V2000
    1.1870   -0.0842   -1.0604 C   0  0  0  0  0  0  0  0  0  0  0  0
    0.2533   -1.1566   -0.9230 C   0  0  0  0  0  0  0  0  0  0  0  0
    0.7266    1.1313   -0.5542 C   0  0  0  0  0  0  0  0  0  0  0  0
    2.7194   -0.4481   -1.2982 C   0  0  3  0  0  0  0  0  0  0  0  0
   -1.0623   -0.9763   -0.4455 C   0  0  0  0  0  0  0  0  0  0  0  0
   -0.5645    1.2967   -0.0837 C   0  0  0  0  0  0  0  0  0  0  0  0
    3.6778    0.3622   -2.0942 C   0  0  0  0  0  0  0  0  0  0  0  0
    3.8248   -0.6663   -0.4193 O   0  0  0  0  0  0  0  0  0  0  0  0
   -1.5136    0.3135   -0.2204 C   0  0  0  0  0  0  0  0  0  0  0  0
    3.6566    1.8265   -1.5507 C   0  0  0  0  0  0  0  0  0  0  0  0
   -2.9023    0.6026   -0.1485 N   0  0  0  0  0  0  0  0  0  0  0  0
    4.0769    2.3550   -0.0861 C   0  0  0  0  0  0  0  0  0  0  0  0
   -3.4982    2.1851   -0.2006 S   0  0  0  0  0  0  0  0  0  0  0  0
    5.4019    2.0383    0.4846 N   0  0  0  0  0  0  0  0  0  0  0  0
   -4.2659    2.3246   -1.7982 C   0  0  0  0  0  0  0  0  0  0  0  0
   -4.5972    2.1896    0.8015 O   0  0  0  0  0  0  0  0  0  0  0  0
   -2.5091    3.1899   -0.1724 O   0  0  0  0  0  0  0  0  0  0  0  0
    5.7991    2.8564    1.6459 C   0  0  0  0  0  0  0  0  0  0  0  0
    5.1005    2.5744    2.9717 C   0  0  0  0  0  0  0  0  0  0  0  0
    5.7336    0.6431    0.7990 C   0  0  0  0  0  0  0  0  0  0  0  0
    4.9028   -0.1233    1.9884 C   0  0  0  0  0  0  0  0  0  0  0  0
    3.3423    0.1165    2.3423 C   0  0  0  0  0  0  0  0  0  0  0  0
    2.4285   -0.5691    1.3792 C   0  0  0  0  0  0  0  0  0  0  0  0
    2.8150   -2.1293    1.0160 C   0  0  0  0  0  0  0  0  0  0  0  0
    2.1048   -2.8995    2.0489 C   0  0  0  0  0  0  0  0  0  0  0  0
    0.6119   -2.6775    1.8680 C   0  0  0  0  0  0  0  0  0  0  0  0
    0.6169   -2.1851   -0.9771 H   0  0  0  0  0  0  0  0  0  0  0  0
    1.3668    1.9519   -0.2728 H   0  0  0  0  0  0  0  0  0  0  0  0
    2.5252   -1.4856   -1.2071 H   0  0  0  0  0  0  0  0  0  0  0  0
   -1.6567   -1.8450   -0.1540 H   0  0  0  0  0  0  0  0  0  0  0  0
   -0.7594    2.2305    0.4280 H   0  0  0  0  0  0  0  0  0  0  0  0
    4.7379   -0.0036   -2.0388 H   0  0  0  0  0  0  0  0  0  0  0  0
    3.3977    0.1994   -3.1194 H   0  0  0  0  0  0  0  0  0  0  0  0
    3.9644    0.1747    0.0300 H   0  0  0  0  0  0  0  0  0  0  0  0
    4.1749    2.4214   -2.2875 H   0  0  0  0  0  0  0  0  0  0  0  0
    2.6154    2.1127   -1.6583 H   0  0  0  0  0  0  0  0  0  0  0  0
   -3.5587   -0.1690   -0.2170 H   0  0  0  0  0  0  0  0  0  0  0  0
    3.9637    3.4508   -0.1660 H   0  0  0  0  0  0  0  0  0  0  0  0
    3.3125    2.1471    0.6625 H   0  0  0  0  0  0  0  0  0  0  0  0
   -5.0900    1.6248   -1.9015 H   0  0  0  0  0  0  0  0  0  0  0  0
   -4.6438    3.3527   -1.8582 H   0  0  0  0  0  0  0  0  0  0  0  0
   -3.5109    2.1947   -2.5780 H   0  0  0  0  0  0  0  0  0  0  0  0
    6.8740    2.6805    1.7894 H   0  0  0  0  0  0  0  0  0  0  0  0
    5.6883    3.9179    1.4184 H   0  0  0  0  0  0  0  0  0  0  0  0
    5.3288    1.5992    3.3741 H   0  0  0  0  0  0  0  0  0  0  0  0
    5.4498    3.2021    3.7838 H   0  0  0  0  0  0  0  0  0  0  0  0
    4.0219    2.6841    2.8796 H   0  0  0  0  0  0  0  0  0  0  0  0
    5.7650    0.1040   -0.1565 H   0  0  0  0  0  0  0  0  0  0  0  0
    6.8164    0.5573    0.9952 H   0  0  0  0  0  0  0  0  0  0  0  0
    5.0425   -1.1762    1.7720 H   0  0  0  0  0  0  0  0  0  0  0  0
    5.4782   -0.0817    2.9138 H   0  0  0  0  0  0  0  0  0  0  0  0
    2.9959   -0.2543    3.3067 H   0  0  0  0  0  0  0  0  0  0  0  0
    3.0032    1.1668    2.3482 H   0  0  0  0  0  0  0  0  0  0  0  0
    1.3756   -0.3796    1.5388 H   0  0  0  0  0  0  0  0  0  0  0  0
    2.4573    0.2367    0.6653 H   0  0  0  0  0  0  0  0  0  0  0  0
    2.5147   -2.6468    0.0822 H   0  0  0  0  0  0  0  0  0  0  0  0
    3.8957   -2.3658    0.9773 H   0  0  0  0  0  0  0  0  0  0  0  0
    2.3691   -3.9511    1.9340 H   0  0  0  0  0  0  0  0  0  0  0  0
    2.4975   -2.4860    2.9722 H   0  0  0  0  0  0  0  0  0  0  0  0
    0.2651   -3.1400    0.9405 H   0  0  0  0  0  0  0  0  0  0  0  0
    0.0561   -3.0419    2.7142 H   0  0  0  0  0  0  0  0  0  0  0  0
    0.2954   -1.6383    1.8181 H   0  0  0  0  0  0  0  0  0  0  0  0
  1  2  1  0  0  0  0
  1  3  2  0  0  0  0
  1  4  1  0  0  0  0
  2  5  2  0  0  0  0
  2 27  1  0  0  0  0
  3  6  1  0  0  0  0
  3 28  1  0  0  0  0
  4  7  1  0  0  0  0
  4  8  1  0  0  0  0
  4 29  1  0  0  0  0
  5  9  1  0  0  0  0
  5 30  1  0  0  0  0
  6  9  2  0  0  0  0
  6 31  1  0  0  0  0
  7 10  1  0  0  0  0
  7 32  1  0  0  0  0
  7 33  1  0  0  0  0
  8 34  1  0  0  0  0
  9 11  1  0  0  0  0
 10 12  1  0  0  0  0
 10 35  1  0  0  0  0
 10 36  1  0  0  0  0
 11 13  1  0  0  0  0
 11 37  1  0  0  0  0
 12 14  1  0  0  0  0
 12 38  1  0  0  0  0
 12 39  1  0  0  0  0
 13 15  1  0  0  0  0
 13 16  2  0  0  0  0
 13 17  2  0  0  0  0
 14 18  1  0  0  0  0
 14 20  1  0  0  0  0
 15 40  1  0  0  0  0
 15 41  1  0  0  0  0
 15 42  1  0  0  0  0
 18 19  1  0  0  0  0
 18 43  1  0  0  0  0
 18 44  1  0  0  0  0
 19 45  1  0  0  0  0
 19 46  1  0  0  0  0
 19 47  1  0  0  0  0
 20 21  1  0  0  0  0
 20 48  1  0  0  0  0
 20 49  1  0  0  0  0
 21 22  1  0  0  0  0
 21 50  1  0  0  0  0
 21 51  1  0  0  0  0
 22 23  1  0  0  0  0
 22 52  1  0  0  0  0
 22 53  1  0  0  0  0
 23 24  1  0  0  0  0
 23 54  1  0  0  0  0
 23 55  1  0  0  0  0
 24 25  1  0  0  0  0
 24 56  1  0  0  0  0
 24 57  1  0  0  0  0
 25 26  1  0  0  0  0
 25 58  1  0  0  0  0
 25 59  1  0  0  0  0
 26 60  1  0  0  0  0
 26 61  1  0  0  0  0
 26 62  1  0  0  0  0
M  END
>  <DRUGBANK_ID>
DB00308

>  <SECONDARY_ACCESSION_NUMBERS>
APRD01025

>  <COMMON_NAME>
Ibutilide

>  <CAS_NUMBER>
122647-31-8

>  <UNII>
2436VX1U9B

>  <SYNONYMS>
Ibutilid; Ibutilida; Ibutilide; Ibutilidum; N-(4-{4-[ethyl(heptyl)amino]-1-hydroxybutyl}phenyl)methanesulfonamide

$$$$
