
 OpenBabel10282417223D

 64 66  0  0  1  0  0  0  0  0999 V2000
    3.1105    2.3746    1.4769 C   0  0  0  0  0  0  0  0  0  0  0  0
    1.9049    3.1347    1.8393 C   0  0  0  0  0  0  0  0  0  0  0  0
    2.0179    2.6817    3.2987 C   0  0  0  0  0  0  0  0  0  0  0  0
    2.0175    4.7335    1.6465 C   0  0  0  0  0  0  0  0  0  0  0  0
    1.8239    5.4588    0.2871 C   0  0  0  0  0  0  0  0  0  0  0  0
    1.8892    6.8410    0.1307 C   0  0  0  0  0  0  0  0  0  0  0  0
    1.8176    7.4232   -1.1629 C   0  0  0  0  0  0  0  0  0  0  0  0
    1.7587    6.6411   -2.3174 C   0  0  0  0  0  0  0  0  0  0  0  0
    1.7099    7.1897   -3.5355 F   0  0  0  0  0  0  0  0  0  0  0  0
    1.7376    5.2872   -2.2065 C   0  0  0  0  0  0  0  0  0  0  0  0
    1.6961    4.7754   -0.9199 C   0  0  0  0  0  0  0  0  0  0  0  0
    0.7876    2.5235    1.0605 N   0  0  0  0  0  0  0  0  0  0  0  0
    0.7453    2.0095   -0.2421 C   0  0  0  0  0  0  0  0  0  0  0  0
   -0.3205    2.2361   -0.8439 O   0  0  0  0  0  0  0  0  0  0  0  0
    2.0542    1.4394   -1.1570 C   0  0  2  0  0  0  0  0  0  0  0  0
    1.6181    0.9075   -2.5148 C   0  0  0  0  0  0  0  0  0  0  0  0
    1.0045   -0.4712   -2.4042 C   0  0  0  0  0  0  0  0  0  0  0  0
   -0.2149   -0.5387   -1.5052 C   0  0  0  0  0  0  0  0  0  0  0  0
   -1.3771   -0.7015   -2.1792 O   0  0  0  0  0  0  0  0  0  0  0  0
   -0.1527   -0.4919   -0.3047 O   0  0  0  0  0  0  0  0  0  0  0  0
    3.1093    0.5726   -0.6086 N   0  0  0  0  0  0  0  0  0  0  0  0
    4.4510    0.8821   -0.3221 C   0  0  0  0  0  0  0  0  0  0  0  0
    5.0629    0.0680    0.3749 O   0  0  0  0  0  0  0  0  0  0  0  0
    5.1344    2.2482   -0.6264 C   0  0  0  0  0  0  0  0  0  0  0  0
    4.5457    3.5231   -0.4912 C   0  0  0  0  0  0  0  0  0  0  0  0
    5.1460    4.7380   -0.3474 C   0  0  0  0  0  0  0  0  0  0  0  0
    6.4694    4.7673   -0.5774 C   0  0  0  0  0  0  0  0  0  0  0  0
    7.1603    3.5538   -0.7554 C   0  0  0  0  0  0  0  0  0  0  0  0
    6.5053    2.2999   -0.7446 C   0  0  0  0  0  0  0  0  0  0  0  0
    6.9875    6.0871   -0.7732 C   0  0  0  0  0  0  0  0  0  0  0  0
    6.8888    7.0589    0.2338 C   0  0  0  0  0  0  0  0  0  0  0  0
    7.4160    8.3152    0.0129 C   0  0  0  0  0  0  0  0  0  0  0  0
    8.0129    8.5904   -1.2176 C   0  0  0  0  0  0  0  0  0  0  0  0
    8.0071    7.6522   -2.2525 C   0  0  0  0  0  0  0  0  0  0  0  0
    7.4189    6.4236   -2.0525 C   0  0  0  0  0  0  0  0  0  0  0  0
    4.0723    2.7630    1.8097 H   0  0  0  0  0  0  0  0  0  0  0  0
    2.9943    2.4203    0.4476 H   0  0  0  0  0  0  0  0  0  0  0  0
    3.0394    1.3010    1.6682 H   0  0  0  0  0  0  0  0  0  0  0  0
    3.0065    2.9868    3.6970 H   0  0  0  0  0  0  0  0  0  0  0  0
    1.2357    3.0394    3.9431 H   0  0  0  0  0  0  0  0  0  0  0  0
    2.0258    1.5765    3.3426 H   0  0  0  0  0  0  0  0  0  0  0  0
    1.2910    5.1838    2.3333 H   0  0  0  0  0  0  0  0  0  0  0  0
    3.0113    5.0370    2.0180 H   0  0  0  0  0  0  0  0  0  0  0  0
    2.0103    7.4893    0.9935 H   0  0  0  0  0  0  0  0  0  0  0  0
    1.8185    8.4990   -1.2852 H   0  0  0  0  0  0  0  0  0  0  0  0
    1.7572    4.6188   -3.0630 H   0  0  0  0  0  0  0  0  0  0  0  0
    1.6819    3.7309   -0.9048 H   0  0  0  0  0  0  0  0  0  0  0  0
   -0.1200    2.9121    1.2979 H   0  0  0  0  0  0  0  0  0  0  0  0
    2.6154    2.3030   -1.4987 H   0  0  0  0  0  0  0  0  0  0  0  0
    0.9565    1.6326   -3.0042 H   0  0  0  0  0  0  0  0  0  0  0  0
    2.5169    0.8438   -3.1510 H   0  0  0  0  0  0  0  0  0  0  0  0
    0.7894   -0.8480   -3.4044 H   0  0  0  0  0  0  0  0  0  0  0  0
    1.7301   -1.1633   -1.9652 H   0  0  0  0  0  0  0  0  0  0  0  0
   -1.2765   -0.8182   -3.1378 H   0  0  0  0  0  0  0  0  0  0  0  0
    2.7671   -0.2379   -0.0925 H   0  0  0  0  0  0  0  0  0  0  0  0
    3.5338    3.7401   -0.3098 H   0  0  0  0  0  0  0  0  0  0  0  0
    4.5635    5.6330   -0.1207 H   0  0  0  0  0  0  0  0  0  0  0  0
    8.2343    3.5898   -0.8849 H   0  0  0  0  0  0  0  0  0  0  0  0
    7.0647    1.3751   -0.8268 H   0  0  0  0  0  0  0  0  0  0  0  0
    6.3910    6.8331    1.1773 H   0  0  0  0  0  0  0  0  0  0  0  0
    7.3912    9.0530    0.8082 H   0  0  0  0  0  0  0  0  0  0  0  0
    8.4820    9.5525   -1.3791 H   0  0  0  0  0  0  0  0  0  0  0  0
    8.4780    7.8560   -3.2064 H   0  0  0  0  0  0  0  0  0  0  0  0
    7.2845    5.7195   -2.8737 H   0  0  0  0  0  0  0  0  0  0  0  0
  1  2  1  0  0  0  0
  1 36  1  0  0  0  0
  1 37  1  0  0  0  0
  1 38  1  0  0  0  0
  2  3  1  0  0  0  0
  2  4  1  0  0  0  0
  2 12  1  0  0  0  0
  3 39  1  0  0  0  0
  3 40  1  0  0  0  0
  3 41  1  0  0  0  0
  4  5  1  0  0  0  0
  4 42  1  0  0  0  0
  4 43  1  0  0  0  0
  5  6  2  0  0  0  0
  5 11  1  0  0  0  0
  6  7  1  0  0  0  0
  6 44  1  0  0  0  0
  7  8  2  0  0  0  0
  7 45  1  0  0  0  0
  8  9  1  0  0  0  0
  8 10  1  0  0  0  0
 10 11  2  0  0  0  0
 10 46  1  0  0  0  0
 11 47  1  0  0  0  0
 12 13  1  0  0  0  0
 12 48  1  0  0  0  0
 13 14  2  0  0  0  0
 15 21  1  0  0  0  0
 15 49  1  6  0  0  0
 15 16  1  0  0  0  0
 15 13  1  0  0  0  0
 16 17  1  0  0  0  0
 16 50  1  0  0  0  0
 16 51  1  0  0  0  0
 17 18  1  0  0  0  0
 17 52  1  0  0  0  0
 17 53  1  0  0  0  0
 18 19  1  0  0  0  0
 18 20  2  0  0  0  0
 19 54  1  0  0  0  0
 21 22  1  0  0  0  0
 21 55  1  0  0  0  0
 22 23  2  0  0  0  0
 22 24  1  0  0  0  0
 24 25  2  0  0  0  0
 24 29  1  0  0  0  0
 25 26  1  0  0  0  0
 25 56  1  0  0  0  0
 26 27  2  0  0  0  0
 26 57  1  0  0  0  0
 27 28  1  0  0  0  0
 27 30  1  0  0  0  0
 28 29  2  0  0  0  0
 28 58  1  0  0  0  0
 29 59  1  0  0  0  0
 30 31  2  0  0  0  0
 30 35  1  0  0  0  0
 31 32  1  0  0  0  0
 31 60  1  0  0  0  0
 32 33  2  0  0  0  0
 32 61  1  0  0  0  0
 33 34  1  0  0  0  0
 33 62  1  0  0  0  0
 34 35  2  0  0  0  0
 34 63  1  0  0  0  0
 35 64  1  0  0  0  0
M  END
>  <DRUGBANK_ID>
DB15460

>  <COMMON_NAME>
AGG-523

>  <CAS_NUMBER>
920289-29-8

>  <UNII>
WO23I2827Q

$$$$
