GF1
 OpenBabel10282417163D

 32 34  0  0  0  0  0  0  0  0999 V2000
    1.0065   -0.0594   -0.2126 O   0  0  0  0  0  0  0  0  0  0  0  0
    2.2308   -0.0296   -0.1698 C   0  0  0  0  0  0  0  0  0  0  0  0
    3.0294   -0.9075    0.5143 N   0  0  0  0  0  0  0  0  0  0  0  0
    2.4553   -1.9647    1.3544 C   0  0  2  0  0  0  0  0  0  0  0  0
    1.6432   -1.3485    2.5114 C   0  0  0  0  0  0  0  0  0  0  0  0
    0.3456   -1.7359    2.5711 O   0  0  0  0  0  0  0  0  0  0  0  0
    2.1080   -0.5781    3.3425 O   0  0  0  0  0  0  0  0  0  0  0  0
    3.5194   -2.8528    1.9956 C   0  0  0  0  0  0  0  0  0  0  0  0
    3.0896    1.0523   -0.7700 C   0  0  2  0  0  0  0  0  0  0  0  0
    4.5212    0.6164   -0.4381 C   0  0  2  0  0  0  0  0  0  0  0  0
    4.3620   -0.6546    0.3259 C   0  0  0  0  0  0  0  0  0  0  0  0
    5.3309   -1.2840    0.7372 O   0  0  0  0  0  0  0  0  0  0  0  0
    2.9877    2.4170   -0.0530 C   0  0  1  0  0  0  0  0  0  0  0  0
    2.9268    2.2171    1.4764 C   0  0  0  0  0  0  0  0  0  0  0  0
    4.3512    1.7590    1.8228 C   0  0  0  0  0  0  0  0  0  0  0  0
    4.4072    2.9700   -0.2264 C   0  0  0  0  0  0  0  0  0  0  0  0
    5.0555    1.7618    0.4465 C   0  0  2  0  0  0  0  0  0  0  0  0
    1.7913   -2.5632    0.7218 H   0  0  0  0  0  0  0  0  0  0  0  0
    2.9350    1.1246   -1.8520 H   0  0  0  0  0  0  0  0  0  0  0  0
    5.1227    0.4535   -1.3392 H   0  0  0  0  0  0  0  0  0  0  0  0
    2.1887    3.0518   -0.4403 H   0  0  0  0  0  0  0  0  0  0  0  0
    6.1453    1.7843    0.5193 H   0  0  0  0  0  0  0  0  0  0  0  0
    0.0086   -2.2533    1.8152 H   0  0  0  0  0  0  0  0  0  0  0  0
    4.1499   -3.3150    1.2294 H   0  0  0  0  0  0  0  0  0  0  0  0
    4.1646   -2.2611    2.6606 H   0  0  0  0  0  0  0  0  0  0  0  0
    3.0835   -3.6477    2.6031 H   0  0  0  0  0  0  0  0  0  0  0  0
    2.1705    1.4897    1.7789 H   0  0  0  0  0  0  0  0  0  0  0  0
    2.6900    3.1490    1.9960 H   0  0  0  0  0  0  0  0  0  0  0  0
    4.3637    0.7818    2.3155 H   0  0  0  0  0  0  0  0  0  0  0  0
    4.8215    2.4623    2.5156 H   0  0  0  0  0  0  0  0  0  0  0  0
    4.5790    3.9066    0.3145 H   0  0  0  0  0  0  0  0  0  0  0  0
    4.7050    3.0919   -1.2735 H   0  0  0  0  0  0  0  0  0  0  0  0
  1  2  2  0  0  0  0
  2  9  1  0  0  0  0
  3  2  1  0  0  0  0
  3 11  1  0  0  0  0
  4  3  1  0  0  0  0
  4  5  1  0  0  0  0
  4 18  1  6  0  0  0
  4  8  1  0  0  0  0
  5  6  1  0  0  0  0
  6 23  1  0  0  0  0
  7  5  2  0  0  0  0
  8 24  1  0  0  0  0
  8 25  1  0  0  0  0
  8 26  1  0  0  0  0
  9 19  1  6  0  0  0
 10  9  1  0  0  0  0
 10 20  1  6  0  0  0
 11 10  1  0  0  0  0
 12 11  2  0  0  0  0
 13  9  1  0  0  0  0
 13 16  1  0  0  0  0
 13 21  1  6  0  0  0
 14 13  1  0  0  0  0
 14 27  1  0  0  0  0
 14 28  1  0  0  0  0
 15 14  1  0  0  0  0
 15 17  1  0  0  0  0
 15 29  1  0  0  0  0
 15 30  1  0  0  0  0
 16 31  1  0  0  0  0
 16 32  1  0  0  0  0
 17 10  1  0  0  0  0
 17 16  1  0  0  0  0
 17 22  1  1  0  0  0
M  END
>  <DRUGBANK_ID>
DB07823

>  <COMMON_NAME>
(2S)-2-[(3aR,4R,7S,7aS)-1,3-dioxooctahydro-2H-4,7-methanoisoindol-2-yl]propanoic acid

$$$$
