
 OpenBabel10282417183D

 46 48  0  0  0  0  0  0  0  0999 V2000
   -1.2220   -1.4563   -0.0030 C   0  0  0  0  0  0  0  0  0  0  0  0
    0.0138   -2.1105    0.0220 C   0  0  0  0  0  0  0  0  0  0  0  0
    1.2219   -1.3855    0.0421 C   0  0  0  0  0  0  0  0  0  0  0  0
    1.1335    0.0293   -0.0286 C   0  0  0  0  0  0  0  0  0  0  0  0
   -0.1037    0.6732   -0.0153 C   0  0  0  0  0  0  0  0  0  0  0  0
   -1.2717   -0.0675    0.0026 C   0  0  0  0  0  0  0  0  0  0  0  0
   -2.7804    0.7521    0.0026 Cl  0  0  0  0  0  0  0  0  0  0  0  0
    2.4515    1.1312   -0.2632 Cl  0  0  0  0  0  0  0  0  0  0  0  0
    2.3988   -2.1384    0.2918 N   0  0  0  0  0  0  0  0  0  0  0  0
    3.6784   -1.6076    0.3007 C   0  0  0  0  0  0  0  0  0  0  0  0
    4.4077   -1.8115   -0.7710 N   0  0  0  0  0  0  0  0  0  0  0  0
    5.5205   -1.0530   -0.8646 C   0  0  0  0  0  0  0  0  0  0  0  0
    6.0384   -0.1577    0.0656 C   0  0  0  0  0  0  0  0  0  0  0  0
    5.2251   -0.0461    1.1794 C   0  0  0  0  0  0  0  0  0  0  0  0
    4.0663   -0.7963    1.2854 N   0  0  0  0  0  0  0  0  0  0  0  0
    5.3875    0.9012    2.3561 C   0  0  0  0  0  0  0  0  0  0  0  0
    4.3816    1.8298    2.3956 F   0  0  0  0  0  0  0  0  0  0  0  0
    5.2802    0.2106    3.5344 F   0  0  0  0  0  0  0  0  0  0  0  0
    6.5201    1.6205    2.5141 F   0  0  0  0  0  0  0  0  0  0  0  0
    7.3305    0.5882   -0.0891 C   0  0  0  0  0  0  0  0  0  0  0  0
    7.6777    1.4571    0.6824 O   0  0  0  0  0  0  0  0  0  0  0  0
    8.2489    0.3439   -1.0715 N   0  0  0  0  0  0  0  0  0  0  0  0
    8.2183   -0.4305   -2.2776 C   0  0  0  0  0  0  0  0  0  0  0  0
    8.0124    0.4210   -3.5151 C   0  0  0  0  0  0  0  0  0  0  0  0
    9.3298    1.1314   -3.7856 C   0  0  0  0  0  0  0  0  0  0  0  0
    9.2037    2.0451   -4.9786 C   0  0  0  0  0  0  0  0  0  0  0  0
    8.1306    2.9654   -4.7952 O   0  0  0  0  0  0  0  0  0  0  0  0
    6.8630    2.3189   -4.6755 C   0  0  0  0  0  0  0  0  0  0  0  0
    6.8372    1.4144   -3.4495 C   0  0  0  0  0  0  0  0  0  0  0  0
   -2.1412   -2.0349   -0.0027 H   0  0  0  0  0  0  0  0  0  0  0  0
    0.0238   -3.1995    0.0469 H   0  0  0  0  0  0  0  0  0  0  0  0
   -0.1401    1.7596   -0.0264 H   0  0  0  0  0  0  0  0  0  0  0  0
    2.4139   -3.0290   -0.1925 H   0  0  0  0  0  0  0  0  0  0  0  0
    5.8929   -1.2405   -1.8471 H   0  0  0  0  0  0  0  0  0  0  0  0
    9.0410    0.9761   -0.9563 H   0  0  0  0  0  0  0  0  0  0  0  0
    9.1304   -1.0296   -2.3087 H   0  0  0  0  0  0  0  0  0  0  0  0
    7.4634   -1.1774   -2.2726 H   0  0  0  0  0  0  0  0  0  0  0  0
    7.8049   -0.2637   -4.3489 H   0  0  0  0  0  0  0  0  0  0  0  0
    9.6131    1.7270   -2.9097 H   0  0  0  0  0  0  0  0  0  0  0  0
   10.1181    0.3861   -3.9443 H   0  0  0  0  0  0  0  0  0  0  0  0
   10.1317    2.6132   -5.0805 H   0  0  0  0  0  0  0  0  0  0  0  0
    9.0482    1.4670   -5.8955 H   0  0  0  0  0  0  0  0  0  0  0  0
    6.6543    1.7484   -5.5878 H   0  0  0  0  0  0  0  0  0  0  0  0
    6.0955    3.0950   -4.5867 H   0  0  0  0  0  0  0  0  0  0  0  0
    5.8763    0.8873   -3.3964 H   0  0  0  0  0  0  0  0  0  0  0  0
    6.9075    2.0461   -2.5557 H   0  0  0  0  0  0  0  0  0  0  0  0
  1  2  2  0  0  0  0
  1  6  1  0  0  0  0
  1 30  1  0  0  0  0
  2  3  1  0  0  0  0
  2 31  1  0  0  0  0
  3  4  2  0  0  0  0
  3  9  1  0  0  0  0
  4  5  1  0  0  0  0
  4  8  1  0  0  0  0
  5  6  2  0  0  0  0
  5 32  1  0  0  0  0
  6  7  1  0  0  0  0
  9 10  1  0  0  0  0
  9 33  1  0  0  0  0
 10 11  2  0  0  0  0
 10 15  1  0  0  0  0
 11 12  1  0  0  0  0
 12 13  2  0  0  0  0
 12 34  1  0  0  0  0
 13 14  1  0  0  0  0
 13 20  1  0  0  0  0
 14 15  2  0  0  0  0
 14 16  1  0  0  0  0
 16 17  1  0  0  0  0
 16 18  1  0  0  0  0
 16 19  1  0  0  0  0
 20 21  2  0  0  0  0
 20 22  1  0  0  0  0
 22 23  1  0  0  0  0
 22 35  1  0  0  0  0
 23 24  1  0  0  0  0
 23 36  1  0  0  0  0
 23 37  1  0  0  0  0
 24 25  1  0  0  0  0
 24 29  1  0  0  0  0
 24 38  1  0  0  0  0
 25 26  1  0  0  0  0
 25 39  1  0  0  0  0
 25 40  1  0  0  0  0
 26 27  1  0  0  0  0
 26 41  1  0  0  0  0
 26 42  1  0  0  0  0
 27 28  1  0  0  0  0
 28 29  1  0  0  0  0
 28 43  1  0  0  0  0
 28 44  1  0  0  0  0
 29 45  1  0  0  0  0
 29 46  1  0  0  0  0
M  END
>  <DRUGBANK_ID>
DB11903

>  <COMMON_NAME>
GW842166

>  <CAS_NUMBER>
666260-75-9

>  <UNII>
VL1I6P2DZ8

$$$$
