
 OpenBabel10282417193D

 31 30  0  0  0  0  0  0  0  0999 V2000
    0.8230   -0.1517    0.0099 C   0  0  1  0  0  0  0  0  0  0  0  0
    0.3561    1.1981    0.6210 C   0  0  0  0  0  0  0  0  0  0  0  0
    0.2996   -1.4694    0.7186 C   0  0  0  0  0  0  0  0  0  0  0  0
    0.4398    0.0093   -1.4046 N   0  0  0  0  0  0  0  0  0  0  0  0
   -0.0703    1.1368    2.0745 C   0  0  0  0  0  0  0  0  0  0  0  0
    0.1976   -2.6398    0.0698 O   0  0  0  0  0  0  0  0  0  0  0  0
    0.0525   -1.5352    1.9217 O   0  0  0  0  0  0  0  0  0  0  0  0
    1.0759    0.6914    2.9778 C   0  0  0  0  0  0  0  0  0  0  0  0
    0.4419   -2.8439   -1.3069 C   0  0  0  0  0  0  0  0  0  0  0  0
    2.0223    1.7837    3.1486 N   0  0  0  0  0  0  0  0  0  0  0  0
    2.3587    2.2044    4.3998 C   0  0  0  0  0  0  0  0  0  0  0  0
    3.3398    3.1407    4.4273 N   0  0  0  0  0  0  0  0  0  0  0  0
    1.7083    1.7052    5.3978 N   0  0  0  0  0  0  0  0  0  0  0  0
    3.7212    3.7382    5.5669 N   0  3  0  0  0  0  0  0  0  0  0  0
    4.5913    4.5905    5.4113 O   0  0  0  0  0  0  0  0  0  0  0  0
    3.2001    3.4017    6.6373 O   0  5  0  0  0  0  0  0  0  0  0  0
    1.9209   -0.1816    0.0608 H   0  0  0  0  0  0  0  0  0  0  0  0
    1.1567    1.9457    0.5050 H   0  0  0  0  0  0  0  0  0  0  0  0
   -0.4887    1.6180    0.0555 H   0  0  0  0  0  0  0  0  0  0  0  0
    0.9215   -0.6378   -2.0149 H   0  0  0  0  0  0  0  0  0  0  0  0
   -0.5674   -0.1259   -1.4950 H   0  0  0  0  0  0  0  0  0  0  0  0
   -0.4664    2.1048    2.3999 H   0  0  0  0  0  0  0  0  0  0  0  0
   -0.9304    0.4593    2.1450 H   0  0  0  0  0  0  0  0  0  0  0  0
    0.6321    0.3382    3.9144 H   0  0  0  0  0  0  0  0  0  0  0  0
    1.6573   -0.1494    2.5903 H   0  0  0  0  0  0  0  0  0  0  0  0
   -0.3159   -2.3144   -1.8847 H   0  0  0  0  0  0  0  0  0  0  0  0
    1.4674   -2.5597   -1.5498 H   0  0  0  0  0  0  0  0  0  0  0  0
    0.3135   -3.9081   -1.5030 H   0  0  0  0  0  0  0  0  0  0  0  0
    2.6084    1.9676    2.3456 H   0  0  0  0  0  0  0  0  0  0  0  0
    3.7578    3.4417    3.5655 H   0  0  0  0  0  0  0  0  0  0  0  0
    2.0331    2.1240    6.2772 H   0  0  0  0  0  0  0  0  0  0  0  0
  1  4  1  0  0  0  0
  1 17  1  1  0  0  0
  1  3  1  0  0  0  0
  1  2  1  0  0  0  0
  2  5  1  0  0  0  0
  2 18  1  0  0  0  0
  2 19  1  0  0  0  0
  3  6  1  0  0  0  0
  3  7  2  0  0  0  0
  4 20  1  0  0  0  0
  4 21  1  0  0  0  0
  5  8  1  0  0  0  0
  5 22  1  0  0  0  0
  5 23  1  0  0  0  0
  6  9  1  0  0  0  0
  8 10  1  0  0  0  0
  8 24  1  0  0  0  0
  8 25  1  0  0  0  0
  9 26  1  0  0  0  0
  9 27  1  0  0  0  0
  9 28  1  0  0  0  0
 10 11  1  0  0  0  0
 10 29  1  0  0  0  0
 11 12  1  0  0  0  0
 11 13  2  0  0  0  0
 12 14  1  0  0  0  0
 12 30  1  0  0  0  0
 13 31  1  0  0  0  0
 14 15  2  0  0  0  0
 14 16  1  0  0  0  0
M  CHG  2  14   1  16  -1
M  END
>  <DRUGBANK_ID>
DB12750

>  <COMMON_NAME>
N-omega-nitro-L-arginine methyl ester

>  <CAS_NUMBER>
50903-99-6

>  <UNII>
V55S2QJN2X

>  <SYNONYMS>
L-NAME; N-nitro-arginine methyl ester; NG-nitro-L-arginine methyl ester; NG-Nitroarginine methyl ester

$$$$
