
 OpenBabel10282417233D

 45 47  0  0  0  0  0  0  0  0999 V2000
    1.3166   -0.2293   -0.0701 C   0  0  0  0  0  0  0  0  0  0  0  0
    0.5643   -1.4777    0.1238 N   0  0  0  0  0  0  0  0  0  0  0  0
   -0.9151   -1.4293    0.1541 C   0  0  0  0  0  0  0  0  0  0  0  0
   -1.4777   -0.8705   -1.1210 C   0  0  0  0  0  0  0  0  0  0  0  0
   -1.9827   -1.6094   -2.1915 C   0  0  0  0  0  0  0  0  0  0  0  0
   -2.2653   -0.7432   -3.2220 N   0  0  0  0  0  0  0  0  0  0  0  0
   -1.9622    0.5481   -2.8409 C   0  0  0  0  0  0  0  0  0  0  0  0
   -1.5995    0.5026   -1.5038 C   0  0  0  0  0  0  0  0  0  0  0  0
   -1.3294    1.6715   -0.8620 O   0  0  0  0  0  0  0  0  0  0  0  0
   -1.0753    1.6069    0.5247 C   0  0  0  0  0  0  0  0  0  0  0  0
   -1.9825    1.7248   -3.6988 C   0  0  0  0  0  0  0  0  0  0  0  0
   -0.8057    2.4534   -3.9358 C   0  0  0  0  0  0  0  0  0  0  0  0
    0.3624    2.0577   -3.4029 F   0  0  0  0  0  0  0  0  0  0  0  0
   -0.8214    3.6010   -4.7147 C   0  0  0  0  0  0  0  0  0  0  0  0
   -2.0236    4.0089   -5.2754 C   0  0  0  0  0  0  0  0  0  0  0  0
   -2.0542    5.1061   -6.0408 F   0  0  0  0  0  0  0  0  0  0  0  0
   -3.2035    3.3082   -5.0490 C   0  0  0  0  0  0  0  0  0  0  0  0
   -3.1874    2.1824   -4.2341 C   0  0  0  0  0  0  0  0  0  0  0  0
   -2.8521   -1.1752   -4.7804 S   0  0  0  0  0  0  0  0  0  0  0  0
   -4.1516   -0.5587   -4.9002 O   0  0  0  0  0  0  0  0  0  0  0  0
   -1.7566   -0.8640   -5.6918 O   0  0  0  0  0  0  0  0  0  0  0  0
   -3.1368   -2.9181   -4.8349 C   0  0  0  0  0  0  0  0  0  0  0  0
   -4.0944   -3.4735   -3.9828 C   0  0  0  0  0  0  0  0  0  0  0  0
   -4.3518   -4.8345   -4.0618 C   0  0  0  0  0  0  0  0  0  0  0  0
   -5.2383   -5.3822   -3.2216 F   0  0  0  0  0  0  0  0  0  0  0  0
   -3.6998   -5.6381   -4.9917 C   0  0  0  0  0  0  0  0  0  0  0  0
   -2.7722   -5.0720   -5.8672 C   0  0  0  0  0  0  0  0  0  0  0  0
   -2.4931   -3.7058   -5.7968 C   0  0  0  0  0  0  0  0  0  0  0  0
    1.3225    0.4186    0.8161 H   0  0  0  0  0  0  0  0  0  0  0  0
    0.9838    0.3314   -0.9494 H   0  0  0  0  0  0  0  0  0  0  0  0
    2.3790   -0.4258   -0.2326 H   0  0  0  0  0  0  0  0  0  0  0  0
    0.8271   -2.1003   -0.6345 H   0  0  0  0  0  0  0  0  0  0  0  0
   -1.2805   -2.4569    0.2817 H   0  0  0  0  0  0  0  0  0  0  0  0
   -1.3298   -0.9214    1.0330 H   0  0  0  0  0  0  0  0  0  0  0  0
   -2.1238   -2.6772   -2.2830 H   0  0  0  0  0  0  0  0  0  0  0  0
   -1.9791    1.4861    1.1199 H   0  0  0  0  0  0  0  0  0  0  0  0
   -0.4671    0.7751    0.7861 H   0  0  0  0  0  0  0  0  0  0  0  0
   -0.4730    2.4639    0.8390 H   0  0  0  0  0  0  0  0  0  0  0  0
    0.0885    4.1640   -4.8800 H   0  0  0  0  0  0  0  0  0  0  0  0
   -4.1336    3.6391   -5.4978 H   0  0  0  0  0  0  0  0  0  0  0  0
   -4.1212    1.6697   -4.0184 H   0  0  0  0  0  0  0  0  0  0  0  0
   -4.6405   -2.8695   -3.2645 H   0  0  0  0  0  0  0  0  0  0  0  0
   -3.9260   -6.6993   -5.0339 H   0  0  0  0  0  0  0  0  0  0  0  0
   -2.2715   -5.6941   -6.6059 H   0  0  0  0  0  0  0  0  0  0  0  0
   -1.7884   -3.2672   -6.5027 H   0  0  0  0  0  0  0  0  0  0  0  0
  1  2  1  0  0  0  0
  1 29  1  0  0  0  0
  1 30  1  0  0  0  0
  1 31  1  0  0  0  0
  2  3  1  0  0  0  0
  2 32  1  0  0  0  0
  3  4  1  0  0  0  0
  3 33  1  0  0  0  0
  3 34  1  0  0  0  0
  4  5  2  0  0  0  0
  4  8  1  0  0  0  0
  5  6  1  0  0  0  0
  5 35  1  0  0  0  0
  6  7  1  0  0  0  0
  6 19  1  0  0  0  0
  7  8  2  0  0  0  0
  7 11  1  0  0  0  0
  8  9  1  0  0  0  0
  9 10  1  0  0  0  0
 10 36  1  0  0  0  0
 10 37  1  0  0  0  0
 10 38  1  0  0  0  0
 11 12  2  0  0  0  0
 11 18  1  0  0  0  0
 12 13  1  0  0  0  0
 12 14  1  0  0  0  0
 14 15  2  0  0  0  0
 14 39  1  0  0  0  0
 15 16  1  0  0  0  0
 15 17  1  0  0  0  0
 17 18  2  0  0  0  0
 17 40  1  0  0  0  0
 18 41  1  0  0  0  0
 19 20  2  0  0  0  0
 19 21  2  0  0  0  0
 19 22  1  0  0  0  0
 22 23  2  0  0  0  0
 22 28  1  0  0  0  0
 23 24  1  0  0  0  0
 23 42  1  0  0  0  0
 24 25  1  0  0  0  0
 24 26  2  0  0  0  0
 26 27  1  0  0  0  0
 26 43  1  0  0  0  0
 27 28  2  0  0  0  0
 27 44  1  0  0  0  0
 28 45  1  0  0  0  0
M  END
>  <DRUGBANK_ID>
DB16078

>  <COMMON_NAME>
Abeprazan

>  <CAS_NUMBER>
1902954-60-2

>  <UNII>
BE52S2C1QT

$$$$
