
 OpenBabel10282417203D

 24 24  0  0  0  0  0  0  0  0999 V2000
    0.7441    1.2515   -0.2232 C   0  0  2  0  0  0  0  0  0  0  0  0
    1.4754   -0.0300    0.2262 C   0  0  1  0  0  0  0  0  0  0  0  0
    0.7111   -1.2930   -0.2403 C   0  0  1  0  0  0  0  0  0  0  0  0
   -0.7527   -1.2613    0.2523 C   0  0  2  0  0  0  0  0  0  0  0  0
   -1.4747    0.0264   -0.2124 C   0  0  1  0  0  0  0  0  0  0  0  0
   -0.7115    1.2682    0.2979 C   0  0  1  0  0  0  0  0  0  0  0  0
    0.7838    1.2850   -1.6668 O   0  0  0  0  0  0  0  0  0  0  0  0
    2.8115   -0.0472   -0.2919 O   0  0  0  0  0  0  0  0  0  0  0  0
    0.7030   -1.4161   -1.6758 O   0  0  0  0  0  0  0  0  0  0  0  0
   -0.7713   -1.3173    1.6843 O   0  0  0  0  0  0  0  0  0  0  0  0
   -1.6308    0.1038   -1.6320 O   0  0  0  0  0  0  0  0  0  0  0  0
   -0.7513    1.3618    1.7239 O   0  0  0  0  0  0  0  0  0  0  0  0
    1.2883    2.1308    0.1379 H   0  0  0  0  0  0  0  0  0  0  0  0
    1.5698   -0.0403    1.3173 H   0  0  0  0  0  0  0  0  0  0  0  0
    1.2265   -2.1762    0.1555 H   0  0  0  0  0  0  0  0  0  0  0  0
   -1.2810   -2.1367   -0.1443 H   0  0  0  0  0  0  0  0  0  0  0  0
   -2.4830    0.0354    0.2186 H   0  0  0  0  0  0  0  0  0  0  0  0
   -1.2123    2.1615   -0.0926 H   0  0  0  0  0  0  0  0  0  0  0  0
   -0.0916    1.6061   -1.9731 H   0  0  0  0  0  0  0  0  0  0  0  0
    2.7573    0.0918   -1.2543 H   0  0  0  0  0  0  0  0  0  0  0  0
    1.0741   -0.5906   -2.0511 H   0  0  0  0  0  0  0  0  0  0  0  0
   -1.6950   -1.1704    1.9706 H   0  0  0  0  0  0  0  0  0  0  0  0
   -0.9482   -0.4700   -2.0484 H   0  0  0  0  0  0  0  0  0  0  0  0
   -0.3799    0.5403    2.1080 H   0  0  0  0  0  0  0  0  0  0  0  0
  1  2  1  0  0  0  0
  1  6  1  0  0  0  0
  1 13  1  1  0  0  0
  1  7  1  0  0  0  0
  2  3  1  0  0  0  0
  2  8  1  0  0  0  0
  2 14  1  1  0  0  0
  3  4  1  0  0  0  0
  3  9  1  0  0  0  0
  3 15  1  1  0  0  0
  4  5  1  0  0  0  0
  4 16  1  6  0  0  0
  4 10  1  0  0  0  0
  5  6  1  0  0  0  0
  5 11  1  0  0  0  0
  5 17  1  1  0  0  0
  6 12  1  0  0  0  0
  6 18  1  6  0  0  0
  7 19  1  0  0  0  0
  8 20  1  0  0  0  0
  9 21  1  0  0  0  0
 10 22  1  0  0  0  0
 11 23  1  0  0  0  0
 12 24  1  0  0  0  0
M  END
>  <DRUGBANK_ID>
DB13178

>  <SECONDARY_ACCESSION_NUMBERS>
DB11196

>  <COMMON_NAME>
Inositol

>  <CAS_NUMBER>
87-89-8

>  <UNII>
4L6452S749

>  <SYNONYMS>
1,2,3,5/4,6-cyclohexanehexol; cis-1,2,3,5-trans-4,6-cyclohexanehexol; Inositol; L-myo-Inositol; Meat sugar; meso-Inositol; myo-inositol

$$$$
