
 OpenBabel10282417193D

 53 57  0  0  1  0  0  0  0  0999 V2000
    1.7496   -6.1989   -6.0048 O   0  0  0  0  0  0  0  0  0  0  0  0
    2.3136   -5.6104   -4.8856 C   0  0  0  0  0  0  0  0  0  0  0  0
    3.4957   -6.4571   -4.2973 C   0  0  0  0  0  0  0  0  0  0  0  0
    4.2495   -5.9328   -3.2600 C   0  0  0  0  0  0  0  0  0  0  0  0
    3.8076   -4.7805   -2.7175 C   0  0  0  0  0  0  0  0  0  0  0  0
    2.8316   -4.0052   -3.3872 C   0  0  0  0  0  0  0  0  0  0  0  0
    3.0146   -2.6271   -3.0430 C   0  0  0  0  0  0  0  0  0  0  0  0
    3.3885   -1.6166   -4.2857 C   0  0  1  0  0  0  0  0  0  0  0  0
    3.8024   -1.8595   -5.6888 N   0  0  0  0  0  0  0  0  0  0  0  0
    5.2286   -1.6629   -5.9988 C   0  0  0  0  0  0  0  0  0  0  0  0
    6.2080   -2.6164   -5.3486 C   0  0  0  0  0  0  0  0  0  0  0  0
    6.0276   -4.1414   -5.3864 C   0  0  0  0  0  0  0  0  0  0  0  0
    5.7069   -3.3351   -4.1890 C   0  0  0  0  0  0  0  0  0  0  0  0
    3.0126   -2.8004   -6.4615 C   0  0  0  0  0  0  0  0  0  0  0  0
    1.4197   -2.6024   -6.2897 C   0  0  0  0  0  0  0  0  0  0  0  0
    1.1019   -2.5579   -4.7433 C   0  0  2  0  0  0  0  0  0  0  0  0
   -0.3891   -2.0471   -3.8361 C   0  0  0  0  0  0  0  0  0  0  0  0
   -0.0735   -0.7287   -3.1186 C   0  0  0  0  0  0  0  0  0  0  0  0
   -0.3040    0.3353   -3.7184 O   0  0  0  0  0  0  0  0  0  0  0  0
    0.8901   -0.7259   -1.9866 C   0  0  0  0  0  0  0  0  0  0  0  0
    2.0126   -0.0981   -2.8372 C   0  0  0  0  0  0  0  0  0  0  0  0
    2.0577   -0.9472   -4.3753 C   0  0  1  0  0  0  0  0  0  0  0  0
    2.1560    0.0929   -5.3860 O   0  0  0  0  0  0  0  0  0  0  0  0
    1.8966   -4.2411   -4.3648 C   0  0  0  0  0  0  0  0  0  0  0  0
    4.0912   -7.8794   -4.4829 C   0  0  0  0  0  0  0  0  0  0  0  0
    4.1959   -8.4779   -5.7313 N   0  0  0  0  0  0  0  0  0  0  0  0
    4.5742   -8.4874   -3.5655 O   0  0  0  0  0  0  0  0  0  0  0  0
    2.3864   -6.8709   -6.3314 H   0  0  0  0  0  0  0  0  0  0  0  0
    5.2130   -6.3189   -2.9181 H   0  0  0  0  0  0  0  0  0  0  0  0
    4.4130   -4.2740   -1.9680 H   0  0  0  0  0  0  0  0  0  0  0  0
    2.3620   -1.9464   -2.6557 H   0  0  0  0  0  0  0  0  0  0  0  0
    2.0424   -2.9834   -2.5986 H   0  0  0  0  0  0  0  0  0  0  0  0
    4.1214   -0.9096   -3.8815 H   0  0  0  0  0  0  0  0  0  0  0  0
    5.4151   -1.6667   -7.0784 H   0  0  0  0  0  0  0  0  0  0  0  0
    5.5079   -0.6479   -5.6734 H   0  0  0  0  0  0  0  0  0  0  0  0
    7.1496   -2.1454   -5.1060 H   0  0  0  0  0  0  0  0  0  0  0  0
    5.2018   -4.5283   -5.9833 H   0  0  0  0  0  0  0  0  0  0  0  0
    6.7103   -4.9284   -5.1104 H   0  0  0  0  0  0  0  0  0  0  0  0
    6.2069   -3.2843   -3.2437 H   0  0  0  0  0  0  0  0  0  0  0  0
    4.6851   -3.2202   -4.0889 H   0  0  0  0  0  0  0  0  0  0  0  0
    3.3329   -2.8364   -7.5091 H   0  0  0  0  0  0  0  0  0  0  0  0
    3.3009   -3.7857   -6.1175 H   0  0  0  0  0  0  0  0  0  0  0  0
    1.1262   -1.6800   -6.8043 H   0  0  0  0  0  0  0  0  0  0  0  0
    0.9220   -3.4335   -6.8077 H   0  0  0  0  0  0  0  0  0  0  0  0
   -1.3018   -1.5689   -4.2691 H   0  0  0  0  0  0  0  0  0  0  0  0
   -0.8736   -2.7713   -3.1489 H   0  0  0  0  0  0  0  0  0  0  0  0
    0.6562   -0.2001   -1.0657 H   0  0  0  0  0  0  0  0  0  0  0  0
    1.0248   -1.7500   -1.6164 H   0  0  0  0  0  0  0  0  0  0  0  0
    1.8401    0.9822   -2.9425 H   0  0  0  0  0  0  0  0  0  0  0  0
    2.9994   -0.1319   -2.3264 H   0  0  0  0  0  0  0  0  0  0  0  0
    1.4300    0.7384   -5.3335 H   0  0  0  0  0  0  0  0  0  0  0  0
    4.6906   -9.3742   -5.6887 H   0  0  0  0  0  0  0  0  0  0  0  0
    4.1832   -8.0136   -6.6072 H   0  0  0  0  0  0  0  0  0  0  0  0
  1 28  1  0  0  0  0
  1  2  1  0  0  0  0
  2 24  2  0  0  0  0
  3  2  1  0  0  0  0
  3  4  2  0  0  0  0
  4  5  1  0  0  0  0
  4 29  1  0  0  0  0
  5  6  2  0  0  0  0
  5 30  1  0  0  0  0
  6 24  1  0  0  0  0
  7  6  1  0  0  0  0
  7  8  1  0  0  0  0
  7 31  1  0  0  0  0
  7 32  1  0  0  0  0
  8  9  1  0  0  0  0
  8 22  1  0  0  0  0
  8 33  1  1  0  0  0
  9 14  1  0  0  0  0
 10 11  1  0  0  0  0
 10 34  1  0  0  0  0
 10 35  1  0  0  0  0
 10  9  1  0  0  0  0
 11 12  1  0  0  0  0
 11 13  1  0  0  0  0
 11 36  1  0  0  0  0
 12 37  1  0  0  0  0
 12 38  1  0  0  0  0
 13 12  1  0  0  0  0
 13 39  1  0  0  0  0
 13 40  1  0  0  0  0
 14 15  1  0  0  0  0
 14 41  1  0  0  0  0
 14 42  1  0  0  0  0
 15 43  1  0  0  0  0
 15 44  1  0  0  0  0
 16 15  1  0  0  0  0
 16 24  1  1  0  0  0
 17 16  1  0  0  0  0
 17 45  1  0  0  0  0
 17 46  1  0  0  0  0
 18 17  1  0  0  0  0
 18 19  2  0  0  0  0
 20 18  1  0  0  0  0
 20 47  1  0  0  0  0
 20 48  1  0  0  0  0
 21 20  1  0  0  0  0
 21 22  1  0  0  0  0
 21 49  1  0  0  0  0
 21 50  1  0  0  0  0
 22 16  1  0  0  0  0
 22 23  1  6  0  0  0
 23 51  1  0  0  0  0
 25 26  1  0  0  0  0
 25 27  2  0  0  0  0
 25  3  1  0  0  0  0
 26 52  1  0  0  0  0
 26 53  1  0  0  0  0
M  END
>  <DRUGBANK_ID>
DB12543

>  <COMMON_NAME>
Samidorphan

>  <CAS_NUMBER>
852626-89-2

>  <UNII>
7W2581Z5L8

>  <SYNONYMS>
Samidorphan

$$$$
