
 OpenBabel10282417233D

189193  0  0  1  0  0  0  0  0999 V2000
    0.9298   -0.0687    0.0189 Y   0  1  0  0  0  0  0  0  0  0  0  0
    1.0662    0.0118   -0.0740 C   0  0  0  0  0  0  0  0  0  0  0  0
    0.5595   -1.0526   -1.0336 C   0  0  1  0  0  0  0  0  0  0  0  0
    1.0328   -2.3261   -0.6206 O   0  0  0  0  0  0  0  0  0  0  0  0
   -0.9605   -1.0526   -1.0336 C   0  0  1  0  0  0  0  0  0  0  0  0
   -1.4672    0.3106   -1.4756 C   0  0  0  0  0  0  0  0  0  0  0  0
   -0.9938    0.5897   -2.7850 O   0  0  0  0  0  0  0  0  0  0  0  0
   -1.4505   -2.0820   -1.9616 N   0  0  0  0  0  0  0  0  0  0  0  0
   -2.2956   -3.1773   -1.4646 C   0  0  0  0  0  0  0  0  0  0  0  0
   -2.7193   -4.0673   -2.2669 O   0  0  0  0  0  0  0  0  0  0  0  0
   -2.6628   -3.2455    0.0088 C   0  0  0  0  0  0  0  0  0  0  0  0
  -19.7032   -5.1302    5.1750 C   0  0  0  0  0  0  0  0  0  0  0  0
  -18.6626   -3.6791    4.8790 S   0  0  0  0  0  0  0  0  0  0  0  0
  -19.7126   -1.9427    5.4198 S   0  0  0  0  0  0  0  0  0  0  0  0
  -18.6720   -0.4916    5.1239 C   0  0  0  0  0  0  0  0  0  0  0  0
  -17.4053   -0.5980    5.9573 C   0  0  2  0  0  0  0  0  0  0  0  0
  -16.5602    0.5805    5.7170 N   0  0  0  0  0  0  0  0  0  0  0  0
  -15.6868    0.0919    4.6403 C   0  0  0  0  0  0  0  0  0  0  0  0
  -14.4890    0.5081    4.5554 O   0  0  0  0  0  0  0  0  0  0  0  0
  -16.2163   -0.9112    3.6284 C   0  0  1  0  0  0  0  0  0  0  0  0
  -16.6530   -2.1760    4.3496 C   0  0  0  0  0  0  0  0  0  0  0  0
  -17.7478   -1.8376    5.3482 C   0  0  0  0  0  0  0  0  0  0  0  0
  -17.5250   -2.2300    6.5970 C   0  0  0  0  0  0  0  0  0  0  0  0
  -18.4414   -1.9675    7.5866 C   0  0  0  0  0  0  0  0  0  0  0  0
  -19.6413   -1.3799    7.2961 C   0  0  0  0  0  0  0  0  0  0  0  0
  -19.7950   -0.9379    6.0611 C   0  0  0  0  0  0  0  0  0  0  0  0
  -18.9654   -1.2948    4.9719 C   0  0  0  0  0  0  0  0  0  0  0  0
  -17.3650   -0.3308    2.9181 N   0  0  0  0  0  0  0  0  0  0  0  0
  -17.3185   -0.1636    1.4584 C   0  0  0  0  0  0  0  0  0  0  0  0
  -18.3116    0.3382    0.8443 O   0  0  0  0  0  0  0  0  0  0  0  0
  -16.0826   -0.5908    0.6835 C   0  0  0  0  0  0  0  0  0  0  0  0
  -14.9170    0.1646    1.1649 N   0  0  0  0  0  0  0  0  0  0  0  0
  -15.3266    1.4917    1.6468 C   0  0  0  0  0  0  0  0  0  0  0  0
  -15.8789    1.5235    3.0524 C   0  0  0  0  0  0  0  0  0  0  0  0
  -14.8499    1.6058    4.0818 N   0  0  0  0  0  0  0  0  0  0  0  0
  -15.4820    2.0079    5.3466 C   0  0  0  0  0  0  0  0  0  0  0  0
  -16.4727    0.9397    5.7800 C   0  0  0  0  0  0  0  0  0  0  0  0
  -16.3031    0.2769    7.0243 O   0  5  0  0  0  0  0  0  0  0  0  0
  -17.4528    0.6396    5.0286 O   0  0  0  0  0  0  0  0  0  0  0  0
  -14.1505    0.3310    4.2913 C   0  0  0  0  0  0  0  0  0  0  0  0
  -12.7390    0.5466    4.8030 C   0  0  0  0  0  0  0  0  0  0  0  0
  -11.7676    0.6830    3.7121 N   0  0  0  0  0  0  0  0  0  0  0  0
  -10.5862    1.4082    4.2013 C   0  0  0  0  0  0  0  0  0  0  0  0
   -9.9481    0.6283    5.3392 C   0  0  0  0  0  0  0  0  0  0  0  0
   -8.6071    0.1754    5.2252 O   0  5  0  0  0  0  0  0  0  0  0  0
  -10.6148    0.3814    6.3927 O   0  0  0  0  0  0  0  0  0  0  0  0
  -11.3581   -0.6440    3.2301 C   0  0  0  0  0  0  0  0  0  0  0  0
  -10.8058   -0.6758    1.8246 C   0  0  0  0  0  0  0  0  0  0  0  0
  -11.8352   -0.7591    0.7953 N   0  0  0  0  0  0  0  0  0  0  0  0
  -12.8199   -1.7741    1.1965 C   0  0  0  0  0  0  0  0  0  0  0  0
  -13.4996   -1.3393    2.4847 C   0  0  0  0  0  0  0  0  0  0  0  0
  -14.9059   -1.1453    2.5149 O   0  5  0  0  0  0  0  0  0  0  0  0
  -12.8092   -1.1494    3.5347 O   0  0  0  0  0  0  0  0  0  0  0  0
  -12.5342    0.5167    0.5857 C   0  0  0  0  0  0  0  0  0  0  0  0
  -13.9457    0.3010    0.0740 C   0  0  0  0  0  0  0  0  0  0  0  0
  -16.6453   -1.8548    5.5659 C   0  0  0  0  0  0  0  0  0  0  0  0
  -17.1933   -2.9944    5.6934 O   0  0  0  0  0  0  0  0  0  0  0  0
  -15.2765   -1.7521    5.0400 N   0  0  0  0  0  0  0  0  0  0  0  0
  -14.5415   -2.9676    4.6614 C   0  0  0  0  0  0  0  0  0  0  0  0
  -15.4153   -4.1862    4.9099 C   0  0  0  0  0  0  0  0  0  0  0  0
  -14.6553   -5.4430    4.5185 C   0  0  0  0  0  0  0  0  0  0  0  0
  -13.3864   -5.3913    4.1307 C   0  0  0  0  0  0  0  0  0  0  0  0
  -12.6741   -6.5458    3.9126 C   0  0  0  0  0  0  0  0  0  0  0  0
  -13.2759   -7.7705    3.9998 C   0  0  0  0  0  0  0  0  0  0  0  0
  -12.6057   -8.9624    3.6173 O   0  0  0  0  0  0  0  0  0  0  0  0
  -14.5140   -7.7851    4.4590 C   0  0  0  0  0  0  0  0  0  0  0  0
  -15.3438   -6.6440    4.5658 C   0  0  0  0  0  0  0  0  0  0  0  0
  -14.1742   -2.8995    3.1880 C   0  0  0  0  0  0  0  0  0  0  0  0
  -15.0876   -2.8067    2.3091 O   0  0  0  0  0  0  0  0  0  0  0  0
  -12.7627   -2.9408    2.7796 N   0  0  0  0  0  0  0  0  0  0  0  0
  -12.4076   -2.8749    1.3547 C   0  0  2  0  0  0  0  0  0  0  0  0
  -11.6476   -4.1317    0.9633 C   0  0  0  0  0  0  0  0  0  0  0  0
  -12.5327   -5.3411    1.2169 C   0  0  0  0  0  0  0  0  0  0  0  0
  -13.5179   -2.5633    4.2384 C   0  0  0  0  0  0  0  0  0  0  0  0
  -13.1314   -3.5019    3.2847 N   0  0  0  0  0  0  0  0  0  0  0  0
  -13.2481   -4.8624    3.5592 C   0  0  0  0  0  0  0  0  0  0  0  0
  -12.8759   -5.7465    2.6411 C   0  0  0  0  0  0  0  0  0  0  0  0
  -12.8337   -7.0874    2.9378 C   0  0  0  0  0  0  0  0  0  0  0  0
  -13.2593   -7.5528    4.1509 C   0  0  0  0  0  0  0  0  0  0  0  0
  -13.5505   -6.6409    5.0606 C   0  0  0  0  0  0  0  0  0  0  0  0
  -13.7504   -5.2676    4.7849 C   0  0  0  0  0  0  0  0  0  0  0  0
  -11.5337   -1.6563    1.1062 C   0  0  0  0  0  0  0  0  0  0  0  0
  -11.9758   -0.4935    1.3665 O   0  0  0  0  0  0  0  0  0  0  0  0
  -10.1772   -1.8227    0.5647 N   0  0  0  0  0  0  0  0  0  0  0  0
   -9.3321   -0.6442    0.3243 C   0  0  1  0  0  0  0  0  0  0  0  0
  -10.0921    0.6126    0.7158 C   0  0  0  0  0  0  0  0  0  0  0  0
   -9.2182    1.8313    0.4672 C   0  0  0  0  0  0  0  0  0  0  0  0
   -8.8510    1.8994   -1.0062 C   0  0  0  0  0  0  0  0  0  0  0  0
  -10.1177    2.0058   -1.8396 C   0  0  0  0  0  0  0  0  0  0  0  0
  -10.8527    3.2213   -1.4611 N   0  0  0  0  0  0  0  0  0  0  0  0
   -8.0654   -0.7506    1.1578 C   0  0  0  0  0  0  0  0  0  0  0  0
   -8.1422   -0.8201    2.4244 O   0  0  0  0  0  0  0  0  0  0  0  0
   -6.7517   -0.7729    0.4987 N   0  0  0  0  0  0  0  0  0  0  0  0
   -5.5267   -0.8758    1.3047 C   0  0  0  0  0  0  0  0  0  0  0  0
   -5.8939   -0.9440    2.7781 C   0  0  1  0  0  0  0  0  0  0  0  0
   -4.6272   -1.0504    3.6116 C   0  0  0  0  0  0  0  0  0  0  0  0
   -6.6039    0.2301    3.1438 O   0  0  0  0  0  0  0  0  0  0  0  0
   -4.7667   -2.1326    0.9133 C   0  0  0  0  0  0  0  0  0  0  0  0
   -5.3147   -3.2722    1.0407 O   0  0  0  0  0  0  0  0  0  0  0  0
   -3.3978   -2.0300    0.3873 N   0  0  0  0  0  0  0  0  0  0  0  0
    0.7095   -0.1985    0.9126 H   0  0  0  0  0  0  0  0  0  0  0  0
    0.7095    0.9714   -0.3852 H   0  0  0  0  0  0  0  0  0  0  0  0
    2.1362    0.0118   -0.0740 H   0  0  0  0  0  0  0  0  0  0  0  0
    0.9162   -0.8423   -2.0202 H   0  0  0  0  0  0  0  0  0  0  0  0
    2.0328   -2.3261   -0.6206 H   0  0  0  0  0  0  0  0  0  0  0  0
   -1.3172   -1.2629   -0.0470 H   0  0  0  0  0  0  0  0  0  0  0  0
   -2.5372    0.3106   -1.4756 H   0  0  0  0  0  0  0  0  0  0  0  0
   -1.1105    1.0599   -0.8001 H   0  0  0  0  0  0  0  0  0  0  0  0
    0.0062    0.5897   -2.7850 H   0  0  0  0  0  0  0  0  0  0  0  0
   -1.2041   -2.0363   -2.9503 H   0  0  0  0  0  0  0  0  0  0  0  0
   -3.2780   -4.1033    0.1837 H   0  0  0  0  0  0  0  0  0  0  0  0
  -20.5948   -5.0553    4.5883 H   0  0  0  0  0  0  0  0  0  0  0  0
  -19.1682   -6.0149    4.8994 H   0  0  0  0  0  0  0  0  0  0  0  0
  -19.2070    0.3931    5.3994 H   0  0  0  0  0  0  0  0  0  0  0  0
  -18.4135   -0.4436    4.0867 H   0  0  0  0  0  0  0  0  0  0  0  0
  -17.6638   -0.6460    6.9945 H   0  0  0  0  0  0  0  0  0  0  0  0
  -16.2048    1.2537    6.3960 H   0  0  0  0  0  0  0  0  0  0  0  0
  -15.4456   -1.1495    2.9255 H   0  0  0  0  0  0  0  0  0  0  0  0
  -17.0257   -2.8821    3.6373 H   0  0  0  0  0  0  0  0  0  0  0  0
  -15.8168   -2.5985    4.8667 H   0  0  0  0  0  0  0  0  0  0  0  0
  -16.6237   -2.7553    6.8349 H   0  0  0  0  0  0  0  0  0  0  0  0
  -18.2127   -2.2268    8.5993 H   0  0  0  0  0  0  0  0  0  0  0  0
  -20.4141   -1.2833    8.0297 H   0  0  0  0  0  0  0  0  0  0  0  0
  -20.6032   -0.2630    5.8710 H   0  0  0  0  0  0  0  0  0  0  0  0
  -19.2525   -1.1579    3.9503 H   0  0  0  0  0  0  0  0  0  0  0  0
  -18.1944   -0.0442    3.4381 H   0  0  0  0  0  0  0  0  0  0  0  0
  -15.9143   -1.6374    0.8293 H   0  0  0  0  0  0  0  0  0  0  0  0
  -16.2293   -0.3948   -0.3581 H   0  0  0  0  0  0  0  0  0  0  0  0
  -14.4387    2.0885    1.6633 H   0  0  0  0  0  0  0  0  0  0  0  0
  -16.0809    1.8654    0.9863 H   0  0  0  0  0  0  0  0  0  0  0  0
  -16.4767    2.4070    3.1348 H   0  0  0  0  0  0  0  0  0  0  0  0
  -16.4473    0.6312    3.2128 H   0  0  0  0  0  0  0  0  0  0  0  0
  -14.7308    2.1243    6.0996 H   0  0  0  0  0  0  0  0  0  0  0  0
  -15.9960    2.9363    5.2091 H   0  0  0  0  0  0  0  0  0  0  0  0
  -14.6904   -0.2307    5.0247 H   0  0  0  0  0  0  0  0  0  0  0  0
  -14.1061   -0.1976    3.3620 H   0  0  0  0  0  0  0  0  0  0  0  0
  -12.7297    1.4564    5.3661 H   0  0  0  0  0  0  0  0  0  0  0  0
  -12.4608   -0.2901    5.4091 H   0  0  0  0  0  0  0  0  0  0  0  0
   -9.8804    1.5186    3.4047 H   0  0  0  0  0  0  0  0  0  0  0  0
  -10.8814    2.3748    4.5528 H   0  0  0  0  0  0  0  0  0  0  0  0
  -10.5602   -0.9589    3.8698 H   0  0  0  0  0  0  0  0  0  0  0  0
  -12.2127   -1.2869    3.2645 H   0  0  0  0  0  0  0  0  0  0  0  0
  -10.2827    0.2450    1.6719 H   0  0  0  0  0  0  0  0  0  0  0  0
  -10.1650   -1.5277    1.7320 H   0  0  0  0  0  0  0  0  0  0  0  0
  -13.5536   -1.8836    0.4255 H   0  0  0  0  0  0  0  0  0  0  0  0
  -12.3244   -2.7095    1.3528 H   0  0  0  0  0  0  0  0  0  0  0  0
  -12.5923    1.0253    1.5253 H   0  0  0  0  0  0  0  0  0  0  0  0
  -11.9903    1.0975   -0.1296 H   0  0  0  0  0  0  0  0  0  0  0  0
  -13.9550   -0.6088   -0.4891 H   0  0  0  0  0  0  0  0  0  0  0  0
  -14.2239    1.1377   -0.5321 H   0  0  0  0  0  0  0  0  0  0  0  0
  -14.8366   -0.8375    4.9377 H   0  0  0  0  0  0  0  0  0  0  0  0
  -13.6498   -3.0425    5.2481 H   0  0  0  0  0  0  0  0  0  0  0  0
  -15.6738   -4.2342    5.9471 H   0  0  0  0  0  0  0  0  0  0  0  0
  -16.3070   -4.1113    4.3232 H   0  0  0  0  0  0  0  0  0  0  0  0
  -12.9143   -4.4419    3.9867 H   0  0  0  0  0  0  0  0  0  0  0  0
  -11.6335   -6.4857    3.6710 H   0  0  0  0  0  0  0  0  0  0  0  0
  -11.6678   -8.9202    3.2729 H   0  0  0  0  0  0  0  0  0  0  0  0
  -14.9178   -8.7252    4.7720 H   0  0  0  0  0  0  0  0  0  0  0  0
  -16.4067   -6.7034    4.6733 H   0  0  0  0  0  0  0  0  0  0  0  0
  -12.0297   -3.0153    3.4850 H   0  0  0  0  0  0  0  0  0  0  0  0
  -13.2993   -2.8000    0.7680 H   0  0  0  0  0  0  0  0  0  0  0  0
  -11.5161   -4.0007   -0.0905 H   0  0  0  0  0  0  0  0  0  0  0  0
  -10.6946   -4.2840    1.4254 H   0  0  0  0  0  0  0  0  0  0  0  0
  -13.9046   -2.8874    5.1820 H   0  0  0  0  0  0  0  0  0  0  0  0
  -12.7627   -3.1929    2.3852 H   0  0  0  0  0  0  0  0  0  0  0  0
  -12.4626   -7.7773    2.2090 H   0  0  0  0  0  0  0  0  0  0  0  0
  -13.3514   -8.5997    4.3524 H   0  0  0  0  0  0  0  0  0  0  0  0
  -13.6416   -6.9630    6.0770 H   0  0  0  0  0  0  0  0  0  0  0  0
  -14.2446   -4.6024    5.4617 H   0  0  0  0  0  0  0  0  0  0  0  0
   -9.8224   -2.7559    0.3557 H   0  0  0  0  0  0  0  0  0  0  0  0
   -9.0736   -0.5962   -0.7129 H   0  0  0  0  0  0  0  0  0  0  0  0
  -10.9838    0.6875    0.1291 H   0  0  0  0  0  0  0  0  0  0  0  0
  -10.3506    0.5647    1.7530 H   0  0  0  0  0  0  0  0  0  0  0  0
   -9.7532    2.7160    0.7428 H   0  0  0  0  0  0  0  0  0  0  0  0
   -8.3266    1.7564    1.0539 H   0  0  0  0  0  0  0  0  0  0  0  0
   -8.2359    2.7573   -1.1811 H   0  0  0  0  0  0  0  0  0  0  0  0
   -8.3160    1.0147   -1.2817 H   0  0  0  0  0  0  0  0  0  0  0  0
   -9.8592    2.0538   -2.8768 H   0  0  0  0  0  0  0  0  0  0  0  0
  -10.7329    1.1480   -1.6647 H   0  0  0  0  0  0  0  0  0  0  0  0
  -11.7027    3.2927   -2.0204 H   0  0  0  0  0  0  0  0  0  0  0  0
  -11.0991    3.1755   -0.4723 H   0  0  0  0  0  0  0  0  0  0  0  0
   -6.6901   -0.7171   -0.5179 H   0  0  0  0  0  0  0  0  0  0  0  0
   -4.9115   -0.0180    1.1298 H   0  0  0  0  0  0  0  0  0  0  0  0
   -6.5090   -1.8018    2.9531 H   0  0  0  0  0  0  0  0  0  0  0  0
   -4.0120   -0.1926    3.4366 H   0  0  0  0  0  0  0  0  0  0  0  0
   -4.8857   -1.0984    4.6488 H   0  0  0  0  0  0  0  0  0  0  0  0
   -4.0922   -1.9351    3.3360 H   0  0  0  0  0  0  0  0  0  0  0  0
   -6.0289    1.0318    2.9803 H   0  0  0  0  0  0  0  0  0  0  0  0
   -2.9580   -1.1154    0.2851 H   0  0  0  0  0  0  0  0  0  0  0  0
  2101  1  0  0  0  0
  2102  1  0  0  0  0
  2103  1  0  0  0  0
  3  2  1  0  0  0  0
  3  4  1  0  0  0  0
  3  5  1  0  0  0  0
  3104  1  6  0  0  0
  4105  1  0  0  0  0
  5  6  1  0  0  0  0
  5  8  1  0  0  0  0
  5106  1  1  0  0  0
  6  7  1  0  0  0  0
  6107  1  0  0  0  0
  6108  1  0  0  0  0
  7109  1  0  0  0  0
  8  9  1  0  0  0  0
  8110  1  0  0  0  0
  9 10  2  0  0  0  0
 11  9  1  0  0  0  0
 11 12  1  0  0  0  0
 11100  1  0  0  0  0
 11111  1  0  0  0  0
 12 13  1  0  0  0  0
 12112  1  0  0  0  0
 12113  1  0  0  0  0
 13 14  1  0  0  0  0
 14 15  1  0  0  0  0
 15114  1  0  0  0  0
 15115  1  0  0  0  0
 16 15  1  0  0  0  0
 16 56  1  0  0  0  0
 16116  1  1  0  0  0
 16 17  1  0  0  0  0
 17 18  1  0  0  0  0
 17117  1  0  0  0  0
 18 19  2  0  0  0  0
 20 18  1  0  0  0  0
 20 21  1  0  0  0  0
 20 28  1  0  0  0  0
 20118  1  6  0  0  0
 21 22  1  0  0  0  0
 21119  1  0  0  0  0
 21120  1  0  0  0  0
 22 23  2  0  0  0  0
 22 27  1  0  0  0  0
 23 24  1  0  0  0  0
 23121  1  0  0  0  0
 24 25  2  0  0  0  0
 24122  1  0  0  0  0
 25 26  1  0  0  0  0
 25123  1  0  0  0  0
 26 27  2  0  0  0  0
 26124  1  0  0  0  0
 27125  1  0  0  0  0
 28 29  1  0  0  0  0
 28126  1  0  0  0  0
 29 30  2  0  0  0  0
 29 31  1  0  0  0  0
 31 32  1  0  0  0  0
 31127  1  0  0  0  0
 31128  1  0  0  0  0
 32 33  1  0  0  0  0
 32 55  1  0  0  0  0
 33 34  1  0  0  0  0
 33129  1  0  0  0  0
 33130  1  0  0  0  0
 34 35  1  0  0  0  0
 34131  1  0  0  0  0
 34132  1  0  0  0  0
 35 36  1  0  0  0  0
 35 40  1  0  0  0  0
 36 37  1  0  0  0  0
 36133  1  0  0  0  0
 36134  1  0  0  0  0
 37 38  1  0  0  0  0
 37 39  2  0  0  0  0
 40 41  1  0  0  0  0
 40135  1  0  0  0  0
 40136  1  0  0  0  0
 41 42  1  0  0  0  0
 41137  1  0  0  0  0
 41138  1  0  0  0  0
 42 43  1  0  0  0  0
 42 47  1  0  0  0  0
 43 44  1  0  0  0  0
 43139  1  0  0  0  0
 43140  1  0  0  0  0
 44 45  1  0  0  0  0
 44 46  2  0  0  0  0
 47 48  1  0  0  0  0
 47141  1  0  0  0  0
 47142  1  0  0  0  0
 48 49  1  0  0  0  0
 48143  1  0  0  0  0
 48144  1  0  0  0  0
 49 50  1  0  0  0  0
 49 54  1  0  0  0  0
 50 51  1  0  0  0  0
 50145  1  0  0  0  0
 50146  1  0  0  0  0
 51 52  1  0  0  0  0
 51 53  2  0  0  0  0
 54 55  1  0  0  0  0
 54147  1  0  0  0  0
 54148  1  0  0  0  0
 55149  1  0  0  0  0
 55150  1  0  0  0  0
 56 57  2  0  0  0  0
 56 58  1  0  0  0  0
 58151  1  0  0  0  0
 59 58  1  0  0  0  0
 59 60  1  0  0  0  0
 59 68  1  0  0  0  0
 59152  1  0  0  0  0
 60 61  1  0  0  0  0
 60153  1  0  0  0  0
 60154  1  0  0  0  0
 61 62  2  0  0  0  0
 61 67  1  0  0  0  0
 62 63  1  0  0  0  0
 62155  1  0  0  0  0
 63 64  2  0  0  0  0
 63156  1  0  0  0  0
 64 65  1  0  0  0  0
 64 66  1  0  0  0  0
 65157  1  0  0  0  0
 66 67  2  0  0  0  0
 66158  1  0  0  0  0
 67159  1  0  0  0  0
 68 69  2  0  0  0  0
 68 70  1  0  0  0  0
 70160  1  0  0  0  0
 71 70  1  0  0  0  0
 71 82  1  0  0  0  0
 71161  1  6  0  0  0
 71 72  1  0  0  0  0
 72 73  1  0  0  0  0
 72162  1  0  0  0  0
 72163  1  0  0  0  0
 73 74  2  0  0  0  0
 73 77  1  0  0  0  0
 74 75  1  0  0  0  0
 74164  1  0  0  0  0
 75 76  1  0  0  0  0
 75165  1  0  0  0  0
 76 77  2  0  0  0  0
 76 81  1  0  0  0  0
 77 78  1  0  0  0  0
 78 79  2  0  0  0  0
 78166  1  0  0  0  0
 79 80  1  0  0  0  0
 79167  1  0  0  0  0
 80 81  2  0  0  0  0
 80168  1  0  0  0  0
 81169  1  0  0  0  0
 82 83  2  0  0  0  0
 82 84  1  0  0  0  0
 84170  1  0  0  0  0
 85 84  1  0  0  0  0
 85 86  1  0  0  0  0
 85 91  1  0  0  0  0
 85171  1  6  0  0  0
 86 87  1  0  0  0  0
 86172  1  0  0  0  0
 86173  1  0  0  0  0
 87 88  1  0  0  0  0
 87174  1  0  0  0  0
 87175  1  0  0  0  0
 88 89  1  0  0  0  0
 88176  1  0  0  0  0
 88177  1  0  0  0  0
 89 90  1  0  0  0  0
 89178  1  0  0  0  0
 89179  1  0  0  0  0
 90180  1  0  0  0  0
 90181  1  0  0  0  0
 91 92  2  0  0  0  0
 91 93  1  0  0  0  0
 93182  1  0  0  0  0
 94 93  1  0  0  0  0
 94 95  1  0  0  0  0
 94 98  1  0  0  0  0
 94183  1  0  0  0  0
 95 96  1  0  0  0  0
 95 97  1  0  0  0  0
 95184  1  1  0  0  0
 96185  1  0  0  0  0
 96186  1  0  0  0  0
 96187  1  0  0  0  0
 97188  1  0  0  0  0
 98 99  2  0  0  0  0
 98100  1  0  0  0  0
100189  1  0  0  0  0
M  ISO  1   1  90
M  CHG  4   1   3  38  -1  45  -1  52  -1
M  END
>  <DRUGBANK_ID>
DB17160

>  <COMMON_NAME>
Edotreotide yttrium Y-90

>  <CAS_NUMBER>
322407-70-5

>  <UNII>
ABF7OG3FA3

>  <SYNONYMS>
90y-dota-tyr3-octreotide; 90y-dotatoc; 90ydotatoc; Dotatoc yttrium Y-90; Edotreotide 90y chelate; Y-90 dota-tyr(3)-octreotide; Yttrium (90y) edotreotide; Yttrium y 90-dota-tyr3-octreotide; Yttrium y 90-edotreotide; Yttrium Y-90 n-((4,7,10-triscarboxymethyl-1,4,7,10-tetraazacyclododec-1-yl)acetyl)-d-phe-cys-tyr-d-trp-lys-thr-cys-thr (2-7)disulfide

$$$$
