
 OpenBabel10282417103D

 31 33  0  0  0  0  0  0  0  0999 V2000
   -0.9170   -1.4530   -0.2600 C   0  0  0  0  0  0  0  0  0  0  0  0
   -0.9140    1.4560    0.2840 C   0  0  0  0  0  0  0  0  0  0  0  0
   -2.1880    0.7370   -0.2030 C   0  0  0  0  0  0  0  0  0  0  0  0
   -2.1900   -0.7380    0.1830 C   0  0  0  0  0  0  0  0  0  0  0  0
    0.2520    0.7090   -0.3250 C   0  0  2  0  0  0  0  0  0  0  0  0
    0.2530   -0.7040    0.3330 C   0  0  2  0  0  0  0  0  0  0  0  0
    0.9090   -1.7550    0.3569 H   0  0  0  0  0  0  0  0  0  0  0  0
    1.6480   -1.1390    0.0180 N   0  0  0  0  0  0  0  0  0  0  0  0
    1.9979   -1.8022    0.7095 H   0  0  0  0  0  0  0  0  0  0  0  0
    2.4074    1.6613    0.4246 H   0  0  0  0  0  0  0  0  0  0  0  0
    1.6540    1.1360   -0.0190 N   0  0  0  0  0  0  0  0  0  0  0  0
    1.7090    1.6273    0.8732 H   0  0  0  0  0  0  0  0  0  0  0  0
    4.4268   -1.1227   -1.9041 C   0  0  0  0  0  0  0  0  0  0  0  0
    5.2919   -1.1451   -3.1538 C   0  0  0  0  0  0  0  0  0  0  0  0
    2.3980   -0.0030   -0.0080 Pt  0  0  0  0  0  0  0  0  0  0  0  0
    3.5476   -0.0328   -1.6687 O   0  0  0  0  0  0  0  0  0  0  0  0
    3.5008    0.0219    1.6842 O   0  0  0  0  0  0  0  0  0  0  0  0
    6.0788   -2.1205   -3.3645 O   0  0  0  0  0  0  0  0  0  0  0  0
    4.4905   -2.0794   -1.0700 O   0  0  0  0  0  0  0  0  0  0  0  0
   -0.9208   -2.4703    0.0715 H   0  0  0  0  0  0  0  0  0  0  0  0
   -0.8492   -1.4506   -1.3278 H   0  0  0  0  0  0  0  0  0  0  0  0
   -0.9121    2.4856   -0.0074 H   0  0  0  0  0  0  0  0  0  0  0  0
   -0.8565    1.4259    1.3520 H   0  0  0  0  0  0  0  0  0  0  0  0
   -2.2177    0.8008   -1.2707 H   0  0  0  0  0  0  0  0  0  0  0  0
   -3.0416    1.2106    0.2352 H   0  0  0  0  0  0  0  0  0  0  0  0
   -2.2451   -0.7976    1.2499 H   0  0  0  0  0  0  0  0  0  0  0  0
   -3.0303   -1.2135   -0.2783 H   0  0  0  0  0  0  0  0  0  0  0  0
    0.0826    0.8389   -1.3735 H   0  0  0  0  0  0  0  0  0  0  0  0
    0.0911   -0.8266    1.3836 H   0  0  0  0  0  0  0  0  0  0  0  0
    1.6779   -1.6044   -0.8892 H   0  0  0  0  0  0  0  0  0  0  0  0
    1.9947    1.7752   -0.7372 H   0  0  0  0  0  0  0  0  0  0  0  0
  1  6  1  0  0  0  0
  1  4  1  0  0  0  0
  1 20  1  0  0  0  0
  1 21  1  0  0  0  0
  2  3  1  0  0  0  0
  2 22  1  0  0  0  0
  2 23  1  0  0  0  0
  3  4  1  0  0  0  0
  3 24  1  0  0  0  0
  3 25  1  0  0  0  0
  4 26  1  0  0  0  0
  4 27  1  0  0  0  0
  5  2  1  0  0  0  0
  5 11  1  0  0  0  0
  5  6  1  0  0  0  0
  5 28  1  6  0  0  0
  6  8  1  0  0  0  0
  6 29  1  1  0  0  0
  8 15  1  0  0  0  0
  8  7  1  0  0  0  0
  8  9  1  0  0  0  0
  8 30  1  0  0  0  0
 11 10  1  0  0  0  0
 11 12  1  0  0  0  0
 11 31  1  0  0  0  0
 13 19  2  0  0  0  0
 13 16  1  0  0  0  0
 13 14  1  0  0  0  0
 14 17  1  0  0  0  0
 15 11  1  0  0  0  0
 15 16  1  0  0  0  0
 17 15  1  0  0  0  0
 18 14  2  0  0  0  0
M  END
>  <DRUGBANK_ID>
DB00526

>  <SECONDARY_ACCESSION_NUMBERS>
APRD00186

>  <COMMON_NAME>
Oxaliplatin

>  <CAS_NUMBER>
61825-94-3

>  <UNII>
04ZR38536J

>  <SYNONYMS>
Diaminocyclohexane Oxalatoplatinum; L-OHP; Oxalatoplatin; Oxalatoplatinum; Oxaliplatin; oxaliplatine; oxaliplatino; oxaliplatinum

$$$$
