
 OpenBabel10282417173D

 63 66  0  0  0  0  0  0  0  0999 V2000
    1.0035   -0.0087   -0.1030 C   0  0  0  0  0  0  0  0  0  0  0  0
    0.1867   -1.2595   -0.4339 C   0  0  0  0  0  0  0  0  0  0  0  0
   -0.6543   -1.7076    0.7294 C   0  0  0  0  0  0  0  0  0  0  0  0
    0.3784    1.0234    0.0618 O   0  0  0  0  0  0  0  0  0  0  0  0
    2.3986   -0.1223    0.0091 N   0  0  0  0  0  0  0  0  0  0  0  0
    3.0466   -1.4468   -0.2632 C   0  0  0  0  0  0  0  0  0  0  0  0
    2.8327   -2.0755   -1.5182 C   0  0  0  0  0  0  0  0  0  0  0  0
    3.6575   -3.0926   -2.0121 C   0  0  0  0  0  0  0  0  0  0  0  0
    4.7938   -3.4482   -1.3068 C   0  0  0  0  0  0  0  0  0  0  0  0
    5.0411   -2.8450   -0.0780 C   0  0  0  0  0  0  0  0  0  0  0  0
    4.1033   -1.9624    0.4987 C   0  0  0  0  0  0  0  0  0  0  0  0
    4.6065    1.7340   -2.3834 N   0  0  0  0  0  0  0  0  0  0  0  0
    3.4413    2.4408   -1.8683 C   0  0  0  0  0  0  0  0  0  0  0  0
    3.2834    2.5461   -0.3978 C   0  0  0  0  0  0  0  0  0  0  0  0
    3.3366    1.1519    0.3471 C   0  0  0  0  0  0  0  0  0  0  0  0
    4.7748    0.7578   -0.1194 C   0  0  0  0  0  0  0  0  0  0  0  0
    4.7131    0.4836   -1.6524 C   0  0  0  0  0  0  0  0  0  0  0  0
    2.9936    1.6484    1.7660 C   0  0  0  0  0  0  0  0  0  0  0  0
    1.8128    2.4303    1.9788 C   0  0  0  0  0  0  0  0  0  0  0  0
    1.3987    2.8757    3.2219 C   0  0  0  0  0  0  0  0  0  0  0  0
    2.1616    2.5305    4.3149 C   0  0  0  0  0  0  0  0  0  0  0  0
    3.3456    1.8016    4.1378 C   0  0  0  0  0  0  0  0  0  0  0  0
    3.7937    1.4112    2.8681 C   0  0  0  0  0  0  0  0  0  0  0  0
    4.4474    1.4863   -3.8437 C   0  0  0  0  0  0  0  0  0  0  0  0
    3.1344    0.8139   -4.3949 C   0  0  0  0  0  0  0  0  0  0  0  0
    1.8332    1.5690   -4.1255 C   0  0  0  0  0  0  0  0  0  0  0  0
    0.7532    0.9078   -3.5130 C   0  0  0  0  0  0  0  0  0  0  0  0
   -0.2634    1.6416   -2.8881 C   0  0  0  0  0  0  0  0  0  0  0  0
   -0.2001    3.0323   -2.8359 C   0  0  0  0  0  0  0  0  0  0  0  0
    0.8523    3.6963   -3.4550 C   0  0  0  0  0  0  0  0  0  0  0  0
    1.8114    2.9767   -4.1777 C   0  0  0  0  0  0  0  0  0  0  0  0
   -0.4207   -1.0253   -1.3138 H   0  0  0  0  0  0  0  0  0  0  0  0
    0.7556   -2.1383   -0.6959 H   0  0  0  0  0  0  0  0  0  0  0  0
   -1.3691   -0.9379    1.0218 H   0  0  0  0  0  0  0  0  0  0  0  0
   -1.1964   -2.6144    0.4421 H   0  0  0  0  0  0  0  0  0  0  0  0
   -0.0138   -1.9463    1.5840 H   0  0  0  0  0  0  0  0  0  0  0  0
    2.0866   -1.6881   -2.2074 H   0  0  0  0  0  0  0  0  0  0  0  0
    3.4599   -3.5237   -2.9903 H   0  0  0  0  0  0  0  0  0  0  0  0
    5.4961   -4.1667   -1.7229 H   0  0  0  0  0  0  0  0  0  0  0  0
    6.0087   -2.9988    0.3994 H   0  0  0  0  0  0  0  0  0  0  0  0
    4.3318   -1.5595    1.4835 H   0  0  0  0  0  0  0  0  0  0  0  0
    2.5386    1.8858   -2.0629 H   0  0  0  0  0  0  0  0  0  0  0  0
    3.4145    3.4499   -2.2845 H   0  0  0  0  0  0  0  0  0  0  0  0
    2.3771    3.1397   -0.2608 H   0  0  0  0  0  0  0  0  0  0  0  0
    4.0964    3.1926   -0.0211 H   0  0  0  0  0  0  0  0  0  0  0  0
    5.5485    1.4993    0.0975 H   0  0  0  0  0  0  0  0  0  0  0  0
    5.1562   -0.0838    0.4286 H   0  0  0  0  0  0  0  0  0  0  0  0
    5.5294   -0.1608   -1.9861 H   0  0  0  0  0  0  0  0  0  0  0  0
    3.8071   -0.0363   -1.9429 H   0  0  0  0  0  0  0  0  0  0  0  0
    1.1624    2.7306    1.1571 H   0  0  0  0  0  0  0  0  0  0  0  0
    0.4787    3.4493    3.3079 H   0  0  0  0  0  0  0  0  0  0  0  0
    1.8334    2.8321    5.3033 H   0  0  0  0  0  0  0  0  0  0  0  0
    3.9202    1.5169    5.0119 H   0  0  0  0  0  0  0  0  0  0  0  0
    4.7572    0.9278    2.7563 H   0  0  0  0  0  0  0  0  0  0  0  0
    4.5887    2.4515   -4.3415 H   0  0  0  0  0  0  0  0  0  0  0  0
    5.3013    0.8768   -4.1674 H   0  0  0  0  0  0  0  0  0  0  0  0
    3.2307    0.6805   -5.4767 H   0  0  0  0  0  0  0  0  0  0  0  0
    3.0662   -0.1986   -3.9752 H   0  0  0  0  0  0  0  0  0  0  0  0
    0.7604   -0.1719   -3.3939 H   0  0  0  0  0  0  0  0  0  0  0  0
   -1.0508    1.1306   -2.3377 H   0  0  0  0  0  0  0  0  0  0  0  0
   -0.9427    3.5913   -2.2725 H   0  0  0  0  0  0  0  0  0  0  0  0
    0.9937    4.7614   -3.2821 H   0  0  0  0  0  0  0  0  0  0  0  0
    2.6704    3.5229   -4.5624 H   0  0  0  0  0  0  0  0  0  0  0  0
  1  2  1  0  0  0  0
  1  4  2  0  0  0  0
  1  5  1  0  0  0  0
  2  3  1  0  0  0  0
  2 32  1  0  0  0  0
  2 33  1  0  0  0  0
  3 34  1  0  0  0  0
  3 35  1  0  0  0  0
  3 36  1  0  0  0  0
  5  6  1  0  0  0  0
  5 15  1  0  0  0  0
  6  7  1  0  0  0  0
  6 11  2  0  0  0  0
  7  8  2  0  0  0  0
  7 37  1  0  0  0  0
  8  9  1  0  0  0  0
  8 38  1  0  0  0  0
  9 10  2  0  0  0  0
  9 39  1  0  0  0  0
 10 11  1  0  0  0  0
 10 40  1  0  0  0  0
 11 41  1  0  0  0  0
 12 13  1  0  0  0  0
 12 17  1  0  0  0  0
 12 24  1  0  0  0  0
 13 14  1  0  0  0  0
 13 42  1  0  0  0  0
 13 43  1  0  0  0  0
 14 15  1  0  0  0  0
 14 44  1  0  0  0  0
 14 45  1  0  0  0  0
 15 16  1  0  0  0  0
 15 18  1  0  0  0  0
 16 17  1  0  0  0  0
 16 46  1  0  0  0  0
 16 47  1  0  0  0  0
 17 48  1  0  0  0  0
 17 49  1  0  0  0  0
 18 19  1  0  0  0  0
 18 23  2  0  0  0  0
 19 20  2  0  0  0  0
 19 50  1  0  0  0  0
 20 21  1  0  0  0  0
 20 51  1  0  0  0  0
 21 22  2  0  0  0  0
 21 52  1  0  0  0  0
 22 23  1  0  0  0  0
 22 53  1  0  0  0  0
 23 54  1  0  0  0  0
 24 25  1  0  0  0  0
 24 55  1  0  0  0  0
 24 56  1  0  0  0  0
 25 26  1  0  0  0  0
 25 57  1  0  0  0  0
 25 58  1  0  0  0  0
 26 27  1  0  0  0  0
 26 31  2  0  0  0  0
 27 28  2  0  0  0  0
 27 59  1  0  0  0  0
 28 29  1  0  0  0  0
 28 60  1  0  0  0  0
 29 30  2  0  0  0  0
 29 61  1  0  0  0  0
 30 31  1  0  0  0  0
 30 62  1  0  0  0  0
 31 63  1  0  0  0  0
M  END
>  <DRUGBANK_ID>
DB09168

>  <COMMON_NAME>
4-Phenylfentanyl

>  <CAS_NUMBER>
120448-97-7

>  <UNII>
L9P31JAO37

>  <SYNONYMS>
N-(1-Phenethyl-4-phenyl-4-piperidyl)-N-phenyl-propanamide

$$$$
