
 OpenBabel10282417213D

 17 17  0  0  0  0  0  0  0  0999 V2000
    1.3826   -0.3184    0.0341 C   0  0  0  0  0  0  0  0  0  0  0  0
    2.7416   -0.5487    0.1225 O   0  0  0  0  0  0  0  0  0  0  0  0
    0.4393   -1.3496   -0.0010 C   0  0  0  0  0  0  0  0  0  0  0  0
    0.9304    1.0064    0.0070 C   0  0  0  0  0  0  0  0  0  0  0  0
    3.3009   -2.0817    0.2971 S   0  0  0  0  0  0  0  0  0  0  0  0
   -0.9252   -1.0799   -0.0248 C   0  0  0  0  0  0  0  0  0  0  0  0
   -0.4471    1.2770    0.0240 C   0  0  0  0  0  0  0  0  0  0  0  0
    2.8310   -2.6351    1.5543 O   0  0  0  0  0  0  0  0  0  0  0  0
    3.1101   -2.8073   -0.9376 O   0  0  0  0  0  0  0  0  0  0  0  0
    4.8967   -1.9445    0.4693 O   0  0  0  0  0  0  0  0  0  0  0  0
   -1.3721    0.2333   -0.0092 C   0  0  0  0  0  0  0  0  0  0  0  0
    0.7229   -2.3963   -0.0054 H   0  0  0  0  0  0  0  0  0  0  0  0
    1.6280    1.8406   -0.0205 H   0  0  0  0  0  0  0  0  0  0  0  0
   -1.6267   -1.9089   -0.0383 H   0  0  0  0  0  0  0  0  0  0  0  0
   -0.8087    2.3018    0.0749 H   0  0  0  0  0  0  0  0  0  0  0  0
    5.2417   -2.8588    0.5582 H   0  0  0  0  0  0  0  0  0  0  0  0
   -2.4395    0.4362   -0.0259 H   0  0  0  0  0  0  0  0  0  0  0  0
  1  2  1  0  0  0  0
  1  3  2  0  0  0  0
  1  4  1  0  0  0  0
  2  5  1  0  0  0  0
  3  6  1  0  0  0  0
  3 12  1  0  0  0  0
  4  7  2  0  0  0  0
  4 13  1  0  0  0  0
  5  8  2  0  0  0  0
  5  9  2  0  0  0  0
  5 10  1  0  0  0  0
  6 11  2  0  0  0  0
  6 14  1  0  0  0  0
  7 11  1  0  0  0  0
  7 15  1  0  0  0  0
 10 16  1  0  0  0  0
 11 17  1  0  0  0  0
M  END
>  <DRUGBANK_ID>
DB14667

>  <SECONDARY_ACCESSION_NUMBERS>
DBSALT002236

>  <COMMON_NAME>
Phenyl hydrogen sulfate

>  <CAS_NUMBER>
937-34-8

>  <UNII>
2L4RKM5351

>  <SYNONYMS>
Phenol sulfate; Phenylsulfate

$$$$
