257
 OpenBabel10282417103D

 42 45  0  0  0  0  0  0  0  0999 V2000
   -1.9330   -0.6020   -0.5743 Cl  0  0  0  0  0  0  0  0  0  0  0  0
   -0.0564    3.3277    1.2071 N   0  0  0  0  0  0  0  0  0  0  0  0
   -0.2847    4.7557    2.9384 N   0  0  0  0  0  0  0  0  0  0  0  0
   -0.4558    2.5008   -0.0153 C   0  0  0  0  0  0  0  0  0  0  0  0
    0.2786    1.0855   -0.0072 C   0  0  0  0  0  0  0  0  0  0  0  0
   -0.0063    3.2532   -1.3279 C   0  0  0  0  0  0  0  0  0  0  0  0
   -2.0190    2.3573    0.0311 C   0  0  0  0  0  0  0  0  0  0  0  0
   -0.3085   -0.2035   -0.1148 C   0  0  0  0  0  0  0  0  0  0  0  0
    1.6991    1.0852   -0.0214 C   0  0  0  0  0  0  0  0  0  0  0  0
   -0.2182    2.6216   -2.5756 C   0  0  0  0  0  0  0  0  0  0  0  0
   -2.6202    1.7030    1.1358 C   0  0  0  0  0  0  0  0  0  0  0  0
    0.5403    4.5516   -1.3497 C   0  0  0  0  0  0  0  0  0  0  0  0
   -2.8770    2.8250   -0.9849 C   0  0  0  0  0  0  0  0  0  0  0  0
    1.2044    3.7467    1.5934 C   0  0  0  0  0  0  0  0  0  0  0  0
   -0.9139    3.9993    2.0635 C   0  0  0  0  0  0  0  0  0  0  0  0
    1.0287    4.6291    2.6363 C   0  0  0  0  0  0  0  0  0  0  0  0
    0.4694   -1.3699   -0.0216 C   0  0  0  0  0  0  0  0  0  0  0  0
    2.4697   -0.0789    0.0222 C   0  0  0  0  0  0  0  0  0  0  0  0
    0.0419    3.2791   -3.7763 C   0  0  0  0  0  0  0  0  0  0  0  0
   -3.9917    1.4666    1.1804 C   0  0  0  0  0  0  0  0  0  0  0  0
    0.8259    5.1977   -2.5533 C   0  0  0  0  0  0  0  0  0  0  0  0
   -4.2542    2.6223   -0.9175 C   0  0  0  0  0  0  0  0  0  0  0  0
    1.8499   -1.3115    0.0502 C   0  0  0  0  0  0  0  0  0  0  0  0
    0.5744    4.5630   -3.7637 C   0  0  0  0  0  0  0  0  0  0  0  0
   -4.8054    1.9222    0.1496 C   0  0  0  0  0  0  0  0  0  0  0  0
    2.2582    2.0079   -0.1362 H   0  0  0  0  0  0  0  0  0  0  0  0
   -0.6685    1.6300   -2.6188 H   0  0  0  0  0  0  0  0  0  0  0  0
   -1.9994    1.3064    1.9403 H   0  0  0  0  0  0  0  0  0  0  0  0
    0.7511    5.1137   -0.4443 H   0  0  0  0  0  0  0  0  0  0  0  0
   -2.5105    3.3310   -1.8737 H   0  0  0  0  0  0  0  0  0  0  0  0
    2.1105    3.5015    1.0767 H   0  0  0  0  0  0  0  0  0  0  0  0
   -1.9904    3.9348    2.0224 H   0  0  0  0  0  0  0  0  0  0  0  0
    1.7877    5.2014    3.1486 H   0  0  0  0  0  0  0  0  0  0  0  0
   -0.0137   -2.3448   -0.0624 H   0  0  0  0  0  0  0  0  0  0  0  0
    3.5542   -0.0107    0.0144 H   0  0  0  0  0  0  0  0  0  0  0  0
   -0.2006    2.7945   -4.7178 H   0  0  0  0  0  0  0  0  0  0  0  0
   -4.4085    0.8901    2.0006 H   0  0  0  0  0  0  0  0  0  0  0  0
    1.2220    6.2104   -2.5367 H   0  0  0  0  0  0  0  0  0  0  0  0
   -4.8886    2.9979   -1.7161 H   0  0  0  0  0  0  0  0  0  0  0  0
    2.4293   -2.2279    0.0645 H   0  0  0  0  0  0  0  0  0  0  0  0
    0.7848    5.0751   -4.6976 H   0  0  0  0  0  0  0  0  0  0  0  0
   -5.8706    1.7171    0.1677 H   0  0  0  0  0  0  0  0  0  0  0  0
  1  8  1  0  0  0  0
  2  4  1  0  0  0  0
  2 14  1  0  0  0  0
  2 15  1  0  0  0  0
  3 15  2  0  0  0  0
  3 16  1  0  0  0  0
  4  5  1  0  0  0  0
  4  6  1  0  0  0  0
  4  7  1  0  0  0  0
  5  8  1  0  0  0  0
  5  9  2  0  0  0  0
  6 10  2  0  0  0  0
  6 12  1  0  0  0  0
  7 11  2  0  0  0  0
  7 13  1  0  0  0  0
  8 17  2  0  0  0  0
  9 18  1  0  0  0  0
  9 26  1  0  0  0  0
 10 19  1  0  0  0  0
 10 27  1  0  0  0  0
 11 20  1  0  0  0  0
 11 28  1  0  0  0  0
 12 21  2  0  0  0  0
 12 29  1  0  0  0  0
 13 22  2  0  0  0  0
 13 30  1  0  0  0  0
 14 16  2  0  0  0  0
 14 31  1  0  0  0  0
 15 32  1  0  0  0  0
 16 33  1  0  0  0  0
 17 23  1  0  0  0  0
 17 34  1  0  0  0  0
 18 23  2  0  0  0  0
 18 35  1  0  0  0  0
 19 24  2  0  0  0  0
 19 36  1  0  0  0  0
 20 25  2  0  0  0  0
 20 37  1  0  0  0  0
 21 24  1  0  0  0  0
 21 38  1  0  0  0  0
 22 25  1  0  0  0  0
 22 39  1  0  0  0  0
 23 40  1  0  0  0  0
 24 41  1  0  0  0  0
 25 42  1  0  0  0  0
M  END
>  <DRUGBANK_ID>
DB00257

>  <SECONDARY_ACCESSION_NUMBERS>
APRD00244

>  <COMMON_NAME>
Clotrimazole

>  <CAS_NUMBER>
23593-75-1

>  <UNII>
G07GZ97H65

>  <SYNONYMS>
1-((2-Chlorophenyl)diphenylmethyl)-1H-imidazole; 1-(o-Chloro-α,α-diphenylbenzyl)imidazole; 1-(o-Chlorotrityl)imidazole; 1-(α-(2-Chlorophenyl)benzhydryl)imidazole; Clotrimazol; Clotrimazole; Clotrimazolum

$$$$
