
 OpenBabel10282417213D

 84 88  0  0  0  0  0  0  0  0999 V2000
    3.4649    9.1320    1.8142 C   0  0  0  0  0  0  0  0  0  0  0  0
    3.1576    7.7854    2.4637 C   0  0  1  0  0  0  0  0  0  0  0  0
    3.2698    7.0094    1.1275 C   0  0  0  0  0  0  0  0  0  0  0  0
    5.4683    6.1479    4.0843 C   0  0  1  0  0  0  0  0  0  0  0  0
    4.7046    7.8257    3.5673 C   0  0  2  0  0  0  0  0  0  0  0  0
    4.1781    4.9671    4.7225 C   0  0  0  0  0  0  0  0  0  0  0  0
    2.6661    5.0580    3.9305 C   0  0  1  0  0  0  0  0  0  0  0  0
    1.8141    6.6679    3.4251 C   0  0  1  0  0  0  0  0  0  0  0  0
    0.4390    6.4226    2.9121 C   0  0  1  0  0  0  0  0  0  0  0  0
   -0.1363    5.0642    3.1754 C   0  0  0  0  0  0  0  0  0  0  0  0
    2.6751    3.8786    2.7426 C   0  0  2  0  0  0  0  0  0  0  0  0
    0.8765    3.7041    2.9173 C   0  0  2  0  0  0  0  0  0  0  0  0
    2.5628    3.3587    0.3150 C   0  0  0  0  0  0  0  0  0  0  0  0
    3.5866    4.0828    1.0297 C   0  0  0  0  0  0  0  0  0  0  0  0
    1.3657    3.8307    0.7490 C   0  0  0  0  0  0  0  0  0  0  0  0
    0.6672    2.8690    1.6663 C   0  0  1  0  0  0  0  0  0  0  0  0
   -0.7198    2.6221    1.1139 C   0  0  0  0  0  0  0  0  0  0  0  0
   -1.4605    3.9010    0.6223 C   0  0  0  0  0  0  0  0  0  0  0  0
    0.6285    5.4050    0.0513 C   0  0  1  0  0  0  0  0  0  0  0  0
   -0.6703    4.8433   -0.3686 C   0  0  2  0  0  0  0  0  0  0  0  0
   -1.5204    6.0346   -0.8145 C   0  0  0  0  0  0  0  0  0  0  0  0
   -0.8851    7.3740   -1.2946 C   0  0  0  0  0  0  0  0  0  0  0  0
    0.5732    7.8242   -1.2194 C   0  0  2  0  0  0  0  0  0  0  0  0
    1.3641    6.4328   -1.3351 C   0  0  2  0  0  0  0  0  0  0  0  0
    3.4867    5.9316    3.4894 C   0  0  0  0  0  0  0  0  0  0  0  0
    5.9548    5.4130    2.8640 O   0  0  0  0  0  0  0  0  0  0  0  0
    4.1334    8.5929    4.6835 O   0  0  0  0  0  0  0  0  0  0  0  0
    2.2685    6.1178    1.0939 O   0  0  0  0  0  0  0  0  0  0  0  0
   -0.0494    7.6445    2.4338 O   0  0  0  0  0  0  0  0  0  0  0  0
    0.2568    2.9393    4.0888 C   0  0  0  0  0  0  0  0  0  0  0  0
    1.5706    1.4968    1.7794 C   0  0  0  0  0  0  0  0  0  0  0  0
    1.3154    8.9070   -0.3581 C   0  0  0  0  0  0  0  0  0  0  0  0
    1.8805    5.6529   -2.8013 C   0  0  0  0  0  0  0  0  0  0  0  0
    0.2479    4.1111   -1.3244 C   0  0  0  0  0  0  0  0  0  0  0  0
   -0.1573    2.9955   -1.8390 O   0  0  0  0  0  0  0  0  0  0  0  0
    1.4645    4.1675   -1.3643 O   0  0  0  0  0  0  0  0  0  0  0  0
    1.5524    7.1362    4.3847 H   0  0  0  0  0  0  0  0  0  0  0  0
    3.1798    2.9853    3.1095 H   0  0  0  0  0  0  0  0  0  0  0  0
    0.4004    6.3263    0.5836 H   0  0  0  0  0  0  0  0  0  0  0  0
    3.9484    8.9824    0.8073 H   0  0  0  0  0  0  0  0  0  0  0  0
    4.2984    9.6484    2.2836 H   0  0  0  0  0  0  0  0  0  0  0  0
    2.6272    9.7988    1.7609 H   0  0  0  0  0  0  0  0  0  0  0  0
    2.8782    7.4319    0.2616 H   0  0  0  0  0  0  0  0  0  0  0  0
    4.2410    6.7120    0.7410 H   0  0  0  0  0  0  0  0  0  0  0  0
    6.3279    6.2963    4.6785 H   0  0  0  0  0  0  0  0  0  0  0  0
    5.5325    8.3971    3.1750 H   0  0  0  0  0  0  0  0  0  0  0  0
    4.0812    5.1338    5.7896 H   0  0  0  0  0  0  0  0  0  0  0  0
    4.4998    3.9487    4.4951 H   0  0  0  0  0  0  0  0  0  0  0  0
    0.3872    5.9753    2.0008 H   0  0  0  0  0  0  0  0  0  0  0  0
   -1.0297    5.2037    3.8059 H   0  0  0  0  0  0  0  0  0  0  0  0
   -0.8362    4.7172    2.4619 H   0  0  0  0  0  0  0  0  0  0  0  0
    2.9798    2.3525    0.0977 H   0  0  0  0  0  0  0  0  0  0  0  0
    3.7609    5.0304    0.5179 H   0  0  0  0  0  0  0  0  0  0  0  0
    4.2546    3.6546    0.1910 H   0  0  0  0  0  0  0  0  0  0  0  0
   -1.4852    1.8498    0.9210 H   0  0  0  0  0  0  0  0  0  0  0  0
   -0.2669    1.8889    0.4391 H   0  0  0  0  0  0  0  0  0  0  0  0
   -1.9133    4.6397    1.3020 H   0  0  0  0  0  0  0  0  0  0  0  0
   -2.4891    3.5056    0.5571 H   0  0  0  0  0  0  0  0  0  0  0  0
   -2.4224    6.2981   -0.2281 H   0  0  0  0  0  0  0  0  0  0  0  0
   -1.9398    5.5511   -1.6873 H   0  0  0  0  0  0  0  0  0  0  0  0
   -1.5685    8.2266   -1.2601 H   0  0  0  0  0  0  0  0  0  0  0  0
   -0.8652    7.0937   -2.3534 H   0  0  0  0  0  0  0  0  0  0  0  0
    0.5293    8.5305   -2.0510 H   0  0  0  0  0  0  0  0  0  0  0  0
    2.3610    6.8049   -1.1723 H   0  0  0  0  0  0  0  0  0  0  0  0
    3.3777    5.5804    2.5328 H   0  0  0  0  0  0  0  0  0  0  0  0
    3.3529    6.7697    4.2439 H   0  0  0  0  0  0  0  0  0  0  0  0
    4.2734    6.1590    2.6891 H   0  0  0  0  0  0  0  0  0  0  0  0
    6.4133    4.6098    3.1603 H   0  0  0  0  0  0  0  0  0  0  0  0
    3.2792    8.9752    4.3651 H   0  0  0  0  0  0  0  0  0  0  0  0
    2.0548    5.4746    1.7805 H   0  0  0  0  0  0  0  0  0  0  0  0
    0.7237    7.9273    1.8872 H   0  0  0  0  0  0  0  0  0  0  0  0
   -0.7180    3.3822    4.3570 H   0  0  0  0  0  0  0  0  0  0  0  0
   -0.0824    1.9415    3.8179 H   0  0  0  0  0  0  0  0  0  0  0  0
    0.8495    3.0108    4.9896 H   0  0  0  0  0  0  0  0  0  0  0  0
    1.4519    0.8479    0.9023 H   0  0  0  0  0  0  0  0  0  0  0  0
    2.6681    1.6358    1.7861 H   0  0  0  0  0  0  0  0  0  0  0  0
    1.4475    0.9804    2.7232 H   0  0  0  0  0  0  0  0  0  0  0  0
    2.2113    9.2547   -0.9240 H   0  0  0  0  0  0  0  0  0  0  0  0
    0.8083    9.7447    0.1221 H   0  0  0  0  0  0  0  0  0  0  0  0
    1.7348    8.5315    0.5325 H   0  0  0  0  0  0  0  0  0  0  0  0
    2.9630    5.5800   -2.5641 H   0  0  0  0  0  0  0  0  0  0  0  0
    2.2218    4.5361   -2.8683 H   0  0  0  0  0  0  0  0  0  0  0  0
    0.9862    5.1594   -3.2198 H   0  0  0  0  0  0  0  0  0  0  0  0
    0.0229    2.4835   -1.0370 H   0  0  0  0  0  0  0  0  0  0  0  0
  1 40  1  0  0  0  0
  1 41  1  0  0  0  0
  1 42  1  0  0  0  0
  2  8  1  0  0  0  0
  2  1  1  6  0  0  0
  2  3  1  0  0  0  0
  3 28  1  0  0  0  0
  3 43  1  0  0  0  0
  3 44  1  0  0  0  0
  4  5  1  0  0  0  0
  4  6  1  0  0  0  0
  4 45  1  1  0  0  0
  4 26  1  0  0  0  0
  5  2  1  0  0  0  0
  5 46  1  6  0  0  0
  5 27  1  0  0  0  0
  6 47  1  0  0  0  0
  6 48  1  0  0  0  0
  7  6  1  0  0  0  0
  7 11  1  0  0  0  0
  7  8  1  0  0  0  0
  7 25  1  1  0  0  0
  8  9  1  0  0  0  0
  8 37  1  6  0  0  0
  9 10  1  0  0  0  0
  9 29  1  0  0  0  0
  9 49  1  6  0  0  0
 10 12  1  0  0  0  0
 10 50  1  0  0  0  0
 10 51  1  0  0  0  0
 11 12  1  0  0  0  0
 11 14  1  0  0  0  0
 11 38  1  6  0  0  0
 12 16  1  0  0  0  0
 12 30  1  1  0  0  0
 13 14  1  0  0  0  0
 13 52  1  0  0  0  0
 14 53  1  0  0  0  0
 14 54  1  0  0  0  0
 15 13  2  0  0  0  0
 15 19  1  0  0  0  0
 15 16  1  0  0  0  0
 16 17  1  0  0  0  0
 16 31  1  6  0  0  0
 17 18  1  0  0  0  0
 17 55  1  0  0  0  0
 17 56  1  0  0  0  0
 18 20  1  0  0  0  0
 18 57  1  0  0  0  0
 18 58  1  0  0  0  0
 19 20  1  0  0  0  0
 19 24  1  0  0  0  0
 19 39  1  6  0  0  0
 20 21  1  0  0  0  0
 20 34  1  6  0  0  0
 21 22  1  0  0  0  0
 21 59  1  0  0  0  0
 21 60  1  0  0  0  0
 22 23  1  0  0  0  0
 22 61  1  0  0  0  0
 22 62  1  0  0  0  0
 23 24  1  0  0  0  0
 23 63  1  6  0  0  0
 23 32  1  0  0  0  0
 24 64  1  1  0  0  0
 24 33  1  0  0  0  0
 25 65  1  0  0  0  0
 25 66  1  0  0  0  0
 25 67  1  0  0  0  0
 26 68  1  0  0  0  0
 27 69  1  0  0  0  0
 28 70  1  0  0  0  0
 29 71  1  0  0  0  0
 30 72  1  0  0  0  0
 30 73  1  0  0  0  0
 30 74  1  0  0  0  0
 31 75  1  0  0  0  0
 31 76  1  0  0  0  0
 31 77  1  0  0  0  0
 32 78  1  0  0  0  0
 32 79  1  0  0  0  0
 32 80  1  0  0  0  0
 33 81  1  0  0  0  0
 33 82  1  0  0  0  0
 33 83  1  0  0  0  0
 34 35  1  0  0  0  0
 34 36  2  0  0  0  0
 35 84  1  0  0  0  0
M  END
>  <DRUGBANK_ID>
DB14037

>  <COMMON_NAME>
Madecassic acid

>  <CAS_NUMBER>
18449-41-7

>  <UNII>
M7O1N24J82

>  <SYNONYMS>
6Î²-hydroxyasiatic acid; Brahmic acid

$$$$
