
 OpenBabel10282417113D

 10  9  0  0  0  0  0  0  0  0999 V2000
    0.9081   -0.0613   -0.0463 S   0  0  0  0  0  0  0  0  0  0  0  0
    0.4884   -1.4920   -0.2283 O   0  0  0  0  0  0  0  0  0  0  0  0
    0.4760    0.4169    1.6431 C   0  0  0  0  0  0  0  0  0  0  0  0
    2.7071   -0.0457    0.1348 C   0  0  0  0  0  0  0  0  0  0  0  0
    0.8672   -0.3049    2.3639 H   0  0  0  0  0  0  0  0  0  0  0  0
    0.8555    1.4175    1.8631 H   0  0  0  0  0  0  0  0  0  0  0  0
   -0.6158    0.4314    1.7147 H   0  0  0  0  0  0  0  0  0  0  0  0
    3.1396   -0.3474   -0.8240 H   0  0  0  0  0  0  0  0  0  0  0  0
    3.0555    0.9612    0.3758 H   0  0  0  0  0  0  0  0  0  0  0  0
    3.0268   -0.7527    0.9040 H   0  0  0  0  0  0  0  0  0  0  0  0
  1  2  2  0  0  0  0
  1  3  1  0  0  0  0
  1  4  1  0  0  0  0
  3  5  1  0  0  0  0
  3  6  1  0  0  0  0
  3  7  1  0  0  0  0
  4  8  1  0  0  0  0
  4  9  1  0  0  0  0
  4 10  1  0  0  0  0
M  END
>  <DRUGBANK_ID>
DB01093

>  <SECONDARY_ACCESSION_NUMBERS>
APRD00925; EXPT01231

>  <COMMON_NAME>
Dimethyl sulfoxide

>  <CAS_NUMBER>
67-68-5

>  <UNII>
YOW8V9698H

>  <SYNONYMS>
Dimethyl sulfoxide; Dimethyl sulfur oxide; Dimethyl sulphoxide; Dimethyli sulfoxidum; Dimethylsulfoxid; Diméthylsulfoxyde; Dimetil sulfóxido; DMSO; Methylsulfinylmethane; S(O)Me2; Sulfinylbis(methane)

$$$$
