5B3
 OpenBabel10282417163D

 44 46  0  0  0  0  0  0  0  0999 V2000
    1.0482    0.2333    0.2114 O   0  0  0  0  0  0  0  0  0  0  0  0
    3.2312   -3.3786    2.3558 C   0  0  0  0  0  0  0  0  0  0  0  0
    2.9745   -0.6139   -1.1389 O   0  0  0  0  0  0  0  0  0  0  0  0
    2.8943   -2.4999    1.2706 C   0  0  0  0  0  0  0  0  0  0  0  0
    5.2934    1.1749   -1.1088 C   0  0  0  0  0  0  0  0  0  0  0  0
    3.2676    1.4714    0.3059 N   0  0  0  0  0  0  0  0  0  0  0  0
    2.9119   -1.1113    1.4379 C   0  0  0  0  0  0  0  0  0  0  0  0
    5.1398    3.0967    0.4808 C   0  0  0  0  0  0  0  0  0  0  0  0
    5.4594    0.8418    1.3431 C   0  0  0  0  0  0  0  0  0  0  0  0
    4.7599    1.6225    0.2421 C   0  0  0  0  0  0  0  0  0  0  0  0
    2.4905   -0.0447    0.0637 S   0  0  0  0  0  0  0  0  0  0  0  0
    3.2968   -0.6088    2.6695 C   0  0  0  0  0  0  0  0  0  0  0  0
    3.7398   -1.4808    3.6849 C   0  0  0  0  0  0  0  0  0  0  0  0
    3.6928   -2.9043    3.6025 C   0  0  0  0  0  0  0  0  0  0  0  0
    4.0154   -3.7025    4.8717 C   0  0  0  0  0  0  0  0  0  0  0  0
    4.6034   -4.9366    5.1788 C   0  0  0  0  0  0  0  0  0  0  0  0
    4.9204   -5.4146    6.6225 C   0  0  0  0  0  0  0  0  0  0  0  0
    4.6372   -5.5047    8.2909 C   0  0  0  0  0  0  0  0  0  0  0  0
    4.1176   -4.7937    9.3835 N   0  0  0  0  0  0  0  0  0  0  0  0
    5.8192   -5.9491    8.7281 N   0  0  0  0  0  0  0  0  0  0  0  0
    6.5716   -5.3813    7.7579 N   0  0  0  0  0  0  0  0  0  0  0  0
    5.8115   -4.3934    6.9967 C   0  0  0  0  0  0  0  0  0  0  0  0
    4.9064   -3.2311    7.0854 C   0  0  0  0  0  0  0  0  0  0  0  0
    3.8892   -3.0701    6.0654 C   0  0  0  0  0  0  0  0  0  0  0  0
    3.0462   -4.4373    2.1989 H   0  0  0  0  0  0  0  0  0  0  0  0
    2.5674   -2.9046    0.3108 H   0  0  0  0  0  0  0  0  0  0  0  0
    4.8588    1.7623   -1.9227 H   0  0  0  0  0  0  0  0  0  0  0  0
    6.3825    1.2611   -1.1402 H   0  0  0  0  0  0  0  0  0  0  0  0
    5.0836    0.1211   -1.2921 H   0  0  0  0  0  0  0  0  0  0  0  0
    2.7741    2.1534   -0.2823 H   0  0  0  0  0  0  0  0  0  0  0  0
    4.7651    3.4652    1.4443 H   0  0  0  0  0  0  0  0  0  0  0  0
    6.2338    3.1954    0.5053 H   0  0  0  0  0  0  0  0  0  0  0  0
    4.7643    3.7607   -0.3026 H   0  0  0  0  0  0  0  0  0  0  0  0
    5.1645    1.2200    2.3284 H   0  0  0  0  0  0  0  0  0  0  0  0
    5.2514   -0.2210    1.2432 H   0  0  0  0  0  0  0  0  0  0  0  0
    6.5467    0.9209    1.2984 H   0  0  0  0  0  0  0  0  0  0  0  0
    3.3245    0.4635    2.8506 H   0  0  0  0  0  0  0  0  0  0  0  0
    4.1011   -1.0010    4.5952 H   0  0  0  0  0  0  0  0  0  0  0  0
    5.2888   -5.2944    4.3745 H   0  0  0  0  0  0  0  0  0  0  0  0
    4.7400   -4.9173   10.2082 H   0  0  0  0  0  0  0  0  0  0  0  0
    3.7536   -3.8475    9.4863 H   0  0  0  0  0  0  0  0  0  0  0  0
    7.1249   -6.1209    7.3258 H   0  0  0  0  0  0  0  0  0  0  0  0
    4.5277   -2.8772    8.0404 H   0  0  0  0  0  0  0  0  0  0  0  0
    2.9454   -2.5445    6.2175 H   0  0  0  0  0  0  0  0  0  0  0  0
  1 11  2  0  0  0  0
  2  4  2  0  0  0  0
  2 14  1  0  0  0  0
  2 25  1  0  0  0  0
  3 11  2  0  0  0  0
  4  7  1  0  0  0  0
  4 26  1  0  0  0  0
  5 10  1  0  0  0  0
  5 27  1  0  0  0  0
  5 28  1  0  0  0  0
  5 29  1  0  0  0  0
  6 10  1  0  0  0  0
  6 11  1  0  0  0  0
  6 30  1  0  0  0  0
  7 11  1  0  0  0  0
  7 12  2  0  0  0  0
  8 10  1  0  0  0  0
  8 31  1  0  0  0  0
  8 32  1  0  0  0  0
  8 33  1  0  0  0  0
  9 10  1  0  0  0  0
  9 34  1  0  0  0  0
  9 35  1  0  0  0  0
  9 36  1  0  0  0  0
 12 13  1  0  0  0  0
 12 37  1  0  0  0  0
 13 14  2  0  0  0  0
 13 38  1  0  0  0  0
 14 15  1  0  0  0  0
 15 16  2  0  0  0  0
 15 24  1  0  0  0  0
 16 17  1  0  0  0  0
 16 39  1  0  0  0  0
 17 18  1  0  0  0  0
 17 22  2  0  0  0  0
 18 19  1  0  0  0  0
 18 20  2  0  0  0  0
 19 40  1  0  0  0  0
 19 41  1  0  0  0  0
 20 21  1  0  0  0  0
 21 22  1  0  0  0  0
 21 42  1  0  0  0  0
 22 23  1  0  0  0  0
 23 24  2  0  0  0  0
 23 43  1  0  0  0  0
 24 44  1  0  0  0  0
M  END
>  <DRUGBANK_ID>
DB07162

>  <COMMON_NAME>
4-(3-amino-1H-indazol-5-yl)-N-tert-butylbenzenesulfonamide

$$$$
