272
 OpenBabel10282417103D

 17 17  0  0  0  0  0  0  0  0999 V2000
   -0.2352   -0.9791   -0.1215 N   0  0  0  0  0  0  0  0  0  0  0  0
    1.0823   -3.2955    1.3096 N   0  0  0  0  0  0  0  0  0  0  0  0
   -1.1265    0.0226   -0.0434 N   0  0  0  0  0  0  0  0  0  0  0  0
    2.2226   -1.4993   -0.0104 C   0  0  0  0  0  0  0  0  0  0  0  0
    1.0670   -0.5550   -0.0385 C   0  0  0  0  0  0  0  0  0  0  0  0
    2.2400   -2.3943    1.2384 C   0  0  0  0  0  0  0  0  0  0  0  0
    1.0067    0.8180   -0.0117 C   0  0  0  0  0  0  0  0  0  0  0  0
   -0.3668    1.1189   -0.0095 C   0  0  0  0  0  0  0  0  0  0  0  0
   -0.5773   -1.9318   -0.1780 H   0  0  0  0  0  0  0  0  0  0  0  0
    1.1975   -3.9054    2.1204 H   0  0  0  0  0  0  0  0  0  0  0  0
    0.2581   -2.7434    1.5431 H   0  0  0  0  0  0  0  0  0  0  0  0
    2.2281   -2.1127   -0.9194 H   0  0  0  0  0  0  0  0  0  0  0  0
    3.1521   -0.9146   -0.0244 H   0  0  0  0  0  0  0  0  0  0  0  0
    3.1541   -2.9989    1.2285 H   0  0  0  0  0  0  0  0  0  0  0  0
    2.2660   -1.7792    2.1455 H   0  0  0  0  0  0  0  0  0  0  0  0
    1.8405    1.5057    0.0159 H   0  0  0  0  0  0  0  0  0  0  0  0
   -0.8442    2.0888    0.0204 H   0  0  0  0  0  0  0  0  0  0  0  0
  1  3  1  0  0  0  0
  1  5  1  0  0  0  0
  1  9  1  0  0  0  0
  2  6  1  0  0  0  0
  2 10  1  0  0  0  0
  2 11  1  0  0  0  0
  3  8  2  0  0  0  0
  4  5  1  0  0  0  0
  4  6  1  0  0  0  0
  4 12  1  0  0  0  0
  4 13  1  0  0  0  0
  5  7  2  0  0  0  0
  6 14  1  0  0  0  0
  6 15  1  0  0  0  0
  7  8  1  0  0  0  0
  7 16  1  0  0  0  0
  8 17  1  0  0  0  0
M  END
>  <DRUGBANK_ID>
DB00272

>  <SECONDARY_ACCESSION_NUMBERS>
APRD00714

>  <COMMON_NAME>
Betazole

>  <CAS_NUMBER>
105-20-4

>  <UNII>
1C065P542O

>  <SYNONYMS>
1H-pyrazole-3-ethanamine; 2-(1H-pyrazol-5-yl)ethanamine; 2-(3-pyrazolyl)ethylamine; 3-(2-aminoethyl)pyrazole; 3-(beta-aminoethyl)pyrazole; 3-(Î²-aminoethyl)pyrazole; Ametazole; Betazol; Betazole; Betazolum

$$$$
