
 OpenBabel10282417203D

 25 24  0  0  0  0  0  0  0  0999 V2000
    0.9178   -1.1914   -2.3133 N   0  0  0  0  0  0  0  0  0  0  0  0
    0.2918   -1.7845   -3.4417 N   0  0  0  0  0  0  0  0  0  0  0  0
    4.3450   -0.6555   -1.2937 N   0  0  0  0  0  0  0  0  0  0  0  0
    4.9200   -0.0559   -0.1530 N   0  0  0  0  0  0  0  0  0  0  0  0
   -1.7791   -1.2608   -2.4453 N   0  0  0  0  0  0  0  0  0  0  0  0
   -1.7448   -2.3016   -4.4255 N   0  0  0  0  0  0  0  0  0  0  0  0
    6.9956   -0.5780   -1.1462 N   0  0  0  0  0  0  0  0  0  0  0  0
    6.9644    0.4618    0.8319 N   0  0  0  0  0  0  0  0  0  0  0  0
    2.2249   -1.2325   -2.3915 C   0  0  0  0  0  0  0  0  0  0  0  0
    3.0449   -0.6363   -1.2572 C   0  0  0  0  0  0  0  0  0  0  0  0
   -1.0094   -1.7744   -3.4225 C   0  0  0  0  0  0  0  0  0  0  0  0
    6.2255   -0.0635   -0.1675 C   0  0  0  0  0  0  0  0  0  0  0  0
    2.9821   -1.8395   -3.5464 C   0  0  0  0  0  0  0  0  0  0  0  0
   -2.7843   -1.2649   -2.4531 H   0  0  0  0  0  0  0  0  0  0  0  0
   -1.2816   -0.8514   -1.6664 H   0  0  0  0  0  0  0  0  0  0  0  0
   -1.2611   -2.7144   -5.2108 H   0  0  0  0  0  0  0  0  0  0  0  0
   -2.7516   -2.3049   -4.4317 H   0  0  0  0  0  0  0  0  0  0  0  0
    8.0013   -0.5757   -1.1419 H   0  0  0  0  0  0  0  0  0  0  0  0
    6.4974   -0.9875   -1.9253 H   0  0  0  0  0  0  0  0  0  0  0  0
    6.4860    0.8755    1.6190 H   0  0  0  0  0  0  0  0  0  0  0  0
    7.9718    0.4612    0.8308 H   0  0  0  0  0  0  0  0  0  0  0  0
    2.4645   -0.2004   -0.4279 H   0  0  0  0  0  0  0  0  0  0  0  0
    2.7189   -2.8971   -3.6381 H   0  0  0  0  0  0  0  0  0  0  0  0
    2.7189   -1.3154   -4.4695 H   0  0  0  0  0  0  0  0  0  0  0  0
    4.0630   -1.7706   -3.4151 H   0  0  0  0  0  0  0  0  0  0  0  0
  1  2  1  0  0  0  0
  1  9  2  0  0  0  0
  2 11  2  0  0  0  0
  3  4  1  0  0  0  0
  3 10  2  0  0  0  0
  4 12  2  0  0  0  0
  5 11  1  0  0  0  0
  5 14  1  0  0  0  0
  5 15  1  0  0  0  0
  6 16  1  0  0  0  0
  6 17  1  0  0  0  0
  7 12  1  0  0  0  0
  7 18  1  0  0  0  0
  7 19  1  0  0  0  0
  8 20  1  0  0  0  0
  8 21  1  0  0  0  0
  9 10  1  0  0  0  0
  9 13  1  0  0  0  0
 10 22  1  0  0  0  0
 11  6  1  0  0  0  0
 12  8  1  0  0  0  0
 13 23  1  0  0  0  0
 13 24  1  0  0  0  0
 13 25  1  0  0  0  0
M  END
>  <DRUGBANK_ID>
DB12967

>  <COMMON_NAME>
Mitoguazone

>  <CAS_NUMBER>
459-86-9

>  <UNII>
OD5Q0L447W

>  <SYNONYMS>
Me-GAG; Methyl-G; Mitoguazona; Mitoguazone; Mitoguazonum

$$$$
