
 OpenBabel10282417123D

 16 15  0  0  0  0  0  0  0  0999 V2000
    0.9673   -0.0195    0.0311 N   0  0  0  0  0  0  0  0  0  0  0  0
    0.4909    1.3151   -0.3077 C   0  0  0  0  0  0  0  0  0  0  0  0
    0.9040    1.7273   -1.7254 C   0  0  0  0  0  0  0  0  0  0  0  0
    0.3661    0.8099   -2.8286 C   0  0  0  0  0  0  0  0  0  0  0  0
   -1.1465    0.7463   -2.8362 C   0  0  0  0  0  0  0  0  0  0  0  0
   -1.7260    1.1574   -3.9806 O   0  0  0  0  0  0  0  0  0  0  0  0
   -1.8190    0.3398   -1.8980 O   0  0  0  0  0  0  0  0  0  0  0  0
    0.5636   -0.7046   -0.6081 H   0  0  0  0  0  0  0  0  0  0  0  0
    1.9777   -0.0724   -0.0704 H   0  0  0  0  0  0  0  0  0  0  0  0
   -0.5945    1.3625   -0.1855 H   0  0  0  0  0  0  0  0  0  0  0  0
    0.8966    2.0278    0.4171 H   0  0  0  0  0  0  0  0  0  0  0  0
    0.5656    2.7546   -1.9092 H   0  0  0  0  0  0  0  0  0  0  0  0
    2.0013    1.7490   -1.7819 H   0  0  0  0  0  0  0  0  0  0  0  0
    0.7397    1.1546   -3.7993 H   0  0  0  0  0  0  0  0  0  0  0  0
    0.7449   -0.2119   -2.7126 H   0  0  0  0  0  0  0  0  0  0  0  0
   -1.1181    1.4205   -4.6940 H   0  0  0  0  0  0  0  0  0  0  0  0
  1  2  1  0  0  0  0
  1  8  1  0  0  0  0
  1  9  1  0  0  0  0
  2  3  1  0  0  0  0
  2 10  1  0  0  0  0
  2 11  1  0  0  0  0
  3  4  1  0  0  0  0
  3 12  1  0  0  0  0
  3 13  1  0  0  0  0
  4  5  1  0  0  0  0
  4 14  1  0  0  0  0
  4 15  1  0  0  0  0
  5  6  1  0  0  0  0
  5  7  2  0  0  0  0
  6 16  1  0  0  0  0
M  END
>  <DRUGBANK_ID>
DB02530

>  <SECONDARY_ACCESSION_NUMBERS>
EXPT00402; DB08850

>  <COMMON_NAME>
gamma-Aminobutyric acid

>  <CAS_NUMBER>
56-12-2

>  <UNII>
2ACZ6IPC6I

>  <SYNONYMS>
4-aminobutanoic acid; 4-aminobutyric acid; 4Abu; GABA; gamma-Aminobutyric acid; piperidic acid; piperidinic acid; γ-amino-n-butyric acid; γ-aminobutanoic acid; γ-Aminobuttersäure; γ-aminobutyric acid; ω-aminobutyric acid

$$$$
