
 OpenBabel10282417173D

135137  0  0  0  0  0  0  0  0999 V2000
   15.7963   -3.1034  -17.6443 C   0  0  0  0  0  0  0  0  0  0  0  0
   16.9214   -3.6099  -17.4345 O   0  0  0  0  0  0  0  0  0  0  0  0
   16.3871   -1.4405  -17.9026 N   0  0  0  0  0  0  0  0  0  0  0  0
   16.3821   -1.2548  -19.3378 C   0  0  1  0  0  0  0  0  0  0  0  0
   15.0895   -0.4600  -19.6050 C   0  0  0  0  0  0  0  0  0  0  0  0
   17.4756   -0.6588  -20.2483 C   0  0  0  0  0  0  0  0  0  0  0  0
   18.8095   -1.2981  -20.0776 C   0  0  0  0  0  0  0  0  0  0  0  0
   19.1680   -2.3602  -20.8901 C   0  0  0  0  0  0  0  0  0  0  0  0
   20.4480   -2.8804  -20.8235 C   0  0  0  0  0  0  0  0  0  0  0  0
   21.3769   -2.4230  -19.9056 C   0  0  0  0  0  0  0  0  0  0  0  0
   21.0246   -1.3184  -19.1426 C   0  0  0  0  0  0  0  0  0  0  0  0
   19.7165   -0.8275  -19.1399 C   0  0  0  0  0  0  0  0  0  0  0  0
   14.9695    0.3506  -20.5133 O   0  0  0  0  0  0  0  0  0  0  0  0
   13.9739   -0.6561  -18.8568 N   0  0  0  0  0  0  0  0  0  0  0  0
   13.7834   -1.6383  -17.9326 C   0  0  1  0  0  0  0  0  0  0  0  0
   13.8355   -1.2121  -16.3191 C   0  0  1  0  0  0  0  0  0  0  0  0
   12.9243   -2.7312  -18.6994 C   0  0  0  0  0  0  0  0  0  0  0  0
   12.5378   -0.6129  -16.1254 C   0  0  0  0  0  0  0  0  0  0  0  0
   13.8646   -2.2833  -15.0891 C   0  0  0  0  0  0  0  0  0  0  0  0
   13.3845   -3.7165  -19.3359 O   0  0  0  0  0  0  0  0  0  0  0  0
   11.6629   -2.6523  -18.1456 N   0  0  0  0  0  0  0  0  0  0  0  0
   10.9906   -1.4554  -17.9392 C   0  0  1  0  0  0  0  0  0  0  0  0
   10.4830   -0.8750  -19.1667 C   0  0  1  0  0  0  0  0  0  0  0  0
   10.0367   -1.4613  -16.6536 C   0  0  0  0  0  0  0  0  0  0  0  0
   10.1494   -0.7324  -15.6687 O   0  0  0  0  0  0  0  0  0  0  0  0
    9.0264   -2.3544  -16.5888 N   0  0  0  0  0  0  0  0  0  0  0  0
    8.6071   -3.2838  -17.6032 C   0  0  1  0  0  0  0  0  0  0  0  0
    8.7741   -4.6905  -17.2482 C   0  0  0  0  0  0  0  0  0  0  0  0
    7.2788   -2.9287  -18.3360 C   0  0  0  0  0  0  0  0  0  0  0  0
    7.9565   -5.1053  -16.1948 C   0  0  0  0  0  0  0  0  0  0  0  0
    7.1407   -5.9736  -16.4501 O   0  0  0  0  0  0  0  0  0  0  0  0
    8.3227   -4.4945  -14.9929 N   0  0  0  0  0  0  0  0  0  0  0  0
    6.3369   -2.9522  -17.5644 O   0  0  0  0  0  0  0  0  0  0  0  0
    7.1856   -2.3912  -19.6250 N   0  0  0  0  0  0  0  0  0  0  0  0
    5.9826   -2.0500  -20.2982 C   0  0  2  0  0  0  0  0  0  0  0  0
    4.7708   -2.1320  -19.3187 C   0  0  0  0  0  0  0  0  0  0  0  0
    6.0671   -3.0001  -21.4697 C   0  0  0  0  0  0  0  0  0  0  0  0
    7.5375   -4.7088  -20.7314 S   0  0  0  0  0  0  0  0  0  0  0  0
   10.0504   -4.7378  -19.8506 S   0  0  0  0  0  0  0  0  0  0  0  0
   11.9783   -4.8019  -18.1807 C   0  0  0  0  0  0  0  0  0  0  0  0
   13.8809   -4.0717  -17.4735 C   0  0  0  0  0  0  0  0  0  0  0  0
    4.7788   -1.3242  -18.3832 O   0  0  0  0  0  0  0  0  0  0  0  0
    3.7971   -3.1103  -19.5332 N   0  0  0  0  0  0  0  0  0  0  0  0
    4.0996   -4.4460  -19.9484 C   0  0  0  0  0  0  0  0  0  0  0  0
    2.9161   -4.8867  -20.7541 C   0  0  0  0  0  0  0  0  0  0  0  0
    2.3750   -3.1123  -19.1612 C   0  0  2  0  0  0  0  0  0  0  0  0
    2.1833   -3.1619  -17.6357 C   0  0  0  0  0  0  0  0  0  0  0  0
    1.3012   -4.0948  -17.1068 N   0  0  0  0  0  0  0  0  0  0  0  0
    2.7299   -2.3355  -16.9055 O   0  0  0  0  0  0  0  0  0  0  0  0
    1.1182   -4.2048  -15.6762 C   0  0  2  0  0  0  0  0  0  0  0  0
    2.1311   -5.1763  -15.0510 C   0  0  0  0  0  0  0  0  0  0  0  0
   -0.3124   -4.5804  -15.3263 C   0  0  0  0  0  0  0  0  0  0  0  0
    1.8127   -4.3843  -19.8639 C   0  0  0  0  0  0  0  0  0  0  0  0
   -0.5260   -4.5701  -13.8143 C   0  0  0  0  0  0  0  0  0  0  0  0
   -0.2322   -3.1965  -13.2241 C   0  0  0  0  0  0  0  0  0  0  0  0
    3.2131   -4.4776  -14.5765 N   0  0  0  0  0  0  0  0  0  0  0  0
    2.0095   -6.3948  -14.9757 O   0  0  0  0  0  0  0  0  0  0  0  0
    4.4011   -5.1808  -14.2113 C   0  0  0  0  0  0  0  0  0  0  0  0
    5.3198   -4.7165  -15.2545 C   0  0  0  0  0  0  0  0  0  0  0  0
    6.2250   -3.7858  -14.7322 N   0  0  0  0  0  0  0  0  0  0  0  0
    5.1105   -4.9652  -16.4391 O   0  0  0  0  0  0  0  0  0  0  0  0
   22.5980   -3.0001  -19.6689 O   0  0  0  0  0  0  0  0  0  0  0  0
   22.9129   -4.1970  -20.4007 C   0  0  0  0  0  0  0  0  0  0  0  0
   21.9498   -5.3366  -20.1142 C   0  0  0  0  0  0  0  0  0  0  0  0
   15.1855   -2.9645  -14.8774 C   0  0  0  0  0  0  0  0  0  0  0  0
    9.4307   -1.7025  -19.5668 C   0  0  0  0  0  0  0  0  0  0  0  0
    9.9334    0.3798  -18.8987 O   0  0  0  0  0  0  0  0  0  0  0  0
   -1.1239   -2.2053  -13.8100 N   0  0  0  0  0  0  0  0  0  0  0  0
   11.8051   -0.8193  -17.9669 H   0  0  0  0  0  0  0  0  0  0  0  0
   14.6649   -2.0097  -18.2023 H   0  0  0  0  0  0  0  0  0  0  0  0
   16.8502   -0.4919  -17.5154 H   0  0  0  0  0  0  0  0  0  0  0  0
   16.3277   -2.2919  -19.6148 H   0  0  0  0  0  0  0  0  0  0  0  0
   17.1623   -0.8213  -21.3086 H   0  0  0  0  0  0  0  0  0  0  0  0
   17.5867    0.4314  -20.1761 H   0  0  0  0  0  0  0  0  0  0  0  0
   18.4518   -2.8011  -21.5723 H   0  0  0  0  0  0  0  0  0  0  0  0
   20.6936   -3.6617  -21.5228 H   0  0  0  0  0  0  0  0  0  0  0  0
   21.7885   -0.8088  -18.5749 H   0  0  0  0  0  0  0  0  0  0  0  0
   19.4028   -0.0912  -18.4061 H   0  0  0  0  0  0  0  0  0  0  0  0
   13.1051   -0.2617  -19.0729 H   0  0  0  0  0  0  0  0  0  0  0  0
   14.5485   -0.4254  -16.1374 H   0  0  0  0  0  0  0  0  0  0  0  0
   12.0116   -1.5707  -16.1975 H   0  0  0  0  0  0  0  0  0  0  0  0
   12.2297   -0.2387  -15.1840 H   0  0  0  0  0  0  0  0  0  0  0  0
   12.3587    0.1904  -16.8546 H   0  0  0  0  0  0  0  0  0  0  0  0
   13.6046   -1.8179  -14.1570 H   0  0  0  0  0  0  0  0  0  0  0  0
   13.1437   -3.0981  -15.3134 H   0  0  0  0  0  0  0  0  0  0  0  0
   10.9880   -3.3514  -18.2826 H   0  0  0  0  0  0  0  0  0  0  0  0
   11.1770   -0.9452  -19.9923 H   0  0  0  0  0  0  0  0  0  0  0  0
    8.3725   -2.1771  -15.8551 H   0  0  0  0  0  0  0  0  0  0  0  0
    9.4383   -3.2507  -18.2070 H   0  0  0  0  0  0  0  0  0  0  0  0
    8.4542   -5.3553  -18.0358 H   0  0  0  0  0  0  0  0  0  0  0  0
    9.7578   -4.9249  -16.8740 H   0  0  0  0  0  0  0  0  0  0  0  0
    8.6325   -3.5153  -14.8545 H   0  0  0  0  0  0  0  0  0  0  0  0
    7.5736   -4.6916  -14.3517 H   0  0  0  0  0  0  0  0  0  0  0  0
    7.8672   -2.6058  -20.3674 H   0  0  0  0  0  0  0  0  0  0  0  0
    6.0613   -0.9939  -20.6552 H   0  0  0  0  0  0  0  0  0  0  0  0
    4.9398   -2.8385  -21.9422 H   0  0  0  0  0  0  0  0  0  0  0  0
    6.6021   -2.6738  -22.3539 H   0  0  0  0  0  0  0  0  0  0  0  0
   11.2422   -5.6345  -18.9139 H   0  0  0  0  0  0  0  0  0  0  0  0
   11.1141   -5.7212  -17.8006 H   0  0  0  0  0  0  0  0  0  0  0  0
   14.1218   -3.0870  -16.7859 H   0  0  0  0  0  0  0  0  0  0  0  0
   15.0206   -4.2724  -16.9661 H   0  0  0  0  0  0  0  0  0  0  0  0
    4.4237   -5.1220  -19.1474 H   0  0  0  0  0  0  0  0  0  0  0  0
    4.8869   -4.3940  -20.6252 H   0  0  0  0  0  0  0  0  0  0  0  0
    2.9147   -4.4065  -21.7443 H   0  0  0  0  0  0  0  0  0  0  0  0
    2.9303   -5.9642  -20.9234 H   0  0  0  0  0  0  0  0  0  0  0  0
    1.8912   -2.2170  -19.5675 H   0  0  0  0  0  0  0  0  0  0  0  0
    0.8453   -4.8150  -17.6447 H   0  0  0  0  0  0  0  0  0  0  0  0
    1.3256   -3.2126  -15.2708 H   0  0  0  0  0  0  0  0  0  0  0  0
   -0.9977   -3.8630  -15.7937 H   0  0  0  0  0  0  0  0  0  0  0  0
   -0.5617   -5.5611  -15.7325 H   0  0  0  0  0  0  0  0  0  0  0  0
    0.8806   -4.2108  -20.4007 H   0  0  0  0  0  0  0  0  0  0  0  0
    1.6243   -5.1886  -19.1579 H   0  0  0  0  0  0  0  0  0  0  0  0
   -1.5564   -4.8581  -13.5839 H   0  0  0  0  0  0  0  0  0  0  0  0
    0.1286   -5.3161  -13.3495 H   0  0  0  0  0  0  0  0  0  0  0  0
   -0.3589   -3.2232  -12.1422 H   0  0  0  0  0  0  0  0  0  0  0  0
    0.8090   -2.9190  -13.4103 H   0  0  0  0  0  0  0  0  0  0  0  0
    3.2833   -3.4794  -14.7989 H   0  0  0  0  0  0  0  0  0  0  0  0
    4.7427   -4.8259  -13.2460 H   0  0  0  0  0  0  0  0  0  0  0  0
    4.3047   -6.2609  -14.2482 H   0  0  0  0  0  0  0  0  0  0  0  0
    6.9180   -3.5537  -15.4468 H   0  0  0  0  0  0  0  0  0  0  0  0
    6.5189   -3.6852  -13.7487 H   0  0  0  0  0  0  0  0  0  0  0  0
   22.9553   -3.9720  -21.4717 H   0  0  0  0  0  0  0  0  0  0  0  0
   23.9185   -4.5294  -20.1069 H   0  0  0  0  0  0  0  0  0  0  0  0
   20.9262   -5.0872  -20.3724 H   0  0  0  0  0  0  0  0  0  0  0  0
   22.1967   -6.2206  -20.6996 H   0  0  0  0  0  0  0  0  0  0  0  0
   21.9244   -5.5612  -19.0498 H   0  0  0  0  0  0  0  0  0  0  0  0
   15.9714   -2.2070  -14.9306 H   0  0  0  0  0  0  0  0  0  0  0  0
   15.4808   -3.6693  -14.1200 H   0  0  0  0  0  0  0  0  0  0  0  0
   15.0210   -3.8704  -15.4319 H   0  0  0  0  0  0  0  0  0  0  0  0
    8.7698   -1.5681  -18.7245 H   0  0  0  0  0  0  0  0  0  0  0  0
    8.9560   -1.3169  -20.4160 H   0  0  0  0  0  0  0  0  0  0  0  0
    9.7522   -2.6833  -19.8089 H   0  0  0  0  0  0  0  0  0  0  0  0
    9.3064    0.3062  -18.1437 H   0  0  0  0  0  0  0  0  0  0  0  0
   -0.8988   -1.2820  -13.4489 H   0  0  0  0  0  0  0  0  0  0  0  0
   -0.9844   -2.1529  -14.8193 H   0  0  0  0  0  0  0  0  0  0  0  0
  1  2  2  0  0  0  0
  1  3  1  0  0  0  0
  3 71  1  0  0  0  0
  4  3  1  0  0  0  0
  4  5  1  0  0  0  0
  4  6  1  0  0  0  0
  4 72  1  6  0  0  0
  5 13  2  0  0  0  0
  5 14  1  0  0  0  0
  6  7  1  0  0  0  0
  6 73  1  0  0  0  0
  6 74  1  0  0  0  0
  7  8  2  0  0  0  0
  8  9  1  0  0  0  0
  8 75  1  0  0  0  0
  9 10  2  0  0  0  0
  9 76  1  0  0  0  0
 10 11  1  0  0  0  0
 10 62  1  0  0  0  0
 11 12  2  0  0  0  0
 11 77  1  0  0  0  0
 12  7  1  0  0  0  0
 12 78  1  0  0  0  0
 14 79  1  0  0  0  0
 15 16  1  0  0  0  0
 15 17  1  0  0  0  0
 15 14  1  0  0  0  0
 15 70  1  6  0  0  0
 16 18  1  0  0  0  0
 16 19  1  0  0  0  0
 16 80  1  1  0  0  0
 17 20  2  0  0  0  0
 17 21  1  0  0  0  0
 18 81  1  0  0  0  0
 18 82  1  0  0  0  0
 18 83  1  0  0  0  0
 19 65  1  0  0  0  0
 19 84  1  0  0  0  0
 19 85  1  0  0  0  0
 21 86  1  0  0  0  0
 22 21  1  0  0  0  0
 22 23  1  0  0  0  0
 22 24  1  0  0  0  0
 22 69  1  1  0  0  0
 23 66  1  0  0  0  0
 23 67  1  0  0  0  0
 23 87  1  6  0  0  0
 24 25  2  0  0  0  0
 24 26  1  0  0  0  0
 26 88  1  0  0  0  0
 27 26  1  0  0  0  0
 27 28  1  0  0  0  0
 27 29  1  0  0  0  0
 27 89  1  6  0  0  0
 28 30  1  0  0  0  0
 28 90  1  0  0  0  0
 28 91  1  0  0  0  0
 29 34  1  0  0  0  0
 29 33  2  0  0  0  0
 30 31  2  0  0  0  0
 30 32  1  0  0  0  0
 32 92  1  0  0  0  0
 32 93  1  0  0  0  0
 34 94  1  0  0  0  0
 35 34  1  0  0  0  0
 35 37  1  0  0  0  0
 35 95  1  6  0  0  0
 35 36  1  0  0  0  0
 36 42  2  0  0  0  0
 36 43  1  0  0  0  0
 37 38  1  0  0  0  0
 37 96  1  0  0  0  0
 37 97  1  0  0  0  0
 38 39  1  0  0  0  0
 39 40  1  0  0  0  0
 40 41  1  0  0  0  0
 40 98  1  0  0  0  0
 40 99  1  0  0  0  0
 41  1  1  0  0  0  0
 41100  1  0  0  0  0
 41101  1  0  0  0  0
 43 44  1  0  0  0  0
 44 45  1  0  0  0  0
 44102  1  0  0  0  0
 44103  1  0  0  0  0
 45 53  1  0  0  0  0
 45104  1  0  0  0  0
 45105  1  0  0  0  0
 46 43  1  0  0  0  0
 46106  1  6  0  0  0
 46 47  1  0  0  0  0
 47 48  1  0  0  0  0
 47 49  2  0  0  0  0
 48107  1  0  0  0  0
 50 52  1  0  0  0  0
 50108  1  1  0  0  0
 50 51  1  0  0  0  0
 50 48  1  0  0  0  0
 51 56  1  0  0  0  0
 51 57  2  0  0  0  0
 52 54  1  0  0  0  0
 52109  1  0  0  0  0
 52110  1  0  0  0  0
 53 46  1  0  0  0  0
 53111  1  0  0  0  0
 53112  1  0  0  0  0
 54 55  1  0  0  0  0
 54113  1  0  0  0  0
 54114  1  0  0  0  0
 55 68  1  0  0  0  0
 55115  1  0  0  0  0
 55116  1  0  0  0  0
 56 58  1  0  0  0  0
 56117  1  0  0  0  0
 58 59  1  0  0  0  0
 58118  1  0  0  0  0
 58119  1  0  0  0  0
 59 60  1  0  0  0  0
 59 61  2  0  0  0  0
 60120  1  0  0  0  0
 60121  1  0  0  0  0
 62 63  1  0  0  0  0
 63 64  1  0  0  0  0
 63122  1  0  0  0  0
 63123  1  0  0  0  0
 64124  1  0  0  0  0
 64125  1  0  0  0  0
 64126  1  0  0  0  0
 65127  1  0  0  0  0
 65128  1  0  0  0  0
 65129  1  0  0  0  0
 66130  1  0  0  0  0
 66131  1  0  0  0  0
 66132  1  0  0  0  0
 67133  1  0  0  0  0
 68134  1  0  0  0  0
 68135  1  0  0  0  0
M  END
>  <DRUGBANK_ID>
DB09059

>  <COMMON_NAME>
Atosiban

>  <CAS_NUMBER>
90779-69-4

>  <UNII>
081D12SI0Z

>  <SYNONYMS>
Atosiban

$$$$
