WAI
 OpenBabel10282417133D

 56 59  0  0  0  0  0  0  0  0999 V2000
    1.5480   -0.0061   -0.0572 C   0  0  0  0  0  0  0  0  0  0  0  0
    0.8761    1.1970   -0.1368 C   0  0  0  0  0  0  0  0  0  0  0  0
   -0.4958    1.2106   -0.1114 C   0  0  0  0  0  0  0  0  0  0  0  0
   -1.2282    0.0718   -0.0666 N   0  0  0  0  0  0  0  0  0  0  0  0
   -0.5609   -1.1043   -0.0556 C   0  0  0  0  0  0  0  0  0  0  0  0
    0.8186   -1.1929   -0.0510 C   0  0  0  0  0  0  0  0  0  0  0  0
    2.9907    0.0379    0.0457 C   0  0  0  0  0  0  0  0  0  0  0  0
    3.6338    0.7032    1.0645 C   0  0  0  0  0  0  0  0  0  0  0  0
    5.0017    0.7245    0.9631 C   0  0  0  0  0  0  0  0  0  0  0  0
    5.6844    0.1559   -0.0505 N   0  0  0  0  0  0  0  0  0  0  0  0
    4.9641   -0.4485   -1.0094 C   0  0  0  0  0  0  0  0  0  0  0  0
    3.6270   -0.5257   -0.9762 N   0  0  0  0  0  0  0  0  0  0  0  0
    5.6151   -1.0495   -2.0782 N   0  0  0  0  0  0  0  0  0  0  0  0
    4.9775   -1.6653   -3.1631 C   0  0  0  0  0  0  0  0  0  0  0  0
    5.0808   -3.0371   -3.3981 C   0  0  0  0  0  0  0  0  0  0  0  0
    4.2941   -3.6465   -4.3891 C   0  0  0  0  0  0  0  0  0  0  0  0
    3.4136   -2.8927   -5.1836 C   0  0  0  0  0  0  0  0  0  0  0  0
    3.3359   -1.5143   -4.9614 C   0  0  0  0  0  0  0  0  0  0  0  0
    4.1022   -0.9163   -3.9614 C   0  0  0  0  0  0  0  0  0  0  0  0
    2.5500   -3.5138   -6.2452 C   0  0  0  0  0  0  0  0  0  0  0  0
    4.4105   -5.3626   -4.5740 Cl  0  0  0  0  0  0  0  0  0  0  0  0
   -1.0194    2.4582    0.2067 N   0  0  0  0  0  0  0  0  0  0  0  0
   -1.1788    3.4475   -0.8704 C   0  0  0  0  0  0  0  0  0  0  0  0
   -1.5182    4.8055   -0.1985 C   0  0  0  0  0  0  0  0  0  0  0  0
   -2.6556    4.7860    0.7554 N   0  0  0  0  0  0  0  0  0  0  0  0
   -2.4601    3.6945    1.7280 C   0  0  0  0  0  0  0  0  0  0  0  0
   -2.1556    2.3315    1.0892 C   0  0  0  0  0  0  0  0  0  0  0  0
   -3.9968    4.8149    0.1395 C   0  0  0  0  0  0  0  0  0  0  0  0
   -4.5596    3.6185   -0.6772 C   0  0  0  0  0  0  0  0  0  0  0  0
   -5.0281    2.4722    0.1083 N   0  0  0  0  0  0  0  0  0  0  0  0
    1.3989    2.1460   -0.0832 H   0  0  0  0  0  0  0  0  0  0  0  0
   -1.1757   -2.0000   -0.0076 H   0  0  0  0  0  0  0  0  0  0  0  0
    1.3158   -2.1555   -0.0135 H   0  0  0  0  0  0  0  0  0  0  0  0
    3.1008    1.1795    1.8752 H   0  0  0  0  0  0  0  0  0  0  0  0
    5.5980    1.2206    1.7224 H   0  0  0  0  0  0  0  0  0  0  0  0
    6.6089   -1.1454   -1.9446 H   0  0  0  0  0  0  0  0  0  0  0  0
    5.7214   -3.6499   -2.7694 H   0  0  0  0  0  0  0  0  0  0  0  0
    2.6612   -0.8910   -5.5433 H   0  0  0  0  0  0  0  0  0  0  0  0
    4.0000    0.1523   -3.7834 H   0  0  0  0  0  0  0  0  0  0  0  0
    3.1705   -3.9991   -7.0047 H   0  0  0  0  0  0  0  0  0  0  0  0
    1.8632   -4.2453   -5.8073 H   0  0  0  0  0  0  0  0  0  0  0  0
    1.9395   -2.7605   -6.7562 H   0  0  0  0  0  0  0  0  0  0  0  0
   -0.2669    3.5552   -1.4696 H   0  0  0  0  0  0  0  0  0  0  0  0
   -1.9544    3.1545   -1.5812 H   0  0  0  0  0  0  0  0  0  0  0  0
   -0.6252    5.0865    0.3823 H   0  0  0  0  0  0  0  0  0  0  0  0
   -1.6409    5.6069   -0.9352 H   0  0  0  0  0  0  0  0  0  0  0  0
   -1.5997    3.9610    2.3609 H   0  0  0  0  0  0  0  0  0  0  0  0
   -3.3095    3.6300    2.4158 H   0  0  0  0  0  0  0  0  0  0  0  0
   -2.9300    1.9506    0.4533 H   0  0  0  0  0  0  0  0  0  0  0  0
   -2.0277    1.5832    1.8796 H   0  0  0  0  0  0  0  0  0  0  0  0
   -4.7181    5.0328    0.9384 H   0  0  0  0  0  0  0  0  0  0  0  0
   -4.0344    5.6980   -0.5112 H   0  0  0  0  0  0  0  0  0  0  0  0
   -5.4320    3.9534   -1.2422 H   0  0  0  0  0  0  0  0  0  0  0  0
   -3.8498    3.2986   -1.4386 H   0  0  0  0  0  0  0  0  0  0  0  0
   -4.6172    1.6186   -0.2872 H   0  0  0  0  0  0  0  0  0  0  0  0
   -4.6678    2.5326    1.0595 H   0  0  0  0  0  0  0  0  0  0  0  0
  1  2  2  0  0  0  0
  1  6  1  0  0  0  0
  1  7  1  0  0  0  0
  2  3  1  0  0  0  0
  2 31  1  0  0  0  0
  3  4  2  0  0  0  0
  3 22  1  0  0  0  0
  4  5  1  0  0  0  0
  5  6  2  0  0  0  0
  5 32  1  0  0  0  0
  6 33  1  0  0  0  0
  7  8  2  0  0  0  0
  7 12  1  0  0  0  0
  8  9  1  0  0  0  0
  8 34  1  0  0  0  0
  9 10  2  0  0  0  0
  9 35  1  0  0  0  0
 10 11  1  0  0  0  0
 11 12  2  0  0  0  0
 11 13  1  0  0  0  0
 13 14  1  0  0  0  0
 13 36  1  0  0  0  0
 14 15  2  0  0  0  0
 14 19  1  0  0  0  0
 15 16  1  0  0  0  0
 15 37  1  0  0  0  0
 16 17  2  0  0  0  0
 16 21  1  0  0  0  0
 17 18  1  0  0  0  0
 17 20  1  0  0  0  0
 18 19  2  0  0  0  0
 18 38  1  0  0  0  0
 19 39  1  0  0  0  0
 20 40  1  0  0  0  0
 20 41  1  0  0  0  0
 20 42  1  0  0  0  0
 22 23  1  0  0  0  0
 22 27  1  0  0  0  0
 23 24  1  0  0  0  0
 23 43  1  0  0  0  0
 23 44  1  0  0  0  0
 24 25  1  0  0  0  0
 24 45  1  0  0  0  0
 24 46  1  0  0  0  0
 25 26  1  0  0  0  0
 25 28  1  0  0  0  0
 26 27  1  0  0  0  0
 26 47  1  0  0  0  0
 26 48  1  0  0  0  0
 27 49  1  0  0  0  0
 27 50  1  0  0  0  0
 28 29  1  0  0  0  0
 28 51  1  0  0  0  0
 28 52  1  0  0  0  0
 29 30  1  0  0  0  0
 29 53  1  0  0  0  0
 29 54  1  0  0  0  0
 30 55  1  0  0  0  0
 30 56  1  0  0  0  0
M  END
>  <DRUGBANK_ID>
DB03916

>  <SECONDARY_ACCESSION_NUMBERS>
EXPT03239

>  <COMMON_NAME>
4-{2-[4-(2-Aminoethyl)Piperazin-1-Yl]Pyridin-4-Yl}-N-(3-Chloro-4-Methylphenyl)Pyrimidin-2-Amine

$$$$
