
 OpenBabel10282417153D

 48 50  0  0  1  0  0  0  0  0999 V2000
    1.0703   -0.0710   -0.0045 Cl  0  0  0  0  0  0  0  0  0  0  0  0
    1.1220    1.4070    0.0500 O   0  0  0  0  0  0  0  0  0  0  0  0
    1.1040   -1.4270   -0.0500 O   0  0  0  0  0  0  0  0  0  0  0  0
    6.9786   -0.5569    2.0350 O   0  0  0  0  0  0  0  0  0  0  0  0
    8.5540   -3.4004   -1.5977 O   0  0  0  0  0  0  0  0  0  0  0  0
    8.3759   -1.6921   -3.1488 O   0  0  0  0  0  0  0  0  0  0  0  0
    4.7038    0.6555   -0.2201 N   0  0  0  0  0  0  0  0  0  0  0  0
    2.2640    0.6590   -0.3120 C   0  0  1  0  0  0  0  0  0  0  0  0
    3.4997    1.4106    0.1554 C   0  0  0  0  0  0  0  0  0  0  0  0
    2.2560   -0.6500    0.3180 C   0  0  0  0  0  0  0  0  0  0  0  0
    5.8988    1.3823    0.2320 C   0  0  0  0  0  0  0  0  0  0  0  0
    5.8525    1.5436    1.7427 C   0  0  0  0  0  0  0  0  0  0  0  0
   -0.0440    0.6900    0.0160 C   0  0  0  0  0  0  0  0  0  0  0  0
   -0.0560   -0.7010   -0.0280 C   0  0  0  0  0  0  0  0  0  0  0  0
    5.8155    0.1725    2.3977 C   0  0  0  0  0  0  0  0  0  0  0  0
   -1.2360    1.3820    0.0540 C   0  0  0  0  0  0  0  0  0  0  0  0
   -1.2560   -1.3740   -0.0570 C   0  0  0  0  0  0  0  0  0  0  0  0
    7.2437   -0.8367    0.6683 C   0  0  0  0  0  0  0  0  0  0  0  0
   -2.4530    0.7070    0.0320 C   0  0  0  0  0  0  0  0  0  0  0  0
   -2.4390   -0.6870   -0.0250 C   0  0  0  0  0  0  0  0  0  0  0  0
    8.0465   -2.2755   -1.0018 C   0  0  0  0  0  0  0  0  0  0  0  0
    7.7224   -2.0997    0.3140 C   0  0  0  0  0  0  0  0  0  0  0  0
    7.9236   -1.2605   -1.9288 C   0  0  0  0  0  0  0  0  0  0  0  0
    7.0861    0.1871   -0.2594 C   0  0  0  0  0  0  0  0  0  0  0  0
    7.4476   -0.0227   -1.6050 C   0  0  0  0  0  0  0  0  0  0  0  0
    8.6482   -3.0927   -2.9872 C   0  0  0  0  0  0  0  0  0  0  0  0
    2.4003   -0.0710   -0.0045 H   0  0  0  0  0  0  0  0  0  0  0  0
    4.6789   -0.2646    0.2195 H   0  0  0  0  0  0  0  0  0  0  0  0
    2.2774    0.5348   -1.3747 H   0  0  0  0  0  0  0  0  0  0  0  0
    3.5258    2.3758   -0.3057 H   0  0  0  0  0  0  0  0  0  0  0  0
    3.4671    1.5241    1.2189 H   0  0  0  0  0  0  0  0  0  0  0  0
    3.1256   -1.1777   -0.0139 H   0  0  0  0  0  0  0  0  0  0  0  0
    2.2583   -0.5204    1.3801 H   0  0  0  0  0  0  0  0  0  0  0  0
    6.7752    0.8327   -0.0413 H   0  0  0  0  0  0  0  0  0  0  0  0
    5.9249    2.3475   -0.2291 H   0  0  0  0  0  0  0  0  0  0  0  0
    6.7224    2.0727    2.0717 H   0  0  0  0  0  0  0  0  0  0  0  0
    4.9761    2.0933    2.0160 H   0  0  0  0  0  0  0  0  0  0  0  0
    5.7829    0.2860    3.4612 H   0  0  0  0  0  0  0  0  0  0  0  0
    4.9456   -0.3566    2.0687 H   0  0  0  0  0  0  0  0  0  0  0  0
   -1.2253    2.4509    0.1010 H   0  0  0  0  0  0  0  0  0  0  0  0
   -1.2641   -2.4429   -0.1049 H   0  0  0  0  0  0  0  0  0  0  0  0
   -3.3778    1.2446    0.0582 H   0  0  0  0  0  0  0  0  0  0  0  0
   -3.3638   -1.2249   -0.0439 H   0  0  0  0  0  0  0  0  0  0  0  0
    7.8293   -2.8855    1.0323 H   0  0  0  0  0  0  0  0  0  0  0  0
    6.6908    1.1327    0.0481 H   0  0  0  0  0  0  0  0  0  0  0  0
    7.3537    0.7511   -2.3379 H   0  0  0  0  0  0  0  0  0  0  0  0
    9.6251   -3.3273   -3.3554 H   0  0  0  0  0  0  0  0  0  0  0  0
    7.9323   -3.6680   -3.5362 H   0  0  0  0  0  0  0  0  0  0  0  0
  1 27  1  0  0  0  0
  2  8  1  0  0  0  0
  2 13  1  0  0  0  0
  3 10  1  0  0  0  0
  3 14  1  0  0  0  0
  4 15  1  0  0  0  0
  4 18  1  0  0  0  0
  5 21  1  0  0  0  0
  5 26  1  0  0  0  0
  6 23  1  0  0  0  0
  6 26  1  0  0  0  0
  7  9  1  0  0  0  0
  7 11  1  0  0  0  0
  7 28  1  0  0  0  0
  8  9  1  0  0  0  0
  8 10  1  0  0  0  0
  8 29  1  6  0  0  0
  9 30  1  0  0  0  0
  9 31  1  0  0  0  0
 10 32  1  0  0  0  0
 10 33  1  0  0  0  0
 11 12  1  0  0  0  0
 11 34  1  0  0  0  0
 11 35  1  0  0  0  0
 12 15  1  0  0  0  0
 12 36  1  0  0  0  0
 12 37  1  0  0  0  0
 13 14  1  0  0  0  0
 13 16  2  0  0  0  0
 14 17  2  0  0  0  0
 15 38  1  0  0  0  0
 15 39  1  0  0  0  0
 16 19  1  0  0  0  0
 16 40  1  0  0  0  0
 17 20  1  0  0  0  0
 17 41  1  0  0  0  0
 18 22  2  0  0  0  0
 18 24  1  0  0  0  0
 19 20  2  0  0  0  0
 19 42  1  0  0  0  0
 20 43  1  0  0  0  0
 21 22  1  0  0  0  0
 21 23  2  0  0  0  0
 22 44  1  0  0  0  0
 23 25  1  0  0  0  0
 24 25  2  0  0  0  0
 24 45  1  0  0  0  0
 25 46  1  0  0  0  0
 26 47  1  0  0  0  0
 26 48  1  0  0  0  0
M  END
>  <DRUGBANK_ID>
DB05339

>  <COMMON_NAME>
MN-305

>  <UNII>
F0WKFYPQL8

$$$$
