
 OpenBabel10282417203D

 55 58  0  0  1  0  0  0  0  0999 V2000
   -2.8334   -1.0445    2.4299 C   0  0  0  0  0  0  0  0  0  0  0  0
   -2.4261   -1.7937    1.2290 C   0  0  2  0  0  0  0  0  0  0  0  0
   -2.2333   -3.6471    1.7453 C   0  0  0  0  0  0  0  0  0  0  0  0
   -2.3686   -3.5385    0.3638 C   0  0  1  0  0  0  0  0  0  0  0  0
   -3.1798   -3.9212   -0.7613 C   0  0  2  0  0  0  0  0  0  0  0  0
   -4.4738   -4.6826   -0.3829 C   0  0  0  0  0  0  0  0  0  0  0  0
   -5.3130   -4.7015   -1.6348 C   0  0  1  0  0  0  0  0  0  0  0  0
   -4.4634   -5.3118   -2.7280 C   0  0  0  0  0  0  0  0  0  0  0  0
   -4.8779   -6.3609   -3.4398 C   0  0  0  0  0  0  0  0  0  0  0  0
   -4.0602   -6.9040   -4.5322 C   0  0  0  0  0  0  0  0  0  0  0  0
   -4.4240   -7.9047   -5.1515 O   0  0  0  0  0  0  0  0  0  0  0  0
   -2.8029   -6.2339   -4.9220 C   0  0  0  0  0  0  0  0  0  0  0  0
   -2.2627   -5.4163   -4.0143 C   0  0  0  0  0  0  0  0  0  0  0  0
   -3.1240   -4.6710   -3.0241 C   0  0  2  0  0  0  0  0  0  0  0  0
   -2.2542   -4.5943   -1.7229 C   0  0  1  0  0  0  0  0  0  0  0  0
   -0.7549   -3.9984   -1.8286 C   0  0  2  0  0  0  0  0  0  0  0  0
    0.0037   -3.5889   -0.5604 C   0  0  0  0  0  0  0  0  0  0  0  0
   -0.8646   -2.7369    0.3383 C   0  0  2  0  0  0  0  0  0  0  0  0
   -1.2580   -1.2875    0.2188 C   0  0  1  0  0  0  0  0  0  0  0  0
   -1.1466   -0.4625   -1.2878 C   0  0  0  0  0  0  0  0  0  0  0  0
   -0.1496    0.1912   -1.6093 O   0  0  0  0  0  0  0  0  0  0  0  0
   -2.1934   -0.6978   -2.4320 C   0  0  0  0  0  0  0  0  0  0  0  0
   -3.2289   -1.1708   -2.1146 O   0  0  0  0  0  0  0  0  0  0  0  0
   -1.6614   -0.7118   -3.7017 O   0  0  0  0  0  0  0  0  0  0  0  0
   -0.0174   -2.6600    1.8281 C   0  0  0  0  0  0  0  0  0  0  0  0
   -0.8893   -2.7619   -2.4277 O   0  0  0  0  0  0  0  0  0  0  0  0
   -3.5558   -3.3604   -3.6883 C   0  0  0  0  0  0  0  0  0  0  0  0
   -6.4504   -5.4002   -1.3961 F   0  0  0  0  0  0  0  0  0  0  0  0
   -2.1693   -0.2044    2.5760 H   0  0  0  0  0  0  0  0  0  0  0  0
   -2.8377   -1.7486    3.2609 H   0  0  0  0  0  0  0  0  0  0  0  0
   -3.8622   -0.7096    2.2669 H   0  0  0  0  0  0  0  0  0  0  0  0
   -3.2925   -1.6007    0.5473 H   0  0  0  0  0  0  0  0  0  0  0  0
   -3.0080   -4.3535    2.0983 H   0  0  0  0  0  0  0  0  0  0  0  0
   -1.4173   -4.4144    1.5066 H   0  0  0  0  0  0  0  0  0  0  0  0
   -3.3949   -3.2518    0.7825 H   0  0  0  0  0  0  0  0  0  0  0  0
   -3.6078   -2.9895   -1.1307 H   0  0  0  0  0  0  0  0  0  0  0  0
   -4.2537   -5.6740    0.0198 H   0  0  0  0  0  0  0  0  0  0  0  0
   -5.0608   -4.1638    0.3984 H   0  0  0  0  0  0  0  0  0  0  0  0
   -5.6278   -3.6730   -1.8712 H   0  0  0  0  0  0  0  0  0  0  0  0
   -5.8450   -6.7991   -3.2637 H   0  0  0  0  0  0  0  0  0  0  0  0
   -2.9020   -5.8805   -5.9459 H   0  0  0  0  0  0  0  0  0  0  0  0
   -1.4926   -5.9588   -3.4519 H   0  0  0  0  0  0  0  0  0  0  0  0
   -2.0873   -5.5941   -1.3111 H   0  0  0  0  0  0  0  0  0  0  0  0
   -0.1098   -4.5628   -2.4948 H   0  0  0  0  0  0  0  0  0  0  0  0
    0.9058   -2.9953   -0.7637 H   0  0  0  0  0  0  0  0  0  0  0  0
    0.3277   -4.4937   -0.0311 H   0  0  0  0  0  0  0  0  0  0  0  0
   -0.6341   -0.5946    0.8040 H   0  0  0  0  0  0  0  0  0  0  0  0
   -1.9171   -1.4651   -4.2832 H   0  0  0  0  0  0  0  0  0  0  0  0
    0.8877   -2.0592    1.7462 H   0  0  0  0  0  0  0  0  0  0  0  0
   -0.5968   -2.1733    2.6374 H   0  0  0  0  0  0  0  0  0  0  0  0
    0.2248   -3.6499    2.2269 H   0  0  0  0  0  0  0  0  0  0  0  0
   -1.6094   -2.4697   -1.8500 H   0  0  0  0  0  0  0  0  0  0  0  0
   -4.2859   -2.7536   -3.1390 H   0  0  0  0  0  0  0  0  0  0  0  0
   -2.6371   -2.8447   -3.7796 H   0  0  0  0  0  0  0  0  0  0  0  0
   -3.9641   -3.4051   -4.7031 H   0  0  0  0  0  0  0  0  0  0  0  0
  1 29  1  0  0  0  0
  1 30  1  0  0  0  0
  1 31  1  0  0  0  0
  2  1  1  0  0  0  0
  2  3  1  0  0  0  0
  2 19  1  0  0  0  0
  2 32  1  6  0  0  0
  3 33  1  0  0  0  0
  3 34  1  0  0  0  0
  4  3  1  0  0  0  0
  4  5  1  0  0  0  0
  4 18  1  0  0  0  0
  4 35  1  6  0  0  0
  5  6  1  0  0  0  0
  5 15  1  0  0  0  0
  5 36  1  6  0  0  0
  6  7  1  0  0  0  0
  6 37  1  0  0  0  0
  6 38  1  0  0  0  0
  7  8  1  0  0  0  0
  7 28  1  0  0  0  0
  7 39  1  6  0  0  0
  8  9  2  0  0  0  0
  8 14  1  0  0  0  0
  9 10  1  0  0  0  0
  9 40  1  0  0  0  0
 10 11  2  0  0  0  0
 10 12  1  0  0  0  0
 12 13  2  0  0  0  0
 12 41  1  0  0  0  0
 13 14  1  0  0  0  0
 13 42  1  0  0  0  0
 14 27  1  6  0  0  0
 15 14  1  0  0  0  0
 15 16  1  0  0  0  0
 15 43  1  1  0  0  0
 16 17  1  0  0  0  0
 16 26  1  0  0  0  0
 16 44  1  6  0  0  0
 17 18  1  0  0  0  0
 17 45  1  0  0  0  0
 17 46  1  0  0  0  0
 18 19  1  0  0  0  0
 18 25  1  6  0  0  0
 19 20  1  0  0  0  0
 19 47  1  1  0  0  0
 20 21  2  0  0  0  0
 20 22  1  0  0  0  0
 22 23  2  0  0  0  0
 22 24  1  0  0  0  0
 24 48  1  0  0  0  0
 25 49  1  0  0  0  0
 25 50  1  0  0  0  0
 25 51  1  0  0  0  0
 26 52  1  0  0  0  0
 27 53  1  0  0  0  0
 27 54  1  0  0  0  0
 27 55  1  0  0  0  0
M  END
>  <DRUGBANK_ID>
DB13223

>  <COMMON_NAME>
Fluocortin

>  <CAS_NUMBER>
33124-50-4

>  <UNII>
03837V0H1Y

>  <SYNONYMS>
Fluocortin; Fluocortina

$$$$
