
 OpenBabel10282417213D

 39 39  0  0  0  0  0  0  0  0999 V2000
    0.9410   -0.2861   -0.0993 C   0  0  0  0  0  0  0  0  0  0  0  0
    0.3257   -1.0999   -1.1444 N   0  0  0  0  0  0  0  0  0  0  0  0
    0.2443    0.5966    0.7681 O   0  0  0  0  0  0  0  0  0  0  0  0
    2.1274   -0.3814    0.0872 O   0  0  0  0  0  0  0  0  0  0  0  0
   -0.6954   -0.7982   -2.1738 C   0  0  3  0  0  0  0  0  0  0  0  0
    0.7080   -2.4870   -1.2251 C   0  0  0  0  0  0  0  0  0  0  0  0
   -0.4713   -0.8469   -3.6945 C   0  0  0  0  0  0  0  0  0  0  0  0
   -1.1542    0.7927    1.3232 C   0  0  3  0  0  0  0  0  0  0  0  0
   -1.7938    1.2259   -4.1355 O   0  0  0  0  0  0  0  0  0  0  0  0
   -1.6897   -0.1738   -4.4034 C   0  0  0  0  0  0  0  0  0  0  0  0
   -2.0380   -1.5286   -1.7813 C   0  0  0  0  0  0  0  0  0  0  0  0
   -1.9871    1.7398    0.4075 C   0  0  0  0  0  0  0  0  0  0  0  0
   -1.7257   -0.6040    1.5999 C   0  0  0  0  0  0  0  0  0  0  0  0
   -0.5337   -3.3664   -0.9594 C   0  0  0  0  0  0  0  0  0  0  0  0
   -1.6721    1.2437   -0.9043 C   0  0  0  0  0  0  0  0  0  0  0  0
   -1.7867   -3.0170   -1.7905 C   0  0  0  0  0  0  0  0  0  0  0  0
   -0.6004    0.2599   -2.2263 H   0  0  0  0  0  0  0  0  0  0  0  0
    1.5160   -2.7214   -0.5284 H   0  0  0  0  0  0  0  0  0  0  0  0
    1.0733   -2.6552   -2.2429 H   0  0  0  0  0  0  0  0  0  0  0  0
    0.4267   -0.2607   -3.9416 H   0  0  0  0  0  0  0  0  0  0  0  0
   -0.3178   -1.8661   -4.0420 H   0  0  0  0  0  0  0  0  0  0  0  0
   -1.0976    1.3298    2.2764 H   0  0  0  0  0  0  0  0  0  0  0  0
   -2.4763    1.3900   -3.4622 H   0  0  0  0  0  0  0  0  0  0  0  0
   -1.5862   -0.2676   -5.4804 H   0  0  0  0  0  0  0  0  0  0  0  0
   -2.6430   -0.6449   -4.1508 H   0  0  0  0  0  0  0  0  0  0  0  0
   -2.9050   -1.2400   -2.3799 H   0  0  0  0  0  0  0  0  0  0  0  0
   -2.4330   -1.3488   -0.7761 H   0  0  0  0  0  0  0  0  0  0  0  0
   -3.0739    1.6749    0.4909 H   0  0  0  0  0  0  0  0  0  0  0  0
   -1.6362    2.7712    0.3302 H   0  0  0  0  0  0  0  0  0  0  0  0
   -1.4022   -0.9624    2.5801 H   0  0  0  0  0  0  0  0  0  0  0  0
   -2.8164   -0.6486    1.5336 H   0  0  0  0  0  0  0  0  0  0  0  0
   -1.3125   -1.3465    0.9196 H   0  0  0  0  0  0  0  0  0  0  0  0
   -0.7953   -3.2783    0.1029 H   0  0  0  0  0  0  0  0  0  0  0  0
   -0.2841   -4.4103   -1.1454 H   0  0  0  0  0  0  0  0  0  0  0  0
   -1.6138    0.2136   -0.6350 H   0  0  0  0  0  0  0  0  0  0  0  0
   -2.4175    1.2537   -1.6779 H   0  0  0  0  0  0  0  0  0  0  0  0
   -0.6760    1.6168   -1.1834 H   0  0  0  0  0  0  0  0  0  0  0  0
   -2.6652   -3.5271   -1.3735 H   0  0  0  0  0  0  0  0  0  0  0  0
   -1.6876   -3.3386   -2.8286 H   0  0  0  0  0  0  0  0  0  0  0  0
  2  1  1  0  0  0  0
  3  1  1  0  0  0  0
  4  1  2  0  0  0  0
  5  2  1  0  0  0  0
  5 17  1  0  0  0  0
  6  2  1  0  0  0  0
  6 18  1  0  0  0  0
  6 19  1  0  0  0  0
  7  5  1  0  0  0  0
  7 20  1  0  0  0  0
  7 21  1  0  0  0  0
  8  3  1  0  0  0  0
  8 22  1  0  0  0  0
  9 10  1  0  0  0  0
  9 23  1  0  0  0  0
 10  7  1  0  0  0  0
 10 24  1  0  0  0  0
 10 25  1  0  0  0  0
 11  5  1  0  0  0  0
 11 26  1  0  0  0  0
 11 27  1  0  0  0  0
 12  8  1  0  0  0  0
 12 28  1  0  0  0  0
 12 29  1  0  0  0  0
 13  8  1  0  0  0  0
 13 30  1  0  0  0  0
 13 31  1  0  0  0  0
 13 32  1  0  0  0  0
 14  6  1  0  0  0  0
 14 33  1  0  0  0  0
 14 34  1  0  0  0  0
 15 12  1  0  0  0  0
 15 35  1  0  0  0  0
 15 36  1  0  0  0  0
 15 37  1  0  0  0  0
 16 14  1  0  0  0  0
 16 11  1  0  0  0  0
 16 38  1  0  0  0  0
 16 39  1  0  0  0  0
M  END
>  <DRUGBANK_ID>
DB14074

>  <COMMON_NAME>
Icaridin

>  <CAS_NUMBER>
119515-38-7

>  <UNII>
N51GQX0837

>  <SYNONYMS>
Icaridin; Icaridina; Icaridinum; Picaridin; Pikaridin; Propidine

$$$$
