
 OpenBabel10282417223D

 15 14  0  0  0  0  0  0  0  0999 V2000
    1.1086    0.2459    0.0132 C   0  0  0  0  0  0  0  0  0  0  0  0
    1.2309    0.6923   -1.3135 O   0  0  0  0  0  0  0  0  0  0  0  0
    0.7757    2.1318   -1.8484 P   0  0  3  0  0  0  0  0  0  0  0  0
    0.7797    1.8038   -3.4563 N   0  0  0  0  0  0  0  0  0  0  0  0
   -0.5326    2.6382   -1.3008 O   0  0  0  0  0  0  0  0  0  0  0  0
    2.2924    3.5497   -1.7861 S   0  0  0  0  0  0  0  0  0  0  0  0
    2.1245    4.7137   -0.4369 C   0  0  0  0  0  0  0  0  0  0  0  0
    0.5817   -0.7160    0.0202 H   0  0  0  0  0  0  0  0  0  0  0  0
    0.5855    0.9470    0.6652 H   0  0  0  0  0  0  0  0  0  0  0  0
    2.1186    0.0654    0.3878 H   0  0  0  0  0  0  0  0  0  0  0  0
    0.8278    2.6630   -3.9896 H   0  0  0  0  0  0  0  0  0  0  0  0
    1.6667    1.3375   -3.6344 H   0  0  0  0  0  0  0  0  0  0  0  0
    1.1146    4.7758   -0.0271 H   0  0  0  0  0  0  0  0  0  0  0  0
    2.8243    4.4161    0.3462 H   0  0  0  0  0  0  0  0  0  0  0  0
    2.4211    5.7140   -0.7775 H   0  0  0  0  0  0  0  0  0  0  0  0
  1  2  1  0  0  0  0
  1  8  1  0  0  0  0
  1  9  1  0  0  0  0
  1 10  1  0  0  0  0
  2  3  1  0  0  0  0
  3  4  1  0  0  0  0
  3  5  2  0  0  0  0
  3  6  1  0  0  0  0
  4 11  1  0  0  0  0
  4 12  1  0  0  0  0
  6  7  1  0  0  0  0
  7 13  1  0  0  0  0
  7 14  1  0  0  0  0
  7 15  1  0  0  0  0
M  END
>  <DRUGBANK_ID>
DB14972

>  <COMMON_NAME>
Methamidophos

>  <CAS_NUMBER>
10265-92-6

>  <UNII>
8Z083FM94W

>  <SYNONYMS>
MONITOR

$$$$
