
 OpenBabel10282417203D

 42 45  0  0  0  0  0  0  0  0999 V2000
    1.3997   -0.2290    0.0132 C   0  0  0  0  0  0  0  0  0  0  0  0
    0.5230   -1.3124    0.0100 C   0  0  0  0  0  0  0  0  0  0  0  0
   -0.8567   -1.0968   -0.0331 C   0  0  0  0  0  0  0  0  0  0  0  0
   -1.3708    0.2066   -0.0626 C   0  0  0  0  0  0  0  0  0  0  0  0
   -0.4740    1.2850   -0.0099 C   0  0  0  0  0  0  0  0  0  0  0  0
    0.9032    1.0713    0.0026 C   0  0  0  0  0  0  0  0  0  0  0  0
   -2.8096    0.4619   -0.1769 C   0  0  0  0  0  0  0  0  0  0  0  0
   -3.7151   -0.0307    0.7692 C   0  0  0  0  0  0  0  0  0  0  0  0
   -5.0782    0.2655    0.6720 C   0  0  0  0  0  0  0  0  0  0  0  0
   -5.5598    1.0603   -0.3759 C   0  0  0  0  0  0  0  0  0  0  0  0
   -4.6509    1.5671   -1.3117 C   0  0  0  0  0  0  0  0  0  0  0  0
   -3.2971    1.2485   -1.2308 C   0  0  0  0  0  0  0  0  0  0  0  0
   -6.9879    1.3476   -0.5225 C   0  0  0  0  0  0  0  0  0  0  0  0
   -7.7093    1.9842    0.4926 C   0  0  0  0  0  0  0  0  0  0  0  0
   -9.0630    2.2890    0.3197 C   0  0  0  0  0  0  0  0  0  0  0  0
   -9.7199    1.9610   -0.8735 C   0  0  0  0  0  0  0  0  0  0  0  0
   -8.9879    1.3462   -1.8973 C   0  0  0  0  0  0  0  0  0  0  0  0
   -7.6464    1.0169   -1.7147 C   0  0  0  0  0  0  0  0  0  0  0  0
  -11.1484    2.2303   -1.0626 C   0  0  0  0  0  0  0  0  0  0  0  0
  -11.6635    3.5281   -0.9583 C   0  0  0  0  0  0  0  0  0  0  0  0
  -13.0135    3.7785   -1.2132 C   0  0  0  0  0  0  0  0  0  0  0  0
  -13.8590    2.7342   -1.5850 C   0  0  0  0  0  0  0  0  0  0  0  0
  -13.3649    1.4373   -1.6837 C   0  0  0  0  0  0  0  0  0  0  0  0
  -12.0231    1.1838   -1.4006 C   0  0  0  0  0  0  0  0  0  0  0  0
    2.4731   -0.3974    0.0272 H   0  0  0  0  0  0  0  0  0  0  0  0
    0.9111   -2.3270    0.0269 H   0  0  0  0  0  0  0  0  0  0  0  0
   -1.5276   -1.9522   -0.0624 H   0  0  0  0  0  0  0  0  0  0  0  0
   -0.8531    2.3051    0.0203 H   0  0  0  0  0  0  0  0  0  0  0  0
    1.5802    1.9201   -0.0011 H   0  0  0  0  0  0  0  0  0  0  0  0
   -3.3642   -0.6396    1.5990 H   0  0  0  0  0  0  0  0  0  0  0  0
   -5.7604   -0.1331    1.4183 H   0  0  0  0  0  0  0  0  0  0  0  0
   -4.9924    2.2232   -2.1101 H   0  0  0  0  0  0  0  0  0  0  0  0
   -2.6237    1.6207   -1.9992 H   0  0  0  0  0  0  0  0  0  0  0  0
   -7.2190    2.2582    1.4242 H   0  0  0  0  0  0  0  0  0  0  0  0
   -9.6003    2.7794    1.1269 H   0  0  0  0  0  0  0  0  0  0  0  0
   -9.4584    1.1244   -2.8531 H   0  0  0  0  0  0  0  0  0  0  0  0
   -7.1182    0.4979   -2.5111 H   0  0  0  0  0  0  0  0  0  0  0  0
  -11.0082    4.3575   -0.7005 H   0  0  0  0  0  0  0  0  0  0  0  0
  -13.3980    4.7911   -1.1379 H   0  0  0  0  0  0  0  0  0  0  0  0
  -14.9057    2.9327   -1.7991 H   0  0  0  0  0  0  0  0  0  0  0  0
  -14.0156    0.6223   -1.9881 H   0  0  0  0  0  0  0  0  0  0  0  0
  -11.6551    0.1609   -1.4503 H   0  0  0  0  0  0  0  0  0  0  0  0
  1  2  2  0  0  0  0
  1  6  1  0  0  0  0
  1 25  1  0  0  0  0
  2  3  1  0  0  0  0
  2 26  1  0  0  0  0
  3  4  2  0  0  0  0
  3 27  1  0  0  0  0
  4  5  1  0  0  0  0
  4  7  1  0  0  0  0
  5  6  2  0  0  0  0
  5 28  1  0  0  0  0
  6 29  1  0  0  0  0
  7  8  2  0  0  0  0
  7 12  1  0  0  0  0
  8  9  1  0  0  0  0
  8 30  1  0  0  0  0
  9 10  2  0  0  0  0
  9 31  1  0  0  0  0
 10 11  1  0  0  0  0
 10 13  1  0  0  0  0
 11 12  2  0  0  0  0
 11 32  1  0  0  0  0
 12 33  1  0  0  0  0
 13 14  2  0  0  0  0
 13 18  1  0  0  0  0
 14 15  1  0  0  0  0
 14 34  1  0  0  0  0
 15 16  2  0  0  0  0
 15 35  1  0  0  0  0
 16 17  1  0  0  0  0
 16 19  1  0  0  0  0
 17 18  2  0  0  0  0
 17 36  1  0  0  0  0
 18 37  1  0  0  0  0
 19 20  2  0  0  0  0
 19 24  1  0  0  0  0
 20 21  1  0  0  0  0
 20 38  1  0  0  0  0
 21 22  2  0  0  0  0
 21 39  1  0  0  0  0
 22 23  1  0  0  0  0
 22 40  1  0  0  0  0
 23 24  2  0  0  0  0
 23 41  1  0  0  0  0
 24 42  1  0  0  0  0
M  END
>  <DRUGBANK_ID>
DB12794

>  <COMMON_NAME>
p-Quaterphenyl

>  <CAS_NUMBER>
135-70-6

>  <UNII>
G8AQM6D0RK

>  <SYNONYMS>
PQP

$$$$
