488
 OpenBabel10282417103D

 33 33  0  0  0  0  0  0  0  0999 V2000
    1.0021   -0.0541    0.1161 N   0  0  0  0  0  0  0  0  0  0  0  0
    0.4454    2.9803    3.6073 N   0  0  0  0  0  0  0  0  0  0  0  0
   -2.3363   -0.7427    3.2939 N   0  0  0  0  0  0  0  0  0  0  0  0
    0.7624    1.4372    1.8818 N   0  0  0  0  0  0  0  0  0  0  0  0
   -0.7146   -0.3675    1.6529 N   0  0  0  0  0  0  0  0  0  0  0  0
   -0.9532    1.1269    3.4225 N   0  0  0  0  0  0  0  0  0  0  0  0
    0.3278    0.3518    1.2443 C   0  0  0  0  0  0  0  0  0  0  0  0
    0.0754    1.8214    2.9507 C   0  0  0  0  0  0  0  0  0  0  0  0
   -1.3094    0.0230    2.7745 C   0  0  0  0  0  0  0  0  0  0  0  0
    0.2792   -0.5060   -1.0498 C   0  0  0  0  0  0  0  0  0  0  0  0
    2.4459   -0.0315    0.0915 C   0  0  0  0  0  0  0  0  0  0  0  0
   -0.2559    3.4345    4.7891 C   0  0  0  0  0  0  0  0  0  0  0  0
    1.5798    3.7427    3.1319 C   0  0  0  0  0  0  0  0  0  0  0  0
   -3.0254   -0.3599    4.5081 C   0  0  0  0  0  0  0  0  0  0  0  0
   -2.6692   -2.0057    2.6706 C   0  0  0  0  0  0  0  0  0  0  0  0
    0.5441    0.1216   -1.9103 H   0  0  0  0  0  0  0  0  0  0  0  0
    0.5494   -1.5373   -1.2998 H   0  0  0  0  0  0  0  0  0  0  0  0
   -0.8088   -0.4512   -0.9394 H   0  0  0  0  0  0  0  0  0  0  0  0
    2.8941    0.2882    1.0383 H   0  0  0  0  0  0  0  0  0  0  0  0
    2.8244   -1.0407   -0.1135 H   0  0  0  0  0  0  0  0  0  0  0  0
    2.8108    0.6277   -0.7027 H   0  0  0  0  0  0  0  0  0  0  0  0
    0.4327    3.4728    5.6408 H   0  0  0  0  0  0  0  0  0  0  0  0
   -0.6437    4.4471    4.6285 H   0  0  0  0  0  0  0  0  0  0  0  0
   -1.1037    2.8093    5.0853 H   0  0  0  0  0  0  0  0  0  0  0  0
    2.4966    3.1437    3.1452 H   0  0  0  0  0  0  0  0  0  0  0  0
    1.4093    4.1222    2.1186 H   0  0  0  0  0  0  0  0  0  0  0  0
    1.7606    4.6152    3.7728 H   0  0  0  0  0  0  0  0  0  0  0  0
   -4.0993   -0.2723    4.3077 H   0  0  0  0  0  0  0  0  0  0  0  0
   -2.8928   -1.1258    5.2811 H   0  0  0  0  0  0  0  0  0  0  0  0
   -2.7008    0.5936    4.9359 H   0  0  0  0  0  0  0  0  0  0  0  0
   -3.0205   -1.8570    1.6444 H   0  0  0  0  0  0  0  0  0  0  0  0
   -1.8144   -2.6913    2.6657 H   0  0  0  0  0  0  0  0  0  0  0  0
   -3.4777   -2.5097    3.2153 H   0  0  0  0  0  0  0  0  0  0  0  0
  1  7  1  0  0  0  0
  1 10  1  0  0  0  0
  1 11  1  0  0  0  0
  2  8  1  0  0  0  0
  2 12  1  0  0  0  0
  2 13  1  0  0  0  0
  3  9  1  0  0  0  0
  3 14  1  0  0  0  0
  3 15  1  0  0  0  0
  4  7  2  0  0  0  0
  4  8  1  0  0  0  0
  5  7  1  0  0  0  0
  5  9  2  0  0  0  0
  6  8  2  0  0  0  0
  6  9  1  0  0  0  0
 10 16  1  0  0  0  0
 10 17  1  0  0  0  0
 10 18  1  0  0  0  0
 11 19  1  0  0  0  0
 11 20  1  0  0  0  0
 11 21  1  0  0  0  0
 12 22  1  0  0  0  0
 12 23  1  0  0  0  0
 12 24  1  0  0  0  0
 13 25  1  0  0  0  0
 13 26  1  0  0  0  0
 13 27  1  0  0  0  0
 14 28  1  0  0  0  0
 14 29  1  0  0  0  0
 14 30  1  0  0  0  0
 15 31  1  0  0  0  0
 15 32  1  0  0  0  0
 15 33  1  0  0  0  0
M  END
>  <DRUGBANK_ID>
DB00488

>  <SECONDARY_ACCESSION_NUMBERS>
APRD00652

>  <COMMON_NAME>
Altretamine

>  <CAS_NUMBER>
645-05-6

>  <UNII>
Q8BIH59O7H

>  <SYNONYMS>
2,4,6-tris(dimethylamino)-1,3,5-triazine; 2,4,6-tris(dimethylamino)-s-triazine; Altretamin; Altretamina; Altretamine; Altr√©tamine; Altretaminum; Hexamethylmelamine; HMM

$$$$
