
 OpenBabel10282417123D

 51 51  0  0  0  0  0  0  0  0999 V2000
    1.2105    1.4185   -0.5038 C   0  0  2  0  0  0  0  0  0  0  0  0
    1.2808   -0.0831   -0.1345 C   0  0  1  0  0  0  0  0  0  0  0  0
    0.0124   -0.8672   -0.4920 C   0  0  2  0  0  0  0  0  0  0  0  0
   -1.3035   -0.1177   -0.2443 C   0  0  1  0  0  0  0  0  0  0  0  0
   -1.2963    1.3315   -0.7496 C   0  0  1  0  0  0  0  0  0  0  0  0
   -2.4850    2.0768   -0.0259 C   0  0  0  0  0  0  0  0  0  0  0  0
    2.2665    2.1815    1.6633 C   0  0  0  0  0  0  0  0  0  0  0  0
    1.0997    2.8064    2.4202 C   0  0  0  0  0  0  0  0  0  0  0  0
   -0.1504    1.9830    2.3473 C   0  0  0  0  0  0  0  0  0  0  0  0
   -0.0229    0.5465    2.8141 C   0  0  0  0  0  0  0  0  0  0  0  0
   -0.2169    0.4483    4.2864 C   0  0  0  0  0  0  0  0  0  0  0  0
   -1.6154    0.9709    4.6141 C   0  0  0  0  0  0  0  0  0  0  0  0
   -2.7455    0.2021    3.8916 C   0  0  0  0  0  0  0  0  0  0  0  0
   -2.6928   -1.2983    4.1774 C   0  0  0  0  0  0  0  0  0  0  0  0
   -2.6741   -1.5237    5.6787 C   0  0  0  0  0  0  0  0  0  0  0  0
    2.1595    2.2350    0.2346 O   0  0  0  0  0  0  0  0  0  0  0  0
    2.4483   -0.7148   -0.7084 O   0  0  0  0  0  0  0  0  0  0  0  0
    0.0008   -2.1249    0.2168 O   0  0  0  0  0  0  0  0  0  0  0  0
   -2.4374   -0.8327   -0.7483 O   0  0  0  0  0  0  0  0  0  0  0  0
   -0.0692    2.0647   -0.5577 O   0  0  0  0  0  0  0  0  0  0  0  0
   -2.4634    3.4827   -0.2434 O   0  0  0  0  0  0  0  0  0  0  0  0
    1.5886    1.4903   -1.5275 H   0  0  0  0  0  0  0  0  0  0  0  0
    1.5111   -0.2246    0.9075 H   0  0  0  0  0  0  0  0  0  0  0  0
    0.0582   -1.1477   -1.5452 H   0  0  0  0  0  0  0  0  0  0  0  0
   -1.5346   -0.1176    0.8083 H   0  0  0  0  0  0  0  0  0  0  0  0
   -1.5155    1.3614   -1.8196 H   0  0  0  0  0  0  0  0  0  0  0  0
   -3.4521    1.6869   -0.3584 H   0  0  0  0  0  0  0  0  0  0  0  0
   -2.4853    1.9328    1.0618 H   0  0  0  0  0  0  0  0  0  0  0  0
    2.5084    1.1764    2.0181 H   0  0  0  0  0  0  0  0  0  0  0  0
    3.1507    2.7690    1.9344 H   0  0  0  0  0  0  0  0  0  0  0  0
    1.3426    2.9392    3.4832 H   0  0  0  0  0  0  0  0  0  0  0  0
    0.8884    3.7978    2.0055 H   0  0  0  0  0  0  0  0  0  0  0  0
   -0.9905    2.5484    2.7422 H   0  0  0  0  0  0  0  0  0  0  0  0
   -0.4380    1.9360    1.3238 H   0  0  0  0  0  0  0  0  0  0  0  0
   -0.7567   -0.1074    2.3673 H   0  0  0  0  0  0  0  0  0  0  0  0
    0.9178    0.0706    2.5778 H   0  0  0  0  0  0  0  0  0  0  0  0
   -0.0846   -0.6053    4.5590 H   0  0  0  0  0  0  0  0  0  0  0  0
    0.5812    1.0068    4.7763 H   0  0  0  0  0  0  0  0  0  0  0  0
   -1.7385    0.9535    5.6955 H   0  0  0  0  0  0  0  0  0  0  0  0
   -1.7162    2.0297    4.3690 H   0  0  0  0  0  0  0  0  0  0  0  0
   -3.7067    0.6137    4.2142 H   0  0  0  0  0  0  0  0  0  0  0  0
   -2.7326    0.3574    2.8043 H   0  0  0  0  0  0  0  0  0  0  0  0
   -3.5587   -1.7941    3.7260 H   0  0  0  0  0  0  0  0  0  0  0  0
   -1.8094   -1.7586    3.7164 H   0  0  0  0  0  0  0  0  0  0  0  0
   -3.5525   -1.0529    6.1303 H   0  0  0  0  0  0  0  0  0  0  0  0
   -2.6580   -2.5850    5.9201 H   0  0  0  0  0  0  0  0  0  0  0  0
   -1.7854   -1.0831    6.1417 H   0  0  0  0  0  0  0  0  0  0  0  0
    2.4273   -0.6071   -1.6722 H   0  0  0  0  0  0  0  0  0  0  0  0
    0.1016   -1.9680    1.1732 H   0  0  0  0  0  0  0  0  0  0  0  0
   -2.3742   -0.8923   -1.7172 H   0  0  0  0  0  0  0  0  0  0  0  0
   -1.6302    3.8081    0.1479 H   0  0  0  0  0  0  0  0  0  0  0  0
  1  2  1  0  0  0  0
  1 16  1  0  0  0  0
  1 20  1  0  0  0  0
  1 22  1  6  0  0  0
  2  3  1  0  0  0  0
  2 17  1  0  0  0  0
  2 23  1  1  0  0  0
  3  4  1  0  0  0  0
  3 18  1  0  0  0  0
  3 24  1  6  0  0  0
  4  5  1  0  0  0  0
  4 19  1  0  0  0  0
  4 25  1  1  0  0  0
  5  6  1  0  0  0  0
  5 20  1  0  0  0  0
  5 26  1  6  0  0  0
  6 21  1  0  0  0  0
  6 27  1  0  0  0  0
  6 28  1  0  0  0  0
  7  8  1  0  0  0  0
  7 16  1  0  0  0  0
  7 29  1  0  0  0  0
  7 30  1  0  0  0  0
  8  9  1  0  0  0  0
  8 31  1  0  0  0  0
  8 32  1  0  0  0  0
  9 10  1  0  0  0  0
  9 33  1  0  0  0  0
  9 34  1  0  0  0  0
 10 11  1  0  0  0  0
 10 35  1  0  0  0  0
 10 36  1  0  0  0  0
 11 12  1  0  0  0  0
 11 37  1  0  0  0  0
 11 38  1  0  0  0  0
 12 13  1  0  0  0  0
 12 39  1  0  0  0  0
 12 40  1  0  0  0  0
 13 14  1  0  0  0  0
 13 41  1  0  0  0  0
 13 42  1  0  0  0  0
 14 15  1  0  0  0  0
 14 43  1  0  0  0  0
 14 44  1  0  0  0  0
 15 45  1  0  0  0  0
 15 46  1  0  0  0  0
 15 47  1  0  0  0  0
 17 48  1  0  0  0  0
 18 49  1  0  0  0  0
 19 50  1  0  0  0  0
 21 51  1  0  0  0  0
M  END
>  <DRUGBANK_ID>
DB02451

>  <SECONDARY_ACCESSION_NUMBERS>
EXPT00730

>  <COMMON_NAME>
B-nonylglucoside

>  <CAS_NUMBER>
69984-73-2

>  <UNII>
Q5TS785PG5

$$$$
