
 OpenBabel10282417183D

 60 61  0  0  0  0  0  0  0  0999 V2000
    1.0021    0.5256    0.3123 C   0  0  0  0  0  0  0  0  0  0  0  0
    0.5223    1.9265    0.2233 C   0  0  0  0  0  0  0  0  0  0  0  0
    1.0331    2.5304   -1.0498 C   0  0  0  0  0  0  0  0  0  0  0  0
    0.4260    1.8006   -2.2071 C   0  0  0  0  0  0  0  0  0  0  0  0
   -1.0523    1.9426   -2.4155 C   0  0  0  0  0  0  0  0  0  0  0  0
   -1.5114    3.3293   -2.6629 C   0  0  0  0  0  0  0  0  0  0  0  0
   -0.9821    3.7594   -3.9212 O   0  0  0  0  0  0  0  0  0  0  0  0
    0.3544    4.0130   -4.0229 C   0  0  0  0  0  0  0  0  0  0  0  0
    1.2152    4.1496   -3.2021 O   0  0  0  0  0  0  0  0  0  0  0  0
    0.6760    4.3195   -5.3934 C   0  0  0  0  0  0  0  0  0  0  0  0
    0.1275    5.5644   -5.7311 C   0  0  0  0  0  0  0  0  0  0  0  0
    0.5843    6.2334   -6.8420 C   0  0  0  0  0  0  0  0  0  0  0  0
    1.6205    5.6774   -7.5809 C   0  0  0  0  0  0  0  0  0  0  0  0
    2.1971    4.4516   -7.2071 C   0  0  0  0  0  0  0  0  0  0  0  0
    1.6947    3.6992   -6.1276 C   0  0  0  0  0  0  0  0  0  0  0  0
    2.3073    2.3304   -5.9318 C   0  0  0  0  0  0  0  0  0  0  0  0
    3.2867    2.0323   -6.6219 O   0  0  0  0  0  0  0  0  0  0  0  0
    1.8039    1.2144   -5.0878 C   0  0  0  0  0  0  0  0  0  0  0  0
    0.4760    0.7855   -5.1718 C   0  0  0  0  0  0  0  0  0  0  0  0
   -0.0158   -0.3060   -4.3731 C   0  0  0  0  0  0  0  0  0  0  0  0
    0.7641   -0.9672   -3.3906 C   0  0  0  0  0  0  0  0  0  0  0  0
    2.1405   -0.5745   -3.4147 C   0  0  0  0  0  0  0  0  0  0  0  0
    2.6355    0.5210   -4.1942 C   0  0  0  0  0  0  0  0  0  0  0  0
    3.8878    0.9783   -3.8333 O   0  0  0  0  0  0  0  0  0  0  0  0
    0.1758   -1.6515   -2.2732 N   0  0  0  0  0  0  0  0  0  0  0  0
    1.0404   -2.4560   -1.3397 C   0  0  0  0  0  0  0  0  0  0  0  0
    0.7435   -2.3664    0.1685 C   0  0  0  0  0  0  0  0  0  0  0  0
   -1.3007   -1.8756   -2.1094 C   0  0  0  0  0  0  0  0  0  0  0  0
   -2.1319   -0.6990   -1.6227 C   0  0  0  0  0  0  0  0  0  0  0  0
    0.5117   -0.0548   -0.4625 H   0  0  0  0  0  0  0  0  0  0  0  0
    0.6659    0.1141    1.2597 H   0  0  0  0  0  0  0  0  0  0  0  0
    2.0837    0.4100    0.1645 H   0  0  0  0  0  0  0  0  0  0  0  0
   -0.5710    1.8941    0.2401 H   0  0  0  0  0  0  0  0  0  0  0  0
    0.8738    2.4781    1.0857 H   0  0  0  0  0  0  0  0  0  0  0  0
    0.7845    3.5859   -1.0695 H   0  0  0  0  0  0  0  0  0  0  0  0
    2.1225    2.4217   -1.1422 H   0  0  0  0  0  0  0  0  0  0  0  0
    0.9587    2.0500   -3.0979 H   0  0  0  0  0  0  0  0  0  0  0  0
    0.6706    0.7750   -2.0698 H   0  0  0  0  0  0  0  0  0  0  0  0
   -1.3770    1.3829   -3.2940 H   0  0  0  0  0  0  0  0  0  0  0  0
   -1.5723    1.5905   -1.5365 H   0  0  0  0  0  0  0  0  0  0  0  0
   -2.6046    3.2618   -2.7479 H   0  0  0  0  0  0  0  0  0  0  0  0
   -1.2652    3.9697   -1.8173 H   0  0  0  0  0  0  0  0  0  0  0  0
   -0.6119    6.0244   -5.0741 H   0  0  0  0  0  0  0  0  0  0  0  0
    0.1593    7.1995   -7.0891 H   0  0  0  0  0  0  0  0  0  0  0  0
    1.9829    6.2003   -8.4611 H   0  0  0  0  0  0  0  0  0  0  0  0
    3.0564    4.0956   -7.7769 H   0  0  0  0  0  0  0  0  0  0  0  0
   -0.2439    1.4036   -5.7082 H   0  0  0  0  0  0  0  0  0  0  0  0
   -1.0924   -0.4552   -4.3999 H   0  0  0  0  0  0  0  0  0  0  0  0
    2.8493   -0.9523   -2.6857 H   0  0  0  0  0  0  0  0  0  0  0  0
    4.0892    1.8181   -4.2878 H   0  0  0  0  0  0  0  0  0  0  0  0
    0.9704   -3.5039   -1.6313 H   0  0  0  0  0  0  0  0  0  0  0  0
    2.0847   -2.1570   -1.4130 H   0  0  0  0  0  0  0  0  0  0  0  0
   -0.3042   -2.2250    0.4526 H   0  0  0  0  0  0  0  0  0  0  0  0
    1.1961   -3.1614    0.7662 H   0  0  0  0  0  0  0  0  0  0  0  0
    1.3255   -1.5560    0.5759 H   0  0  0  0  0  0  0  0  0  0  0  0
   -1.7391   -2.2358   -3.0408 H   0  0  0  0  0  0  0  0  0  0  0  0
   -1.4710   -2.6492   -1.3551 H   0  0  0  0  0  0  0  0  0  0  0  0
   -2.2772   -0.0331   -2.4623 H   0  0  0  0  0  0  0  0  0  0  0  0
   -3.1688   -0.9336   -1.3584 H   0  0  0  0  0  0  0  0  0  0  0  0
   -1.7011   -0.2069   -0.7444 H   0  0  0  0  0  0  0  0  0  0  0  0
  1  2  1  0  0  0  0
  1 30  1  0  0  0  0
  1 31  1  0  0  0  0
  1 32  1  0  0  0  0
  2  3  1  0  0  0  0
  2 33  1  0  0  0  0
  2 34  1  0  0  0  0
  3  4  1  0  0  0  0
  3 35  1  0  0  0  0
  3 36  1  0  0  0  0
  4  5  1  0  0  0  0
  4 37  1  0  0  0  0
  4 38  1  0  0  0  0
  5  6  1  0  0  0  0
  5 39  1  0  0  0  0
  5 40  1  0  0  0  0
  6  7  1  0  0  0  0
  6 41  1  0  0  0  0
  6 42  1  0  0  0  0
  7  8  1  0  0  0  0
  8  9  2  0  0  0  0
  8 10  1  0  0  0  0
 10 11  2  0  0  0  0
 10 15  1  0  0  0  0
 11 12  1  0  0  0  0
 11 43  1  0  0  0  0
 12 13  2  0  0  0  0
 12 44  1  0  0  0  0
 13 14  1  0  0  0  0
 13 45  1  0  0  0  0
 14 15  2  0  0  0  0
 14 46  1  0  0  0  0
 15 16  1  0  0  0  0
 16 17  2  0  0  0  0
 16 18  1  0  0  0  0
 18 19  2  0  0  0  0
 18 23  1  0  0  0  0
 19 20  1  0  0  0  0
 19 47  1  0  0  0  0
 20 21  2  0  0  0  0
 20 48  1  0  0  0  0
 21 22  1  0  0  0  0
 21 25  1  0  0  0  0
 22 23  2  0  0  0  0
 22 49  1  0  0  0  0
 23 24  1  0  0  0  0
 24 50  1  0  0  0  0
 25 26  1  0  0  0  0
 25 28  1  0  0  0  0
 26 27  1  0  0  0  0
 26 51  1  0  0  0  0
 26 52  1  0  0  0  0
 27 53  1  0  0  0  0
 27 54  1  0  0  0  0
 27 55  1  0  0  0  0
 28 29  1  0  0  0  0
 28 56  1  0  0  0  0
 28 57  1  0  0  0  0
 29 58  1  0  0  0  0
 29 59  1  0  0  0  0
 29 60  1  0  0  0  0
M  END
>  <DRUGBANK_ID>
DB11269

>  <COMMON_NAME>
Diethylamino hydroxybenzoyl hexyl benzoate

>  <CAS_NUMBER>
302776-68-7

>  <UNII>
ANQ870JD20

>  <SYNONYMS>
Hexyl 2-(4-(diethylamino)-2-hydroxybenzoyl)benzoate

$$$$
