
 OpenBabel10282417123D

 70 73  0  0  1  0  0  0  0  0999 V2000
   -0.9241   -0.8039    0.2162 C   0  0  1  0  0  0  0  0  0  0  0  0
    0.1003   -1.5820   -0.5918 C   0  0  0  0  0  0  0  0  0  0  0  0
    1.4784   -0.9244   -0.5335 C   0  0  1  0  0  0  0  0  0  0  0  0
    1.4454    0.5644   -0.9211 C   0  0  0  0  0  0  0  0  0  0  0  0
    0.3670    1.3435   -0.1999 C   0  0  0  0  0  0  0  0  0  0  0  0
   -0.9538    0.6731   -0.1886 C   0  0  0  0  0  0  0  0  0  0  0  0
   -0.9390    1.2554    2.6552 C   0  0  0  0  0  0  0  0  0  0  0  0
    0.6847    2.4839    0.4596 C   0  0  0  0  0  0  0  0  0  0  0  0
   -0.1903    3.2598    1.3191 C   0  0  0  0  0  0  0  0  0  0  0  0
   -0.9570    2.7228    2.2856 C   0  0  0  0  0  0  0  0  0  0  0  0
   -1.8546    1.7349    4.9096 C   0  0  0  0  0  0  0  0  0  0  0  0
   -0.8399    0.9330    4.1218 C   0  0  0  0  0  0  0  0  0  0  0  0
   -2.0016    3.4432    3.0751 C   0  0  1  0  0  0  0  0  0  0  0  0
   -1.7521    3.2466    4.5890 C   0  0  1  0  0  0  0  0  0  0  0  0
   -2.9067    4.0990    5.1600 C   0  0  2  0  0  0  0  0  0  0  0  0
   -2.2441    4.9345    2.9105 C   0  0  0  0  0  0  0  0  0  0  0  0
   -3.0147    5.3032    4.1768 C   0  0  0  0  0  0  0  0  0  0  0  0
   -2.7510    4.5196    6.6359 C   0  0  1  0  0  0  0  0  0  0  0  0
   -3.8038    5.5335    6.9769 C   0  0  0  0  0  0  0  0  0  0  0  0
   -4.7575    5.3647    7.9081 C   0  0  0  0  0  0  0  0  0  0  0  0
   -5.7465    6.4096    8.2719 C   0  0  1  0  0  0  0  0  0  0  0  0
   -7.0299    5.8320    8.0791 O   0  0  0  0  0  0  0  0  0  0  0  0
   -5.5834    6.7905    9.7086 C   0  0  0  0  0  0  0  0  0  0  0  0
   -5.6483    8.2104   10.2019 C   0  0  0  0  0  0  0  0  0  0  0  0
   -4.3198    7.5124   10.1301 C   0  0  0  0  0  0  0  0  0  0  0  0
    2.0673   -1.1059    0.7576 O   0  0  0  0  0  0  0  0  0  0  0  0
   -0.3699    3.7981    5.0245 C   0  0  0  0  0  0  0  0  0  0  0  0
   -2.2029   -1.4213    0.0947 O   0  0  0  0  0  0  0  0  0  0  0  0
   -2.9587    2.9636    2.8040 H   0  0  0  0  0  0  0  0  0  0  0  0
   -3.8440    3.5265    5.0648 H   0  0  0  0  0  0  0  0  0  0  0  0
   -2.7738    3.3088    7.5794 C   0  0  0  0  0  0  0  0  0  0  0  0
   -2.1004    1.3501   -0.3941 C   0  0  0  0  0  0  0  0  0  0  0  0
   -0.6603   -0.9166    1.2719 H   0  0  0  0  0  0  0  0  0  0  0  0
   -0.2439   -1.6546   -1.6292 H   0  0  0  0  0  0  0  0  0  0  0  0
    0.1492   -2.6056   -0.1999 H   0  0  0  0  0  0  0  0  0  0  0  0
    2.1372   -1.4472   -1.2334 H   0  0  0  0  0  0  0  0  0  0  0  0
    2.4317    1.0009   -0.7167 H   0  0  0  0  0  0  0  0  0  0  0  0
    1.2604    0.6577   -1.9969 H   0  0  0  0  0  0  0  0  0  0  0  0
   -1.8714    0.8081    2.2890 H   0  0  0  0  0  0  0  0  0  0  0  0
   -0.0753    0.7583    2.2250 H   0  0  0  0  0  0  0  0  0  0  0  0
    1.6936    2.8917    0.3864 H   0  0  0  0  0  0  0  0  0  0  0  0
   -0.2075    4.3301    1.1212 H   0  0  0  0  0  0  0  0  0  0  0  0
   -2.8627    1.3669    4.6752 H   0  0  0  0  0  0  0  0  0  0  0  0
   -1.6685    1.4968    5.9523 H   0  0  0  0  0  0  0  0  0  0  0  0
   -1.0107   -0.1408    4.2602 H   0  0  0  0  0  0  0  0  0  0  0  0
    0.1801    1.1289    4.4678 H   0  0  0  0  0  0  0  0  0  0  0  0
   -1.3132    5.5091    2.8615 H   0  0  0  0  0  0  0  0  0  0  0  0
   -2.8196    5.1675    2.0079 H   0  0  0  0  0  0  0  0  0  0  0  0
   -2.5904    6.2229    4.5903 H   0  0  0  0  0  0  0  0  0  0  0  0
   -4.0695    5.4962    3.9442 H   0  0  0  0  0  0  0  0  0  0  0  0
   -1.7939    5.0363    6.7772 H   0  0  0  0  0  0  0  0  0  0  0  0
   -3.7666    6.4790    6.4433 H   0  0  0  0  0  0  0  0  0  0  0  0
   -4.8070    4.4572    8.4973 H   0  0  0  0  0  0  0  0  0  0  0  0
   -5.6697    7.2804    7.6105 H   0  0  0  0  0  0  0  0  0  0  0  0
   -7.0286    5.4710    7.1750 H   0  0  0  0  0  0  0  0  0  0  0  0
   -5.9576    6.0129   10.3654 H   0  0  0  0  0  0  0  0  0  0  0  0
   -5.8431    9.0067    9.4953 H   0  0  0  0  0  0  0  0  0  0  0  0
   -6.0870    8.3624   11.1813 H   0  0  0  0  0  0  0  0  0  0  0  0
   -3.8414    7.1975   11.0502 H   0  0  0  0  0  0  0  0  0  0  0  0
   -3.6181    7.8269    9.3633 H   0  0  0  0  0  0  0  0  0  0  0  0
    1.5735   -0.5797    1.4101 H   0  0  0  0  0  0  0  0  0  0  0  0
   -0.2472    4.8513    4.7547 H   0  0  0  0  0  0  0  0  0  0  0  0
   -0.2342    3.7152    6.1063 H   0  0  0  0  0  0  0  0  0  0  0  0
    0.4659    3.2596    4.5718 H   0  0  0  0  0  0  0  0  0  0  0  0
   -2.5117   -1.2572   -0.8104 H   0  0  0  0  0  0  0  0  0  0  0  0
   -1.9314    2.6412    7.4259 H   0  0  0  0  0  0  0  0  0  0  0  0
   -2.6917    3.6185    8.6258 H   0  0  0  0  0  0  0  0  0  0  0  0
   -3.6981    2.7311    7.4524 H   0  0  0  0  0  0  0  0  0  0  0  0
   -2.1127    2.4179   -0.5884 H   0  0  0  0  0  0  0  0  0  0  0  0
   -3.0682    0.8834   -0.2369 H   0  0  0  0  0  0  0  0  0  0  0  0
  1  2  1  0  0  0  0
  1  6  1  0  0  0  0
  1 28  1  0  0  0  0
  1 33  1  1  0  0  0
  2  3  1  0  0  0  0
  2 34  1  0  0  0  0
  2 35  1  0  0  0  0
  3  4  1  0  0  0  0
  3 26  1  0  0  0  0
  3 36  1  6  0  0  0
  4  5  1  0  0  0  0
  4 37  1  0  0  0  0
  4 38  1  0  0  0  0
  5  8  2  0  0  0  0
  6  5  1  0  0  0  0
  6 32  2  0  0  0  0
  7 10  1  0  0  0  0
  7 39  1  0  0  0  0
  7 40  1  0  0  0  0
  8  9  1  0  0  0  0
  8 41  1  0  0  0  0
  9 10  2  0  0  0  0
  9 42  1  0  0  0  0
 10 13  1  0  0  0  0
 11 12  1  0  0  0  0
 11 14  1  0  0  0  0
 11 43  1  0  0  0  0
 11 44  1  0  0  0  0
 12  7  1  0  0  0  0
 12 45  1  0  0  0  0
 12 46  1  0  0  0  0
 13 16  1  0  0  0  0
 13 29  1  6  0  0  0
 14 13  1  0  0  0  0
 14 27  1  1  0  0  0
 15 14  1  0  0  0  0
 15 17  1  0  0  0  0
 15 30  1  6  0  0  0
 15 18  1  0  0  0  0
 16 17  1  0  0  0  0
 16 47  1  0  0  0  0
 16 48  1  0  0  0  0
 17 49  1  0  0  0  0
 17 50  1  0  0  0  0
 18 19  1  0  0  0  0
 18 31  1  0  0  0  0
 18 51  1  1  0  0  0
 19 20  2  0  0  0  0
 19 52  1  0  0  0  0
 20 21  1  0  0  0  0
 20 53  1  0  0  0  0
 21 22  1  0  0  0  0
 21 23  1  0  0  0  0
 21 54  1  6  0  0  0
 22 55  1  0  0  0  0
 23 24  1  0  0  0  0
 23 25  1  0  0  0  0
 23 56  1  0  0  0  0
 24 57  1  0  0  0  0
 24 58  1  0  0  0  0
 25 24  1  0  0  0  0
 25 59  1  0  0  0  0
 25 60  1  0  0  0  0
 26 61  1  0  0  0  0
 27 62  1  0  0  0  0
 27 63  1  0  0  0  0
 27 64  1  0  0  0  0
 28 65  1  0  0  0  0
 31 66  1  0  0  0  0
 31 67  1  0  0  0  0
 31 68  1  0  0  0  0
 32 69  1  0  0  0  0
 32 70  1  0  0  0  0
M  END
>  <DRUGBANK_ID>
DB02300

>  <SECONDARY_ACCESSION_NUMBERS>
EXPT02131

>  <COMMON_NAME>
Calcipotriol

>  <CAS_NUMBER>
112965-21-6

>  <UNII>
143NQ3779B

>  <SYNONYMS>
Calcipotriene; Calcipotriol

$$$$
