
 OpenBabel10282417203D

 50 52  0  0  0  0  0  0  0  0999 V2000
    1.3319    0.0325    0.3046 C   0  0  0  0  0  0  0  0  0  0  0  0
    0.2460   -1.0908   -0.7626 O   0  0  0  0  0  0  0  0  0  0  0  0
    0.5583   -2.0048   -2.2478 C   0  0  0  0  0  0  0  0  0  0  0  0
    2.2577   -2.3310   -2.5557 C   0  0  0  0  0  0  0  0  0  0  0  0
    2.9076   -2.9638   -3.4913 C   0  0  0  0  0  0  0  0  0  0  0  0
    1.8889   -3.6903   -4.0268 C   0  0  0  0  0  0  0  0  0  0  0  0
    0.2036   -3.5097   -3.6438 C   0  0  0  0  0  0  0  0  0  0  0  0
   -0.4818   -2.6945   -2.6661 C   0  0  0  0  0  0  0  0  0  0  0  0
   -1.8736   -2.4966   -2.0683 C   0  0  0  0  0  0  0  0  0  0  0  0
   -2.8425   -2.7732   -2.7786 O   0  0  0  0  0  0  0  0  0  0  0  0
   -2.1365   -2.0984   -0.7119 N   0  0  0  0  0  0  0  0  0  0  0  0
   -1.2743   -1.4420    0.3515 C   0  0  0  0  0  0  0  0  0  0  0  0
   -1.0988    0.2998   -0.2136 C   0  0  0  0  0  0  0  0  0  0  0  0
    0.0150    0.4962   -1.6898 C   0  0  0  0  0  0  0  0  0  0  0  0
    1.7034   -0.4223   -1.6550 N   0  0  0  0  0  0  0  0  0  0  0  0
    1.6758   -2.0999   -0.5220 C   0  0  0  0  0  0  0  0  0  0  0  0
    0.2339   -2.4582    0.6423 C   0  0  0  0  0  0  0  0  0  0  0  0
    1.9136   -0.1860   -3.4149 C   0  0  0  0  0  0  0  0  0  0  0  0
    0.8537   -0.6396   -4.6499 C   0  0  0  0  0  0  0  0  0  0  0  0
   -0.4048   -0.0986   -4.6680 C   0  0  0  0  0  0  0  0  0  0  0  0
   -1.4905   -0.6565   -5.4048 C   0  0  0  0  0  0  0  0  0  0  0  0
   -1.3764   -1.7195   -6.3001 C   0  0  0  0  0  0  0  0  0  0  0  0
   -0.1379   -2.1964   -6.5245 C   0  0  0  0  0  0  0  0  0  0  0  0
    0.8582   -1.6719   -5.6546 C   0  0  0  0  0  0  0  0  0  0  0  0
    2.6537   -4.1539   -5.7397 Cl  0  0  0  0  0  0  0  0  0  0  0  0
    4.0985   -2.4228   -3.9643 N   0  0  0  0  0  0  0  0  0  0  0  0
    0.9875    0.0020    1.3368 H   0  0  0  0  0  0  0  0  0  0  0  0
    1.2141    1.0883   -0.0652 H   0  0  0  0  0  0  0  0  0  0  0  0
    2.4281   -0.1683    0.2389 H   0  0  0  0  0  0  0  0  0  0  0  0
    3.0580   -1.8213   -1.9244 H   0  0  0  0  0  0  0  0  0  0  0  0
   -0.5326   -3.7865   -4.3990 H   0  0  0  0  0  0  0  0  0  0  0  0
   -3.1238   -2.0254   -0.4944 H   0  0  0  0  0  0  0  0  0  0  0  0
   -1.7230   -1.4061    1.3433 H   0  0  0  0  0  0  0  0  0  0  0  0
   -2.0679    0.7547   -0.4288 H   0  0  0  0  0  0  0  0  0  0  0  0
   -0.6769    0.8593    0.6214 H   0  0  0  0  0  0  0  0  0  0  0  0
   -0.6699   -0.0455   -2.3583 H   0  0  0  0  0  0  0  0  0  0  0  0
    0.2130    1.5055   -2.0186 H   0  0  0  0  0  0  0  0  0  0  0  0
    2.4001   -3.0047   -0.6214 H   0  0  0  0  0  0  0  0  0  0  0  0
    1.0155   -3.0861   -0.9378 H   0  0  0  0  0  0  0  0  0  0  0  0
    0.7635   -2.2563    1.5551 H   0  0  0  0  0  0  0  0  0  0  0  0
   -0.0967   -3.5245    0.5409 H   0  0  0  0  0  0  0  0  0  0  0  0
    1.9641    0.9053   -3.4659 H   0  0  0  0  0  0  0  0  0  0  0  0
    2.9660   -0.4094   -3.5956 H   0  0  0  0  0  0  0  0  0  0  0  0
   -0.6426    0.7001   -3.9958 H   0  0  0  0  0  0  0  0  0  0  0  0
   -2.4702   -0.2487   -5.2150 H   0  0  0  0  0  0  0  0  0  0  0  0
   -2.2178   -2.2275   -6.7496 H   0  0  0  0  0  0  0  0  0  0  0  0
    0.0002   -3.1976   -6.9850 H   0  0  0  0  0  0  0  0  0  0  0  0
    1.2165   -2.6306   -5.4653 H   0  0  0  0  0  0  0  0  0  0  0  0
    4.2108   -2.3737   -4.9733 H   0  0  0  0  0  0  0  0  0  0  0  0
    4.6654   -1.7526   -3.4292 H   0  0  0  0  0  0  0  0  0  0  0  0
  1  2  1  0  0  0  0
  1 27  1  0  0  0  0
  1 28  1  0  0  0  0
  1 29  1  0  0  0  0
  2  3  1  0  0  0  0
  3  4  2  0  0  0  0
  3  8  1  0  0  0  0
  4  5  1  0  0  0  0
  4 30  1  0  0  0  0
  5  6  2  0  0  0  0
  5 26  1  0  0  0  0
  6  7  1  0  0  0  0
  6 25  1  0  0  0  0
  7  8  2  0  0  0  0
  7 31  1  0  0  0  0
  8  9  1  0  0  0  0
  9 10  2  0  0  0  0
  9 11  1  0  0  0  0
 11 12  1  0  0  0  0
 11 32  1  0  0  0  0
 12 13  1  0  0  0  0
 12 17  1  0  0  0  0
 12 33  1  0  0  0  0
 13 14  1  0  0  0  0
 13 34  1  0  0  0  0
 13 35  1  0  0  0  0
 14 15  1  0  0  0  0
 14 36  1  0  0  0  0
 14 37  1  0  0  0  0
 15 16  1  0  0  0  0
 15 18  1  0  0  0  0
 16 17  1  0  0  0  0
 16 38  1  0  0  0  0
 16 39  1  0  0  0  0
 17 40  1  0  0  0  0
 17 41  1  0  0  0  0
 18 19  1  0  0  0  0
 18 42  1  0  0  0  0
 18 43  1  0  0  0  0
 19 20  2  0  0  0  0
 19 24  1  0  0  0  0
 20 21  1  0  0  0  0
 20 44  1  0  0  0  0
 21 22  2  0  0  0  0
 21 45  1  0  0  0  0
 22 23  1  0  0  0  0
 22 46  1  0  0  0  0
 23 24  2  0  0  0  0
 23 47  1  0  0  0  0
 24 48  1  0  0  0  0
 26 49  1  0  0  0  0
 26 50  1  0  0  0  0
M  END
>  <DRUGBANK_ID>
DB13511

>  <COMMON_NAME>
Clebopride

>  <CAS_NUMBER>
55905-53-8

>  <UNII>
I0A84520Y9

>  <SYNONYMS>
Cleboprida; Clebopride

$$$$
