
 OpenBabel10282417183D

 71 74  0  0  0  0  0  0  0  0999 V2000
    2.3201   -0.0331   -0.2542 C   0  0  0  0  0  0  0  0  0  0  0  0
    1.5510    0.9997   -0.5613 N   0  0  0  0  0  0  0  0  0  0  0  0
    1.5230   -1.1704   -0.3610 N   0  0  0  0  0  0  0  0  0  0  0  0
    0.2053   -0.7312   -0.6906 C   0  0  0  0  0  0  0  0  0  0  0  0
    0.2521    0.6325   -0.4840 C   0  0  0  0  0  0  0  0  0  0  0  0
    0.3544    2.0677    4.8222 C   0  0  0  0  0  0  0  0  0  0  0  0
    0.7216    2.6991    6.1251 C   0  0  0  0  0  0  0  0  0  0  0  0
    4.7765    2.9386   -0.1015 N   0  0  0  0  0  0  0  0  0  0  0  0
    3.8656    0.0482   -0.0885 C   0  0  0  0  0  0  0  0  0  0  0  0
    0.9698    2.8142    3.6509 C   0  0  0  0  0  0  0  0  0  0  0  0
   -0.0617    3.2211    6.9367 O   0  0  0  0  0  0  0  0  0  0  0  0
    4.5124    0.6960    1.1702 C   0  0  0  0  0  0  0  0  0  0  0  0
    4.4267    0.7632   -1.3156 C   0  0  0  0  0  0  0  0  0  0  0  0
    1.5999    2.1162    2.6638 C   0  0  0  0  0  0  0  0  0  0  0  0
    0.8044    4.1974    3.4375 C   0  0  0  0  0  0  0  0  0  0  0  0
    4.6725    2.2269    1.1736 C   0  0  0  0  0  0  0  0  0  0  0  0
    4.1633    2.2658   -1.2545 C   0  0  0  0  0  0  0  0  0  0  0  0
    1.9633   -2.5426   -0.1133 C   0  0  0  0  0  0  0  0  0  0  0  0
    4.2329    4.3320    0.0234 C   0  0  0  0  0  0  0  0  0  0  0  0
    2.0408    2.6444    6.3862 O   0  0  0  0  0  0  0  0  0  0  0  0
    1.9184    4.1256    1.3087 C   0  0  0  0  0  0  0  0  0  0  0  0
    1.8267    2.7670    1.4756 C   0  0  0  0  0  0  0  0  0  0  0  0
    1.3739    4.8636    2.3293 C   0  0  0  0  0  0  0  0  0  0  0  0
    2.6731    4.6157    0.0889 C   0  0  0  0  0  0  0  0  0  0  0  0
   -1.0523   -1.3780   -0.8177 C   0  0  0  0  0  0  0  0  0  0  0  0
   -1.1597    2.0525    4.5279 C   0  0  0  0  0  0  0  0  0  0  0  0
    0.8260    0.6186    4.9684 C   0  0  0  0  0  0  0  0  0  0  0  0
   -0.9189    1.3839   -0.2272 C   0  0  0  0  0  0  0  0  0  0  0  0
    0.3119   -3.5458    1.6232 O   0  0  0  0  0  0  0  0  0  0  0  0
    1.6685   -3.2809    1.2380 C   0  0  0  0  0  0  0  0  0  0  0  0
   -0.4179   -2.3669    1.8356 C   0  0  0  0  0  0  0  0  0  0  0  0
   -2.1976   -0.6472   -0.4131 C   0  0  0  0  0  0  0  0  0  0  0  0
   -2.1446    0.7176   -0.1463 C   0  0  0  0  0  0  0  0  0  0  0  0
    0.0815   -1.3482    2.7758 C   0  0  0  0  0  0  0  0  0  0  0  0
    4.2514   -0.9730   -0.0887 H   0  0  0  0  0  0  0  0  0  0  0  0
    3.9995    0.3689    2.0838 H   0  0  0  0  0  0  0  0  0  0  0  0
    5.5386    0.3107    1.2632 H   0  0  0  0  0  0  0  0  0  0  0  0
    5.5037    0.5849   -1.3918 H   0  0  0  0  0  0  0  0  0  0  0  0
    3.9589    0.3461   -2.2152 H   0  0  0  0  0  0  0  0  0  0  0  0
    1.9370    1.0880    2.7500 H   0  0  0  0  0  0  0  0  0  0  0  0
    0.2217    4.7733    4.1465 H   0  0  0  0  0  0  0  0  0  0  0  0
    3.8295    2.5931    1.6895 H   0  0  0  0  0  0  0  0  0  0  0  0
    5.3876    2.5825    1.9302 H   0  0  0  0  0  0  0  0  0  0  0  0
    4.5280    2.7225   -2.1798 H   0  0  0  0  0  0  0  0  0  0  0  0
    3.0893    2.4302   -1.2880 H   0  0  0  0  0  0  0  0  0  0  0  0
    1.6191   -3.1245   -0.9689 H   0  0  0  0  0  0  0  0  0  0  0  0
    3.0562   -2.5292   -0.1711 H   0  0  0  0  0  0  0  0  0  0  0  0
    4.7125    4.8128    0.8853 H   0  0  0  0  0  0  0  0  0  0  0  0
    4.6135    4.8726   -0.8549 H   0  0  0  0  0  0  0  0  0  0  0  0
    2.1612    3.0957    7.2427 H   0  0  0  0  0  0  0  0  0  0  0  0
    2.2678    2.2027    0.6973 H   0  0  0  0  0  0  0  0  0  0  0  0
    1.3693    5.9428    2.2723 H   0  0  0  0  0  0  0  0  0  0  0  0
    2.5273    5.6956    0.0066 H   0  0  0  0  0  0  0  0  0  0  0  0
    2.1939    4.2007   -0.8090 H   0  0  0  0  0  0  0  0  0  0  0  0
   -1.1133   -2.4644   -0.8337 H   0  0  0  0  0  0  0  0  0  0  0  0
   -1.3827    1.5823    3.5570 H   0  0  0  0  0  0  0  0  0  0  0  0
   -1.7173    1.5087    5.2938 H   0  0  0  0  0  0  0  0  0  0  0  0
   -1.5617    3.0699    4.4783 H   0  0  0  0  0  0  0  0  0  0  0  0
    0.6120    0.1865    4.0283 H   0  0  0  0  0  0  0  0  0  0  0  0
    1.9043    0.4691    5.0921 H   0  0  0  0  0  0  0  0  0  0  0  0
    0.2815    0.0284    5.7111 H   0  0  0  0  0  0  0  0  0  0  0  0
   -0.8670    2.4461    0.0052 H   0  0  0  0  0  0  0  0  0  0  0  0
    2.1227   -4.2747    1.1667 H   0  0  0  0  0  0  0  0  0  0  0  0
    2.1779   -2.7980    2.0768 H   0  0  0  0  0  0  0  0  0  0  0  0
   -0.1748   -1.8354    0.9865 H   0  0  0  0  0  0  0  0  0  0  0  0
   -1.5052   -2.4607    1.7994 H   0  0  0  0  0  0  0  0  0  0  0  0
   -3.1242   -1.1838   -0.2015 H   0  0  0  0  0  0  0  0  0  0  0  0
   -3.0492    1.2565    0.1370 H   0  0  0  0  0  0  0  0  0  0  0  0
    1.1619   -1.1758    2.6739 H   0  0  0  0  0  0  0  0  0  0  0  0
   -0.3947   -0.3898    2.5046 H   0  0  0  0  0  0  0  0  0  0  0  0
   -0.1596   -1.6369    3.7924 H   0  0  0  0  0  0  0  0  0  0  0  0
  2  1  2  0  0  0  0
  3  1  1  0  0  0  0
  4  3  1  0  0  0  0
  4  5  1  0  0  0  0
  5  2  1  0  0  0  0
  6 10  1  0  0  0  0
  7  6  1  0  0  0  0
  8 17  1  0  0  0  0
  8 16  1  0  0  0  0
  9  1  1  0  0  0  0
  9 35  1  0  0  0  0
 10 15  2  0  0  0  0
 11  7  2  0  0  0  0
 12  9  1  0  0  0  0
 12 36  1  0  0  0  0
 12 37  1  0  0  0  0
 13  9  1  0  0  0  0
 13 38  1  0  0  0  0
 13 39  1  0  0  0  0
 14 22  2  0  0  0  0
 14 10  1  0  0  0  0
 14 40  1  0  0  0  0
 15 23  1  0  0  0  0
 15 41  1  0  0  0  0
 16 12  1  0  0  0  0
 16 42  1  0  0  0  0
 16 43  1  0  0  0  0
 17 13  1  0  0  0  0
 17 44  1  0  0  0  0
 17 45  1  0  0  0  0
 18  3  1  0  0  0  0
 18 46  1  0  0  0  0
 18 47  1  0  0  0  0
 19  8  1  0  0  0  0
 19 48  1  0  0  0  0
 19 49  1  0  0  0  0
 20  7  1  0  0  0  0
 20 50  1  0  0  0  0
 21 24  1  0  0  0  0
 22 21  1  0  0  0  0
 22 51  1  0  0  0  0
 23 21  2  0  0  0  0
 23 52  1  0  0  0  0
 24 19  1  0  0  0  0
 24 53  1  0  0  0  0
 24 54  1  0  0  0  0
 25  4  2  0  0  0  0
 25 55  1  0  0  0  0
 26  6  1  0  0  0  0
 26 56  1  0  0  0  0
 26 57  1  0  0  0  0
 26 58  1  0  0  0  0
 27  6  1  0  0  0  0
 27 59  1  0  0  0  0
 27 60  1  0  0  0  0
 27 61  1  0  0  0  0
 28  5  2  0  0  0  0
 28 62  1  0  0  0  0
 29 30  1  0  0  0  0
 30 18  1  0  0  0  0
 30 63  1  0  0  0  0
 30 64  1  0  0  0  0
 31 29  1  0  0  0  0
 31 65  1  0  0  0  0
 31 66  1  0  0  0  0
 32 25  1  0  0  0  0
 32 33  2  0  0  0  0
 32 67  1  0  0  0  0
 33 28  1  0  0  0  0
 33 68  1  0  0  0  0
 34 31  1  0  0  0  0
 34 69  1  0  0  0  0
 34 70  1  0  0  0  0
 34 71  1  0  0  0  0
M  END
>  <DRUGBANK_ID>
DB11591

>  <COMMON_NAME>
Bilastine

>  <CAS_NUMBER>
202189-78-4

>  <UNII>
PA1123N395

>  <SYNONYMS>
Bilastina; Bilastine

$$$$
