
 OpenBabel10282417123D

 83 87  0  0  0  0  0  0  0  0999 V2000
    3.0333   -0.2679    3.8592 C   0  0  0  0  0  0  0  0  0  0  0  0
    4.4650   -1.3374    3.7755 C   0  0  0  0  0  0  0  0  0  0  0  0
    5.0462   -2.9382    2.3702 C   0  0  0  0  0  0  0  0  0  0  0  0
    6.1696   -1.9427    2.7935 C   0  0  0  0  0  0  0  0  0  0  0  0
    7.2498   -1.6267    3.9510 C   0  0  0  0  0  0  0  0  0  0  0  0
    6.5123   -2.4152    1.5572 C   0  0  0  0  0  0  0  0  0  0  0  0
    7.6906   -2.8582    1.1759 C   0  0  0  0  0  0  0  0  0  0  0  0
    7.7338   -3.3567   -0.1909 C   0  0  0  0  0  0  0  0  0  0  0  0
    7.4209   -2.6444   -1.3221 C   0  0  0  0  0  0  0  0  0  0  0  0
    7.0860   -1.2012   -1.3211 C   0  0  0  0  0  0  0  0  0  0  0  0
    8.0796   -0.4301   -2.1531 C   0  0  0  0  0  0  0  0  0  0  0  0
    7.4337   -3.3698   -2.5359 C   0  0  0  0  0  0  0  0  0  0  0  0
    7.1361   -2.7592   -3.8334 C   0  0  0  0  0  0  0  0  0  0  0  0
    7.7554   -4.6685   -2.3537 C   0  0  0  0  0  0  0  0  0  0  0  0
    7.8306   -5.6513   -3.5699 C   0  0  0  0  0  0  0  0  0  0  0  0
    8.1093   -6.9266   -3.5605 C   0  0  0  0  0  0  0  0  0  0  0  0
    8.2398   -7.9507   -4.4284 N   0  0  0  0  0  0  0  0  0  0  0  0
    8.5751   -8.9829   -3.7471 C   0  0  0  0  0  0  0  0  0  0  0  0
    8.7316  -10.2980   -4.3370 C   0  0  0  0  0  0  0  0  0  0  0  0
    8.4876  -11.0899   -3.3421 C   0  0  0  0  0  0  0  0  0  0  0  0
    7.0160   -9.9969   -2.6222 N   0  0  0  0  0  0  0  0  0  0  0  0
    6.5526   -8.6298   -1.0664 C   0  0  0  0  0  0  0  0  0  0  0  0
    5.8693   -6.8460   -0.2303 C   0  0  0  0  0  0  0  0  0  0  0  0
    5.4098   -4.7234    0.9593 C   0  0  0  0  0  0  0  0  0  0  0  0
    5.3855   -3.0068    0.7470 N   0  0  0  0  0  0  0  0  0  0  0  0
    7.5848  -10.6718   -1.3294 C   0  0  0  0  0  0  0  0  0  0  0  0
    8.7654  -12.4822   -0.6706 C   0  0  0  0  0  0  0  0  0  0  0  0
    8.4941  -11.7083   -2.1279 C   0  0  0  0  0  0  0  0  0  0  0  0
    8.2180  -10.7831   -0.9795 C   0  0  0  0  0  0  0  0  0  0  0  0
    6.8094  -10.6365    0.2584 C   0  0  0  0  0  0  0  0  0  0  0  0
    7.2780  -11.8173    0.7821 C   0  0  0  0  0  0  0  0  0  0  0  0
    7.6153  -11.6520    2.0168 O   0  0  0  0  0  0  0  0  0  0  0  0
    7.0912  -12.8488    0.1729 O   0  0  0  0  0  0  0  0  0  0  0  0
    8.8166   -8.4939   -2.3488 C   0  0  0  0  0  0  0  0  0  0  0  0
    9.2381   -9.1918   -0.8654 C   0  0  0  0  0  0  0  0  0  0  0  0
   10.2892   -9.2217    0.0832 C   0  0  0  0  0  0  0  0  0  0  0  0
   10.0265   -7.9710    0.4842 C   0  0  0  0  0  0  0  0  0  0  0  0
    9.7101   -7.7067    1.7368 O   0  0  0  0  0  0  0  0  0  0  0  0
   10.1891   -7.3458   -0.5615 O   0  0  0  0  0  0  0  0  0  0  0  0
    8.2552   -7.3916   -2.3745 C   0  0  0  0  0  0  0  0  0  0  0  0
    8.1920   -6.7603   -1.2550 C   0  0  0  0  0  0  0  0  0  0  0  0
    7.9625   -4.6221   -0.6385 N   0  0  0  0  0  0  0  0  0  0  0  0
    8.2350   -5.7632    0.3894 C   0  0  0  0  0  0  0  0  0  0  0  0
    3.0928    0.4908    3.0875 H   0  0  0  0  0  0  0  0  0  0  0  0
    2.6349    0.2846    4.7808 H   0  0  0  0  0  0  0  0  0  0  0  0
    2.3249   -1.0210    3.6359 H   0  0  0  0  0  0  0  0  0  0  0  0
    5.0560   -0.0787    4.4104 H   0  0  0  0  0  0  0  0  0  0  0  0
    4.3247   -1.5196    5.0052 H   0  0  0  0  0  0  0  0  0  0  0  0
    7.7271   -2.5625    4.2488 H   0  0  0  0  0  0  0  0  0  0  0  0
    8.0696   -0.9606    3.6022 H   0  0  0  0  0  0  0  0  0  0  0  0
    6.8589   -1.1577    4.8658 H   0  0  0  0  0  0  0  0  0  0  0  0
    8.5194   -2.7409    1.8460 H   0  0  0  0  0  0  0  0  0  0  0  0
    6.0769   -1.0605   -1.7161 H   0  0  0  0  0  0  0  0  0  0  0  0
    7.1094   -0.8114   -0.3111 H   0  0  0  0  0  0  0  0  0  0  0  0
    8.0978   -0.7617   -3.1809 H   0  0  0  0  0  0  0  0  0  0  0  0
    7.8321    0.6212   -2.1694 H   0  0  0  0  0  0  0  0  0  0  0  0
    9.0839   -0.5782   -1.7750 H   0  0  0  0  0  0  0  0  0  0  0  0
    7.9997   -2.8230   -4.4895 H   0  0  0  0  0  0  0  0  0  0  0  0
    6.2757   -3.2183   -4.2915 H   0  0  0  0  0  0  0  0  0  0  0  0
    6.8692   -1.7223   -3.7073 H   0  0  0  0  0  0  0  0  0  0  0  0
    7.6401   -5.3690   -4.5961 H   0  0  0  0  0  0  0  0  0  0  0  0
    8.6368  -10.6283   -5.3495 H   0  0  0  0  0  0  0  0  0  0  0  0
    7.4697  -11.2861   -3.2682 H   0  0  0  0  0  0  0  0  0  0  0  0
    4.8840   -5.6325    0.0570 H   0  0  0  0  0  0  0  0  0  0  0  0
    8.4020  -13.8569   -0.1669 H   0  0  0  0  0  0  0  0  0  0  0  0
    9.9084  -13.3948   -0.1880 H   0  0  0  0  0  0  0  0  0  0  0  0
    9.1267  -12.2712    0.4122 H   0  0  0  0  0  0  0  0  0  0  0  0
    9.3007  -10.7291   -0.1645 H   0  0  0  0  0  0  0  0  0  0  0  0
    8.7530  -10.0292   -2.0544 H   0  0  0  0  0  0  0  0  0  0  0  0
    7.0639   -9.6919    0.6173 H   0  0  0  0  0  0  0  0  0  0  0  0
    6.0897  -10.7090   -0.6783 H   0  0  0  0  0  0  0  0  0  0  0  0
    7.4480  -10.7502    2.3376 H   0  0  0  0  0  0  0  0  0  0  0  0
    8.2132   -9.1673   -0.2837 H   0  0  0  0  0  0  0  0  0  0  0  0
    9.7900  -10.5954   -1.3935 H   0  0  0  0  0  0  0  0  0  0  0  0
   10.0923   -9.9782    0.8107 H   0  0  0  0  0  0  0  0  0  0  0  0
   10.8606   -9.3841   -0.8001 H   0  0  0  0  0  0  0  0  0  0  0  0
    9.8223   -8.4533    2.3575 H   0  0  0  0  0  0  0  0  0  0  0  0
    9.0658   -5.9471   -1.3780 H   0  0  0  0  0  0  0  0  0  0  0  0
    7.2143   -6.2298   -1.1404 H   0  0  0  0  0  0  0  0  0  0  0  0
    8.3716   -7.5537   -0.2084 H   0  0  0  0  0  0  0  0  0  0  0  0
    7.3915   -6.8113    0.3471 H   0  0  0  0  0  0  0  0  0  0  0  0
    9.2763   -6.0640    0.1334 H   0  0  0  0  0  0  0  0  0  0  0  0
    8.4707   -5.9014    1.3659 H   0  0  0  0  0  0  0  0  0  0  0  0
  1  2  1  0  0  0  0
  1 44  1  0  0  0  0
  1 45  1  0  0  0  0
  1 46  1  0  0  0  0
  2  3  1  0  0  0  0
  2 47  1  0  0  0  0
  2 48  1  0  0  0  0
  3  4  2  0  0  0  0
  3 24  1  0  0  0  0
  4  5  1  0  0  0  0
  4  6  1  0  0  0  0
  5 49  1  0  0  0  0
  5 50  1  0  0  0  0
  5 51  1  0  0  0  0
  6  7  2  3  0  0  0
  6 25  1  0  0  0  0
  7  8  1  0  0  0  0
  7 52  1  0  0  0  0
  8  9  2  0  0  0  0
  8 42  1  0  0  0  0
  9 10  1  0  0  0  0
  9 12  1  0  0  0  0
 10 11  1  0  0  0  0
 10 53  1  0  0  0  0
 10 54  1  0  0  0  0
 11 55  1  0  0  0  0
 11 56  1  0  0  0  0
 11 57  1  0  0  0  0
 12 13  1  0  0  0  0
 12 14  2  0  0  0  0
 13 58  1  0  0  0  0
 13 59  1  0  0  0  0
 13 60  1  0  0  0  0
 14 42  1  0  0  0  0
 15 14  1  0  0  0  0
 15 16  2  3  0  0  0
 15 61  1  0  0  0  0
 16 17  1  0  0  0  0
 16 40  1  0  0  0  0
 17 18  2  0  0  0  0
 18 34  1  0  0  0  0
 19 18  1  0  0  0  0
 19 20  2  3  0  0  0
 19 62  1  0  0  0  0
 20 21  1  0  0  0  0
 20 28  1  0  0  0  0
 21 22  1  0  0  0  0
 21 63  1  0  0  0  0
 22 23  2  0  0  0  0
 22 26  1  0  0  0  0
 23 24  1  0  0  0  0
 23 64  1  0  0  0  0
 24 25  2  0  0  0  0
 26 27  1  0  0  0  0
 26 28  2  0  0  0  0
 27 65  1  0  0  0  0
 27 66  1  0  0  0  0
 27 67  1  0  0  0  0
 28 29  1  0  0  0  0
 29 30  1  0  0  0  0
 29 68  1  0  0  0  0
 29 69  1  0  0  0  0
 30 31  1  0  0  0  0
 30 70  1  0  0  0  0
 30 71  1  0  0  0  0
 31 32  1  0  0  0  0
 31 33  2  0  0  0  0
 32 72  1  0  0  0  0
 34 35  1  0  0  0  0
 34 40  2  0  0  0  0
 35 36  1  0  0  0  0
 35 73  1  0  0  0  0
 35 74  1  0  0  0  0
 36 37  1  0  0  0  0
 36 75  1  0  0  0  0
 36 76  1  0  0  0  0
 37 38  1  0  0  0  0
 37 39  2  0  0  0  0
 38 77  1  0  0  0  0
 40 41  1  0  0  0  0
 41 78  1  0  0  0  0
 41 79  1  0  0  0  0
 41 80  1  0  0  0  0
 42 43  1  0  0  0  0
 43 81  1  0  0  0  0
 43 82  1  0  0  0  0
 43 83  1  0  0  0  0
M  END
>  <DRUGBANK_ID>
DB01911

>  <SECONDARY_ACCESSION_NUMBERS>
EXPT02198

>  <COMMON_NAME>
N-Methylmesoporphyrin

>  <CAS_NUMBER>
142234-85-3

$$$$
