
 OpenBabel10282417133D

 24 23  0  0  0  0  0  0  0  0999 V2000
    1.1061    0.2126   -0.0881 N   0  0  0  0  0  0  0  0  0  0  0  0
    0.6748   -0.7994   -1.0463 C   0  0  0  0  0  0  0  0  0  0  0  0
    1.1499   -2.1943   -0.6331 C   0  0  0  0  0  0  0  0  0  0  0  0
    0.5848   -2.6501    0.7186 C   0  0  0  0  0  0  0  0  0  0  0  0
   -0.9476   -2.7089    0.7332 C   0  0  0  0  0  0  0  0  0  0  0  0
   -1.5150   -3.7271   -0.2649 C   0  0  0  0  0  0  0  0  0  0  0  0
   -1.0397   -5.1591   -0.0048 C   0  0  0  0  0  0  0  0  0  0  0  0
   -1.4648   -5.6129    1.3143 N   0  0  0  0  0  0  0  0  0  0  0  0
    0.7115    0.0047    0.8294 H   0  0  0  0  0  0  0  0  0  0  0  0
    2.1167    0.1475    0.0306 H   0  0  0  0  0  0  0  0  0  0  0  0
   -0.4154   -0.7660   -1.1439 H   0  0  0  0  0  0  0  0  0  0  0  0
    1.0755   -0.5512   -2.0334 H   0  0  0  0  0  0  0  0  0  0  0  0
    0.8761   -2.9110   -1.4167 H   0  0  0  0  0  0  0  0  0  0  0  0
    2.2455   -2.2152   -0.5883 H   0  0  0  0  0  0  0  0  0  0  0  0
    1.0097   -3.6274    0.9731 H   0  0  0  0  0  0  0  0  0  0  0  0
    0.9263   -1.9838    1.5183 H   0  0  0  0  0  0  0  0  0  0  0  0
   -1.2880   -2.9400    1.7484 H   0  0  0  0  0  0  0  0  0  0  0  0
   -1.3721   -1.7220    0.5192 H   0  0  0  0  0  0  0  0  0  0  0  0
   -2.6103   -3.6879   -0.2345 H   0  0  0  0  0  0  0  0  0  0  0  0
   -1.2408   -3.4414   -1.2883 H   0  0  0  0  0  0  0  0  0  0  0  0
   -1.4472   -5.8251   -0.7696 H   0  0  0  0  0  0  0  0  0  0  0  0
    0.0507   -5.2273   -0.0833 H   0  0  0  0  0  0  0  0  0  0  0  0
   -1.0545   -6.5288    1.5074 H   0  0  0  0  0  0  0  0  0  0  0  0
   -1.1021   -4.9930    2.0314 H   0  0  0  0  0  0  0  0  0  0  0  0
  1  2  1  0  0  0  0
  1  9  1  0  0  0  0
  1 10  1  0  0  0  0
  2  3  1  0  0  0  0
  2 11  1  0  0  0  0
  2 12  1  0  0  0  0
  3  4  1  0  0  0  0
  3 13  1  0  0  0  0
  3 14  1  0  0  0  0
  4  5  1  0  0  0  0
  4 15  1  0  0  0  0
  4 16  1  0  0  0  0
  5  6  1  0  0  0  0
  5 17  1  0  0  0  0
  5 18  1  0  0  0  0
  6  7  1  0  0  0  0
  6 19  1  0  0  0  0
  6 20  1  0  0  0  0
  7  8  1  0  0  0  0
  7 21  1  0  0  0  0
  7 22  1  0  0  0  0
  8 23  1  0  0  0  0
  8 24  1  0  0  0  0
M  END
>  <DRUGBANK_ID>
DB03260

>  <SECONDARY_ACCESSION_NUMBERS>
EXPT00049

>  <COMMON_NAME>
Hexamethylene diamine

>  <CAS_NUMBER>
124-09-4

>  <UNII>
ZRA5J5B2QW

>  <SYNONYMS>
1,6-diamino-n-hexane; 1,6-diaminohexane; 1,6-hexamethylenediamine; 1,6-hexanediamine; 1,6-hexylenediamine; diaminohexane; HEX-NH2; hexamethylene diamine; hexamethylenediamine; hexylenediamine; HMDA

$$$$
