
 OpenBabel10282417143D

  7  6  0  0  0  0  0  0  0  0999 V2000
    1.0216    0.0496   -0.0377 C   0  0  0  0  0  0  0  0  0  0  0  0
    0.8789    0.1903    2.2043 N   0  0  0  0  0  0  0  0  0  0  0  0
    0.5105    0.7403    1.1484 N   0  0  0  0  0  0  0  0  0  0  0  0
    0.5185    0.6775    3.0351 H   0  0  0  0  0  0  0  0  0  0  0  0
    0.6719    0.5688   -0.9348 H   0  0  0  0  0  0  0  0  0  0  0  0
    0.6584   -0.9827   -0.0778 H   0  0  0  0  0  0  0  0  0  0  0  0
    2.1166    0.0480   -0.0496 H   0  0  0  0  0  0  0  0  0  0  0  0
  1  5  1  0  0  0  0
  1  6  1  0  0  0  0
  1  7  1  0  0  0  0
  3  1  1  0  0  0  0
  3  2  2  0  0  0  0
  4  2  1  0  0  0  0
M  END
>  <DRUGBANK_ID>
DB04361

>  <SECONDARY_ACCESSION_NUMBERS>
EXPT01715

>  <COMMON_NAME>
Methyldiazene

>  <CAS_NUMBER>
26981-93-1

>  <SYNONYMS>
Diazene, methyl- (9CI); Methyldiimide

$$$$
