FC2
 OpenBabel10282417163D

 22 23  0  0  0  0  0  0  0  0999 V2000
   -1.1119    0.0660   -0.0439 O   0  0  0  0  0  0  0  0  0  0  0  0
   -0.2270    1.1364   -0.0262 C   0  0  0  0  0  0  0  0  0  0  0  0
   -0.6171    2.5355   -0.0249 C   0  0  0  0  0  0  0  0  0  0  0  0
   -1.9514    2.7639   -0.0266 O   0  0  0  0  0  0  0  0  0  0  0  0
    1.0698    0.6561   -0.0134 C   0  0  0  0  0  0  0  0  0  0  0  0
    1.0027   -0.7431   -0.0254 C   0  0  0  0  0  0  0  0  0  0  0  0
   -0.3350   -1.0806   -0.0218 C   0  0  0  0  0  0  0  0  0  0  0  0
    0.1859    3.4664   -0.0257 O   0  0  0  0  0  0  0  0  0  0  0  0
   -0.9594   -2.4078    0.0295 C   0  0  0  0  0  0  0  0  0  0  0  0
   -0.6334   -3.3289    1.0528 C   0  0  0  0  0  0  0  0  0  0  0  0
   -1.0859   -4.6555    1.0113 C   0  0  0  0  0  0  0  0  0  0  0  0
   -1.8736   -5.0906   -0.0502 C   0  0  0  0  0  0  0  0  0  0  0  0
   -2.2087   -4.1939   -1.0631 C   0  0  0  0  0  0  0  0  0  0  0  0
   -1.7564   -2.8655   -1.0331 C   0  0  0  0  0  0  0  0  0  0  0  0
    0.3451   -2.8948    2.4165 Cl  0  0  0  0  0  0  0  0  0  0  0  0
   -3.1792   -4.7441   -2.3749 Cl  0  0  0  0  0  0  0  0  0  0  0  0
   -2.4860    1.9500   -0.0169 H   0  0  0  0  0  0  0  0  0  0  0  0
    1.9575    1.2742    0.0067 H   0  0  0  0  0  0  0  0  0  0  0  0
    1.8302   -1.4393   -0.0097 H   0  0  0  0  0  0  0  0  0  0  0  0
   -0.8197   -5.3544    1.8022 H   0  0  0  0  0  0  0  0  0  0  0  0
   -2.2173   -6.1228   -0.0797 H   0  0  0  0  0  0  0  0  0  0  0  0
   -1.9941   -2.2055   -1.8640 H   0  0  0  0  0  0  0  0  0  0  0  0
  1  2  1  0  0  0  0
  1  7  1  0  0  0  0
  2  3  1  0  0  0  0
  2  5  2  0  0  0  0
  3  4  1  0  0  0  0
  3  8  2  0  0  0  0
  4 17  1  0  0  0  0
  5  6  1  0  0  0  0
  5 18  1  0  0  0  0
  6  7  2  0  0  0  0
  6 19  1  0  0  0  0
  7  9  1  0  0  0  0
  9 10  1  0  0  0  0
  9 14  2  0  0  0  0
 10 11  2  0  0  0  0
 10 15  1  0  0  0  0
 11 12  1  0  0  0  0
 11 20  1  0  0  0  0
 12 13  2  0  0  0  0
 12 21  1  0  0  0  0
 13 14  1  0  0  0  0
 13 16  1  0  0  0  0
 14 22  1  0  0  0  0
M  END
>  <DRUGBANK_ID>
DB07758

>  <COMMON_NAME>
5-(2,5-DICHLOROPHENYL)-2-FUROIC ACID

$$$$
