235
 OpenBabel10282417163D

 57 58  0  0  0  0  0  0  0  0999 V2000
    1.3725   -0.2111    0.0198 C   0  0  0  0  0  0  0  0  0  0  0  0
    0.8618    1.0827    0.0215 C   0  0  0  0  0  0  0  0  0  0  0  0
   -0.5164    1.2782    0.0481 C   0  0  0  0  0  0  0  0  0  0  0  0
   -1.3845    0.1814    0.0183 C   0  0  0  0  0  0  0  0  0  0  0  0
   -0.8799   -1.1229   -0.0119 C   0  0  0  0  0  0  0  0  0  0  0  0
    0.5026   -1.3103   -0.0144 C   0  0  0  0  0  0  0  0  0  0  0  0
    1.2030   -2.9257   -0.2429 S   0  0  0  0  0  0  0  0  0  0  0  0
    0.5615   -3.5586   -1.3619 O   0  0  0  0  0  0  0  0  0  0  0  0
    2.6411   -2.7325   -0.1826 O   0  0  0  0  0  0  0  0  0  0  0  0
    0.7654   -3.7614    1.1509 N   0  0  0  0  0  0  0  0  0  0  0  0
    1.2023   -5.2172    1.3151 C   0  0  1  0  0  0  0  0  0  0  0  0
    2.7421   -5.2530    1.3094 C   0  0  0  0  0  0  0  0  0  0  0  0
    3.3630   -4.4101    2.4429 C   0  0  0  0  0  0  0  0  0  0  0  0
    3.2570   -6.6787    1.2560 C   0  0  0  0  0  0  0  0  0  0  0  0
    0.5303   -5.7921    2.9292 P   0  0  2  0  0  0  0  0  0  0  0  0
    1.4521   -5.7237    4.1084 O   0  0  0  0  0  0  0  0  0  0  0  0
   -0.0072   -7.3047    2.9150 O   0  0  0  0  0  0  0  0  0  0  0  0
   -0.8996   -4.7729    3.2000 C   0  0  0  0  0  0  0  0  0  0  0  0
   -2.2626   -5.4331    3.1635 C   0  0  2  0  0  0  0  0  0  0  0  0
   -3.2926   -4.3468    3.2863 C   0  0  0  0  0  0  0  0  0  0  0  0
   -4.1274   -4.0503    2.4483 O   0  0  0  0  0  0  0  0  0  0  0  0
   -3.1879   -3.6653    4.4460 O   0  0  0  0  0  0  0  0  0  0  0  0
   -2.4180   -6.4935    4.2269 C   0  0  0  0  0  0  0  0  0  0  0  0
   -3.1113   -7.6675    3.9141 C   0  0  0  0  0  0  0  0  0  0  0  0
   -1.7047   -6.4065    5.4335 C   0  0  0  0  0  0  0  0  0  0  0  0
   -1.5100   -7.5380    6.2053 C   0  0  0  0  0  0  0  0  0  0  0  0
   -2.1913   -8.7055    5.8907 C   0  0  0  0  0  0  0  0  0  0  0  0
   -3.0152   -8.7761    4.7570 C   0  0  0  0  0  0  0  0  0  0  0  0
   -3.7339  -10.0528    4.4234 C   0  0  0  0  0  0  0  0  0  0  0  0
   -2.7976  -11.1605    4.2863 N   0  0  0  0  0  0  0  0  0  0  0  0
    0.7625   -5.7952    0.4859 H   0  0  0  0  0  0  0  0  0  0  0  0
   -2.3701   -5.8985    2.1718 H   0  0  0  0  0  0  0  0  0  0  0  0
    2.4520   -0.3507    0.0061 H   0  0  0  0  0  0  0  0  0  0  0  0
    1.5396    1.9319   -0.0263 H   0  0  0  0  0  0  0  0  0  0  0  0
   -0.9139    2.2900    0.0797 H   0  0  0  0  0  0  0  0  0  0  0  0
   -2.4582    0.3526   -0.0155 H   0  0  0  0  0  0  0  0  0  0  0  0
   -1.5611   -1.9683   -0.0630 H   0  0  0  0  0  0  0  0  0  0  0  0
    0.9947   -3.2154    1.9837 H   0  0  0  0  0  0  0  0  0  0  0  0
    3.0991   -4.8242    0.3728 H   0  0  0  0  0  0  0  0  0  0  0  0
    3.2246   -4.8171    3.4407 H   0  0  0  0  0  0  0  0  0  0  0  0
    4.4427   -4.3306    2.3252 H   0  0  0  0  0  0  0  0  0  0  0  0
    2.9566   -3.3926    2.4720 H   0  0  0  0  0  0  0  0  0  0  0  0
    2.9005   -7.1604    0.3366 H   0  0  0  0  0  0  0  0  0  0  0  0
    4.3500   -6.6750    1.2234 H   0  0  0  0  0  0  0  0  0  0  0  0
    2.9245   -7.2757    2.1063 H   0  0  0  0  0  0  0  0  0  0  0  0
   -0.1462   -7.5488    3.8686 H   0  0  0  0  0  0  0  0  0  0  0  0
   -0.6885   -4.2602    4.1429 H   0  0  0  0  0  0  0  0  0  0  0  0
   -0.9522   -3.9604    2.4806 H   0  0  0  0  0  0  0  0  0  0  0  0
   -3.9453   -3.0482    4.4574 H   0  0  0  0  0  0  0  0  0  0  0  0
   -3.6585   -7.7446    2.9744 H   0  0  0  0  0  0  0  0  0  0  0  0
   -1.1780   -5.4991    5.7199 H   0  0  0  0  0  0  0  0  0  0  0  0
   -0.7777   -7.5223    7.0076 H   0  0  0  0  0  0  0  0  0  0  0  0
   -2.0537   -9.5849    6.5148 H   0  0  0  0  0  0  0  0  0  0  0  0
   -4.4529  -10.2619    5.2220 H   0  0  0  0  0  0  0  0  0  0  0  0
   -4.3017   -9.9424    3.4924 H   0  0  0  0  0  0  0  0  0  0  0  0
   -3.3087  -11.9981    4.0204 H   0  0  0  0  0  0  0  0  0  0  0  0
   -2.1536  -10.9552    3.5230 H   0  0  0  0  0  0  0  0  0  0  0  0
  1  6  1  0  0  0  0
  1  2  2  0  0  0  0
  1 33  1  0  0  0  0
  2  3  1  0  0  0  0
  2 34  1  0  0  0  0
  3  4  2  0  0  0  0
  3 35  1  0  0  0  0
  4  5  1  0  0  0  0
  4 36  1  0  0  0  0
  5  6  2  0  0  0  0
  5 37  1  0  0  0  0
  6  7  1  0  0  0  0
  7 10  1  0  0  0  0
  7  8  2  0  0  0  0
  7  9  2  0  0  0  0
 10 38  1  0  0  0  0
 11 10  1  0  0  0  0
 11 12  1  0  0  0  0
 11 15  1  0  0  0  0
 11 31  1  6  0  0  0
 12 13  1  0  0  0  0
 12 14  1  0  0  0  0
 12 39  1  0  0  0  0
 13 40  1  0  0  0  0
 13 41  1  0  0  0  0
 13 42  1  0  0  0  0
 14 43  1  0  0  0  0
 14 44  1  0  0  0  0
 14 45  1  0  0  0  0
 15 16  2  1  0  0  0
 15 18  1  0  0  0  0
 15 17  1  0  0  0  0
 17 46  1  0  0  0  0
 18 19  1  0  0  0  0
 18 47  1  0  0  0  0
 18 48  1  0  0  0  0
 19 23  1  0  0  0  0
 19 20  1  0  0  0  0
 19 32  1  6  0  0  0
 20 21  2  0  0  0  0
 20 22  1  0  0  0  0
 22 49  1  0  0  0  0
 23 24  2  0  0  0  0
 23 25  1  0  0  0  0
 24 28  1  0  0  0  0
 24 50  1  0  0  0  0
 25 26  2  0  0  0  0
 25 51  1  0  0  0  0
 26 27  1  0  0  0  0
 26 52  1  0  0  0  0
 27 28  2  0  0  0  0
 27 53  1  0  0  0  0
 28 29  1  0  0  0  0
 29 30  1  0  0  0  0
 29 54  1  0  0  0  0
 29 55  1  0  0  0  0
 30 56  1  0  0  0  0
 30 57  1  0  0  0  0
M  END
>  <DRUGBANK_ID>
DB06921

>  <COMMON_NAME>
(2S)-2-[3-(AMINOMETHYL)PHENYL]-3-[(R)-HYDROXY{(1R)-2-METHYL-1-[(PHENYLSULFONYL)AMINO]PROPYL}PHOSPHORYL]PROPANOIC ACID

$$$$
