
 OpenBabel10282417133D

 38 39  0  0  0  0  0  0  0  0999 V2000
    1.1129   -0.0066   -0.1996 C   0  0  0  0  0  0  0  0  0  0  0  0
    0.2967    0.7662    0.8582 C   0  0  2  0  0  0  0  0  0  0  0  0
   -1.1549    0.4999    1.2646 C   0  0  1  0  0  0  0  0  0  0  0  0
   -1.6289    0.7074    2.6894 C   0  0  0  0  0  0  0  0  0  0  0  0
   -0.8222    1.6882    0.3902 C   0  0  0  0  0  0  0  0  0  0  0  0
   -1.4168    1.6549   -1.2655 Cl  0  0  0  0  0  0  0  0  0  0  0  0
   -0.8954    3.3305    1.0583 Cl  0  0  0  0  0  0  0  0  0  0  0  0
    1.1384    1.1310    2.0104 C   0  0  0  0  0  0  0  0  0  0  0  0
    1.6524   -0.2022    2.5902 C   0  0  0  0  0  0  0  0  0  0  0  0
    0.5591   -0.7780   -0.9555 O   0  0  0  0  0  0  0  0  0  0  0  0
    2.5435    0.0681   -0.2114 N   0  0  0  0  0  0  0  0  0  0  0  0
    3.6362    0.7209    0.6377 C   0  0  1  0  0  0  0  0  0  0  0  0
    4.4945   -0.2003    1.5117 C   0  0  0  0  0  0  0  0  0  0  0  0
    4.2763   -1.5829    1.5532 C   0  0  0  0  0  0  0  0  0  0  0  0
    4.7955   -2.3555    2.5943 C   0  0  0  0  0  0  0  0  0  0  0  0
    5.6105   -1.7736    3.5620 C   0  0  0  0  0  0  0  0  0  0  0  0
    6.3129   -2.7585    4.7828 Cl  0  0  0  0  0  0  0  0  0  0  0  0
    5.8511   -0.4044    3.5494 C   0  0  0  0  0  0  0  0  0  0  0  0
    5.2751    0.3809    2.5476 C   0  0  0  0  0  0  0  0  0  0  0  0
    4.3534    1.8192   -0.1131 C   0  0  0  0  0  0  0  0  0  0  0  0
   -1.6607   -0.3519    0.8275 H   0  0  0  0  0  0  0  0  0  0  0  0
   -2.7089    0.8718    2.7176 H   0  0  0  0  0  0  0  0  0  0  0  0
   -1.4032   -0.1712    3.3032 H   0  0  0  0  0  0  0  0  0  0  0  0
   -1.1737    1.5657    3.1992 H   0  0  0  0  0  0  0  0  0  0  0  0
    1.7425    1.8552    1.4654 H   0  0  0  0  0  0  0  0  0  0  0  0
    0.8250    1.7844    2.8177 H   0  0  0  0  0  0  0  0  0  0  0  0
    1.8487   -0.9674    1.8264 H   0  0  0  0  0  0  0  0  0  0  0  0
    2.5512   -0.0648    3.1837 H   0  0  0  0  0  0  0  0  0  0  0  0
    0.9071   -0.7099    3.1976 H   0  0  0  0  0  0  0  0  0  0  0  0
    2.9125   -0.5990   -0.8786 H   0  0  0  0  0  0  0  0  0  0  0  0
    3.2479    1.3025    1.4524 H   0  0  0  0  0  0  0  0  0  0  0  0
    3.5780   -2.0551    0.8664 H   0  0  0  0  0  0  0  0  0  0  0  0
    4.5200   -3.4045    2.6614 H   0  0  0  0  0  0  0  0  0  0  0  0
    6.4453    0.0616    4.3326 H   0  0  0  0  0  0  0  0  0  0  0  0
    5.3576    1.4650    2.6468 H   0  0  0  0  0  0  0  0  0  0  0  0
    3.6259    2.4326   -0.6553 H   0  0  0  0  0  0  0  0  0  0  0  0
    4.8627    2.4916    0.5920 H   0  0  0  0  0  0  0  0  0  0  0  0
    5.0887    1.3972   -0.7921 H   0  0  0  0  0  0  0  0  0  0  0  0
  1 10  2  0  0  0  0
  1 11  1  0  0  0  0
  2  1  1  6  0  0  0
  2  3  1  0  0  0  0
  2  5  1  0  0  0  0
  2  8  1  0  0  0  0
  3  4  1  0  0  0  0
  3 21  1  6  0  0  0
  4 22  1  0  0  0  0
  4 23  1  0  0  0  0
  4 24  1  0  0  0  0
  5  3  1  0  0  0  0
  5  6  1  0  0  0  0
  5  7  1  0  0  0  0
  8  9  1  0  0  0  0
  8 25  1  0  0  0  0
  8 26  1  0  0  0  0
  9 27  1  0  0  0  0
  9 28  1  0  0  0  0
  9 29  1  0  0  0  0
 11 12  1  0  0  0  0
 11 30  1  0  0  0  0
 12 13  1  0  0  0  0
 12 20  1  0  0  0  0
 12 31  1  1  0  0  0
 13 14  1  0  0  0  0
 13 19  2  0  0  0  0
 14 15  2  0  0  0  0
 14 32  1  0  0  0  0
 15 16  1  0  0  0  0
 15 33  1  0  0  0  0
 16 17  1  0  0  0  0
 18 16  2  0  0  0  0
 18 34  1  0  0  0  0
 19 18  1  0  0  0  0
 19 35  1  0  0  0  0
 20 36  1  0  0  0  0
 20 37  1  0  0  0  0
 20 38  1  0  0  0  0
M  END
>  <DRUGBANK_ID>
DB02946

>  <SECONDARY_ACCESSION_NUMBERS>
EXPT01898

>  <COMMON_NAME>
Carpropamide

>  <CAS_NUMBER>
127640-90-8

>  <UNII>
4748U7LZ6E

>  <SYNONYMS>
(1S,3R)-2,2-dichloro-N-[(1R)-1-(4-chlorophenyl)ethyl]-1-ethyl-3-methylcyclopropanecarboxamide

$$$$
