QUA
 OpenBabel10282417123D

 30 31  0  0  0  0  0  0  0  0999 V2000
    1.1033    0.1606    0.0082 O   0  0  0  0  0  0  0  0  0  0  0  0
    2.3260    0.0984   -0.0404 C   0  0  0  0  0  0  0  0  0  0  0  0
    3.1545    1.0029   -0.8970 C   0  0  0  0  0  0  0  0  0  0  0  0
    4.2906    0.4850   -1.4312 N   0  0  0  0  0  0  0  0  0  0  0  0
    2.7513    2.3226   -1.0805 C   0  0  0  0  0  0  0  0  0  0  0  0
    5.0447    1.3314   -2.2090 C   0  0  0  0  0  0  0  0  0  0  0  0
    3.5589    3.1944   -1.8368 C   0  0  0  0  0  0  0  0  0  0  0  0
    6.2692    0.7169   -2.8679 C   0  0  1  0  0  0  0  0  0  0  0  0
    4.7428    2.6882   -2.4102 C   0  0  0  0  0  0  0  0  0  0  0  0
    5.8832   -0.3919   -3.6925 O   0  0  0  0  0  0  0  0  0  0  0  0
    7.1647    1.6456   -3.7045 C   0  0  0  0  0  0  0  0  0  0  0  0
    3.1266    4.6376   -2.0220 C   0  0  1  0  0  0  0  0  0  0  0  0
    4.1117    5.5152   -1.4769 O   0  0  0  0  0  0  0  0  0  0  0  0
    5.6525    3.5367   -3.1901 C   0  0  0  0  0  0  0  0  0  0  0  0
    2.8578    4.9929   -3.4872 C   0  0  0  0  0  0  0  0  0  0  0  0
    6.7263    3.0605   -3.8167 C   0  0  0  0  0  0  0  0  0  0  0  0
    3.0544   -0.7379    0.7342 O   0  0  0  0  0  0  0  0  0  0  0  0
    6.8784    0.3043   -2.0565 H   0  0  0  0  0  0  0  0  0  0  0  0
    2.2101    4.8327   -1.4555 H   0  0  0  0  0  0  0  0  0  0  0  0
    1.8263    2.6661   -0.6218 H   0  0  0  0  0  0  0  0  0  0  0  0
    5.0614   -0.7495   -3.3111 H   0  0  0  0  0  0  0  0  0  0  0  0
    8.1526    1.6774   -3.2302 H   0  0  0  0  0  0  0  0  0  0  0  0
    7.3059    1.2468   -4.7148 H   0  0  0  0  0  0  0  0  0  0  0  0
    4.3121    5.2096   -0.5747 H   0  0  0  0  0  0  0  0  0  0  0  0
    5.4773    4.6039   -3.2665 H   0  0  0  0  0  0  0  0  0  0  0  0
    2.0596    4.3698   -3.8983 H   0  0  0  0  0  0  0  0  0  0  0  0
    2.5989    6.0505   -3.5840 H   0  0  0  0  0  0  0  0  0  0  0  0
    3.7167    4.8570   -4.1491 H   0  0  0  0  0  0  0  0  0  0  0  0
    7.3410    3.7403   -4.4032 H   0  0  0  0  0  0  0  0  0  0  0  0
    4.0186   -0.6565    0.5836 H   0  0  0  0  0  0  0  0  0  0  0  0
  1  2  2  0  0  0  0
  2  3  1  0  0  0  0
  2 17  1  0  0  0  0
  3  4  2  0  0  0  0
  3  5  1  0  0  0  0
  4  6  1  0  0  0  0
  5  7  2  0  0  0  0
  5 20  1  0  0  0  0
  6  8  1  0  0  0  0
  6  9  2  0  0  0  0
  7  9  1  0  0  0  0
  7 12  1  0  0  0  0
  8 11  1  0  0  0  0
  8 18  1  1  0  0  0
  8 10  1  0  0  0  0
  9 14  1  0  0  0  0
 10 21  1  0  0  0  0
 11 16  1  0  0  0  0
 11 22  1  0  0  0  0
 11 23  1  0  0  0  0
 12 13  1  0  0  0  0
 12 15  1  0  0  0  0
 12 19  1  1  0  0  0
 13 24  1  0  0  0  0
 14 16  2  0  0  0  0
 14 25  1  0  0  0  0
 15 26  1  0  0  0  0
 15 27  1  0  0  0  0
 15 28  1  0  0  0  0
 16 29  1  0  0  0  0
 17 30  1  0  0  0  0
M  END
>  <DRUGBANK_ID>
DB02566

>  <SECONDARY_ACCESSION_NUMBERS>
EXPT02731

>  <COMMON_NAME>
8-Hydroxy-4-(1-Hydroxyethyl)Quinoline-2-Carboxylic Acid

$$$$
