
 OpenBabel10282417213D

 58 57  0  0  0  0  0  0  0  0999 V2000
    1.0028    0.0714    0.0324 C   0  0  0  0  0  0  0  0  0  0  0  0
    0.5224   -1.2465   -0.5624 C   0  0  0  0  0  0  0  0  0  0  0  0
    1.0156   -2.4604    0.2244 C   0  0  0  0  0  0  0  0  0  0  0  0
    0.4555   -2.5849    1.6410 C   0  0  0  0  0  0  0  0  0  0  0  0
   -1.0719   -2.4410    1.6615 C   0  0  0  0  0  0  0  0  0  0  0  0
   -1.6843   -3.7177    1.1053 C   0  0  0  0  0  0  0  0  0  0  0  0
   -1.2131   -4.9422    1.8883 C   0  0  0  0  0  0  0  0  0  0  0  0
   -1.5766   -4.7996    3.3574 C   0  0  0  0  0  0  0  0  0  0  0  0
   -2.4356   -5.7643    3.8116 N   0  0  0  0  0  0  0  0  0  0  0  0
   -2.9256   -5.7107    5.1782 C   0  0  0  0  0  0  0  0  0  0  0  0
   -4.4470   -5.6999    5.1917 C   0  0  0  0  0  0  0  0  0  0  0  0
   -1.1707   -3.9045    4.0741 O   0  0  0  0  0  0  0  0  0  0  0  0
   -4.9474   -6.9052    4.6166 O   0  0  0  0  0  0  0  0  0  0  0  0
    0.5611    0.3284    1.4709 C   0  0  0  0  0  0  0  0  0  0  0  0
    1.0457    1.6237    2.0531 C   0  0  0  0  0  0  0  0  0  0  0  0
    0.4458    2.7659    1.2768 C   0  0  0  0  0  0  0  0  0  0  0  0
   -1.0884    2.6900    1.3195 C   0  0  0  0  0  0  0  0  0  0  0  0
   -1.6053    2.7492    2.7654 C   0  0  0  0  0  0  0  0  0  0  0  0
   -1.1460    4.0426    3.4459 C   0  0  0  0  0  0  0  0  0  0  0  0
   -1.6208    5.2717    2.6688 C   0  0  0  0  0  0  0  0  0  0  0  0
   -3.1391    5.3000    2.6000 C   0  0  0  0  0  0  0  0  0  0  0  0
    0.6355    0.8609   -0.6301 H   0  0  0  0  0  0  0  0  0  0  0  0
    2.0960    0.0998   -0.0017 H   0  0  0  0  0  0  0  0  0  0  0  0
   -0.5692   -1.2387   -0.6691 H   0  0  0  0  0  0  0  0  0  0  0  0
    0.8918   -1.3199   -1.5926 H   0  0  0  0  0  0  0  0  0  0  0  0
    0.7438   -3.3631   -0.3347 H   0  0  0  0  0  0  0  0  0  0  0  0
    2.1091   -2.4475    0.2655 H   0  0  0  0  0  0  0  0  0  0  0  0
    0.8148   -3.5139    2.0772 H   0  0  0  0  0  0  0  0  0  0  0  0
    0.9239   -1.9461    2.3741 H   0  0  0  0  0  0  0  0  0  0  0  0
   -1.4274   -2.2056    2.6689 H   0  0  0  0  0  0  0  0  0  0  0  0
   -1.4553   -1.5946    1.0851 H   0  0  0  0  0  0  0  0  0  0  0  0
   -2.7754   -3.6376    1.1135 H   0  0  0  0  0  0  0  0  0  0  0  0
   -1.3931   -3.8194    0.0517 H   0  0  0  0  0  0  0  0  0  0  0  0
   -1.6251   -5.8450    1.4371 H   0  0  0  0  0  0  0  0  0  0  0  0
   -0.1309   -5.0890    1.8349 H   0  0  0  0  0  0  0  0  0  0  0  0
   -2.5770   -6.5948    3.2565 H   0  0  0  0  0  0  0  0  0  0  0  0
   -2.5277   -6.5908    5.6905 H   0  0  0  0  0  0  0  0  0  0  0  0
   -2.5572   -4.8159    5.6916 H   0  0  0  0  0  0  0  0  0  0  0  0
   -4.8146   -5.6313    6.2183 H   0  0  0  0  0  0  0  0  0  0  0  0
   -4.8428   -4.8522    4.6208 H   0  0  0  0  0  0  0  0  0  0  0  0
   -4.6478   -6.9136    3.6924 H   0  0  0  0  0  0  0  0  0  0  0  0
   -0.5196    0.1983    1.5849 H   0  0  0  0  0  0  0  0  0  0  0  0
    1.0402   -0.3287    2.1642 H   0  0  0  0  0  0  0  0  0  0  0  0
    0.7643    1.6450    3.1155 H   0  0  0  0  0  0  0  0  0  0  0  0
    2.1389    1.6370    2.0480 H   0  0  0  0  0  0  0  0  0  0  0  0
    0.8322    3.7005    1.6868 H   0  0  0  0  0  0  0  0  0  0  0  0
    0.7938    2.7422    0.2418 H   0  0  0  0  0  0  0  0  0  0  0  0
   -1.4981    3.4929    0.7032 H   0  0  0  0  0  0  0  0  0  0  0  0
   -1.4765    1.7858    0.8374 H   0  0  0  0  0  0  0  0  0  0  0  0
   -2.6956    2.6600    2.7708 H   0  0  0  0  0  0  0  0  0  0  0  0
   -1.2750    1.8859    3.3549 H   0  0  0  0  0  0  0  0  0  0  0  0
   -1.5167    4.0726    4.4749 H   0  0  0  0  0  0  0  0  0  0  0  0
   -0.0528    4.0655    3.5340 H   0  0  0  0  0  0  0  0  0  0  0  0
   -1.2420    6.1786    3.1466 H   0  0  0  0  0  0  0  0  0  0  0  0
   -1.2068    5.2847    1.6534 H   0  0  0  0  0  0  0  0  0  0  0  0
   -3.5540    5.3260    3.6115 H   0  0  0  0  0  0  0  0  0  0  0  0
   -3.4851    6.1706    2.0425 H   0  0  0  0  0  0  0  0  0  0  0  0
   -3.5467    4.4192    2.0927 H   0  0  0  0  0  0  0  0  0  0  0  0
  1  2  1  0  0  0  0
  1 14  1  0  0  0  0
  1 22  1  0  0  0  0
  1 23  1  0  0  0  0
  2  3  1  0  0  0  0
  2 24  1  0  0  0  0
  2 25  1  0  0  0  0
  3  4  1  0  0  0  0
  3 26  1  0  0  0  0
  3 27  1  0  0  0  0
  4  5  1  0  0  0  0
  4 28  1  0  0  0  0
  4 29  1  0  0  0  0
  5  6  1  0  0  0  0
  5 30  1  0  0  0  0
  5 31  1  0  0  0  0
  6  7  1  0  0  0  0
  6 32  1  0  0  0  0
  6 33  1  0  0  0  0
  7  8  1  0  0  0  0
  7 34  1  0  0  0  0
  7 35  1  0  0  0  0
  8  9  1  0  0  0  0
  8 12  2  0  0  0  0
  9 10  1  0  0  0  0
  9 36  1  0  0  0  0
 10 11  1  0  0  0  0
 10 37  1  0  0  0  0
 10 38  1  0  0  0  0
 11 13  1  0  0  0  0
 11 39  1  0  0  0  0
 11 40  1  0  0  0  0
 13 41  1  0  0  0  0
 14 15  1  0  0  0  0
 14 42  1  0  0  0  0
 14 43  1  0  0  0  0
 15 16  1  0  0  0  0
 15 44  1  0  0  0  0
 15 45  1  0  0  0  0
 16 17  1  0  0  0  0
 16 46  1  0  0  0  0
 16 47  1  0  0  0  0
 17 18  1  0  0  0  0
 17 48  1  0  0  0  0
 17 49  1  0  0  0  0
 18 19  1  0  0  0  0
 18 50  1  0  0  0  0
 18 51  1  0  0  0  0
 19 20  1  0  0  0  0
 19 52  1  0  0  0  0
 19 53  1  0  0  0  0
 20 21  1  0  0  0  0
 20 54  1  0  0  0  0
 20 55  1  0  0  0  0
 21 56  1  0  0  0  0
 21 57  1  0  0  0  0
 21 58  1  0  0  0  0
M  END
>  <DRUGBANK_ID>
DB14043

>  <COMMON_NAME>
Palmidrol

>  <CAS_NUMBER>
544-31-0

>  <UNII>
6R8T1UDM3V

>  <SYNONYMS>
Hydroxyethylpalmitamide; Monoethanolamine palmitic acid amide; N-(2-Hydroxyethyl)palmitamide; N-hexadecanoylethanolamine; N-palmitoylethanolamine; Palmidrol; palmidrolum; Palmitamide MEA; Palmitic acid monoethanolamide; Palmitinsaeure-beta-hydroxyethylamid; Palmitoyl ethanolamide; Palmitoyl-EA; Palmitoylethanolamide

$$$$
