
 OpenBabel10282417243D

 66 67  0  0  1  0  0  0  0  0999 V2000
    0.7956   -0.0258   -0.3302 C   0  0  0  0  0  0  0  0  0  0  0  0
   -0.1610   -0.3820    0.7600 C   0  0  0  0  0  0  0  0  0  0  0  0
   -0.8625    0.3702    1.3557 O   0  0  0  0  0  0  0  0  0  0  0  0
    0.1031   -1.6295    1.1437 O   0  0  0  0  0  0  0  0  0  0  0  0
    0.0035   -1.8377    2.5427 C   0  0  0  0  0  0  0  0  0  0  0  0
    0.6083   -0.7185    3.8527 C   0  0  1  0  0  0  0  0  0  0  0  0
    1.9724   -0.5109    4.1437 O   0  0  0  0  0  0  0  0  0  0  0  0
    2.5362   -0.2416    5.3785 C   0  0  1  0  0  0  0  0  0  0  0  0
    3.9490   -0.5907    5.4456 O   0  0  0  0  0  0  0  0  0  0  0  0
    4.7725   -0.4620    4.2959 C   0  0  0  0  0  0  0  0  0  0  0  0
    4.5099   -1.5557    3.1941 C   0  0  0  0  0  0  0  0  0  0  0  0
    3.0112   -1.7973    2.8022 N   0  3  0  0  0  0  0  0  0  0  0  0
    2.8069   -0.1339    2.2246 C   0  0  0  0  0  0  0  0  0  0  0  0
    2.8470   -2.5452    1.5598 C   0  0  0  0  0  0  0  0  0  0  0  0
    2.2378   -2.6714    4.2941 C   0  0  0  0  0  0  0  0  0  0  0  0
    1.5494   -3.9862    4.5038 C   0  0  0  0  0  0  0  0  0  0  0  0
    0.5366   -2.9730    4.7243 C   0  0  0  0  0  0  0  0  0  0  0  0
    2.2757    1.1861    5.5410 C   0  0  2  0  0  0  0  0  0  0  0  0
    2.5059    1.6022    6.8929 O   0  0  0  0  0  0  0  0  0  0  0  0
    3.1643    0.9795    7.8937 C   0  0  0  0  0  0  0  0  0  0  0  0
    3.3669   -0.5273    8.0417 C   0  0  0  0  0  0  0  0  0  0  0  0
    3.5235    1.6879    8.8323 O   0  0  0  0  0  0  0  0  0  0  0  0
    0.7998    1.4634    5.0541 C   0  0  1  0  0  0  0  0  0  0  0  0
    0.6645    2.8323    4.6225 O   0  0  0  0  0  0  0  0  0  0  0  0
    1.1216    3.4066    3.4865 C   0  0  0  0  0  0  0  0  0  0  0  0
    2.4283    3.0296    2.8441 C   0  0  0  0  0  0  0  0  0  0  0  0
    0.4964    4.3434    3.0038 O   0  0  0  0  0  0  0  0  0  0  0  0
    0.0701    0.6216    3.9509 C   0  0  2  0  0  0  0  0  0  0  0  0
   -1.3553    0.4850    4.0510 O   0  0  0  0  0  0  0  0  0  0  0  0
   -2.0913   -0.1782    4.9534 C   0  0  0  0  0  0  0  0  0  0  0  0
   -1.5163   -0.6200    6.2652 C   0  0  0  0  0  0  0  0  0  0  0  0
   -3.2940   -0.4048    4.7014 O   0  0  0  0  0  0  0  0  0  0  0  0
    0.6339    1.0334   -0.4967 H   0  0  0  0  0  0  0  0  0  0  0  0
    0.5924   -0.6489   -1.1928 H   0  0  0  0  0  0  0  0  0  0  0  0
    1.8466   -0.1546   -0.0517 H   0  0  0  0  0  0  0  0  0  0  0  0
   -1.0437   -2.1185    2.6922 H   0  0  0  0  0  0  0  0  0  0  0  0
    0.5101   -2.8310    2.5669 H   0  0  0  0  0  0  0  0  0  0  0  0
    0.3449   -1.0789    4.8052 H   0  0  0  0  0  0  0  0  0  0  0  0
    1.9930   -0.8048    6.1394 H   0  0  0  0  0  0  0  0  0  0  0  0
    4.7445    0.5854    3.9644 H   0  0  0  0  0  0  0  0  0  0  0  0
    5.8315   -0.5656    4.5805 H   0  0  0  0  0  0  0  0  0  0  0  0
    4.9935   -1.1916    2.2766 H   0  0  0  0  0  0  0  0  0  0  0  0
    4.8786   -2.5323    3.4706 H   0  0  0  0  0  0  0  0  0  0  0  0
    3.4744    0.1061    1.3958 H   0  0  0  0  0  0  0  0  0  0  0  0
    1.7824    0.1342    2.0105 H   0  0  0  0  0  0  0  0  0  0  0  0
    3.1634    0.5194    2.9992 H   0  0  0  0  0  0  0  0  0  0  0  0
    2.9472   -3.5944    1.7597 H   0  0  0  0  0  0  0  0  0  0  0  0
    1.8600   -2.3463    1.2556 H   0  0  0  0  0  0  0  0  0  0  0  0
    3.4081   -2.0712    0.7507 H   0  0  0  0  0  0  0  0  0  0  0  0
    2.9186   -2.5447    5.1356 H   0  0  0  0  0  0  0  0  0  0  0  0
    1.4681   -4.6540    3.6784 H   0  0  0  0  0  0  0  0  0  0  0  0
    1.6767   -4.4167    5.4998 H   0  0  0  0  0  0  0  0  0  0  0  0
    0.0812   -2.6658    5.6834 H   0  0  0  0  0  0  0  0  0  0  0  0
   -0.4508   -2.8720    4.2410 H   0  0  0  0  0  0  0  0  0  0  0  0
    3.0140    1.7269    4.9659 H   0  0  0  0  0  0  0  0  0  0  0  0
    4.4141   -0.6811    8.3135 H   0  0  0  0  0  0  0  0  0  0  0  0
    2.6471   -0.8908    8.7733 H   0  0  0  0  0  0  0  0  0  0  0  0
    3.2753   -1.2871    7.2731 H   0  0  0  0  0  0  0  0  0  0  0  0
    0.2000    1.3361    5.9558 H   0  0  0  0  0  0  0  0  0  0  0  0
    2.3015    2.7795    1.7843 H   0  0  0  0  0  0  0  0  0  0  0  0
    3.1406    3.8452    2.9701 H   0  0  0  0  0  0  0  0  0  0  0  0
    2.9532    2.2149    3.2801 H   0  0  0  0  0  0  0  0  0  0  0  0
    0.3023    1.0776    3.0027 H   0  0  0  0  0  0  0  0  0  0  0  0
   -1.8671    0.0374    7.0565 H   0  0  0  0  0  0  0  0  0  0  0  0
   -1.8151   -1.6580    6.4508 H   0  0  0  0  0  0  0  0  0  0  0  0
   -0.4348   -0.6074    6.3477 H   0  0  0  0  0  0  0  0  0  0  0  0
  1  2  1  0  0  0  0
  1 33  1  0  0  0  0
  1 34  1  0  0  0  0
  1 35  1  0  0  0  0
  2  3  2  0  0  0  0
  2  4  1  0  0  0  0
  4  5  1  0  0  0  0
  5 36  1  0  0  0  0
  5 37  1  0  0  0  0
  6  5  1  0  0  0  0
  6  7  1  0  0  0  0
  6 38  1  1  0  0  0
  8  7  1  0  0  0  0
  8  9  1  0  0  0  0
  8 39  1  1  0  0  0
  9 10  1  0  0  0  0
 10 11  1  0  0  0  0
 10 40  1  0  0  0  0
 10 41  1  0  0  0  0
 11 12  1  0  0  0  0
 11 42  1  0  0  0  0
 11 43  1  0  0  0  0
 12 13  1  0  0  0  0
 12 14  1  0  0  0  0
 12 15  1  0  0  0  0
 13 44  1  0  0  0  0
 13 45  1  0  0  0  0
 13 46  1  0  0  0  0
 14 47  1  0  0  0  0
 14 48  1  0  0  0  0
 14 49  1  0  0  0  0
 15 16  1  0  0  0  0
 15 17  1  0  0  0  0
 15 50  1  0  0  0  0
 16 17  1  0  0  0  0
 16 51  1  0  0  0  0
 16 52  1  0  0  0  0
 17 53  1  0  0  0  0
 17 54  1  0  0  0  0
 18  8  1  0  0  0  0
 18 23  1  0  0  0  0
 18 55  1  6  0  0  0
 18 19  1  0  0  0  0
 19 20  1  0  0  0  0
 20 21  1  0  0  0  0
 20 22  2  0  0  0  0
 21 56  1  0  0  0  0
 21 57  1  0  0  0  0
 21 58  1  0  0  0  0
 23 28  1  0  0  0  0
 23 59  1  1  0  0  0
 23 24  1  0  0  0  0
 24 25  1  0  0  0  0
 25 26  1  0  0  0  0
 25 27  2  0  0  0  0
 26 60  1  0  0  0  0
 26 61  1  0  0  0  0
 26 62  1  0  0  0  0
 28  6  1  0  0  0  0
 28 29  1  0  0  0  0
 28 63  1  6  0  0  0
 29 30  1  0  0  0  0
 30 31  1  0  0  0  0
 30 32  2  0  0  0  0
 31 64  1  0  0  0  0
 31 65  1  0  0  0  0
 31 66  1  0  0  0  0
M  CHG  1  12   1
M  END
>  <DRUGBANK_ID>
DB18308

>  <COMMON_NAME>
N,N-dimethyl-N-(2-(((2R,3R,4S,5R,6R)-3,4,5-tris(acetyloxy)-6-((acetyloxy)methyl)oxan-2-yl)oxy)ethyl)cyclopropylammonium

>  <CAS_NUMBER>
2440155-89-3

>  <UNII>
J6QN4FZ2UG

$$$$
