
 OpenBabel10282417243D

 37 39  0  0  0  0  0  0  0  0999 V2000
    1.0450   -0.1524   -0.1787 C   0  0  0  0  0  0  0  0  0  0  0  0
    0.5625    1.2914   -0.0552 C   0  0  0  0  0  0  0  0  0  0  0  0
    1.0551    2.0660   -1.3158 C   0  0  0  0  0  0  0  0  0  0  0  0
   -0.9794    1.3509   -0.0371 C   0  0  0  0  0  0  0  0  0  0  0  0
    1.0729    1.9348    1.2373 C   0  0  0  0  0  0  0  0  0  0  0  0
    1.2488    3.2783    1.2228 C   0  0  0  0  0  0  0  0  0  0  0  0
    1.7436    3.9331    2.3302 C   0  0  0  0  0  0  0  0  0  0  0  0
    1.4879    3.4022    3.5998 C   0  0  0  0  0  0  0  0  0  0  0  0
    1.4124    2.0281    3.6690 C   0  0  0  0  0  0  0  0  0  0  0  0
    1.3267    1.2674    2.4641 C   0  0  0  0  0  0  0  0  0  0  0  0
    0.8412    4.4391    4.5164 C   0  0  0  0  0  0  0  0  0  0  0  0
   -0.2643    5.0566    4.0591 N   0  0  0  0  0  0  0  0  0  0  0  0
    0.2898    6.1525    3.4162 C   0  0  0  0  0  0  0  0  0  0  0  0
    0.0609    6.6389    2.1093 C   0  0  0  0  0  0  0  0  0  0  0  0
    1.0759    7.4043    1.5033 C   0  0  0  0  0  0  0  0  0  0  0  0
    2.2074    7.8035    2.2282 C   0  0  0  0  0  0  0  0  0  0  0  0
    2.4031    7.4179    3.5669 C   0  0  0  0  0  0  0  0  0  0  0  0
    1.4717    6.5039    4.0739 C   0  0  0  0  0  0  0  0  0  0  0  0
    1.5353    5.5329    5.0736 N   0  0  0  0  0  0  0  0  0  0  0  0
    0.7091   -0.6030   -1.1172 H   0  0  0  0  0  0  0  0  0  0  0  0
    0.6651   -0.7747    0.6376 H   0  0  0  0  0  0  0  0  0  0  0  0
    2.1407   -0.1918   -0.1533 H   0  0  0  0  0  0  0  0  0  0  0  0
    0.7389    1.5770   -2.2418 H   0  0  0  0  0  0  0  0  0  0  0  0
    0.6500    3.0845   -1.3780 H   0  0  0  0  0  0  0  0  0  0  0  0
    2.1485    2.1521   -1.3238 H   0  0  0  0  0  0  0  0  0  0  0  0
   -1.3924    0.8203    0.8282 H   0  0  0  0  0  0  0  0  0  0  0  0
   -1.3437    2.3860    0.0187 H   0  0  0  0  0  0  0  0  0  0  0  0
   -1.4052    0.9066   -0.9434 H   0  0  0  0  0  0  0  0  0  0  0  0
    0.9834    3.9216    0.3840 H   0  0  0  0  0  0  0  0  0  0  0  0
    1.9826    4.9539    2.1763 H   0  0  0  0  0  0  0  0  0  0  0  0
    1.3782    1.4920    4.6198 H   0  0  0  0  0  0  0  0  0  0  0  0
    1.3652    0.1906    2.5166 H   0  0  0  0  0  0  0  0  0  0  0  0
   -0.7256    6.1980    1.5022 H   0  0  0  0  0  0  0  0  0  0  0  0
    1.0292    7.6057    0.4326 H   0  0  0  0  0  0  0  0  0  0  0  0
    2.9976    8.3509    1.7122 H   0  0  0  0  0  0  0  0  0  0  0  0
    3.3287    7.6524    4.0804 H   0  0  0  0  0  0  0  0  0  0  0  0
    2.2473    5.4700    5.7844 H   0  0  0  0  0  0  0  0  0  0  0  0
  1  2  1  0  0  0  0
  1 20  1  0  0  0  0
  1 21  1  0  0  0  0
  1 22  1  0  0  0  0
  2  3  1  0  0  0  0
  2  4  1  0  0  0  0
  2  5  1  0  0  0  0
  3 23  1  0  0  0  0
  3 24  1  0  0  0  0
  3 25  1  0  0  0  0
  4 26  1  0  0  0  0
  4 27  1  0  0  0  0
  4 28  1  0  0  0  0
  5  6  2  0  0  0  0
  5 10  1  0  0  0  0
  6  7  1  0  0  0  0
  6 29  1  0  0  0  0
  7  8  2  0  0  0  0
  7 30  1  0  0  0  0
  8  9  1  0  0  0  0
  8 11  1  0  0  0  0
  9 10  2  0  0  0  0
  9 31  1  0  0  0  0
 10 32  1  0  0  0  0
 11 12  2  0  0  0  0
 11 19  1  0  0  0  0
 12 13  1  0  0  0  0
 13 14  2  0  0  0  0
 13 18  1  0  0  0  0
 14 15  1  0  0  0  0
 14 33  1  0  0  0  0
 15 16  2  0  0  0  0
 15 34  1  0  0  0  0
 16 17  1  0  0  0  0
 16 35  1  0  0  0  0
 17 18  2  0  0  0  0
 17 36  1  0  0  0  0
 18 19  1  0  0  0  0
 19 37  1  0  0  0  0
M  END
>  <DRUGBANK_ID>
DB18108

>  <COMMON_NAME>
TQS-168

>  <CAS_NUMBER>
49671-76-3

>  <UNII>
3WT26285WB

>  <SYNONYMS>
2-(4-Tert-butylphenyl)-1H-benzimidazole

$$$$
