
 OpenBabel10282417123D

 17 17  0  0  0  0  0  0  0  0999 V2000
    0.7576    0.0305    0.0531 O   0  0  0  0  0  0  0  0  0  0  0  0
    0.2516    0.6123    1.1539 C   0  0  0  0  0  0  0  0  0  0  0  0
    0.9575    0.9332    2.0932 O   0  0  0  0  0  0  0  0  0  0  0  0
   -1.2133    0.7071    1.0967 C   0  0  0  0  0  0  0  0  0  0  0  0
   -1.9545   -0.4566    0.8394 C   0  0  0  0  0  0  0  0  0  0  0  0
   -3.3454   -0.4110    0.8807 C   0  0  0  0  0  0  0  0  0  0  0  0
   -3.9533    0.8016    1.1769 C   0  0  0  0  0  0  0  0  0  0  0  0
   -3.2774    1.9578    1.4220 N   0  0  0  0  0  0  0  0  0  0  0  0
   -1.9031    1.8871    1.3789 C   0  0  0  0  0  0  0  0  0  0  0  0
   -1.1848    3.1950    1.5886 C   0  0  0  0  0  0  0  0  0  0  0  0
   -2.0081    4.2360    1.8729 O   0  0  0  0  0  0  0  0  0  0  0  0
    0.0171    3.3558    1.4688 O   0  0  0  0  0  0  0  0  0  0  0  0
    1.7298    0.0710    0.1966 H   0  0  0  0  0  0  0  0  0  0  0  0
   -1.4510   -1.3991    0.6298 H   0  0  0  0  0  0  0  0  0  0  0  0
   -3.9382   -1.3044    0.6982 H   0  0  0  0  0  0  0  0  0  0  0  0
   -5.0399    0.8649    1.2245 H   0  0  0  0  0  0  0  0  0  0  0  0
   -2.9540    3.9819    1.8640 H   0  0  0  0  0  0  0  0  0  0  0  0
  1  2  1  0  0  0  0
  1 13  1  0  0  0  0
  2  3  2  0  0  0  0
  2  4  1  0  0  0  0
  4  5  2  0  0  0  0
  4  9  1  0  0  0  0
  5  6  1  0  0  0  0
  5 14  1  0  0  0  0
  6  7  2  0  0  0  0
  6 15  1  0  0  0  0
  7  8  1  0  0  0  0
  7 16  1  0  0  0  0
  8  9  2  0  0  0  0
  9 10  1  0  0  0  0
 10 11  1  0  0  0  0
 10 12  2  0  0  0  0
 11 17  1  0  0  0  0
M  END
>  <DRUGBANK_ID>
DB01796

>  <SECONDARY_ACCESSION_NUMBERS>
EXPT02391

>  <COMMON_NAME>
Quinolinic Acid

>  <CAS_NUMBER>
89-00-9

>  <UNII>
F6F0HK1URN

$$$$
