
 OpenBabel10282417153D

 53 57  0  0  0  0  0  0  0  0999 V2000
   -2.4186    1.4972   -0.0255 C   0  0  0  0  0  0  0  0  0  0  0  0
   -1.5487    0.3471    0.0106 N   0  0  0  0  0  0  0  0  0  0  0  0
   -0.1733    0.4499    0.0150 C   0  0  0  0  0  0  0  0  0  0  0  0
    0.6873    1.5460   -0.0040 C   0  0  0  0  0  0  0  0  0  0  0  0
    2.0557    1.2734   -0.0440 C   0  0  0  0  0  0  0  0  0  0  0  0
    2.5578   -0.0328   -0.0136 C   0  0  0  0  0  0  0  0  0  0  0  0
    1.6652   -1.1187    0.0061 C   0  0  0  0  0  0  0  0  0  0  0  0
    0.2809   -0.8605    0.0165 C   0  0  0  0  0  0  0  0  0  0  0  0
   -0.7802   -1.7277    0.0228 N   0  0  0  0  0  0  0  0  0  0  0  0
   -1.8723   -0.9946    0.0020 C   0  0  0  0  0  0  0  0  0  0  0  0
   -3.1543   -1.4341   -0.0725 N   0  0  0  0  0  0  0  0  0  0  0  0
   -3.5074   -2.7968   -0.0187 C   0  0  0  0  0  0  0  0  0  0  0  0
   -3.0654   -3.6290    1.0154 C   0  0  0  0  0  0  0  0  0  0  0  0
   -3.4177   -4.9809    1.0503 C   0  0  0  0  0  0  0  0  0  0  0  0
   -4.2173   -5.5320    0.0406 C   0  0  0  0  0  0  0  0  0  0  0  0
   -4.6968   -4.6910   -0.9747 C   0  0  0  0  0  0  0  0  0  0  0  0
   -4.3245   -3.3429   -1.0155 C   0  0  0  0  0  0  0  0  0  0  0  0
   -4.5040   -7.0119   -0.0065 C   0  0  0  0  0  0  0  0  0  0  0  0
   -5.8355   -7.2941    0.0380 F   0  0  0  0  0  0  0  0  0  0  0  0
   -4.0401   -7.5889   -1.1511 F   0  0  0  0  0  0  0  0  0  0  0  0
   -3.9390   -7.7135    1.0159 F   0  0  0  0  0  0  0  0  0  0  0  0
    3.9092   -0.3452   -0.0325 O   0  0  0  0  0  0  0  0  0  0  0  0
    4.8340    0.6770    0.0289 C   0  0  0  0  0  0  0  0  0  0  0  0
    4.8989    1.5596    1.1042 C   0  0  0  0  0  0  0  0  0  0  0  0
    5.8384    2.5768    1.0533 C   0  0  0  0  0  0  0  0  0  0  0  0
    6.7450    2.7232    0.0578 N   0  0  0  0  0  0  0  0  0  0  0  0
    6.6726    1.8352   -0.9651 C   0  0  0  0  0  0  0  0  0  0  0  0
    5.7457    0.7991   -1.0149 C   0  0  0  0  0  0  0  0  0  0  0  0
    7.5987    2.0595   -2.0752 C   0  0  0  0  0  0  0  0  0  0  0  0
    8.9720    2.1097   -1.9386 N   0  0  0  0  0  0  0  0  0  0  0  0
    9.5188    2.2526   -3.1946 C   0  0  0  0  0  0  0  0  0  0  0  0
    8.4381    2.3434   -4.0373 C   0  0  0  0  0  0  0  0  0  0  0  0
    7.2672    2.1929   -3.3483 N   0  0  0  0  0  0  0  0  0  0  0  0
   10.9599    2.2863   -3.4901 C   0  0  0  0  0  0  0  0  0  0  0  0
   11.5898    3.2920   -2.8367 F   0  0  0  0  0  0  0  0  0  0  0  0
   11.5739    1.1333   -3.1259 F   0  0  0  0  0  0  0  0  0  0  0  0
   11.2010    2.4596   -4.8143 F   0  0  0  0  0  0  0  0  0  0  0  0
   -2.1925    2.1291    0.8393 H   0  0  0  0  0  0  0  0  0  0  0  0
   -2.2187    2.0510   -0.9482 H   0  0  0  0  0  0  0  0  0  0  0  0
   -3.4680    1.2059    0.0060 H   0  0  0  0  0  0  0  0  0  0  0  0
    0.3290    2.5682   -0.0093 H   0  0  0  0  0  0  0  0  0  0  0  0
    2.7179    2.1302   -0.1059 H   0  0  0  0  0  0  0  0  0  0  0  0
    2.0143   -2.1461   -0.0033 H   0  0  0  0  0  0  0  0  0  0  0  0
   -3.9530   -0.8190   -0.0961 H   0  0  0  0  0  0  0  0  0  0  0  0
   -2.4258   -3.2248    1.7972 H   0  0  0  0  0  0  0  0  0  0  0  0
   -3.0421   -5.6036    1.8604 H   0  0  0  0  0  0  0  0  0  0  0  0
   -5.3380   -5.0929   -1.7578 H   0  0  0  0  0  0  0  0  0  0  0  0
   -4.6275   -2.7357   -1.8650 H   0  0  0  0  0  0  0  0  0  0  0  0
    4.2020    1.4920    1.9328 H   0  0  0  0  0  0  0  0  0  0  0  0
    5.8725    3.3355    1.8317 H   0  0  0  0  0  0  0  0  0  0  0  0
    5.7268    0.1166   -1.8573 H   0  0  0  0  0  0  0  0  0  0  0  0
    9.4673    2.0094   -1.0614 H   0  0  0  0  0  0  0  0  0  0  0  0
    8.4492    2.4876   -5.1110 H   0  0  0  0  0  0  0  0  0  0  0  0
  1  2  1  0  0  0  0
  1 38  1  0  0  0  0
  1 39  1  0  0  0  0
  1 40  1  0  0  0  0
  2  3  1  0  0  0  0
  2 10  1  0  0  0  0
  3  4  2  0  0  0  0
  3  8  1  0  0  0  0
  4  5  1  0  0  0  0
  4 41  1  0  0  0  0
  5  6  2  0  0  0  0
  5 42  1  0  0  0  0
  6  7  1  0  0  0  0
  6 22  1  0  0  0  0
  7  8  2  0  0  0  0
  7 43  1  0  0  0  0
  8  9  1  0  0  0  0
  9 10  2  0  0  0  0
 10 11  1  0  0  0  0
 11 12  1  0  0  0  0
 11 44  1  0  0  0  0
 12 13  2  0  0  0  0
 12 17  1  0  0  0  0
 13 14  1  0  0  0  0
 13 45  1  0  0  0  0
 14 15  2  0  0  0  0
 14 46  1  0  0  0  0
 15 16  1  0  0  0  0
 15 18  1  0  0  0  0
 16 17  2  0  0  0  0
 16 47  1  0  0  0  0
 17 48  1  0  0  0  0
 18 19  1  0  0  0  0
 18 20  1  0  0  0  0
 18 21  1  0  0  0  0
 22 23  1  0  0  0  0
 23 24  2  0  0  0  0
 23 28  1  0  0  0  0
 24 25  1  0  0  0  0
 24 49  1  0  0  0  0
 25 26  2  0  0  0  0
 25 50  1  0  0  0  0
 26 27  1  0  0  0  0
 27 28  2  0  0  0  0
 27 29  1  0  0  0  0
 28 51  1  0  0  0  0
 29 30  1  0  0  0  0
 29 33  2  0  0  0  0
 30 31  1  0  0  0  0
 30 52  1  0  0  0  0
 31 32  2  0  0  0  0
 31 34  1  0  0  0  0
 32 33  1  0  0  0  0
 32 53  1  0  0  0  0
 34 35  1  0  0  0  0
 34 36  1  0  0  0  0
 34 37  1  0  0  0  0
M  END
>  <DRUGBANK_ID>
DB05984

>  <COMMON_NAME>
RAF-265

>  <CAS_NUMBER>
927880-90-8

>  <UNII>
8O434L3768

$$$$
