1064
 OpenBabel10282417113D

 32 32  0  0  1  0  0  0  0  0999 V2000
    1.0447    0.0155   -0.0303 O   0  0  0  0  0  0  0  0  0  0  0  0
    2.7937    1.4476    5.4389 O   0  0  0  0  0  0  0  0  0  0  0  0
    1.9761    3.9723    4.8251 O   0  0  0  0  0  0  0  0  0  0  0  0
    2.5539   -1.7690    1.6558 N   0  0  0  0  0  0  0  0  0  0  0  0
    0.6019   -0.2629    1.3049 C   0  0  3  0  0  0  0  0  0  0  0  0
    1.0799   -1.6763    1.6843 C   0  0  0  0  0  0  0  0  0  0  0  0
    3.0458   -3.0546    2.1423 C   0  0  0  0  0  0  0  0  0  0  0  0
    1.0367    0.8414    2.2508 C   0  0  0  0  0  0  0  0  0  0  0  0
    2.5816   -4.1853    1.2304 C   0  0  0  0  0  0  0  0  0  0  0  0
    4.5724   -2.9891    2.1759 C   0  0  0  0  0  0  0  0  0  0  0  0
    1.7675    0.6065    3.4326 C   0  0  0  0  0  0  0  0  0  0  0  0
    0.6450    2.1589    1.9567 C   0  0  0  0  0  0  0  0  0  0  0  0
    2.0883    1.6510    4.2858 C   0  0  0  0  0  0  0  0  0  0  0  0
    0.9600    3.2035    2.8239 C   0  0  0  0  0  0  0  0  0  0  0  0
    1.6775    2.9445    3.9805 C   0  0  0  0  0  0  0  0  0  0  0  0
    2.0097    0.1191    0.0294 H   0  0  0  0  0  0  0  0  0  0  0  0
    3.0164    0.4998    5.4915 H   0  0  0  0  0  0  0  0  0  0  0  0
    2.4814    3.5551    5.5501 H   0  0  0  0  0  0  0  0  0  0  0  0
    2.8866   -1.6089    0.7061 H   0  0  0  0  0  0  0  0  0  0  0  0
   -0.4945   -0.2768    1.2798 H   0  0  0  0  0  0  0  0  0  0  0  0
    0.6966   -1.9376    2.6786 H   0  0  0  0  0  0  0  0  0  0  0  0
    0.6496   -2.3729    0.9584 H   0  0  0  0  0  0  0  0  0  0  0  0
    2.6897   -3.2232    3.1664 H   0  0  0  0  0  0  0  0  0  0  0  0
    2.8937   -4.0022    0.1959 H   0  0  0  0  0  0  0  0  0  0  0  0
    2.9940   -5.1425    1.5559 H   0  0  0  0  0  0  0  0  0  0  0  0
    1.4917   -4.2877    1.2392 H   0  0  0  0  0  0  0  0  0  0  0  0
    4.9228   -2.1986    2.8502 H   0  0  0  0  0  0  0  0  0  0  0  0
    4.9884   -3.9377    2.5296 H   0  0  0  0  0  0  0  0  0  0  0  0
    4.9871   -2.7892    1.1810 H   0  0  0  0  0  0  0  0  0  0  0  0
    2.0948   -0.3956    3.6971 H   0  0  0  0  0  0  0  0  0  0  0  0
    0.0821    2.3634    1.0480 H   0  0  0  0  0  0  0  0  0  0  0  0
    0.6381    4.2158    2.5986 H   0  0  0  0  0  0  0  0  0  0  0  0
  1  5  1  0  0  0  0
  1 16  1  0  0  0  0
  2 13  1  0  0  0  0
  2 17  1  0  0  0  0
  3 15  1  0  0  0  0
  3 18  1  0  0  0  0
  4  6  1  0  0  0  0
  4  7  1  0  0  0  0
  4 19  1  0  0  0  0
  5  6  1  0  0  0  0
  5  8  1  0  0  0  0
  5 20  1  0  0  0  0
  6 21  1  0  0  0  0
  6 22  1  0  0  0  0
  7  9  1  0  0  0  0
  7 10  1  0  0  0  0
  7 23  1  0  0  0  0
  8 11  2  0  0  0  0
  8 12  1  0  0  0  0
  9 24  1  0  0  0  0
  9 25  1  0  0  0  0
  9 26  1  0  0  0  0
 10 27  1  0  0  0  0
 10 28  1  0  0  0  0
 10 29  1  0  0  0  0
 11 13  1  0  0  0  0
 11 30  1  0  0  0  0
 12 14  2  0  0  0  0
 12 31  1  0  0  0  0
 13 15  2  0  0  0  0
 14 15  1  0  0  0  0
 14 32  1  0  0  0  0
M  END
>  <DRUGBANK_ID>
DB01064

>  <SECONDARY_ACCESSION_NUMBERS>
APRD00182

>  <COMMON_NAME>
Isoprenaline

>  <CAS_NUMBER>
7683-59-2

>  <UNII>
L628TT009W

>  <SYNONYMS>
(±)-isoprenaline; (±)-isoproterenol; 1-(3,4-dihydroxyphenyl)-2-(isopropylamino)ethanol; 1-(3,4-dihydroxyphenyl)-2-isopropylaminoethanol; 3,4-dihydroxy-α-[(isopropylamino)methyl]benzyl alcohol; Isoprenalina; Isoprénaline; Isoprenaline; Isoprenalinum; Isopropyl noradrenaline; Isoproterenol; N-isopropyl-β-dihydroxyphenyl-β-hydroxyethylamine; N-Isopropylnoradrenaline; N-Isopropylnorepinephrine; α-(isopropylaminomethyl)protocatechuyl alcohol

$$$$
