
 OpenBabel10282417153D

158162  0  0  1  0  0  0  0  0999 V2000
    9.0405   -9.9222   -2.1198 O   0  0  0  0  0  0  0  0  0  0  0  0
    8.1599   -8.9480   -2.7003 S   0  0  0  0  0  0  0  0  0  0  0  0
    7.5859   -7.7298   -2.1710 O   0  0  0  0  0  0  0  0  0  0  0  0
    9.0733   -8.0185   -3.5439 O   0  0  0  0  0  0  0  0  0  0  0  0
    6.8874   -9.8042   -3.1602 O   0  0  0  0  0  0  0  0  0  0  0  0
    6.5012  -10.9217   -2.2102 C   0  0  1  0  0  0  0  0  0  0  0  0
    6.8759  -11.1754   -0.8071 C   0  0  2  0  0  0  0  0  0  0  0  0
    6.6028  -12.7664   -0.5542 O   0  0  0  0  0  0  0  0  0  0  0  0
    5.1975  -13.2729   -0.9078 C   0  0  1  0  0  0  0  0  0  0  0  0
    5.2517  -12.2935   -0.4764 H   0  0  0  0  0  0  0  0  0  0  0  0
    4.6819  -13.4515   -2.3174 C   0  0  2  0  0  0  0  0  0  0  0  0
    5.4514  -12.5930   -3.1928 O   0  0  0  0  0  0  0  0  0  0  0  0
    5.4515  -11.8783   -4.4622 C   0  0  0  0  0  0  0  0  0  0  0  0
    2.9757  -13.6660   -2.4125 C   0  0  1  0  0  0  0  0  0  0  0  0
    2.3308  -13.5744   -3.6938 O   0  0  0  0  0  0  0  0  0  0  0  0
    3.4094  -13.2497   -4.4537 C   0  0  0  0  0  0  0  0  0  0  0  0
    2.0170  -14.3209   -1.4711 C   0  0  2  0  0  0  0  0  0  0  0  0
    0.5908  -14.0232   -1.5103 O   0  0  0  0  0  0  0  0  0  0  0  0
    0.1008  -12.8097   -0.9085 C   0  0  1  0  0  0  0  0  0  0  0  0
   -0.9641  -12.8735   -1.0142 H   0  0  0  0  0  0  0  0  0  0  0  0
    0.2245  -12.6158    0.6467 O   0  0  0  0  0  0  0  0  0  0  0  0
   -0.1015  -11.3902    1.5267 C   0  0  2  0  0  0  0  0  0  0  0  0
   -1.6230  -11.1549    1.7474 C   0  0  0  0  0  0  0  0  0  0  0  0
   -2.1339   -9.8204    1.9381 O   0  0  0  0  0  0  0  0  0  0  0  0
   -1.5030   -8.8838    3.1165 S   0  0  0  0  0  0  0  0  0  0  0  0
   -2.1522   -9.3951    4.2894 O   0  0  0  0  0  0  0  0  0  0  0  0
   -0.0635   -8.8073    3.0776 O   0  0  0  0  0  0  0  0  0  0  0  0
   -1.9845   -7.3417    2.9078 O   0  0  0  0  0  0  0  0  0  0  0  0
    0.5559  -10.2919    0.8350 C   0  0  1  0  0  0  0  0  0  0  0  0
    1.7400   -9.9766    1.4770 O   0  0  0  0  0  0  0  0  0  0  0  0
    2.4711  -10.6178    0.6198 C   0  0  0  0  0  0  0  0  0  0  0  0
    0.4003  -10.6892   -1.0503 C   0  0  2  0  0  0  0  0  0  0  0  0
   -1.2051  -10.2507   -1.8452 O   0  0  0  0  0  0  0  0  0  0  0  0
   -2.7844  -10.5437   -1.1521 C   0  0  0  0  0  0  0  0  0  0  0  0
    0.5171  -11.8002   -1.9008 C   0  0  1  0  0  0  0  0  0  0  0  0
    1.8175  -11.6676   -2.1035 O   0  0  0  0  0  0  0  0  0  0  0  0
    2.1433  -11.0279   -3.2098 C   0  0  0  0  0  0  0  0  0  0  0  0
    2.5580  -14.0851   -0.1197 C   0  0  1  0  0  0  0  0  0  0  0  0
    1.7135  -15.0021    0.8493 C   0  0  0  0  0  0  0  0  0  0  0  0
    1.2790  -16.0974    0.5407 O   0  0  0  0  0  0  0  0  0  0  0  0
    1.5620  -14.5384    2.1247 O   0  0  0  0  0  0  0  0  0  0  0  0
    4.0918  -14.1943   -0.1222 O   0  0  0  0  0  0  0  0  0  0  0  0
    6.2267   -9.9879    0.0703 C   0  0  1  0  0  0  0  0  0  0  0  0
    6.6482   -8.6023   -0.2132 C   0  0  0  0  0  0  0  0  0  0  0  0
    8.0134   -8.7316   -0.2743 O   0  0  0  0  0  0  0  0  0  0  0  0
    8.9386   -9.3238    0.8624 S   0  0  0  0  0  0  0  0  0  0  0  0
    9.1182   -8.1824    1.7055 O   0  0  0  0  0  0  0  0  0  0  0  0
    8.4493  -10.6044    1.3141 O   0  0  0  0  0  0  0  0  0  0  0  0
   10.2949   -9.6138    0.0533 O   0  0  0  0  0  0  0  0  0  0  0  0
    4.9106   -9.7604   -0.1456 O   0  0  0  0  0  0  0  0  0  0  0  0
    4.4922   -9.6926   -1.4509 C   0  0  2  0  0  0  0  0  0  0  0  0
    5.0868   -9.0451   -2.0844 H   0  0  0  0  0  0  0  0  0  0  0  0
    2.7160   -9.5839   -1.7062 O   0  0  0  0  0  0  0  0  0  0  0  0
    1.8444   -7.8882   -2.4321 C   0  0  1  0  0  0  0  0  0  0  0  0
    3.2293   -6.4622   -3.0382 C   0  0  2  0  0  0  0  0  0  0  0  0
    3.3439   -4.7982   -1.9937 O   0  0  0  0  0  0  0  0  0  0  0  0
    1.6826   -4.2868   -1.1493 C   0  0  0  0  0  0  0  0  0  0  0  0
    2.3931   -6.3928   -4.2505 C   0  0  1  0  0  0  0  0  0  0  0  0
    3.0333   -7.1406   -5.3827 O   0  0  0  0  0  0  0  0  0  0  0  0
    4.5861   -7.6176   -5.0774 C   0  0  0  0  0  0  0  0  0  0  0  0
    0.6134   -6.4565   -3.9042 C   0  0  2  0  0  0  0  0  0  0  0  0
    0.3293   -6.6333   -4.9337 H   0  0  0  0  0  0  0  0  0  0  0  0
   -0.0396   -5.5036   -3.0335 O   0  0  0  0  0  0  0  0  0  0  0  0
    0.1407   -5.6649   -1.4301 C   0  0  2  0  0  0  0  0  0  0  0  0
    2.0252   -5.9528   -1.6545 C   0  0  1  0  0  0  0  0  0  0  0  0
    3.0916   -5.5834   -0.0177 C   0  0  0  0  0  0  0  0  0  0  0  0
    2.5195   -4.5710    0.8427 O   0  0  0  0  0  0  0  0  0  0  0  0
    2.7379   -2.9649    0.4213 S   0  0  0  0  0  0  0  0  0  0  0  0
    4.1102   -2.7094    0.6581 O   0  0  0  0  0  0  0  0  0  0  0  0
    2.1756   -2.4529   -0.8391 O   0  0  0  0  0  0  0  0  0  0  0  0
    1.6430   -2.2937    1.3606 O   0  0  0  0  0  0  0  0  0  0  0  0
    3.3604   -6.7557   -1.1916 O   0  0  0  0  0  0  0  0  0  0  0  0
    3.1754   -8.0371   -1.0619 C   0  0  2  0  0  0  0  0  0  0  0  0
    3.6731   -8.5908   -2.8561 O   0  0  0  0  0  0  0  0  0  0  0  0
    2.8803   -9.2088   -4.1942 C   0  0  0  0  0  0  0  0  0  0  0  0
    1.0762   -8.6002   -0.9321 C   0  0  2  0  0  0  0  0  0  0  0  0
    0.4450   -9.2570   -2.6385 O   0  0  0  0  0  0  0  0  0  0  0  0
   -1.4794   -9.2671   -3.5768 S   0  0  0  0  0  0  0  0  0  0  0  0
   -1.8865  -10.6630   -3.7127 O   0  0  0  0  0  0  0  0  0  0  0  0
   -2.3752   -8.3504   -2.8356 O   0  0  0  0  0  0  0  0  0  0  0  0
   -1.8272   -8.9126   -5.0561 O   0  0  0  0  0  0  0  0  0  0  0  0
    0.2796   -6.9877   -0.0377 C   0  0  1  0  0  0  0  0  0  0  0  0
    0.7976   -6.7785    1.4161 O   0  0  0  0  0  0  0  0  0  0  0  0
    2.4092   -7.1438    2.1021 S   0  0  0  0  0  0  0  0  0  0  0  0
    3.1207   -8.1805    1.4289 O   0  0  0  0  0  0  0  0  0  0  0  0
    3.1966   -5.9506    2.3382 O   0  0  0  0  0  0  0  0  0  0  0  0
    2.6906   -7.6171    3.5560 O   0  0  0  0  0  0  0  0  0  0  0  0
   -0.2734   -7.4064   -3.4411 O   0  0  0  0  0  0  0  0  0  0  0  0
   -0.1516   -7.8083   -2.1081 C   0  0  1  0  0  0  0  0  0  0  0  0
   -1.0130   -8.8118   -0.5210 C   0  0  0  0  0  0  0  0  0  0  0  0
   -1.2853   -8.3705    0.5957 O   0  0  0  0  0  0  0  0  0  0  0  0
   -1.1143  -10.4295   -0.1502 O   0  0  0  0  0  0  0  0  0  0  0  0
    4.8905  -10.9233   -1.9392 C   0  0  2  0  0  0  0  0  0  0  0  0
    3.8547  -11.6822   -0.7334 O   0  0  0  0  0  0  0  0  0  0  0  0
    4.2735  -12.1046    1.2614 S   0  0  0  0  0  0  0  0  0  0  0  0
    5.1839  -13.1937    1.5116 O   0  0  0  0  0  0  0  0  0  0  0  0
    4.4480  -10.9116    2.0384 O   0  0  0  0  0  0  0  0  0  0  0  0
    2.9264  -12.7102    1.9179 O   0  0  0  0  0  0  0  0  0  0  0  0
    9.0690   -7.3698   -2.7373 H   0  0  0  0  0  0  0  0  0  0  0  0
    7.0408  -11.7540   -2.7178 H   0  0  0  0  0  0  0  0  0  0  0  0
    7.9340  -11.1909   -0.7453 H   0  0  0  0  0  0  0  0  0  0  0  0
    5.0671  -14.4192   -2.4917 H   0  0  0  0  0  0  0  0  0  0  0  0
    6.0160  -12.5942   -4.9861 H   0  0  0  0  0  0  0  0  0  0  0  0
    4.5310  -11.4951   -4.9186 H   0  0  0  0  0  0  0  0  0  0  0  0
    5.8593  -10.8536   -4.5020 H   0  0  0  0  0  0  0  0  0  0  0  0
    2.8382  -12.8372   -1.8454 H   0  0  0  0  0  0  0  0  0  0  0  0
    3.6070  -12.3505   -3.8949 H   0  0  0  0  0  0  0  0  0  0  0  0
    4.2240  -13.9573   -4.2927 H   0  0  0  0  0  0  0  0  0  0  0  0
    3.4057  -12.9051   -5.4729 H   0  0  0  0  0  0  0  0  0  0  0  0
    2.1719  -15.3189   -1.7751 H   0  0  0  0  0  0  0  0  0  0  0  0
    0.4104  -11.3108    2.4992 H   0  0  0  0  0  0  0  0  0  0  0  0
   -2.0882  -11.6792    0.8932 H   0  0  0  0  0  0  0  0  0  0  0  0
   -2.0986  -11.7532    2.4645 H   0  0  0  0  0  0  0  0  0  0  0  0
   -1.5657   -6.8290    3.6362 H   0  0  0  0  0  0  0  0  0  0  0  0
    0.3343   -9.2680    1.0975 H   0  0  0  0  0  0  0  0  0  0  0  0
    2.1458  -11.5657    0.8194 H   0  0  0  0  0  0  0  0  0  0  0  0
    2.2631  -10.8624   -0.3663 H   0  0  0  0  0  0  0  0  0  0  0  0
    3.3624  -10.1362    0.5218 H   0  0  0  0  0  0  0  0  0  0  0  0
    1.0953  -10.1510   -1.5063 H   0  0  0  0  0  0  0  0  0  0  0  0
   -2.7226  -11.6091   -1.2584 H   0  0  0  0  0  0  0  0  0  0  0  0
   -2.7478  -10.1342   -0.1315 H   0  0  0  0  0  0  0  0  0  0  0  0
   -3.6616   -9.9652   -1.3115 H   0  0  0  0  0  0  0  0  0  0  0  0
    0.1231  -11.6200   -2.9306 H   0  0  0  0  0  0  0  0  0  0  0  0
    2.0067  -11.3516   -4.1944 H   0  0  0  0  0  0  0  0  0  0  0  0
    1.8113  -10.0764   -3.1056 H   0  0  0  0  0  0  0  0  0  0  0  0
    3.1322  -10.8178   -3.0452 H   0  0  0  0  0  0  0  0  0  0  0  0
    2.1432  -13.1030    0.0799 H   0  0  0  0  0  0  0  0  0  0  0  0
    1.0819  -15.1641    2.7131 H   0  0  0  0  0  0  0  0  0  0  0  0
    6.2867  -10.1019    1.1312 H   0  0  0  0  0  0  0  0  0  0  0  0
    6.1550   -8.2774   -1.1499 H   0  0  0  0  0  0  0  0  0  0  0  0
    6.2668   -7.7350    0.3195 H   0  0  0  0  0  0  0  0  0  0  0  0
   10.9133  -10.0968    0.6262 H   0  0  0  0  0  0  0  0  0  0  0  0
    1.7770   -7.2846   -1.1056 H   0  0  0  0  0  0  0  0  0  0  0  0
    4.3157   -6.7835   -2.8890 H   0  0  0  0  0  0  0  0  0  0  0  0
    1.0769   -4.0595   -1.9750 H   0  0  0  0  0  0  0  0  0  0  0  0
    1.3693   -5.3677   -0.3048 H   0  0  0  0  0  0  0  0  0  0  0  0
    1.0105   -4.1866   -0.1565 H   0  0  0  0  0  0  0  0  0  0  0  0
    2.6463   -5.4034   -4.4716 H   0  0  0  0  0  0  0  0  0  0  0  0
    5.0508   -6.6915   -5.2328 H   0  0  0  0  0  0  0  0  0  0  0  0
    4.9716   -7.9031   -4.0537 H   0  0  0  0  0  0  0  0  0  0  0  0
    4.7445   -8.6246   -5.5167 H   0  0  0  0  0  0  0  0  0  0  0  0
   -0.4542   -4.8329   -1.0514 H   0  0  0  0  0  0  0  0  0  0  0  0
    2.0140   -5.1471   -2.7546 H   0  0  0  0  0  0  0  0  0  0  0  0
    3.6363   -6.4900    0.4734 H   0  0  0  0  0  0  0  0  0  0  0  0
    4.1239   -5.2578   -0.1229 H   0  0  0  0  0  0  0  0  0  0  0  0
    1.3701   -1.5300    0.7991 H   0  0  0  0  0  0  0  0  0  0  0  0
    3.8029   -8.3221   -0.3032 H   0  0  0  0  0  0  0  0  0  0  0  0
    1.7717   -9.1776   -4.4719 H   0  0  0  0  0  0  0  0  0  0  0  0
    3.0907   -8.2729   -4.2234 H   0  0  0  0  0  0  0  0  0  0  0  0
    3.4823   -9.9336   -4.7354 H   0  0  0  0  0  0  0  0  0  0  0  0
    1.4967   -9.1936   -0.2004 H   0  0  0  0  0  0  0  0  0  0  0  0
   -2.7595   -9.2900   -4.8972 H   0  0  0  0  0  0  0  0  0  0  0  0
   -0.8886   -6.8688   -0.0946 H   0  0  0  0  0  0  0  0  0  0  0  0
    3.6851   -7.5299    3.3111 H   0  0  0  0  0  0  0  0  0  0  0  0
    0.3631   -7.1494   -1.7252 H   0  0  0  0  0  0  0  0  0  0  0  0
   -1.1645  -11.0704   -1.0428 H   0  0  0  0  0  0  0  0  0  0  0  0
    4.5966  -10.6949   -2.9698 H   0  0  0  0  0  0  0  0  0  0  0  0
    2.9610  -13.6659    2.1060 H   0  0  0  0  0  0  0  0  0  0  0  0
  1  2  2  0  0  0  0
  2  5  1  0  0  0  0
  3  2  2  0  0  0  0
  4  2  1  0  0  0  0
  4 99  1  0  0  0  0
  6100  1  6  0  0  0
  6  5  1  0  0  0  0
  7  6  1  0  0  0  0
  7  8  1  0  0  0  0
  7101  1  1  0  0  0
  9 10  1  1  0  0  0
  9  8  1  0  0  0  0
 11  9  1  0  0  0  0
 11102  1  6  0  0  0
 11 12  1  0  0  0  0
 13 12  1  0  0  0  0
 13103  1  0  0  0  0
 13104  1  0  0  0  0
 13105  1  0  0  0  0
 14 11  1  0  0  0  0
 14106  1  1  0  0  0
 14 15  1  0  0  0  0
 16 15  1  0  0  0  0
 16107  1  0  0  0  0
 16108  1  0  0  0  0
 16109  1  0  0  0  0
 17 14  1  0  0  0  0
 17 18  1  0  0  0  0
 17110  1  6  0  0  0
 19 18  1  0  0  0  0
 19 20  1  6  0  0  0
 21 19  1  0  0  0  0
 22 21  1  0  0  0  0
 22 29  1  0  0  0  0
 22111  1  1  0  0  0
 22 23  1  0  0  0  0
 23112  1  0  0  0  0
 23113  1  0  0  0  0
 24 23  1  0  0  0  0
 25 24  1  0  0  0  0
 26 25  2  0  0  0  0
 27 25  2  0  0  0  0
 28 25  1  0  0  0  0
 28114  1  0  0  0  0
 29 30  1  0  0  0  0
 29 32  1  0  0  0  0
 29115  1  1  0  0  0
 31 30  1  0  0  0  0
 31116  1  0  0  0  0
 31117  1  0  0  0  0
 31118  1  0  0  0  0
 32 33  1  0  0  0  0
 32 35  1  0  0  0  0
 32119  1  6  0  0  0
 34 33  1  0  0  0  0
 34120  1  0  0  0  0
 34121  1  0  0  0  0
 34122  1  0  0  0  0
 35 19  1  0  0  0  0
 35123  1  6  0  0  0
 35 36  1  0  0  0  0
 37 36  1  0  0  0  0
 37124  1  0  0  0  0
 37125  1  0  0  0  0
 37126  1  0  0  0  0
 38 17  1  0  0  0  0
 38 42  1  0  0  0  0
 38127  1  1  0  0  0
 38 39  1  0  0  0  0
 40 39  2  0  0  0  0
 41 39  1  0  0  0  0
 41128  1  0  0  0  0
 42  9  1  0  0  0  0
 43  7  1  0  0  0  0
 43129  1  1  0  0  0
 43 44  1  0  0  0  0
 44130  1  0  0  0  0
 44131  1  0  0  0  0
 45 44  1  0  0  0  0
 46 45  1  0  0  0  0
 47 46  2  0  0  0  0
 48 46  2  0  0  0  0
 49 46  1  0  0  0  0
 49132  1  0  0  0  0
 50 43  1  0  0  0  0
 51 50  1  0  0  0  0
 51 52  1  6  0  0  0
 51 93  1  0  0  0  0
 53 51  1  0  0  0  0
 54133  1  1  0  0  0
 54 53  1  0  0  0  0
 55 54  1  0  0  0  0
 55 56  1  0  0  0  0
 55134  1  6  0  0  0
 57 56  1  0  0  0  0
 57135  1  0  0  0  0
 57136  1  0  0  0  0
 57137  1  0  0  0  0
 58 55  1  0  0  0  0
 58 61  1  0  0  0  0
 58138  1  6  0  0  0
 58 59  1  0  0  0  0
 60 59  1  0  0  0  0
 60139  1  0  0  0  0
 60140  1  0  0  0  0
 60141  1  0  0  0  0
 61 88  1  0  0  0  0
 61 63  1  0  0  0  0
 61 62  1  6  0  0  0
 64142  1  1  0  0  0
 64 63  1  0  0  0  0
 65 64  1  0  0  0  0
 65143  1  6  0  0  0
 65 66  1  0  0  0  0
 66144  1  0  0  0  0
 66145  1  0  0  0  0
 67 66  1  0  0  0  0
 68 67  1  0  0  0  0
 69 68  2  0  0  0  0
 70 68  2  0  0  0  0
 71 68  1  0  0  0  0
 71146  1  0  0  0  0
 72 65  1  0  0  0  0
 73 72  1  0  0  0  0
 73147  1  1  0  0  0
 73 74  1  0  0  0  0
 75 74  1  0  0  0  0
 75148  1  0  0  0  0
 75149  1  0  0  0  0
 75150  1  0  0  0  0
 76 73  1  0  0  0  0
 76 82  1  0  0  0  0
 76151  1  1  0  0  0
 76 77  1  0  0  0  0
 78 77  1  0  0  0  0
 79 78  2  0  0  0  0
 80 78  2  0  0  0  0
 81 78  1  0  0  0  0
 81152  1  0  0  0  0
 82 83  1  0  0  0  0
 82 64  1  0  0  0  0
 82153  1  1  0  0  0
 84 83  1  0  0  0  0
 85 84  2  0  0  0  0
 86 84  2  0  0  0  0
 87 84  1  0  0  0  0
 87154  1  0  0  0  0
 88 89  1  0  0  0  0
 89 90  1  0  0  0  0
 89 54  1  0  0  0  0
 89155  1  1  0  0  0
 91 90  2  0  0  0  0
 92 90  1  0  0  0  0
 92156  1  0  0  0  0
 93  6  1  0  0  0  0
 93157  1  6  0  0  0
 93 94  1  0  0  0  0
 95 94  1  0  0  0  0
 96 95  2  0  0  0  0
 97 95  2  0  0  0  0
 98 95  1  0  0  0  0
 98158  1  0  0  0  0
M  END
>  <DRUGBANK_ID>
DB06406

>  <COMMON_NAME>
Idraparinux

>  <CAS_NUMBER>
162610-17-5

>  <UNII>
6ADD3H8MFZ

$$$$
