
 OpenBabel10282417103D

 40 41  0  0  0  0  0  0  0  0999 V2000
   -4.2528   -1.2590   -0.0826 C   0  0  0  0  0  0  0  0  0  0  0  0
   -5.6491   -1.3940   -0.0538 C   0  0  0  0  0  0  0  0  0  0  0  0
   -3.5879   -2.5084   -0.1424 C   0  0  0  0  0  0  0  0  0  0  0  0
   -4.2718   -3.7459   -0.0926 C   0  0  0  0  0  0  0  0  0  0  0  0
   -6.3481   -2.5999   -0.0822 C   0  0  0  0  0  0  0  0  0  0  0  0
   -5.6493   -3.7831   -0.0686 C   0  0  0  0  0  0  0  0  0  0  0  0
   -6.3927   -4.9147   -0.0296 O   0  0  0  0  0  0  0  0  0  0  0  0
   -3.4773    0.0788   -0.0218 C   0  0  0  0  0  0  0  0  0  0  0  0
   -4.0242    1.3462   -0.0495 C   0  0  0  0  0  0  0  0  0  0  0  0
   -5.5050    1.7239   -0.1436 C   0  0  0  0  0  0  0  0  0  0  0  0
   -6.1901    2.1602    1.1534 C   0  0  0  0  0  0  0  0  0  0  0  0
   -3.1925    2.6077   -0.0485 C   0  0  0  0  0  0  0  0  0  0  0  0
   -1.9337   -0.0838    0.0657 C   0  0  0  0  0  0  0  0  0  0  0  0
   -1.3914   -0.7037    1.3486 C   0  0  0  0  0  0  0  0  0  0  0  0
   -1.7544    5.0309   -0.0593 C   0  0  0  0  0  0  0  0  0  0  0  0
   -1.4046    4.0156   -0.9411 C   0  0  0  0  0  0  0  0  0  0  0  0
   -2.8004    4.8611    0.8249 C   0  0  0  0  0  0  0  0  0  0  0  0
   -3.4650    3.6388    0.8650 C   0  0  0  0  0  0  0  0  0  0  0  0
   -2.1655    2.8388   -0.9785 C   0  0  0  0  0  0  0  0  0  0  0  0
   -1.0863    6.2153   -0.0108 O   0  0  0  0  0  0  0  0  0  0  0  0
   -6.3631   -0.5990    0.0250 H   0  0  0  0  0  0  0  0  0  0  0  0
   -2.5084   -2.5738   -0.2153 H   0  0  0  0  0  0  0  0  0  0  0  0
   -3.6921   -4.6666   -0.0770 H   0  0  0  0  0  0  0  0  0  0  0  0
   -7.4305   -2.5886   -0.0839 H   0  0  0  0  0  0  0  0  0  0  0  0
   -5.7959   -5.6791    0.0100 H   0  0  0  0  0  0  0  0  0  0  0  0
   -5.6738    2.4468   -0.9494 H   0  0  0  0  0  0  0  0  0  0  0  0
   -6.0925    0.9243   -0.5411 H   0  0  0  0  0  0  0  0  0  0  0  0
   -6.1116    3.2410    1.3033 H   0  0  0  0  0  0  0  0  0  0  0  0
   -7.2635    1.9577    1.1082 H   0  0  0  0  0  0  0  0  0  0  0  0
   -5.7860    1.6418    2.0307 H   0  0  0  0  0  0  0  0  0  0  0  0
   -1.5586   -0.6011   -0.8283 H   0  0  0  0  0  0  0  0  0  0  0  0
   -1.4095    0.8709    0.0448 H   0  0  0  0  0  0  0  0  0  0  0  0
   -1.6855   -1.7420    1.4929 H   0  0  0  0  0  0  0  0  0  0  0  0
   -0.2952   -0.6838    1.3261 H   0  0  0  0  0  0  0  0  0  0  0  0
   -1.7247   -0.1314    2.2178 H   0  0  0  0  0  0  0  0  0  0  0  0
   -0.5506    4.1135   -1.6026 H   0  0  0  0  0  0  0  0  0  0  0  0
   -3.0895    5.6565    1.5051 H   0  0  0  0  0  0  0  0  0  0  0  0
   -4.1952    3.5208    1.6527 H   0  0  0  0  0  0  0  0  0  0  0  0
   -1.9073    2.0768   -1.7115 H   0  0  0  0  0  0  0  0  0  0  0  0
   -0.3727    6.1941   -0.6669 H   0  0  0  0  0  0  0  0  0  0  0  0
  2  1  2  0  0  0  0
  2 21  1  0  0  0  0
  3  1  1  0  0  0  0
  3 22  1  0  0  0  0
  4  3  2  0  0  0  0
  4 23  1  0  0  0  0
  5  2  1  0  0  0  0
  5  6  2  0  0  0  0
  5 24  1  0  0  0  0
  6  4  1  0  0  0  0
  7  6  1  0  0  0  0
  7 25  1  0  0  0  0
  8  1  1  0  0  0  0
  9  8  2  0  0  0  0
 10  9  1  0  0  0  0
 10 26  1  0  0  0  0
 10 27  1  0  0  0  0
 11 10  1  0  0  0  0
 11 28  1  0  0  0  0
 11 29  1  0  0  0  0
 11 30  1  0  0  0  0
 12  9  1  0  0  0  0
 12 18  1  0  0  0  0
 13  8  1  0  0  0  0
 13 31  1  0  0  0  0
 13 32  1  0  0  0  0
 14 13  1  0  0  0  0
 14 33  1  0  0  0  0
 14 34  1  0  0  0  0
 14 35  1  0  0  0  0
 16 15  2  0  0  0  0
 16 36  1  0  0  0  0
 17 15  1  0  0  0  0
 17 37  1  0  0  0  0
 18 17  2  0  0  0  0
 18 38  1  0  0  0  0
 19 16  1  0  0  0  0
 19 12  2  0  0  0  0
 19 39  1  0  0  0  0
 20 15  1  0  0  0  0
 20 40  1  0  0  0  0
M  END
>  <DRUGBANK_ID>
DB00255

>  <SECONDARY_ACCESSION_NUMBERS>
APRD00920; EXPT01164

>  <COMMON_NAME>
Diethylstilbestrol

>  <CAS_NUMBER>
56-53-1

>  <UNII>
731DCA35BT

>  <SYNONYMS>
(E)-3,4-bis(4-hydroxyphenyl)-3-hexene; (E)-4,4'-(1,2-diethyl-1,2-ethenediyl)bisphenol; 4,4'-dihydroxy-α,β-diethylstilbene; DES; Diethylstilbestrol; Diéthylstilbestrol; Diethylstilbestrolum; Dietilestilbestrol; Stilboestrol; trans-4,4'-(1,2-diethyl-1,2-ethenediyl)bisphenol; trans-Diethylstilbesterol; trans-Diethylstilbestrol; trans-Diethylstilboesterol; α,α'-diethyl-(E)-4,4'-stilbenediol

$$$$
