
 OpenBabel10282417233D

 78 81  0  0  1  0  0  0  0  0999 V2000
   -1.3556    3.4398    0.6360 H   0  0  0  0  0  0  0  0  0  0  0  0
   -0.3639    3.7489    0.2522 C   0  0  1  0  0  0  0  0  0  0  0  0
    0.0093    5.0099    1.0663 C   0  0  0  0  0  0  0  0  0  0  0  0
   -0.2415    6.2338    0.1494 C   0  0  0  0  0  0  0  0  0  0  0  0
   -1.1695    5.7180   -0.9356 C   0  0  1  0  0  0  0  0  0  0  0  0
   -2.4648    5.6572   -0.3133 O   0  0  0  0  0  0  0  0  0  0  0  0
   -1.3652    6.4083   -2.2733 C   0  0  0  0  0  0  0  0  0  0  0  0
   -0.8954    7.6307   -2.5142 C   0  0  0  0  0  0  0  0  0  0  0  0
   -1.3439    8.3733   -3.7165 C   0  0  0  0  0  0  0  0  0  0  0  0
   -0.9248    9.4933   -3.9047 O   0  0  0  0  0  0  0  0  0  0  0  0
   -2.3978    7.7319   -4.6247 C   0  0  2  0  0  0  0  0  0  0  0  0
   -2.2661    8.2024   -5.6053 H   0  0  0  0  0  0  0  0  0  0  0  0
   -3.8171    8.0284   -4.0968 C   0  0  0  0  0  0  0  0  0  0  0  0
   -4.9014    7.4028   -4.9833 C   0  0  1  0  0  0  0  0  0  0  0  0
   -4.9073    8.0264   -6.2724 O   0  0  0  0  0  0  0  0  0  0  0  0
   -4.6901    5.8866   -5.1435 C   0  0  1  0  0  0  0  0  0  0  0  0
   -5.6368    5.3178   -6.0450 O   0  0  0  0  0  0  0  0  0  0  0  0
   -3.2814    5.5910   -5.6606 C   0  0  0  0  0  0  0  0  0  0  0  0
   -2.1573    6.2168   -4.7736 C   0  0  1  0  0  0  0  0  0  0  0  0
   -0.8262    5.9723   -5.5302 C   0  0  0  0  0  0  0  0  0  0  0  0
   -2.1660    5.6366   -3.3198 C   0  0  1  0  0  0  0  0  0  0  0  0
   -3.1965    5.6544   -2.9527 H   0  0  0  0  0  0  0  0  0  0  0  0
   -1.8151    4.1744   -3.3230 C   0  0  0  0  0  0  0  0  0  0  0  0
   -1.6804    3.6223   -1.8919 C   0  0  0  0  0  0  0  0  0  0  0  0
   -0.5645    4.3333   -1.1663 C   0  0  2  0  0  0  0  0  0  0  0  0
    0.7881    4.4594   -1.9607 C   0  0  0  0  0  0  0  0  0  0  0  0
    0.5539    2.4784    0.4507 C   0  0  1  0  0  0  0  0  0  0  0  0
    2.0584    2.7621    0.3546 C   0  0  0  0  0  0  0  0  0  0  0  0
    0.3089    2.0552    1.8181 O   0  0  0  0  0  0  0  0  0  0  0  0
    0.0791    1.2751   -0.4642 C   0  0  2  0  0  0  0  0  0  0  0  0
    0.5065   -0.0037    0.0145 O   0  0  0  0  0  0  0  0  0  0  0  0
    0.5040    1.3042   -1.9491 C   0  0  0  0  0  0  0  0  0  0  0  0
   -0.0954    0.2710   -2.9160 C   0  0  0  0  0  0  0  0  0  0  0  0
   -1.6441    0.1888   -3.0219 C   0  0  0  0  0  0  0  0  0  0  0  0
   -2.2881    1.3366   -3.7554 C   0  0  0  0  0  0  0  0  0  0  0  0
   -2.0962   -0.9351   -3.8981 C   0  0  0  0  0  0  0  0  0  0  0  0
   -2.1811    0.0178   -1.7164 O   0  0  0  0  0  0  0  0  0  0  0  0
    1.0476    5.0149    1.3908 H   0  0  0  0  0  0  0  0  0  0  0  0
   -0.6154    5.0689    1.9648 H   0  0  0  0  0  0  0  0  0  0  0  0
    0.7117    6.5705   -0.2666 H   0  0  0  0  0  0  0  0  0  0  0  0
   -0.6868    7.0589    0.7050 H   0  0  0  0  0  0  0  0  0  0  0  0
   -3.1199    5.2895   -0.9266 H   0  0  0  0  0  0  0  0  0  0  0  0
   -0.2762    8.1694   -1.8100 H   0  0  0  0  0  0  0  0  0  0  0  0
   -3.9402    7.6523   -3.0718 H   0  0  0  0  0  0  0  0  0  0  0  0
   -3.9528    9.1121   -4.0329 H   0  0  0  0  0  0  0  0  0  0  0  0
   -5.8904    7.5879   -4.5515 H   0  0  0  0  0  0  0  0  0  0  0  0
   -4.0162    7.9878   -6.6576 H   0  0  0  0  0  0  0  0  0  0  0  0
   -4.8544    5.3879   -4.1837 H   0  0  0  0  0  0  0  0  0  0  0  0
   -5.6461    5.8776   -6.8437 H   0  0  0  0  0  0  0  0  0  0  0  0
   -3.1951    5.9740   -6.6880 H   0  0  0  0  0  0  0  0  0  0  0  0
   -3.1587    4.5066   -5.7817 H   0  0  0  0  0  0  0  0  0  0  0  0
   -0.6759    4.9141   -5.7738 H   0  0  0  0  0  0  0  0  0  0  0  0
   -0.8247    6.5064   -6.4882 H   0  0  0  0  0  0  0  0  0  0  0  0
    0.0436    6.3103   -4.9615 H   0  0  0  0  0  0  0  0  0  0  0  0
   -2.6449    3.7035   -3.8577 H   0  0  0  0  0  0  0  0  0  0  0  0
   -0.9154    3.9392   -3.9052 H   0  0  0  0  0  0  0  0  0  0  0  0
   -2.6709    3.6083   -1.4247 H   0  0  0  0  0  0  0  0  0  0  0  0
   -1.4684    2.5854   -1.7478 H   0  0  0  0  0  0  0  0  0  0  0  0
    1.5032    5.1171   -1.4673 H   0  0  0  0  0  0  0  0  0  0  0  0
    1.3499    3.5445   -2.0912 H   0  0  0  0  0  0  0  0  0  0  0  0
    0.6723    4.8089   -2.9859 H   0  0  0  0  0  0  0  0  0  0  0  0
    2.3796    3.4915    1.1027 H   0  0  0  0  0  0  0  0  0  0  0  0
    2.6465    1.8589    0.5259 H   0  0  0  0  0  0  0  0  0  0  0  0
    2.3874    3.1543   -0.6011 H   0  0  0  0  0  0  0  0  0  0  0  0
    0.6634    2.7236    2.4250 H   0  0  0  0  0  0  0  0  0  0  0  0
   -1.0035    1.2690   -0.3278 H   0  0  0  0  0  0  0  0  0  0  0  0
   -0.1788   -0.6154   -0.3231 H   0  0  0  0  0  0  0  0  0  0  0  0
    0.2459    2.2189   -2.4485 H   0  0  0  0  0  0  0  0  0  0  0  0
    1.5999    1.2479   -1.9974 H   0  0  0  0  0  0  0  0  0  0  0  0
    0.3072    0.5259   -3.9075 H   0  0  0  0  0  0  0  0  0  0  0  0
    0.3142   -0.6997   -2.6343 H   0  0  0  0  0  0  0  0  0  0  0  0
   -1.9797    1.5168   -4.7885 H   0  0  0  0  0  0  0  0  0  0  0  0
   -3.3656    1.4753   -3.6034 H   0  0  0  0  0  0  0  0  0  0  0  0
   -1.8282    2.1331   -3.2959 H   0  0  0  0  0  0  0  0  0  0  0  0
   -1.7348   -1.8822   -3.5190 H   0  0  0  0  0  0  0  0  0  0  0  0
   -3.1937   -0.9394   -3.9064 H   0  0  0  0  0  0  0  0  0  0  0  0
   -1.7386   -0.7506   -4.9177 H   0  0  0  0  0  0  0  0  0  0  0  0
   -3.1157    0.2850   -1.6930 H   0  0  0  0  0  0  0  0  0  0  0  0
  2  3  1  0  0  0  0
  2 25  1  0  0  0  0
  2 27  1  0  0  0  0
  2  1  1  1  0  0  0
  3  4  1  0  0  0  0
  3 38  1  0  0  0  0
  3 39  1  0  0  0  0
  4 40  1  0  0  0  0
  4 41  1  0  0  0  0
  5  4  1  0  0  0  0
  5  6  1  1  0  0  0
  5  7  1  0  0  0  0
  6 42  1  0  0  0  0
  7  8  2  0  0  0  0
  8  9  1  0  0  0  0
  8 43  1  0  0  0  0
  9 10  2  0  0  0  0
 11  9  1  0  0  0  0
 11 12  1  6  0  0  0
 11 13  1  0  0  0  0
 13 44  1  0  0  0  0
 13 45  1  0  0  0  0
 14 13  1  0  0  0  0
 14 15  1  0  0  0  0
 14 16  1  0  0  0  0
 14 46  1  1  0  0  0
 15 47  1  0  0  0  0
 16 17  1  0  0  0  0
 16 18  1  0  0  0  0
 16 48  1  1  0  0  0
 17 49  1  0  0  0  0
 18 50  1  0  0  0  0
 18 51  1  0  0  0  0
 19 18  1  0  0  0  0
 19 11  1  0  0  0  0
 19 20  1  6  0  0  0
 19 21  1  0  0  0  0
 20 52  1  0  0  0  0
 20 53  1  0  0  0  0
 20 54  1  0  0  0  0
 21  7  1  0  0  0  0
 21 22  1  1  0  0  0
 21 23  1  0  0  0  0
 23 24  1  0  0  0  0
 23 55  1  0  0  0  0
 23 56  1  0  0  0  0
 24 57  1  0  0  0  0
 24 58  1  0  0  0  0
 25 24  1  0  0  0  0
 25  5  1  0  0  0  0
 25 26  1  6  0  0  0
 26 59  1  0  0  0  0
 26 60  1  0  0  0  0
 26 61  1  0  0  0  0
 27 28  1  0  0  0  0
 27 29  1  1  0  0  0
 28 62  1  0  0  0  0
 28 63  1  0  0  0  0
 28 64  1  0  0  0  0
 29 65  1  0  0  0  0
 30 32  1  0  0  0  0
 30 66  1  1  0  0  0
 30 31  1  0  0  0  0
 30 27  1  0  0  0  0
 31 67  1  0  0  0  0
 32 33  1  0  0  0  0
 32 68  1  0  0  0  0
 32 69  1  0  0  0  0
 33 34  1  0  0  0  0
 33 70  1  0  0  0  0
 33 71  1  0  0  0  0
 34 35  1  0  0  0  0
 34 36  1  0  0  0  0
 34 37  1  0  0  0  0
 35 72  1  0  0  0  0
 35 73  1  0  0  0  0
 35 74  1  0  0  0  0
 36 75  1  0  0  0  0
 36 76  1  0  0  0  0
 36 77  1  0  0  0  0
 37 78  1  0  0  0  0
M  END
>  <DRUGBANK_ID>
DB16935

>  <COMMON_NAME>
20-Hydroxyecdysone

>  <CAS_NUMBER>
5289-74-7

>  <UNII>
779A7KPL0Y

>  <SYNONYMS>
20-hydroxy-.alpha.-ecdysone; Cholest-7-en-6-one, 2,3,14,20,22,25-hexahydroxy-, (2.beta.,3.beta.,5.beta.,22r)-; Commisterone; Crustecdyson; Crustecdysone; Ecdysten; Ecdysteron; Ecdysterone; Ekdisten; Isoinokosterone; Polypodin a; Polypodin c; Polypodine a; Polypodine c; Viticosterone

$$$$
