
 OpenBabel10282417183D

148153  0  0  1  0  0  0  0  0999 V2000
    5.0538   -5.0002   20.6030 C   0  0  0  0  0  0  0  0  0  0  0  0
    9.6225   -3.1429   21.6471 C   0  0  0  0  0  0  0  0  0  0  0  0
    3.5228   -7.7940   17.8232 C   0  0  0  0  0  0  0  0  0  0  0  0
    1.8012   -5.2952   18.0842 C   0  0  0  0  0  0  0  0  0  0  0  0
   -2.8785   -2.3714   14.5023 C   0  0  0  0  0  0  0  0  0  0  0  0
    0.7410    0.5635   15.4221 C   0  0  0  0  0  0  0  0  0  0  0  0
    2.0065   -1.7938   12.5844 C   0  0  0  0  0  0  0  0  0  0  0  0
    3.4376    1.2111   16.4079 C   0  0  0  0  0  0  0  0  0  0  0  0
    9.1625   -1.0932   19.4969 C   0  0  0  0  0  0  0  0  0  0  0  0
    0.6583   -3.1059   19.8346 C   0  0  0  0  0  0  0  0  0  0  0  0
   -2.5302   -2.3324   18.3698 C   0  0  0  0  0  0  0  0  0  0  0  0
   -1.9412    0.1722   16.5964 C   0  0  0  0  0  0  0  0  0  0  0  0
   -0.9730   -6.3227   19.0507 C   0  0  0  0  0  0  0  0  0  0  0  0
    2.3418   -2.3745   16.3414 C   0  0  0  0  0  0  0  0  0  0  0  0
    2.7157   -1.3976   17.2740 C   0  0  0  0  0  0  0  0  0  0  0  0
    1.1652   -3.3416   14.2202 C   0  0  0  0  0  0  0  0  0  0  0  0
    1.4713   -4.3386   15.2393 C   0  0  0  0  0  0  0  0  0  0  0  0
    7.3516   -4.0957   21.1933 C   0  0  0  0  0  0  0  0  0  0  0  0
    4.3689   -1.5613   19.6601 C   0  0  0  0  0  0  0  0  0  0  0  0
    1.3515   -0.3601   19.9383 C   0  0  0  0  0  0  0  0  0  0  0  0
    4.1685   -4.7671   15.4313 C   0  0  0  0  0  0  0  0  0  0  0  0
   -0.9186   -3.8045   12.7070 C   0  0  0  0  0  0  0  0  0  0  0  0
    5.9789   -3.7860   20.6327 C   0  0  1  0  0  0  0  0  0  0  0  0
    8.2438   -2.8463   21.0914 C   0  0  2  0  0  0  0  0  0  0  0  0
    3.5147   -6.9756   16.5217 C   0  0  2  0  0  0  0  0  0  0  0  0
    1.0770   -6.2003   16.9497 C   0  0  2  0  0  0  0  0  0  0  0  0
   -1.9120   -3.3008   15.2311 C   0  0  1  0  0  0  0  0  0  0  0  0
    0.6284    0.5018   17.1141 C   0  0  1  0  0  0  0  0  0  0  0  0
    4.2789   -5.6417   16.6568 C   0  0  1  0  0  0  0  0  0  0  0  0
   -0.0006   -0.7595   19.3519 C   0  0  1  0  0  0  0  0  0  0  0  0
    4.9436   -2.5966   18.7111 C   0  0  2  0  0  0  0  0  0  0  0  0
    4.4574   -0.2380   18.9342 C   0  0  1  0  0  0  0  0  0  0  0  0
    2.5309   -1.7913   15.0276 C   0  0  2  0  0  0  0  0  0  0  0  0
   -0.1704   -4.7259   11.7284 C   0  0  0  0  0  0  0  0  0  0  0  0
    2.0491    0.7393   19.2057 C   0  0  2  0  0  0  0  0  0  0  0  0
    6.1861   -3.1803   19.2349 C   0  0  1  0  0  0  0  0  0  0  0  0
    2.1235   -6.7721   15.8854 C   0  0  1  0  0  0  0  0  0  0  0  0
   -0.5042   -5.7142   16.3230 C   0  0  1  0  0  0  0  0  0  0  0  0
   -2.3967   -3.9576   16.5775 C   0  0  1  0  0  0  0  0  0  0  0  0
   -0.0361   -0.7322   17.7035 C   0  0  1  0  0  0  0  0  0  0  0  0
   -1.1806   -4.6667   17.2615 C   0  0  1  0  0  0  0  0  0  0  0  0
    4.7836   -0.5940   17.4249 C   0  0  2  0  0  0  0  0  0  0  0  0
    2.3681   -2.6598   13.7998 C   0  0  2  0  0  0  0  0  0  0  0  0
    3.5766   -0.3892   16.5462 C   0  0  2  0  0  0  0  0  0  0  0  0
    8.3347   -2.3661   19.6354 C   0  0  2  0  0  0  0  0  0  0  0  0
    2.8043   -4.7444   14.7350 C   0  0  1  0  0  0  0  0  0  0  0  0
   -1.4258   -4.4342   14.2205 C   0  0  1  0  0  0  0  0  0  0  0  0
    5.6183   -5.8558   17.0733 O   0  0  0  0  0  0  0  0  0  0  0  0
   -0.3362   -4.6680   10.4727 O   0  0  0  0  0  0  0  0  0  0  0  0
    0.8340   -5.4568   12.2154 O   0  0  0  0  0  0  0  0  0  0  0  0
    8.8153   -3.3729   18.7598 O   0  0  0  0  0  0  0  0  0  0  0  0
   -2.5971   -5.1475   13.8538 O   0  0  0  0  0  0  0  0  0  0  0  0
   -0.2307   -2.0190   20.0663 O   0  0  0  0  0  0  0  0  0  0  0  0
   -3.2297   -3.1860   17.5083 O   0  0  0  0  0  0  0  0  0  0  0  0
   -1.0312   -0.9057   16.7251 O   0  0  0  0  0  0  0  0  0  0  0  0
   -1.6060   -5.1696   18.5494 O   0  0  0  0  0  0  0  0  0  0  0  0
    1.7755    0.8146   17.8376 O   0  0  0  0  0  0  0  0  0  0  0  0
    3.4942    0.7458   19.4097 O   0  0  0  0  0  0  0  0  0  0  0  0
    5.1923   -1.9935   17.4178 O   0  0  0  0  0  0  0  0  0  0  0  0
    3.6228   -0.9083   15.1779 O   0  0  0  0  0  0  0  0  0  0  0  0
    7.0386   -2.0396   19.2374 O   0  0  0  0  0  0  0  0  0  0  0  0
    2.4029   -6.1206   14.5864 O   0  0  0  0  0  0  0  0  0  0  0  0
   -0.5512   -5.4265   14.8613 O   0  0  0  0  0  0  0  0  0  0  0  0
    3.1093   -3.8664   13.5959 O   0  0  0  0  0  0  0  0  0  0  0  0
    1.0562    0.0489   -0.0052 N   0  0  0  0  0  0  0  0  0  0  0  0
    5.5327   -3.0690   21.3306 H   0  0  0  0  0  0  0  0  0  0  0  0
    7.7672   -2.0515   21.6903 H   0  0  0  0  0  0  0  0  0  0  0  0
    4.0799   -7.5568   15.7869 H   0  0  0  0  0  0  0  0  0  0  0  0
    0.8582   -7.0863   17.5551 H   0  0  0  0  0  0  0  0  0  0  0  0
   -1.0877   -2.6538   15.5087 H   0  0  0  0  0  0  0  0  0  0  0  0
   -0.0060    1.3558   17.2990 H   0  0  0  0  0  0  0  0  0  0  0  0
    3.9397   -5.0335   17.4703 H   0  0  0  0  0  0  0  0  0  0  0  0
   -0.7794   -0.0879   19.6955 H   0  0  0  0  0  0  0  0  0  0  0  0
    4.2439   -3.4297   18.5883 H   0  0  0  0  0  0  0  0  0  0  0  0
    5.4209    0.1725   19.2486 H   0  0  0  0  0  0  0  0  0  0  0  0
    1.5561   -1.3287   15.0237 H   0  0  0  0  0  0  0  0  0  0  0  0
    1.6595    1.6758   19.5927 H   0  0  0  0  0  0  0  0  0  0  0  0
    6.5154   -3.9365   18.5132 H   0  0  0  0  0  0  0  0  0  0  0  0
    1.6814   -7.7328   15.6018 H   0  0  0  0  0  0  0  0  0  0  0  0
   -1.1056   -6.6185   16.3855 H   0  0  0  0  0  0  0  0  0  0  0  0
   -3.0988   -4.7316   16.2948 H   0  0  0  0  0  0  0  0  0  0  0  0
    0.3514   -1.7168   17.5942 H   0  0  0  0  0  0  0  0  0  0  0  0
   -0.4464   -3.8868   17.4672 H   0  0  0  0  0  0  0  0  0  0  0  0
    5.5852   -0.0275   16.9568 H   0  0  0  0  0  0  0  0  0  0  0  0
    5.3986   -5.7274   19.8641 H   0  0  0  0  0  0  0  0  0  0  0  0
    4.0301   -4.7075   20.3426 H   0  0  0  0  0  0  0  0  0  0  0  0
    5.0017   -5.4908   21.5788 H   0  0  0  0  0  0  0  0  0  0  0  0
    9.5753   -3.8444   22.4785 H   0  0  0  0  0  0  0  0  0  0  0  0
   10.2728   -3.5660   20.8779 H   0  0  0  0  0  0  0  0  0  0  0  0
   10.0873   -2.2200   22.0048 H   0  0  0  0  0  0  0  0  0  0  0  0
    3.0300   -7.3648   18.6929 H   0  0  0  0  0  0  0  0  0  0  0  0
    3.0115   -8.7482   17.6992 H   0  0  0  0  0  0  0  0  0  0  0  0
    4.5532   -7.9407   18.1453 H   0  0  0  0  0  0  0  0  0  0  0  0
    2.2414   -4.3472   17.8152 H   0  0  0  0  0  0  0  0  0  0  0  0
    1.1719   -5.0225   18.8789 H   0  0  0  0  0  0  0  0  0  0  0  0
    2.6163   -5.7149   18.6611 H   0  0  0  0  0  0  0  0  0  0  0  0
   -3.3519   -1.6359   15.1379 H   0  0  0  0  0  0  0  0  0  0  0  0
   -2.3430   -1.8007   13.7279 H   0  0  0  0  0  0  0  0  0  0  0  0
   -3.6746   -2.9407   14.0299 H   0  0  0  0  0  0  0  0  0  0  0  0
   -0.0224    0.0128   14.8426 H   0  0  0  0  0  0  0  0  0  0  0  0
    0.8011    1.5736   15.0127 H   0  0  0  0  0  0  0  0  0  0  0  0
    1.6863    0.2733   14.9795 H   0  0  0  0  0  0  0  0  0  0  0  0
    2.7438   -1.0044   12.4545 H   0  0  0  0  0  0  0  0  0  0  0  0
    1.9118   -2.3815   11.6704 H   0  0  0  0  0  0  0  0  0  0  0  0
    1.0453   -1.2538   12.7147 H   0  0  0  0  0  0  0  0  0  0  0  0
    3.6172    1.7560   17.3426 H   0  0  0  0  0  0  0  0  0  0  0  0
    4.0747    1.6436   15.6492 H   0  0  0  0  0  0  0  0  0  0  0  0
    2.4805    1.6397   16.1033 H   0  0  0  0  0  0  0  0  0  0  0  0
    9.6109   -1.0234   18.5022 H   0  0  0  0  0  0  0  0  0  0  0  0
    8.5676   -0.1891   19.6760 H   0  0  0  0  0  0  0  0  0  0  0  0
    9.9905   -1.0796   20.2052 H   0  0  0  0  0  0  0  0  0  0  0  0
    0.8068   -3.1866   18.7684 H   0  0  0  0  0  0  0  0  0  0  0  0
    1.6658   -3.0683   20.2682 H   0  0  0  0  0  0  0  0  0  0  0  0
    0.2185   -4.0212   20.2375 H   0  0  0  0  0  0  0  0  0  0  0  0
   -1.5825   -2.7259   18.6809 H   0  0  0  0  0  0  0  0  0  0  0  0
   -2.3691   -1.5916   17.6755 H   0  0  0  0  0  0  0  0  0  0  0  0
   -2.9708   -1.6418   19.1055 H   0  0  0  0  0  0  0  0  0  0  0  0
   -2.0115    0.6654   17.5603 H   0  0  0  0  0  0  0  0  0  0  0  0
   -1.6297    0.8318   15.7919 H   0  0  0  0  0  0  0  0  0  0  0  0
   -2.9036   -0.2363   16.3288 H   0  0  0  0  0  0  0  0  0  0  0  0
   -0.9897   -7.1210   18.3171 H   0  0  0  0  0  0  0  0  0  0  0  0
    0.0337   -6.1325   19.3784 H   0  0  0  0  0  0  0  0  0  0  0  0
   -1.4368   -6.6870   19.9582 H   0  0  0  0  0  0  0  0  0  0  0  0
    3.0091   -3.1868   16.5059 H   0  0  0  0  0  0  0  0  0  0  0  0
    1.3249   -2.6126   16.6016 H   0  0  0  0  0  0  0  0  0  0  0  0
    2.0018   -1.1870   17.9937 H   0  0  0  0  0  0  0  0  0  0  0  0
    3.1083   -2.1269   17.9470 H   0  0  0  0  0  0  0  0  0  0  0  0
    0.8963   -4.0734   13.5329 H   0  0  0  0  0  0  0  0  0  0  0  0
    0.3460   -2.6414   14.4096 H   0  0  0  0  0  0  0  0  0  0  0  0
    0.5838   -3.8758   15.6651 H   0  0  0  0  0  0  0  0  0  0  0  0
    1.6732   -4.3296   16.2591 H   0  0  0  0  0  0  0  0  0  0  0  0
    7.2554   -4.4094   22.2369 H   0  0  0  0  0  0  0  0  0  0  0  0
    7.7920   -4.9205   20.6254 H   0  0  0  0  0  0  0  0  0  0  0  0
    3.4175   -1.9940   19.9187 H   0  0  0  0  0  0  0  0  0  0  0  0
    4.7813   -1.4482   20.6594 H   0  0  0  0  0  0  0  0  0  0  0  0
    1.4057   -0.3010   21.0339 H   0  0  0  0  0  0  0  0  0  0  0  0
    1.9514   -1.2301   19.8233 H   0  0  0  0  0  0  0  0  0  0  0  0
    4.5457   -3.7564   15.6386 H   0  0  0  0  0  0  0  0  0  0  0  0
    4.8891   -5.1175   14.6899 H   0  0  0  0  0  0  0  0  0  0  0  0
   -1.7189   -3.2475   12.2100 H   0  0  0  0  0  0  0  0  0  0  0  0
   -0.2625   -2.9255   12.7310 H   0  0  0  0  0  0  0  0  0  0  0  0
    6.1203   -6.1806   16.3129 H   0  0  0  0  0  0  0  0  0  0  0  0
    1.4344   -5.8677   11.5612 H   0  0  0  0  0  0  0  0  0  0  0  0
    9.7456   -3.5361   18.9492 H   0  0  0  0  0  0  0  0  0  0  0  0
   -2.9142   -4.6951   13.0556 H   0  0  0  0  0  0  0  0  0  0  0  0
    0.7452    0.9712   -0.3065 H   0  0  0  0  0  0  0  0  0  0  0  0
    0.7448   -0.6025   -0.7242 H   0  0  0  0  0  0  0  0  0  0  0  0
    2.0736    0.0629   -0.0599 H   0  0  0  0  0  0  0  0  0  0  0  0
  1 85  1  0  0  0  0
  1 86  1  0  0  0  0
  1 87  1  0  0  0  0
  2 88  1  0  0  0  0
  2 89  1  0  0  0  0
  2 90  1  0  0  0  0
  3 91  1  0  0  0  0
  3 92  1  0  0  0  0
  3 93  1  0  0  0  0
  4 94  1  0  0  0  0
  4 95  1  0  0  0  0
  4 96  1  0  0  0  0
  5 97  1  0  0  0  0
  5 98  1  0  0  0  0
  5 99  1  0  0  0  0
  6100  1  0  0  0  0
  6101  1  0  0  0  0
  6102  1  0  0  0  0
  7103  1  0  0  0  0
  7104  1  0  0  0  0
  7105  1  0  0  0  0
  8106  1  0  0  0  0
  8107  1  0  0  0  0
  8108  1  0  0  0  0
  9109  1  0  0  0  0
  9110  1  0  0  0  0
  9111  1  0  0  0  0
 10112  1  0  0  0  0
 10113  1  0  0  0  0
 10114  1  0  0  0  0
 11115  1  0  0  0  0
 11116  1  0  0  0  0
 11117  1  0  0  0  0
 12118  1  0  0  0  0
 12119  1  0  0  0  0
 12120  1  0  0  0  0
 13121  1  0  0  0  0
 13122  1  0  0  0  0
 13123  1  0  0  0  0
 14124  1  0  0  0  0
 14125  1  0  0  0  0
 15 14  1  0  0  0  0
 15126  1  0  0  0  0
 15127  1  0  0  0  0
 16128  1  0  0  0  0
 16129  1  0  0  0  0
 17 16  1  0  0  0  0
 17130  1  0  0  0  0
 17131  1  0  0  0  0
 18132  1  0  0  0  0
 18133  1  0  0  0  0
 19134  1  0  0  0  0
 19135  1  0  0  0  0
 20136  1  0  0  0  0
 20137  1  0  0  0  0
 21138  1  0  0  0  0
 21139  1  0  0  0  0
 22140  1  0  0  0  0
 22141  1  0  0  0  0
 23 18  1  0  0  0  0
 23 66  1  1  0  0  0
 23  1  1  0  0  0  0
 24 18  1  0  0  0  0
 24 67  1  1  0  0  0
 24  2  1  0  0  0  0
 25 68  1  6  0  0  0
 25  3  1  0  0  0  0
 26  4  1  0  0  0  0
 26 69  1  1  0  0  0
 27  5  1  0  0  0  0
 27 70  1  1  0  0  0
 28  6  1  0  0  0  0
 28 71  1  1  0  0  0
 29 21  1  0  0  0  0
 29 25  1  0  0  0  0
 29 48  1  0  0  0  0
 29 72  1  1  0  0  0
 30 20  1  0  0  0  0
 30 53  1  0  0  0  0
 30 73  1  1  0  0  0
 31 19  1  0  0  0  0
 31 74  1  6  0  0  0
 32 19  1  0  0  0  0
 32 58  1  0  0  0  0
 32 75  1  1  0  0  0
 33 14  1  0  0  0  0
 33 76  1  6  0  0  0
 34 22  1  0  0  0  0
 35 20  1  0  0  0  0
 35 58  1  0  0  0  0
 35 77  1  1  0  0  0
 36 23  1  0  0  0  0
 36 31  1  0  0  0  0
 36 78  1  6  0  0  0
 37 25  1  0  0  0  0
 37 79  1  6  0  0  0
 37 26  1  0  0  0  0
 38 80  1  1  0  0  0
 38 26  1  0  0  0  0
 39 27  1  0  0  0  0
 39 54  1  0  0  0  0
 39 81  1  6  0  0  0
 40 28  1  0  0  0  0
 40 30  1  0  0  0  0
 40 82  1  6  0  0  0
 40 55  1  0  0  0  0
 41 38  1  0  0  0  0
 41 39  1  0  0  0  0
 41 83  1  1  0  0  0
 41 56  1  0  0  0  0
 42 32  1  0  0  0  0
 42 84  1  6  0  0  0
 42 44  1  0  0  0  0
 43 16  1  0  0  0  0
 43 33  1  0  0  0  0
 43  7  1  6  0  0  0
 44  8  1  1  0  0  0
 44 15  1  0  0  0  0
 45 24  1  0  0  0  0
 45 51  1  6  0  0  0
 45  9  1  0  0  0  0
 46 17  1  0  0  0  0
 46 21  1  0  0  0  0
 46 62  1  6  0  0  0
 46 64  1  0  0  0  0
 47 27  1  0  0  0  0
 47 52  1  6  0  0  0
 47 22  1  0  0  0  0
 48142  1  0  0  0  0
 49 34  2  0  0  0  0
 50 34  1  0  0  0  0
 50143  1  0  0  0  0
 51144  1  0  0  0  0
 52145  1  0  0  0  0
 53 10  1  0  0  0  0
 54 11  1  0  0  0  0
 55 12  1  0  0  0  0
 56 13  1  0  0  0  0
 57 28  1  0  0  0  0
 57 35  1  0  0  0  0
 59 31  1  0  0  0  0
 59 42  1  0  0  0  0
 60 33  1  0  0  0  0
 60 44  1  0  0  0  0
 61 36  1  0  0  0  0
 61 45  1  0  0  0  0
 62 37  1  0  0  0  0
 63 38  1  0  0  0  0
 63 47  1  0  0  0  0
 64 43  1  0  0  0  0
 65146  1  0  0  0  0
 65147  1  0  0  0  0
 65148  1  0  0  0  0
M  END
>  <DRUGBANK_ID>
DB11525

>  <COMMON_NAME>
Maduramicin

>  <CAS_NUMBER>
84878-61-5

>  <UNII>
5U912U22T2

>  <SYNONYMS>
Maduramicin

$$$$
