
 OpenBabel10282417183D

  1  0  0  0  0  0  0  0  0  0999 V2000
    0.9641   -0.0933    0.0005 Se  0  0  0  0  0 15  0  0  0  0  0  0
M  END
>  <DRUGBANK_ID>
DB11135

>  <COMMON_NAME>
Selenium

>  <CAS_NUMBER>
7782-49-2

>  <UNII>
H6241UJ22B

>  <SYNONYMS>
Selen; Selenio; Sélénium; Selenium elemental; Selenium metallicum; Selenium, elemental

$$$$
