
 OpenBabel10282417163D

 24 24  0  0  0  0  0  0  0  0999 V2000
    0.9789    0.1273   -0.1087 O   0  0  0  0  0  0  0  0  0  0  0  0
    1.0686   -1.5330   -1.5949 O   0  0  0  0  0  0  0  0  0  0  0  0
   -1.0761   -0.8607   -0.7436 C   0  0  2  0  0  0  0  0  0  0  0  0
   -1.9115    0.2950   -1.3061 C   0  0  0  0  0  0  0  0  0  0  0  0
   -3.3070   -0.2620   -1.5934 C   0  0  0  0  0  0  0  0  0  0  0  0
   -1.4106   -1.1243    0.7470 C   0  0  0  0  0  0  0  0  0  0  0  0
    0.4043   -0.7839   -0.9121 C   0  0  0  0  0  0  0  0  0  0  0  0
   -3.7892   -1.3672   -0.8554 C   0  0  0  0  0  0  0  0  0  0  0  0
   -4.1749    0.2809   -2.5249 C   0  0  0  0  0  0  0  0  0  0  0  0
   -5.0950   -1.7790   -0.8131 C   0  0  0  0  0  0  0  0  0  0  0  0
   -5.5011   -0.1838   -2.5583 C   0  0  0  0  0  0  0  0  0  0  0  0
   -5.9625   -1.1857   -1.6883 C   0  0  0  0  0  0  0  0  0  0  0  0
    1.9322   -0.0822   -0.1740 H   0  0  0  0  0  0  0  0  0  0  0  0
   -1.3312   -1.7390   -1.3602 H   0  0  0  0  0  0  0  0  0  0  0  0
   -1.9942    1.0968   -0.5535 H   0  0  0  0  0  0  0  0  0  0  0  0
   -1.4629    0.7643   -2.1926 H   0  0  0  0  0  0  0  0  0  0  0  0
   -2.3767   -0.6934    1.0499 H   0  0  0  0  0  0  0  0  0  0  0  0
   -1.4690   -2.2077    0.9120 H   0  0  0  0  0  0  0  0  0  0  0  0
   -0.6948   -0.7099    1.4514 H   0  0  0  0  0  0  0  0  0  0  0  0
   -3.1524   -2.0213   -0.2835 H   0  0  0  0  0  0  0  0  0  0  0  0
   -3.8368    1.0251   -3.2428 H   0  0  0  0  0  0  0  0  0  0  0  0
   -5.3597   -2.5670   -0.1149 H   0  0  0  0  0  0  0  0  0  0  0  0
   -6.2013    0.2475   -3.2640 H   0  0  0  0  0  0  0  0  0  0  0  0
   -6.9811   -1.5489   -1.7171 H   0  0  0  0  0  0  0  0  0  0  0  0
  1  7  1  0  0  0  0
  1 13  1  0  0  0  0
  2  7  2  0  0  0  0
  3  7  1  0  0  0  0
  3 14  1  6  0  0  0
  3  6  1  0  0  0  0
  3  4  1  0  0  0  0
  4  5  1  0  0  0  0
  4 15  1  0  0  0  0
  4 16  1  0  0  0  0
  5  8  2  0  0  0  0
  5  9  1  0  0  0  0
  6 17  1  0  0  0  0
  6 18  1  0  0  0  0
  6 19  1  0  0  0  0
  8 10  1  0  0  0  0
  8 20  1  0  0  0  0
  9 11  2  0  0  0  0
  9 21  1  0  0  0  0
 10 12  2  0  0  0  0
 10 22  1  0  0  0  0
 11 12  1  0  0  0  0
 11 23  1  0  0  0  0
 12 24  1  0  0  0  0
M  END
>  <DRUGBANK_ID>
DB07673

>  <COMMON_NAME>
(2S)-2-Methyl-3-phenylpropanoic acid

>  <CAS_NUMBER>
14367-54-5

>  <SYNONYMS>
(S)-2-Benzylpropanoic acid; Deamino-methyl-phenylalanine

$$$$
