
 OpenBabel10282417123D

 45 46  0  0  1  0  0  0  0  0999 V2000
    1.2218   -1.2163   -0.2808 C   0  0  2  0  0  0  0  0  0  0  0  0
    1.1566   -1.7102    1.1483 O   0  0  0  0  0  0  0  0  0  0  0  0
    2.1486    0.0211   -0.5302 O   0  0  0  0  0  0  0  0  0  0  0  0
   -0.1577   -0.9323   -0.8880 C   0  0  2  0  0  0  0  0  0  0  0  0
    1.6808   -2.3846   -1.1869 C   0  0  0  0  0  0  0  0  0  0  0  0
    0.5774   -1.1128    2.3908 C   0  0  1  0  0  0  0  0  0  0  0  0
    1.3684    1.3048   -0.7626 C   0  0  1  0  0  0  0  0  0  0  0  0
   -0.0642    0.5672   -0.7326 C   0  0  1  0  0  0  0  0  0  0  0  0
   -1.1069   -1.8792   -0.3491 O   0  0  0  0  0  0  0  0  0  0  0  0
    1.6729   -1.9994   -2.5764 O   0  0  0  0  0  0  0  0  0  0  0  0
    1.3112   -0.0690    3.0482 O   0  0  0  0  0  0  0  0  0  0  0  0
   -0.9386   -0.7416    2.4901 C   0  0  1  0  0  0  0  0  0  0  0  0
    1.7852    2.8890    0.1679 C   0  0  0  0  0  0  0  0  0  0  0  0
   -1.2826    1.1897   -1.0493 O   0  0  0  0  0  0  0  0  0  0  0  0
    1.4191    0.9602    2.1112 C   0  0  1  0  0  0  0  0  0  0  0  0
   -1.3981    0.5159    1.7208 C   0  0  2  0  0  0  0  0  0  0  0  0
   -1.6865   -1.9165    2.1452 O   0  0  0  0  0  0  0  0  0  0  0  0
    3.1049    3.4645    0.0336 O   0  0  0  0  0  0  0  0  0  0  0  0
   -0.2361    1.6917    1.7369 C   0  0  2  0  0  0  0  0  0  0  0  0
    2.9140    1.5393    2.0933 C   0  0  0  0  0  0  0  0  0  0  0  0
   -2.7007    1.0470    1.9830 O   0  0  0  0  0  0  0  0  0  0  0  0
   -0.5611    2.7066    0.6760 O   0  0  0  0  0  0  0  0  0  0  0  0
    4.0899    0.8021    2.3319 O   0  0  0  0  0  0  0  0  0  0  0  0
   -0.4105   -0.9865   -1.9372 H   0  0  0  0  0  0  0  0  0  0  0  0
    2.6943   -2.6867   -0.9396 H   0  0  0  0  0  0  0  0  0  0  0  0
    1.0232   -3.2620   -1.0664 H   0  0  0  0  0  0  0  0  0  0  0  0
    0.7025   -1.9264    3.1144 H   0  0  0  0  0  0  0  0  0  0  0  0
    1.6290    1.6457   -1.7539 H   0  0  0  0  0  0  0  0  0  0  0  0
   -0.0271    0.4069    0.2963 H   0  0  0  0  0  0  0  0  0  0  0  0
   -1.8533   -1.5540    0.1911 H   0  0  0  0  0  0  0  0  0  0  0  0
    0.7713   -1.7725   -2.8586 H   0  0  0  0  0  0  0  0  0  0  0  0
   -1.1769   -0.4694    3.5202 H   0  0  0  0  0  0  0  0  0  0  0  0
    1.1498    3.7683   -0.0071 H   0  0  0  0  0  0  0  0  0  0  0  0
    1.5751    2.9126    1.2564 H   0  0  0  0  0  0  0  0  0  0  0  0
   -1.2952    1.6399   -1.9019 H   0  0  0  0  0  0  0  0  0  0  0  0
    1.6507    0.3507    1.2846 H   0  0  0  0  0  0  0  0  0  0  0  0
   -1.6819    0.1111    0.7565 H   0  0  0  0  0  0  0  0  0  0  0  0
   -1.0774   -2.5206    1.6612 H   0  0  0  0  0  0  0  0  0  0  0  0
    3.8378    2.8833    0.3094 H   0  0  0  0  0  0  0  0  0  0  0  0
   -0.4469    2.3595    2.5528 H   0  0  0  0  0  0  0  0  0  0  0  0
    3.1315    1.5320    1.0304 H   0  0  0  0  0  0  0  0  0  0  0  0
    2.9949    2.5274    2.5442 H   0  0  0  0  0  0  0  0  0  0  0  0
   -2.8125    1.7780    1.3354 H   0  0  0  0  0  0  0  0  0  0  0  0
   -0.4448    2.5270   -0.2879 H   0  0  0  0  0  0  0  0  0  0  0  0
    4.1733    0.6895    3.3335 H   0  0  0  0  0  0  0  0  0  0  0  0
  1  2  1  1  0  0  0
  1  3  1  0  0  0  0
  1  4  1  0  0  0  0
  1  5  1  0  0  0  0
  3  7  1  0  0  0  0
  4  8  1  0  0  0  0
  4  9  1  0  0  0  0
  4 24  1  6  0  0  0
  5 10  1  0  0  0  0
  5 25  1  0  0  0  0
  5 26  1  0  0  0  0
  6  2  1  0  0  0  0
  6 11  1  0  0  0  0
  6 12  1  0  0  0  0
  6 27  1  1  0  0  0
  7 13  1  0  0  0  0
  7  8  1  0  0  0  0
  7 28  1  6  0  0  0
  8 14  1  0  0  0  0
  8 29  1  1  0  0  0
  9 30  1  0  0  0  0
 10 31  1  0  0  0  0
 11 15  1  0  0  0  0
 12 16  1  0  0  0  0
 12 17  1  0  0  0  0
 12 32  1  1  0  0  0
 13 18  1  0  0  0  0
 13 33  1  0  0  0  0
 13 34  1  0  0  0  0
 14 35  1  0  0  0  0
 15 19  1  0  0  0  0
 15 20  1  0  0  0  0
 15 36  1  6  0  0  0
 16 21  1  0  0  0  0
 16 19  1  0  0  0  0
 16 37  1  6  0  0  0
 17 38  1  0  0  0  0
 18 39  1  0  0  0  0
 19 22  1  0  0  0  0
 19 40  1  1  0  0  0
 20 23  1  0  0  0  0
 20 41  1  0  0  0  0
 20 42  1  0  0  0  0
 21 43  1  0  0  0  0
 22 44  1  0  0  0  0
 23 45  1  0  0  0  0
M  END
>  <DRUGBANK_ID>
DB02772

>  <SECONDARY_ACCESSION_NUMBERS>
EXPT02977

>  <COMMON_NAME>
Sucrose

>  <CAS_NUMBER>
57-50-1

>  <UNII>
C151H8M554

>  <SYNONYMS>
1-alpha-D-Glucopyranosyl-2-beta-D-fructofuranoside; Beet sugar; Cane sugar; Sacarosa; Saccharose; Sacharose; Sucraloxum; Sucrose; Table sugar; White sugar

$$$$
