5212
 OpenBabel10282417103D

 63 66  0  0  0  0  0  0  0  0999 V2000
    1.4646   -0.1983   -0.2741 C   0  0  0  0  0  0  0  0  0  0  0  0
    3.0234   -0.2734    0.0164 C   0  0  0  0  0  0  0  0  0  0  0  0
    0.5643   -1.2885   -0.0401 C   0  0  0  0  0  0  0  0  0  0  0  0
    0.8591    1.0656   -0.5304 C   0  0  0  0  0  0  0  0  0  0  0  0
    3.4638   -0.2220    1.2460 N   0  0  0  0  0  0  0  0  0  0  0  0
    3.9113   -0.4986   -1.0477 N   0  0  0  0  0  0  0  0  0  0  0  0
   -0.8410   -1.0922   -0.0542 C   0  0  0  0  0  0  0  0  0  0  0  0
    0.8390   -2.6206    0.1881 O   0  0  0  0  0  0  0  0  0  0  0  0
   -0.5401    1.2661   -0.2488 C   0  0  0  0  0  0  0  0  0  0  0  0
    4.8447   -0.4472    1.4270 C   0  0  0  0  0  0  0  0  0  0  0  0
    5.1018   -1.1878   -0.8466 C   0  0  0  0  0  0  0  0  0  0  0  0
   -1.3978    0.1784   -0.1318 C   0  0  0  0  0  0  0  0  0  0  0  0
    2.1572   -3.0670   -0.0694 C   0  0  0  0  0  0  0  0  0  0  0  0
   -1.2297    2.8979    0.2570 S   0  0  0  0  0  0  0  0  0  0  0  0
    5.5946   -1.0140    0.4507 C   0  0  0  0  0  0  0  0  0  0  0  0
    5.7896   -0.0295    2.4024 C   0  0  0  0  0  0  0  0  0  0  0  0
    2.5211   -2.8133   -1.5203 C   0  0  0  0  0  0  0  0  0  0  0  0
   -0.6418    3.3288    1.8228 N   0  0  0  0  0  0  0  0  0  0  0  0
   -0.6980    3.8437   -0.6998 O   0  0  0  0  0  0  0  0  0  0  0  0
   -2.6586    2.7201    0.4217 O   0  0  0  0  0  0  0  0  0  0  0  0
    6.8277   -1.2156    0.9721 N   0  0  0  0  0  0  0  0  0  0  0  0
    7.0107   -0.5424    2.1316 N   0  0  0  0  0  0  0  0  0  0  0  0
    5.6211    0.9176    3.5506 C   0  0  0  0  0  0  0  0  0  0  0  0
    0.8091    3.5587    1.9212 C   0  0  0  0  0  0  0  0  0  0  0  0
   -1.1120    2.5590    3.0430 C   0  0  0  0  0  0  0  0  0  0  0  0
    7.8995   -1.9519    0.3466 C   0  0  0  0  0  0  0  0  0  0  0  0
    5.4026    2.3820    3.1344 C   0  0  0  0  0  0  0  0  0  0  0  0
    1.4024    2.1756    2.0998 C   0  0  0  0  0  0  0  0  0  0  0  0
   -0.3754    1.2182    3.2358 C   0  0  0  0  0  0  0  0  0  0  0  0
    4.1968    2.5112    2.2981 C   0  0  0  0  0  0  0  0  0  0  0  0
    1.0922    1.4413    3.3319 N   0  0  0  0  0  0  0  0  0  0  0  0
    1.7284    0.1138    3.3772 C   0  0  0  0  0  0  0  0  0  0  0  0
    5.6255   -1.9146   -1.6998 O   0  0  0  0  0  0  0  0  0  0  0  0
    1.4994    1.9397   -0.6398 H   0  0  0  0  0  0  0  0  0  0  0  0
    3.5708   -0.5972   -1.9894 H   0  0  0  0  0  0  0  0  0  0  0  0
   -1.5107   -1.9468    0.0618 H   0  0  0  0  0  0  0  0  0  0  0  0
   -2.4740    0.3119   -0.0277 H   0  0  0  0  0  0  0  0  0  0  0  0
    2.8134   -2.6181    0.6831 H   0  0  0  0  0  0  0  0  0  0  0  0
    2.2442   -4.1412    0.1139 H   0  0  0  0  0  0  0  0  0  0  0  0
    2.2112   -1.8199   -1.8361 H   0  0  0  0  0  0  0  0  0  0  0  0
    3.5872   -2.9610   -1.6387 H   0  0  0  0  0  0  0  0  0  0  0  0
    2.0148   -3.4074   -2.2717 H   0  0  0  0  0  0  0  0  0  0  0  0
    4.7929    0.5571    4.1729 H   0  0  0  0  0  0  0  0  0  0  0  0
    6.5060    0.9114    4.1921 H   0  0  0  0  0  0  0  0  0  0  0  0
    1.0942    4.2231    2.7454 H   0  0  0  0  0  0  0  0  0  0  0  0
    1.1880    4.0396    1.0092 H   0  0  0  0  0  0  0  0  0  0  0  0
   -0.9025    3.1726    3.9318 H   0  0  0  0  0  0  0  0  0  0  0  0
   -2.1871    2.4006    2.9976 H   0  0  0  0  0  0  0  0  0  0  0  0
    7.6020   -3.0042    0.3038 H   0  0  0  0  0  0  0  0  0  0  0  0
    8.0441   -1.5625   -0.6643 H   0  0  0  0  0  0  0  0  0  0  0  0
    8.8169   -1.8412    0.9264 H   0  0  0  0  0  0  0  0  0  0  0  0
    5.1966    2.9891    4.0223 H   0  0  0  0  0  0  0  0  0  0  0  0
    6.2230    2.8060    2.5612 H   0  0  0  0  0  0  0  0  0  0  0  0
    2.3291    2.1695    1.5684 H   0  0  0  0  0  0  0  0  0  0  0  0
    0.9220    1.5257    1.4352 H   0  0  0  0  0  0  0  0  0  0  0  0
   -0.6014    0.5693    2.3825 H   0  0  0  0  0  0  0  0  0  0  0  0
   -0.7244    0.6791    4.1168 H   0  0  0  0  0  0  0  0  0  0  0  0
    3.4606    2.0472    2.9451 H   0  0  0  0  0  0  0  0  0  0  0  0
    3.8732    3.5286    2.0768 H   0  0  0  0  0  0  0  0  0  0  0  0
    4.2785    1.9968    1.3370 H   0  0  0  0  0  0  0  0  0  0  0  0
    1.4276   -0.4423    4.2661 H   0  0  0  0  0  0  0  0  0  0  0  0
    1.4710   -0.5126    2.5179 H   0  0  0  0  0  0  0  0  0  0  0  0
    2.8107    0.1838    3.4564 H   0  0  0  0  0  0  0  0  0  0  0  0
  1  2  1  0  0  0  0
  1  3  1  0  0  0  0
  1  4  2  0  0  0  0
  2  5  2  0  0  0  0
  2  6  1  0  0  0  0
  3  7  2  0  0  0  0
  3  8  1  0  0  0  0
  4  9  1  0  0  0  0
  4 34  1  0  0  0  0
  5 10  1  0  0  0  0
  6 11  1  0  0  0  0
  6 35  1  0  0  0  0
  7 12  1  0  0  0  0
  7 36  1  0  0  0  0
  8 13  1  0  0  0  0
  9 14  1  0  0  0  0
  9 12  2  0  0  0  0
 10 15  2  0  0  0  0
 10 16  1  0  0  0  0
 11 15  1  0  0  0  0
 11 33  2  0  0  0  0
 12 37  1  0  0  0  0
 13 17  1  0  0  0  0
 13 38  1  0  0  0  0
 13 39  1  0  0  0  0
 14 18  1  0  0  0  0
 14 19  2  0  0  0  0
 14 20  2  0  0  0  0
 15 21  1  0  0  0  0
 16 22  2  0  0  0  0
 16 23  1  0  0  0  0
 17 40  1  0  0  0  0
 17 41  1  0  0  0  0
 17 42  1  0  0  0  0
 18 24  1  0  0  0  0
 18 25  1  0  0  0  0
 21 26  1  0  0  0  0
 21 22  1  0  0  0  0
 23 27  1  0  0  0  0
 23 43  1  0  0  0  0
 23 44  1  0  0  0  0
 24 28  1  0  0  0  0
 24 45  1  0  0  0  0
 24 46  1  0  0  0  0
 25 29  1  0  0  0  0
 25 47  1  0  0  0  0
 25 48  1  0  0  0  0
 26 49  1  0  0  0  0
 26 50  1  0  0  0  0
 26 51  1  0  0  0  0
 27 30  1  0  0  0  0
 27 52  1  0  0  0  0
 27 53  1  0  0  0  0
 28 31  1  0  0  0  0
 28 54  1  0  0  0  0
 28 55  1  0  0  0  0
 29 31  1  0  0  0  0
 29 56  1  0  0  0  0
 29 57  1  0  0  0  0
 30 58  1  0  0  0  0
 30 59  1  0  0  0  0
 30 60  1  0  0  0  0
 31 32  1  0  0  0  0
 32 61  1  0  0  0  0
 32 62  1  0  0  0  0
 32 63  1  0  0  0  0
M  END
>  <DRUGBANK_ID>
DB00203

>  <SECONDARY_ACCESSION_NUMBERS>
APRD00556

>  <COMMON_NAME>
Sildenafil

>  <CAS_NUMBER>
139755-83-2

>  <UNII>
3M7OB98Y7H

>  <SYNONYMS>
1-((3-(4,7-Dihydro-1-methyl-7-oxo-3-propyl-1H-pyrazolo(4,3-d)pyrimidin-5-yl)-4-ethoxyphenyl)sulfonyl)-4-methylpiperazine; Sildenafil; Sildenafilo

$$$$
