
 OpenBabel10282417183D

 50 53  0  0  0  0  0  0  0  0999 V2000
    0.6702    1.1658   -0.2963 C   0  0  0  0  0  0  0  0  0  0  0  0
   -0.7926    1.2562    0.1665 C   0  0  0  0  0  0  0  0  0  0  0  0
   -1.5069    0.0389   -0.1829 N   0  0  0  0  0  0  0  0  0  0  0  0
   -0.8649   -1.2082    0.2105 C   0  0  0  0  0  0  0  0  0  0  0  0
    0.6017   -1.1951   -0.2771 C   0  0  0  0  0  0  0  0  0  0  0  0
    1.3066   -0.0301    0.1936 O   0  0  0  0  0  0  0  0  0  0  0  0
   -2.6526    0.0539   -0.9399 C   0  0  0  0  0  0  0  0  0  0  0  0
   -3.7598   -0.5115   -0.4216 N   0  0  0  0  0  0  0  0  0  0  0  0
   -4.8865   -0.5404   -1.1614 C   0  0  0  0  0  0  0  0  0  0  0  0
   -4.8888   -0.0254   -2.4368 C   0  0  0  0  0  0  0  0  0  0  0  0
   -3.7426    0.5893   -2.8967 C   0  0  0  0  0  0  0  0  0  0  0  0
   -2.6131    0.6343   -2.1542 N   0  0  0  0  0  0  0  0  0  0  0  0
   -6.0383   -1.0823   -0.6352 N   0  0  0  0  0  0  0  0  0  0  0  0
   -3.7122    1.2615   -4.2131 C   0  0  0  0  0  0  0  0  0  0  0  0
   -4.5430    2.3499   -4.5526 C   0  0  0  0  0  0  0  0  0  0  0  0
   -4.4754    2.8993   -5.8501 C   0  0  0  0  0  0  0  0  0  0  0  0
   -3.5647    2.4088   -6.7687 C   0  0  0  0  0  0  0  0  0  0  0  0
   -2.7717    1.3684   -6.4760 N   0  0  0  0  0  0  0  0  0  0  0  0
   -2.8640    0.8203   -5.2290 C   0  0  0  0  0  0  0  0  0  0  0  0
   -5.4954    2.9651   -3.5604 C   0  0  0  0  0  0  0  0  0  0  0  0
   -3.5547    2.8878   -8.0687 N   0  0  0  0  0  0  0  0  0  0  0  0
   -6.8279   -2.1017   -1.3265 C   0  0  0  0  0  0  0  0  0  0  0  0
   -8.2682   -1.6125   -1.5486 C   0  0  0  0  0  0  0  0  0  0  0  0
   -8.8720   -1.1775   -0.3190 O   0  0  0  0  0  0  0  0  0  0  0  0
   -8.1081   -0.1009    0.2579 C   0  0  0  0  0  0  0  0  0  0  0  0
   -6.6564   -0.5322    0.5740 C   0  0  0  0  0  0  0  0  0  0  0  0
   -6.4825    2.1121   -3.1700 F   0  0  0  0  0  0  0  0  0  0  0  0
   -4.8782    3.3848   -2.4248 F   0  0  0  0  0  0  0  0  0  0  0  0
   -6.1517    4.0570   -4.0475 F   0  0  0  0  0  0  0  0  0  0  0  0
    0.7422    1.1819   -1.3893 H   0  0  0  0  0  0  0  0  0  0  0  0
    1.2380    2.0188    0.0909 H   0  0  0  0  0  0  0  0  0  0  0  0
   -0.7975    1.3312    1.2628 H   0  0  0  0  0  0  0  0  0  0  0  0
   -1.2683    2.1611   -0.2238 H   0  0  0  0  0  0  0  0  0  0  0  0
   -0.8665   -1.2678    1.3060 H   0  0  0  0  0  0  0  0  0  0  0  0
   -1.3750   -2.0951   -0.1800 H   0  0  0  0  0  0  0  0  0  0  0  0
    1.1363   -2.0742    0.0981 H   0  0  0  0  0  0  0  0  0  0  0  0
    0.6562   -1.2145   -1.3723 H   0  0  0  0  0  0  0  0  0  0  0  0
   -5.7939   -0.0457   -3.0315 H   0  0  0  0  0  0  0  0  0  0  0  0
   -5.1218    3.7270   -6.1318 H   0  0  0  0  0  0  0  0  0  0  0  0
   -2.2175   -0.0435   -5.0796 H   0  0  0  0  0  0  0  0  0  0  0  0
   -2.7339    2.5719   -8.5768 H   0  0  0  0  0  0  0  0  0  0  0  0
   -3.8165    3.8516   -8.2222 H   0  0  0  0  0  0  0  0  0  0  0  0
   -6.8568   -2.9839   -0.6753 H   0  0  0  0  0  0  0  0  0  0  0  0
   -6.3785   -2.4110   -2.2756 H   0  0  0  0  0  0  0  0  0  0  0  0
   -8.3030   -0.7880   -2.2701 H   0  0  0  0  0  0  0  0  0  0  0  0
   -8.8803   -2.4288   -1.9465 H   0  0  0  0  0  0  0  0  0  0  0  0
   -8.6220    0.2071    1.1746 H   0  0  0  0  0  0  0  0  0  0  0  0
   -8.1289    0.7482   -0.4361 H   0  0  0  0  0  0  0  0  0  0  0  0
   -6.6850   -1.3242    1.3316 H   0  0  0  0  0  0  0  0  0  0  0  0
   -6.1032    0.3182    0.9866 H   0  0  0  0  0  0  0  0  0  0  0  0
  1  2  1  0  0  0  0
  1  6  1  0  0  0  0
  1 30  1  0  0  0  0
  1 31  1  0  0  0  0
  2  3  1  0  0  0  0
  2 32  1  0  0  0  0
  2 33  1  0  0  0  0
  3  7  1  0  0  0  0
  3  4  1  0  0  0  0
  4  5  1  0  0  0  0
  4 34  1  0  0  0  0
  4 35  1  0  0  0  0
  5  6  1  0  0  0  0
  5 36  1  0  0  0  0
  5 37  1  0  0  0  0
  7  8  2  0  0  0  0
  8  9  1  0  0  0  0
  9 10  2  0  0  0  0
  9 13  1  0  0  0  0
 10 11  1  0  0  0  0
 10 38  1  0  0  0  0
 11 14  1  0  0  0  0
 11 12  2  0  0  0  0
 12  7  1  0  0  0  0
 13 22  1  0  0  0  0
 13 26  1  0  0  0  0
 14 15  2  0  0  0  0
 15 16  1  0  0  0  0
 15 20  1  0  0  0  0
 16 17  2  0  0  0  0
 16 39  1  0  0  0  0
 17 18  1  0  0  0  0
 17 21  1  0  0  0  0
 18 19  2  0  0  0  0
 19 14  1  0  0  0  0
 19 40  1  0  0  0  0
 20 27  1  0  0  0  0
 20 28  1  0  0  0  0
 20 29  1  0  0  0  0
 21 41  1  0  0  0  0
 21 42  1  0  0  0  0
 22 23  1  0  0  0  0
 22 43  1  0  0  0  0
 22 44  1  0  0  0  0
 23 24  1  0  0  0  0
 23 45  1  0  0  0  0
 23 46  1  0  0  0  0
 24 25  1  0  0  0  0
 25 26  1  0  0  0  0
 25 47  1  0  0  0  0
 25 48  1  0  0  0  0
 26 49  1  0  0  0  0
 26 50  1  0  0  0  0
M  END
>  <DRUGBANK_ID>
DB11666

>  <COMMON_NAME>
Buparlisib

>  <CAS_NUMBER>
944396-07-0

>  <UNII>
0ZM2Z182GD

>  <SYNONYMS>
Buparlisib; Buparlisibum

$$$$
