
 OpenBabel10282417153D

 72 74  0  0  1  0  0  0  0  0999 V2000
    5.8299   -3.7806   -8.5010 C   0  0  0  0  0  0  0  0  0  0  0  0
    8.4668    5.0837   -5.3127 C   0  0  0  0  0  0  0  0  0  0  0  0
    6.7820    3.0866   -2.6584 C   0  0  0  0  0  0  0  0  0  0  0  0
    4.3693    3.0505   -2.3108 C   0  0  0  0  0  0  0  0  0  0  0  0
    6.4801    3.1913   -7.3900 C   0  0  0  0  0  0  0  0  0  0  0  0
    7.9977    0.7099   -6.1355 C   0  0  0  0  0  0  0  0  0  0  0  0
    6.7673   -0.0861   -5.8728 C   0  0  0  0  0  0  0  0  0  0  0  0
    4.4548    0.0592   -6.9499 C   0  0  0  0  0  0  0  0  0  0  0  0
    4.5083   -1.2741   -7.5096 C   0  0  0  0  0  0  0  0  0  0  0  0
    4.3449    3.9938   -5.3549 C   0  0  0  0  0  0  0  0  0  0  0  0
    3.9777    2.5803   -5.7041 C   0  0  0  0  0  0  0  0  0  0  0  0
    7.8579    2.0696   -5.5226 C   0  0  0  0  0  0  0  0  0  0  0  0
    5.9631    5.1920   -1.7837 C   0  0  0  0  0  0  0  0  0  0  0  0
    7.0911    5.9281   -2.6457 C   0  0  0  0  0  0  0  0  0  0  0  0
    5.1708   -2.2527   -5.2653 C   0  0  0  0  0  0  0  0  0  0  0  0
    4.9511   -4.6772   -5.0350 C   0  0  0  0  0  0  0  0  0  0  0  0
    5.1393   -3.6311   -7.3602 C   0  0  0  0  0  0  0  0  0  0  0  0
    6.9782    5.4426   -5.2349 C   0  0  1  0  0  0  0  0  0  0  0  0
    5.4325    0.5601   -6.2568 C   0  0  0  0  0  0  0  0  0  0  0  0
    4.8883   -2.3202   -6.7734 C   0  0  0  0  0  0  0  0  0  0  0  0
    4.5725   -3.3439   -4.4308 C   0  0  2  0  0  0  0  0  0  0  0  0
    6.0445    4.1046   -5.3128 C   0  0  2  0  0  0  0  0  0  0  0  0
    5.2984    1.8516   -5.5439 C   0  0  1  0  0  0  0  0  0  0  0  0
    4.5809   -4.7660   -6.5229 C   0  0  1  0  0  0  0  0  0  0  0  0
    5.4543    4.0842   -2.6078 C   0  0  0  0  0  0  0  0  0  0  0  0
    6.4843    2.7812   -5.9404 C   0  0  1  0  0  0  0  0  0  0  0  0
    3.1668   -3.1690   -4.3371 O   0  0  0  0  0  0  0  0  0  0  0  0
    5.0381   -6.0213   -7.0099 O   0  0  0  0  0  0  0  0  0  0  0  0
    4.7575    5.0990   -3.4021 O   0  0  0  0  0  0  0  0  0  0  0  0
    6.7815    6.3143   -4.0444 O   0  0  0  0  0  0  0  0  0  0  0  0
    3.4990    0.5830   -7.1156 H   0  0  0  0  0  0  0  0  0  0  0  0
    4.2798   -1.3126   -8.5708 H   0  0  0  0  0  0  0  0  0  0  0  0
    6.7190    6.0784   -6.0929 H   0  0  0  0  0  0  0  0  0  0  0  0
    4.9835   -3.2510   -3.4173 H   0  0  0  0  0  0  0  0  0  0  0  0
    6.3644    3.8393   -4.3720 H   0  0  0  0  0  0  0  0  0  0  0  0
    5.3528    1.5361   -4.4973 H   0  0  0  0  0  0  0  0  0  0  0  0
    3.4907   -4.7418   -6.6253 H   0  0  0  0  0  0  0  0  0  0  0  0
    6.2473   -2.9474   -9.0646 H   0  0  0  0  0  0  0  0  0  0  0  0
    5.9955   -4.7660   -8.9288 H   0  0  0  0  0  0  0  0  0  0  0  0
    8.5616    4.0924   -4.9172 H   0  0  0  0  0  0  0  0  0  0  0  0
    8.8511    5.0573   -6.3387 H   0  0  0  0  0  0  0  0  0  0  0  0
    9.1496    5.6086   -4.6434 H   0  0  0  0  0  0  0  0  0  0  0  0
    7.0090    2.6464   -1.6855 H   0  0  0  0  0  0  0  0  0  0  0  0
    6.5836    2.1940   -3.2499 H   0  0  0  0  0  0  0  0  0  0  0  0
    7.7385    3.4859   -3.0328 H   0  0  0  0  0  0  0  0  0  0  0  0
    3.3585    3.4486   -2.2474 H   0  0  0  0  0  0  0  0  0  0  0  0
    4.2770    2.3098   -3.1199 H   0  0  0  0  0  0  0  0  0  0  0  0
    4.6586    2.4296   -1.4724 H   0  0  0  0  0  0  0  0  0  0  0  0
    5.4979    3.6007   -7.6483 H   0  0  0  0  0  0  0  0  0  0  0  0
    7.2011    3.9990   -7.5283 H   0  0  0  0  0  0  0  0  0  0  0  0
    6.7152    2.3691   -8.0504 H   0  0  0  0  0  0  0  0  0  0  0  0
    8.8531    0.1809   -5.6911 H   0  0  0  0  0  0  0  0  0  0  0  0
    8.1771    0.8124   -7.2033 H   0  0  0  0  0  0  0  0  0  0  0  0
    6.7426   -0.2933   -4.7889 H   0  0  0  0  0  0  0  0  0  0  0  0
    6.9389   -1.0001   -6.4286 H   0  0  0  0  0  0  0  0  0  0  0  0
    3.8618    4.7387   -5.9810 H   0  0  0  0  0  0  0  0  0  0  0  0
    3.7137    4.0552   -4.4526 H   0  0  0  0  0  0  0  0  0  0  0  0
    3.5476    2.6146   -6.6986 H   0  0  0  0  0  0  0  0  0  0  0  0
    3.1879    2.1587   -5.0420 H   0  0  0  0  0  0  0  0  0  0  0  0
    8.0056    1.8893   -4.4488 H   0  0  0  0  0  0  0  0  0  0  0  0
    8.7620    2.5800   -5.8488 H   0  0  0  0  0  0  0  0  0  0  0  0
    6.2909    4.7838   -0.8386 H   0  0  0  0  0  0  0  0  0  0  0  0
    5.1353    5.8937   -1.5863 H   0  0  0  0  0  0  0  0  0  0  0  0
    8.0368    5.3845   -2.6082 H   0  0  0  0  0  0  0  0  0  0  0  0
    7.2660    6.8576   -2.0943 H   0  0  0  0  0  0  0  0  0  0  0  0
    4.8031   -1.3220   -4.8216 H   0  0  0  0  0  0  0  0  0  0  0  0
    6.2551   -2.3321   -5.1102 H   0  0  0  0  0  0  0  0  0  0  0  0
    6.0331   -4.8344   -4.9142 H   0  0  0  0  0  0  0  0  0  0  0  0
    4.4477   -5.4739   -4.4844 H   0  0  0  0  0  0  0  0  0  0  0  0
    2.8293   -2.9863   -5.2324 H   0  0  0  0  0  0  0  0  0  0  0  0
    6.0087   -6.0011   -6.9553 H   0  0  0  0  0  0  0  0  0  0  0  0
    5.1796    5.6081   -4.1334 H   0  0  0  0  0  0  0  0  0  0  0  0
  1 38  1  0  0  0  0
  1 39  1  0  0  0  0
  2 40  1  0  0  0  0
  2 41  1  0  0  0  0
  2 42  1  0  0  0  0
  3 43  1  0  0  0  0
  3 44  1  0  0  0  0
  3 45  1  0  0  0  0
  4 46  1  0  0  0  0
  4 47  1  0  0  0  0
  4 48  1  0  0  0  0
  5 49  1  0  0  0  0
  5 50  1  0  0  0  0
  5 51  1  0  0  0  0
  6 52  1  0  0  0  0
  6 53  1  0  0  0  0
  7  6  1  0  0  0  0
  7 54  1  0  0  0  0
  7 55  1  0  0  0  0
  9  8  1  0  0  0  0
 10 56  1  0  0  0  0
 10 57  1  0  0  0  0
 11 10  1  0  0  0  0
 11 58  1  0  0  0  0
 11 59  1  0  0  0  0
 12  6  1  0  0  0  0
 12 60  1  0  0  0  0
 12 61  1  0  0  0  0
 13 62  1  0  0  0  0
 13 63  1  0  0  0  0
 14 13  1  0  0  0  0
 14 64  1  0  0  0  0
 14 65  1  0  0  0  0
 15 66  1  0  0  0  0
 15 67  1  0  0  0  0
 16 68  1  0  0  0  0
 16 69  1  0  0  0  0
 17  1  2  0  0  0  0
 18 33  1  6  0  0  0
 18  2  1  0  0  0  0
 19  7  1  0  0  0  0
 19  8  2  0  0  0  0
 20  9  2  0  0  0  0
 20 15  1  0  0  0  0
 20 17  1  0  0  0  0
 21 15  1  0  0  0  0
 21 16  1  0  0  0  0
 21 27  1  0  0  0  0
 21 34  1  1  0  0  0
 22 10  1  0  0  0  0
 22 18  1  0  0  0  0
 22 35  1  1  0  0  0
 23 11  1  0  0  0  0
 23 19  1  0  0  0  0
 23 36  1  1  0  0  0
 24 16  1  0  0  0  0
 24 17  1  0  0  0  0
 24 28  1  0  0  0  0
 24 37  1  6  0  0  0
 25  3  1  0  0  0  0
 25  4  1  0  0  0  0
 25 13  1  0  0  0  0
 26  5  1  6  0  0  0
 26 12  1  0  0  0  0
 26 22  1  0  0  0  0
 26 23  1  0  0  0  0
 27 70  1  0  0  0  0
 28 71  1  0  0  0  0
 29 25  1  0  0  0  0
 29 72  1  0  0  0  0
 30 14  1  0  0  0  0
 30 18  1  0  0  0  0
 31  8  1  0  0  0  0
 32  9  1  0  0  0  0
M  END
>  <DRUGBANK_ID>
DB06272

>  <COMMON_NAME>
Maxacalcitol

>  <CAS_NUMBER>
103909-75-7

>  <UNII>
N2UJM5NBF6

>  <SYNONYMS>
Maxacalcitol

$$$$
