
 OpenBabel10282417173D

 51 53  0  0  0  0  0  0  0  0999 V2000
    1.0801    0.0528    0.4284 C   0  0  0  0  0  0  0  0  0  0  0  0
   -7.2277    4.7862   -2.6701 C   0  0  0  0  0  0  0  0  0  0  0  0
   -6.3711    3.9839   -3.4207 C   0  0  0  0  0  0  0  0  0  0  0  0
   -7.3625    4.5788   -1.2978 C   0  0  0  0  0  0  0  0  0  0  0  0
   -5.6986    2.9321   -2.8092 C   0  0  0  0  0  0  0  0  0  0  0  0
   -6.6521    3.5580   -0.6756 C   0  0  0  0  0  0  0  0  0  0  0  0
    0.6232    0.5031   -2.7343 C   0  0  0  0  0  0  0  0  0  0  0  0
    0.3036    2.7775   -3.3670 C   0  0  0  0  0  0  0  0  0  0  0  0
    0.3221    0.0510   -4.0068 C   0  0  0  0  0  0  0  0  0  0  0  0
    0.0672    2.3393   -4.6782 C   0  0  0  0  0  0  0  0  0  0  0  0
   -3.1753    2.6903   -0.2035 C   0  0  0  0  0  0  0  0  0  0  0  0
   -3.1753    0.1914   -0.3228 C   0  0  0  0  0  0  0  0  0  0  0  0
   -1.6756    2.6293   -0.1832 C   0  0  0  0  0  0  0  0  0  0  0  0
   -1.6614    0.2195   -0.3625 C   0  0  0  0  0  0  0  0  0  0  0  0
   -5.2522    1.4777   -0.7960 C   0  0  0  0  0  0  0  0  0  0  0  0
    0.4095    1.4406    0.2559 C   0  0  3  0  0  0  0  0  0  0  0  0
   -5.8728    2.6856   -1.4410 C   0  0  0  0  0  0  0  0  0  0  0  0
   -3.7411    1.4719   -0.9248 C   0  0  3  0  0  0  0  0  0  0  0  0
    0.6413    1.8539   -2.3616 C   0  0  0  0  0  0  0  0  0  0  0  0
    0.0884    0.9917   -4.9936 C   0  0  0  0  0  0  0  0  0  0  0  0
    1.0550    2.2709   -0.9452 C   0  0  3  0  0  0  0  0  0  0  0  0
   -1.0892    1.3833    0.3190 N   0  0  0  0  0  0  0  0  0  0  0  0
   -0.1238    0.5823   -6.2708 O   0  0  0  0  0  0  0  0  0  0  0  0
    0.9191    3.6881   -0.6948 O   0  0  0  0  0  0  0  0  0  0  0  0
    0.7681   -0.6972   -0.2957 H   0  0  0  0  0  0  0  0  0  0  0  0
    0.8239   -0.4010    1.3888 H   0  0  0  0  0  0  0  0  0  0  0  0
    2.1688    0.1262    0.3444 H   0  0  0  0  0  0  0  0  0  0  0  0
   -7.7896    5.5777   -3.1557 H   0  0  0  0  0  0  0  0  0  0  0  0
   -6.2457    4.1568   -4.4855 H   0  0  0  0  0  0  0  0  0  0  0  0
   -8.0354    5.1988   -0.7130 H   0  0  0  0  0  0  0  0  0  0  0  0
   -5.0431    2.3024   -3.4067 H   0  0  0  0  0  0  0  0  0  0  0  0
   -6.7176    3.4361    0.4036 H   0  0  0  0  0  0  0  0  0  0  0  0
    0.7937   -0.2958   -2.0319 H   0  0  0  0  0  0  0  0  0  0  0  0
    0.2183    3.8371   -3.1516 H   0  0  0  0  0  0  0  0  0  0  0  0
    0.2914   -1.0135   -4.1911 H   0  0  0  0  0  0  0  0  0  0  0  0
   -0.1280    3.0697   -5.4626 H   0  0  0  0  0  0  0  0  0  0  0  0
   -3.4539    3.6081   -0.7401 H   0  0  0  0  0  0  0  0  0  0  0  0
   -3.5626    2.7739    0.8154 H   0  0  0  0  0  0  0  0  0  0  0  0
   -3.5169    0.0577    0.7089 H   0  0  0  0  0  0  0  0  0  0  0  0
   -3.5194   -0.6744   -0.9022 H   0  0  0  0  0  0  0  0  0  0  0  0
   -1.4114    2.7752   -1.2313 H   0  0  0  0  0  0  0  0  0  0  0  0
   -1.3235    3.4824    0.4058 H   0  0  0  0  0  0  0  0  0  0  0  0
   -1.3155   -0.7135    0.0914 H   0  0  0  0  0  0  0  0  0  0  0  0
   -1.3862    0.2064   -1.4145 H   0  0  0  0  0  0  0  0  0  0  0  0
   -5.6787    0.5791   -1.2543 H   0  0  0  0  0  0  0  0  0  0  0  0
   -5.5119    1.4395    0.2700 H   0  0  0  0  0  0  0  0  0  0  0  0
    0.6947    1.9873    1.1682 H   0  0  0  0  0  0  0  0  0  0  0  0
   -3.4391    1.5071   -1.9831 H   0  0  0  0  0  0  0  0  0  0  0  0
    2.1393    2.1350   -0.8913 H   0  0  0  0  0  0  0  0  0  0  0  0
   -0.0690   -0.3886   -6.2844 H   0  0  0  0  0  0  0  0  0  0  0  0
    0.0609    4.0007   -1.0186 H   0  0  0  0  0  0  0  0  0  0  0  0
  1 25  1  0  0  0  0
  1 26  1  0  0  0  0
  1 27  1  0  0  0  0
  2 28  1  0  0  0  0
  3  2  2  0  0  0  0
  3 29  1  0  0  0  0
  4  2  1  0  0  0  0
  4 30  1  0  0  0  0
  5  3  1  0  0  0  0
  5 31  1  0  0  0  0
  6  4  2  0  0  0  0
  6 32  1  0  0  0  0
  7 33  1  0  0  0  0
  8 34  1  0  0  0  0
  9  7  1  0  0  0  0
  9 35  1  0  0  0  0
 10  8  2  0  0  0  0
 10 36  1  0  0  0  0
 11 37  1  0  0  0  0
 11 38  1  0  0  0  0
 12 39  1  0  0  0  0
 12 40  1  0  0  0  0
 13 11  1  0  0  0  0
 13 41  1  0  0  0  0
 13 42  1  0  0  0  0
 14 12  1  0  0  0  0
 14 43  1  0  0  0  0
 14 44  1  0  0  0  0
 15 45  1  0  0  0  0
 15 46  1  0  0  0  0
 16  1  1  0  0  0  0
 16 47  1  0  0  0  0
 17  5  2  0  0  0  0
 17  6  1  0  0  0  0
 17 15  1  0  0  0  0
 18 11  1  0  0  0  0
 18 12  1  0  0  0  0
 18 15  1  0  0  0  0
 18 48  1  0  0  0  0
 19  7  2  0  0  0  0
 19  8  1  0  0  0  0
 20  9  2  0  0  0  0
 20 10  1  0  0  0  0
 21 16  1  0  0  0  0
 21 19  1  0  0  0  0
 21 49  1  0  0  0  0
 22 13  1  0  0  0  0
 22 14  1  0  0  0  0
 22 16  1  0  0  0  0
 23 20  1  0  0  0  0
 23 50  1  0  0  0  0
 24 21  1  0  0  0  0
 24 51  1  0  0  0  0
M  END
>  <DRUGBANK_ID>
DB08954

>  <COMMON_NAME>
Ifenprodil

>  <CAS_NUMBER>
23210-56-2

>  <UNII>
R8OE3P6O5S

>  <SYNONYMS>
Ifenprodil; Ifenprodilum

$$$$
