
 OpenBabel10282417193D

 42 45  0  0  0  0  0  0  0  0999 V2000
   -2.2518   -0.0306   -0.0027 C   0  0  0  0  0  0  0  0  0  0  0  0
   -0.7815    0.1169    0.0120 C   0  0  0  0  0  0  0  0  0  0  0  0
    0.0616    1.2109    0.0167 C   0  0  0  0  0  0  0  0  0  0  0  0
    1.3731    0.6752    0.0216 C   0  0  0  0  0  0  0  0  0  0  0  0
    1.3355   -0.6595    0.0466 N   0  0  0  0  0  0  0  0  0  0  0  0
    0.0404   -0.9714    0.0190 N   0  0  0  0  0  0  0  0  0  0  0  0
    2.5039    1.4283   -0.0366 N   0  0  0  0  0  0  0  0  0  0  0  0
    3.8080    0.8797   -0.0298 C   0  0  0  0  0  0  0  0  0  0  0  0
    4.2307    0.0479   -1.0773 C   0  0  0  0  0  0  0  0  0  0  0  0
    3.4556   -0.2150   -2.2339 C   0  0  0  0  0  0  0  0  0  0  0  0
    3.9191   -1.0672   -3.2234 C   0  0  0  0  0  0  0  0  0  0  0  0
    5.1694   -1.6431   -3.0836 C   0  0  0  0  0  0  0  0  0  0  0  0
    5.9522   -1.3543   -1.9588 C   0  0  0  0  0  0  0  0  0  0  0  0
    5.5011   -0.5048   -0.9537 C   0  0  0  0  0  0  0  0  0  0  0  0
    6.3072   -0.2445    0.0837 N   0  0  0  0  0  0  0  0  0  0  0  0
    5.8364    0.5903    1.0291 C   0  0  0  0  0  0  0  0  0  0  0  0
    4.6118    1.1702    1.0102 N   0  0  0  0  0  0  0  0  0  0  0  0
    6.7713    0.9204    2.2010 C   0  0  3  0  0  0  0  0  0  0  0  0
    7.0902    2.4045    2.2798 C   0  0  0  0  0  0  0  0  0  0  0  0
    6.0543    3.3445    2.4559 C   0  0  0  0  0  0  0  0  0  0  0  0
    6.3175    4.7081    2.4661 C   0  0  0  0  0  0  0  0  0  0  0  0
    7.6271    5.1417    2.3401 C   0  0  0  0  0  0  0  0  0  0  0  0
    8.6739    4.2366    2.1928 C   0  0  0  0  0  0  0  0  0  0  0  0
    8.4085    2.8662    2.1555 C   0  0  0  0  0  0  0  0  0  0  0  0
    7.8848    6.4552    2.3612 F   0  0  0  0  0  0  0  0  0  0  0  0
    6.2168    0.5324    3.4664 O   0  0  0  0  0  0  0  0  0  0  0  0
   -2.5771   -0.5625   -0.9033 H   0  0  0  0  0  0  0  0  0  0  0  0
   -2.5840   -0.6042    0.8692 H   0  0  0  0  0  0  0  0  0  0  0  0
   -2.7491    0.9427    0.0193 H   0  0  0  0  0  0  0  0  0  0  0  0
   -0.2342    2.2496   -0.0108 H   0  0  0  0  0  0  0  0  0  0  0  0
   -0.2113   -1.9543    0.0009 H   0  0  0  0  0  0  0  0  0  0  0  0
    2.4967    2.3683    0.3328 H   0  0  0  0  0  0  0  0  0  0  0  0
    2.4759    0.2365   -2.3522 H   0  0  0  0  0  0  0  0  0  0  0  0
    3.2921   -1.2762   -4.0846 H   0  0  0  0  0  0  0  0  0  0  0  0
    5.5439   -2.3172   -3.8477 H   0  0  0  0  0  0  0  0  0  0  0  0
    6.9346   -1.8064   -1.8654 H   0  0  0  0  0  0  0  0  0  0  0  0
    7.6988    0.3454    2.0825 H   0  0  0  0  0  0  0  0  0  0  0  0
    5.0220    3.0172    2.5606 H   0  0  0  0  0  0  0  0  0  0  0  0
    5.5079    5.4220    2.5670 H   0  0  0  0  0  0  0  0  0  0  0  0
    9.6898    4.6060    2.1018 H   0  0  0  0  0  0  0  0  0  0  0  0
    9.2318    2.1664    2.0252 H   0  0  0  0  0  0  0  0  0  0  0  0
    5.3010    0.8608    3.4578 H   0  0  0  0  0  0  0  0  0  0  0  0
  1  2  1  0  0  0  0
  1 27  1  0  0  0  0
  1 28  1  0  0  0  0
  1 29  1  0  0  0  0
  2  3  2  0  0  0  0
  2  6  1  0  0  0  0
  3  4  1  0  0  0  0
  3 30  1  0  0  0  0
  4  5  2  0  0  0  0
  4  7  1  0  0  0  0
  5  6  1  0  0  0  0
  6 31  1  0  0  0  0
  7  8  1  0  0  0  0
  7 32  1  0  0  0  0
  8  9  1  0  0  0  0
  8 17  2  0  0  0  0
  9 10  2  0  0  0  0
  9 14  1  0  0  0  0
 10 11  1  0  0  0  0
 10 33  1  0  0  0  0
 11 12  2  0  0  0  0
 11 34  1  0  0  0  0
 12 13  1  0  0  0  0
 12 35  1  0  0  0  0
 13 14  2  0  0  0  0
 13 36  1  0  0  0  0
 14 15  1  0  0  0  0
 15 16  2  0  0  0  0
 16 17  1  0  0  0  0
 16 18  1  0  0  0  0
 18 19  1  0  0  0  0
 18 26  1  0  0  0  0
 18 37  1  0  0  0  0
 19 20  2  0  0  0  0
 19 24  1  0  0  0  0
 20 21  1  0  0  0  0
 20 38  1  0  0  0  0
 21 22  2  0  0  0  0
 21 39  1  0  0  0  0
 22 23  1  0  0  0  0
 22 25  1  0  0  0  0
 23 24  2  0  0  0  0
 23 40  1  0  0  0  0
 24 41  1  0  0  0  0
 26 42  1  0  0  0  0
M  END
>  <DRUGBANK_ID>
DB12535

>  <COMMON_NAME>
AC-430

>  <CAS_NUMBER>
1241914-87-3

>  <UNII>
E7YVO9NSJ9

$$$$
