
 OpenBabel10282417123D

 28 27  0  0  1  0  0  0  0  0999 V2000
    0.9301   -0.7871   -2.3499 N   0  0  0  0  0  0  0  0  0  0  0  0
    0.4819    0.1871   -1.3485 C   0  0  2  0  0  0  0  0  0  0  0  0
    1.0341   -0.1589    0.0498 C   0  0  0  0  0  0  0  0  0  0  0  0
    0.6201   -1.4656    0.4459 O   0  0  0  0  0  0  0  0  0  0  0  0
   -1.0589    0.2213   -1.3412 C   0  0  0  0  0  0  0  0  0  0  0  0
   -1.6044    1.2831   -0.3741 C   0  0  0  0  0  0  0  0  0  0  0  0
   -1.1529    2.6969   -0.7556 C   0  0  0  0  0  0  0  0  0  0  0  0
   -1.6492    3.0899   -2.1458 C   0  0  0  0  0  0  0  0  0  0  0  0
   -3.1030    3.1277   -2.1918 N   0  0  0  0  0  0  0  0  0  0  0  0
   -3.7499    4.2813   -2.5142 C   0  0  0  0  0  0  0  0  0  0  0  0
   -5.0865    4.1611   -2.4837 O   0  0  0  0  0  0  0  0  0  0  0  0
   -3.1985    5.3343   -2.7995 O   0  0  0  0  0  0  0  0  0  0  0  0
    0.6616   -1.7195   -2.0296 H   0  0  0  0  0  0  0  0  0  0  0  0
    1.9520   -0.8077   -2.3411 H   0  0  0  0  0  0  0  0  0  0  0  0
    0.8805    1.1578   -1.6613 H   0  0  0  0  0  0  0  0  0  0  0  0
    2.1266   -0.1311    0.0547 H   0  0  0  0  0  0  0  0  0  0  0  0
    0.7015    0.5563    0.8083 H   0  0  0  0  0  0  0  0  0  0  0  0
   -0.3521   -1.4864    0.4379 H   0  0  0  0  0  0  0  0  0  0  0  0
   -1.4360    0.4017   -2.3548 H   0  0  0  0  0  0  0  0  0  0  0  0
   -1.4763   -0.7550   -1.0698 H   0  0  0  0  0  0  0  0  0  0  0  0
   -2.6976    1.2276   -0.3523 H   0  0  0  0  0  0  0  0  0  0  0  0
   -1.2974    1.0678    0.6548 H   0  0  0  0  0  0  0  0  0  0  0  0
   -1.5141    3.4110   -0.0073 H   0  0  0  0  0  0  0  0  0  0  0  0
   -0.0590    2.7715   -0.7243 H   0  0  0  0  0  0  0  0  0  0  0  0
   -1.2236    4.0600   -2.4169 H   0  0  0  0  0  0  0  0  0  0  0  0
   -1.3082    2.3872   -2.9125 H   0  0  0  0  0  0  0  0  0  0  0  0
   -3.6113    2.2764   -2.0086 H   0  0  0  0  0  0  0  0  0  0  0  0
   -5.4190    3.2861   -2.2314 H   0  0  0  0  0  0  0  0  0  0  0  0
  1 13  1  0  0  0  0
  1 14  1  0  0  0  0
  2  5  1  0  0  0  0
  2 15  1  6  0  0  0
  2  3  1  0  0  0  0
  2  1  1  0  0  0  0
  3  4  1  0  0  0  0
  3 16  1  0  0  0  0
  3 17  1  0  0  0  0
  4 18  1  0  0  0  0
  5  6  1  0  0  0  0
  5 19  1  0  0  0  0
  5 20  1  0  0  0  0
  6  7  1  0  0  0  0
  6 21  1  0  0  0  0
  6 22  1  0  0  0  0
  7  8  1  0  0  0  0
  7 23  1  0  0  0  0
  7 24  1  0  0  0  0
  8  9  1  0  0  0  0
  8 25  1  0  0  0  0
  8 26  1  0  0  0  0
  9 10  1  0  0  0  0
  9 27  1  0  0  0  0
 10 11  1  0  0  0  0
 10 12  2  0  0  0  0
 11 28  1  0  0  0  0
M  END
>  <DRUGBANK_ID>
DB02437

>  <SECONDARY_ACCESSION_NUMBERS>
EXPT02012

>  <COMMON_NAME>
(5r)-5-Amino-6-Hydroxyhexylcarbamic Acid

$$$$
