
 OpenBabel10282417183D

 71 75  0  0  0  0  0  0  0  0999 V2000
   -1.1349   -1.3152    0.0004 C   0  0  0  0  0  0  0  0  0  0  0  0
   -1.1782    0.0584    0.1268 C   0  0  0  0  0  0  0  0  0  0  0  0
   -0.0517    0.8751    0.0325 C   0  0  0  0  0  0  0  0  0  0  0  0
    1.1785    0.2135   -0.0188 C   0  0  0  0  0  0  0  0  0  0  0  0
    1.2513   -1.1849   -0.0142 C   0  0  0  0  0  0  0  0  0  0  0  0
    0.0870   -1.9509   -0.0320 C   0  0  0  0  0  0  0  0  0  0  0  0
    2.3283    0.9061   -0.0204 F   0  0  0  0  0  0  0  0  0  0  0  0
   -0.1525    2.3793    0.0388 C   0  0  0  0  0  0  0  0  0  0  0  0
   -0.8199    2.9599   -1.1694 N   0  0  0  0  0  0  0  0  0  0  0  0
   -0.1935    3.7678   -2.0907 C   0  0  0  0  0  0  0  0  0  0  0  0
   -0.7284    4.3848   -3.1946 C   0  0  0  0  0  0  0  0  0  0  0  0
   -2.1511    4.1096   -3.4685 C   0  0  0  0  0  0  0  0  0  0  0  0
   -2.7477    4.6121   -4.4126 O   0  0  0  0  0  0  0  0  0  0  0  0
   -2.7629    3.2462   -2.5254 N   0  0  0  0  0  0  0  0  0  0  0  0
   -4.1346    2.8622   -2.7012 C   0  0  0  0  0  0  0  0  0  0  0  0
   -5.0561    3.0252   -1.7125 N   0  0  0  0  0  0  0  0  0  0  0  0
   -6.3818    2.5916   -1.8561 N   0  0  0  0  0  0  0  0  0  0  0  0
   -6.7444    1.9712   -2.9890 C   0  0  0  0  0  0  0  0  0  0  0  0
   -8.0332    1.5433   -3.2392 O   0  0  0  0  0  0  0  0  0  0  0  0
   -8.9827    1.8122   -2.2164 C   0  0  0  0  0  0  0  0  0  0  0  0
   -5.8243    1.7338   -3.9916 C   0  0  0  0  0  0  0  0  0  0  0  0
   -4.5057    2.1761   -3.8454 C   0  0  0  0  0  0  0  0  0  0  0  0
   -2.1827    2.8553   -1.3347 C   0  0  0  0  0  0  0  0  0  0  0  0
   -2.8828    2.3939   -0.3994 O   0  0  0  0  0  0  0  0  0  0  0  0
    0.3203    5.1950   -3.8841 C   0  0  0  0  0  0  0  0  0  0  0  0
    0.1395    6.1529   -5.1001 C   0  0  0  0  0  0  0  0  0  0  0  0
   -0.1903    5.3960   -6.3217 N   0  0  0  0  0  0  0  0  0  0  0  0
   -0.3647    6.2727   -7.4935 C   0  0  0  0  0  0  0  0  0  0  0  0
    0.8641    4.4309   -6.6203 C   0  0  0  0  0  0  0  0  0  0  0  0
    1.5678    4.8860   -3.2888 C   0  0  0  0  0  0  0  0  0  0  0  0
    1.4077    4.0594   -1.8244 S   0  0  0  0  0  0  0  0  0  0  0  0
    2.9379    5.3842   -3.3642 C   0  0  0  0  0  0  0  0  0  0  0  0
    4.1626    4.6452   -3.3640 C   0  0  0  0  0  0  0  0  0  0  0  0
    5.4614    5.2749   -3.1975 C   0  0  0  0  0  0  0  0  0  0  0  0
    5.5152    6.6037   -2.7595 C   0  0  0  0  0  0  0  0  0  0  0  0
    6.8261    7.5339   -2.9573 N   0  0  0  0  0  0  0  0  0  0  0  0
    7.2541    8.9578   -2.9908 C   0  0  0  0  0  0  0  0  0  0  0  0
    8.4573    9.2213   -3.1706 O   0  0  0  0  0  0  0  0  0  0  0  0
    6.4501   10.0959   -2.8718 N   0  0  0  0  0  0  0  0  0  0  0  0
    5.1119   10.2869   -3.2648 O   0  0  0  0  0  0  0  0  0  0  0  0
    4.7125    9.0314   -3.5996 C   0  0  0  0  0  0  0  0  0  0  0  0
    4.2132    7.0079   -2.2654 C   0  0  0  0  0  0  0  0  0  0  0  0
    3.0014    6.6262   -2.8304 C   0  0  0  0  0  0  0  0  0  0  0  0
   -2.3687    0.5235    0.4905 F   0  0  0  0  0  0  0  0  0  0  0  0
   -2.0813   -1.8453    0.0089 H   0  0  0  0  0  0  0  0  0  0  0  0
    2.2184   -1.6759    0.0097 H   0  0  0  0  0  0  0  0  0  0  0  0
    0.1130   -3.0342   -0.0183 H   0  0  0  0  0  0  0  0  0  0  0  0
   -0.6632    2.7544    0.9296 H   0  0  0  0  0  0  0  0  0  0  0  0
    0.8694    2.7606    0.1585 H   0  0  0  0  0  0  0  0  0  0  0  0
   -8.7350    1.2832   -1.2916 H   0  0  0  0  0  0  0  0  0  0  0  0
   -9.1020    2.8864   -2.0456 H   0  0  0  0  0  0  0  0  0  0  0  0
   -9.9501    1.4278   -2.5644 H   0  0  0  0  0  0  0  0  0  0  0  0
   -6.1309    1.2114   -4.8892 H   0  0  0  0  0  0  0  0  0  0  0  0
   -3.7776    1.9387   -4.6123 H   0  0  0  0  0  0  0  0  0  0  0  0
   -0.6405    6.9031   -4.8964 H   0  0  0  0  0  0  0  0  0  0  0  0
    1.0608    6.7338   -5.2716 H   0  0  0  0  0  0  0  0  0  0  0  0
    0.5541    6.8133   -7.7563 H   0  0  0  0  0  0  0  0  0  0  0  0
   -0.6520    5.6771   -8.3718 H   0  0  0  0  0  0  0  0  0  0  0  0
   -1.1644    7.0080   -7.3503 H   0  0  0  0  0  0  0  0  0  0  0  0
    1.8193    4.9274   -6.8234 H   0  0  0  0  0  0  0  0  0  0  0  0
    1.0037    3.7353   -5.7897 H   0  0  0  0  0  0  0  0  0  0  0  0
    0.5862    3.8147   -7.4785 H   0  0  0  0  0  0  0  0  0  0  0  0
    4.1117    3.5543   -3.3929 H   0  0  0  0  0  0  0  0  0  0  0  0
    6.3601    4.6757   -3.3603 H   0  0  0  0  0  0  0  0  0  0  0  0
    7.6349    6.9759   -3.2566 H   0  0  0  0  0  0  0  0  0  0  0  0
    6.8832   11.0122   -2.9304 H   0  0  0  0  0  0  0  0  0  0  0  0
    5.2852    8.5462   -4.4007 H   0  0  0  0  0  0  0  0  0  0  0  0
    5.0404    8.6901   -2.6272 H   0  0  0  0  0  0  0  0  0  0  0  0
    3.6594    8.8609   -3.7494 H   0  0  0  0  0  0  0  0  0  0  0  0
    3.9696    7.8846   -1.6583 H   0  0  0  0  0  0  0  0  0  0  0  0
    2.0970    7.2276   -2.6629 H   0  0  0  0  0  0  0  0  0  0  0  0
  1  2  1  0  0  0  0
  1 45  1  0  0  0  0
  2  3  2  0  0  0  0
  2 44  1  0  0  0  0
  3  4  1  0  0  0  0
  3  8  1  0  0  0  0
  4  5  2  0  0  0  0
  4  7  1  0  0  0  0
  5  6  1  0  0  0  0
  5 46  1  0  0  0  0
  6  1  2  0  0  0  0
  6 47  1  0  0  0  0
  8 48  1  0  0  0  0
  8 49  1  0  0  0  0
  9  8  1  0  0  0  0
 10  9  1  0  0  0  0
 10 11  2  0  0  0  0
 11 12  1  0  0  0  0
 11 25  1  0  0  0  0
 12 13  2  0  0  0  0
 12 14  1  0  0  0  0
 14 15  1  0  0  0  0
 14 23  1  0  0  0  0
 15 16  1  0  0  0  0
 16 17  2  0  0  0  0
 17 18  1  0  0  0  0
 18 19  1  0  0  0  0
 18 21  2  0  0  0  0
 19 20  1  0  0  0  0
 20 50  1  0  0  0  0
 20 51  1  0  0  0  0
 20 52  1  0  0  0  0
 21 22  1  0  0  0  0
 21 53  1  0  0  0  0
 22 15  2  0  0  0  0
 22 54  1  0  0  0  0
 23 24  2  0  0  0  0
 23  9  1  0  0  0  0
 25 26  1  0  0  0  0
 26 27  1  0  0  0  0
 26 55  1  0  0  0  0
 26 56  1  0  0  0  0
 27 28  1  0  0  0  0
 27 29  1  0  0  0  0
 28 57  1  0  0  0  0
 28 58  1  0  0  0  0
 28 59  1  0  0  0  0
 29 60  1  0  0  0  0
 29 61  1  0  0  0  0
 29 62  1  0  0  0  0
 30 25  2  0  0  0  0
 31 30  1  0  0  0  0
 31 10  1  0  0  0  0
 32 30  1  0  0  0  0
 32 43  2  0  0  0  0
 33 32  1  0  0  0  0
 33 63  1  0  0  0  0
 34 33  2  0  0  0  0
 34 64  1  0  0  0  0
 35 34  1  0  0  0  0
 35 36  1  0  0  0  0
 36 37  1  0  0  0  0
 36 65  1  0  0  0  0
 37 38  2  0  0  0  0
 37 39  1  0  0  0  0
 39 40  1  0  0  0  0
 39 66  1  0  0  0  0
 40 41  1  0  0  0  0
 41 67  1  0  0  0  0
 41 68  1  0  0  0  0
 41 69  1  0  0  0  0
 42 35  2  0  0  0  0
 42 70  1  0  0  0  0
 43 42  1  0  0  0  0
 43 71  1  0  0  0  0
M  END
>  <DRUGBANK_ID>
DB11853

>  <COMMON_NAME>
Relugolix

>  <CAS_NUMBER>
737789-87-6

>  <UNII>
P76B05O5V6

>  <SYNONYMS>
Relugolix

$$$$
