
 OpenBabel10282417123D

 74 78  0  0  0  0  0  0  0  0999 V2000
    0.9957   -0.0659   -0.0751 P   0  0  3  0  0  0  0  0  0  0  0  0
    2.6268   -2.1156    0.9830 P   0  0  3  0  0  0  0  0  0  0  0  0
   -2.1364    0.4985   -1.8270 O   0  0  0  0  0  0  0  0  0  0  0  0
   -2.9742    2.8424   -0.8168 O   0  0  0  0  0  0  0  0  0  0  0  0
    0.8239   -0.0953   -1.7102 O   0  0  0  0  0  0  0  0  0  0  0  0
    3.8025   -3.9345   -0.5177 O   0  0  0  0  0  0  0  0  0  0  0  0
    5.7383   -3.9594   -3.2428 O   0  0  0  0  0  0  0  0  0  0  0  0
    4.8726   -6.3697   -2.7153 O   0  0  0  0  0  0  0  0  0  0  0  0
    3.3444   -1.6421   -0.3877 O   0  0  0  0  0  0  0  0  0  0  0  0
    0.9957   -1.6032    0.7185 O   0  0  0  0  0  0  0  0  0  0  0  0
   -0.7343   -0.0659   -0.0751 O   0  0  0  0  0  0  0  0  0  0  0  0
    2.5441   -0.0659   -0.0751 O   0  0  0  0  0  0  0  0  0  0  0  0
    2.5984   -1.0110    2.1974 O   0  0  0  0  0  0  0  0  0  0  0  0
    4.0866   -2.5742    1.2197 O   0  0  0  0  0  0  0  0  0  0  0  0
    0.0411    3.9156   -8.1698 O   0  0  0  0  0  0  0  0  0  0  0  0
   -1.5443    4.5640   -3.7675 N   0  3  0  0  0  0  0  0  0  0  0  0
    3.2280   -6.0621    0.2701 N   0  0  0  0  0  0  0  0  0  0  0  0
    3.3644   -7.3665    2.1207 N   0  0  0  0  0  0  0  0  0  0  0  0
    0.7869   -5.3058    0.7327 N   0  0  0  0  0  0  0  0  0  0  0  0
    0.1315    2.1372   -6.8001 N   0  0  0  0  0  0  0  0  0  0  0  0
    0.1880   -5.8620    3.0804 N   0  0  0  0  0  0  0  0  0  0  0  0
    1.7830   -6.9013    4.5135 N   0  0  0  0  0  0  0  0  0  0  0  0
   -0.2337    2.1102   -1.7336 C   0  0  1  0  0  0  0  0  0  0  0  0
   -1.5346    4.0775   -2.3571 C   0  0  2  0  0  0  0  0  0  0  0  0
   -0.1138    3.6128   -1.9932 C   0  0  0  0  0  0  0  0  0  0  0  0
   -1.5623    1.6671   -2.3711 C   0  0  2  0  0  0  0  0  0  0  0  0
   -2.4617    2.8746   -2.1552 C   0  0  1  0  0  0  0  0  0  0  0  0
    0.9576    1.2596   -2.2069 C   0  0  0  0  0  0  0  0  0  0  0  0
    4.3761   -3.9992   -2.7851 C   0  0  1  0  0  0  0  0  0  0  0  0
   -1.1211    3.7789   -4.7913 C   0  0  0  0  0  0  0  0  0  0  0  0
    3.9785   -5.3896   -2.2102 C   0  0  2  0  0  0  0  0  0  0  0  0
    4.2492   -3.1085   -1.6112 C   0  0  1  0  0  0  0  0  0  0  0  0
   -1.8922    5.8492   -4.0087 C   0  0  0  0  0  0  0  0  0  0  0  0
    4.0536   -5.2786   -0.6871 C   0  0  1  0  0  0  0  0  0  0  0  0
    3.1996   -2.0650   -1.6876 C   0  0  0  0  0  0  0  0  0  0  0  0
   -0.8765    4.2689   -6.0502 C   0  0  0  0  0  0  0  0  0  0  0  0
   -1.7956    6.3640   -5.2946 C   0  0  0  0  0  0  0  0  0  0  0  0
   -1.2275    5.5884   -6.3056 C   0  0  0  0  0  0  0  0  0  0  0  0
    1.9808   -5.9396    0.9618 C   0  0  0  0  0  0  0  0  0  0  0  0
    3.9471   -6.9910    1.0201 C   0  0  0  0  0  0  0  0  0  0  0  0
   -0.2137    3.4416   -7.0975 C   0  0  0  0  0  0  0  0  0  0  0  0
    2.2136   -6.6473    2.1504 C   0  0  0  0  0  0  0  0  0  0  0  0
    1.3598   -6.4813    3.2569 C   0  0  0  0  0  0  0  0  0  0  0  0
   -0.0664   -5.4175    1.8281 C   0  0  0  0  0  0  0  0  0  0  0  0
   -0.0200    1.5924   -5.9715 H   0  0  0  0  0  0  0  0  0  0  0  0
    0.5837    1.6328   -7.5605 H   0  0  0  0  0  0  0  0  0  0  0  0
    1.4127   -6.4139    5.3156 H   0  0  0  0  0  0  0  0  0  0  0  0
    2.7760   -7.1338    4.5178 H   0  0  0  0  0  0  0  0  0  0  0  0
   -2.7132    0.7523   -1.0695 H   0  0  0  0  0  0  0  0  0  0  0  0
   -2.2637    2.7546   -0.1520 H   0  0  0  0  0  0  0  0  0  0  0  0
    6.3341   -3.8213   -2.4796 H   0  0  0  0  0  0  0  0  0  0  0  0
    5.7317   -5.9158   -2.8596 H   0  0  0  0  0  0  0  0  0  0  0  0
   -1.0272   -0.3006   -0.9881 H   0  0  0  0  0  0  0  0  0  0  0  0
    1.9464   -1.3436    2.8478 H   0  0  0  0  0  0  0  0  0  0  0  0
   -0.3117    2.0338   -0.6453 H   0  0  0  0  0  0  0  0  0  0  0  0
   -1.8353    4.9039   -1.7020 H   0  0  0  0  0  0  0  0  0  0  0  0
    0.2113    4.1072   -1.0665 H   0  0  0  0  0  0  0  0  0  0  0  0
    0.6359    3.8544   -2.7516 H   0  0  0  0  0  0  0  0  0  0  0  0
   -1.4082    1.4163   -3.4173 H   0  0  0  0  0  0  0  0  0  0  0  0
   -3.3229    2.8661   -2.8286 H   0  0  0  0  0  0  0  0  0  0  0  0
    1.8948    1.7016   -1.8392 H   0  0  0  0  0  0  0  0  0  0  0  0
    1.0221    1.2404   -3.2990 H   0  0  0  0  0  0  0  0  0  0  0  0
    3.7356   -3.6638   -3.6090 H   0  0  0  0  0  0  0  0  0  0  0  0
   -0.9304    2.7462   -4.5833 H   0  0  0  0  0  0  0  0  0  0  0  0
    2.9433   -5.6026   -2.4746 H   0  0  0  0  0  0  0  0  0  0  0  0
    5.1969   -2.5846   -1.3658 H   0  0  0  0  0  0  0  0  0  0  0  0
   -2.2268    6.4568   -3.1709 H   0  0  0  0  0  0  0  0  0  0  0  0
    5.1005   -5.4468   -0.3765 H   0  0  0  0  0  0  0  0  0  0  0  0
    2.1682   -2.3698   -1.8348 H   0  0  0  0  0  0  0  0  0  0  0  0
    3.4537   -1.2091   -2.3291 H   0  0  0  0  0  0  0  0  0  0  0  0
   -2.1335    7.3759   -5.5040 H   0  0  0  0  0  0  0  0  0  0  0  0
   -1.0585    6.0176   -7.2920 H   0  0  0  0  0  0  0  0  0  0  0  0
    4.9574   -7.2771    0.7700 H   0  0  0  0  0  0  0  0  0  0  0  0
   -1.1055   -5.0861    1.7212 H   0  0  0  0  0  0  0  0  0  0  0  0
  1  5  1  0  0  0  0
  1 10  1  0  0  0  0
  1 11  1  0  0  0  0
  1 12  2  0  0  0  0
  2  9  1  0  0  0  0
  2 10  1  0  0  0  0
  2 13  1  0  0  0  0
  2 14  2  0  0  0  0
  3 49  1  0  0  0  0
  4 50  1  0  0  0  0
  5 28  1  0  0  0  0
  6 32  1  0  0  0  0
  6 34  1  0  0  0  0
  7 51  1  0  0  0  0
  8 52  1  0  0  0  0
  9 35  1  0  0  0  0
 11 53  1  0  0  0  0
 13 54  1  0  0  0  0
 15 41  2  0  0  0  0
 16 30  1  0  0  0  0
 16 33  2  0  0  0  0
 17 39  1  0  0  0  0
 17 40  1  0  0  0  0
 18 40  2  0  0  0  0
 18 42  1  0  0  0  0
 19 39  2  0  0  0  0
 19 44  1  0  0  0  0
 20 41  1  0  0  0  0
 20 45  1  0  0  0  0
 20 46  1  0  0  0  0
 21 43  1  0  0  0  0
 21 44  2  0  0  0  0
 22 43  1  0  0  0  0
 22 47  1  0  0  0  0
 22 48  1  0  0  0  0
 23 25  1  0  0  0  0
 23 26  1  0  0  0  0
 23 28  1  0  0  0  0
 23 55  1  1  0  0  0
 24 25  1  0  0  0  0
 24 27  1  0  0  0  0
 24 56  1  1  0  0  0
 24 16  1  0  0  0  0
 25 57  1  0  0  0  0
 25 58  1  0  0  0  0
 26  3  1  0  0  0  0
 26 27  1  0  0  0  0
 26 59  1  6  0  0  0
 27  4  1  0  0  0  0
 27 60  1  6  0  0  0
 28 61  1  0  0  0  0
 28 62  1  0  0  0  0
 29  7  1  0  0  0  0
 29 31  1  0  0  0  0
 29 32  1  0  0  0  0
 29 63  1  6  0  0  0
 30 36  2  0  0  0  0
 30 64  1  0  0  0  0
 31  8  1  0  0  0  0
 31 34  1  0  0  0  0
 31 65  1  6  0  0  0
 32 35  1  0  0  0  0
 32 66  1  1  0  0  0
 33 37  1  0  0  0  0
 33 67  1  0  0  0  0
 34 68  1  1  0  0  0
 34 17  1  0  0  0  0
 35 69  1  0  0  0  0
 35 70  1  0  0  0  0
 36 38  1  0  0  0  0
 36 41  1  0  0  0  0
 37 38  2  0  0  0  0
 37 71  1  0  0  0  0
 38 72  1  0  0  0  0
 39 42  1  0  0  0  0
 40 73  1  0  0  0  0
 42 43  2  0  0  0  0
 44 74  1  0  0  0  0
M  CHG  1  16   1
M  END
>  <DRUGBANK_ID>
DB02498

>  <SECONDARY_ACCESSION_NUMBERS>
EXPT00963

>  <COMMON_NAME>
Carba-nicotinamide-adenine-dinucleotide

$$$$
