
 OpenBabel10282417143D

 22 21  0  0  0  0  0  0  0  0999 V2000
    0.9991    0.1653   -0.1159 C   0  0  0  0  0  0  0  0  0  0  0  0
    0.5071   -1.0179   -0.9595 C   0  0  0  0  0  0  0  0  0  0  0  0
    1.0110   -2.3851   -0.4678 C   0  0  2  0  0  0  0  0  0  0  0  0
    0.5823   -3.4196   -1.4184 N   0  0  0  0  0  0  0  0  0  0  0  0
    1.4104   -4.2764   -2.0778 C   0  0  0  0  0  0  0  0  0  0  0  0
    2.4828   -4.0832   -1.9219 H   0  0  0  0  0  0  0  0  0  0  0  0
    0.4860   -2.7203    0.9391 C   0  0  0  0  0  0  0  0  0  0  0  0
   -0.2912   -3.6150    1.2426 O   0  0  0  0  0  0  0  0  0  0  0  0
    0.9618   -1.8899    1.8914 O   0  0  0  0  0  0  0  0  0  0  0  0
    0.3690    1.7256   -0.8168 S   0  0  0  0  0  0  0  0  0  0  0  0
    1.0096    2.9093    0.4008 C   0  0  0  0  0  0  0  0  0  0  0  0
    1.0015   -5.1713   -2.8057 O   0  0  0  0  0  0  0  0  0  0  0  0
    0.6118    0.1106    0.9016 H   0  0  0  0  0  0  0  0  0  0  0  0
    2.0937    0.1761   -0.0849 H   0  0  0  0  0  0  0  0  0  0  0  0
   -0.5912   -1.0280   -0.9867 H   0  0  0  0  0  0  0  0  0  0  0  0
    0.8425   -0.8828   -1.9980 H   0  0  0  0  0  0  0  0  0  0  0  0
    2.1062   -2.4032   -0.4299 H   0  0  0  0  0  0  0  0  0  0  0  0
   -0.4053   -3.6439   -1.4935 H   0  0  0  0  0  0  0  0  0  0  0  0
    0.4777   -2.1180    2.7144 H   0  0  0  0  0  0  0  0  0  0  0  0
    0.6295    2.7096    1.4073 H   0  0  0  0  0  0  0  0  0  0  0  0
    2.1026    2.9071    0.4098 H   0  0  0  0  0  0  0  0  0  0  0  0
    0.6737    3.9081    0.1064 H   0  0  0  0  0  0  0  0  0  0  0  0
  1 10  1  0  0  0  0
  1 13  1  0  0  0  0
  1 14  1  0  0  0  0
  2  1  1  0  0  0  0
  2 15  1  0  0  0  0
  2 16  1  0  0  0  0
  3  2  1  0  0  0  0
  3  7  1  0  0  0  0
  3  4  1  0  0  0  0
  3 17  1  1  0  0  0
  4  5  1  0  0  0  0
  4 18  1  0  0  0  0
  5 12  2  0  0  0  0
  5  6  1  0  0  0  0
  7  8  2  0  0  0  0
  7  9  1  0  0  0  0
  9 19  1  0  0  0  0
 10 11  1  0  0  0  0
 11 20  1  0  0  0  0
 11 21  1  0  0  0  0
 11 22  1  0  0  0  0
M  END
>  <DRUGBANK_ID>
DB04464

>  <SECONDARY_ACCESSION_NUMBERS>
EXPT01455

>  <COMMON_NAME>
N-Formylmethionine

>  <CAS_NUMBER>
4289-98-9

>  <UNII>
PS9357B4XH

>  <SYNONYMS>
(2S)-2-(formylamino)-4-(methylthio)butanoic acid; Formyl-methionine; L-N-Formylmethionine; N-formyl-L-methionine

$$$$
