2LG
 OpenBabel10282417163D

 48 50  0  0  0  0  0  0  0  0999 V2000
   -1.3582   -1.2656    0.1154 C   0  0  0  0  0  0  0  0  0  0  0  0
   -1.4162    1.2335    0.1418 C   0  0  0  0  0  0  0  0  0  0  0  0
    2.2459   -0.0297   -0.0566 C   0  0  0  0  0  0  0  0  0  0  0  0
    1.8019   -2.5092   -0.0604 C   0  0  0  0  0  0  0  0  0  0  0  0
    5.8261    1.1966   -0.2544 C   0  0  0  0  0  0  0  0  0  0  0  0
    6.5711    2.0983    0.5380 C   0  0  0  0  0  0  0  0  0  0  0  0
    7.9706    2.1453    0.4374 C   0  0  0  0  0  0  0  0  0  0  0  0
    8.6282    1.3275   -0.4773 C   0  0  0  0  0  0  0  0  0  0  0  0
   10.8022    3.2130    3.3388 C   0  0  0  0  0  0  0  0  0  0  0  0
   10.1170    4.1733    4.3019 C   0  0  0  0  0  0  0  0  0  0  0  0
    0.0182   -0.6969    0.0427 C   0  0  0  0  0  0  0  0  0  0  0  0
   -0.0656    0.6631    0.0619 C   0  0  0  0  0  0  0  0  0  0  0  0
    1.3793   -1.1324   -0.0300 C   0  0  0  0  0  0  0  0  0  0  0  0
    1.3717    1.4506   -0.0101 S   0  0  0  0  0  0  0  0  0  0  0  0
   -2.2591   -0.0152   -0.2090 C   0  0  0  0  0  0  0  0  0  0  0  0
    3.6419    0.0525   -0.1153 N   0  0  0  0  0  0  0  0  0  0  0  0
    2.1529   -3.6091   -0.0801 N   0  0  0  0  0  0  0  0  0  0  0  0
    4.3529    1.2591   -0.1572 C   0  0  0  0  0  0  0  0  0  0  0  0
    3.9129    2.4037   -0.1051 O   0  0  0  0  0  0  0  0  0  0  0  0
    6.4852    0.3924   -1.1818 C   0  0  0  0  0  0  0  0  0  0  0  0
    7.8804    0.4617   -1.2871 C   0  0  0  0  0  0  0  0  0  0  0  0
    5.6542   -0.6716   -2.2586 Cl  0  0  0  0  0  0  0  0  0  0  0  0
    8.8885    3.3287    1.4098 S   0  0  0  0  0  0  0  0  0  0  0  0
    9.8291    2.3978    2.5201 N   0  0  0  0  0  0  0  0  0  0  0  0
    9.8017    4.0157    0.5215 O   0  0  0  0  0  0  0  0  0  0  0  0
    7.9049    4.0801    2.1581 O   0  0  0  0  0  0  0  0  0  0  0  0
    9.1498    1.3256    3.3061 C   0  0  0  0  0  0  0  0  0  0  0  0
    8.0896    1.8470    4.2563 C   0  0  0  0  0  0  0  0  0  0  0  0
   -1.5749   -1.6089    1.1329 H   0  0  0  0  0  0  0  0  0  0  0  0
   -1.5347   -2.0731   -0.5982 H   0  0  0  0  0  0  0  0  0  0  0  0
   -1.5640    2.0578   -0.5621 H   0  0  0  0  0  0  0  0  0  0  0  0
   -1.6150    1.5782    1.1610 H   0  0  0  0  0  0  0  0  0  0  0  0
    6.0477    2.7802    1.2124 H   0  0  0  0  0  0  0  0  0  0  0  0
    9.7105    1.3691   -0.5779 H   0  0  0  0  0  0  0  0  0  0  0  0
   11.4639    2.5403    3.9023 H   0  0  0  0  0  0  0  0  0  0  0  0
   11.4570    3.7797    2.6669 H   0  0  0  0  0  0  0  0  0  0  0  0
    9.6862    3.6570    5.1513 H   0  0  0  0  0  0  0  0  0  0  0  0
   10.8091    4.8716    4.7684 H   0  0  0  0  0  0  0  0  0  0  0  0
    9.3272    4.7478    3.8206 H   0  0  0  0  0  0  0  0  0  0  0  0
   -2.4907    0.0018   -1.2827 H   0  0  0  0  0  0  0  0  0  0  0  0
   -3.2062   -0.0192    0.3372 H   0  0  0  0  0  0  0  0  0  0  0  0
    4.1532   -0.8211   -0.1900 H   0  0  0  0  0  0  0  0  0  0  0  0
    8.3918   -0.1539   -2.0231 H   0  0  0  0  0  0  0  0  0  0  0  0
    8.7019    0.6051    2.6142 H   0  0  0  0  0  0  0  0  0  0  0  0
    9.9030    0.7555    3.8685 H   0  0  0  0  0  0  0  0  0  0  0  0
    7.4209    2.5597    3.7786 H   0  0  0  0  0  0  0  0  0  0  0  0
    7.4886    1.0500    4.6877 H   0  0  0  0  0  0  0  0  0  0  0  0
    8.5255    2.3234    5.1259 H   0  0  0  0  0  0  0  0  0  0  0  0
  1 11  1  0  0  0  0
  1 15  1  0  0  0  0
  1 29  1  0  0  0  0
  1 30  1  0  0  0  0
  2 12  1  0  0  0  0
  2 15  1  0  0  0  0
  2 31  1  0  0  0  0
  2 32  1  0  0  0  0
  3 13  2  0  0  0  0
  3 14  1  0  0  0  0
  3 16  1  0  0  0  0
  4 13  1  0  0  0  0
  4 17  3  0  0  0  0
  5  6  2  0  0  0  0
  5 18  1  0  0  0  0
  5 20  1  0  0  0  0
  6  7  1  0  0  0  0
  6 33  1  0  0  0  0
  7  8  2  0  0  0  0
  7 23  1  0  0  0  0
  8 21  1  0  0  0  0
  8 34  1  0  0  0  0
  9 10  1  0  0  0  0
  9 24  1  0  0  0  0
  9 35  1  0  0  0  0
  9 36  1  0  0  0  0
 10 37  1  0  0  0  0
 10 38  1  0  0  0  0
 10 39  1  0  0  0  0
 11 12  2  0  0  0  0
 11 13  1  0  0  0  0
 12 14  1  0  0  0  0
 15 40  1  0  0  0  0
 15 41  1  0  0  0  0
 16 18  1  0  0  0  0
 16 42  1  0  0  0  0
 18 19  2  0  0  0  0
 20 21  2  0  0  0  0
 20 22  1  0  0  0  0
 21 43  1  0  0  0  0
 23 24  1  0  0  0  0
 23 25  2  0  0  0  0
 23 26  2  0  0  0  0
 24 27  1  0  0  0  0
 27 28  1  0  0  0  0
 27 44  1  0  0  0  0
 27 45  1  0  0  0  0
 28 46  1  0  0  0  0
 28 47  1  0  0  0  0
 28 48  1  0  0  0  0
M  END
>  <DRUGBANK_ID>
DB06970

>  <COMMON_NAME>
2-CHLORO-N-(3-CYANO-5,6-DIHYDRO-4H-CYCLOPENTA[B]THIOPHEN-2-YL)-5-DIETHYLSULFAMOYL-BENZAMIDE

$$$$
