
 OpenBabel10282417113D

160166  0  0  0  0  0  0  0  0999 V2000
   11.4085  -45.0723   -5.3561 N   0  0  0  0  0  0  0  0  0  0  0  0
    9.3139  -38.3625  -12.8780 N   0  0  0  0  0  0  0  0  0  0  0  0
   11.0448  -43.9813   -4.4620 C   0  0  2  0  0  0  0  0  0  0  0  0
   10.9387  -44.6224   -6.5925 C   0  0  0  0  0  0  0  0  0  0  0  0
   10.1167  -37.2981  -13.2538 C   0  0  0  0  0  0  0  0  0  0  0  0
   11.1494  -41.6106   -9.3881 C   0  0  2  0  0  0  0  0  0  0  0  0
   12.0814  -44.5898   -7.5807 C   0  0  1  0  0  0  0  0  0  0  0  0
   12.0700  -42.3767   -4.7656 C   0  0  0  0  0  0  0  0  0  0  0  0
   11.5363  -37.0219  -12.5970 C   0  0  1  0  0  0  0  0  0  0  0  0
   11.2735  -43.5614   -8.2210 N   0  0  0  0  0  0  0  0  0  0  0  0
   10.0301  -40.8370  -10.0301 N   0  0  0  0  0  0  0  0  0  0  0  0
   12.6128  -38.0778  -12.3976 N   0  0  0  0  0  0  0  0  0  0  0  0
   11.5746  -42.9915   -9.4618 C   0  0  0  0  0  0  0  0  0  0  0  0
   12.7935  -41.1321   -5.7648 N   0  0  0  0  0  0  0  0  0  0  0  0
   18.8451  -40.0590   -5.4944 S   0  0  0  0  0  0  0  0  0  0  0  0
   10.3268  -40.0260  -11.2574 C   0  0  0  0  0  0  0  0  0  0  0  0
    9.2315  -39.0803  -11.6133 C   0  0  2  0  0  0  0  0  0  0  0  0
   12.8834  -38.4951  -11.1222 C   0  0  0  0  0  0  0  0  0  0  0  0
   16.9144  -47.1065   -7.2325 N   0  0  0  0  0  0  0  0  0  0  0  0
   12.4300  -41.4266   -7.9455 C   0  0  1  0  0  0  0  0  0  0  0  0
   17.9452  -47.6463   -9.1690 C   0  0  0  0  0  0  0  0  0  0  0  0
   11.9734  -46.4630   -4.5558 C   0  0  0  0  0  0  0  0  0  0  0  0
   17.8875  -48.7522   -8.3753 C   0  0  0  0  0  0  0  0  0  0  0  0
   17.2748  -46.6641   -8.4523 C   0  0  0  0  0  0  0  0  0  0  0  0
   17.3347  -48.4395   -7.1781 O   0  0  0  0  0  0  0  0  0  0  0  0
   10.6117  -45.4697   -3.1479 C   0  0  2  0  0  0  0  0  0  0  0  0
   14.0817  -39.5540  -10.6477 C   0  0  1  0  0  0  0  0  0  0  0  0
   17.2793  -42.0512   -5.9808 C   0  0  0  0  0  0  0  0  0  0  0  0
   15.9704  -41.3137  -10.2630 C   0  0  0  0  0  0  0  0  0  0  0  0
   12.5424  -39.5466   -6.7630 C   0  0  1  0  0  0  0  0  0  0  0  0
   11.9524  -45.9828   -3.0783 C   0  0  1  0  0  0  0  0  0  0  0  0
   14.7581  -41.0635  -10.8777 N   0  0  0  0  0  0  0  0  0  0  0  0
   12.2783  -46.1001   -7.3351 C   0  0  1  0  0  0  0  0  0  0  0  0
   18.5324  -41.6601   -5.6107 O   0  0  0  0  0  0  0  0  0  0  0  0
   13.6911  -46.1968   -6.3666 C   0  0  0  0  0  0  0  0  0  0  0  0
   14.2831  -40.6527   -7.7712 C   0  0  2  0  0  0  0  0  0  0  0  0
   15.3048  -41.6153   -7.3101 C   0  0  0  0  0  0  0  0  0  0  0  0
   12.9940  -40.1820   -9.8206 C   0  0  0  0  0  0  0  0  0  0  0  0
   16.4437  -41.1707   -6.6247 C   0  0  0  0  0  0  0  0  0  0  0  0
    8.1929  -38.8519  -13.6686 C   0  0  0  0  0  0  0  0  0  0  0  0
    8.2827  -40.2609  -11.9362 C   0  0  0  0  0  0  0  0  0  0  0  0
   11.7998  -39.4812   -8.3523 C   0  0  1  0  0  0  0  0  0  0  0  0
   14.2369  -45.4974   -4.9250 C   0  0  0  0  0  0  0  0  0  0  0  0
    9.6347  -36.4571  -14.0258 O   0  0  0  0  0  0  0  0  0  0  0  0
    9.8464  -44.0436   -6.6702 O   0  0  0  0  0  0  0  0  0  0  0  0
   18.9726  -39.4661   -6.8099 O   0  0  0  0  0  0  0  0  0  0  0  0
   17.9602  -39.4786   -4.5060 O   0  0  0  0  0  0  0  0  0  0  0  0
   18.4548  -50.0479   -8.5536 C   0  0  0  0  0  0  0  0  0  0  0  0
   16.3445  -42.7514   -9.9686 C   0  0  0  0  0  0  0  0  0  0  0  0
   13.4162  -42.4613   -4.7086 O   0  0  0  0  0  0  0  0  0  0  0  0
   17.0142  -45.3566   -9.0224 C   0  0  0  0  0  0  0  0  0  0  0  0
   16.9269  -43.3842   -5.9673 C   0  0  0  0  0  0  0  0  0  0  0  0
   12.4840  -43.3776  -10.1800 O   0  0  0  0  0  0  0  0  0  0  0  0
   11.1832  -40.3286  -12.0912 O   0  0  0  0  0  0  0  0  0  0  0  0
   12.1744  -37.9683  -10.2517 O   0  0  0  0  0  0  0  0  0  0  0  0
   16.6391  -40.3742   -9.8475 O   0  0  0  0  0  0  0  0  0  0  0  0
   12.1098  -35.6381  -13.0782 C   0  0  2  0  0  0  0  0  0  0  0  0
    8.3999  -40.3635  -13.4878 C   0  0  1  0  0  0  0  0  0  0  0  0
   15.0325  -42.9464   -7.3710 C   0  0  0  0  0  0  0  0  0  0  0  0
   20.3154  -40.0227   -4.8613 O   0  0  0  0  0  0  0  0  0  0  0  0
   14.9123  -45.9188   -4.0554 O   0  0  0  0  0  0  0  0  0  0  0  0
   15.8180  -43.8007   -6.6681 C   0  0  0  0  0  0  0  0  0  0  0  0
   15.6574  -43.8788  -10.4208 C   0  0  0  0  0  0  0  0  0  0  0  0
   17.3916  -42.9727   -9.0687 C   0  0  0  0  0  0  0  0  0  0  0  0
   17.7637  -44.2580   -8.6423 C   0  0  0  0  0  0  0  0  0  0  0  0
   16.0247  -45.1702   -9.9889 C   0  0  0  0  0  0  0  0  0  0  0  0
   17.7648  -51.2747   -8.5426 C   0  0  0  0  0  0  0  0  0  0  0  0
   19.7856  -50.0691   -8.7858 C   0  0  0  0  0  0  0  0  0  0  0  0
   11.1990  -41.4843   -6.8100 O   0  0  0  0  0  0  0  0  0  0  0  0
   13.5172  -44.4144   -4.6174 N   0  0  0  0  0  0  0  0  0  0  0  0
   10.2077  -47.0601   -3.3092 O   0  0  0  0  0  0  0  0  0  0  0  0
   12.1862  -38.6936   -5.7632 O   0  0  0  0  0  0  0  0  0  0  0  0
   14.7275  -39.5947   -6.7318 O   0  0  0  0  0  0  0  0  0  0  0  0
   11.0460  -46.8921   -7.0728 O   0  0  0  0  0  0  0  0  0  0  0  0
   19.7505  -52.5596   -8.9672 C   0  0  0  0  0  0  0  0  0  0  0  0
   10.2852  -40.0651   -7.9637 O   0  0  0  0  0  0  0  0  0  0  0  0
   18.4052  -52.5226   -8.7940 C   0  0  0  0  0  0  0  0  0  0  0  0
   20.3203  -51.3337   -8.8090 C   0  0  0  0  0  0  0  0  0  0  0  0
   17.7904  -44.3789   -5.6268 O   0  0  0  0  0  0  0  0  0  0  0  0
    7.6576  -40.7718  -14.6262 O   0  0  0  0  0  0  0  0  0  0  0  0
   13.2328  -35.8348  -13.9457 O   0  0  0  0  0  0  0  0  0  0  0  0
   12.9718  -46.0006   -1.9631 C   0  0  0  0  0  0  0  0  0  0  0  0
   20.4462  -53.6864   -9.3042 O   0  0  0  0  0  0  0  0  0  0  0  0
   12.4447  -34.7709  -11.8486 C   0  0  0  0  0  0  0  0  0  0  0  0
   21.8741  -53.6572   -9.6215 C   0  0  0  0  0  0  0  0  0  0  0  0
   22.2643  -52.9554  -10.9500 C   0  0  0  0  0  0  0  0  0  0  0  0
   22.8927  -50.7485   -9.7684 C   0  0  0  0  0  0  0  0  0  0  0  0
   22.0686  -51.4367  -10.9344 C   0  0  0  0  0  0  0  0  0  0  0  0
   24.3505  -50.8405   -9.9805 C   0  0  0  0  0  0  0  0  0  0  0  0
    9.9522  -43.9433   -4.6750 H   0  0  0  0  0  0  0  0  0  0  0  0
   11.4157  -40.7207   -9.8011 H   0  0  0  0  0  0  0  0  0  0  0  0
   12.4965  -44.7850   -8.5527 H   0  0  0  0  0  0  0  0  0  0  0  0
   11.2026  -36.7647  -11.5934 H   0  0  0  0  0  0  0  0  0  0  0  0
   11.0779  -42.8499   -7.4485 H   0  0  0  0  0  0  0  0  0  0  0  0
    9.4284  -40.3565   -9.3445 H   0  0  0  0  0  0  0  0  0  0  0  0
   12.8538  -38.6962  -13.1645 H   0  0  0  0  0  0  0  0  0  0  0  0
   13.5352  -41.7408   -6.1836 H   0  0  0  0  0  0  0  0  0  0  0  0
    8.9784  -38.3532  -10.8367 H   0  0  0  0  0  0  0  0  0  0  0  0
   12.8586  -42.3879   -7.8533 H   0  0  0  0  0  0  0  0  0  0  0  0
   18.3807  -47.5429  -10.1462 H   0  0  0  0  0  0  0  0  0  0  0  0
   11.8575  -47.4014   -5.1540 H   0  0  0  0  0  0  0  0  0  0  0  0
   12.9759  -46.8220   -4.4323 H   0  0  0  0  0  0  0  0  0  0  0  0
    9.9126  -45.2976   -2.3705 H   0  0  0  0  0  0  0  0  0  0  0  0
   14.5151  -39.4231  -11.6357 H   0  0  0  0  0  0  0  0  0  0  0  0
   13.2960  -38.9144   -7.3641 H   0  0  0  0  0  0  0  0  0  0  0  0
   12.1796  -44.9508   -3.0592 H   0  0  0  0  0  0  0  0  0  0  0  0
   14.1665  -41.9105  -10.8314 H   0  0  0  0  0  0  0  0  0  0  0  0
   12.5773  -46.6106   -8.2462 H   0  0  0  0  0  0  0  0  0  0  0  0
   13.8261  -47.2528   -6.2117 H   0  0  0  0  0  0  0  0  0  0  0  0
   14.4777  -45.9019   -7.0061 H   0  0  0  0  0  0  0  0  0  0  0  0
   14.6351  -40.0195   -8.6004 H   0  0  0  0  0  0  0  0  0  0  0  0
   12.5958  -40.8060  -10.7094 H   0  0  0  0  0  0  0  0  0  0  0  0
   13.3788  -41.1650   -9.4887 H   0  0  0  0  0  0  0  0  0  0  0  0
   16.6717  -40.1020   -6.6559 H   0  0  0  0  0  0  0  0  0  0  0  0
    8.1902  -38.4267  -14.6810 H   0  0  0  0  0  0  0  0  0  0  0  0
    7.2046  -38.5548  -13.2706 H   0  0  0  0  0  0  0  0  0  0  0  0
    7.3089  -40.3088  -11.4560 H   0  0  0  0  0  0  0  0  0  0  0  0
    8.7052  -41.2161  -11.5543 H   0  0  0  0  0  0  0  0  0  0  0  0
   11.3339  -38.5422   -8.5684 H   0  0  0  0  0  0  0  0  0  0  0  0
   11.3546  -35.0593  -13.6239 H   0  0  0  0  0  0  0  0  0  0  0  0
    8.0409  -41.3496  -13.1819 H   0  0  0  0  0  0  0  0  0  0  0  0
   14.2944  -43.3769   -8.0221 H   0  0  0  0  0  0  0  0  0  0  0  0
   20.5248  -39.0800   -4.7170 H   0  0  0  0  0  0  0  0  0  0  0  0
   15.7443  -44.8202   -6.9706 H   0  0  0  0  0  0  0  0  0  0  0  0
   14.8194  -43.7881  -11.0998 H   0  0  0  0  0  0  0  0  0  0  0  0
   17.7390  -42.1275   -8.4772 H   0  0  0  0  0  0  0  0  0  0  0  0
   18.4979  -44.3646   -7.8511 H   0  0  0  0  0  0  0  0  0  0  0  0
   15.5587  -46.0356  -10.4488 H   0  0  0  0  0  0  0  0  0  0  0  0
   16.7022  -51.2705   -8.3617 H   0  0  0  0  0  0  0  0  0  0  0  0
   20.4105  -49.1807   -8.9123 H   0  0  0  0  0  0  0  0  0  0  0  0
   11.1395  -40.5953   -6.2921 H   0  0  0  0  0  0  0  0  0  0  0  0
   13.1735  -43.9672   -5.4304 H   0  0  0  0  0  0  0  0  0  0  0  0
   13.5078  -43.7829   -3.8175 H   0  0  0  0  0  0  0  0  0  0  0  0
   10.7527  -47.6132   -2.6435 H   0  0  0  0  0  0  0  0  0  0  0  0
   12.4744  -37.8532   -6.1506 H   0  0  0  0  0  0  0  0  0  0  0  0
   14.4273  -39.8692   -5.8407 H   0  0  0  0  0  0  0  0  0  0  0  0
   10.4406  -46.5061   -6.3831 H   0  0  0  0  0  0  0  0  0  0  0  0
   10.2743  -41.0601   -7.7272 H   0  0  0  0  0  0  0  0  0  0  0  0
   17.8688  -53.4576   -8.8288 H   0  0  0  0  0  0  0  0  0  0  0  0
   21.3341  -51.4093   -8.7942 H   0  0  0  0  0  0  0  0  0  0  0  0
   18.6806  -44.0109   -5.7300 H   0  0  0  0  0  0  0  0  0  0  0  0
    8.3506  -40.7583  -15.3133 H   0  0  0  0  0  0  0  0  0  0  0  0
   13.4744  -34.9992  -14.3841 H   0  0  0  0  0  0  0  0  0  0  0  0
   13.5845  -45.0739   -2.0295 H   0  0  0  0  0  0  0  0  0  0  0  0
   12.4645  -45.9037   -1.0048 H   0  0  0  0  0  0  0  0  0  0  0  0
   13.6827  -46.8249   -1.9840 H   0  0  0  0  0  0  0  0  0  0  0  0
   12.8074  -35.3795  -11.0133 H   0  0  0  0  0  0  0  0  0  0  0  0
   13.1939  -34.0048  -12.0540 H   0  0  0  0  0  0  0  0  0  0  0  0
   11.5308  -34.2772  -11.4827 H   0  0  0  0  0  0  0  0  0  0  0  0
   22.4649  -53.2975   -8.7686 H   0  0  0  0  0  0  0  0  0  0  0  0
   22.1857  -54.7075   -9.7263 H   0  0  0  0  0  0  0  0  0  0  0  0
   23.3172  -53.1429  -11.1867 H   0  0  0  0  0  0  0  0  0  0  0  0
   21.6742  -53.3935  -11.7631 H   0  0  0  0  0  0  0  0  0  0  0  0
   22.5396  -49.7244   -9.5902 H   0  0  0  0  0  0  0  0  0  0  0  0
   22.8905  -51.2306   -8.7683 H   0  0  0  0  0  0  0  0  0  0  0  0
   22.2975  -50.9371  -11.8790 H   0  0  0  0  0  0  0  0  0  0  0  0
   20.9771  -51.3047  -10.9350 H   0  0  0  0  0  0  0  0  0  0  0  0
   24.5637  -50.3147  -10.8990 H   0  0  0  0  0  0  0  0  0  0  0  0
   24.8449  -50.4019   -9.1091 H   0  0  0  0  0  0  0  0  0  0  0  0
   24.6210  -51.8983  -10.0225 H   0  0  0  0  0  0  0  0  0  0  0  0
  2 17  1  0  0  0  0
  3  1  1  0  0  0  0
  3  8  1  0  0  0  0
  3 90  1  6  0  0  0
  4  1  1  0  0  0  0
  5  2  1  0  0  0  0
  6 13  1  0  0  0  0
  6 91  1  6  0  0  0
  6 20  1  0  0  0  0
  7  4  1  0  0  0  0
  7 92  1  6  0  0  0
  7 33  1  0  0  0  0
  9 12  1  0  0  0  0
  9  5  1  0  0  0  0
  9 93  1  1  0  0  0
 10  7  1  0  0  0  0
 10 94  1  0  0  0  0
 11  6  1  0  0  0  0
 11 95  1  0  0  0  0
 12 18  1  0  0  0  0
 12 96  1  0  0  0  0
 13 10  1  0  0  0  0
 14  8  1  0  0  0  0
 14 97  1  0  0  0  0
 15 34  1  0  0  0  0
 16 11  1  0  0  0  0
 17 16  1  0  0  0  0
 17 98  1  1  0  0  0
 18 27  1  0  0  0  0
 19 24  2  0  0  0  0
 20 69  1  0  0  0  0
 20 99  1  1  0  0  0
 21 24  1  0  0  0  0
 21100  1  0  0  0  0
 22  1  1  0  0  0  0
 22101  1  0  0  0  0
 22102  1  0  0  0  0
 23 21  2  0  0  0  0
 23 25  1  0  0  0  0
 24 51  1  0  0  0  0
 25 19  1  0  0  0  0
 26  3  1  0  0  0  0
 26 31  1  0  0  0  0
 26103  1  1  0  0  0
 26 71  1  0  0  0  0
 27 38  1  0  0  0  0
 27104  1  6  0  0  0
 27 32  1  0  0  0  0
 28 39  1  0  0  0  0
 28 52  2  0  0  0  0
 29 32  1  0  0  0  0
 30 14  1  0  0  0  0
 30105  1  6  0  0  0
 30 72  1  0  0  0  0
 31 22  1  0  0  0  0
 31106  1  6  0  0  0
 31 82  1  0  0  0  0
 32107  1  0  0  0  0
 33 74  1  0  0  0  0
 33108  1  6  0  0  0
 34 28  1  0  0  0  0
 35 33  1  0  0  0  0
 35109  1  0  0  0  0
 35110  1  0  0  0  0
 36 73  1  0  0  0  0
 36111  1  6  0  0  0
 36 37  1  0  0  0  0
 36 20  1  0  0  0  0
 38 42  1  0  0  0  0
 38112  1  0  0  0  0
 38113  1  0  0  0  0
 39 37  2  0  0  0  0
 39114  1  0  0  0  0
 40  2  1  0  0  0  0
 40115  1  0  0  0  0
 40116  1  0  0  0  0
 41 17  1  0  0  0  0
 41117  1  0  0  0  0
 41118  1  0  0  0  0
 42 30  1  0  0  0  0
 42119  1  6  0  0  0
 42 76  1  0  0  0  0
 43 35  1  0  0  0  0
 44  5  2  0  0  0  0
 45  4  2  0  0  0  0
 46 15  2  0  0  0  0
 47 15  2  0  0  0  0
 48 23  1  0  0  0  0
 49 29  1  0  0  0  0
 50  8  2  0  0  0  0
 51 65  2  0  0  0  0
 52 62  1  0  0  0  0
 53 13  2  0  0  0  0
 54 16  2  0  0  0  0
 55 18  2  0  0  0  0
 56 29  2  0  0  0  0
 57120  1  6  0  0  0
 57  9  1  0  0  0  0
 57 84  1  0  0  0  0
 57 81  1  0  0  0  0
 58 41  1  0  0  0  0
 58 40  1  0  0  0  0
 58 80  1  0  0  0  0
 58121  1  6  0  0  0
 59 37  1  0  0  0  0
 59122  1  0  0  0  0
 60 15  1  0  0  0  0
 60123  1  0  0  0  0
 61 43  2  0  0  0  0
 62 59  2  0  0  0  0
 62124  1  0  0  0  0
 63 49  1  0  0  0  0
 63125  1  0  0  0  0
 64 49  2  0  0  0  0
 64126  1  0  0  0  0
 65 64  1  0  0  0  0
 65127  1  0  0  0  0
 66 63  2  0  0  0  0
 66 51  1  0  0  0  0
 66128  1  0  0  0  0
 67 48  1  0  0  0  0
 67129  1  0  0  0  0
 68 48  2  0  0  0  0
 68130  1  0  0  0  0
 69131  1  0  0  0  0
 70 43  1  0  0  0  0
 70132  1  0  0  0  0
 70133  1  0  0  0  0
 71134  1  0  0  0  0
 72135  1  0  0  0  0
 73136  1  0  0  0  0
 74137  1  0  0  0  0
 75 78  2  0  0  0  0
 76138  1  0  0  0  0
 77 67  2  0  0  0  0
 77 75  1  0  0  0  0
 77139  1  0  0  0  0
 78 68  1  0  0  0  0
 78140  1  0  0  0  0
 79 52  1  0  0  0  0
 79141  1  0  0  0  0
 80142  1  0  0  0  0
 81143  1  0  0  0  0
 82144  1  0  0  0  0
 82145  1  0  0  0  0
 82146  1  0  0  0  0
 83 75  1  0  0  0  0
 84147  1  0  0  0  0
 84148  1  0  0  0  0
 84149  1  0  0  0  0
 85 83  1  0  0  0  0
 85150  1  0  0  0  0
 85151  1  0  0  0  0
 86 85  1  0  0  0  0
 86152  1  0  0  0  0
 86153  1  0  0  0  0
 87 88  1  0  0  0  0
 87154  1  0  0  0  0
 87155  1  0  0  0  0
 88 86  1  0  0  0  0
 88156  1  0  0  0  0
 88157  1  0  0  0  0
 89 87  1  0  0  0  0
 89158  1  0  0  0  0
 89159  1  0  0  0  0
 89160  1  0  0  0  0
M  END
>  <DRUGBANK_ID>
DB01141

>  <SECONDARY_ACCESSION_NUMBERS>
APRD01114

>  <COMMON_NAME>
Micafungin

>  <CAS_NUMBER>
235114-32-6

>  <UNII>
R10H71BSWG

>  <SYNONYMS>
Micafungin; Micafungina

$$$$
