134
 OpenBabel10282417163D

 52 55  0  0  0  0  0  0  0  0999 V2000
   -1.4946   -1.2629   -0.0010 C   0  0  0  0  0  0  0  0  0  0  0  0
   -1.7403    0.1167   -0.0001 C   0  0  0  0  0  0  0  0  0  0  0  0
   -2.9873    0.6119    0.0130 F   0  0  0  0  0  0  0  0  0  0  0  0
   -0.7037    1.0565   -0.0230 C   0  0  0  0  0  0  0  0  0  0  0  0
    0.6031    0.5686   -0.0716 C   0  0  0  0  0  0  0  0  0  0  0  0
    0.8927   -0.7927   -0.0521 C   0  0  0  0  0  0  0  0  0  0  0  0
   -0.1644   -1.7184   -0.0071 C   0  0  0  0  0  0  0  0  0  0  0  0
   -2.6155   -2.2549   -0.0080 C   0  0  0  0  0  0  0  0  0  0  0  0
   -2.3899   -3.5964   -0.0150 N   0  0  0  0  0  0  0  0  0  0  0  0
   -3.8431   -1.8402   -0.0111 N   0  0  0  0  0  0  0  0  0  0  0  0
    1.8033    1.2317   -0.1508 N   0  0  0  0  0  0  0  0  0  0  0  0
    2.3016   -0.9310   -0.0784 C   0  0  0  0  0  0  0  0  0  0  0  0
    2.8469    0.3272   -0.1947 C   0  0  0  0  0  0  0  0  0  0  0  0
    4.2470    0.7301   -0.1587 C   0  0  0  0  0  0  0  0  0  0  0  0
    5.1545    0.3074   -1.1223 C   0  0  0  0  0  0  0  0  0  0  0  0
    6.4906    0.7078   -1.0493 C   0  0  0  0  0  0  0  0  0  0  0  0
    6.9287    1.5207   -0.0004 C   0  0  0  0  0  0  0  0  0  0  0  0
    6.0342    1.9491    0.9838 C   0  0  0  0  0  0  0  0  0  0  0  0
    4.6948    1.5419    0.8828 C   0  0  0  0  0  0  0  0  0  0  0  0
    3.7396    1.9313    1.7831 O   0  0  0  0  0  0  0  0  0  0  0  0
    6.6107    2.7299    1.9519 O   0  0  0  0  0  0  0  0  0  0  0  0
    5.3559    1.9989    3.9670 C   0  0  1  0  0  0  0  0  0  0  0  0
    4.3056    2.4376    4.9875 C   0  0  0  0  0  0  0  0  0  0  0  0
    3.1974    3.2985    4.3742 C   0  0  0  0  0  0  0  0  0  0  0  0
    3.7402    4.5413    3.6718 C   0  0  0  0  0  0  0  0  0  0  0  0
    4.7871    4.2362    2.6141 C   0  0  0  0  0  0  0  0  0  0  0  0
    5.8228    3.1794    3.0653 C   0  0  2  0  0  0  0  0  0  0  0  0
    6.5326    1.2416    4.5917 C   0  0  0  0  0  0  0  0  0  0  0  0
    4.9016    1.1970    3.3870 H   0  0  0  0  0  0  0  0  0  0  0  0
    6.5237    3.7523    3.6901 H   0  0  0  0  0  0  0  0  0  0  0  0
   -0.9321    2.1169   -0.0294 H   0  0  0  0  0  0  0  0  0  0  0  0
    0.0927   -2.7680   -0.0047 H   0  0  0  0  0  0  0  0  0  0  0  0
   -3.1584   -4.2513   -0.0300 H   0  0  0  0  0  0  0  0  0  0  0  0
   -1.4665   -4.0049   -0.0296 H   0  0  0  0  0  0  0  0  0  0  0  0
   -4.4874   -2.6272   -0.0186 H   0  0  0  0  0  0  0  0  0  0  0  0
    1.9159    2.2388   -0.1185 H   0  0  0  0  0  0  0  0  0  0  0  0
    2.8684   -1.8501   -0.0081 H   0  0  0  0  0  0  0  0  0  0  0  0
    4.8186   -0.3197   -1.9414 H   0  0  0  0  0  0  0  0  0  0  0  0
    7.1919    0.3886   -1.8151 H   0  0  0  0  0  0  0  0  0  0  0  0
    7.9738    1.8230    0.0471 H   0  0  0  0  0  0  0  0  0  0  0  0
    3.0848    1.2234    1.9073 H   0  0  0  0  0  0  0  0  0  0  0  0
    3.8477    1.5444    5.4317 H   0  0  0  0  0  0  0  0  0  0  0  0
    4.7839    2.9918    5.8009 H   0  0  0  0  0  0  0  0  0  0  0  0
    2.5927    2.7038    3.6802 H   0  0  0  0  0  0  0  0  0  0  0  0
    2.5032    3.6084    5.1625 H   0  0  0  0  0  0  0  0  0  0  0  0
    2.9095    5.0840    3.2029 H   0  0  0  0  0  0  0  0  0  0  0  0
    4.1810    5.2129    4.4145 H   0  0  0  0  0  0  0  0  0  0  0  0
    4.2787    3.9871    1.6784 H   0  0  0  0  0  0  0  0  0  0  0  0
    5.3128    5.1518    2.3135 H   0  0  0  0  0  0  0  0  0  0  0  0
    6.1697    0.3361    5.0930 H   0  0  0  0  0  0  0  0  0  0  0  0
    7.2338    0.9098    3.8161 H   0  0  0  0  0  0  0  0  0  0  0  0
    7.0770    1.8474    5.3183 H   0  0  0  0  0  0  0  0  0  0  0  0
  1  2  2  0  0  0  0
  1  7  1  0  0  0  0
  1  8  1  0  0  0  0
  2  3  1  0  0  0  0
  2  4  1  0  0  0  0
  4  5  2  0  0  0  0
  4 31  1  0  0  0  0
  5  6  1  0  0  0  0
  5 11  1  0  0  0  0
  6  7  2  0  0  0  0
  6 12  1  0  0  0  0
  7 32  1  0  0  0  0
  8  9  1  0  0  0  0
  8 10  2  0  0  0  0
  9 33  1  0  0  0  0
  9 34  1  0  0  0  0
 10 35  1  0  0  0  0
 11 13  1  0  0  0  0
 11 36  1  0  0  0  0
 12 13  2  0  0  0  0
 12 37  1  0  0  0  0
 13 14  1  0  0  0  0
 14 15  2  0  0  0  0
 14 19  1  0  0  0  0
 15 16  1  0  0  0  0
 15 38  1  0  0  0  0
 16 17  2  0  0  0  0
 16 39  1  0  0  0  0
 17 18  1  0  0  0  0
 17 40  1  0  0  0  0
 18 19  2  0  0  0  0
 18 21  1  0  0  0  0
 19 20  1  0  0  0  0
 20 41  1  0  0  0  0
 22 23  1  0  0  0  0
 22 27  1  0  0  0  0
 22 28  1  0  0  0  0
 22 29  1  6  0  0  0
 23 24  1  0  0  0  0
 23 42  1  0  0  0  0
 23 43  1  0  0  0  0
 24 25  1  0  0  0  0
 24 44  1  0  0  0  0
 24 45  1  0  0  0  0
 25 26  1  0  0  0  0
 25 46  1  0  0  0  0
 25 47  1  0  0  0  0
 26 27  1  0  0  0  0
 26 48  1  0  0  0  0
 26 49  1  0  0  0  0
 27 21  1  0  0  0  0
 27 30  1  1  0  0  0
 28 50  1  0  0  0  0
 28 51  1  0  0  0  0
 28 52  1  0  0  0  0
M  END
>  <DRUGBANK_ID>
DB06856

>  <COMMON_NAME>
6-FLUORO-2-[2-HYDROXY-3-(2-METHYL-CYCLOHEXYLOXY)-PHENYL]-1H-INDOLE-5-CARBOXAMIDINE

$$$$
