787
 OpenBabel10282417113D

 27 28  0  0  0  0  0  0  0  0999 V2000
    1.0084   -0.0773    0.0909 O   0  0  0  0  0  0  0  0  0  0  0  0
    1.3009   -5.6801    3.3027 O   0  0  0  0  0  0  0  0  0  0  0  0
    2.4384    1.1620   -2.0325 O   0  0  0  0  0  0  0  0  0  0  0  0
    0.8847   -1.3164    2.0876 N   0  0  0  0  0  0  0  0  0  0  0  0
   -0.2214   -2.9919    0.6951 N   0  0  0  0  0  0  0  0  0  0  0  0
    1.8488   -2.7097    3.5377 N   0  0  0  0  0  0  0  0  0  0  0  0
    0.0441   -5.2449    1.4185 N   0  0  0  0  0  0  0  0  0  0  0  0
   -1.1974   -4.7131   -0.4435 N   0  0  0  0  0  0  0  0  0  0  0  0
    0.5315   -2.5722    1.7207 C   0  0  0  0  0  0  0  0  0  0  0  0
    0.5149   -0.0815    1.4354 C   0  0  0  0  0  0  0  0  0  0  0  0
    1.0971   -3.4264    2.6272 C   0  0  0  0  0  0  0  0  0  0  0  0
    1.7076   -1.4468    3.1792 C   0  0  0  0  0  0  0  0  0  0  0  0
    0.8453   -4.8662    2.5040 C   0  0  0  0  0  0  0  0  0  0  0  0
   -0.4243   -4.3455    0.6008 C   0  0  0  0  0  0  0  0  0  0  0  0
    2.4448   -0.0418    0.0597 C   0  0  0  0  0  0  0  0  0  0  0  0
    2.9171   -0.0115   -1.3849 C   0  0  0  0  0  0  0  0  0  0  0  0
    1.4674    1.1347   -1.9515 H   0  0  0  0  0  0  0  0  0  0  0  0
   -0.5739   -2.3789   -0.0282 H   0  0  0  0  0  0  0  0  0  0  0  0
   -1.5885   -4.0767   -1.1187 H   0  0  0  0  0  0  0  0  0  0  0  0
   -1.3993   -5.7003   -0.5500 H   0  0  0  0  0  0  0  0  0  0  0  0
    0.8889    0.7786    1.9996 H   0  0  0  0  0  0  0  0  0  0  0  0
   -0.5793   -0.0457    1.4093 H   0  0  0  0  0  0  0  0  0  0  0  0
    2.1823   -0.6024    3.6651 H   0  0  0  0  0  0  0  0  0  0  0  0
    2.7858    0.8505    0.5950 H   0  0  0  0  0  0  0  0  0  0  0  0
    2.8541   -0.9386    0.5342 H   0  0  0  0  0  0  0  0  0  0  0  0
    4.0099   -0.0084   -1.4196 H   0  0  0  0  0  0  0  0  0  0  0  0
    2.5435   -0.8800   -1.9361 H   0  0  0  0  0  0  0  0  0  0  0  0
  1 10  1  0  0  0  0
  1 15  1  0  0  0  0
  2 13  2  0  0  0  0
  3 16  1  0  0  0  0
  3 17  1  0  0  0  0
  4  9  1  0  0  0  0
  4 10  1  0  0  0  0
  4 12  1  0  0  0  0
  5  9  1  0  0  0  0
  5 14  1  0  0  0  0
  5 18  1  0  0  0  0
  6 11  1  0  0  0  0
  6 12  2  0  0  0  0
  7 13  1  0  0  0  0
  7 14  2  0  0  0  0
  8 14  1  0  0  0  0
  8 19  1  0  0  0  0
  8 20  1  0  0  0  0
  9 11  2  0  0  0  0
 10 21  1  0  0  0  0
 10 22  1  0  0  0  0
 11 13  1  0  0  0  0
 12 23  1  0  0  0  0
 15 16  1  0  0  0  0
 15 24  1  0  0  0  0
 15 25  1  0  0  0  0
 16 26  1  0  0  0  0
 16 27  1  0  0  0  0
M  END
>  <DRUGBANK_ID>
DB00787

>  <SECONDARY_ACCESSION_NUMBERS>
APRD00567; EXPT00406; DB05347

>  <COMMON_NAME>
Acyclovir

>  <CAS_NUMBER>
59277-89-3

>  <UNII>
X4HES1O11F

>  <SYNONYMS>
Aciclovir; Aciclovirum; Acycloguanosine; Acyclovir

$$$$
