
 OpenBabel10282417143D

 38 38  0  0  0  0  0  0  0  0999 V2000
    0.6401   -1.2017    0.0066 C   0  0  0  0  0  0  0  0  0  0  0  0
   -0.7772   -1.2086    0.0142 C   0  0  0  0  0  0  0  0  0  0  0  0
   -1.3995    0.0458    0.0055 C   0  0  0  0  0  0  0  0  0  0  0  0
   -0.6382    1.2141    0.0085 C   0  0  0  0  0  0  0  0  0  0  0  0
    0.7645    1.2195    0.0075 C   0  0  0  0  0  0  0  0  0  0  0  0
    1.3911   -0.0254    0.0000 C   0  0  0  0  0  0  0  0  0  0  0  0
   -1.4428   -2.5918    0.0354 C   0  0  0  0  0  0  0  0  0  0  0  0
   -1.0223   -3.3842   -1.2250 C   0  0  0  0  0  0  0  0  0  0  0  0
   -0.9957   -3.3608    1.3025 C   0  0  0  0  0  0  0  0  0  0  0  0
   -2.9737   -2.5666    0.0534 C   0  0  0  0  0  0  0  0  0  0  0  0
   -2.7248    0.3573   -0.0068 O   0  0  0  0  0  0  0  0  0  0  0  0
    2.7503   -0.1415   -0.0134 O   0  0  0  0  0  0  0  0  0  0  0  0
    1.4607    2.5823    0.0131 C   0  0  0  0  0  0  0  0  0  0  0  0
    1.0304    3.3778   -1.2405 C   0  0  0  0  0  0  0  0  0  0  0  0
    1.0423    3.3613    1.2812 C   0  0  0  0  0  0  0  0  0  0  0  0
    2.9947    2.5008    0.0056 C   0  0  0  0  0  0  0  0  0  0  0  0
    1.1832   -2.1444    0.0069 H   0  0  0  0  0  0  0  0  0  0  0  0
   -1.1899    2.1532    0.0112 H   0  0  0  0  0  0  0  0  0  0  0  0
    0.0550   -3.5801   -1.2643 H   0  0  0  0  0  0  0  0  0  0  0  0
   -1.5224   -4.3581   -1.2622 H   0  0  0  0  0  0  0  0  0  0  0  0
   -1.2857   -2.8347   -2.1369 H   0  0  0  0  0  0  0  0  0  0  0  0
   -1.2412   -2.7952    2.2097 H   0  0  0  0  0  0  0  0  0  0  0  0
   -1.4940   -4.3343    1.3680 H   0  0  0  0  0  0  0  0  0  0  0  0
    0.0821   -3.5562    1.3240 H   0  0  0  0  0  0  0  0  0  0  0  0
   -3.3410   -2.0436    0.9445 H   0  0  0  0  0  0  0  0  0  0  0  0
   -3.3618   -2.0905   -0.8548 H   0  0  0  0  0  0  0  0  0  0  0  0
   -3.4029   -3.5715    0.0833 H   0  0  0  0  0  0  0  0  0  0  0  0
   -3.3057   -0.4083   -0.0197 H   0  0  0  0  0  0  0  0  0  0  0  0
    3.0148   -1.0740   -0.0260 H   0  0  0  0  0  0  0  0  0  0  0  0
   -0.0471    3.5790   -1.2629 H   0  0  0  0  0  0  0  0  0  0  0  0
    1.5339    4.3491   -1.2812 H   0  0  0  0  0  0  0  0  0  0  0  0
    1.2749    2.8283   -2.1575 H   0  0  0  0  0  0  0  0  0  0  0  0
    1.2969    2.8010    2.1890 H   0  0  0  0  0  0  0  0  0  0  0  0
    1.5456    4.3325    1.3292 H   0  0  0  0  0  0  0  0  0  0  0  0
   -0.0351    3.5609    1.3172 H   0  0  0  0  0  0  0  0  0  0  0  0
    3.3639    1.9725    0.8929 H   0  0  0  0  0  0  0  0  0  0  0  0
    3.3556    1.9859   -0.8929 H   0  0  0  0  0  0  0  0  0  0  0  0
    3.4549    3.4922    0.0110 H   0  0  0  0  0  0  0  0  0  0  0  0
  1 17  1  0  0  0  0
  2  1  1  0  0  0  0
  3  2  2  0  0  0  0
  3 11  1  0  0  0  0
  4  3  1  0  0  0  0
  4 18  1  0  0  0  0
  5  4  2  0  0  0  0
  5 13  1  0  0  0  0
  6  1  2  0  0  0  0
  6  5  1  0  0  0  0
  6 12  1  0  0  0  0
  7  2  1  0  0  0  0
  7  8  1  0  0  0  0
  7  9  1  0  0  0  0
  7 10  1  0  0  0  0
  8 19  1  0  0  0  0
  8 20  1  0  0  0  0
  8 21  1  0  0  0  0
  9 22  1  0  0  0  0
  9 23  1  0  0  0  0
  9 24  1  0  0  0  0
 10 25  1  0  0  0  0
 10 26  1  0  0  0  0
 10 27  1  0  0  0  0
 11 28  1  0  0  0  0
 12 29  1  0  0  0  0
 13 14  1  0  0  0  0
 13 15  1  0  0  0  0
 13 16  1  0  0  0  0
 14 30  1  0  0  0  0
 14 31  1  0  0  0  0
 14 32  1  0  0  0  0
 15 33  1  0  0  0  0
 15 34  1  0  0  0  0
 15 35  1  0  0  0  0
 16 36  1  0  0  0  0
 16 37  1  0  0  0  0
 16 38  1  0  0  0  0
M  END
>  <DRUGBANK_ID>
DB04638

>  <COMMON_NAME>
2,5-di-tert-butylhydroquinone

>  <CAS_NUMBER>
88-58-4

>  <UNII>
26XK13B61B

>  <SYNONYMS>
2,5-di-tert-butylbenzene-1,4-diol

$$$$
