
 OpenBabel10282417173D

 30 31  0  0  0  0  0  0  0  0999 V2000
   -1.2303    1.2308    0.0085 C   0  0  0  0  0  0  0  0  0  0  0  0
    0.1627    1.1873   -0.0007 C   0  0  0  0  0  0  0  0  0  0  0  0
    0.8212   -0.0451   -0.0154 C   0  0  0  0  0  0  0  0  0  0  0  0
    0.1165   -1.2587   -0.0102 C   0  0  0  0  0  0  0  0  0  0  0  0
   -1.2850   -1.1817    0.0146 C   0  0  0  0  0  0  0  0  0  0  0  0
   -1.9532    0.0442    0.0175 C   0  0  0  0  0  0  0  0  0  0  0  0
    0.8116   -2.4936   -0.1602 N   0  0  0  0  0  0  0  0  0  0  0  0
    0.1883   -3.7041   -0.0242 C   0  0  0  0  0  0  0  0  0  0  0  0
   -0.8400   -4.2243   -1.3442 S   0  0  0  0  0  0  0  0  0  0  0  0
   -1.3713   -5.6870   -0.4051 C   0  0  1  0  0  0  0  0  0  0  0  0
   -0.4764   -5.6468    0.8363 C   0  0  0  0  0  0  0  0  0  0  0  0
    0.3163   -4.5255    0.9610 N   0  0  0  0  0  0  0  0  0  0  0  0
   -0.4655   -6.5580    1.6621 O   0  0  0  0  0  0  0  0  0  0  0  0
   -2.8869   -5.6917   -0.1001 C   0  0  0  0  0  0  0  0  0  0  0  0
   -3.7271   -5.6459   -1.3871 C   0  0  0  0  0  0  0  0  0  0  0  0
   -3.2865   -6.9584    0.6703 C   0  0  0  0  0  0  0  0  0  0  0  0
    2.1637   -0.0572   -0.0264 F   0  0  0  0  0  0  0  0  0  0  0  0
   -1.7551    2.1826    0.0074 H   0  0  0  0  0  0  0  0  0  0  0  0
    0.7378    2.1079   -0.0087 H   0  0  0  0  0  0  0  0  0  0  0  0
   -1.9013   -2.0739    0.0306 H   0  0  0  0  0  0  0  0  0  0  0  0
   -3.0407    0.0584    0.0153 H   0  0  0  0  0  0  0  0  0  0  0  0
    1.7333   -2.4346    0.2663 H   0  0  0  0  0  0  0  0  0  0  0  0
   -1.0982   -6.5631   -1.0004 H   0  0  0  0  0  0  0  0  0  0  0  0
   -3.1514   -4.8248    0.5217 H   0  0  0  0  0  0  0  0  0  0  0  0
   -3.4948   -6.5027   -2.0298 H   0  0  0  0  0  0  0  0  0  0  0  0
   -4.7982   -5.6780   -1.1594 H   0  0  0  0  0  0  0  0  0  0  0  0
   -3.5516   -4.7335   -1.9638 H   0  0  0  0  0  0  0  0  0  0  0  0
   -2.7954   -7.0155    1.6442 H   0  0  0  0  0  0  0  0  0  0  0  0
   -4.3640   -6.9811    0.8640 H   0  0  0  0  0  0  0  0  0  0  0  0
   -3.0231   -7.8567    0.1012 H   0  0  0  0  0  0  0  0  0  0  0  0
  1  2  2  0  0  0  0
  1 18  1  0  0  0  0
  2  3  1  0  0  0  0
  2 19  1  0  0  0  0
  3  4  2  0  0  0  0
  3 17  1  0  0  0  0
  4  5  1  0  0  0  0
  4  7  1  0  0  0  0
  5  6  2  0  0  0  0
  5 20  1  0  0  0  0
  6  1  1  0  0  0  0
  6 21  1  0  0  0  0
  7  8  1  0  0  0  0
  7 22  1  0  0  0  0
  8  9  1  0  0  0  0
  9 10  1  0  0  0  0
 10 11  1  0  0  0  0
 10 14  1  0  0  0  0
 10 23  1  6  0  0  0
 11 12  1  0  0  0  0
 11 13  2  0  0  0  0
 12  8  2  0  0  0  0
 14 15  1  0  0  0  0
 14 16  1  0  0  0  0
 14 24  1  0  0  0  0
 15 25  1  0  0  0  0
 15 26  1  0  0  0  0
 15 27  1  0  0  0  0
 16 28  1  0  0  0  0
 16 29  1  0  0  0  0
 16 30  1  0  0  0  0
M  END
>  <DRUGBANK_ID>
DB08771

>  <COMMON_NAME>
(5R)-2-[(2-Fluorophenyl)amino]-5-isopropyl-1,3-thiazol-4(5H)-one

$$$$
