
 OpenBabel10282417123D

 14 14  0  0  0  0  0  0  0  0999 V2000
    1.6994   -1.3359   -0.0028 O   0  0  0  0  0  0  0  0  0  0  0  0
    0.4921   -0.6935   -0.0019 C   0  0  0  0  0  0  0  0  0  0  0  0
   -0.7112   -1.3919   -0.0095 C   0  0  0  0  0  0  0  0  0  0  0  0
   -1.9142   -0.6797   -0.0099 C   0  0  0  0  0  0  0  0  0  0  0  0
   -1.9063    0.7190    0.0050 C   0  0  0  0  0  0  0  0  0  0  0  0
   -0.6957    1.4120    0.0144 C   0  0  0  0  0  0  0  0  0  0  0  0
    0.4950    0.7006    0.0059 C   0  0  0  0  0  0  0  0  0  0  0  0
    1.6737    1.3904    0.0020 O   0  0  0  0  0  0  0  0  0  0  0  0
    1.5306   -2.2941    0.0035 H   0  0  0  0  0  0  0  0  0  0  0  0
   -0.7381   -2.4770   -0.0170 H   0  0  0  0  0  0  0  0  0  0  0  0
   -2.8625   -1.2117   -0.0215 H   0  0  0  0  0  0  0  0  0  0  0  0
   -2.8435    1.2695    0.0079 H   0  0  0  0  0  0  0  0  0  0  0  0
   -0.6796    2.4975    0.0263 H   0  0  0  0  0  0  0  0  0  0  0  0
    2.3661    0.7015   -0.0191 H   0  0  0  0  0  0  0  0  0  0  0  0
  1  2  1  0  0  0  0
  1  9  1  0  0  0  0
  2  3  2  0  0  0  0
  2  7  1  0  0  0  0
  3  4  1  0  0  0  0
  3 10  1  0  0  0  0
  4  5  2  0  0  0  0
  4 11  1  0  0  0  0
  5  6  1  0  0  0  0
  5 12  1  0  0  0  0
  6  7  2  0  0  0  0
  6 13  1  0  0  0  0
  7  8  1  0  0  0  0
  8 14  1  0  0  0  0
M  END
>  <DRUGBANK_ID>
DB02232

>  <SECONDARY_ACCESSION_NUMBERS>
EXPT00830

>  <COMMON_NAME>
1,2-Dihydroxybenzene

>  <CAS_NUMBER>
120-80-9

>  <UNII>
LF3AJ089DQ

$$$$
