
 OpenBabel10282417173D

 48 51  0  0  1  0  0  0  0  0999 V2000
    2.8129   -0.5785   -0.2431 C   0  0  1  0  0  0  0  0  0  0  0  0
    2.0197   -1.8514    0.0764 C   0  0  1  0  0  0  0  0  0  0  0  0
    3.3683   -2.8772   -0.6494 C   0  0  0  0  0  0  0  0  0  0  0  0
    4.6204   -1.9229   -0.9176 C   0  0  0  0  0  0  0  0  0  0  0  0
    4.1800   -0.9916    0.1134 C   0  0  0  0  0  0  0  0  0  0  0  0
    2.6242    0.6971    0.5207 C   0  0  0  0  0  0  0  0  0  0  0  0
    1.4517    1.3443   -0.0461 C   0  0  0  0  0  0  0  0  0  0  0  0
    0.2803    0.4251    0.2681 C   0  0  1  0  0  0  0  0  0  0  0  0
    0.3949   -1.1608   -0.2968 C   0  0  1  0  0  0  0  0  0  0  0  0
   -0.8981    1.2262   -0.2389 C   0  0  2  0  0  0  0  0  0  0  0  0
   -2.2202    0.7334    0.0064 C   0  0  0  0  0  0  0  0  0  0  0  0
   -2.2904   -0.7936   -0.2051 C   0  0  0  0  0  0  0  0  0  0  0  0
   -1.0056   -1.7079    0.2614 C   0  0  0  0  0  0  0  0  0  0  0  0
   -1.1497    1.0437   -1.9420 C   0  0  0  0  0  0  0  0  0  0  0  0
   -0.6175    2.3107   -2.3480 C   0  0  0  0  0  0  0  0  0  0  0  0
   -1.9173    2.9679   -1.5386 C   0  0  0  0  0  0  0  0  0  0  0  0
   -2.9368    1.7827   -0.5088 C   0  0  0  0  0  0  0  0  0  0  0  0
   -2.0527    4.1761   -1.5265 O   0  0  0  0  0  0  0  0  0  0  0  0
    4.7086   -0.8208    1.2589 O   0  0  0  0  0  0  0  0  0  0  0  0
   -3.9310    2.2363    0.3633 O   0  0  0  0  0  0  0  0  0  0  0  0
   -0.8709    2.7609    0.6764 C   0  0  0  0  0  0  0  0  0  0  0  0
    0.2906   -1.1657   -1.3846 H   0  0  0  0  0  0  0  0  0  0  0  0
    2.6223   -0.4520   -1.8462 C   0  0  0  0  0  0  0  0  0  0  0  0
    0.1707    0.3683    1.3690 H   0  0  0  0  0  0  0  0  0  0  0  0
    1.9453   -2.2414    1.0945 H   0  0  0  0  0  0  0  0  0  0  0  0
    4.1418   -3.3305    0.0224 H   0  0  0  0  0  0  0  0  0  0  0  0
    3.0967   -3.9474   -0.6434 H   0  0  0  0  0  0  0  0  0  0  0  0
    5.6708   -2.2165   -0.8127 H   0  0  0  0  0  0  0  0  0  0  0  0
    4.6325   -1.3649   -1.8492 H   0  0  0  0  0  0  0  0  0  0  0  0
    3.4870    1.3519    0.3738 H   0  0  0  0  0  0  0  0  0  0  0  0
    2.4815    0.5700    1.6001 H   0  0  0  0  0  0  0  0  0  0  0  0
    1.4459    2.3937    0.2529 H   0  0  0  0  0  0  0  0  0  0  0  0
    1.5841    1.4503   -1.1046 H   0  0  0  0  0  0  0  0  0  0  0  0
   -3.2570   -1.1860    0.1273 H   0  0  0  0  0  0  0  0  0  0  0  0
   -2.3402   -0.9605   -1.2905 H   0  0  0  0  0  0  0  0  0  0  0  0
   -1.3048   -2.7274   -0.0151 H   0  0  0  0  0  0  0  0  0  0  0  0
   -0.8637   -1.7584    1.3450 H   0  0  0  0  0  0  0  0  0  0  0  0
   -2.1730    1.0599   -2.4041 H   0  0  0  0  0  0  0  0  0  0  0  0
   -0.8141    0.0937   -2.3357 H   0  0  0  0  0  0  0  0  0  0  0  0
   -0.4592    2.6873   -3.3540 H   0  0  0  0  0  0  0  0  0  0  0  0
    0.3634    1.8597   -2.2099 H   0  0  0  0  0  0  0  0  0  0  0  0
   -4.0245    1.5106    1.0268 H   0  0  0  0  0  0  0  0  0  0  0  0
   -0.8508    2.5969    1.7621 H   0  0  0  0  0  0  0  0  0  0  0  0
   -0.0735    3.4436    0.3669 H   0  0  0  0  0  0  0  0  0  0  0  0
   -1.7611    3.4215    0.6196 H   0  0  0  0  0  0  0  0  0  0  0  0
    3.4115    0.1448   -2.2971 H   0  0  0  0  0  0  0  0  0  0  0  0
    2.5939   -1.4421   -2.3365 H   0  0  0  0  0  0  0  0  0  0  0  0
    1.6782   -0.0447   -2.2064 H   0  0  0  0  0  0  0  0  0  0  0  0
  1  2  1  0  0  0  0
  1  5  1  0  0  0  0
  1  6  1  0  0  0  0
  1 23  1  1  0  0  0
  2  3  1  0  0  0  0
  2 25  1  6  0  0  0
  3  4  1  0  0  0  0
  3 26  1  0  0  0  0
  3 27  1  0  0  0  0
  4  5  1  0  0  0  0
  4 28  1  0  0  0  0
  4 29  1  0  0  0  0
  5 19  2  0  0  0  0
  6  7  1  0  0  0  0
  6 30  1  0  0  0  0
  6 31  1  0  0  0  0
  7  8  1  0  0  0  0
  7 32  1  0  0  0  0
  7 33  1  0  0  0  0
  8  9  1  0  0  0  0
  8 10  1  0  0  0  0
  8 24  1  6  0  0  0
  9  2  1  0  0  0  0
  9 22  1  1  0  0  0
 10 11  1  0  0  0  0
 10 14  1  0  0  0  0
 10 21  1  1  0  0  0
 11 12  1  0  0  0  0
 12 13  1  0  0  0  0
 12 34  1  0  0  0  0
 12 35  1  0  0  0  0
 13  9  1  0  0  0  0
 13 36  1  0  0  0  0
 13 37  1  0  0  0  0
 14 15  1  0  0  0  0
 14 38  1  0  0  0  0
 14 39  1  0  0  0  0
 15 16  1  0  0  0  0
 15 40  1  0  0  0  0
 15 41  1  0  0  0  0
 16 17  1  0  0  0  0
 16 18  2  0  0  0  0
 17 11  2  0  0  0  0
 17 20  1  0  0  0  0
 20 42  1  0  0  0  0
 21 43  1  0  0  0  0
 21 44  1  0  0  0  0
 21 45  1  0  0  0  0
 23 46  1  0  0  0  0
 23 47  1  0  0  0  0
 23 48  1  0  0  0  0
M  END
>  <DRUGBANK_ID>
DB08905

>  <COMMON_NAME>
Formestane

>  <CAS_NUMBER>
566-48-3

>  <UNII>
PUB9T8T355

>  <SYNONYMS>
4-hydroxy-4-androstene-3,17-dione; 4-Hydroxy-delta(4)-androstenedione; 4-hydroxy-Î”4-androstenedione; 4-hydroxyandrostenedione; 4-OH-A; 4-OHAD; Formestane; Formestano; Formestanum

$$$$
