
 OpenBabel10282417213D

 58 62  0  0  1  0  0  0  0  0999 V2000
   -2.2656    0.0064   -0.0078 C   0  0  0  0  0  0  0  0  0  0  0  0
   -0.7947   -0.2486   -0.0084 C   0  0  0  0  0  0  0  0  0  0  0  0
   -0.2482   -1.4457   -0.0396 N   0  0  0  0  0  0  0  0  0  0  0  0
    1.1498   -1.3546   -0.0887 C   0  0  0  0  0  0  0  0  0  0  0  0
    2.0259   -2.5508   -0.0817 C   0  0  0  0  0  0  0  0  0  0  0  0
    3.2540   -2.4725    0.0017 O   0  0  0  0  0  0  0  0  0  0  0  0
    1.4349   -3.7955    0.0649 N   0  0  0  0  0  0  0  0  0  0  0  0
    1.5461   -4.3940    1.3828 C   0  0  0  0  0  0  0  0  0  0  0  0
    2.0060   -5.8399    1.3094 C   0  0  0  0  0  0  0  0  0  0  0  0
    1.2142   -6.6562    0.2960 C   0  0  0  0  0  0  0  0  0  0  0  0
    1.1209   -5.9599   -1.0644 C   0  0  0  0  0  0  0  0  0  0  0  0
    0.6053   -4.5023   -0.9395 C   0  0  1  0  0  0  0  0  0  0  0  0
   -0.8677   -4.4769   -0.4914 C   0  0  0  0  0  0  0  0  0  0  0  0
   -1.7737   -5.4228   -1.1178 N   0  0  0  0  0  0  0  0  0  0  0  0
   -2.3957   -6.5156   -0.5414 C   0  0  0  0  0  0  0  0  0  0  0  0
   -3.0240   -7.2981   -1.2563 O   0  0  0  0  0  0  0  0  0  0  0  0
   -2.2814   -6.7760    0.9216 C   0  0  0  0  0  0  0  0  0  0  0  0
   -2.4085   -5.7329    1.8633 C   0  0  0  0  0  0  0  0  0  0  0  0
   -2.1016   -5.9195    3.2118 C   0  0  0  0  0  0  0  0  0  0  0  0
   -1.7367   -7.1762    3.6923 C   0  0  0  0  0  0  0  0  0  0  0  0
   -1.7037   -8.2155    2.7631 C   0  0  0  0  0  0  0  0  0  0  0  0
   -1.9638   -8.0684    1.4012 C   0  0  0  0  0  0  0  0  0  0  0  0
   -1.7647   -9.3646    0.8444 C   0  0  0  0  0  0  0  0  0  0  0  0
   -1.4626  -10.2045    1.8916 C   0  0  0  0  0  0  0  0  0  0  0  0
   -1.4007   -9.5100    3.0561 O   0  0  0  0  0  0  0  0  0  0  0  0
    1.6273   -0.0425   -0.0359 C   0  0  0  0  0  0  0  0  0  0  0  0
    0.3094    1.0622    0.0161 S   0  0  0  0  0  0  0  0  0  0  0  0
    3.0077    0.4603   -0.0397 C   0  0  0  0  0  0  0  0  0  0  0  0
    3.8672    0.0968   -1.0899 C   0  0  0  0  0  0  0  0  0  0  0  0
    5.2190    0.4386   -1.0613 C   0  0  0  0  0  0  0  0  0  0  0  0
    5.7104    1.1827    0.0008 C   0  0  0  0  0  0  0  0  0  0  0  0
    7.0082    1.5127    0.0286 F   0  0  0  0  0  0  0  0  0  0  0  0
    4.8760    1.5829    1.0389 C   0  0  0  0  0  0  0  0  0  0  0  0
    3.5246    1.2173    1.0246 C   0  0  0  0  0  0  0  0  0  0  0  0
   -2.5758    0.5808    0.8716 H   0  0  0  0  0  0  0  0  0  0  0  0
   -2.5686    0.5535   -0.9070 H   0  0  0  0  0  0  0  0  0  0  0  0
   -2.8124   -0.9423    0.0036 H   0  0  0  0  0  0  0  0  0  0  0  0
    0.5639   -4.3198    1.8604 H   0  0  0  0  0  0  0  0  0  0  0  0
    2.2129   -3.8036    2.0195 H   0  0  0  0  0  0  0  0  0  0  0  0
    1.9106   -6.2934    2.3019 H   0  0  0  0  0  0  0  0  0  0  0  0
    3.0623   -5.8668    1.0267 H   0  0  0  0  0  0  0  0  0  0  0  0
    1.6429   -7.6582    0.1893 H   0  0  0  0  0  0  0  0  0  0  0  0
    0.2186   -6.8064    0.6961 H   0  0  0  0  0  0  0  0  0  0  0  0
    2.1161   -5.9675   -1.5242 H   0  0  0  0  0  0  0  0  0  0  0  0
    0.4739   -6.5463   -1.7294 H   0  0  0  0  0  0  0  0  0  0  0  0
    0.7050   -4.0051   -1.9131 H   0  0  0  0  0  0  0  0  0  0  0  0
   -0.8474   -4.6966    0.5604 H   0  0  0  0  0  0  0  0  0  0  0  0
   -1.3088   -3.4862   -0.5846 H   0  0  0  0  0  0  0  0  0  0  0  0
   -1.9141   -5.3453   -2.1187 H   0  0  0  0  0  0  0  0  0  0  0  0
   -2.6836   -4.7345    1.5282 H   0  0  0  0  0  0  0  0  0  0  0  0
   -2.1381   -5.0700    3.8907 H   0  0  0  0  0  0  0  0  0  0  0  0
   -1.5055   -7.3445    4.7379 H   0  0  0  0  0  0  0  0  0  0  0  0
   -1.8578   -9.6513   -0.1940 H   0  0  0  0  0  0  0  0  0  0  0  0
   -1.2689  -11.2658    1.9701 H   0  0  0  0  0  0  0  0  0  0  0  0
    3.5002   -0.5178   -1.9090 H   0  0  0  0  0  0  0  0  0  0  0  0
    5.8885    0.1027   -1.8459 H   0  0  0  0  0  0  0  0  0  0  0  0
    5.2901    2.1562    1.8624 H   0  0  0  0  0  0  0  0  0  0  0  0
    2.8958    1.4990    1.8661 H   0  0  0  0  0  0  0  0  0  0  0  0
  1  2  1  0  0  0  0
  1 35  1  0  0  0  0
  1 36  1  0  0  0  0
  1 37  1  0  0  0  0
  2  3  2  0  0  0  0
  2 27  1  0  0  0  0
  3  4  1  0  0  0  0
  4  5  1  0  0  0  0
  4 26  2  0  0  0  0
  5  6  2  0  0  0  0
  5  7  1  0  0  0  0
  7  8  1  0  0  0  0
  8  9  1  0  0  0  0
  8 38  1  0  0  0  0
  8 39  1  0  0  0  0
  9 10  1  0  0  0  0
  9 40  1  0  0  0  0
  9 41  1  0  0  0  0
 10 11  1  0  0  0  0
 10 42  1  0  0  0  0
 10 43  1  0  0  0  0
 11 44  1  0  0  0  0
 11 45  1  0  0  0  0
 12 11  1  0  0  0  0
 12  7  1  0  0  0  0
 12 46  1  6  0  0  0
 12 13  1  0  0  0  0
 13 14  1  0  0  0  0
 13 47  1  0  0  0  0
 13 48  1  0  0  0  0
 14 15  1  0  0  0  0
 14 49  1  0  0  0  0
 15 16  2  0  0  0  0
 15 17  1  0  0  0  0
 17 18  2  0  0  0  0
 17 22  1  0  0  0  0
 18 19  1  0  0  0  0
 18 50  1  0  0  0  0
 19 20  2  0  0  0  0
 19 51  1  0  0  0  0
 20 21  1  0  0  0  0
 20 52  1  0  0  0  0
 21 22  2  0  0  0  0
 21 25  1  0  0  0  0
 22 23  1  0  0  0  0
 23 24  2  0  0  0  0
 23 53  1  0  0  0  0
 24 25  1  0  0  0  0
 24 54  1  0  0  0  0
 26 27  1  0  0  0  0
 26 28  1  0  0  0  0
 28 29  2  0  0  0  0
 28 34  1  0  0  0  0
 29 30  1  0  0  0  0
 29 55  1  0  0  0  0
 30 31  2  0  0  0  0
 30 56  1  0  0  0  0
 31 32  1  0  0  0  0
 31 33  1  0  0  0  0
 33 34  2  0  0  0  0
 33 57  1  0  0  0  0
 34 58  1  0  0  0  0
M  END
>  <DRUGBANK_ID>
DB14822

>  <COMMON_NAME>
SB-649868

>  <CAS_NUMBER>
380899-24-1

>  <UNII>
1L1V1K2M4V

$$$$
