
 OpenBabel10282417123D

 19 18  0  0  1  0  0  0  0  0999 V2000
   -0.3816    2.0404    9.6154 S   0  0  0  0  0  0  0  0  0  0  0  0
    0.4554    2.9070    8.3688 C   0  0  0  0  0  0  0  0  0  0  0  0
    0.0458    2.8634    7.0949 C   0  0  0  0  0  0  0  0  0  0  0  0
    0.6932    3.5169    5.9170 C   0  0  0  0  0  0  0  0  0  0  0  0
    1.3741    2.4276    4.6245 S   0  0  2  0  0  0  0  0  0  0  0  0
    0.8433    2.8798    3.2950 O   0  0  0  0  0  0  0  0  0  0  0  0
    0.6780    0.7956    5.0056 C   0  0  0  0  0  0  0  0  0  0  0  0
   -0.8121    0.6860    4.8681 C   0  0  0  0  0  0  0  0  0  0  0  0
   -1.4677   -0.1398    4.0423 C   0  0  0  0  0  0  0  0  0  0  0  0
   -1.2736    1.3451    8.8857 H   0  0  0  0  0  0  0  0  0  0  0  0
    1.3268    3.4825    8.6578 H   0  0  0  0  0  0  0  0  0  0  0  0
   -0.8882    2.3600    6.9054 H   0  0  0  0  0  0  0  0  0  0  0  0
   -0.0288    4.1802    5.4281 H   0  0  0  0  0  0  0  0  0  0  0  0
    1.5298    4.1477    6.2391 H   0  0  0  0  0  0  0  0  0  0  0  0
    1.1613    0.1052    4.3034 H   0  0  0  0  0  0  0  0  0  0  0  0
    1.0144    0.5016    6.0052 H   0  0  0  0  0  0  0  0  0  0  0  0
   -1.4544    1.2937    5.4857 H   0  0  0  0  0  0  0  0  0  0  0  0
   -2.5539   -0.1376    4.0440 H   0  0  0  0  0  0  0  0  0  0  0  0
   -0.9523   -0.7994    3.3582 H   0  0  0  0  0  0  0  0  0  0  0  0
  1  2  1  0  0  0  0
  1 10  1  0  0  0  0
  2  3  2  0  0  0  0
  2 11  1  0  0  0  0
  3  4  1  0  0  0  0
  3 12  1  0  0  0  0
  4 13  1  0  0  0  0
  4 14  1  0  0  0  0
  5  7  1  0  0  0  0
  5  6  2  6  0  0  0
  5  4  1  0  0  0  0
  7  8  1  0  0  0  0
  7 15  1  0  0  0  0
  7 16  1  0  0  0  0
  8  9  2  0  0  0  0
  8 17  1  0  0  0  0
  9 18  1  0  0  0  0
  9 19  1  0  0  0  0
M  END
>  <DRUGBANK_ID>
DB02895

>  <SECONDARY_ACCESSION_NUMBERS>
EXPT00480

>  <COMMON_NAME>
3-(Prop-2-Ene-1-Sulfinyl)-Propene-1-Thiol

$$$$
