1035
 OpenBabel10282417113D

 38 38  0  0  0  0  0  0  0  0999 V2000
    1.0278   -0.0455   -0.1388 O   0  0  0  0  0  0  0  0  0  0  0  0
    4.3842    3.1304    1.7390 N   0  0  0  0  0  0  0  0  0  0  0  0
    2.9875    0.4295    0.8754 N   0  0  0  0  0  0  0  0  0  0  0  0
    5.0216   -3.4700   -3.7047 N   0  0  0  0  0  0  0  0  0  0  0  0
    4.8795    2.1417    0.7669 C   0  0  0  0  0  0  0  0  0  0  0  0
    5.0001    4.4518    1.5429 C   0  0  0  0  0  0  0  0  0  0  0  0
    2.9229    3.2184    1.8464 C   0  0  0  0  0  0  0  0  0  0  0  0
    4.4300    0.6845    0.9810 C   0  0  0  0  0  0  0  0  0  0  0  0
    4.7101    5.1348    0.2096 C   0  0  0  0  0  0  0  0  0  0  0  0
    2.1555    3.4192    0.5362 C   0  0  0  0  0  0  0  0  0  0  0  0
    2.2578   -0.1609   -0.1063 C   0  0  0  0  0  0  0  0  0  0  0  0
    2.9508   -1.0117   -1.0686 C   0  0  0  0  0  0  0  0  0  0  0  0
    2.6134   -0.9783   -2.4163 C   0  0  0  0  0  0  0  0  0  0  0  0
    3.9221   -1.8948   -0.5883 C   0  0  0  0  0  0  0  0  0  0  0  0
    3.2841   -1.8336   -3.2890 C   0  0  0  0  0  0  0  0  0  0  0  0
    4.6186   -2.6997   -1.4701 C   0  0  0  0  0  0  0  0  0  0  0  0
    4.2778   -2.7067   -2.8211 C   0  0  0  0  0  0  0  0  0  0  0  0
    2.3782    0.7784    1.5968 H   0  0  0  0  0  0  0  0  0  0  0  0
    5.6315   -4.1856   -3.3287 H   0  0  0  0  0  0  0  0  0  0  0  0
    4.6762   -3.6009   -4.6460 H   0  0  0  0  0  0  0  0  0  0  0  0
    5.9796    2.1317    0.8115 H   0  0  0  0  0  0  0  0  0  0  0  0
    4.6359    2.4206   -0.2628 H   0  0  0  0  0  0  0  0  0  0  0  0
    4.6741    5.1089    2.3591 H   0  0  0  0  0  0  0  0  0  0  0  0
    6.0866    4.3619    1.6631 H   0  0  0  0  0  0  0  0  0  0  0  0
    2.5675    2.3325    2.3728 H   0  0  0  0  0  0  0  0  0  0  0  0
    2.6455    4.0025    2.5587 H   0  0  0  0  0  0  0  0  0  0  0  0
    4.7459    0.3194    1.9617 H   0  0  0  0  0  0  0  0  0  0  0  0
    4.9690    0.1224    0.2185 H   0  0  0  0  0  0  0  0  0  0  0  0
    3.6823    5.4843    0.1549 H   0  0  0  0  0  0  0  0  0  0  0  0
    5.3128    6.0351    0.0895 H   0  0  0  0  0  0  0  0  0  0  0  0
    4.9020    4.4793   -0.6444 H   0  0  0  0  0  0  0  0  0  0  0  0
    2.5814    2.8736   -0.3119 H   0  0  0  0  0  0  0  0  0  0  0  0
    1.1128    3.1148    0.6322 H   0  0  0  0  0  0  0  0  0  0  0  0
    2.1198    4.4702    0.2599 H   0  0  0  0  0  0  0  0  0  0  0  0
    1.8425   -0.3016   -2.7782 H   0  0  0  0  0  0  0  0  0  0  0  0
    4.1575   -1.9340    0.4722 H   0  0  0  0  0  0  0  0  0  0  0  0
    3.0157   -1.8245   -4.3412 H   0  0  0  0  0  0  0  0  0  0  0  0
    5.4114   -3.3315   -1.0830 H   0  0  0  0  0  0  0  0  0  0  0  0
  1 11  2  0  0  0  0
  2  5  1  0  0  0  0
  2  6  1  0  0  0  0
  2  7  1  0  0  0  0
  3  8  1  0  0  0  0
  3 11  1  0  0  0  0
  3 18  1  0  0  0  0
  4 17  1  0  0  0  0
  4 19  1  0  0  0  0
  4 20  1  0  0  0  0
  5  8  1  0  0  0  0
  5 21  1  0  0  0  0
  5 22  1  0  0  0  0
  6  9  1  0  0  0  0
  6 23  1  0  0  0  0
  6 24  1  0  0  0  0
  7 10  1  0  0  0  0
  7 25  1  0  0  0  0
  7 26  1  0  0  0  0
  8 27  1  0  0  0  0
  8 28  1  0  0  0  0
  9 29  1  0  0  0  0
  9 30  1  0  0  0  0
  9 31  1  0  0  0  0
 10 32  1  0  0  0  0
 10 33  1  0  0  0  0
 10 34  1  0  0  0  0
 11 12  1  0  0  0  0
 12 13  2  0  0  0  0
 12 14  1  0  0  0  0
 13 15  1  0  0  0  0
 13 35  1  0  0  0  0
 14 16  2  0  0  0  0
 14 36  1  0  0  0  0
 15 17  2  0  0  0  0
 15 37  1  0  0  0  0
 16 17  1  0  0  0  0
 16 38  1  0  0  0  0
M  END
>  <DRUGBANK_ID>
DB01035

>  <SECONDARY_ACCESSION_NUMBERS>
APRD00509

>  <COMMON_NAME>
Procainamide

>  <CAS_NUMBER>
51-06-9

>  <UNII>
L39WTC366D

>  <SYNONYMS>
p-Amino-N-(2-diethylaminoethyl)benzamide; p-Aminobenzoic diethylaminoethylamide; Procainamida; Procainamide; Proca√Ønamide; Procainamidum

$$$$
