
 OpenBabel10282417163D

 49 52  0  0  1  0  0  0  0  0999 V2000
    3.4062   -3.0362    5.5392 C   0  0  0  0  0  0  0  0  0  0  0  0
    2.1263   -2.8312    0.6542 C   0  0  0  0  0  0  0  0  0  0  0  0
    2.7427   -2.4952    2.0024 C   0  0  0  0  0  0  0  0  0  0  0  0
    2.1792   -1.5385    2.7885 C   0  0  0  0  0  0  0  0  0  0  0  0
    2.6896   -1.0981    4.1639 C   0  0  2  0  0  0  0  0  0  0  0  0
    3.8798   -1.9337    4.6061 C   0  0  0  0  0  0  0  0  0  0  0  0
    0.9800   -0.7562    2.4593 C   0  0  0  0  0  0  0  0  0  0  0  0
   -0.1310   -0.7311    3.4201 C   0  0  0  0  0  0  0  0  0  0  0  0
    0.3996   -0.3087    4.7863 C   0  0  2  0  0  0  0  0  0  0  0  0
    1.5595   -1.2232    5.1891 C   0  0  2  0  0  0  0  0  0  0  0  0
   -0.7221   -0.4200    5.8220 C   0  0  1  0  0  0  0  0  0  0  0  0
   -0.1963   -0.0061    7.1965 C   0  0  2  0  0  0  0  0  0  0  0  0
    0.9580   -0.9274    7.5978 C   0  0  0  0  0  0  0  0  0  0  0  0
    2.0827   -0.8114    6.5673 C   0  0  0  0  0  0  0  0  0  0  0  0
   -0.2946    1.7315    9.5294 C   0  0  0  0  0  0  0  0  0  0  0  0
   -0.7894    0.2955    9.5878 C   0  0  0  0  0  0  0  0  0  0  0  0
   -1.3133   -0.1158    8.2215 C   0  0  1  0  0  0  0  0  0  0  0  0
    1.0845   -2.2184    0.2614 O   0  0  0  0  0  0  0  0  0  0  0  0
    0.2978    1.4302    7.1389 C   0  0  0  0  0  0  0  0  0  0  0  0
   -2.3840    0.7389    7.8481 O   0  0  0  0  0  0  0  0  0  0  0  0
    1.2153   -2.2357    5.2236 H   0  0  0  0  0  0  0  0  0  0  0  0
    3.1437    0.3492    4.0654 C   0  0  0  0  0  0  0  0  0  0  0  0
    0.7446    0.7030    4.7393 H   0  0  0  0  0  0  0  0  0  0  0  0
   -1.5302    0.2229    5.5418 H   0  0  0  0  0  0  0  0  0  0  0  0
    2.9378   -2.6007    6.3970 H   0  0  0  0  0  0  0  0  0  0  0  0
    2.7034   -3.6595    5.0270 H   0  0  0  0  0  0  0  0  0  0  0  0
    2.3088   -2.7317    1.0533 H   0  0  0  0  0  0  0  0  0  0  0  0
    4.5827   -1.3104    5.1183 H   0  0  0  0  0  0  0  0  0  0  0  0
    4.3483   -2.3692    3.7483 H   0  0  0  0  0  0  0  0  0  0  0  0
    1.3275    0.2556    2.4372 H   0  0  0  0  0  0  0  0  0  0  0  0
    0.5931   -1.1443    1.5403 H   0  0  0  0  0  0  0  0  0  0  0  0
   -0.8755   -0.0361    3.0920 H   0  0  0  0  0  0  0  0  0  0  0  0
   -0.5657   -1.7063    3.4905 H   0  0  0  0  0  0  0  0  0  0  0  0
    1.3251   -0.6413    8.5612 H   0  0  0  0  0  0  0  0  0  0  0  0
    0.6109   -1.9388    7.6351 H   0  0  0  0  0  0  0  0  0  0  0  0
    2.4271    0.2009    6.5292 H   0  0  0  0  0  0  0  0  0  0  0  0
    2.8908   -1.4540    6.8482 H   0  0  0  0  0  0  0  0  0  0  0  0
    0.0742    2.0210   10.4912 H   0  0  0  0  0  0  0  0  0  0  0  0
    0.4918    1.8087    8.8078 H   0  0  0  0  0  0  0  0  0  0  0  0
   -1.5757    0.2182   10.3093 H   0  0  0  0  0  0  0  0  0  0  0  0
    0.0174   -0.3486    9.8691 H   0  0  0  0  0  0  0  0  0  0  0  0
   -1.6616   -1.1267    8.2626 H   0  0  0  0  0  0  0  0  0  0  0  0
    1.0845    1.5081    6.4179 H   0  0  0  0  0  0  0  0  0  0  0  0
   -0.5092    2.0739    6.8573 H   0  0  0  0  0  0  0  0  0  0  0  0
    0.6657    1.7196    8.1011 H   0  0  0  0  0  0  0  0  0  0  0  0
   -2.0584    1.6837    7.8097 H   0  0  0  0  0  0  0  0  0  0  0  0
    3.4927    0.6794    5.0214 H   0  0  0  0  0  0  0  0  0  0  0  0
    3.9359    0.4265    3.3503 H   0  0  0  0  0  0  0  0  0  0  0  0
    2.3221    0.9604    3.7549 H   0  0  0  0  0  0  0  0  0  0  0  0
  1  2  1  0  0  0  0
  1 25  1  0  0  0  0
  1 26  1  0  0  0  0
  2  3  1  0  0  0  0
  2 18  2  0  0  0  0
  3  4  2  0  0  0  0
  3 27  1  0  0  0  0
  4  5  1  0  0  0  0
  4  7  1  0  0  0  0
  5  6  1  0  0  0  0
  5 22  1  6  0  0  0
  6  1  1  0  0  0  0
  6 28  1  0  0  0  0
  6 29  1  0  0  0  0
  7  8  1  0  0  0  0
  7 30  1  0  0  0  0
  7 31  1  0  0  0  0
  8  9  1  0  0  0  0
  8 32  1  0  0  0  0
  8 33  1  0  0  0  0
  9 10  1  0  0  0  0
  9 11  1  0  0  0  0
  9 23  1  6  0  0  0
 10  5  1  0  0  0  0
 10 21  1  1  0  0  0
 11 12  1  0  0  0  0
 11 15  1  0  0  0  0
 11 24  1  6  0  0  0
 12 13  1  0  0  0  0
 12 19  1  6  0  0  0
 13 14  1  0  0  0  0
 13 34  1  0  0  0  0
 13 35  1  0  0  0  0
 14 10  1  0  0  0  0
 14 36  1  0  0  0  0
 14 37  1  0  0  0  0
 15 16  1  0  0  0  0
 15 38  1  0  0  0  0
 15 39  1  0  0  0  0
 16 17  1  0  0  0  0
 16 40  1  0  0  0  0
 16 41  1  0  0  0  0
 17 12  1  0  0  0  0
 17 20  1  0  0  0  0
 17 42  1  1  0  0  0
 19 43  1  0  0  0  0
 19 44  1  0  0  0  0
 19 45  1  0  0  0  0
 20 46  1  0  0  0  0
 22 47  1  0  0  0  0
 22 48  1  0  0  0  0
 22 49  1  0  0  0  0
M  END
>  <DRUGBANK_ID>
DB07768

>  <COMMON_NAME>
Epitestosterone

>  <CAS_NUMBER>
481-30-1

>  <UNII>
48L726977Z

>  <SYNONYMS>
(17-alpha)-17-Hydroxyandrost-4-en-3-one; 17-alpha-Hydroxyandrost-4-en-3-one; 17-alpha-Testosterone; 17-Epitestosterone; 17alpha-cis-Testosterone; cis-Testosterone; Isotestosterone

$$$$
