
 OpenBabel10282417153D

 92 93  0  0  0  0  0  0  0  0999 V2000
   -4.8893    0.1523    4.5653 C   0  0  0  0  0  0  0  0  0  0  0  0
   -5.2787   -1.0508    5.1305 C   0  0  0  0  0  0  0  0  0  0  0  0
   -4.8419   -2.1893    4.4129 C   0  0  0  0  0  0  0  0  0  0  0  0
   -4.4287   -2.1711    3.1588 C   0  0  0  0  0  0  0  0  0  0  0  0
   -4.1246   -0.9446    2.6365 C   0  0  0  0  0  0  0  0  0  0  0  0
   -4.4012    0.2078    3.3317 C   0  0  0  0  0  0  0  0  0  0  0  0
   -4.8487   -3.5264    5.1358 C   0  0  0  0  0  0  0  0  0  0  0  0
   -5.2517   -3.5961    6.3863 N   0  0  0  0  0  0  0  0  0  0  0  0
   -4.4049   -4.7416    4.4378 N   0  0  0  0  0  0  0  0  0  0  0  0
   -3.4711   -0.8547    1.2671 C   0  0  0  0  0  0  0  0  0  0  0  0
   -2.6595   -2.1393    1.3085 C   0  0  2  0  0  0  0  0  0  0  0  0
   -1.8255   -2.2311    0.1015 N   0  0  0  0  0  0  0  0  0  0  0  0
   -0.1349   -2.0105    0.5383 S   0  0  0  0  0  0  0  0  0  0  0  0
    0.0502   -0.6347    1.1828 O   0  0  0  0  0  0  0  0  0  0  0  0
    0.2820   -3.0987    1.5304 O   0  0  0  0  0  0  0  0  0  0  0  0
   -3.6006   -3.3315    1.3660 C   0  0  0  0  0  0  0  0  0  0  0  0
   -3.5512   -4.1331    2.3510 O   0  0  0  0  0  0  0  0  0  0  0  0
   -4.5678   -3.5574    0.2823 N   0  0  0  0  0  0  0  0  0  0  0  0
   -5.9796   -3.9182    0.4603 C   0  0  0  0  0  0  0  0  0  0  0  0
   -6.8982   -2.9056   -0.1961 C   0  0  0  0  0  0  0  0  0  0  0  0
   -6.6115   -2.8172   -1.6329 N   0  0  0  0  0  0  0  0  0  0  0  0
   -5.1997   -2.4563   -1.8109 C   0  0  0  0  0  0  0  0  0  0  0  0
   -4.2812   -3.4689   -1.1545 C   0  0  0  0  0  0  0  0  0  0  0  0
   -7.5785   -3.0512   -2.7150 C   0  0  0  0  0  0  0  0  0  0  0  0
   -8.7799   -3.3596   -2.4380 O   0  0  0  0  0  0  0  0  0  0  0  0
   -7.1703   -2.9328   -4.0699 O   0  0  0  0  0  0  0  0  0  0  0  0
   -8.1044   -3.1589   -5.1153 C   0  0  0  0  0  0  0  0  0  0  0  0
   -8.6420   -4.5772   -5.0164 C   0  0  0  0  0  0  0  0  0  0  0  0
    0.8920   -2.1235   -0.9479 C   0  0  0  0  0  0  0  0  0  0  0  0
    1.2426   -1.0117   -1.5835 C   0  0  0  0  0  0  0  0  0  0  0  0
    2.1443   -1.0529   -2.6194 C   0  0  0  0  0  0  0  0  0  0  0  0
    2.6317   -2.2443   -3.0804 C   0  0  0  0  0  0  0  0  0  0  0  0
    2.3194   -3.3180   -2.3778 C   0  0  0  0  0  0  0  0  0  0  0  0
    1.2972   -3.3683   -1.4007 C   0  0  0  0  0  0  0  0  0  0  0  0
    0.6411    0.3188   -1.1612 C   0  0  0  0  0  0  0  0  0  0  0  0
    1.7512    1.2612   -0.7251 C   0  0  0  0  0  0  0  0  0  0  0  0
   -0.1108    0.9295   -2.3326 C   0  0  0  0  0  0  0  0  0  0  0  0
    3.4870   -2.3285   -4.3341 C   0  0  0  0  0  0  0  0  0  0  0  0
    4.8449   -2.9142   -3.9827 C   0  0  0  0  0  0  0  0  0  0  0  0
    2.8005   -3.2189   -5.3570 C   0  0  0  0  0  0  0  0  0  0  0  0
    0.6981   -4.6701   -0.8940 C   0  0  0  0  0  0  0  0  0  0  0  0
    0.0741   -5.4266   -2.0553 C   0  0  0  0  0  0  0  0  0  0  0  0
    1.7904   -5.5193   -0.2646 C   0  0  0  0  0  0  0  0  0  0  0  0
    1.0734   -0.0154   -0.0661 Cl  0  0  0  0  0  0  0  0  0  0  0  0
   -4.9836    1.0540    5.1336 H   0  0  0  0  0  0  0  0  0  0  0  0
   -5.8574   -1.1135    6.0283 H   0  0  0  0  0  0  0  0  0  0  0  0
   -4.3368   -3.0678    2.5823 H   0  0  0  0  0  0  0  0  0  0  0  0
   -4.2217    1.1586    2.8748 H   0  0  0  0  0  0  0  0  0  0  0  0
   -5.5596   -2.7529    6.8706 H   0  0  0  0  0  0  0  0  0  0  0  0
   -4.0925   -4.6876    3.4683 H   0  0  0  0  0  0  0  0  0  0  0  0
   -4.4095   -5.6389    4.9229 H   0  0  0  0  0  0  0  0  0  0  0  0
   -4.1126   -1.3004    0.5358 H   0  0  0  0  0  0  0  0  0  0  0  0
   -3.3055    0.1725    1.0176 H   0  0  0  0  0  0  0  0  0  0  0  0
   -2.0328   -2.1374    2.1758 H   0  0  0  0  0  0  0  0  0  0  0  0
   -2.1033   -1.5058   -0.5596 H   0  0  0  0  0  0  0  0  0  0  0  0
   -6.1441   -4.8696   -0.0009 H   0  0  0  0  0  0  0  0  0  0  0  0
   -6.1988   -3.9596    1.5068 H   0  0  0  0  0  0  0  0  0  0  0  0
   -6.7375   -1.9471    0.2514 H   0  0  0  0  0  0  0  0  0  0  0  0
   -7.9149   -3.2083   -0.0566 H   0  0  0  0  0  0  0  0  0  0  0  0
   -5.0353   -1.5049   -1.3497 H   0  0  0  0  0  0  0  0  0  0  0  0
   -4.9805   -2.4149   -2.8574 H   0  0  0  0  0  0  0  0  0  0  0  0
   -3.2662   -3.1582   -1.2893 H   0  0  0  0  0  0  0  0  0  0  0  0
   -4.4329   -4.4276   -1.6047 H   0  0  0  0  0  0  0  0  0  0  0  0
   -8.9133   -2.4640   -5.0273 H   0  0  0  0  0  0  0  0  0  0  0  0
   -7.6211   -3.0257   -6.0605 H   0  0  0  0  0  0  0  0  0  0  0  0
   -9.1254   -4.7104   -4.0711 H   0  0  0  0  0  0  0  0  0  0  0  0
   -9.3458   -4.7476   -5.8041 H   0  0  0  0  0  0  0  0  0  0  0  0
   -7.8331   -5.2721   -5.1044 H   0  0  0  0  0  0  0  0  0  0  0  0
    2.4697   -0.1396   -3.0720 H   0  0  0  0  0  0  0  0  0  0  0  0
    2.8781   -4.2121   -2.5601 H   0  0  0  0  0  0  0  0  0  0  0  0
   -0.0345    0.1622   -0.3464 H   0  0  0  0  0  0  0  0  0  0  0  0
    2.4267    1.4178   -1.5400 H   0  0  0  0  0  0  0  0  0  0  0  0
    1.3277    2.1978   -0.4279 H   0  0  0  0  0  0  0  0  0  0  0  0
    2.2805    0.8313    0.0994 H   0  0  0  0  0  0  0  0  0  0  0  0
   -0.8923    0.2661   -2.6396 H   0  0  0  0  0  0  0  0  0  0  0  0
   -0.5343    1.8661   -2.0353 H   0  0  0  0  0  0  0  0  0  0  0  0
    0.5647    1.0861   -3.1474 H   0  0  0  0  0  0  0  0  0  0  0  0
    3.6165   -1.3486   -4.7439 H   0  0  0  0  0  0  0  0  0  0  0  0
    4.7154   -3.8941   -3.5728 H   0  0  0  0  0  0  0  0  0  0  0  0
    5.4470   -2.9735   -4.8652 H   0  0  0  0  0  0  0  0  0  0  0  0
    5.3282   -2.2875   -3.2626 H   0  0  0  0  0  0  0  0  0  0  0  0
    1.8447   -2.8065   -5.6044 H   0  0  0  0  0  0  0  0  0  0  0  0
    3.4026   -3.2781   -6.2395 H   0  0  0  0  0  0  0  0  0  0  0  0
    2.6710   -4.1987   -4.9471 H   0  0  0  0  0  0  0  0  0  0  0  0
   -0.0532   -4.4561   -0.1628 H   0  0  0  0  0  0  0  0  0  0  0  0
    0.8254   -5.6405   -2.7865 H   0  0  0  0  0  0  0  0  0  0  0  0
   -0.3477   -6.3430   -1.6986 H   0  0  0  0  0  0  0  0  0  0  0  0
   -0.6948   -4.8287   -2.4984 H   0  0  0  0  0  0  0  0  0  0  0  0
    2.2296   -4.9868    0.5530 H   0  0  0  0  0  0  0  0  0  0  0  0
    1.3686   -6.4357    0.0921 H   0  0  0  0  0  0  0  0  0  0  0  0
    2.5417   -5.7333   -0.9958 H   0  0  0  0  0  0  0  0  0  0  0  0
    2.4034   -0.0154   -0.0661 H   0  0  0  0  0  0  0  0  0  0  0  0
  1  2  2  0  0  0  0
  1 45  1  0  0  0  0
  2  3  1  0  0  0  0
  2 46  1  0  0  0  0
  3  7  1  0  0  0  0
  3  4  2  0  0  0  0
  4  5  1  0  0  0  0
  4 47  1  0  0  0  0
  5  6  2  0  0  0  0
  5 10  1  0  0  0  0
  6  1  1  0  0  0  0
  6 48  1  0  0  0  0
  7  8  2  0  0  0  0
  7  9  1  0  0  0  0
  8 49  1  0  0  0  0
  9 50  1  0  0  0  0
  9 51  1  0  0  0  0
 10 52  1  0  0  0  0
 10 53  1  0  0  0  0
 11 16  1  0  0  0  0
 11 54  1  1  0  0  0
 11 12  1  0  0  0  0
 11 10  1  0  0  0  0
 12 13  1  0  0  0  0
 12 55  1  0  0  0  0
 13 29  1  0  0  0  0
 13 14  2  0  0  0  0
 13 15  2  0  0  0  0
 16 17  2  0  0  0  0
 16 18  1  0  0  0  0
 18 23  1  0  0  0  0
 18 19  1  0  0  0  0
 19 20  1  0  0  0  0
 19 56  1  0  0  0  0
 19 57  1  0  0  0  0
 20 21  1  0  0  0  0
 20 58  1  0  0  0  0
 20 59  1  0  0  0  0
 21 22  1  0  0  0  0
 21 24  1  0  0  0  0
 22 23  1  0  0  0  0
 22 60  1  0  0  0  0
 22 61  1  0  0  0  0
 23 62  1  0  0  0  0
 23 63  1  0  0  0  0
 24 25  2  0  0  0  0
 24 26  1  0  0  0  0
 26 27  1  0  0  0  0
 27 28  1  0  0  0  0
 27 64  1  0  0  0  0
 27 65  1  0  0  0  0
 28 66  1  0  0  0  0
 28 67  1  0  0  0  0
 28 68  1  0  0  0  0
 29 30  2  0  0  0  0
 30 31  1  0  0  0  0
 30 35  1  0  0  0  0
 31 32  2  0  0  0  0
 31 69  1  0  0  0  0
 32 33  1  0  0  0  0
 32 38  1  0  0  0  0
 33 34  2  0  0  0  0
 33 70  1  0  0  0  0
 34 29  1  0  0  0  0
 34 41  1  0  0  0  0
 35 36  1  0  0  0  0
 35 37  1  0  0  0  0
 35 71  1  0  0  0  0
 36 72  1  0  0  0  0
 36 73  1  0  0  0  0
 36 74  1  0  0  0  0
 37 75  1  0  0  0  0
 37 76  1  0  0  0  0
 37 77  1  0  0  0  0
 38 39  1  0  0  0  0
 38 40  1  0  0  0  0
 38 78  1  0  0  0  0
 39 79  1  0  0  0  0
 39 80  1  0  0  0  0
 39 81  1  0  0  0  0
 40 82  1  0  0  0  0
 40 83  1  0  0  0  0
 40 84  1  0  0  0  0
 41 42  1  0  0  0  0
 41 43  1  0  0  0  0
 41 85  1  0  0  0  0
 42 86  1  0  0  0  0
 42 87  1  0  0  0  0
 42 88  1  0  0  0  0
 43 89  1  0  0  0  0
 43 90  1  0  0  0  0
 43 91  1  0  0  0  0
 44 92  1  0  0  0  0
M  END
>  <DRUGBANK_ID>
DB05476

>  <COMMON_NAME>
WX-UK1

>  <CAS_NUMBER>
255374-84-6

>  <UNII>
UJ925Q0P3B

$$$$
