
 OpenBabel10282417223D

  8  7  0  0  0  0  0  0  0  0999 V2000
    0.8893    0.0743    0.0660 O   0  0  0  0  0  0  0  0  0  0  0  0
    0.3284    0.8798   -0.8607 C   0  0  0  0  0  0  0  0  0  0  0  0
    1.0273    1.5655   -1.5923 O   0  0  0  0  0  0  0  0  0  0  0  0
   -1.1765    0.8506   -0.8407 C   0  0  0  0  0  0  0  0  0  0  0  0
   -1.6799   -0.3956   -1.0686 F   0  0  0  0  0  0  0  0  0  0  0  0
    1.8566    0.1705   -0.0590 H   0  0  0  0  0  0  0  0  0  0  0  0
   -1.5377    1.1998    0.1307 H   0  0  0  0  0  0  0  0  0  0  0  0
   -1.5625    1.5168   -1.6171 H   0  0  0  0  0  0  0  0  0  0  0  0
  1  2  1  0  0  0  0
  1  6  1  0  0  0  0
  2  3  2  0  0  0  0
  2  4  1  0  0  0  0
  4  5  1  0  0  0  0
  4  7  1  0  0  0  0
  4  8  1  0  0  0  0
M  ISO  1   5  18
M  END
>  <DRUGBANK_ID>
DB15202

>  <COMMON_NAME>
Fluoroacetic acid F-18

>  <CAS_NUMBER>
7574-44-9

>  <UNII>
74Q3U8O789

>  <SYNONYMS>
18F-FLUOROACETATE

$$$$
