
 OpenBabel10282417153D

 40 41  0  0  0  0  0  0  0  0999 V2000
   -1.3145   -0.9252   -1.0143 Cl  0  0  0  0  0  0  0  0  0  0  0  0
    6.3088   -1.1440    0.0527 S   0  0  0  0  0  0  0  0  0  0  0  0
   -0.3509    2.3037   -0.3433 O   0  0  0  0  0  0  0  0  0  0  0  0
    2.6339   -4.2747   -0.6372 O   0  0  0  0  0  0  0  0  0  0  0  0
    3.8791   -0.0548    0.0995 N   0  0  0  0  0  0  0  0  0  0  0  0
    2.4954    0.0665    0.3373 C   0  0  0  0  0  0  0  0  0  0  0  0
    4.0740   -2.5899   -0.1276 C   0  0  0  0  0  0  0  0  0  0  0  0
    0.3234    1.1362   -0.0501 C   0  0  0  0  0  0  0  0  0  0  0  0
    1.7316    1.2315    0.0779 C   0  0  0  0  0  0  0  0  0  0  0  0
    3.0746   -3.0319   -1.0025 C   0  0  0  0  0  0  0  0  0  0  0  0
    4.6397   -1.2319   -0.0028 C   0  0  0  0  0  0  0  0  0  0  0  0
    1.8132   -1.0504    0.7914 C   0  0  0  0  0  0  0  0  0  0  0  0
   -1.7777    2.4001   -0.0933 C   0  0  0  0  0  0  0  0  0  0  0  0
   -0.2124   -0.1585    0.0245 C   0  0  0  0  0  0  0  0  0  0  0  0
    0.4971   -1.1986    0.5848 C   0  0  0  0  0  0  0  0  0  0  0  0
    4.2734   -3.7028    0.7725 C   0  0  0  0  0  0  0  0  0  0  0  0
   -2.5615    1.8059   -1.2331 C   0  0  0  0  0  0  0  0  0  0  0  0
   -3.4965    0.8297   -1.1314 C   0  0  0  0  0  0  0  0  0  0  0  0
    2.2629   -2.3850   -2.0656 C   0  0  0  0  0  0  0  0  0  0  0  0
    3.3494   -4.6663    0.4432 C   0  0  0  0  0  0  0  0  0  0  0  0
   -3.8372   -0.0014   -2.3682 C   0  0  0  0  0  0  0  0  0  0  0  0
   -3.9317    0.2603    0.2101 C   0  0  0  0  0  0  0  0  0  0  0  0
    4.4159    0.8035    0.0025 H   0  0  0  0  0  0  0  0  0  0  0  0
    2.2248    2.1882   -0.1007 H   0  0  0  0  0  0  0  0  0  0  0  0
    2.2981   -1.9575    1.1130 H   0  0  0  0  0  0  0  0  0  0  0  0
   -2.0332    1.9927    0.8908 H   0  0  0  0  0  0  0  0  0  0  0  0
   -2.0353    3.4686   -0.0491 H   0  0  0  0  0  0  0  0  0  0  0  0
    0.1043   -2.2200    0.5531 H   0  0  0  0  0  0  0  0  0  0  0  0
    4.9292   -3.7426    1.6320 H   0  0  0  0  0  0  0  0  0  0  0  0
   -2.1808    2.0831   -2.2163 H   0  0  0  0  0  0  0  0  0  0  0  0
    2.3487   -2.9014   -3.0226 H   0  0  0  0  0  0  0  0  0  0  0  0
    1.2022   -2.4061   -1.7918 H   0  0  0  0  0  0  0  0  0  0  0  0
    2.5473   -1.3393   -2.2025 H   0  0  0  0  0  0  0  0  0  0  0  0
    3.0661   -5.6170    0.8789 H   0  0  0  0  0  0  0  0  0  0  0  0
   -3.4528   -1.0286   -2.2884 H   0  0  0  0  0  0  0  0  0  0  0  0
   -4.9089   -0.1049   -2.5159 H   0  0  0  0  0  0  0  0  0  0  0  0
   -3.3709    0.4017   -3.2761 H   0  0  0  0  0  0  0  0  0  0  0  0
   -3.0845    0.0440    0.8761 H   0  0  0  0  0  0  0  0  0  0  0  0
   -4.5792    0.9576    0.7446 H   0  0  0  0  0  0  0  0  0  0  0  0
   -4.4504   -0.6959    0.0872 H   0  0  0  0  0  0  0  0  0  0  0  0
  1 14  1  0  0  0  0
  2 11  2  0  0  0  0
  3  8  1  0  0  0  0
  3 13  1  0  0  0  0
  4 10  1  0  0  0  0
  4 20  1  0  0  0  0
  5  6  1  0  0  0  0
  5 11  1  0  0  0  0
  5 23  1  0  0  0  0
  6  9  2  0  0  0  0
  6 12  1  0  0  0  0
  7 10  2  0  0  0  0
  7 11  1  0  0  0  0
  7 16  1  0  0  0  0
  8  9  1  0  0  0  0
  8 14  2  0  0  0  0
  9 24  1  0  0  0  0
 10 19  1  0  0  0  0
 12 15  2  0  0  0  0
 12 25  1  0  0  0  0
 13 17  1  0  0  0  0
 13 26  1  0  0  0  0
 13 27  1  0  0  0  0
 14 15  1  0  0  0  0
 15 28  1  0  0  0  0
 16 20  2  0  0  0  0
 16 29  1  0  0  0  0
 17 18  2  0  0  0  0
 17 30  1  0  0  0  0
 18 21  1  0  0  0  0
 18 22  1  0  0  0  0
 19 31  1  0  0  0  0
 19 32  1  0  0  0  0
 19 33  1  0  0  0  0
 20 34  1  0  0  0  0
 21 35  1  0  0  0  0
 21 36  1  0  0  0  0
 21 37  1  0  0  0  0
 22 38  1  0  0  0  0
 22 39  1  0  0  0  0
 22 40  1  0  0  0  0
M  END
>  <DRUGBANK_ID>
DB05871

>  <SECONDARY_ACCESSION_NUMBERS>
DB08679

>  <COMMON_NAME>
UC-781

>  <CAS_NUMBER>
178870-32-1

>  <UNII>
L7K247H29H

$$$$
