
 OpenBabel10282417143D

335344  0  0  1  0  0  0  0  0999 V2000
   24.1293  -39.5077  -11.5724 C   0  0  0  0  0  0  0  0  0  0  0  0
   23.2958  -40.7577  -11.7977 C   0  0  0  0  0  0  0  0  0  0  0  0
   24.1736  -41.8549  -12.3751 C   0  0  0  0  0  0  0  0  0  0  0  0
   22.7089  -41.2200  -10.4751 C   0  0  0  0  0  0  0  0  0  0  0  0
   21.8381  -40.1248   -9.9000 C   0  0  0  0  0  0  0  0  0  0  0  0
   20.7327  -40.5382   -9.6125 C   0  0  0  0  0  0  0  0  0  0  0  0
   19.9140  -41.7227   -9.9858 C   0  0  0  0  0  0  0  0  0  0  0  0
   18.5954  -41.9549   -9.7557 C   0  0  0  0  0  0  0  0  0  0  0  0
   17.7151  -40.8570   -9.1785 C   0  0  0  0  0  0  0  0  0  0  0  0
   16.4849  -41.0784   -8.9634 O   0  0  0  0  0  0  0  0  0  0  0  0
   18.4811  -39.2383   -8.9967 N   0  0  0  0  0  0  0  0  0  0  0  0
   20.4081  -35.9576  -10.4053 C   0  0  2  0  0  0  0  0  0  0  0  0
   20.4430  -39.0343   -7.9313 C   0  0  0  0  0  0  0  0  0  0  0  0
   20.9810  -37.7949   -7.8104 C   0  0  0  0  0  0  0  0  0  0  0  0
   20.6752  -36.8792   -6.7077 N   0  0  0  0  0  0  0  0  0  0  0  0
   21.6803  -37.4003   -8.7915 O   0  0  0  0  0  0  0  0  0  0  0  0
   21.8098  -30.8558  -12.5418 C   0  0  0  0  0  0  0  0  0  0  0  0
   21.0247  -34.3653  -11.6056 O   0  0  0  0  0  0  0  0  0  0  0  0
   23.3254  -25.1889  -14.6103 N   0  0  0  0  0  0  0  0  0  0  0  0
   25.1218  -19.0601  -17.1912 C   0  0  1  0  0  0  0  0  0  0  0  0
   27.8863  -11.1974  -21.1803 C   0  0  1  0  0  0  0  0  0  0  0  0
   29.4499   -6.2146  -23.9548 O   0  0  0  0  0  0  0  0  0  0  0  0
   30.5311   -1.3030  -26.4937 C   0  0  0  0  0  0  0  0  0  0  0  0
   30.9412    1.8278  -28.2846 O   0  0  0  0  0  0  0  0  0  0  0  0
   32.3639    2.7816  -28.1561 C   0  0  2  0  0  0  0  0  0  0  0  0
   32.5278    3.8176  -27.2432 N   0  0  0  0  0  0  0  0  0  0  0  0
   32.1964    2.4953  -26.6748 C   0  0  0  0  0  0  0  0  0  0  0  0
   32.1119    0.4505  -26.8913 O   0  0  0  0  0  0  0  0  0  0  0  0
   31.5200    2.3939  -25.3390 C   0  0  2  0  0  0  0  0  0  0  0  0
   32.4017    1.6053  -24.3856 C   0  0  0  0  0  0  0  0  0  0  0  0
   30.2273    1.7089  -25.4926 N   0  0  0  0  0  0  0  0  0  0  0  0
   29.9704    0.4571  -24.7682 C   0  0  0  0  0  0  0  0  0  0  0  0
   30.8475   -0.0460  -24.0092 O   0  0  0  0  0  0  0  0  0  0  0  0
   28.6317   -0.2493  -24.9250 C   0  0  2  0  0  0  0  0  0  0  0  0
   27.9498   -0.3476  -23.5708 C   0  0  0  0  0  0  0  0  0  0  0  0
   28.7353    0.5051  -22.5898 C   0  0  0  0  0  0  0  0  0  0  0  0
   28.7624    1.9435  -23.0790 C   0  0  0  0  0  0  0  0  0  0  0  0
   28.0761    0.4466  -21.2236 C   0  0  0  0  0  0  0  0  0  0  0  0
   28.8498   -1.5998  -25.4638 N   0  0  0  0  0  0  0  0  0  0  0  0
   28.4206   -2.7742  -24.6952 C   0  0  0  0  0  0  0  0  0  0  0  0
   27.8614   -2.6395  -23.5703 O   0  0  0  0  0  0  0  0  0  0  0  0
   28.6360   -4.1699  -25.2584 C   0  0  0  0  0  0  0  0  0  0  0  0
   28.8092   -5.1930  -23.8653 N   0  0  0  0  0  0  0  0  0  0  0  0
   28.6990   -6.2348  -23.6357 C   0  0  0  0  0  0  0  0  0  0  0  0
   27.8274   -6.5957  -24.0043 O   0  0  0  0  0  0  0  0  0  0  0  0
   29.9533   -6.9622  -22.6900 C   0  0  1  0  0  0  0  0  0  0  0  0
   29.2221   -7.0664  -21.4606 N   0  0  0  0  0  0  0  0  0  0  0  0
   28.8931   -8.3756  -20.8923 C   0  0  0  0  0  0  0  0  0  0  0  0
   29.3544   -9.4995  -21.1330 O   0  0  0  0  0  0  0  0  0  0  0  0
   28.2079   -8.4827  -19.5488 C   0  0  2  0  0  0  0  0  0  0  0  0
   26.9158   -9.1696  -19.7005 N   0  0  0  0  0  0  0  0  0  0  0  0
   26.6597  -10.4195  -18.9756 C   0  0  0  0  0  0  0  0  0  0  0  0
   27.5497  -10.9114  -18.2194 O   0  0  0  0  0  0  0  0  0  0  0  0
   25.3211  -11.1273  -19.1338 C   0  0  1  0  0  0  0  0  0  0  0  0
   25.5407  -12.4777  -19.6733 N   0  0  0  0  0  0  0  0  0  0  0  0
   25.1106  -13.6580  -18.9166 C   0  0  0  0  0  0  0  0  0  0  0  0
   24.2535  -13.7091  -17.9337 O   0  0  0  0  0  0  0  0  0  0  0  0
   25.3407  -15.0491  -19.4637 C   0  0  1  0  0  0  0  0  0  0  0  0
   26.0220  -14.9497  -20.8172 C   0  0  0  0  0  0  0  0  0  0  0  0
   26.2487  -16.3441  -21.3754 C   0  0  0  0  0  0  0  0  0  0  0  0
   24.9129  -17.0506  -21.5338 C   0  0  0  0  0  0  0  0  0  0  0  0
   24.0610  -16.2876  -22.4559 N   0  0  0  0  0  0  0  0  0  0  0  0
   26.1907  -15.8147  -18.5394 N   0  0  0  0  0  0  0  0  0  0  0  0
   25.6894  -17.0548  -17.9385 C   0  0  0  0  0  0  0  0  0  0  0  0
   24.5229  -17.4696  -18.2126 O   0  0  0  0  0  0  0  0  0  0  0  0
   26.5743  -17.8436  -16.9816 C   0  0  1  0  0  0  0  0  0  0  0  0
   27.9081  -17.1409  -16.8239 C   0  0  0  0  0  0  0  0  0  0  0  0
   28.7878  -17.9276  -15.8702 C   0  0  0  0  0  0  0  0  0  0  0  0
   29.7689  -18.6686  -16.3821 C   0  0  0  0  0  0  0  0  0  0  0  0
   30.7623  -19.1665  -15.5748 C   0  0  0  0  0  0  0  0  0  0  0  0
   30.7223  -18.9932  -14.2200 C   0  0  0  0  0  0  0  0  0  0  0  0
   29.7754  -18.1909  -13.7565 C   0  0  0  0  0  0  0  0  0  0  0  0
   28.6534  -17.7671  -14.5021 C   0  0  0  0  0  0  0  0  0  0  0  0
   25.9110  -17.9444  -15.6708 N   0  0  0  0  0  0  0  0  0  0  0  0
   25.5835  -19.2611  -15.1116 C   0  0  0  0  0  0  0  0  0  0  0  0
   25.8710  -20.3171  -15.7562 O   0  0  0  0  0  0  0  0  0  0  0  0
   24.8983  -19.3623  -13.7581 C   0  0  1  0  0  0  0  0  0  0  0  0
   23.6061  -20.0469  -13.9100 N   0  0  0  0  0  0  0  0  0  0  0  0
   23.3476  -21.2982  -13.1854 C   0  0  0  0  0  0  0  0  0  0  0  0
   24.2250  -21.8017  -12.4273 O   0  0  0  0  0  0  0  0  0  0  0  0
   22.0100  -22.0044  -13.3447 C   0  0  2  0  0  0  0  0  0  0  0  0
   22.2249  -23.3466  -13.8809 N   0  0  0  0  0  0  0  0  0  0  0  0
   21.7310  -24.4728  -13.0910 C   0  0  0  0  0  0  0  0  0  0  0  0
   21.2396  -24.3824  -11.9849 O   0  0  0  0  0  0  0  0  0  0  0  0
   21.7946  -25.5588  -13.7935 C   0  0  2  0  0  0  0  0  0  0  0  0
   22.9438  -26.7806  -12.6594 N   0  0  0  0  0  0  0  0  0  0  0  0
   22.7493  -28.6395  -11.1811 C   0  0  0  0  0  0  0  0  0  0  0  0
   21.2480  -28.3845  -12.4218 O   0  0  0  0  0  0  0  0  0  0  0  0
   23.4061  -28.7349  -11.2158 C   0  0  2  0  0  0  0  0  0  0  0  0
   22.6051  -28.8234   -9.8779 N   0  0  0  0  0  0  0  0  0  0  0  0
   22.2724  -30.1412   -9.3220 C   0  0  0  0  0  0  0  0  0  0  0  0
   22.5563  -31.1944   -9.9685 O   0  0  0  0  0  0  0  0  0  0  0  0
   21.5869  -30.2397   -7.9680 C   0  0  1  0  0  0  0  0  0  0  0  0
   21.3595  -28.8457   -7.4093 C   0  0  0  0  0  0  0  0  0  0  0  0
   20.6780  -28.9458   -6.0555 C   0  0  0  0  0  0  0  0  0  0  0  0
   21.5586  -29.7346   -5.1012 C   0  0  0  0  0  0  0  0  0  0  0  0
   22.8506  -29.0520   -4.9484 N   0  0  0  0  0  0  0  0  0  0  0  0
   20.2984  -30.9221   -8.1114 N   0  0  0  0  0  0  0  0  0  0  0  0
   20.0427  -32.1732   -7.3905 C   0  0  0  0  0  0  0  0  0  0  0  0
   20.9269  -32.6679   -6.6381 O   0  0  0  0  0  0  0  0  0  0  0  0
   19.1424  -32.0410   -8.2696 C   0  0  2  0  0  0  0  0  0  0  0  0
   21.0184  -28.9814  -11.1089 N   0  0  0  0  0  0  0  0  0  0  0  0
   22.9208  -24.4087  -13.8296 C   0  0  0  0  0  0  0  0  0  0  0  0
   21.6593  -27.2533  -11.8964 O   0  0  0  0  0  0  0  0  0  0  0  0
   17.8136  -32.0937   -8.5085 C   0  0  0  0  0  0  0  0  0  0  0  0
   17.6663  -30.7734   -8.4495 C   0  0  0  0  0  0  0  0  0  0  0  0
   16.9017  -30.1164   -9.3814 C   0  0  0  0  0  0  0  0  0  0  0  0
   16.2033  -30.8050  -10.3330 C   0  0  0  0  0  0  0  0  0  0  0  0
   15.2796  -30.1645  -11.1958 O   0  0  0  0  0  0  0  0  0  0  0  0
   16.4362  -32.1084  -10.4049 C   0  0  0  0  0  0  0  0  0  0  0  0
   17.0915  -32.8589   -9.4036 C   0  0  0  0  0  0  0  0  0  0  0  0
   24.5981  -28.0181  -11.0338 C   0  0  1  0  0  0  0  0  0  0  0  0
   25.4786  -28.8068  -10.0801 C   0  0  0  0  0  0  0  0  0  0  0  0
   25.2365  -27.9242  -12.2994 O   0  0  0  0  0  0  0  0  0  0  0  0
   22.6201  -25.8292  -15.2565 C   0  0  0  0  0  0  0  0  0  0  0  0
   24.0547  -25.9912  -15.1864 C   0  0  0  0  0  0  0  0  0  0  0  0
   24.5840  -26.1714  -16.4010 C   0  0  0  0  0  0  0  0  0  0  0  0
   23.8209  -26.1202  -17.5336 C   0  0  0  0  0  0  0  0  0  0  0  0
   24.3972  -26.1489  -18.8278 O   0  0  0  0  0  0  0  0  0  0  0  0
   22.5092  -26.0410  -17.3560 C   0  0  0  0  0  0  0  0  0  0  0  0
   21.8858  -25.7023  -16.1371 C   0  0  0  0  0  0  0  0  0  0  0  0
   21.1288  -21.2184  -14.2973 C   0  0  0  0  0  0  0  0  0  0  0  0
   20.9780  -19.8956  -14.2400 C   0  0  0  0  0  0  0  0  0  0  0  0
   20.2127  -19.2383  -15.1721 C   0  0  0  0  0  0  0  0  0  0  0  0
   19.5141  -19.9270  -16.1236 C   0  0  0  0  0  0  0  0  0  0  0  0
   18.5906  -19.2864  -16.9865 O   0  0  0  0  0  0  0  0  0  0  0  0
   19.7471  -21.2303  -16.1955 C   0  0  0  0  0  0  0  0  0  0  0  0
   20.4022  -21.9805  -15.1947 C   0  0  0  0  0  0  0  0  0  0  0  0
   25.7803  -20.1513  -12.8030 C   0  0  2  0  0  0  0  0  0  0  0  0
   26.1684  -19.3551  -11.5707 C   0  0  0  0  0  0  0  0  0  0  0  0
   26.9498  -20.6449  -13.4380 O   0  0  0  0  0  0  0  0  0  0  0  0
   24.6392  -11.2278  -17.7817 C   0  0  0  0  0  0  0  0  0  0  0  0
   24.3419  -10.1372  -17.1040 C   0  0  0  0  0  0  0  0  0  0  0  0
   23.6204  -10.2056  -15.9382 C   0  0  0  0  0  0  0  0  0  0  0  0
   23.2724  -11.4015  -15.3916 C   0  0  0  0  0  0  0  0  0  0  0  0
   22.6792  -11.5047  -14.1092 O   0  0  0  0  0  0  0  0  0  0  0  0
   22.4296  -10.3311  -13.3475 C   0  0  2  0  0  0  0  0  0  0  0  0
   21.5453   -9.4799  -14.0622 O   0  0  0  0  0  0  0  0  0  0  0  0
   21.1370   -8.3351  -13.2938 C   0  0  2  0  0  0  0  0  0  0  0  0
   20.1958   -7.4812  -14.1271 C   0  0  0  0  0  0  0  0  0  0  0  0
   18.9715   -7.3571  -13.4184 O   0  0  0  0  0  0  0  0  0  0  0  0
   22.3347   -7.5101  -12.8799 C   0  0  1  0  0  0  0  0  0  0  0  0
   21.9289   -6.5642  -11.8813 O   0  0  0  0  0  0  0  0  0  0  0  0
   23.4253   -8.3657  -12.2659 C   0  0  2  0  0  0  0  0  0  0  0  0
   24.6189   -7.6211  -12.0683 O   0  0  0  0  0  0  0  0  0  0  0  0
   23.7354   -9.5993  -13.0993 C   0  0  2  0  0  0  0  0  0  0  0  0
   24.3200   -9.2110  -14.3315 O   0  0  0  0  0  0  0  0  0  0  0  0
   23.3691   -8.3445  -14.9885 C   0  0  1  0  0  0  0  0  0  0  0  0
   23.2084   -7.3397  -14.3653 O   0  0  0  0  0  0  0  0  0  0  0  0
   24.2664   -6.5248  -13.8670 C   0  0  2  0  0  0  0  0  0  0  0  0
   23.8818   -5.3406  -12.9968 C   0  0  0  0  0  0  0  0  0  0  0  0
   22.5466   -5.4348  -12.5676 O   0  0  0  0  0  0  0  0  0  0  0  0
   24.9746   -6.0372  -15.1071 C   0  0  1  0  0  0  0  0  0  0  0  0
   26.2888   -5.5639  -14.7472 O   0  0  0  0  0  0  0  0  0  0  0  0
   25.1672   -7.1544  -16.1144 C   0  0  2  0  0  0  0  0  0  0  0  0
   25.6282   -6.6318  -17.3509 O   0  0  0  0  0  0  0  0  0  0  0  0
   23.8882   -7.9330  -16.3585 C   0  0  2  0  0  0  0  0  0  0  0  0
   22.9276   -7.1104  -16.9946 O   0  0  0  0  0  0  0  0  0  0  0  0
   23.5216  -12.4713  -16.1306 C   0  0  0  0  0  0  0  0  0  0  0  0
   24.3746  -12.4411  -17.2355 C   0  0  0  0  0  0  0  0  0  0  0  0
   27.9822   -7.0894  -18.9902 C   0  0  1  0  0  0  0  0  0  0  0  0
   27.3060   -7.1914  -17.6388 C   0  0  0  0  0  0  0  0  0  0  0  0
   29.2310   -6.4288  -18.8430 O   0  0  0  0  0  0  0  0  0  0  0  0
   30.1204   -8.3694  -23.3334 C   0  0  0  0  0  0  0  0  0  0  0  0
   30.6996   -8.4996  -24.5153 C   0  0  0  0  0  0  0  0  0  0  0  0
   31.0861   -9.7389  -24.9645 C   0  0  0  0  0  0  0  0  0  0  0  0
   30.7971  -10.8693  -24.2529 C   0  0  0  0  0  0  0  0  0  0  0  0
   31.0373  -12.1653  -24.7735 O   0  0  0  0  0  0  0  0  0  0  0  0
   30.2783  -10.6887  -23.0477 C   0  0  0  0  0  0  0  0  0  0  0  0
   29.7516   -9.4726  -22.6249 C   0  0  0  0  0  0  0  0  0  0  0  0
   34.5468    4.2393  -27.9143 C   0  0  0  0  0  0  0  0  0  0  0  0
   35.1512    4.5653  -27.2207 C   0  0  0  0  0  0  0  0  0  0  0  0
   36.4265    5.0480  -27.0891 C   0  0  0  0  0  0  0  0  0  0  0  0
   37.2687    4.8571  -25.5352 Cl  0  0  0  0  0  0  0  0  0  0  0  0
   37.0623    5.6718  -28.1261 C   0  0  0  0  0  0  0  0  0  0  0  0
   38.3099    6.3221  -27.9594 O   0  0  0  0  0  0  0  0  0  0  0  0
   36.4559    5.6312  -29.3011 C   0  0  0  0  0  0  0  0  0  0  0  0
   35.1895    5.1578  -29.5906 C   0  0  0  0  0  0  0  0  0  0  0  0
   30.2942   -4.9022  -24.2498 C   0  0  0  0  0  0  0  0  0  0  0  0
   32.8657    0.5923  -26.6500 N   0  0  0  0  0  0  0  0  0  0  0  0
   31.2441   -1.6580  -25.8081 O   0  0  0  0  0  0  0  0  0  0  0  0
   24.9229  -39.7262  -10.8873 H   0  0  0  0  0  0  0  0  0  0  0  0
   23.5110  -38.7338  -11.1658 H   0  0  0  0  0  0  0  0  0  0  0  0
   24.5428  -39.1805  -12.5040 H   0  0  0  0  0  0  0  0  0  0  0  0
   22.5021  -40.5383  -12.4829 H   0  0  0  0  0  0  0  0  0  0  0  0
   24.9673  -42.0747  -11.6906 H   0  0  0  0  0  0  0  0  0  0  0  0
   23.5865  -42.7361  -12.5345 H   0  0  0  0  0  0  0  0  0  0  0  0
   24.5873  -41.5289  -13.3073 H   0  0  0  0  0  0  0  0  0  0  0  0
   22.1224  -42.1020  -10.6342 H   0  0  0  0  0  0  0  0  0  0  0  0
   23.5018  -41.4406   -9.7899 H   0  0  0  0  0  0  0  0  0  0  0  0
   22.2498  -39.1653   -9.6728 H   0  0  0  0  0  0  0  0  0  0  0  0
   20.0055  -39.7115   -9.1452 H   0  0  0  0  0  0  0  0  0  0  0  0
   20.5319  -42.4941  -10.3929 H   0  0  0  0  0  0  0  0  0  0  0  0
   18.1745  -42.9148   -9.9808 H   0  0  0  0  0  0  0  0  0  0  0  0
   17.7020  -38.8059   -8.4825 H   0  0  0  0  0  0  0  0  0  0  0  0
   19.9484  -39.5836  -10.0098 H   0  0  0  0  0  0  0  0  0  0  0  0
   19.8875  -39.3742   -6.8840 H   0  0  0  0  0  0  0  0  0  0  0  0
   21.2772  -39.9062   -7.8023 H   0  0  0  0  0  0  0  0  0  0  0  0
   21.0275  -35.9206   -6.7278 H   0  0  0  0  0  0  0  0  0  0  0  0
   20.1123  -37.1957   -5.9178 H   0  0  0  0  0  0  0  0  0  0  0  0
   22.0281  -28.6864  -12.9586 H   0  0  0  0  0  0  0  0  0  0  0  0
   23.7899  -22.2295  -15.7428 H   0  0  0  0  0  0  0  0  0  0  0  0
   28.9961   -8.0907  -22.8108 H   0  0  0  0  0  0  0  0  0  0  0  0
   33.3488    2.9163  -28.9736 H   0  0  0  0  0  0  0  0  0  0  0  0
   32.3041    4.6595  -26.7344 H   0  0  0  0  0  0  0  0  0  0  0  0
   31.3598    3.3766  -24.9465 H   0  0  0  0  0  0  0  0  0  0  0  0
   33.2846    1.2328  -24.8625 H   0  0  0  0  0  0  0  0  0  0  0  0
   32.6751    2.1654  -23.5157 H   0  0  0  0  0  0  0  0  0  0  0  0
   31.7932    0.7935  -24.0980 H   0  0  0  0  0  0  0  0  0  0  0  0
   29.5110    2.1051  -26.1006 H   0  0  0  0  0  0  0  0  0  0  0  0
   28.0113    0.3073  -25.5972 H   0  0  0  0  0  0  0  0  0  0  0  0
   26.9471    0.0213  -23.6424 H   0  0  0  0  0  0  0  0  0  0  0  0
   27.9309   -1.3510  -23.2224 H   0  0  0  0  0  0  0  0  0  0  0  0
   29.7377    0.1340  -22.5178 H   0  0  0  0  0  0  0  0  0  0  0  0
   27.7610    2.3146  -23.1517 H   0  0  0  0  0  0  0  0  0  0  0  0
   29.3174    2.5454  -22.3898 H   0  0  0  0  0  0  0  0  0  0  0  0
   29.2263    1.9866  -24.0407 H   0  0  0  0  0  0  0  0  0  0  0  0
   28.0573   -0.5667  -20.8783 H   0  0  0  0  0  0  0  0  0  0  0  0
   28.6304    1.0482  -20.5327 H   0  0  0  0  0  0  0  0  0  0  0  0
   27.0739    0.8174  -21.2946 H   0  0  0  0  0  0  0  0  0  0  0  0
   29.3006   -1.7185  -26.3712 H   0  0  0  0  0  0  0  0  0  0  0  0
   29.1306   -4.1013  -26.2085 H   0  0  0  0  0  0  0  0  0  0  0  0
   27.7081   -4.6686  -25.3658 H   0  0  0  0  0  0  0  0  0  0  0  0
   30.6536   -4.7827  -23.7197 H   0  0  0  0  0  0  0  0  0  0  0  0
   30.8256   -6.4699  -22.6611 H   0  0  0  0  0  0  0  0  0  0  0  0
   28.9936   -6.2184  -20.9435 H   0  0  0  0  0  0  0  0  0  0  0  0
   28.8300   -9.0405  -18.8767 H   0  0  0  0  0  0  0  0  0  0  0  0
   26.2000   -8.7730  -20.3099 H   0  0  0  0  0  0  0  0  0  0  0  0
   24.7004  -10.5708  -19.8066 H   0  0  0  0  0  0  0  0  0  0  0  0
   25.9913  -12.5957  -20.5807 H   0  0  0  0  0  0  0  0  0  0  0  0
   24.3977  -15.5467  -19.5742 H   0  0  0  0  0  0  0  0  0  0  0  0
   25.4017  -14.3924  -21.4897 H   0  0  0  0  0  0  0  0  0  0  0  0
   26.9634  -14.4512  -20.7066 H   0  0  0  0  0  0  0  0  0  0  0  0
   26.7304  -16.2735  -22.3292 H   0  0  0  0  0  0  0  0  0  0  0  0
   26.8701  -16.9007  -20.7034 H   0  0  0  0  0  0  0  0  0  0  0  0
   25.0730  -18.0339  -21.9259 H   0  0  0  0  0  0  0  0  0  0  0  0
   24.4318  -17.1224  -20.5797 H   0  0  0  0  0  0  0  0  0  0  0  0
   23.1639  -16.7614  -22.5617 H   0  0  0  0  0  0  0  0  0  0  0  0
   23.9077  -15.3511  -22.0819 H   0  0  0  0  0  0  0  0  0  0  0  0
   27.1293  -15.4802  -18.3193 H   0  0  0  0  0  0  0  0  0  0  0  0
   26.7335  -18.8289  -17.3756 H   0  0  0  0  0  0  0  0  0  0  0  0
   28.3895  -17.0685  -17.7785 H   0  0  0  0  0  0  0  0  0  0  0  0
   27.7485  -16.1565  -16.4318 H   0  0  0  0  0  0  0  0  0  0  0  0
   29.7818  -18.8768  -17.4311 H   0  0  0  0  0  0  0  0  0  0  0  0
   31.5807  -19.6981  -16.0140 H   0  0  0  0  0  0  0  0  0  0  0  0
   31.4171  -19.4786  -13.5671 H   0  0  0  0  0  0  0  0  0  0  0  0
   29.8702  -17.8417  -12.7504 H   0  0  0  0  0  0  0  0  0  0  0  0
   27.7740  -17.3555  -14.0481 H   0  0  0  0  0  0  0  0  0  0  0  0
   25.6826  -17.0966  -15.1528 H   0  0  0  0  0  0  0  0  0  0  0  0
   24.7379  -18.3796  -13.3654 H   0  0  0  0  0  0  0  0  0  0  0  0
   22.8901  -19.6511  -14.5196 H   0  0  0  0  0  0  0  0  0  0  0  0
   21.5291  -22.0756  -12.3898 H   0  0  0  0  0  0  0  0  0  0  0  0
   22.6457  -23.4522  -14.7752 H   0  0  0  0  0  0  0  0  0  0  0  0
   21.0815  -26.4228  -13.7852 H   0  0  0  0  0  0  0  0  0  0  0  0
   23.8200  -26.3586  -12.5285 H   0  0  0  0  0  0  0  0  0  0  0  0
   23.4226  -29.7075  -11.5850 H   0  0  0  0  0  0  0  0  0  0  0  0
   22.3713  -27.9744   -9.3620 H   0  0  0  0  0  0  0  0  0  0  0  0
   22.2083  -30.7968   -7.2959 H   0  0  0  0  0  0  0  0  0  0  0  0
   22.3012  -28.3471   -7.2988 H   0  0  0  0  0  0  0  0  0  0  0  0
   20.7394  -28.2887   -8.0817 H   0  0  0  0  0  0  0  0  0  0  0  0
   20.5169  -27.9628   -5.6626 H   0  0  0  0  0  0  0  0  0  0  0  0
   19.7358  -29.4432   -6.1663 H   0  0  0  0  0  0  0  0  0  0  0  0
   21.0774  -29.8063   -4.1474 H   0  0  0  0  0  0  0  0  0  0  0  0
   21.7185  -30.7182   -5.4934 H   0  0  0  0  0  0  0  0  0  0  0  0
   23.4421  -29.5819   -4.3085 H   0  0  0  0  0  0  0  0  0  0  0  0
   23.3094  -28.9846   -5.8570 H   0  0  0  0  0  0  0  0  0  0  0  0
   19.5794  -30.5286   -8.7291 H   0  0  0  0  0  0  0  0  0  0  0  0
   18.2208  -32.9491   -6.6024 H   0  0  0  0  0  0  0  0  0  0  0  0
   19.8981  -32.5253   -9.6569 H   0  0  0  0  0  0  0  0  0  0  0  0
   18.1480  -30.2199   -7.6702 H   0  0  0  0  0  0  0  0  0  0  0  0
   16.8515  -29.0479   -9.3621 H   0  0  0  0  0  0  0  0  0  0  0  0
   15.1243  -29.1804  -11.1177 H   0  0  0  0  0  0  0  0  0  0  0  0
   16.1054  -32.6231  -11.2814 H   0  0  0  0  0  0  0  0  0  0  0  0
   17.0322  -33.9275   -9.3437 H   0  0  0  0  0  0  0  0  0  0  0  0
   24.4377  -27.0345  -10.6411 H   0  0  0  0  0  0  0  0  0  0  0  0
   25.6391  -29.7903  -10.4725 H   0  0  0  0  0  0  0  0  0  0  0  0
   26.4200  -28.3097   -9.9687 H   0  0  0  0  0  0  0  0  0  0  0  0
   24.9980  -28.8783   -9.1258 H   0  0  0  0  0  0  0  0  0  0  0  0
   25.3849  -28.8409  -12.6659 H   0  0  0  0  0  0  0  0  0  0  0  0
   24.6531  -25.9525  -14.2936 H   0  0  0  0  0  0  0  0  0  0  0  0
   25.6328  -26.3643  -16.4809 H   0  0  0  0  0  0  0  0  0  0  0  0
   25.3894  -26.2083  -18.9303 H   0  0  0  0  0  0  0  0  0  0  0  0
   21.8822  -26.2491  -18.1962 H   0  0  0  0  0  0  0  0  0  0  0  0
   20.8683  -25.3782  -16.0682 H   0  0  0  0  0  0  0  0  0  0  0  0
   21.4589  -19.3420  -13.4607 H   0  0  0  0  0  0  0  0  0  0  0  0
   20.1623  -18.1698  -15.1527 H   0  0  0  0  0  0  0  0  0  0  0  0
   18.4351  -18.3024  -16.9083 H   0  0  0  0  0  0  0  0  0  0  0  0
   19.4163  -21.7451  -17.0720 H   0  0  0  0  0  0  0  0  0  0  0  0
   20.3428  -23.0494  -15.1345 H   0  0  0  0  0  0  0  0  0  0  0  0
   25.1714  -20.9628  -12.5168 H   0  0  0  0  0  0  0  0  0  0  0  0
   26.6464  -19.8662  -10.7593 H   0  0  0  0  0  0  0  0  0  0  0  0
   26.8885  -18.7547  -12.0864 H   0  0  0  0  0  0  0  0  0  0  0  0
   25.3903  -18.7275  -11.1862 H   0  0  0  0  0  0  0  0  0  0  0  0
   26.4452  -20.9615  -14.2393 H   0  0  0  0  0  0  0  0  0  0  0  0
   24.6981   -9.1986  -17.4995 H   0  0  0  0  0  0  0  0  0  0  0  0
   23.3445   -9.3658  -15.4786 H   0  0  0  0  0  0  0  0  0  0  0  0
   21.9851  -10.6041  -12.4119 H   0  0  0  0  0  0  0  0  0  0  0  0
   20.6392   -8.6746  -12.4091 H   0  0  0  0  0  0  0  0  0  0  0  0
   20.6018   -6.5072  -14.3116 H   0  0  0  0  0  0  0  0  0  0  0  0
   20.0193   -7.9753  -15.0604 H   0  0  0  0  0  0  0  0  0  0  0  0
   18.5933   -8.2649  -13.2470 H   0  0  0  0  0  0  0  0  0  0  0  0
   22.5953   -6.9549  -13.6294 H   0  0  0  0  0  0  0  0  0  0  0  0
   21.5951   -7.0257  -11.0887 H   0  0  0  0  0  0  0  0  0  0  0  0
   23.0470   -8.6857  -11.3179 H   0  0  0  0  0  0  0  0  0  0  0  0
   25.0009   -7.4073  -12.7579 H   0  0  0  0  0  0  0  0  0  0  0  0
   24.4291  -10.2332  -12.5868 H   0  0  0  0  0  0  0  0  0  0  0  0
   22.4435   -8.9417  -15.1945 H   0  0  0  0  0  0  0  0  0  0  0  0
   24.9081   -7.0917  -13.5351 H   0  0  0  0  0  0  0  0  0  0  0  0
   24.5332   -5.3094  -12.1474 H   0  0  0  0  0  0  0  0  0  0  0  0
   23.9943   -4.4419  -13.5660 H   0  0  0  0  0  0  0  0  0  0  0  0
   21.9283   -5.4858  -13.3480 H   0  0  0  0  0  0  0  0  0  0  0  0
   24.3702   -5.2642  -15.5368 H   0  0  0  0  0  0  0  0  0  0  0  0
   26.8164   -6.3144  -14.3523 H   0  0  0  0  0  0  0  0  0  0  0  0
   25.8948   -7.8196  -15.6941 H   0  0  0  0  0  0  0  0  0  0  0  0
   24.9629   -6.0225  -17.7424 H   0  0  0  0  0  0  0  0  0  0  0  0
   24.0430   -8.7415  -16.9700 H   0  0  0  0  0  0  0  0  0  0  0  0
   23.3286   -7.6157  -17.7547 H   0  0  0  0  0  0  0  0  0  0  0  0
   23.0452  -13.3877  -15.8551 H   0  0  0  0  0  0  0  0  0  0  0  0
   25.0739  -13.2185  -17.5313 H   0  0  0  0  0  0  0  0  0  0  0  0
   27.3612   -6.5325  -19.6630 H   0  0  0  0  0  0  0  0  0  0  0  0
   27.9197   -7.7457  -16.9644 H   0  0  0  0  0  0  0  0  0  0  0  0
   27.1428   -6.2056  -17.2436 H   0  0  0  0  0  0  0  0  0  0  0  0
   26.3645   -7.6964  -17.7517 H   0  0  0  0  0  0  0  0  0  0  0  0
   29.8095   -6.9478  -18.2162 H   0  0  0  0  0  0  0  0  0  0  0  0
   30.8722   -7.6360  -25.1220 H   0  0  0  0  0  0  0  0  0  0  0  0
   31.6229   -9.8201  -25.8863 H   0  0  0  0  0  0  0  0  0  0  0  0
   31.4294  -12.2707  -25.6867 H   0  0  0  0  0  0  0  0  0  0  0  0
   30.2739  -11.5221  -22.3783 H   0  0  0  0  0  0  0  0  0  0  0  0
   29.0138   -9.3824  -22.0936 H   0  0  0  0  0  0  0  0  0  0  0  0
   34.6427    4.1457  -26.3848 H   0  0  0  0  0  0  0  0  0  0  0  0
   38.7500    6.3321  -27.0618 H   0  0  0  0  0  0  0  0  0  0  0  0
   37.0182    5.8885  -30.1677 H   0  0  0  0  0  0  0  0  0  0  0  0
   34.5221    5.5190  -30.3946 H   0  0  0  0  0  0  0  0  0  0  0  0
   34.0776    4.2953  -28.5262 H   0  0  0  0  0  0  0  0  0  0  0  0
   34.5163    4.3457  -28.5161 H   0  0  0  0  0  0  0  0  0  0  0  0
  1  2  1  0  0  0  0
  1182  1  0  0  0  0
  1183  1  0  0  0  0
  1184  1  0  0  0  0
  2  3  1  0  0  0  0
  2  4  1  0  0  0  0
  2185  1  0  0  0  0
  3186  1  0  0  0  0
  3187  1  0  0  0  0
  3188  1  0  0  0  0
  4  5  1  0  0  0  0
  4189  1  0  0  0  0
  4190  1  0  0  0  0
  5  6  2  0  0  0  0
  5191  1  0  0  0  0
  6  7  1  0  0  0  0
  6192  1  0  0  0  0
  7  8  2  0  0  0  0
  7193  1  0  0  0  0
  8  9  1  0  0  0  0
  8194  1  0  0  0  0
  9 10  2  0  0  0  0
  9 11  1  0  0  0  0
 11195  1  0  0  0  0
 12 17  1  0  0  0  0
 12196  1  6  0  0  0
 12 13  1  0  0  0  0
 12 11  1  0  0  0  0
 13 14  1  0  0  0  0
 13197  1  0  0  0  0
 13198  1  0  0  0  0
 14 15  1  0  0  0  0
 14 16  2  0  0  0  0
 15199  1  0  0  0  0
 15200  1  0  0  0  0
 17 18  2  0  0  0  0
 17 19  1  0  0  0  0
 19201  1  0  0  0  0
 20 21  1  0  0  0  0
 20103  1  0  0  0  0
 20202  1  1  0  0  0
 20 19  1  0  0  0  0
 21 22  1  0  0  0  0
 21203  1  6  0  0  0
 21179  1  0  0  0  0
 22 23  1  0  0  0  0
 23 24  2  0  0  0  0
 23 25  1  0  0  0  0
 25 26  1  0  0  0  0
 25171  1  0  0  0  0
 25204  1  1  0  0  0
 26 27  1  0  0  0  0
 26205  1  0  0  0  0
 27 28  2  0  0  0  0
 27 29  1  0  0  0  0
 29 31  1  0  0  0  0
 29206  1  1  0  0  0
 29 30  1  0  0  0  0
 30207  1  0  0  0  0
 30208  1  0  0  0  0
 30209  1  0  0  0  0
 31 32  1  0  0  0  0
 31210  1  0  0  0  0
 32 33  2  0  0  0  0
 32 34  1  0  0  0  0
 34 39  1  0  0  0  0
 34211  1  6  0  0  0
 34 35  1  0  0  0  0
 35 36  1  0  0  0  0
 35212  1  0  0  0  0
 35213  1  0  0  0  0
 36 37  1  0  0  0  0
 36 38  1  0  0  0  0
 36214  1  0  0  0  0
 37215  1  0  0  0  0
 37216  1  0  0  0  0
 37217  1  0  0  0  0
 38218  1  0  0  0  0
 38219  1  0  0  0  0
 38220  1  0  0  0  0
 39 40  1  0  0  0  0
 39221  1  0  0  0  0
 40 41  2  0  0  0  0
 40 42  1  0  0  0  0
 42 43  1  0  0  0  0
 42222  1  0  0  0  0
 42223  1  0  0  0  0
 43 44  1  0  0  0  0
 43224  1  0  0  0  0
 44 45  2  0  0  0  0
 44 46  1  0  0  0  0
 46 47  1  0  0  0  0
 46225  1  1  0  0  0
 46164  1  0  0  0  0
 47 48  1  0  0  0  0
 47226  1  0  0  0  0
 48 49  2  0  0  0  0
 48 50  1  0  0  0  0
 50 51  1  0  0  0  0
 50161  1  0  0  0  0
 50227  1  1  0  0  0
 51 52  1  0  0  0  0
 51228  1  0  0  0  0
 52 53  2  0  0  0  0
 52 54  1  0  0  0  0
 54 55  1  0  0  0  0
 54229  1  6  0  0  0
 54132  1  0  0  0  0
 55 56  1  0  0  0  0
 55230  1  0  0  0  0
 56 57  2  0  0  0  0
 56 58  1  0  0  0  0
 58 59  1  0  0  0  0
 58 63  1  0  0  0  0
 58231  1  6  0  0  0
 59 60  1  0  0  0  0
 59232  1  0  0  0  0
 59233  1  0  0  0  0
 60 61  1  0  0  0  0
 60234  1  0  0  0  0
 60235  1  0  0  0  0
 61 62  1  0  0  0  0
 61236  1  0  0  0  0
 61237  1  0  0  0  0
 62238  1  0  0  0  0
 62239  1  0  0  0  0
 63 64  1  0  0  0  0
 63240  1  0  0  0  0
 64 65  2  0  0  0  0
 64 66  1  0  0  0  0
 66 67  1  0  0  0  0
 66 74  1  0  0  0  0
 66241  1  6  0  0  0
 67 68  1  0  0  0  0
 67242  1  0  0  0  0
 67243  1  0  0  0  0
 68 69  2  0  0  0  0
 68 73  1  0  0  0  0
 69 70  1  0  0  0  0
 69244  1  0  0  0  0
 70 71  2  0  0  0  0
 70245  1  0  0  0  0
 71 72  1  0  0  0  0
 71246  1  0  0  0  0
 72 73  2  0  0  0  0
 72247  1  0  0  0  0
 73248  1  0  0  0  0
 74 75  1  0  0  0  0
 74249  1  0  0  0  0
 75 76  2  0  0  0  0
 75 77  1  0  0  0  0
 77 78  1  0  0  0  0
 77250  1  1  0  0  0
 77129  1  0  0  0  0
 78 79  1  0  0  0  0
 78251  1  0  0  0  0
 79 80  2  0  0  0  0
 79 81  1  0  0  0  0
 81 82  1  0  0  0  0
 81122  1  0  0  0  0
 81252  1  1  0  0  0
 82 83  1  0  0  0  0
 82253  1  0  0  0  0
 83 84  2  0  0  0  0
 83 85  1  0  0  0  0
 85 86  1  0  0  0  0
 85115  1  0  0  0  0
 85254  1  6  0  0  0
 86 87  1  0  0  0  0
 86255  1  0  0  0  0
 87 88  2  0  0  0  0
 87 89  1  0  0  0  0
 89 90  1  0  0  0  0
 89112  1  0  0  0  0
 89256  1  6  0  0  0
 90 91  1  0  0  0  0
 90257  1  0  0  0  0
 91 92  2  0  0  0  0
 91 93  1  0  0  0  0
 93 94  1  0  0  0  0
 93 98  1  0  0  0  0
 93258  1  1  0  0  0
 94 95  1  0  0  0  0
 94259  1  0  0  0  0
 94260  1  0  0  0  0
 95 96  1  0  0  0  0
 95261  1  0  0  0  0
 95262  1  0  0  0  0
 96 97  1  0  0  0  0
 96263  1  0  0  0  0
 96264  1  0  0  0  0
 97265  1  0  0  0  0
 97266  1  0  0  0  0
 98 99  1  0  0  0  0
 98267  1  0  0  0  0
 99100  2  0  0  0  0
 99101  1  0  0  0  0
101102  1  0  0  0  0
101105  1  0  0  0  0
101268  1  6  0  0  0
102103  1  0  0  0  0
102269  1  0  0  0  0
103104  2  0  0  0  0
105106  2  0  0  0  0
105111  1  0  0  0  0
106107  1  0  0  0  0
106270  1  0  0  0  0
107108  2  0  0  0  0
107271  1  0  0  0  0
108109  1  0  0  0  0
108110  1  0  0  0  0
109272  1  0  0  0  0
110111  2  0  0  0  0
110273  1  0  0  0  0
111274  1  0  0  0  0
112113  1  0  0  0  0
112114  1  0  0  0  0
112275  1  1  0  0  0
113276  1  0  0  0  0
113277  1  0  0  0  0
113278  1  0  0  0  0
114279  1  0  0  0  0
115116  2  0  0  0  0
115121  1  0  0  0  0
116117  1  0  0  0  0
116280  1  0  0  0  0
117118  2  0  0  0  0
117281  1  0  0  0  0
118119  1  0  0  0  0
118120  1  0  0  0  0
119282  1  0  0  0  0
120121  2  0  0  0  0
120283  1  0  0  0  0
121284  1  0  0  0  0
122123  2  0  0  0  0
122128  1  0  0  0  0
123124  1  0  0  0  0
123285  1  0  0  0  0
124125  2  0  0  0  0
124286  1  0  0  0  0
125126  1  0  0  0  0
125127  1  0  0  0  0
126287  1  0  0  0  0
127128  2  0  0  0  0
127288  1  0  0  0  0
128289  1  0  0  0  0
129290  1  1  0  0  0
129131  1  0  0  0  0
129130  1  0  0  0  0
130291  1  0  0  0  0
130292  1  0  0  0  0
130293  1  0  0  0  0
131294  1  0  0  0  0
132133  2  0  0  0  0
132160  1  0  0  0  0
133134  1  0  0  0  0
133295  1  0  0  0  0
134135  2  0  0  0  0
134296  1  0  0  0  0
135136  1  0  0  0  0
135159  1  0  0  0  0
137136  1  0  0  0  0
137138  1  0  0  0  0
137146  1  0  0  0  0
137297  1  1  0  0  0
138139  1  0  0  0  0
139142  1  0  0  0  0
139298  1  1  0  0  0
139140  1  0  0  0  0
140141  1  0  0  0  0
140299  1  0  0  0  0
140300  1  0  0  0  0
141301  1  0  0  0  0
142143  1  0  0  0  0
142144  1  0  0  0  0
142302  1  6  0  0  0
143303  1  0  0  0  0
144145  1  0  0  0  0
144146  1  0  0  0  0
144304  1  1  0  0  0
145305  1  0  0  0  0
146306  1  1  0  0  0
146147  1  0  0  0  0
148149  1  0  0  0  0
148157  1  0  0  0  0
148307  1  6  0  0  0
148147  1  0  0  0  0
149150  1  0  0  0  0
150153  1  0  0  0  0
150308  1  1  0  0  0
150151  1  0  0  0  0
151152  1  0  0  0  0
151309  1  0  0  0  0
151310  1  0  0  0  0
152311  1  0  0  0  0
153154  1  0  0  0  0
153155  1  0  0  0  0
153312  1  6  0  0  0
154313  1  0  0  0  0
155156  1  0  0  0  0
155157  1  0  0  0  0
155314  1  1  0  0  0
156315  1  0  0  0  0
157316  1  6  0  0  0
157158  1  0  0  0  0
158317  1  0  0  0  0
159160  2  0  0  0  0
159318  1  0  0  0  0
160319  1  0  0  0  0
161162  1  0  0  0  0
161163  1  0  0  0  0
161320  1  6  0  0  0
162321  1  0  0  0  0
162322  1  0  0  0  0
162323  1  0  0  0  0
163324  1  0  0  0  0
164165  2  0  0  0  0
164170  1  0  0  0  0
165166  1  0  0  0  0
165325  1  0  0  0  0
166167  2  0  0  0  0
166326  1  0  0  0  0
167168  1  0  0  0  0
167169  1  0  0  0  0
168327  1  0  0  0  0
169170  2  0  0  0  0
169328  1  0  0  0  0
170329  1  0  0  0  0
171172  2  0  0  0  0
171178  1  0  0  0  0
172173  1  0  0  0  0
172330  1  0  0  0  0
173174  1  0  0  0  0
173175  2  0  0  0  0
175176  1  0  0  0  0
175177  1  0  0  0  0
176331  1  0  0  0  0
177178  2  0  0  0  0
177332  1  0  0  0  0
178333  1  0  0  0  0
179180  1  0  0  0  0
179181  2  0  0  0  0
180334  1  0  0  0  0
180335  1  0  0  0  0
M  END
>  <DRUGBANK_ID>
DB04952

>  <COMMON_NAME>
Ramoplanin

>  <CAS_NUMBER>
76168-82-6

>  <UNII>
0WX9996O2G

>  <SYNONYMS>
Ramoplanin

$$$$
