
 OpenBabel10282417203D

 88 87  0  0  0  0  0  0  0  0999 V2000
    0.9662    0.0445    0.0829 Tc  0  0  0  0  0  0  0  0  0  0  0  0
    1.0808   -0.0116   -0.0578 O   0  0  0  0  0  0  0  0  0  0  0  0
    1.0452    0.0835   -0.0314 O   0  5  0  0  0  0  0  0  0  0  0  0
    5.7963    4.1342    0.7154 O   0  0  0  0  0  0  0  0  0  0  0  0
    5.0794    1.4078   -2.0169 O   0  0  0  0  0  0  0  0  0  0  0  0
    5.5101    1.9293    1.4174 O   0  0  0  0  0  0  0  0  0  0  0  0
    5.4319    3.0919   -0.4434 O   0  0  0  0  0  0  0  0  0  0  0  0
    5.9099    3.9289   -1.7629 O   0  5  0  0  0  0  0  0  0  0  0  0
    5.1930    0.1308   -2.4502 O   0  5  0  0  0  0  0  0  0  0  0  0
    5.6237    2.5192    0.0720 O   0  0  0  0  0  0  0  0  0  0  0  0
    5.5455    2.4117   -2.1195 O   0  0  0  0  0  0  0  0  0  0  0  0
    3.0867   -0.9419   -0.9269 N   0  0  0  0  0  0  0  0  0  0  0  0
    2.7565    2.3329    0.4900 N   0  0  0  0  0  0  0  0  0  0  0  0
    2.8701    2.3213   -0.9198 N   0  0  0  0  0  0  0  0  0  0  0  0
    3.1231   -1.0441   -0.1949 N   0  0  0  0  0  0  0  0  0  0  0  0
    4.5567   -0.9419   -0.9269 C   0  0  0  0  0  0  0  0  0  0  0  0
    5.2080   -0.9026    0.2295 C   0  0  0  0  0  0  0  0  0  0  0  0
    5.2361   -0.9829   -2.1332 C   0  0  0  0  0  0  0  0  0  0  0  0
    4.4369   -0.6850    1.5212 C   0  0  0  0  0  0  0  0  0  0  0  0
    4.5615   -0.7391   -3.4733 C   0  0  0  0  0  0  0  0  0  0  0  0
    6.5728   -1.0567    0.2692 C   0  0  0  0  0  0  0  0  0  0  0  0
    6.6152   -1.2723   -2.0049 C   0  0  0  0  0  0  0  0  0  0  0  0
    3.1117    0.9503    0.8408 C   0  0  0  0  0  0  0  0  0  0  0  0
    2.3517   -0.0116   -0.0578 C   0  0  0  0  0  0  0  0  0  0  0  0
    1.3509   -2.3614   -1.2048 C   0  0  0  0  0  0  0  0  0  0  0  0
    2.7927   -3.4195    0.3151 C   0  0  0  0  0  0  0  0  0  0  0  0
    7.3022   -1.1624   -0.8824 C   0  0  0  0  0  0  0  0  0  0  0  0
    2.3881   -2.3040   -0.3776 C   0  0  0  0  0  0  0  0  0  0  0  0
    0.8191   -1.0791   -1.8238 C   0  0  0  0  0  0  0  0  0  0  0  0
    3.9165   -3.3030    1.3320 C   0  0  0  0  0  0  0  0  0  0  0  0
    4.6497   -1.8735    2.4446 C   0  0  0  0  0  0  0  0  0  0  0  0
    5.2083    0.4548   -4.1565 C   0  0  0  0  0  0  0  0  0  0  0  0
    3.4915    3.2632    1.3591 C   0  0  0  0  0  0  0  0  0  0  0  0
    3.1117    2.5890   -0.9133 C   0  0  0  0  0  0  0  0  0  0  0  0
    0.7446   -3.5677   -1.5143 C   0  0  0  0  0  0  0  0  0  0  0  0
    2.1992   -4.6328    0.1029 C   0  0  0  0  0  0  0  0  0  0  0  0
    1.1269   -4.6353   -0.6681 C   0  0  0  0  0  0  0  0  0  0  0  0
    3.2252    1.3862    0.1574 C   0  0  0  0  0  0  0  0  0  0  0  0
    0.9143   -1.1700   -3.3381 C   0  0  0  0  0  0  0  0  0  0  0  0
    3.4038   -3.7133    2.7029 C   0  0  0  0  0  0  0  0  0  0  0  0
    2.4652    0.0835   -0.0314 C   0  0  0  0  0  0  0  0  0  0  0  0
    3.6051    3.5812   -0.7372 C   0  0  0  0  0  0  0  0  0  0  0  0
    3.2252    1.7306   -2.2183 C   0  0  0  0  0  0  0  0  0  0  0  0
    4.9859    3.0602    1.1695 C   0  0  0  0  0  0  0  0  0  0  0  0
    4.6061    2.3861   -1.1029 C   0  0  0  0  0  0  0  0  0  0  0  0
    5.0995    3.3063   -0.7770 C   0  0  0  0  0  0  0  0  0  0  0  0
    4.7196    1.4557   -2.2581 C   0  0  0  0  0  0  0  0  0  0  0  0
    5.3839    5.0241    0.5204 H   0  0  0  0  0  0  0  0  0  0  0  0
    4.4296    0.8524   -2.5357 H   0  0  0  0  0  0  0  0  0  0  0  0
    2.5767   -1.5873   -1.5300 H   0  0  0  0  0  0  0  0  0  0  0  0
    4.7868    0.2057    1.9998 H   0  0  0  0  0  0  0  0  0  0  0  0
    3.3943   -0.5860    1.3018 H   0  0  0  0  0  0  0  0  0  0  0  0
    4.6712   -1.6060   -4.0908 H   0  0  0  0  0  0  0  0  0  0  0  0
    3.5215   -0.5410   -3.3183 H   0  0  0  0  0  0  0  0  0  0  0  0
    7.0719   -1.0947    1.2149 H   0  0  0  0  0  0  0  0  0  0  0  0
    7.1377   -1.6032   -2.8780 H   0  0  0  0  0  0  0  0  0  0  0  0
    2.8532    0.7638    1.8623 H   0  0  0  0  0  0  0  0  0  0  0  0
    4.1636    0.8074    0.7073 H   0  0  0  0  0  0  0  0  0  0  0  0
    8.3722   -1.1563   -0.8746 H   0  0  0  0  0  0  0  0  0  0  0  0
   -0.2030   -0.9424   -1.5382 H   0  0  0  0  0  0  0  0  0  0  0  0
    1.3998   -0.2491   -1.4791 H   0  0  0  0  0  0  0  0  0  0  0  0
    4.7238   -3.9446    1.0464 H   0  0  0  0  0  0  0  0  0  0  0  0
    4.2611   -2.2907    1.3684 H   0  0  0  0  0  0  0  0  0  0  0  0
    5.6923   -1.9725    2.6640 H   0  0  0  0  0  0  0  0  0  0  0  0
    4.1069   -1.7204    3.3539 H   0  0  0  0  0  0  0  0  0  0  0  0
    4.2998   -2.7642    1.9660 H   0  0  0  0  0  0  0  0  0  0  0  0
    6.2483    0.2567   -4.3115 H   0  0  0  0  0  0  0  0  0  0  0  0
    4.7334    0.6264   -5.0998 H   0  0  0  0  0  0  0  0  0  0  0  0
    5.0986    1.3217   -3.5390 H   0  0  0  0  0  0  0  0  0  0  0  0
    3.2330    4.2696    1.1037 H   0  0  0  0  0  0  0  0  0  0  0  0
    3.2330    3.0767    2.3805 H   0  0  0  0  0  0  0  0  0  0  0  0
    2.5766    1.9119   -1.5459 H   0  0  0  0  0  0  0  0  0  0  0  0
    2.8532    3.5955   -1.1686 H   0  0  0  0  0  0  0  0  0  0  0  0
    0.0500   -3.6818   -2.3202 H   0  0  0  0  0  0  0  0  0  0  0  0
    2.5828   -5.5319    0.5380 H   0  0  0  0  0  0  0  0  0  0  0  0
    0.5040   -5.5051   -0.6516 H   0  0  0  0  0  0  0  0  0  0  0  0
    2.9667    1.8161    1.1025 H   0  0  0  0  0  0  0  0  0  0  0  0
    4.2772    1.1927    0.1294 H   0  0  0  0  0  0  0  0  0  0  0  0
    0.3336   -2.0000   -3.6828 H   0  0  0  0  0  0  0  0  0  0  0  0
    0.5399   -0.2673   -3.7738 H   0  0  0  0  0  0  0  0  0  0  0  0
    1.9364   -1.3067   -3.6236 H   0  0  0  0  0  0  0  0  0  0  0  0
    3.0592   -4.7256    2.6665 H   0  0  0  0  0  0  0  0  0  0  0  0
    4.1949   -3.6313    3.4187 H   0  0  0  0  0  0  0  0  0  0  0  0
    2.5965   -3.0718    2.9884 H   0  0  0  0  0  0  0  0  0  0  0  0
    3.3466    4.2618   -1.5213 H   0  0  0  0  0  0  0  0  0  0  0  0
    3.3466    4.0111    0.2079 H   0  0  0  0  0  0  0  0  0  0  0  0
    2.6902    0.8135   -2.3512 H   0  0  0  0  0  0  0  0  0  0  0  0
    2.9667    2.4112   -3.0024 H   0  0  0  0  0  0  0  0  0  0  0  0
  2 24  2  0  0  0  0
  3 41  1  0  0  0  0
  4 44  1  0  0  0  0
  4 48  1  0  0  0  0
  5 45  1  0  0  0  0
  5 49  1  0  0  0  0
  6 44  2  0  0  0  0
  7 45  2  0  0  0  0
  8 46  1  0  0  0  0
  9 47  1  0  0  0  0
 10 46  2  0  0  0  0
 11 47  2  0  0  0  0
 12 16  1  0  0  0  0
 12 24  1  0  0  0  0
 12 50  1  0  0  0  0
 13 23  1  0  0  0  0
 13 33  1  0  0  0  0
 13 34  1  0  0  0  0
 14 38  1  0  0  0  0
 14 42  1  0  0  0  0
 14 43  1  0  0  0  0
 15 28  1  0  0  0  0
 15 41  2  0  0  0  0
 16 17  2  0  0  0  0
 16 18  1  0  0  0  0
 17 19  1  0  0  0  0
 17 21  1  0  0  0  0
 18 20  1  0  0  0  0
 18 22  2  0  0  0  0
 19 31  1  0  0  0  0
 19 51  1  0  0  0  0
 19 52  1  0  0  0  0
 20 32  1  0  0  0  0
 20 53  1  0  0  0  0
 20 54  1  0  0  0  0
 21 27  2  0  0  0  0
 21 55  1  0  0  0  0
 22 27  1  0  0  0  0
 22 56  1  0  0  0  0
 23 24  1  0  0  0  0
 23 57  1  0  0  0  0
 23 58  1  0  0  0  0
 25 28  2  0  0  0  0
 25 29  1  0  0  0  0
 25 35  1  0  0  0  0
 26 28  1  0  0  0  0
 26 30  1  0  0  0  0
 26 36  2  0  0  0  0
 27 59  1  0  0  0  0
 29 39  1  0  0  0  0
 29 60  1  0  0  0  0
 29 61  1  0  0  0  0
 30 40  1  0  0  0  0
 30 62  1  0  0  0  0
 30 63  1  0  0  0  0
 31 64  1  0  0  0  0
 31 65  1  0  0  0  0
 31 66  1  0  0  0  0
 32 67  1  0  0  0  0
 32 68  1  0  0  0  0
 32 69  1  0  0  0  0
 33 44  1  0  0  0  0
 33 70  1  0  0  0  0
 33 71  1  0  0  0  0
 34 45  1  0  0  0  0
 34 72  1  0  0  0  0
 34 73  1  0  0  0  0
 35 37  2  0  0  0  0
 35 74  1  0  0  0  0
 36 37  1  0  0  0  0
 36 75  1  0  0  0  0
 37 76  1  0  0  0  0
 38 41  1  0  0  0  0
 38 77  1  0  0  0  0
 38 78  1  0  0  0  0
 39 79  1  0  0  0  0
 39 80  1  0  0  0  0
 39 81  1  0  0  0  0
 40 82  1  0  0  0  0
 40 83  1  0  0  0  0
 40 84  1  0  0  0  0
 42 46  1  0  0  0  0
 42 85  1  0  0  0  0
 42 86  1  0  0  0  0
 43 47  1  0  0  0  0
 43 87  1  0  0  0  0
 43 88  1  0  0  0  0
M  ISO  1   1  98
M  CHG  3   3  -1   8  -1   9  -1
M  END
>  <DRUGBANK_ID>
DB13183

>  <COMMON_NAME>
Technetium Tc-99m etifenin

>  <CAS_NUMBER>
72950-39-1

>  <UNII>
1R72G5JPE8

>  <SYNONYMS>
Technetium (99m Tc) etifenin; Technetium (99mTc) etifenin

$$$$
