
 OpenBabel10282417203D

 48 50  0  0  0  0  0  0  0  0999 V2000
   -0.8147    1.1053    1.3011 C   0  0  0  0  0  0  0  0  0  0  0  0
   -1.5754    0.3731    0.1751 C   0  0  3  0  0  0  0  0  0  0  0  0
    0.7114    0.8692    1.2376 C   0  0  3  0  0  0  0  0  0  0  0  0
   -1.0653    0.9207   -1.1737 C   0  0  0  0  0  0  0  0  0  0  0  0
    1.2295    1.4234   -0.1094 C   0  0  0  0  0  0  0  0  0  0  0  0
    0.4531    0.7761   -1.2262 C   0  0  3  0  0  0  0  0  0  0  0  0
    0.9612   -0.6445    1.3849 C   0  0  0  0  0  0  0  0  0  0  0  0
    0.2013   -1.3574    0.2812 C   0  0  3  0  0  0  0  0  0  0  0  0
   -1.3077   -1.1343    0.3212 C   0  0  0  0  0  0  0  0  0  0  0  0
    0.7024   -0.6675   -0.9997 C   0  0  0  0  0  0  0  0  0  0  0  0
    0.4571   -2.7836    0.3925 N   0  0  0  0  0  0  0  0  0  0  0  0
    0.9475   -3.5401   -0.5872 C   0  0  0  0  0  0  0  0  0  0  0  0
    1.2481   -4.7367   -0.3731 O   0  0  0  0  0  0  0  0  0  0  0  0
    1.1377   -2.8745   -1.9308 C   0  0  0  0  0  0  0  0  0  0  0  0
    0.2120   -2.4718   -2.9110 O   0  0  0  0  0  0  0  0  0  0  0  0
   -0.5877   -3.5886   -3.2077 C   0  0  0  0  0  0  0  0  0  0  0  0
    0.2857   -4.5479   -4.0861 C   0  0  0  0  0  0  0  0  0  0  0  0
    1.5826   -5.2080   -3.5730 N   0  0  0  0  0  0  0  0  0  0  0  0
    1.9718   -6.2413   -4.4987 C   0  0  0  0  0  0  0  0  0  0  0  0
    2.8745   -4.4190   -3.4002 C   0  0  0  0  0  0  0  0  0  0  0  0
   -1.0079    2.1760    1.2126 H   0  0  0  0  0  0  0  0  0  0  0  0
   -1.1888    0.7563    2.2666 H   0  0  0  0  0  0  0  0  0  0  0  0
   -2.6529    0.5394    0.2388 H   0  0  0  0  0  0  0  0  0  0  0  0
    1.2362    1.3811    2.0438 H   0  0  0  0  0  0  0  0  0  0  0  0
   -1.5312    0.3593   -2.0029 H   0  0  0  0  0  0  0  0  0  0  0  0
   -1.3293    1.9681   -1.3207 H   0  0  0  0  0  0  0  0  0  0  0  0
    2.2999    1.1896   -0.2324 H   0  0  0  0  0  0  0  0  0  0  0  0
    1.1200    2.5040   -0.1901 H   0  0  0  0  0  0  0  0  0  0  0  0
    0.8389    1.0398   -2.2225 H   0  0  0  0  0  0  0  0  0  0  0  0
    2.0342   -0.8824    1.2990 H   0  0  0  0  0  0  0  0  0  0  0  0
    0.6420   -1.0212    2.3634 H   0  0  0  0  0  0  0  0  0  0  0  0
   -1.7218   -1.5293    1.2575 H   0  0  0  0  0  0  0  0  0  0  0  0
   -1.7978   -1.7054   -0.4853 H   0  0  0  0  0  0  0  0  0  0  0  0
    0.0719   -1.0123   -1.7866 H   0  0  0  0  0  0  0  0  0  0  0  0
    1.7800   -0.7946   -1.1160 H   0  0  0  0  0  0  0  0  0  0  0  0
    0.2534   -3.3150    1.2337 H   0  0  0  0  0  0  0  0  0  0  0  0
    2.0624   -2.2898   -1.9979 H   0  0  0  0  0  0  0  0  0  0  0  0
    1.3878   -3.7663   -2.3321 H   0  0  0  0  0  0  0  0  0  0  0  0
   -0.9575   -4.0317   -2.2729 H   0  0  0  0  0  0  0  0  0  0  0  0
   -1.4741   -3.2007   -3.7263 H   0  0  0  0  0  0  0  0  0  0  0  0
   -0.4303   -5.3434   -4.3273 H   0  0  0  0  0  0  0  0  0  0  0  0
    0.5230   -3.9957   -4.9997 H   0  0  0  0  0  0  0  0  0  0  0  0
    2.2713   -5.7625   -5.4335 H   0  0  0  0  0  0  0  0  0  0  0  0
    2.8218   -6.7759   -4.0649 H   0  0  0  0  0  0  0  0  0  0  0  0
    1.1692   -6.9565   -4.6544 H   0  0  0  0  0  0  0  0  0  0  0  0
    3.0383   -3.7300   -4.2275 H   0  0  0  0  0  0  0  0  0  0  0  0
    3.0636   -3.8148   -2.4970 H   0  0  0  0  0  0  0  0  0  0  0  0
    3.6961   -5.1020   -3.1679 H   0  0  0  0  0  0  0  0  0  0  0  0
  1  2  1  0  0  0  0
  1  3  1  0  0  0  0
  1 21  1  0  0  0  0
  1 22  1  0  0  0  0
  2  4  1  0  0  0  0
  2  9  1  0  0  0  0
  2 23  1  0  0  0  0
  3  5  1  0  0  0  0
  3  7  1  0  0  0  0
  3 24  1  0  0  0  0
  4  6  1  0  0  0  0
  4 25  1  0  0  0  0
  4 26  1  0  0  0  0
  5  6  1  0  0  0  0
  5 27  1  0  0  0  0
  5 28  1  0  0  0  0
  6 10  1  0  0  0  0
  6 29  1  0  0  0  0
  7  8  1  0  0  0  0
  7 30  1  0  0  0  0
  7 31  1  0  0  0  0
  8  9  1  0  0  0  0
  8 11  1  0  0  0  0
  9 32  1  0  0  0  0
  9 33  1  0  0  0  0
 10  8  1  0  0  0  0
 10 34  1  0  0  0  0
 10 35  1  0  0  0  0
 11 12  1  0  0  0  0
 11 36  1  0  0  0  0
 12 13  2  0  0  0  0
 12 14  1  0  0  0  0
 14 15  1  0  0  0  0
 14 37  1  0  0  0  0
 14 38  1  0  0  0  0
 15 16  1  0  0  0  0
 16 17  1  0  0  0  0
 16 39  1  0  0  0  0
 16 40  1  0  0  0  0
 17 18  1  0  0  0  0
 17 41  1  0  0  0  0
 17 42  1  0  0  0  0
 18 19  1  0  0  0  0
 18 20  1  0  0  0  0
 19 43  1  0  0  0  0
 19 44  1  0  0  0  0
 19 45  1  0  0  0  0
 20 46  1  0  0  0  0
 20 47  1  0  0  0  0
 20 48  1  0  0  0  0
M  END
>  <DRUGBANK_ID>
DB13288

>  <COMMON_NAME>
Tromantadine

>  <CAS_NUMBER>
53783-83-8

>  <UNII>
H191JFG8WA

>  <SYNONYMS>
Tromantadina; Tromantadine; Tromantadinum

$$$$
