
 OpenBabel10282417133D

 23 22  0  0  1  0  0  0  0  0999 V2000
    1.5365    1.1054    1.2773 C   0  0  0  0  0  0  0  0  0  0  0  0
    0.2682    0.4220    1.1762 N   0  0  0  0  0  0  0  0  0  0  0  0
   -0.1879   -0.4905    0.2628 C   0  0  0  0  0  0  0  0  0  0  0  0
   -1.2429   -1.0764    0.5160 O   0  0  0  0  0  0  0  0  0  0  0  0
    0.5861   -0.8087   -1.0184 C   0  0  0  0  0  0  0  0  0  0  0  0
    0.5414    0.2587   -2.1319 C   0  0  0  0  0  0  0  0  0  0  0  0
    1.2194    1.5723   -1.7637 C   0  0  2  0  0  0  0  0  0  0  0  0
    0.2726    2.6973   -1.6497 N   0  0  0  0  0  0  0  0  0  0  0  0
    2.5763    1.8583   -2.4302 C   0  0  0  0  0  0  0  0  0  0  0  0
    3.6689    1.6529   -1.6312 O   0  0  0  0  0  0  0  0  0  0  0  0
    2.7140    2.2350   -3.5719 O   0  0  0  0  0  0  0  0  0  0  0  0
    2.2691    0.6055    0.6406 H   0  0  0  0  0  0  0  0  0  0  0  0
    1.9501    1.1068    2.2797 H   0  0  0  0  0  0  0  0  0  0  0  0
    1.3678    2.1555    0.9985 H   0  0  0  0  0  0  0  0  0  0  0  0
   -0.4114    0.6066    1.9059 H   0  0  0  0  0  0  0  0  0  0  0  0
    1.6120   -1.0928   -0.7654 H   0  0  0  0  0  0  0  0  0  0  0  0
    0.1275   -1.7181   -1.4372 H   0  0  0  0  0  0  0  0  0  0  0  0
    1.0201   -0.1546   -3.0278 H   0  0  0  0  0  0  0  0  0  0  0  0
   -0.5096    0.4352   -2.3958 H   0  0  0  0  0  0  0  0  0  0  0  0
    1.5361    1.4644   -0.7724 H   0  0  0  0  0  0  0  0  0  0  0  0
    0.6421    3.5573   -2.0493 H   0  0  0  0  0  0  0  0  0  0  0  0
    0.0786    2.8937   -0.6635 H   0  0  0  0  0  0  0  0  0  0  0  0
    3.5872    1.3507   -0.7087 H   0  0  0  0  0  0  0  0  0  0  0  0
  1  2  1  0  0  0  0
  1 12  1  0  0  0  0
  1 13  1  0  0  0  0
  1 14  1  0  0  0  0
  2  3  1  0  0  0  0
  2 15  1  0  0  0  0
  3  4  2  0  0  0  0
  3  5  1  0  0  0  0
  5  6  1  0  0  0  0
  5 16  1  0  0  0  0
  5 17  1  0  0  0  0
  6 18  1  0  0  0  0
  6 19  1  0  0  0  0
  7  9  1  0  0  0  0
  7 20  1  1  0  0  0
  7  8  1  0  0  0  0
  7  6  1  0  0  0  0
  8 21  1  0  0  0  0
  8 22  1  0  0  0  0
  9 10  1  0  0  0  0
  9 11  2  0  0  0  0
 10 23  1  0  0  0  0
M  END
>  <DRUGBANK_ID>
DB03473

>  <SECONDARY_ACCESSION_NUMBERS>
EXPT02152

>  <COMMON_NAME>
N5-Methylglutamine

>  <UNII>
2N7NDF57QD

$$$$
