
 OpenBabel10282417133D

 36 38  0  0  1  0  0  0  0  0999 V2000
   -4.4849   -5.6045   15.8107 C   0  0  0  0  0  0  0  0  0  0  0  0
   -2.3606   -3.8133    7.2459 C   0  0  0  0  0  0  0  0  0  0  0  0
   -4.6129   -5.4237   12.1268 C   0  0  0  0  0  0  0  0  0  0  0  0
   -0.6211   -4.8930   13.8209 C   0  0  0  0  0  0  0  0  0  0  0  0
   -4.0393   -5.4982   14.3888 C   0  0  0  0  0  0  0  0  0  0  0  0
   -2.2832   -3.5760    8.7499 C   0  0  1  0  0  0  0  0  0  0  0  0
   -2.7150   -5.2599   14.0026 C   0  0  0  0  0  0  0  0  0  0  0  0
   -0.1478   -5.0025    9.0393 C   0  0  1  0  0  0  0  0  0  0  0  0
   -0.3728   -5.7470   10.3450 C   0  0  2  0  0  0  0  0  0  0  0  0
   -0.8297   -3.6471    9.2706 C   0  0  2  0  0  0  0  0  0  0  0  0
   -2.4774   -5.1102   12.6401 C   0  0  0  0  0  0  0  0  0  0  0  0
   -0.3534   -4.6121   11.3596 C   0  0  2  0  0  0  0  0  0  0  0  0
   -4.9922   -5.5790   13.4142 N   0  0  0  0  0  0  0  0  0  0  0  0
   -3.3725   -5.1978   11.6471 N   0  0  0  0  0  0  0  0  0  0  0  0
   -1.5517   -5.1310   14.7229 N   0  0  0  0  0  0  0  0  0  0  0  0
   -1.1368   -4.8507   12.5519 N   0  0  0  0  0  0  0  0  0  0  0  0
   -2.8513   -2.2855    9.0063 O   0  0  0  0  0  0  0  0  0  0  0  0
    1.2619   -4.8453    8.8025 O   0  0  0  0  0  0  0  0  0  0  0  0
    0.6413   -6.7182   10.6042 O   0  0  0  0  0  0  0  0  0  0  0  0
   -0.7960   -3.4118   10.7014 O   0  0  0  0  0  0  0  0  0  0  0  0
   -2.9151   -4.2978    9.2725 H   0  0  0  0  0  0  0  0  0  0  0  0
   -0.5349   -5.5675    8.1906 H   0  0  0  0  0  0  0  0  0  0  0  0
   -1.3383   -6.2602   10.3164 H   0  0  0  0  0  0  0  0  0  0  0  0
   -0.2555   -2.8266    8.8235 H   0  0  0  0  0  0  0  0  0  0  0  0
    0.6773   -4.4272   11.6888 H   0  0  0  0  0  0  0  0  0  0  0  0
   -3.6325   -5.6582   16.4945 H   0  0  0  0  0  0  0  0  0  0  0  0
   -5.0984   -6.4989   15.9525 H   0  0  0  0  0  0  0  0  0  0  0  0
   -5.0797   -4.7232   16.0696 H   0  0  0  0  0  0  0  0  0  0  0  0
   -1.7539   -3.0745    6.7107 H   0  0  0  0  0  0  0  0  0  0  0  0
   -2.0181   -4.8109    6.9632 H   0  0  0  0  0  0  0  0  0  0  0  0
   -3.3891   -3.7019    6.8894 H   0  0  0  0  0  0  0  0  0  0  0  0
   -5.4079   -5.4843   11.3906 H   0  0  0  0  0  0  0  0  0  0  0  0
    0.4279   -4.7424   14.0328 H   0  0  0  0  0  0  0  0  0  0  0  0
   -2.2859   -1.6080    8.5993 H   0  0  0  0  0  0  0  0  0  0  0  0
    1.6418   -4.2380    9.4595 H   0  0  0  0  0  0  0  0  0  0  0  0
    1.4910   -6.3514   10.2922 H   0  0  0  0  0  0  0  0  0  0  0  0
  1 26  1  0  0  0  0
  1 27  1  0  0  0  0
  1 28  1  0  0  0  0
  2 29  1  0  0  0  0
  2 30  1  0  0  0  0
  2 31  1  0  0  0  0
  3 32  1  0  0  0  0
  4 33  1  0  0  0  0
  5  1  1  0  0  0  0
  6 17  1  0  0  0  0
  6 21  1  1  0  0  0
  6  2  1  0  0  0  0
  7  5  2  0  0  0  0
  8 18  1  0  0  0  0
  8 22  1  6  0  0  0
  9  8  1  0  0  0  0
  9 19  1  0  0  0  0
  9 23  1  6  0  0  0
 10  8  1  0  0  0  0
 10  6  1  0  0  0  0
 10 24  1  6  0  0  0
 11  7  1  0  0  0  0
 12  9  1  0  0  0  0
 12 16  1  0  0  0  0
 12 25  1  1  0  0  0
 13  3  2  0  0  0  0
 13  5  1  0  0  0  0
 14  3  1  0  0  0  0
 14 11  2  0  0  0  0
 15  4  2  0  0  0  0
 15  7  1  0  0  0  0
 16  4  1  0  0  0  0
 16 11  1  0  0  0  0
 17 34  1  0  0  0  0
 18 35  1  0  0  0  0
 19 36  1  0  0  0  0
 20 10  1  0  0  0  0
 20 12  1  0  0  0  0
M  END
>  <DRUGBANK_ID>
DB02934

>  <SECONDARY_ACCESSION_NUMBERS>
EXPT03003

>  <COMMON_NAME>
9-(6-deoxy-alpha-L-talofuranosyl)-6-methylpurine

$$$$
