
 OpenBabel10282417133D

 39 40  0  0  0  0  0  0  0  0999 V2000
    1.5915   -1.1877   -0.0566 C   0  0  0  0  0  0  0  0  0  0  0  0
    2.3275    0.0020    0.0315 C   0  0  0  0  0  0  0  0  0  0  0  0
    1.6545    1.2270    0.0101 C   0  0  0  0  0  0  0  0  0  0  0  0
    0.2881    1.2663   -0.2521 C   0  0  0  0  0  0  0  0  0  0  0  0
   -0.3855    0.0880   -0.6071 C   0  0  0  0  0  0  0  0  0  0  0  0
    0.2138   -1.1531   -0.3319 C   0  0  0  0  0  0  0  0  0  0  0  0
    2.3768    2.4404    0.0331 N   0  0  0  0  0  0  0  0  0  0  0  0
   -1.7340    0.2389   -1.1142 C   0  0  0  0  0  0  0  0  0  0  0  0
   -0.4210   -2.3625   -0.1903 O   0  0  0  0  0  0  0  0  0  0  0  0
   -1.8565   -2.3801   -0.1186 C   0  0  0  0  0  0  0  0  0  0  0  0
   -2.5087   -1.7061    1.1633 C   0  0  0  0  0  0  0  0  0  0  0  0
   -2.0884   -0.2763    1.6523 C   0  0  0  0  0  0  0  0  0  0  0  0
   -4.0412   -1.7727    1.0094 C   0  0  0  0  0  0  0  0  0  0  0  0
   -2.0738   -2.5598    2.3588 C   0  0  0  0  0  0  0  0  0  0  0  0
    2.1187    3.4466    0.9007 N   0  0  0  0  0  0  0  0  0  0  0  0
    2.9985    4.4003    0.5573 C   0  0  0  0  0  0  0  0  0  0  0  0
    3.7259    4.0816   -0.6094 C   0  0  0  0  0  0  0  0  0  0  0  0
    3.2963    2.8071   -0.9157 C   0  0  0  0  0  0  0  0  0  0  0  0
    4.6848    4.8487   -1.3675 C   0  0  0  0  0  0  0  0  0  0  0  0
    5.2221    4.4727   -2.3992 O   0  0  0  0  0  0  0  0  0  0  0  0
    4.9693    6.0636   -0.8494 O   0  0  0  0  0  0  0  0  0  0  0  0
   -2.8550    0.3304   -1.3658 N   0  0  0  0  0  0  0  0  0  0  0  0
    2.0978   -2.1423    0.0921 H   0  0  0  0  0  0  0  0  0  0  0  0
    3.4042   -0.0401    0.1810 H   0  0  0  0  0  0  0  0  0  0  0  0
   -0.2561    2.2086   -0.2213 H   0  0  0  0  0  0  0  0  0  0  0  0
   -2.2613   -2.0697   -1.0873 H   0  0  0  0  0  0  0  0  0  0  0  0
   -2.1439   -3.4464   -0.1207 H   0  0  0  0  0  0  0  0  0  0  0  0
   -2.3564    0.5828    1.0367 H   0  0  0  0  0  0  0  0  0  0  0  0
   -2.5697   -0.0024    2.5956 H   0  0  0  0  0  0  0  0  0  0  0  0
   -1.0106   -0.2467    1.8482 H   0  0  0  0  0  0  0  0  0  0  0  0
   -4.3900   -2.8113    0.9755 H   0  0  0  0  0  0  0  0  0  0  0  0
   -4.5345   -1.2776    1.8510 H   0  0  0  0  0  0  0  0  0  0  0  0
   -4.4016   -1.2933    0.0918 H   0  0  0  0  0  0  0  0  0  0  0  0
   -2.4255   -3.5882    2.2755 H   0  0  0  0  0  0  0  0  0  0  0  0
   -0.9798   -2.5646    2.4323 H   0  0  0  0  0  0  0  0  0  0  0  0
   -2.4677   -2.1285    3.2847 H   0  0  0  0  0  0  0  0  0  0  0  0
    3.0592    5.3088    1.1476 H   0  0  0  0  0  0  0  0  0  0  0  0
    3.5255    2.1608   -1.7503 H   0  0  0  0  0  0  0  0  0  0  0  0
    5.6269    6.4463   -1.4688 H   0  0  0  0  0  0  0  0  0  0  0  0
  1  6  1  0  0  0  0
  1 23  1  0  0  0  0
  2  1  2  0  0  0  0
  2 24  1  0  0  0  0
  3  2  1  0  0  0  0
  3  7  1  0  0  0  0
  4  3  2  0  0  0  0
  4 25  1  0  0  0  0
  5  4  1  0  0  0  0
  5  8  1  0  0  0  0
  6  5  2  0  0  0  0
  6  9  1  0  0  0  0
  7 18  1  0  0  0  0
  8 22  3  0  0  0  0
 10  9  1  0  0  0  0
 10 11  1  0  0  0  0
 10 26  1  0  0  0  0
 10 27  1  0  0  0  0
 11 13  1  0  0  0  0
 11 14  1  0  0  0  0
 12 11  1  0  0  0  0
 12 28  1  0  0  0  0
 12 29  1  0  0  0  0
 12 30  1  0  0  0  0
 13 31  1  0  0  0  0
 13 32  1  0  0  0  0
 13 33  1  0  0  0  0
 14 34  1  0  0  0  0
 14 35  1  0  0  0  0
 14 36  1  0  0  0  0
 15  7  1  0  0  0  0
 15 16  2  0  0  0  0
 16 17  1  0  0  0  0
 16 37  1  0  0  0  0
 17 19  1  0  0  0  0
 18 17  2  0  0  0  0
 18 38  1  0  0  0  0
 19 20  2  0  0  0  0
 19 21  1  0  0  0  0
 21 39  1  0  0  0  0
M  END
>  <DRUGBANK_ID>
DB03841

>  <SECONDARY_ACCESSION_NUMBERS>
EXPT03278

>  <COMMON_NAME>
Niraxostat

>  <CAS_NUMBER>
206884-98-2

>  <UNII>
246FR6022S

>  <SYNONYMS>
Niraxostat; Piraxostat

$$$$
