
 OpenBabel10282417143D

 24 23  0  0  0  0  0  0  0  0999 V2000
    0.9117   -0.0739   -0.0419 C   0  0  0  0  0  0  0  0  0  0  0  0
    0.1813   -0.0055    1.3142 C   0  0  3  0  0  0  0  0  0  0  0  0
    0.5858   -1.1554    2.2731 C   0  0  3  0  0  0  0  0  0  0  0  0
   -0.2605   -1.0904    3.5483 C   0  0  0  0  0  0  0  0  0  0  0  0
   -0.2241   -0.1777    4.3571 O   0  0  0  0  0  0  0  0  0  0  0  0
    0.2934    1.2910    1.8830 O   0  0  0  0  0  0  0  0  0  0  0  0
    2.2473    0.1185    0.0555 O   0  0  0  0  0  0  0  0  0  0  0  0
    0.4011   -0.2687   -1.1277 O   0  0  0  0  0  0  0  0  0  0  0  0
   -1.0397   -2.1713    3.7852 O   0  0  0  0  0  0  0  0  0  0  0  0
    2.6572    0.0148    3.3484 C   0  0  0  0  0  0  0  0  0  0  0  0
    2.1029   -1.2155    2.6238 C   0  0  0  0  0  0  0  0  0  0  0  0
    2.4526   -2.4621    3.4307 C   0  0  0  0  0  0  0  0  0  0  0  0
   -0.8843   -0.1200    1.0842 H   0  0  0  0  0  0  0  0  0  0  0  0
    0.3370   -2.0951    1.7546 H   0  0  0  0  0  0  0  0  0  0  0  0
    1.2200    1.5736    1.8346 H   0  0  0  0  0  0  0  0  0  0  0  0
    2.6141   -0.0492   -0.8397 H   0  0  0  0  0  0  0  0  0  0  0  0
   -1.0343   -2.8971    3.1382 H   0  0  0  0  0  0  0  0  0  0  0  0
    2.1208    0.2111    4.2786 H   0  0  0  0  0  0  0  0  0  0  0  0
    3.7116   -0.1227    3.6005 H   0  0  0  0  0  0  0  0  0  0  0  0
    2.6330    0.9160    2.7396 H   0  0  0  0  0  0  0  0  0  0  0  0
    2.6689   -1.3381    1.6951 H   0  0  0  0  0  0  0  0  0  0  0  0
    2.1804   -3.3686    2.8815 H   0  0  0  0  0  0  0  0  0  0  0  0
    3.5332   -2.4936    3.6093 H   0  0  0  0  0  0  0  0  0  0  0  0
    1.9468   -2.4638    4.3985 H   0  0  0  0  0  0  0  0  0  0  0  0
  2  1  1  0  0  0  0
  2  6  1  0  0  0  0
  2 13  1  0  0  0  0
  3  2  1  0  0  0  0
  3 11  1  0  0  0  0
  3 14  1  0  0  0  0
  4  3  1  0  0  0  0
  5  4  2  0  0  0  0
  6 15  1  0  0  0  0
  7  1  1  0  0  0  0
  7 16  1  0  0  0  0
  8  1  2  0  0  0  0
  9  4  1  0  0  0  0
  9 17  1  0  0  0  0
 10 18  1  0  0  0  0
 10 19  1  0  0  0  0
 10 20  1  0  0  0  0
 11 10  1  0  0  0  0
 11 21  1  0  0  0  0
 12 11  1  0  0  0  0
 12 22  1  0  0  0  0
 12 23  1  0  0  0  0
 12 24  1  0  0  0  0
M  END
>  <DRUGBANK_ID>
DB04279

>  <SECONDARY_ACCESSION_NUMBERS>
EXPT01919

>  <COMMON_NAME>
3-Isopropylmalic Acid

>  <UNII>
29405QVM5W

$$$$
