CTB
 OpenBabel10282417123D

 23 23  0  0  0  0  0  0  0  0999 V2000
    1.0167    0.0354   -0.0920 B   0  0  0  0  0  0  0  0  0  0  0  0
    0.2667   -1.2627   -0.0420 O   0  0  0  0  0  0  0  0  0  0  0  0
    0.2667    1.3334   -0.1421 O   0  0  0  0  0  0  0  0  0  0  0  0
    2.6167    0.0354   -0.0920 C   0  0  0  0  0  0  0  0  0  0  0  0
    3.1067   -1.3495   -0.0386 N   0  0  0  0  0  0  0  0  0  0  0  0
    3.9519   -1.8725   -1.1218 C   0  0  0  0  0  0  0  0  0  0  0  0
    4.3755   -3.0698   -1.0756 O   0  0  0  0  0  0  0  0  0  0  0  0
    4.3191   -0.9812   -2.2970 C   0  0  0  0  0  0  0  0  0  0  0  0
    3.0524   -0.5291   -3.0052 C   0  0  0  0  0  0  0  0  0  0  0  0
    2.0832   -1.3721   -3.4976 C   0  0  0  0  0  0  0  0  0  0  0  0
    1.0418   -0.6859   -4.1314 C   0  0  0  0  0  0  0  0  0  0  0  0
    1.2209    0.6627   -4.1243 C   0  0  0  0  0  0  0  0  0  0  0  0
    2.6710    1.1211   -3.3200 S   0  0  0  0  0  0  0  0  0  0  0  0
    0.9166   -2.0222   -0.0127 H   0  0  0  0  0  0  0  0  0  0  0  0
   -0.7164    1.1508   -0.1351 H   0  0  0  0  0  0  0  0  0  0  0  0
    2.9734    0.5057   -0.9845 H   0  0  0  0  0  0  0  0  0  0  0  0
    2.9734    0.5731    0.7615 H   0  0  0  0  0  0  0  0  0  0  0  0
    2.8603   -1.9476    0.7500 H   0  0  0  0  0  0  0  0  0  0  0  0
    4.8541   -0.1252   -1.9420 H   0  0  0  0  0  0  0  0  0  0  0  0
    4.9342   -1.5280   -2.9807 H   0  0  0  0  0  0  0  0  0  0  0  0
    2.1217   -2.4375   -3.4057 H   0  0  0  0  0  0  0  0  0  0  0  0
    0.1961   -1.1693   -4.5740 H   0  0  0  0  0  0  0  0  0  0  0  0
    0.5388    1.3578   -4.5675 H   0  0  0  0  0  0  0  0  0  0  0  0
  1  2  1  0  0  0  0
  1  3  1  0  0  0  0
  1  4  1  0  0  0  0
  2 14  1  0  0  0  0
  3 15  1  0  0  0  0
  4  5  1  0  0  0  0
  4 16  1  0  0  0  0
  4 17  1  0  0  0  0
  5  6  1  0  0  0  0
  5 18  1  0  0  0  0
  6  7  2  0  0  0  0
  6  8  1  0  0  0  0
  8  9  1  0  0  0  0
  8 19  1  0  0  0  0
  8 20  1  0  0  0  0
  9 10  2  0  0  0  0
  9 13  1  0  0  0  0
 10 11  1  0  0  0  0
 10 21  1  0  0  0  0
 11 12  2  0  0  0  0
 11 22  1  0  0  0  0
 12 13  1  0  0  0  0
 12 23  1  0  0  0  0
M  END
>  <DRUGBANK_ID>
DB02094

>  <SECONDARY_ACCESSION_NUMBERS>
EXPT01048

>  <COMMON_NAME>
N-2-Thiophen-2-Yl-Acetamide Boronic Acid

>  <UNII>
8KWZ834LZM

$$$$
