
 OpenBabel10282417203D

 63 66  0  0  0  0  0  0  0  0999 V2000
    1.2978    0.2204   -0.1678 S   0  0  0  0  0  0  0  0  0  0  0  0
   -0.6631    1.3543    2.8213 S   0  0  3  0  0  0  0  0  0  0  0  0
    0.8426   -0.1011   -1.4910 O   0  0  0  0  0  0  0  0  0  0  0  0
    1.2014   -0.6574    0.9749 O   0  0  0  0  0  0  0  0  0  0  0  0
   -2.0911    1.7970    3.0458 O   0  0  0  0  0  0  0  0  0  0  0  0
    0.8167    6.2913   -2.9267 O   0  0  0  0  0  0  0  0  0  0  0  0
   -2.3290   -0.2906   -2.3813 O   0  0  0  0  0  0  0  0  0  0  0  0
    7.0022    0.1954   -0.6040 O   0  0  0  0  0  0  0  0  0  0  0  0
    7.2320   -3.0564    0.6647 O   0  0  0  0  0  0  0  0  0  0  0  0
    8.0933   -1.2553    1.7025 O   0  0  0  0  0  0  0  0  0  0  0  0
    0.7668    1.7637    0.2367 N   0  0  0  0  0  0  0  0  0  0  0  0
   -0.3597    3.4870    1.0285 N   0  0  0  0  0  0  0  0  0  0  0  0
   -0.9558   -2.3917    0.9870 N   0  0  0  0  0  0  0  0  0  0  0  0
    0.8367    2.7474   -0.7496 C   0  0  0  0  0  0  0  0  0  0  0  0
    0.0354    2.2300    1.3283 C   0  0  0  0  0  0  0  0  0  0  0  0
    0.1508    3.8332   -0.2316 C   0  0  0  0  0  0  0  0  0  0  0  0
    2.9964    0.2597   -0.2191 C   0  0  0  0  0  0  0  0  0  0  0  0
   -0.6857   -0.4335    2.4852 C   0  0  0  0  0  0  0  0  0  0  0  0
    1.4294    2.7665   -2.0262 C   0  0  0  0  0  0  0  0  0  0  0  0
    0.0950    5.0186   -1.0267 C   0  0  0  0  0  0  0  0  0  0  0  0
   -1.2619   -1.0681    1.1649 C   0  0  0  0  0  0  0  0  0  0  0  0
    0.7939    5.0838   -2.2632 C   0  0  0  0  0  0  0  0  0  0  0  0
    1.4387    3.9532   -2.7454 C   0  0  0  0  0  0  0  0  0  0  0  0
   -1.8217   -0.3517    0.0674 C   0  0  0  0  0  0  0  0  0  0  0  0
    3.6894    1.4361   -0.0706 C   0  0  0  0  0  0  0  0  0  0  0  0
    3.5802   -0.9979   -0.2365 C   0  0  0  0  0  0  0  0  0  0  0  0
   -1.9567   -0.9359   -1.2132 C   0  0  0  0  0  0  0  0  0  0  0  0
   -1.6277   -2.2784   -1.3674 C   0  0  0  0  0  0  0  0  0  0  0  0
    5.0379    1.3806   -0.2702 C   0  0  0  0  0  0  0  0  0  0  0  0
    4.9342   -1.0423   -0.2356 C   0  0  0  0  0  0  0  0  0  0  0  0
   -2.1767    1.0672    0.1243 C   0  0  0  0  0  0  0  0  0  0  0  0
    5.6631    0.1396   -0.3714 C   0  0  0  0  0  0  0  0  0  0  0  0
   -1.1391   -2.9502   -0.2488 C   0  0  0  0  0  0  0  0  0  0  0  0
   -1.8333   -2.9777   -2.6763 C   0  0  0  0  0  0  0  0  0  0  0  0
    1.5936    6.3397   -4.1347 C   0  0  0  0  0  0  0  0  0  0  0  0
   -2.5178    1.1201   -2.4902 C   0  0  0  0  0  0  0  0  0  0  0  0
    7.6479   -1.0656   -0.6803 C   0  0  0  0  0  0  0  0  0  0  0  0
    7.7061   -1.7836    0.6700 C   0  0  0  0  0  0  0  0  0  0  0  0
    6.8420   -3.3858   -0.1675 H   0  0  0  0  0  0  0  0  0  0  0  0
    0.3740   -0.6254    2.6973 H   0  0  0  0  0  0  0  0  0  0  0  0
   -1.1048   -0.9777    3.3380 H   0  0  0  0  0  0  0  0  0  0  0  0
    1.9287    1.9021   -2.4571 H   0  0  0  0  0  0  0  0  0  0  0  0
   -0.4455    5.8971   -0.6805 H   0  0  0  0  0  0  0  0  0  0  0  0
    1.9854    3.9505   -3.6840 H   0  0  0  0  0  0  0  0  0  0  0  0
    3.2107    2.3775    0.1599 H   0  0  0  0  0  0  0  0  0  0  0  0
    2.9948   -1.9205   -0.1819 H   0  0  0  0  0  0  0  0  0  0  0  0
    5.5836    2.3124   -0.3376 H   0  0  0  0  0  0  0  0  0  0  0  0
    5.3420   -2.0289   -0.1427 H   0  0  0  0  0  0  0  0  0  0  0  0
   -1.5088    1.6129   -0.5301 H   0  0  0  0  0  0  0  0  0  0  0  0
   -3.2216    1.3029    0.0171 H   0  0  0  0  0  0  0  0  0  0  0  0
   -2.0137    1.5014    1.0484 H   0  0  0  0  0  0  0  0  0  0  0  0
   -0.8539   -4.0000   -0.3254 H   0  0  0  0  0  0  0  0  0  0  0  0
   -0.9045   -3.4170   -3.0497 H   0  0  0  0  0  0  0  0  0  0  0  0
   -2.5970   -3.7496   -2.5513 H   0  0  0  0  0  0  0  0  0  0  0  0
   -2.1984   -2.2986   -3.4549 H   0  0  0  0  0  0  0  0  0  0  0  0
    2.6507    6.1119   -3.9438 H   0  0  0  0  0  0  0  0  0  0  0  0
    1.1847    5.6596   -4.8921 H   0  0  0  0  0  0  0  0  0  0  0  0
    1.5514    7.3514   -4.5505 H   0  0  0  0  0  0  0  0  0  0  0  0
   -3.3143    1.4611   -1.8280 H   0  0  0  0  0  0  0  0  0  0  0  0
   -1.5755    1.6700   -2.3702 H   0  0  0  0  0  0  0  0  0  0  0  0
   -2.8820    1.4014   -3.4757 H   0  0  0  0  0  0  0  0  0  0  0  0
    7.2087   -1.6824   -1.4765 H   0  0  0  0  0  0  0  0  0  0  0  0
    8.6771   -0.8645   -0.9823 H   0  0  0  0  0  0  0  0  0  0  0  0
  1  3  2  0  0  0  0
  1  4  2  0  0  0  0
  1 11  1  0  0  0  0
  1 17  1  0  0  0  0
  2  5  2  0  0  0  0
  2 15  1  0  0  0  0
  2 18  1  0  0  0  0
  6 22  1  0  0  0  0
  6 35  1  0  0  0  0
  7 27  1  0  0  0  0
  7 36  1  0  0  0  0
  8 32  1  0  0  0  0
  8 37  1  0  0  0  0
  9 38  1  0  0  0  0
  9 39  1  0  0  0  0
 10 38  2  0  0  0  0
 11 14  1  0  0  0  0
 11 15  1  0  0  0  0
 12 15  2  0  0  0  0
 12 16  1  0  0  0  0
 13 21  2  0  0  0  0
 13 33  1  0  0  0  0
 14 16  2  0  0  0  0
 14 19  1  0  0  0  0
 16 20  1  0  0  0  0
 17 25  2  0  0  0  0
 17 26  1  0  0  0  0
 18 21  1  0  0  0  0
 18 40  1  0  0  0  0
 18 41  1  0  0  0  0
 19 23  2  0  0  0  0
 19 42  1  0  0  0  0
 20 22  2  0  0  0  0
 20 43  1  0  0  0  0
 21 24  1  0  0  0  0
 22 23  1  0  0  0  0
 23 44  1  0  0  0  0
 24 27  2  0  0  0  0
 24 31  1  0  0  0  0
 25 29  1  0  0  0  0
 25 45  1  0  0  0  0
 26 30  2  0  0  0  0
 26 46  1  0  0  0  0
 27 28  1  0  0  0  0
 28 33  2  0  0  0  0
 28 34  1  0  0  0  0
 29 32  2  0  0  0  0
 29 47  1  0  0  0  0
 30 32  1  0  0  0  0
 30 48  1  0  0  0  0
 31 49  1  0  0  0  0
 31 50  1  0  0  0  0
 31 51  1  0  0  0  0
 33 52  1  0  0  0  0
 34 53  1  0  0  0  0
 34 54  1  0  0  0  0
 34 55  1  0  0  0  0
 35 56  1  0  0  0  0
 35 57  1  0  0  0  0
 35 58  1  0  0  0  0
 36 59  1  0  0  0  0
 36 60  1  0  0  0  0
 36 61  1  0  0  0  0
 37 38  1  0  0  0  0
 37 62  1  0  0  0  0
 37 63  1  0  0  0  0
M  END
>  <DRUGBANK_ID>
DB13135

>  <COMMON_NAME>
AGN-201904

>  <CAS_NUMBER>
651729-53-2

>  <UNII>
G0835O03ZM

$$$$
