
 OpenBabel10282417183D

 58 62  0  0  0  0  0  0  0  0999 V2000
    1.0084    0.0767   -0.0779 C   0  0  0  0  0  0  0  0  0  0  0  0
    0.3882   -0.6645   -1.1559 N   0  0  0  0  0  0  0  0  0  0  0  0
   -0.4183   -1.7668   -1.0820 C   0  0  0  0  0  0  0  0  0  0  0  0
   -0.8291   -2.2832   -2.1440 O   0  0  0  0  0  0  0  0  0  0  0  0
   -0.7609   -2.3568    0.2402 C   0  0  0  0  0  0  0  0  0  0  0  0
   -1.2542   -1.5071    1.2401 C   0  0  0  0  0  0  0  0  0  0  0  0
   -1.3893   -1.9660    2.5448 C   0  0  0  0  0  0  0  0  0  0  0  0
   -1.1187   -3.3026    2.8433 C   0  0  0  0  0  0  0  0  0  0  0  0
   -0.7593   -4.2158    1.8322 C   0  0  0  0  0  0  0  0  0  0  0  0
   -0.5710   -3.7350    0.5102 C   0  0  0  0  0  0  0  0  0  0  0  0
   -0.2154   -4.6647   -0.4812 C   0  0  0  0  0  0  0  0  0  0  0  0
   -0.1390   -6.0266   -0.2128 C   0  0  0  0  0  0  0  0  0  0  0  0
   -0.2828   -6.5067    1.0838 C   0  0  0  0  0  0  0  0  0  0  0  0
   -0.5860   -5.5956    2.1075 C   0  0  0  0  0  0  0  0  0  0  0  0
   -0.1065   -7.8365    1.4328 O   0  0  0  0  0  0  0  0  0  0  0  0
    0.4440   -8.7315    0.5190 C   0  0  0  0  0  0  0  0  0  0  0  0
   -0.2857   -9.8899    0.2845 C   0  0  0  0  0  0  0  0  0  0  0  0
    0.2467  -10.8122   -0.5962 C   0  0  0  0  0  0  0  0  0  0  0  0
    1.4318  -10.6575   -1.2377 N   0  0  0  0  0  0  0  0  0  0  0  0
    2.1868   -9.5745   -0.9567 C   0  0  0  0  0  0  0  0  0  0  0  0
    1.7316   -8.5886   -0.0649 C   0  0  0  0  0  0  0  0  0  0  0  0
    2.5782   -7.5000    0.1931 C   0  0  0  0  0  0  0  0  0  0  0  0
    3.8509   -7.3279   -0.3786 C   0  0  0  0  0  0  0  0  0  0  0  0
    4.3202   -8.2905   -1.2955 C   0  0  0  0  0  0  0  0  0  0  0  0
    3.4533   -9.3997   -1.5557 C   0  0  0  0  0  0  0  0  0  0  0  0
    5.3105   -8.1656   -2.2791 O   0  0  0  0  0  0  0  0  0  0  0  0
    6.0735   -6.9234   -2.5880 C   0  0  0  0  0  0  0  0  0  0  0  0
    5.0532   -5.6703   -3.0434 C   0  0  0  0  0  0  0  0  0  0  0  0
    5.2856   -4.4896   -3.9847 C   0  0  0  0  0  0  0  0  0  0  0  0
    5.2110   -4.1854   -2.5385 C   0  0  0  0  0  0  0  0  0  0  0  0
    3.6740   -6.1699   -3.1766 N   0  0  0  0  0  0  0  0  0  0  0  0
    4.2185   -6.0341   -0.1229 O   0  0  0  0  0  0  0  0  0  0  0  0
    5.5574   -5.6404   -0.0495 C   0  0  0  0  0  0  0  0  0  0  0  0
    0.8171   -0.3576    0.8992 H   0  0  0  0  0  0  0  0  0  0  0  0
    0.6130    1.0949   -0.1068 H   0  0  0  0  0  0  0  0  0  0  0  0
    2.0882    0.0862   -0.2270 H   0  0  0  0  0  0  0  0  0  0  0  0
    0.5992   -0.3782   -2.1061 H   0  0  0  0  0  0  0  0  0  0  0  0
   -1.4779   -0.4678    1.0114 H   0  0  0  0  0  0  0  0  0  0  0  0
   -1.6958   -1.2778    3.3290 H   0  0  0  0  0  0  0  0  0  0  0  0
   -1.2209   -3.6314    3.8761 H   0  0  0  0  0  0  0  0  0  0  0  0
   -0.0209   -4.3569   -1.5054 H   0  0  0  0  0  0  0  0  0  0  0  0
    0.0935   -6.6818   -1.0446 H   0  0  0  0  0  0  0  0  0  0  0  0
   -0.7020   -5.9583    3.1281 H   0  0  0  0  0  0  0  0  0  0  0  0
   -1.2296  -10.0791    0.7831 H   0  0  0  0  0  0  0  0  0  0  0  0
   -0.2699  -11.7471   -0.8044 H   0  0  0  0  0  0  0  0  0  0  0  0
    2.2087   -6.6730    0.7976 H   0  0  0  0  0  0  0  0  0  0  0  0
    3.7207  -10.1187   -2.3350 H   0  0  0  0  0  0  0  0  0  0  0  0
    6.7202   -6.8504   -1.7048 H   0  0  0  0  0  0  0  0  0  0  0  0
    6.8363   -7.1176   -3.3587 H   0  0  0  0  0  0  0  0  0  0  0  0
    6.2278   -4.3120   -4.4728 H   0  0  0  0  0  0  0  0  0  0  0  0
    4.4180   -4.1465   -4.5515 H   0  0  0  0  0  0  0  0  0  0  0  0
    4.3316   -3.7155   -2.0918 H   0  0  0  0  0  0  0  0  0  0  0  0
    6.1161   -3.7383   -2.1293 H   0  0  0  0  0  0  0  0  0  0  0  0
    3.7443   -6.8889   -2.4865 H   0  0  0  0  0  0  0  0  0  0  0  0
    2.9396   -5.6439   -2.7081 H   0  0  0  0  0  0  0  0  0  0  0  0
    6.2110   -6.3465    0.4484 H   0  0  0  0  0  0  0  0  0  0  0  0
    5.9360   -5.5113   -1.0236 H   0  0  0  0  0  0  0  0  0  0  0  0
    5.6569   -4.5979    0.2607 H   0  0  0  0  0  0  0  0  0  0  0  0
  1  2  1  0  0  0  0
  1 34  1  0  0  0  0
  1 35  1  0  0  0  0
  1 36  1  0  0  0  0
  2  3  1  0  0  0  0
  2 37  1  0  0  0  0
  3  4  2  0  0  0  0
  3  5  1  0  0  0  0
  5  6  1  0  0  0  0
  5 10  2  0  0  0  0
  6  7  2  0  0  0  0
  6 38  1  0  0  0  0
  7  8  1  0  0  0  0
  7 39  1  0  0  0  0
  8  9  2  0  0  0  0
  8 40  1  0  0  0  0
  9 10  1  0  0  0  0
  9 14  1  0  0  0  0
 10 11  1  0  0  0  0
 11 12  2  0  0  0  0
 11 41  1  0  0  0  0
 12 13  1  0  0  0  0
 12 42  1  0  0  0  0
 13 14  2  0  0  0  0
 13 15  1  0  0  0  0
 14 43  1  0  0  0  0
 15 16  1  0  0  0  0
 16 17  1  0  0  0  0
 16 21  2  0  0  0  0
 17 18  2  0  0  0  0
 17 44  1  0  0  0  0
 18 19  1  0  0  0  0
 18 45  1  0  0  0  0
 19 20  2  0  0  0  0
 20 21  1  0  0  0  0
 20 25  1  0  0  0  0
 21 22  1  0  0  0  0
 22 23  2  0  0  0  0
 22 46  1  0  0  0  0
 23 24  1  0  0  0  0
 23 32  1  0  0  0  0
 24 25  2  0  0  0  0
 24 26  1  0  0  0  0
 25 47  1  0  0  0  0
 26 27  1  0  0  0  0
 27 28  1  0  0  0  0
 27 48  1  0  0  0  0
 27 49  1  0  0  0  0
 28 29  1  0  0  0  0
 28 30  1  0  0  0  0
 28 31  1  0  0  0  0
 29 30  1  0  0  0  0
 29 50  1  0  0  0  0
 29 51  1  0  0  0  0
 30 52  1  0  0  0  0
 30 53  1  0  0  0  0
 31 54  1  0  0  0  0
 31 55  1  0  0  0  0
 32 33  1  0  0  0  0
 33 56  1  0  0  0  0
 33 57  1  0  0  0  0
 33 58  1  0  0  0  0
M  END
>  <DRUGBANK_ID>
DB11845

>  <COMMON_NAME>
Lucitanib

>  <CAS_NUMBER>
1058137-23-7

>  <UNII>
PP449XA4BH

>  <SYNONYMS>
Lucitanib

$$$$
