
 OpenBabel10282417113D

 44 45  0  0  0  0  0  0  0  0999 V2000
   -2.5639    0.7435    0.0424 C   0  0  0  0  0  0  0  0  0  0  0  0
   -2.5324   -0.6408    0.2019 C   0  0  0  0  0  0  0  0  0  0  0  0
   -1.3177   -1.3338    0.4019 C   0  0  0  0  0  0  0  0  0  0  0  0
   -0.1427   -0.5511    0.5859 C   0  0  0  0  0  0  0  0  0  0  0  0
   -0.1695    0.8246    0.2827 C   0  0  0  0  0  0  0  0  0  0  0  0
   -1.3783    1.4671    0.0267 C   0  0  0  0  0  0  0  0  0  0  0  0
   -1.3220   -2.8740    0.1505 C   0  0  3  0  0  0  0  0  0  0  0  0
   -1.9441   -3.6572    1.3218 C   0  0  0  0  0  0  0  0  0  0  0  0
   -3.2063   -4.1293    1.1939 C   0  0  0  0  0  0  0  0  0  0  0  0
   -3.8854   -3.9205    0.0029 N   0  0  0  0  0  0  0  0  0  0  0  0
   -3.2861   -3.6462   -1.2255 C   0  0  0  0  0  0  0  0  0  0  0  0
   -1.9986   -3.1827   -1.2653 C   0  0  0  0  0  0  0  0  0  0  0  0
   -1.3713   -2.9265   -2.6322 C   0  0  0  0  0  0  0  0  0  0  0  0
   -0.0483   -2.7322   -2.8480 O   0  0  0  0  0  0  0  0  0  0  0  0
   -2.0383   -2.9416   -3.6628 O   0  0  0  0  0  0  0  0  0  0  0  0
    0.8177   -2.3253   -1.8280 C   0  0  0  0  0  0  0  0  0  0  0  0
   -4.2355   -3.9094   -2.3859 C   0  0  0  0  0  0  0  0  0  0  0  0
   -3.9924   -4.9277    2.2115 C   0  0  0  0  0  0  0  0  0  0  0  0
   -1.1136   -4.0276    2.5169 C   0  0  0  0  0  0  0  0  0  0  0  0
   -1.4666   -4.7944    3.3885 O   0  0  0  0  0  0  0  0  0  0  0  0
    0.1124   -3.4438    2.5226 O   0  0  0  0  0  0  0  0  0  0  0  0
    0.9208   -3.7490    3.6843 C   0  0  0  0  0  0  0  0  0  0  0  0
    0.3363   -3.1293    4.9476 C   0  0  0  0  0  0  0  0  0  0  0  0
    1.2761    1.7622    0.0762 Cl  0  0  0  0  0  0  0  0  0  0  0  0
    1.3908   -1.2584    1.0246 Cl  0  0  0  0  0  0  0  0  0  0  0  0
   -3.5124    1.2469   -0.1277 H   0  0  0  0  0  0  0  0  0  0  0  0
   -3.4720   -1.1829    0.0984 H   0  0  0  0  0  0  0  0  0  0  0  0
   -1.3997    2.5334   -0.1821 H   0  0  0  0  0  0  0  0  0  0  0  0
   -0.3161   -3.2778    0.1137 H   0  0  0  0  0  0  0  0  0  0  0  0
   -4.8473   -4.2573   -0.0298 H   0  0  0  0  0  0  0  0  0  0  0  0
    0.3129   -1.4985   -1.3735 H   0  0  0  0  0  0  0  0  0  0  0  0
    1.0338   -3.1836   -1.1953 H   0  0  0  0  0  0  0  0  0  0  0  0
    1.7583   -1.9039   -2.1785 H   0  0  0  0  0  0  0  0  0  0  0  0
   -4.4855   -4.9744   -2.4285 H   0  0  0  0  0  0  0  0  0  0  0  0
   -5.1599   -3.3382   -2.2412 H   0  0  0  0  0  0  0  0  0  0  0  0
   -3.9057   -3.6443   -3.3829 H   0  0  0  0  0  0  0  0  0  0  0  0
   -4.9254   -4.4086    2.4484 H   0  0  0  0  0  0  0  0  0  0  0  0
   -4.2298   -5.9165    1.8034 H   0  0  0  0  0  0  0  0  0  0  0  0
   -3.5106   -5.0995    3.1689 H   0  0  0  0  0  0  0  0  0  0  0  0
    1.0480   -4.8345    3.7874 H   0  0  0  0  0  0  0  0  0  0  0  0
    1.9197   -3.3307    3.5126 H   0  0  0  0  0  0  0  0  0  0  0  0
   -0.6591   -3.5211    5.1758 H   0  0  0  0  0  0  0  0  0  0  0  0
    0.9689   -3.3297    5.8161 H   0  0  0  0  0  0  0  0  0  0  0  0
    0.2212   -2.0492    4.8204 H   0  0  0  0  0  0  0  0  0  0  0  0
  1  2  2  0  0  0  0
  1 26  1  0  0  0  0
  2  3  1  0  0  0  0
  2 27  1  0  0  0  0
  3  7  1  0  0  0  0
  3  4  2  0  0  0  0
  4  5  1  0  0  0  0
  4 25  1  0  0  0  0
  5  6  2  0  0  0  0
  5 24  1  0  0  0  0
  6  1  1  0  0  0  0
  6 28  1  0  0  0  0
  7  8  1  0  0  0  0
  7 29  1  0  0  0  0
  8  9  2  0  0  0  0
  8 19  1  0  0  0  0
  9 18  1  0  0  0  0
  9 10  1  0  0  0  0
 10 11  1  0  0  0  0
 10 30  1  0  0  0  0
 11 17  1  0  0  0  0
 11 12  2  0  0  0  0
 12 13  1  0  0  0  0
 12  7  1  0  0  0  0
 13 14  1  0  0  0  0
 13 15  2  0  0  0  0
 14 16  1  0  0  0  0
 16 31  1  0  0  0  0
 16 32  1  0  0  0  0
 16 33  1  0  0  0  0
 17 34  1  0  0  0  0
 17 35  1  0  0  0  0
 17 36  1  0  0  0  0
 18 37  1  0  0  0  0
 18 38  1  0  0  0  0
 18 39  1  0  0  0  0
 19 20  2  0  0  0  0
 19 21  1  0  0  0  0
 21 22  1  0  0  0  0
 22 23  1  0  0  0  0
 22 40  1  0  0  0  0
 22 41  1  0  0  0  0
 23 42  1  0  0  0  0
 23 43  1  0  0  0  0
 23 44  1  0  0  0  0
M  END
>  <DRUGBANK_ID>
DB01023

>  <SECONDARY_ACCESSION_NUMBERS>
APRD00374

>  <COMMON_NAME>
Felodipine

>  <CAS_NUMBER>
72509-76-3

>  <UNII>
OL961R6O2C

>  <SYNONYMS>
(Â±)-ethyl methyl 4-(2,3-dichlorophenyl)-1,4-dihydro-2,6-dimethyl-3,5-pyridinedicarboxylate; 3-ethyl 5-methyl 4-(2,3-dichlorophenyl)-2,6-dimethyl-1,4-dihydro-3,5-pyridinedicarboxylate; 4-(2,3-dichlorophenyl)-1,4-dihydro-2,6-dimethyl-3,5-pyridinedicarboxylic acid ethyl methyl ester; Felodipina; Felodipine; Felodipino; Felodipinum

$$$$
