
 OpenBabel10282417233D

 61 64  0  0  0  0  0  0  0  0999 V2000
   -1.2201    1.3173    0.0367 N   0  0  0  0  0  0  0  0  0  0  0  0
   -2.3691    0.6121    0.0407 C   0  0  0  0  0  0  0  0  0  0  0  0
   -2.3457   -0.7600    0.0472 C   0  0  0  0  0  0  0  0  0  0  0  0
   -1.1507   -1.4711    0.0197 C   0  0  0  0  0  0  0  0  0  0  0  0
    0.0518   -0.7549    0.0438 C   0  0  0  0  0  0  0  0  0  0  0  0
    1.3156   -1.3870    0.0194 C   0  0  0  0  0  0  0  0  0  0  0  0
    2.4885   -0.6461    0.0120 C   0  0  0  0  0  0  0  0  0  0  0  0
    2.4102    0.7351    0.0038 C   0  0  0  0  0  0  0  0  0  0  0  0
    1.1582    1.3678    0.0128 C   0  0  0  0  0  0  0  0  0  0  0  0
   -0.0373    0.6495    0.0430 C   0  0  0  0  0  0  0  0  0  0  0  0
   -1.3046   -2.8274   -0.2056 N   0  0  0  0  0  0  0  0  0  0  0  0
   -1.2748   -3.1982   -1.6166 C   0  0  0  0  0  0  0  0  0  0  0  0
   -2.2787   -4.3322   -1.8055 C   0  0  0  0  0  0  0  0  0  0  0  0
   -1.9024   -5.5123   -0.8928 C   0  0  0  0  0  0  0  0  0  0  0  0
   -1.6592   -5.0374    0.5492 C   0  0  0  0  0  0  0  0  0  0  0  0
   -0.7740   -3.8199    0.6893 C   0  0  0  0  0  0  0  0  0  0  0  0
   -2.9325   -6.5712   -0.9777 N   0  0  0  0  0  0  0  0  0  0  0  0
   -2.6738   -7.8316   -0.2441 C   0  0  0  0  0  0  0  0  0  0  0  0
   -2.6706   -7.6977    1.2924 C   0  0  0  0  0  0  0  0  0  0  0  0
   -1.3694   -8.4650   -0.7517 C   0  0  0  0  0  0  0  0  0  0  0  0
   -3.8357   -8.8055   -0.5294 C   0  0  0  0  0  0  0  0  0  0  0  0
   -3.5473    1.3180   -0.0169 N   0  0  0  0  0  0  0  0  0  0  0  0
   -4.8769    0.7413   -0.0110 C   0  0  0  0  0  0  0  0  0  0  0  0
   -5.6235    1.0889    1.2539 C   0  0  0  0  0  0  0  0  0  0  0  0
   -5.7457    2.4236    1.6624 C   0  0  0  0  0  0  0  0  0  0  0  0
   -6.4188    2.7450    2.8403 C   0  0  0  0  0  0  0  0  0  0  0  0
   -6.9945    1.7353    3.6074 C   0  0  0  0  0  0  0  0  0  0  0  0
   -6.9179    0.4063    3.1983 C   0  0  0  0  0  0  0  0  0  0  0  0
   -6.2338    0.0831    2.0241 C   0  0  0  0  0  0  0  0  0  0  0  0
   -7.8014    2.1351    5.0729 Cl  0  0  0  0  0  0  0  0  0  0  0  0
   -3.2496   -1.3525    0.0196 H   0  0  0  0  0  0  0  0  0  0  0  0
    1.3968   -2.4644    0.0007 H   0  0  0  0  0  0  0  0  0  0  0  0
    3.4476   -1.1564    0.0047 H   0  0  0  0  0  0  0  0  0  0  0  0
    3.3211    1.3272   -0.0143 H   0  0  0  0  0  0  0  0  0  0  0  0
    1.1172    2.4526   -0.0129 H   0  0  0  0  0  0  0  0  0  0  0  0
   -0.2620   -3.5184   -1.8908 H   0  0  0  0  0  0  0  0  0  0  0  0
   -1.5457   -2.3578   -2.2651 H   0  0  0  0  0  0  0  0  0  0  0  0
   -2.2765   -4.6378   -2.8581 H   0  0  0  0  0  0  0  0  0  0  0  0
   -3.2879   -3.9711   -1.5672 H   0  0  0  0  0  0  0  0  0  0  0  0
   -0.9605   -5.8969   -1.2996 H   0  0  0  0  0  0  0  0  0  0  0  0
   -2.6205   -4.8632    1.0503 H   0  0  0  0  0  0  0  0  0  0  0  0
   -1.0825   -5.7839    1.0779 H   0  0  0  0  0  0  0  0  0  0  0  0
   -0.7732   -3.5055    1.7406 H   0  0  0  0  0  0  0  0  0  0  0  0
    0.2452   -4.1177    0.4229 H   0  0  0  0  0  0  0  0  0  0  0  0
   -3.8416   -6.1898   -0.7141 H   0  0  0  0  0  0  0  0  0  0  0  0
   -3.5340   -7.1155    1.6366 H   0  0  0  0  0  0  0  0  0  0  0  0
   -2.7007   -8.6758    1.7789 H   0  0  0  0  0  0  0  0  0  0  0  0
   -1.7679   -7.2642    1.7076 H   0  0  0  0  0  0  0  0  0  0  0  0
   -1.4324   -8.6899   -1.8241 H   0  0  0  0  0  0  0  0  0  0  0  0
   -0.5027   -7.8130   -0.6018 H   0  0  0  0  0  0  0  0  0  0  0  0
   -1.1523   -9.3971   -0.2232 H   0  0  0  0  0  0  0  0  0  0  0  0
   -3.9309   -9.0531   -1.5899 H   0  0  0  0  0  0  0  0  0  0  0  0
   -3.6763   -9.7464    0.0149 H   0  0  0  0  0  0  0  0  0  0  0  0
   -4.7918   -8.3953   -0.1807 H   0  0  0  0  0  0  0  0  0  0  0  0
   -3.4299    2.3198    0.0021 H   0  0  0  0  0  0  0  0  0  0  0  0
   -5.4407    1.1036   -0.8771 H   0  0  0  0  0  0  0  0  0  0  0  0
   -4.8778   -0.3460   -0.1185 H   0  0  0  0  0  0  0  0  0  0  0  0
   -5.3012    3.2190    1.0693 H   0  0  0  0  0  0  0  0  0  0  0  0
   -6.4812    3.7828    3.1534 H   0  0  0  0  0  0  0  0  0  0  0  0
   -7.3790   -0.3801    3.7901 H   0  0  0  0  0  0  0  0  0  0  0  0
   -6.1753   -0.9611    1.7214 H   0  0  0  0  0  0  0  0  0  0  0  0
  1  2  2  0  0  0  0
  1 10  1  0  0  0  0
  2  3  1  0  0  0  0
  2 22  1  0  0  0  0
  3  4  2  0  0  0  0
  3 31  1  0  0  0  0
  4  5  1  0  0  0  0
  4 11  1  0  0  0  0
  5  6  2  0  0  0  0
  5 10  1  0  0  0  0
  6  7  1  0  0  0  0
  6 32  1  0  0  0  0
  7  8  2  0  0  0  0
  7 33  1  0  0  0  0
  8  9  1  0  0  0  0
  8 34  1  0  0  0  0
  9 10  2  0  0  0  0
  9 35  1  0  0  0  0
 11 12  1  0  0  0  0
 11 16  1  0  0  0  0
 12 13  1  0  0  0  0
 12 36  1  0  0  0  0
 12 37  1  0  0  0  0
 13 14  1  0  0  0  0
 13 38  1  0  0  0  0
 13 39  1  0  0  0  0
 14 15  1  0  0  0  0
 14 17  1  0  0  0  0
 14 40  1  0  0  0  0
 15 16  1  0  0  0  0
 15 41  1  0  0  0  0
 15 42  1  0  0  0  0
 16 43  1  0  0  0  0
 16 44  1  0  0  0  0
 17 18  1  0  0  0  0
 17 45  1  0  0  0  0
 18 19  1  0  0  0  0
 18 21  1  0  0  0  0
 18 20  1  0  0  0  0
 19 46  1  0  0  0  0
 19 47  1  0  0  0  0
 19 48  1  0  0  0  0
 20 49  1  0  0  0  0
 20 50  1  0  0  0  0
 20 51  1  0  0  0  0
 21 52  1  0  0  0  0
 21 53  1  0  0  0  0
 21 54  1  0  0  0  0
 22 23  1  0  0  0  0
 22 55  1  0  0  0  0
 23 24  1  0  0  0  0
 23 56  1  0  0  0  0
 23 57  1  0  0  0  0
 24 25  1  0  0  0  0
 24 29  2  0  0  0  0
 25 26  2  0  0  0  0
 25 58  1  0  0  0  0
 26 27  1  0  0  0  0
 26 59  1  0  0  0  0
 27 28  2  0  0  0  0
 27 30  1  0  0  0  0
 28 29  1  0  0  0  0
 28 60  1  0  0  0  0
 29 61  1  0  0  0  0
M  END
>  <DRUGBANK_ID>
DB16458

>  <COMMON_NAME>
Ezurpimtrostat

>  <CAS_NUMBER>
1914148-72-3

>  <UNII>
MS6LGW5JFK

>  <SYNONYMS>
Chloroquine analog

$$$$
