
 OpenBabel10282417133D

 30 30  0  0  0  0  0  0  0  0999 V2000
   -1.6924    0.3647    0.2623 C   0  0  2  0  0  0  0  0  0  0  0  0
   -2.1042    0.4250   -1.0957 O   0  0  0  0  0  0  0  0  0  0  0  0
   -0.4937    1.2838    0.5831 C   0  0  1  0  0  0  0  0  0  0  0  0
    0.7580    0.7694   -0.1456 C   0  0  1  0  0  0  0  0  0  0  0  0
    1.9008    1.5771    0.1529 O   0  0  0  0  0  0  0  0  0  0  0  0
    0.9981   -0.6988    0.2476 C   0  0  2  0  0  0  0  0  0  0  0  0
    2.1137   -1.2381   -0.4576 O   0  0  0  0  0  0  0  0  0  0  0  0
   -0.2653   -1.5340   -0.0142 C   0  0  2  0  0  0  0  0  0  0  0  0
   -1.4154   -0.9813    0.6462 O   0  0  0  0  0  0  0  0  0  0  0  0
   -0.0663   -2.9704    0.4771 C   0  0  0  0  0  0  0  0  0  0  0  0
   -1.2279   -3.7483    0.1988 O   0  0  0  0  0  0  0  0  0  0  0  0
   -0.7701    2.6843    0.2696 N   0  0  0  0  0  0  0  0  0  0  0  0
   -0.7576    3.7424    1.1300 C   0  0  0  0  0  0  0  0  0  0  0  0
   -1.0099    4.8735    0.7175 O   0  0  0  0  0  0  0  0  0  0  0  0
   -0.4447    3.4689    2.5759 C   0  0  0  0  0  0  0  0  0  0  0  0
   -2.5543    0.6939    0.8532 H   0  0  0  0  0  0  0  0  0  0  0  0
   -1.3387    0.3086   -1.6756 H   0  0  0  0  0  0  0  0  0  0  0  0
   -0.2917    1.1977    1.6561 H   0  0  0  0  0  0  0  0  0  0  0  0
    0.6327    0.8449   -1.2315 H   0  0  0  0  0  0  0  0  0  0  0  0
    2.1186    1.4916    1.0961 H   0  0  0  0  0  0  0  0  0  0  0  0
    1.2529   -0.7333    1.3148 H   0  0  0  0  0  0  0  0  0  0  0  0
    1.9544   -1.1574   -1.4146 H   0  0  0  0  0  0  0  0  0  0  0  0
   -0.4771   -1.5837   -1.0897 H   0  0  0  0  0  0  0  0  0  0  0  0
    0.7820   -3.4408   -0.0282 H   0  0  0  0  0  0  0  0  0  0  0  0
    0.1034   -2.9976    1.5579 H   0  0  0  0  0  0  0  0  0  0  0  0
   -1.9736   -3.2810    0.6210 H   0  0  0  0  0  0  0  0  0  0  0  0
   -0.9915    2.9352   -0.6887 H   0  0  0  0  0  0  0  0  0  0  0  0
   -1.1877    2.7834    2.9945 H   0  0  0  0  0  0  0  0  0  0  0  0
    0.5583    3.0425    2.6685 H   0  0  0  0  0  0  0  0  0  0  0  0
   -0.4774    4.4006    3.1459 H   0  0  0  0  0  0  0  0  0  0  0  0
  1  2  1  0  0  0  0
  1 16  1  1  0  0  0
  2 17  1  0  0  0  0
  3  1  1  0  0  0  0
  3 12  1  0  0  0  0
  3 18  1  1  0  0  0
  4  3  1  0  0  0  0
  4  5  1  0  0  0  0
  4 19  1  6  0  0  0
  5 20  1  0  0  0  0
  6  4  1  0  0  0  0
  6  7  1  0  0  0  0
  6 21  1  1  0  0  0
  7 22  1  0  0  0  0
  8  6  1  0  0  0  0
  8 10  1  0  0  0  0
  8 23  1  6  0  0  0
  9  1  1  0  0  0  0
  9  8  1  0  0  0  0
 10 24  1  0  0  0  0
 10 25  1  0  0  0  0
 11 10  1  0  0  0  0
 11 26  1  0  0  0  0
 12 27  1  0  0  0  0
 13 12  1  0  0  0  0
 14 13  2  0  0  0  0
 15 13  1  0  0  0  0
 15 28  1  0  0  0  0
 15 29  1  0  0  0  0
 15 30  1  0  0  0  0
M  END
>  <DRUGBANK_ID>
DB03740

>  <SECONDARY_ACCESSION_NUMBERS>
EXPT02319

>  <COMMON_NAME>
N-acetyl-alpha-D-glucosamine

>  <CAS_NUMBER>
10036-64-3

>  <UNII>
T13TI5GH3D

>  <SYNONYMS>
2-(acetylamino)-2-deoxy-A-D-glucopyranose; 2-(acetylamino)-2-deoxy-α-D-glucopyranose; N-acetyl-α-D-glucosamine; α-D-GlcNAc; α-GlcNAc

$$$$
