
 OpenBabel10282417203D

 30 31  0  0  0  0  0  0  0  0999 V2000
    1.0360   -0.0723    0.1050 C   0  0  0  0  0  0  0  0  0  0  0  0
    0.3694    1.1290    0.1606 N   0  0  0  0  0  0  0  0  0  0  0  0
   -1.0616    1.1747    0.1018 C   0  0  0  0  0  0  0  0  0  0  0  0
   -1.5859    1.9157    1.2502 N   0  0  0  0  0  0  0  0  0  0  0  0
   -3.0738    1.8955    1.1958 C   0  0  0  0  0  0  0  0  0  0  0  0
   -3.6324    2.6947    0.0017 C   0  0  0  0  0  0  0  0  0  0  0  0
   -3.1650    4.0515    0.0179 O   0  0  0  0  0  0  0  0  0  0  0  0
   -1.7321    4.1119    0.0560 C   0  0  0  0  0  0  0  0  0  0  0  0
   -1.1768    3.3361    1.2594 C   0  0  0  0  0  0  0  0  0  0  0  0
    0.4599   -1.1589    0.0542 O   0  0  0  0  0  0  0  0  0  0  0  0
    2.5235   -0.0278    0.0909 C   0  0  0  0  0  0  0  0  0  0  0  0
    3.2125   -1.2351    0.0853 C   0  0  0  0  0  0  0  0  0  0  0  0
    4.5672   -1.3091    0.0669 N   0  0  0  0  0  0  0  0  0  0  0  0
    5.2043   -0.1189    0.0597 C   0  0  0  0  0  0  0  0  0  0  0  0
    4.5196    1.0909    0.0671 C   0  0  0  0  0  0  0  0  0  0  0  0
    3.1616    1.1784    0.0773 N   0  0  0  0  0  0  0  0  0  0  0  0
    0.9159    1.9791    0.0956 H   0  0  0  0  0  0  0  0  0  0  0  0
   -1.3238    1.6091   -0.8665 H   0  0  0  0  0  0  0  0  0  0  0  0
   -1.4733    0.1597    0.1066 H   0  0  0  0  0  0  0  0  0  0  0  0
   -3.4626    2.3307    2.1270 H   0  0  0  0  0  0  0  0  0  0  0  0
   -3.4428    0.8626    1.1688 H   0  0  0  0  0  0  0  0  0  0  0  0
   -3.3586    2.2347   -0.9545 H   0  0  0  0  0  0  0  0  0  0  0  0
   -4.7259    2.7119    0.0366 H   0  0  0  0  0  0  0  0  0  0  0  0
   -1.4364    5.1625    0.1212 H   0  0  0  0  0  0  0  0  0  0  0  0
   -1.3307    3.7302   -0.8892 H   0  0  0  0  0  0  0  0  0  0  0  0
   -1.5502    3.7946    2.1860 H   0  0  0  0  0  0  0  0  0  0  0  0
   -0.0869    3.4282    1.3102 H   0  0  0  0  0  0  0  0  0  0  0  0
    2.6887   -2.1855    0.0969 H   0  0  0  0  0  0  0  0  0  0  0  0
    6.2883   -0.1659    0.0484 H   0  0  0  0  0  0  0  0  0  0  0  0
    5.0644    2.0297    0.0666 H   0  0  0  0  0  0  0  0  0  0  0  0
  1  2  1  0  0  0  0
  1 10  2  0  0  0  0
  1 11  1  0  0  0  0
  2  3  1  0  0  0  0
  2 17  1  0  0  0  0
  3  4  1  0  0  0  0
  3 18  1  0  0  0  0
  3 19  1  0  0  0  0
  4  5  1  0  0  0  0
  4  9  1  0  0  0  0
  5  6  1  0  0  0  0
  5 20  1  0  0  0  0
  5 21  1  0  0  0  0
  6  7  1  0  0  0  0
  6 22  1  0  0  0  0
  6 23  1  0  0  0  0
  7  8  1  0  0  0  0
  8  9  1  0  0  0  0
  8 24  1  0  0  0  0
  8 25  1  0  0  0  0
  9 26  1  0  0  0  0
  9 27  1  0  0  0  0
 11 12  1  0  0  0  0
 11 16  2  0  0  0  0
 12 13  2  0  0  0  0
 12 28  1  0  0  0  0
 13 14  1  0  0  0  0
 14 15  2  0  0  0  0
 14 29  1  0  0  0  0
 15 16  1  0  0  0  0
 15 30  1  0  0  0  0
M  END
>  <DRUGBANK_ID>
DB13417

>  <COMMON_NAME>
Morinamide

>  <CAS_NUMBER>
952-54-5

>  <UNII>
8CFL28PA3W

>  <SYNONYMS>
Morinamide

$$$$
