
 OpenBabel10282417163D

 24 25  0  0  0  0  0  0  0  0999 V2000
    0.0267    0.6905   -0.0007 C   0  0  0  0  0  0  0  0  0  0  0  0
    0.0310   -0.6997   -0.0004 C   0  0  0  0  0  0  0  0  0  0  0  0
   -1.2346    1.4363   -0.0010 C   0  0  0  0  0  0  0  0  0  0  0  0
    1.2307    1.4077   -0.0009 C   0  0  0  0  0  0  0  0  0  0  0  0
   -1.2455   -1.4452   -0.0017 C   0  0  0  0  0  0  0  0  0  0  0  0
    1.2575   -1.3808    0.0003 C   0  0  0  0  0  0  0  0  0  0  0  0
   -2.5136    0.6779   -0.0001 C   0  0  0  0  0  0  0  0  0  0  0  0
   -1.2258    2.6651   -0.0011 O   0  0  0  0  0  0  0  0  0  0  0  0
    2.4460    0.7304   -0.0008 C   0  0  0  0  0  0  0  0  0  0  0  0
   -2.5266   -0.6682    0.0013 C   0  0  0  0  0  0  0  0  0  0  0  0
   -1.2471   -2.6733   -0.0060 O   0  0  0  0  0  0  0  0  0  0  0  0
    2.4600   -0.6636    0.0001 C   0  0  0  0  0  0  0  0  0  0  0  0
   -3.7206    1.5705   -0.0010 C   0  0  0  0  0  0  0  0  0  0  0  0
   -3.7801   -1.4989    0.0058 C   0  0  0  0  0  0  0  0  0  0  0  0
    1.2187    2.4967   -0.0015 H   0  0  0  0  0  0  0  0  0  0  0  0
    1.2856   -2.4695    0.0009 H   0  0  0  0  0  0  0  0  0  0  0  0
    3.3763    1.2936   -0.0014 H   0  0  0  0  0  0  0  0  0  0  0  0
    3.4112   -1.1915    0.0003 H   0  0  0  0  0  0  0  0  0  0  0  0
   -3.7154    2.2049    0.8910 H   0  0  0  0  0  0  0  0  0  0  0  0
   -3.7139    2.2044   -0.8934 H   0  0  0  0  0  0  0  0  0  0  0  0
   -4.6724    1.0412   -0.0022 H   0  0  0  0  0  0  0  0  0  0  0  0
   -3.8300   -2.1281   -0.8878 H   0  0  0  0  0  0  0  0  0  0  0  0
   -3.8230   -2.1281    0.8997 H   0  0  0  0  0  0  0  0  0  0  0  0
   -4.6960   -0.9057    0.0099 H   0  0  0  0  0  0  0  0  0  0  0  0
  1  2  1  0  0  0  0
  1  3  1  0  0  0  0
  1  4  2  0  0  0  0
  2  5  1  0  0  0  0
  2  6  2  0  0  0  0
  3  7  1  0  0  0  0
  3  8  2  0  0  0  0
  4  9  1  0  0  0  0
  4 15  1  0  0  0  0
  5 10  1  0  0  0  0
  5 11  2  0  0  0  0
  6 12  1  0  0  0  0
  6 16  1  0  0  0  0
  7 13  1  0  0  0  0
  7 10  2  0  0  0  0
  9 12  2  0  0  0  0
  9 17  1  0  0  0  0
 10 14  1  0  0  0  0
 12 18  1  0  0  0  0
 13 19  1  0  0  0  0
 13 20  1  0  0  0  0
 13 21  1  0  0  0  0
 14 22  1  0  0  0  0
 14 23  1  0  0  0  0
 14 24  1  0  0  0  0
M  END
>  <DRUGBANK_ID>
DB07669

>  <COMMON_NAME>
2,3-Dimethyl-1,4-naphthoquinone

>  <CAS_NUMBER>
2197-57-1

>  <UNII>
SY9IO0B44O

>  <SYNONYMS>
2,3-Dimethylnaphthoquinone

$$$$
