ZYS
 OpenBabel10282417173D

 36 37  0  0  0  0  0  0  0  0999 V2000
    0.9618   -0.1099   -0.0622 C   0  0  0  0  0  0  0  0  0  0  0  0
    0.5744    0.5185   -1.4056 C   0  0  0  0  0  0  0  0  0  0  0  0
    1.0460   -0.3974   -2.5451 C   0  0  0  0  0  0  0  0  0  0  0  0
   -0.9672    0.5772   -1.4492 C   0  0  0  0  0  0  0  0  0  0  0  0
    1.1736    1.8547   -1.6346 N   0  0  0  0  0  0  0  0  0  0  0  0
    1.8600    2.5531   -0.6816 C   0  0  0  0  0  0  0  0  0  0  0  0
    3.3430    1.9867    0.0181 S   0  0  0  0  0  0  0  0  0  0  0  0
    1.5400    3.7694   -0.2964 N   0  0  0  0  0  0  0  0  0  0  0  0
    2.3893    4.1969    0.7005 C   0  0  0  0  0  0  0  0  0  0  0  0
    2.1578    5.4102    1.2150 N   0  0  0  0  0  0  0  0  0  0  0  0
    3.3917    3.3291    1.0849 C   0  0  0  0  0  0  0  0  0  0  0  0
    4.4179    3.3857    2.1100 C   0  0  0  0  0  0  0  0  0  0  0  0
    5.2557    2.4968    2.3150 O   0  0  0  0  0  0  0  0  0  0  0  0
    4.5336    4.5731    2.9916 C   0  0  0  0  0  0  0  0  0  0  0  0
    3.4781    4.9555    3.8314 C   0  0  0  0  0  0  0  0  0  0  0  0
    3.5898    6.1086    4.6102 C   0  0  0  0  0  0  0  0  0  0  0  0
    4.7852    6.8260    4.6231 C   0  0  0  0  0  0  0  0  0  0  0  0
    5.8609    6.4088    3.8376 C   0  0  0  0  0  0  0  0  0  0  0  0
    5.7223    5.3120    2.9844 C   0  0  0  0  0  0  0  0  0  0  0  0
    0.4915   -1.0858    0.0869 H   0  0  0  0  0  0  0  0  0  0  0  0
    0.6617    0.5360    0.7720 H   0  0  0  0  0  0  0  0  0  0  0  0
    2.0363   -0.2930   -0.0078 H   0  0  0  0  0  0  0  0  0  0  0  0
    0.6775   -1.4204   -2.4070 H   0  0  0  0  0  0  0  0  0  0  0  0
    0.6875   -0.0435   -3.5192 H   0  0  0  0  0  0  0  0  0  0  0  0
    2.1394   -0.4343   -2.5896 H   0  0  0  0  0  0  0  0  0  0  0  0
   -1.3731    1.2273   -0.6669 H   0  0  0  0  0  0  0  0  0  0  0  0
   -1.3468    0.9311   -2.4138 H   0  0  0  0  0  0  0  0  0  0  0  0
   -1.3908   -0.4252   -1.2885 H   0  0  0  0  0  0  0  0  0  0  0  0
    0.6369    2.4321   -2.2767 H   0  0  0  0  0  0  0  0  0  0  0  0
    1.4198    5.9916    0.8405 H   0  0  0  0  0  0  0  0  0  0  0  0
    2.8210    5.9155    1.7900 H   0  0  0  0  0  0  0  0  0  0  0  0
    2.5420    4.4010    3.8294 H   0  0  0  0  0  0  0  0  0  0  0  0
    2.7466    6.4443    5.2098 H   0  0  0  0  0  0  0  0  0  0  0  0
    4.8812    7.7107    5.2491 H   0  0  0  0  0  0  0  0  0  0  0  0
    6.8094    6.9380    3.8948 H   0  0  0  0  0  0  0  0  0  0  0  0
    6.5376    5.0398    2.3170 H   0  0  0  0  0  0  0  0  0  0  0  0
  1  2  1  0  0  0  0
  1 20  1  0  0  0  0
  1 21  1  0  0  0  0
  1 22  1  0  0  0  0
  2  3  1  0  0  0  0
  2  4  1  0  0  0  0
  2  5  1  0  0  0  0
  3 23  1  0  0  0  0
  3 24  1  0  0  0  0
  3 25  1  0  0  0  0
  4 26  1  0  0  0  0
  4 27  1  0  0  0  0
  4 28  1  0  0  0  0
  5  6  1  0  0  0  0
  5 29  1  0  0  0  0
  6  7  1  0  0  0  0
  6  8  2  0  0  0  0
  7 11  1  0  0  0  0
  8  9  1  0  0  0  0
  9 10  1  0  0  0  0
  9 11  2  0  0  0  0
 10 30  1  0  0  0  0
 10 31  1  0  0  0  0
 11 12  1  0  0  0  0
 12 13  2  0  0  0  0
 12 14  1  0  0  0  0
 14 15  1  0  0  0  0
 14 19  2  0  0  0  0
 15 16  2  0  0  0  0
 15 32  1  0  0  0  0
 16 17  1  0  0  0  0
 16 33  1  0  0  0  0
 17 18  2  0  0  0  0
 17 34  1  0  0  0  0
 18 19  1  0  0  0  0
 18 35  1  0  0  0  0
 19 36  1  0  0  0  0
M  END
>  <DRUGBANK_ID>
DB08778

>  <COMMON_NAME>
[4-amino-2-(tert-butylamino)-1,3-thiazol-5-yl](phenyl)methanone

>  <UNII>
VVD6G32BMR

$$$$
