
 OpenBabel10282417133D

 17 16  0  0  0  0  0  0  0  0999 V2000
    1.0051    0.0447    0.1135 C   0  0  0  0  0  0  0  0  0  0  0  0
    1.0051    0.0493   -2.3718 C   0  0  0  0  0  0  0  0  0  0  0  0
   -1.0241    0.7644   -1.1278 C   0  0  0  0  0  0  0  0  0  0  0  0
    0.4978    0.7644   -1.1278 N   0  3  0  0  0  0  0  0  0  0  0  0
    1.0051    2.1993   -1.1252 C   0  0  0  0  0  0  0  0  0  0  0  0
    0.6314   -0.9834    0.0949 H   0  0  0  0  0  0  0  0  0  0  0  0
    0.6314    0.5715    0.9965 H   0  0  0  0  0  0  0  0  0  0  0  0
    2.0990    0.0544    0.0968 H   0  0  0  0  0  0  0  0  0  0  0  0
    0.6314   -0.9788   -2.3570 H   0  0  0  0  0  0  0  0  0  0  0  0
    0.6314    0.5794   -3.2528 H   0  0  0  0  0  0  0  0  0  0  0  0
    2.0990    0.0589   -2.3551 H   0  0  0  0  0  0  0  0  0  0  0  0
   -1.3705    1.2816   -0.2282 H   0  0  0  0  0  0  0  0  0  0  0  0
   -1.3705    1.2850   -2.0256 H   0  0  0  0  0  0  0  0  0  0  0  0
   -1.3705   -0.2733   -1.1298 H   0  0  0  0  0  0  0  0  0  0  0  0
    0.6314    2.6972   -0.2255 H   0  0  0  0  0  0  0  0  0  0  0  0
    2.0990    2.1800   -1.1252 H   0  0  0  0  0  0  0  0  0  0  0  0
    0.6314    2.7006   -2.0229 H   0  0  0  0  0  0  0  0  0  0  0  0
  1  6  1  0  0  0  0
  1  7  1  0  0  0  0
  1  8  1  0  0  0  0
  2  9  1  0  0  0  0
  2 10  1  0  0  0  0
  2 11  1  0  0  0  0
  3 12  1  0  0  0  0
  3 13  1  0  0  0  0
  3 14  1  0  0  0  0
  4  1  1  0  0  0  0
  4  2  1  0  0  0  0
  4  3  1  0  0  0  0
  4  5  1  0  0  0  0
  5 15  1  0  0  0  0
  5 16  1  0  0  0  0
  5 17  1  0  0  0  0
M  CHG  1   4   1
M  END
>  <DRUGBANK_ID>
DB03095

>  <SECONDARY_ACCESSION_NUMBERS>
EXPT03069

>  <COMMON_NAME>
Tetramethylammonium

>  <CAS_NUMBER>
51-92-3

>  <UNII>
H0W55235FC

>  <SYNONYMS>
Trimethylaminomethane

$$$$
