
 OpenBabel10282417213D

 46 48  0  0  0  0  0  0  0  0999 V2000
    0.7710   -0.0567   -0.7072 C   0  0  0  0  0  0  0  0  0  0  0  0
    0.1564    1.0059   -1.4315 N   0  0  0  0  0  0  0  0  0  0  0  0
   -1.2670    0.8903   -1.2213 C   0  0  0  0  0  0  0  0  0  0  0  0
    0.7510    2.2793   -0.9956 C   0  0  0  0  0  0  0  0  0  0  0  0
    0.4430    2.7352    0.4427 C   0  0  0  0  0  0  0  0  0  0  0  0
    1.0810    1.9853    1.6545 C   0  0  0  0  0  0  0  0  0  0  0  0
    2.6523    1.8000    1.7199 C   0  0  3  0  0  0  0  0  0  0  0  0
    3.1325    2.9763    2.5605 C   0  0  0  0  0  0  0  0  0  0  0  0
    2.7550    4.2960    2.1806 C   0  0  0  0  0  0  0  0  0  0  0  0
    3.0081    5.4006    2.9760 C   0  0  0  0  0  0  0  0  0  0  0  0
    3.7471    5.2221    4.1264 C   0  0  0  0  0  0  0  0  0  0  0  0
    4.1951    3.9479    4.4768 C   0  0  0  0  0  0  0  0  0  0  0  0
    3.8801    2.8159    3.7181 C   0  0  0  0  0  0  0  0  0  0  0  0
    4.5049    1.2842    4.3393 S   0  0  0  0  0  0  0  0  0  0  0  0
    3.9026    0.0751    3.2118 C   0  0  0  0  0  0  0  0  0  0  0  0
    3.1080    0.3829    2.1367 C   0  0  0  0  0  0  0  0  0  0  0  0
    2.8105   -0.7473    1.3567 C   0  0  0  0  0  0  0  0  0  0  0  0
    3.1456   -2.0817    1.5628 C   0  0  0  0  0  0  0  0  0  0  0  0
    3.9193   -2.3549    2.6318 C   0  0  0  0  0  0  0  0  0  0  0  0
    4.3053   -1.2769    3.4494 C   0  0  0  0  0  0  0  0  0  0  0  0
    2.6252   -2.8973    0.5970 O   0  0  0  0  0  0  0  0  0  0  0  0
    2.9096   -4.2754    0.6975 C   0  0  0  0  0  0  0  0  0  0  0  0
    3.2830    2.0337    0.4589 O   0  0  0  0  0  0  0  0  0  0  0  0
    0.5598   -1.0822   -1.0133 H   0  0  0  0  0  0  0  0  0  0  0  0
    0.4707   -0.0339    0.3456 H   0  0  0  0  0  0  0  0  0  0  0  0
    1.8303    0.1314   -0.8860 H   0  0  0  0  0  0  0  0  0  0  0  0
   -1.5699    1.1223   -0.1967 H   0  0  0  0  0  0  0  0  0  0  0  0
   -1.7754    1.5357   -1.9311 H   0  0  0  0  0  0  0  0  0  0  0  0
   -1.5757   -0.1458   -1.4035 H   0  0  0  0  0  0  0  0  0  0  0  0
    1.8342    2.2620   -1.1691 H   0  0  0  0  0  0  0  0  0  0  0  0
    0.4227    3.0526   -1.6975 H   0  0  0  0  0  0  0  0  0  0  0  0
    0.6765    3.7997    0.4791 H   0  0  0  0  0  0  0  0  0  0  0  0
   -0.6413    2.7494    0.5967 H   0  0  0  0  0  0  0  0  0  0  0  0
    0.7508    2.5437    2.5488 H   0  0  0  0  0  0  0  0  0  0  0  0
    0.5656    1.0435    1.8572 H   0  0  0  0  0  0  0  0  0  0  0  0
    2.2359    4.4884    1.2496 H   0  0  0  0  0  0  0  0  0  0  0  0
    2.6371    6.3789    2.6821 H   0  0  0  0  0  0  0  0  0  0  0  0
    3.9965    6.0727    4.7490 H   0  0  0  0  0  0  0  0  0  0  0  0
    4.8006    3.8327    5.3703 H   0  0  0  0  0  0  0  0  0  0  0  0
    2.3182   -0.6847    0.4507 H   0  0  0  0  0  0  0  0  0  0  0  0
    4.2508   -3.3645    2.8518 H   0  0  0  0  0  0  0  0  0  0  0  0
    4.9431   -1.4931    4.2963 H   0  0  0  0  0  0  0  0  0  0  0  0
    3.9851   -4.4406    0.6093 H   0  0  0  0  0  0  0  0  0  0  0  0
    2.5033   -4.6755    1.6285 H   0  0  0  0  0  0  0  0  0  0  0  0
    2.4161   -4.7868   -0.1376 H   0  0  0  0  0  0  0  0  0  0  0  0
    4.2431    2.0260    0.6260 H   0  0  0  0  0  0  0  0  0  0  0  0
  1  2  1  0  0  0  0
  1 24  1  0  0  0  0
  1 25  1  0  0  0  0
  1 26  1  0  0  0  0
  2  3  1  0  0  0  0
  2  4  1  0  0  0  0
  3 27  1  0  0  0  0
  3 28  1  0  0  0  0
  3 29  1  0  0  0  0
  4  5  1  0  0  0  0
  4 30  1  0  0  0  0
  4 31  1  0  0  0  0
  5  6  1  0  0  0  0
  5 32  1  0  0  0  0
  5 33  1  0  0  0  0
  6  7  1  0  0  0  0
  6 34  1  0  0  0  0
  6 35  1  0  0  0  0
  7  8  1  0  0  0  0
  7 16  1  0  0  0  0
  7 23  1  0  0  0  0
  8  9  2  0  0  0  0
  8 13  1  0  0  0  0
  9 10  1  0  0  0  0
  9 36  1  0  0  0  0
 10 11  2  0  0  0  0
 10 37  1  0  0  0  0
 11 12  1  0  0  0  0
 11 38  1  0  0  0  0
 12 13  2  0  0  0  0
 12 39  1  0  0  0  0
 13 14  1  0  0  0  0
 14 15  1  0  0  0  0
 15 16  2  0  0  0  0
 15 20  1  0  0  0  0
 16 17  1  0  0  0  0
 17 18  2  0  0  0  0
 17 40  1  0  0  0  0
 18 19  1  0  0  0  0
 18 21  1  0  0  0  0
 19 20  2  0  0  0  0
 19 41  1  0  0  0  0
 20 42  1  0  0  0  0
 21 22  1  0  0  0  0
 22 43  1  0  0  0  0
 22 44  1  0  0  0  0
 22 45  1  0  0  0  0
 23 46  1  0  0  0  0
M  END
>  <DRUGBANK_ID>
DB13822

>  <COMMON_NAME>
Meprotixol

>  <CAS_NUMBER>
4295-63-0

>  <UNII>
2JXZ154Z0Q

>  <SYNONYMS>
Meprotixol

$$$$
