
 OpenBabel10282417103D

 62 66  0  0  0  0  0  0  0  0999 V2000
   -8.8111   -4.3429   47.3511 C   0  0  2  0  0  0  0  0  0  0  0  0
   -9.3599   -5.3797   48.3242 C   0  0  0  0  0  0  0  0  0  0  0  0
   -8.3734   -2.8518   48.4626 C   0  0  0  0  0  0  0  0  0  0  0  0
   -9.3006   -4.9788   49.6118 C   0  0  0  0  0  0  0  0  0  0  0  0
   -8.3670   -2.7803   49.8439 C   0  0  0  0  0  0  0  0  0  0  0  0
   -9.6243   -3.5530   49.7533 C   0  0  0  0  0  0  0  0  0  0  0  0
   -9.4854   -5.2638   45.7534 C   0  0  2  0  0  0  0  0  0  0  0  0
   -9.6812   -6.7607   45.1672 C   0  0  1  0  0  0  0  0  0  0  0  0
   -9.3795   -6.8749   47.9511 C   0  0  2  0  0  0  0  0  0  0  0  0
   -8.8539   -7.4141   46.4833 C   0  0  0  0  0  0  0  0  0  0  0  0
  -10.9340   -4.3455   44.8978 C   0  0  2  0  0  0  0  0  0  0  0  0
  -10.4257   -4.6056   43.5182 C   0  0  0  0  0  0  0  0  0  0  0  0
   -9.4399   -7.0463   43.1713 C   0  0  1  0  0  0  0  0  0  0  0  0
  -10.4753   -6.0548   43.2012 C   0  0  1  0  0  0  0  0  0  0  0  0
   -9.6133   -6.7758   41.0870 C   0  0  0  0  0  0  0  0  0  0  0  0
  -10.4261   -5.5925   41.0311 C   0  0  2  0  0  0  0  0  0  0  0  0
   -9.7982   -6.5205   42.0044 C   0  0  1  0  0  0  0  0  0  0  0  0
   -9.7406   -4.3939   40.8990 O   0  0  0  0  0  0  0  0  0  0  0  0
   -8.3958   -4.4700   41.4047 C   0  0  0  0  0  0  0  0  0  0  0  0
   -8.1181   -5.8264   41.7209 O   0  0  0  0  0  0  0  0  0  0  0  0
  -10.6984   -3.0483   49.4449 O   0  0  0  0  0  0  0  0  0  0  0  0
  -10.6238   -7.3819   48.1863 F   0  0  0  0  0  0  0  0  0  0  0  0
   -9.3108   -3.4208   46.3495 C   0  0  0  0  0  0  0  0  0  0  0  0
   -8.1727   -5.3434   45.1781 F   0  0  0  0  0  0  0  0  0  0  0  0
  -11.7821   -3.3703   45.6835 O   0  0  0  0  0  0  0  0  0  0  0  0
  -10.7015   -7.1359   45.3698 H   0  0  0  0  0  0  0  0  0  0  0  0
   -8.3806   -7.3354   43.3898 H   0  0  0  0  0  0  0  0  0  0  0  0
  -11.8735   -6.6083   43.3313 C   0  0  0  0  0  0  0  0  0  0  0  0
   -9.9349   -8.5381   41.7673 C   0  0  0  0  0  0  0  0  0  0  0  0
  -10.6213   -9.0474   40.4495 C   0  0  0  0  0  0  0  0  0  0  0  0
   -9.2563   -9.3512   42.4308 O   0  0  0  0  0  0  0  0  0  0  0  0
   -9.7127   -9.7006   39.5700 O   0  0  0  0  0  0  0  0  0  0  0  0
   -7.7233   -3.4683   40.5052 C   0  0  0  0  0  0  0  0  0  0  0  0
   -7.8226   -3.9475   42.7173 C   0  0  0  0  0  0  0  0  0  0  0  0
  -11.5127   -5.7168   40.8041 H   0  0  0  0  0  0  0  0  0  0  0  0
   -8.5710   -1.7140   48.3929 H   0  0  0  0  0  0  0  0  0  0  0  0
   -8.8588   -5.5014   50.4465 H   0  0  0  0  0  0  0  0  0  0  0  0
   -8.2917   -3.0565   50.9110 H   0  0  0  0  0  0  0  0  0  0  0  0
   -8.7541   -7.2689   48.7620 H   0  0  0  0  0  0  0  0  0  0  0  0
   -8.7403   -8.4709   46.2457 H   0  0  0  0  0  0  0  0  0  0  0  0
   -7.8010   -7.1991   46.7044 H   0  0  0  0  0  0  0  0  0  0  0  0
  -10.8053   -3.3442   44.4174 H   0  0  0  0  0  0  0  0  0  0  0  0
  -10.6405   -3.9061   42.7010 H   0  0  0  0  0  0  0  0  0  0  0  0
   -9.4396   -4.3182   43.7724 H   0  0  0  0  0  0  0  0  0  0  0  0
  -10.3088   -6.8879   40.1223 H   0  0  0  0  0  0  0  0  0  0  0  0
   -8.8621   -7.2319   40.3039 H   0  0  0  0  0  0  0  0  0  0  0  0
   -8.5806   -3.6184   45.5196 H   0  0  0  0  0  0  0  0  0  0  0  0
  -10.2681   -3.8849   46.6554 H   0  0  0  0  0  0  0  0  0  0  0  0
   -9.4889   -2.4708   45.8698 H   0  0  0  0  0  0  0  0  0  0  0  0
  -11.8204   -3.5199   46.6618 H   0  0  0  0  0  0  0  0  0  0  0  0
  -12.5410   -6.1224   42.6240 H   0  0  0  0  0  0  0  0  0  0  0  0
  -11.8897   -7.6917   43.1995 H   0  0  0  0  0  0  0  0  0  0  0  0
  -12.2460   -6.3992   44.3335 H   0  0  0  0  0  0  0  0  0  0  0  0
  -11.4140   -9.7172   40.7631 H   0  0  0  0  0  0  0  0  0  0  0  0
  -11.1357   -8.2871   39.8660 H   0  0  0  0  0  0  0  0  0  0  0  0
   -8.9552   -9.1130   39.3809 H   0  0  0  0  0  0  0  0  0  0  0  0
   -8.2595   -2.5133   40.6988 H   0  0  0  0  0  0  0  0  0  0  0  0
   -6.6781   -3.3112   40.7650 H   0  0  0  0  0  0  0  0  0  0  0  0
   -7.8315   -3.6771   39.4466 H   0  0  0  0  0  0  0  0  0  0  0  0
   -7.8175   -4.7636   43.4408 H   0  0  0  0  0  0  0  0  0  0  0  0
   -6.7415   -3.8058   42.7234 H   0  0  0  0  0  0  0  0  0  0  0  0
   -8.3038   -3.0310   43.0489 H   0  0  0  0  0  0  0  0  0  0  0  0
  1 23  1  6  0  0  0
  2  1  1  0  0  0  0
  3  1  1  0  0  0  0
  3 36  1  0  0  0  0
  4  2  2  0  0  0  0
  4 37  1  0  0  0  0
  5  3  2  0  0  0  0
  5 38  1  0  0  0  0
  6  4  1  0  0  0  0
  6  5  1  0  0  0  0
  7  1  1  0  0  0  0
  7 24  1  1  0  0  0
  8  7  1  0  0  0  0
  8 26  1  6  0  0  0
  9  2  1  0  0  0  0
  9 22  1  0  0  0  0
  9 39  1  1  0  0  0
 10  8  1  0  0  0  0
 10  9  1  0  0  0  0
 10 40  1  0  0  0  0
 10 41  1  0  0  0  0
 11  7  1  0  0  0  0
 11 42  1  1  0  0  0
 11 25  1  0  0  0  0
 12 11  1  0  0  0  0
 12 43  1  0  0  0  0
 12 44  1  0  0  0  0
 13  8  1  0  0  0  0
 13 27  1  6  0  0  0
 14 12  1  0  0  0  0
 14 13  1  0  0  0  0
 14 28  1  6  0  0  0
 15 13  1  0  0  0  0
 15 45  1  0  0  0  0
 15 46  1  0  0  0  0
 16 15  1  0  0  0  0
 16 35  1  1  0  0  0
 17 14  1  0  0  0  0
 17 16  1  0  0  0  0
 17 29  1  6  0  0  0
 18 16  1  0  0  0  0
 19 18  1  0  0  0  0
 20 17  1  0  0  0  0
 20 19  1  0  0  0  0
 21  6  2  0  0  0  0
 23 47  1  0  0  0  0
 23 48  1  0  0  0  0
 23 49  1  0  0  0  0
 25 50  1  0  0  0  0
 28 51  1  0  0  0  0
 28 52  1  0  0  0  0
 28 53  1  0  0  0  0
 30 29  1  0  0  0  0
 30 54  1  0  0  0  0
 30 55  1  0  0  0  0
 31 29  2  0  0  0  0
 32 30  1  0  0  0  0
 32 56  1  0  0  0  0
 33 57  1  0  0  0  0
 33 58  1  0  0  0  0
 33 59  1  0  0  0  0
 33 19  1  0  0  0  0
 34 60  1  0  0  0  0
 34 61  1  0  0  0  0
 34 62  1  0  0  0  0
 34 19  1  0  0  0  0
M  END
>  <DRUGBANK_ID>
DB00591

>  <SECONDARY_ACCESSION_NUMBERS>
APRD00977

>  <COMMON_NAME>
Fluocinolone acetonide

>  <CAS_NUMBER>
67-73-2

>  <UNII>
0CD5FD6S2M

>  <SYNONYMS>
6alpha-fluorotriamcinolone acetonide; 6alpha,9alpha-difluoro-16alpha-hydroxyprednisolone 16,17-acetonide; 6α-fluorotriamcinolone acetonide; 6α,9α-difluoro-16α-hydroxyprednisolone 16,17-acetonide; acétonide de fluocinolone; acetónido de fluocinolona; fluocinolon acetonid; fluocinolone 16,17-acetonide; Fluocinolone acetonide; fluocinoloni acetonidum

$$$$
