
 OpenBabel10282417213D

 69 73  0  0  1  0  0  0  0  0999 V2000
   -7.8692    0.0735   -9.9052 C   0  0  0  0  0  0  0  0  0  0  0  0
   -6.9515   -1.0567   -9.3700 C   0  0  0  0  0  0  0  0  0  0  0  0
   -7.3206   -1.8163   -8.4768 O   0  0  0  0  0  0  0  0  0  0  0  0
   -5.6184   -0.9674   -9.7377 O   0  0  0  0  0  0  0  0  0  0  0  0
   -4.6237   -1.6644   -8.9017 C   0  0  0  0  0  0  0  0  0  0  0  0
   -4.3145   -1.3489   -7.3382 C   0  0  0  0  0  0  0  0  0  0  0  0
   -4.6203   -2.1802   -6.4776 O   0  0  0  0  0  0  0  0  0  0  0  0
   -3.6333    0.0587   -6.9381 C   0  0  1  0  0  0  0  0  0  0  0  0
   -4.4592    1.0690   -6.1929 C   0  0  1  0  0  0  0  0  0  0  0  0
   -4.9584    2.6055   -7.4256 C   0  0  0  0  0  0  0  0  0  0  0  0
   -3.7271    2.4109   -7.1187 C   0  0  2  0  0  0  0  0  0  0  0  0
   -4.1619    1.0484   -7.8722 C   0  0  2  0  0  0  0  0  0  0  0  0
   -6.0238    0.8582   -7.7929 C   0  0  0  0  0  0  0  0  0  0  0  0
   -6.9082    1.3237   -6.5004 C   0  0  1  0  0  0  0  0  0  0  0  0
   -6.5629    2.8127   -5.9472 C   0  0  1  0  0  0  0  0  0  0  0  0
   -4.8313    3.1301   -5.8018 C   0  0  1  0  0  0  0  0  0  0  0  0
   -4.3691    4.5211   -5.6156 C   0  0  0  0  0  0  0  0  0  0  0  0
   -5.2041    4.9531   -4.5289 C   0  0  1  0  0  0  0  0  0  0  0  0
   -6.8944    4.7581   -4.7789 C   0  0  0  0  0  0  0  0  0  0  0  0
   -7.9222    5.5287   -4.3098 C   0  0  0  0  0  0  0  0  0  0  0  0
   -7.6321    5.8760   -2.8890 C   0  0  0  0  0  0  0  0  0  0  0  0
   -8.1730    6.8087   -2.3159 O   0  0  0  0  0  0  0  0  0  0  0  0
   -6.5001    5.0613   -2.3752 C   0  0  0  0  0  0  0  0  0  0  0  0
   -6.7233    3.3612   -3.1172 C   0  0  0  0  0  0  0  0  0  0  0  0
   -7.2513    3.3034   -4.6597 C   0  0  2  0  0  0  0  0  0  0  0  0
   -8.7249    2.7973   -4.8204 C   0  0  0  0  0  0  0  0  0  0  0  0
   -4.6324    4.1770   -3.5018 F   0  0  0  0  0  0  0  0  0  0  0  0
   -8.2390    0.8969   -6.7585 O   0  0  0  0  0  0  0  0  0  0  0  0
   -3.5392    1.0338   -9.2415 C   0  0  0  0  0  0  0  0  0  0  0  0
   -3.6217    1.2871   -4.9713 O   0  0  0  0  0  0  0  0  0  0  0  0
   -2.2857    1.2578   -5.3680 C   0  0  0  0  0  0  0  0  0  0  0  0
   -2.2868    0.2310   -6.4003 O   0  0  0  0  0  0  0  0  0  0  0  0
   -1.6254    2.6091   -5.8234 C   0  0  0  0  0  0  0  0  0  0  0  0
   -1.4867    1.1504   -4.0635 C   0  0  0  0  0  0  0  0  0  0  0  0
   -8.8619   -0.0832   -9.4681 H   0  0  0  0  0  0  0  0  0  0  0  0
   -7.8854    0.0965  -10.9857 H   0  0  0  0  0  0  0  0  0  0  0  0
   -7.7080    1.1167   -9.6132 H   0  0  0  0  0  0  0  0  0  0  0  0
   -4.7990   -2.7365   -9.0121 H   0  0  0  0  0  0  0  0  0  0  0  0
   -3.6484   -1.5495   -9.3896 H   0  0  0  0  0  0  0  0  0  0  0  0
   -5.1959    0.4557   -5.6808 H   0  0  0  0  0  0  0  0  0  0  0  0
   -5.1958    2.6145   -8.5389 H   0  0  0  0  0  0  0  0  0  0  0  0
   -4.7349    3.7183   -7.5890 H   0  0  0  0  0  0  0  0  0  0  0  0
   -3.0783    3.0146   -7.7673 H   0  0  0  0  0  0  0  0  0  0  0  0
   -6.3654    1.3862   -8.6782 H   0  0  0  0  0  0  0  0  0  0  0  0
   -6.1547   -0.1738   -7.7600 H   0  0  0  0  0  0  0  0  0  0  0  0
   -6.7550    0.7048   -5.6254 H   0  0  0  0  0  0  0  0  0  0  0  0
   -6.9534    3.4573   -6.7666 H   0  0  0  0  0  0  0  0  0  0  0  0
   -4.7737    2.6775   -4.8140 H   0  0  0  0  0  0  0  0  0  0  0  0
   -4.4609    5.2098   -6.4392 H   0  0  0  0  0  0  0  0  0  0  0  0
   -3.3429    4.4566   -5.2495 H   0  0  0  0  0  0  0  0  0  0  0  0
   -4.8736    5.9544   -4.3122 H   0  0  0  0  0  0  0  0  0  0  0  0
   -8.9714    5.2214   -4.3012 H   0  0  0  0  0  0  0  0  0  0  0  0
   -6.0610    5.9017   -3.0143 H   0  0  0  0  0  0  0  0  0  0  0  0
   -5.4610    5.2851   -2.0182 H   0  0  0  0  0  0  0  0  0  0  0  0
   -7.4648    2.8036   -2.5432 H   0  0  0  0  0  0  0  0  0  0  0  0
   -5.8341    2.7261   -2.9460 H   0  0  0  0  0  0  0  0  0  0  0  0
   -9.4602    3.3158   -4.2166 H   0  0  0  0  0  0  0  0  0  0  0  0
   -9.0555    2.9209   -5.8675 H   0  0  0  0  0  0  0  0  0  0  0  0
   -8.8445    1.7294   -4.5793 H   0  0  0  0  0  0  0  0  0  0  0  0
   -8.3440    0.0836   -6.2045 H   0  0  0  0  0  0  0  0  0  0  0  0
   -2.9040    0.1647   -9.3180 H   0  0  0  0  0  0  0  0  0  0  0  0
   -4.3083    1.0835  -10.0119 H   0  0  0  0  0  0  0  0  0  0  0  0
   -2.8607    1.8740   -9.3788 H   0  0  0  0  0  0  0  0  0  0  0  0
   -2.0385    3.3440   -6.4961 H   0  0  0  0  0  0  0  0  0  0  0  0
   -1.5515    3.3008   -4.9787 H   0  0  0  0  0  0  0  0  0  0  0  0
   -0.6861    2.3680   -6.3061 H   0  0  0  0  0  0  0  0  0  0  0  0
   -1.7410    2.0306   -3.4294 H   0  0  0  0  0  0  0  0  0  0  0  0
   -1.6804    0.2929   -3.4306 H   0  0  0  0  0  0  0  0  0  0  0  0
   -0.4183    1.2391   -4.2838 H   0  0  0  0  0  0  0  0  0  0  0  0
  1  2  1  0  0  0  0
  1 35  1  0  0  0  0
  1 36  1  0  0  0  0
  1 37  1  0  0  0  0
  2  3  2  0  0  0  0
  2  4  1  0  0  0  0
  4  5  1  0  0  0  0
  5  6  1  0  0  0  0
  5 38  1  0  0  0  0
  5 39  1  0  0  0  0
  6  7  2  0  0  0  0
  8  9  1  0  0  0  0
  8 12  1  0  0  0  0
  8 32  1  0  0  0  0
  8  6  1  1  0  0  0
  9 10  1  0  0  0  0
  9 30  1  0  0  0  0
  9 40  1  6  0  0  0
 10 41  1  0  0  0  0
 10 42  1  0  0  0  0
 11 10  1  0  0  0  0
 11 12  1  0  0  0  0
 11 16  1  0  0  0  0
 11 43  1  6  0  0  0
 12 13  1  0  0  0  0
 12 29  1  6  0  0  0
 13 14  1  0  0  0  0
 13 44  1  0  0  0  0
 13 45  1  0  0  0  0
 14 28  1  0  0  0  0
 14 46  1  1  0  0  0
 15 14  1  0  0  0  0
 15 16  1  0  0  0  0
 15 25  1  0  0  0  0
 15 47  1  1  0  0  0
 16 17  1  0  0  0  0
 16 48  1  6  0  0  0
 17 18  1  0  0  0  0
 17 49  1  0  0  0  0
 17 50  1  0  0  0  0
 18 19  1  0  0  0  0
 18 51  1  1  0  0  0
 18 27  1  0  0  0  0
 19 20  2  0  0  0  0
 19 25  1  0  0  0  0
 20 21  1  0  0  0  0
 20 52  1  0  0  0  0
 21 23  1  0  0  0  0
 21 22  2  0  0  0  0
 23 24  1  0  0  0  0
 23 53  1  0  0  0  0
 23 54  1  0  0  0  0
 24 25  1  0  0  0  0
 24 55  1  0  0  0  0
 24 56  1  0  0  0  0
 25 26  1  6  0  0  0
 26 57  1  0  0  0  0
 26 58  1  0  0  0  0
 26 59  1  0  0  0  0
 28 60  1  0  0  0  0
 29 61  1  0  0  0  0
 29 62  1  0  0  0  0
 29 63  1  0  0  0  0
 30 31  1  0  0  0  0
 31 32  1  0  0  0  0
 31 33  1  0  0  0  0
 31 34  1  0  0  0  0
 33 64  1  0  0  0  0
 33 65  1  0  0  0  0
 33 66  1  0  0  0  0
 34 67  1  0  0  0  0
 34 68  1  0  0  0  0
 34 69  1  0  0  0  0
M  END
>  <DRUGBANK_ID>
DB14673

>  <SECONDARY_ACCESSION_NUMBERS>
DBSALT002283

>  <COMMON_NAME>
Flurandrenolide acetate

>  <CAS_NUMBER>
2802-11-1

>  <UNII>
0P9257GI1B

>  <SYNONYMS>
Flurandrenolone acetate

$$$$
