
 OpenBabel10282417203D

 31 30  0  0  0  0  0  0  0  0999 V2000
    1.4236   -0.3823    0.3767 C   0  0  0  0  0  0  0  0  0  0  0  0
   -1.0003   -1.4890   -0.1735 C   0  0  0  0  0  0  0  0  0  0  0  0
    1.1417   -2.0876   -1.0260 C   0  0  0  0  0  0  0  0  0  0  0  0
    1.4957    0.7101   -0.6369 C   0  0  0  0  0  0  0  0  0  0  0  0
   -1.8235   -0.8143   -1.6457 C   0  0  0  0  0  0  0  0  0  0  0  0
    0.8155   -1.0600   -2.1184 C   0  0  0  0  0  0  0  0  0  0  0  0
    0.5480   -1.5774    0.1454 N   0  0  0  0  0  0  0  0  0  0  0  0
    3.2737    0.4436   -2.4450 N   0  0  0  0  0  0  0  0  0  0  0  0
   -0.1806   -1.2741   -4.3790 N   0  0  0  0  0  0  0  0  0  0  0  0
   -0.1212    2.0400   -1.8272 N   0  0  0  0  0  0  0  0  0  0  0  0
    4.1041    0.2913   -1.5172 O   0  0  0  0  0  0  0  0  0  0  0  0
    3.3900    0.2793   -3.6445 O   0  0  0  0  0  0  0  0  0  0  0  0
    0.8196   -0.5129   -4.3068 O   0  0  0  0  0  0  0  0  0  0  0  0
   -0.2009   -2.2319   -5.1375 O   0  0  0  0  0  0  0  0  0  0  0  0
   -0.9306    2.0921   -0.8854 O   0  0  0  0  0  0  0  0  0  0  0  0
    0.7507    2.8884   -2.0891 O   0  0  0  0  0  0  0  0  0  0  0  0
    2.0527    0.8865   -1.9894 O   0  0  0  0  0  0  0  0  0  0  0  0
   -1.5349   -1.3187   -3.2619 O   0  0  0  0  0  0  0  0  0  0  0  0
    0.0079    0.4911   -2.5948 O   0  0  0  0  0  0  0  0  0  0  0  0
    0.9820    0.1077    1.2398 H   0  0  0  0  0  0  0  0  0  0  0  0
    2.4885   -0.5739    0.4559 H   0  0  0  0  0  0  0  0  0  0  0  0
   -1.3340   -2.5443   -0.1783 H   0  0  0  0  0  0  0  0  0  0  0  0
   -1.4345   -1.0320    0.7291 H   0  0  0  0  0  0  0  0  0  0  0  0
    2.2290   -2.2421   -1.0465 H   0  0  0  0  0  0  0  0  0  0  0  0
    0.7445   -3.1045   -1.2629 H   0  0  0  0  0  0  0  0  0  0  0  0
    0.4103    0.5140   -0.7431 H   0  0  0  0  0  0  0  0  0  0  0  0
    1.5062    1.6564   -0.1359 H   0  0  0  0  0  0  0  0  0  0  0  0
   -2.9080   -0.9906   -1.4925 H   0  0  0  0  0  0  0  0  0  0  0  0
   -1.7964    0.2627   -1.5644 H   0  0  0  0  0  0  0  0  0  0  0  0
    1.0492   -1.8133   -2.8875 H   0  0  0  0  0  0  0  0  0  0  0  0
   -0.1449   -1.4054   -2.0021 H   0  0  0  0  0  0  0  0  0  0  0  0
  1 20  1  0  0  0  0
  1 21  1  0  0  0  0
  2 22  1  0  0  0  0
  2 23  1  0  0  0  0
  3 24  1  0  0  0  0
  3 25  1  0  0  0  0
  4  1  1  0  0  0  0
  4 26  1  0  0  0  0
  4 27  1  0  0  0  0
  5  2  1  0  0  0  0
  5 28  1  0  0  0  0
  5 29  1  0  0  0  0
  6  3  1  0  0  0  0
  6 30  1  0  0  0  0
  6 31  1  0  0  0  0
  7  1  1  0  0  0  0
  7  2  1  0  0  0  0
  7  3  1  0  0  0  0
 11  8  2  0  0  0  0
 12  8  2  0  0  0  0
 13  9  2  0  0  0  0
 14  9  2  0  0  0  0
 15 10  2  0  0  0  0
 16 10  2  0  0  0  0
 17  4  1  0  0  0  0
 17  8  1  0  0  0  0
 18  5  1  0  0  0  0
 18  9  1  0  0  0  0
 19  6  1  0  0  0  0
 19 10  1  0  0  0  0
M  END
>  <DRUGBANK_ID>
DB13719

>  <COMMON_NAME>
Trolnitrate

>  <CAS_NUMBER>
7077-34-1

>  <UNII>
B9M85U075P

>  <SYNONYMS>
Trolnitrate

$$$$
