
 OpenBabel10282417133D

 23 23  0  0  0  0  0  0  0  0999 V2000
    0.7350    1.2907   -0.2183 C   0  0  1  0  0  0  0  0  0  0  0  0
    1.3702    2.4696    0.2880 O   0  0  0  0  0  0  0  0  0  0  0  0
    1.4783    0.0239    0.2316 C   0  0  2  0  0  0  0  0  0  0  0  0
    2.8088    0.0028   -0.2912 O   0  0  0  0  0  0  0  0  0  0  0  0
    0.7260   -1.2532   -0.1920 C   0  0  2  0  0  0  0  0  0  0  0  0
   -1.3571   -0.0747   -0.2582 C   0  0  1  0  0  0  0  0  0  0  0  0
   -1.5131   -0.1293   -1.6709 O   0  0  0  0  0  0  0  0  0  0  0  0
   -0.6409   -1.2190    0.2262 O   0  0  0  0  0  0  0  0  0  0  0  0
   -0.7207    1.2336    0.2260 C   0  0  1  0  0  0  0  0  0  0  0  0
    1.4942   -2.4951    0.3221 C   0  0  0  0  0  0  0  0  0  0  0  0
    0.6828   -3.4802    0.9420 O   0  0  0  0  0  0  0  0  0  0  0  0
   -0.7484    1.2675    1.5936 F   0  0  0  0  0  0  0  0  0  0  0  0
    0.7915    1.3788   -1.3086 H   0  0  0  0  0  0  0  0  0  0  0  0
    1.3542    2.4151    1.2623 H   0  0  0  0  0  0  0  0  0  0  0  0
    1.5667    0.0481    1.3252 H   0  0  0  0  0  0  0  0  0  0  0  0
    2.7732    0.1116   -1.2577 H   0  0  0  0  0  0  0  0  0  0  0  0
    0.7393   -1.3314   -1.2867 H   0  0  0  0  0  0  0  0  0  0  0  0
   -2.3681   -0.1409    0.1583 H   0  0  0  0  0  0  0  0  0  0  0  0
   -0.6574    0.0371   -2.1031 H   0  0  0  0  0  0  0  0  0  0  0  0
   -1.2664    2.1134   -0.1306 H   0  0  0  0  0  0  0  0  0  0  0  0
    1.9914   -2.9706   -0.5314 H   0  0  0  0  0  0  0  0  0  0  0  0
    2.2934   -2.2234    1.0201 H   0  0  0  0  0  0  0  0  0  0  0  0
    0.3953   -3.1119    1.7958 H   0  0  0  0  0  0  0  0  0  0  0  0
  1  3  1  0  0  0  0
  1  2  1  0  0  0  0
  1 13  1  6  0  0  0
  2 14  1  0  0  0  0
  3  5  1  0  0  0  0
  3  4  1  0  0  0  0
  3 15  1  1  0  0  0
  4 16  1  0  0  0  0
  5  8  1  0  0  0  0
  5 17  1  6  0  0  0
  5 10  1  0  0  0  0
  6  8  1  0  0  0  0
  6  9  1  0  0  0  0
  6  7  1  0  0  0  0
  6 18  1  1  0  0  0
  7 19  1  0  0  0  0
  9  1  1  0  0  0  0
  9 12  1  0  0  0  0
  9 20  1  6  0  0  0
 10 11  1  0  0  0  0
 10 21  1  0  0  0  0
 10 22  1  0  0  0  0
 11 23  1  0  0  0  0
M  END
>  <DRUGBANK_ID>
DB04084

>  <SECONDARY_ACCESSION_NUMBERS>
EXPT02107

>  <COMMON_NAME>
2-deoxy-2-fluoro-Î±-D-mannose

>  <CAS_NUMBER>
62182-14-3

>  <SYNONYMS>
2-deoxy-2-fluoro-alpha-D-mannose

$$$$
