
 OpenBabel10282417173D

 16 15  0  0  1  0  0  0  0  0999 V2000
    0.9730    0.0521    0.0180 O   0  0  0  0  0  0  0  0  0  0  0  0
    2.1991   -0.0105    0.0240 C   0  0  0  0  0  0  0  0  0  0  0  0
    3.0464    0.7501   -0.9782 C   0  0  0  0  0  0  0  0  0  0  0  0
    3.8561    1.9001   -0.3936 C   0  0  0  0  0  0  0  0  0  0  0  0
    4.9325    1.4674    0.5626 C   0  0  0  0  0  0  0  0  0  0  0  0
    6.0973    1.2602    0.3043 O   0  0  0  0  0  0  0  0  0  0  0  0
    2.9021   -0.9075    1.0661 C   0  0  0  0  0  0  0  0  0  0  0  0
    2.4044   -1.2750    2.1138 O   0  0  0  0  0  0  0  0  0  0  0  0
    4.1741   -1.1975    0.7631 O   0  0  0  0  0  0  0  0  0  0  0  0
    4.4334    1.2101    1.7909 O   0  0  0  0  0  0  0  0  0  0  0  0
    3.6603    0.0447   -1.5475 H   0  0  0  0  0  0  0  0  0  0  0  0
    2.3425    1.1862   -1.7031 H   0  0  0  0  0  0  0  0  0  0  0  0
    4.3557    2.4397   -1.2072 H   0  0  0  0  0  0  0  0  0  0  0  0
    3.2100    2.6254    0.1118 H   0  0  0  0  0  0  0  0  0  0  0  0
    4.5359   -1.5774    1.5931 H   0  0  0  0  0  0  0  0  0  0  0  0
    5.1461    0.7123    2.2448 H   0  0  0  0  0  0  0  0  0  0  0  0
  2  3  1  0  0  0  0
  2  7  1  0  0  0  0
  2  1  2  0  0  0  0
  3  4  1  0  0  0  0
  3 11  1  0  0  0  0
  3 12  1  0  0  0  0
  4  5  1  0  0  0  0
  4 13  1  0  0  0  0
  4 14  1  0  0  0  0
  5  6  2  0  0  0  0
  5 10  1  0  0  0  0
  7  8  2  0  0  0  0
  7  9  1  0  0  0  0
  9 15  1  0  0  0  0
 10 16  1  0  0  0  0
M  END
>  <DRUGBANK_ID>
DB08845

>  <SECONDARY_ACCESSION_NUMBERS>
DB02926; DB03806; EXPT00137

>  <COMMON_NAME>
Oxogluric acid

>  <CAS_NUMBER>
328-50-7

>  <UNII>
8ID597Z82X

>  <SYNONYMS>
2-Ketoglutaric acid; 2-oxoglutaric acid; 2-oxopentanedioic acid; alpha-Ketoglutaric acid; Ketoglutaric acid; Oxoglurate; Î±-Ketoglutarate

$$$$
