
 OpenBabel10282417203D

 14 13  0  0  0  0  0  0  0  0999 V2000
    0.6892    0.0285    0.1100 N   0  0  0  0  0  0  0  0  0  0  0  0
   -1.0515   -0.5215    1.6552 N   0  0  0  0  0  0  0  0  0  0  0  0
    0.1786   -0.3967    1.3046 C   0  0  0  0  0  0  0  0  0  0  0  0
    1.0327   -0.7447    2.2825 N   0  0  0  0  0  0  0  0  0  0  0  0
    0.1731    0.4534   -1.0841 C   0  0  0  0  0  0  0  0  0  0  0  0
    0.8640    0.8215   -2.1183 N   0  0  0  0  0  0  0  0  0  0  0  0
   -1.1535    0.5220   -1.2767 N   0  0  0  0  0  0  0  0  0  0  0  0
    1.6977    0.0297    0.1066 H   0  0  0  0  0  0  0  0  0  0  0  0
   -1.6307   -0.2448    0.8779 H   0  0  0  0  0  0  0  0  0  0  0  0
    2.0359   -0.7458    2.2855 H   0  0  0  0  0  0  0  0  0  0  0  0
    0.5542   -1.0455    3.1277 H   0  0  0  0  0  0  0  0  0  0  0  0
    1.8675    0.7678   -1.9676 H   0  0  0  0  0  0  0  0  0  0  0  0
   -1.8939    0.2971   -0.6449 H   0  0  0  0  0  0  0  0  0  0  0  0
   -1.4464    0.8464   -2.1883 H   0  0  0  0  0  0  0  0  0  0  0  0
  1  5  1  0  0  0  0
  1  8  1  0  0  0  0
  2  3  2  0  0  0  0
  2  9  1  0  0  0  0
  3  1  1  0  0  0  0
  3  4  1  0  0  0  0
  4 10  1  0  0  0  0
  4 11  1  0  0  0  0
  5  6  2  0  0  0  0
  5  7  1  0  0  0  0
  6 12  1  0  0  0  0
  7 13  1  0  0  0  0
  7 14  1  0  0  0  0
M  END
>  <DRUGBANK_ID>
DB13100

>  <COMMON_NAME>
Biguanide

>  <CAS_NUMBER>
56-03-1

>  <UNII>
FB4Q52I9K2

$$$$
