
 OpenBabel10282417213D

 50 53  0  0  1  0  0  0  0  0999 V2000
   -0.8283    0.6292    0.1225 C   0  0  0  0  0  0  0  0  0  0  0  0
   -0.3620   -0.6364   -1.2367 C   0  0  2  0  0  0  0  0  0  0  0  0
    0.6828    0.0291   -2.0652 C   0  0  0  0  0  0  0  0  0  0  0  0
    1.7116    0.5010   -1.1613 C   0  0  0  0  0  0  0  0  0  0  0  0
    2.0934   -0.5476   -0.1432 C   0  0  1  0  0  0  0  0  0  0  0  0
    0.9411   -1.2612    0.6070 C   0  0  2  0  0  0  0  0  0  0  0  0
   -0.8440   -1.2622   -0.0312 C   0  0  2  0  0  0  0  0  0  0  0  0
   -2.2991   -0.4210   -1.1005 C   0  0  0  0  0  0  0  0  0  0  0  0
   -2.1067   -0.6764   -2.5690 C   0  0  0  0  0  0  0  0  0  0  0  0
   -1.1299   -1.7097   -2.2472 C   0  0  2  0  0  0  0  0  0  0  0  0
   -1.2210   -2.9790   -1.5949 O   0  0  0  0  0  0  0  0  0  0  0  0
    0.2431   -3.7667   -1.5203 S   0  0  0  0  0  0  0  0  0  0  0  0
    0.3308   -4.7109   -2.5672 O   0  0  0  0  0  0  0  0  0  0  0  0
    1.3420   -2.7830   -1.4144 O   0  0  0  0  0  0  0  0  0  0  0  0
    0.2703   -4.5122   -0.0871 O   0  0  0  0  0  0  0  0  0  0  0  0
    1.9103   -2.2204    1.5234 C   0  0  0  0  0  0  0  0  0  0  0  0
    3.2069   -1.2993    2.4285 C   0  0  0  0  0  0  0  0  0  0  0  0
    4.0678    0.1020    1.7744 C   0  0  0  0  0  0  0  0  0  0  0  0
    4.4157    1.5510    1.6817 C   0  0  0  0  0  0  0  0  0  0  0  0
    3.3360    2.3647    0.6672 C   0  0  0  0  0  0  0  0  0  0  0  0
    3.6611    2.7008   -0.4613 O   0  0  0  0  0  0  0  0  0  0  0  0
    1.9190    2.2705    1.2836 C   0  0  0  0  0  0  0  0  0  0  0  0
    2.1331    0.9887    1.9713 C   0  0  0  0  0  0  0  0  0  0  0  0
    2.9798    0.1407    0.8410 C   0  0  2  0  0  0  0  0  0  0  0  0
   -1.8300    0.4504    0.6483 H   0  0  0  0  0  0  0  0  0  0  0  0
   -0.8358    1.6441   -0.2465 H   0  0  0  0  0  0  0  0  0  0  0  0
   -0.3022    0.5865    1.0783 H   0  0  0  0  0  0  0  0  0  0  0  0
    1.0896   -0.5600   -2.8904 H   0  0  0  0  0  0  0  0  0  0  0  0
    0.2361    0.9259   -2.5177 H   0  0  0  0  0  0  0  0  0  0  0  0
    2.5301    1.0115   -1.6636 H   0  0  0  0  0  0  0  0  0  0  0  0
    1.1784    1.3069   -0.7207 H   0  0  0  0  0  0  0  0  0  0  0  0
    2.7488   -1.2649   -0.6662 H   0  0  0  0  0  0  0  0  0  0  0  0
    0.6298   -0.7950    1.5209 H   0  0  0  0  0  0  0  0  0  0  0  0
   -1.2059   -2.2347    0.2790 H   0  0  0  0  0  0  0  0  0  0  0  0
   -3.3650   -0.4293   -0.8480 H   0  0  0  0  0  0  0  0  0  0  0  0
   -2.2780    0.7119   -1.1571 H   0  0  0  0  0  0  0  0  0  0  0  0
   -2.9670   -0.8100   -3.2181 H   0  0  0  0  0  0  0  0  0  0  0  0
   -1.5251    0.0982   -3.1361 H   0  0  0  0  0  0  0  0  0  0  0  0
   -1.0605   -2.0922   -3.2652 H   0  0  0  0  0  0  0  0  0  0  0  0
    1.1896   -4.4884    0.2576 H   0  0  0  0  0  0  0  0  0  0  0  0
    2.4011   -3.1200    1.1070 H   0  0  0  0  0  0  0  0  0  0  0  0
    1.1951   -2.6639    2.2157 H   0  0  0  0  0  0  0  0  0  0  0  0
    3.9416   -2.0191    2.7979 H   0  0  0  0  0  0  0  0  0  0  0  0
    2.5997   -0.9964    3.2829 H   0  0  0  0  0  0  0  0  0  0  0  0
    4.2665    2.5238    2.2474 H   0  0  0  0  0  0  0  0  0  0  0  0
    1.6153    3.0884    1.9081 H   0  0  0  0  0  0  0  0  0  0  0  0
    1.0383    1.9983    0.7467 H   0  0  0  0  0  0  0  0  0  0  0  0
    2.6229    1.1861    2.9631 H   0  0  0  0  0  0  0  0  0  0  0  0
    1.2819    0.4856    2.4066 H   0  0  0  0  0  0  0  0  0  0  0  0
    3.7793    0.3471    0.0707 H   0  0  0  0  0  0  0  0  0  0  0  0
  1 25  1  0  0  0  0
  1 26  1  0  0  0  0
  1 27  1  0  0  0  0
  2  3  1  0  0  0  0
  2  7  1  0  0  0  0
  2 10  1  0  0  0  0
  2  1  1  1  0  0  0
  3  4  1  0  0  0  0
  3 28  1  0  0  0  0
  3 29  1  0  0  0  0
  4 30  1  0  0  0  0
  4 31  1  0  0  0  0
  5  4  1  0  0  0  0
  5  6  1  0  0  0  0
  5 24  1  0  0  0  0
  5 32  1  1  0  0  0
  6  7  1  0  0  0  0
  6 16  1  0  0  0  0
  6 33  1  6  0  0  0
  7  8  1  0  0  0  0
  7 34  1  1  0  0  0
  8  9  1  0  0  0  0
  8 35  1  0  0  0  0
  8 36  1  0  0  0  0
  9 10  1  0  0  0  0
  9 37  1  0  0  0  0
  9 38  1  0  0  0  0
 10 39  1  6  0  0  0
 10 11  1  0  0  0  0
 11 12  1  0  0  0  0
 12 13  2  0  0  0  0
 12 14  2  0  0  0  0
 12 15  1  0  0  0  0
 15 40  1  0  0  0  0
 16 17  1  0  0  0  0
 16 41  1  0  0  0  0
 16 42  1  0  0  0  0
 17 18  1  0  0  0  0
 17 43  1  0  0  0  0
 17 44  1  0  0  0  0
 18 19  2  0  0  0  0
 18 24  1  0  0  0  0
 19 20  1  0  0  0  0
 19 45  1  0  0  0  0
 20 22  1  0  0  0  0
 20 21  2  0  0  0  0
 22 23  1  0  0  0  0
 22 46  1  0  0  0  0
 22 47  1  0  0  0  0
 23 48  1  0  0  0  0
 23 49  1  0  0  0  0
 24 23  1  0  0  0  0
 24 50  1  6  0  0  0
M  END
>  <DRUGBANK_ID>
DB14624

>  <SECONDARY_ACCESSION_NUMBERS>
DBSALT002266

>  <COMMON_NAME>
Nandrolone hydrogen sulfate

>  <CAS_NUMBER>
98804-55-8

>  <UNII>
2S202OX23O

>  <SYNONYMS>
Nandrolone sulfate

$$$$
