
 OpenBabel10282417113D

 36 35  0  0  0  0  0  0  0  0999 V2000
    0.8095   -0.1583    0.2363 O   0  0  0  0  0  0  0  0  0  0  0  0
    1.9658   -0.0603   -0.0017 C   0  0  0  0  0  0  0  0  0  0  0  0
    2.8642   -0.7312    0.8044 O   0  0  0  0  0  0  0  0  0  0  0  0
    2.5071    0.8789   -1.1495 C   0  0  0  0  0  0  0  0  0  0  0  0
    2.5324    0.4332   -2.5448 N   0  0  0  0  0  0  0  0  0  0  0  0
    3.3962    1.3718   -3.4082 C   0  0  0  0  0  0  0  0  0  0  0  0
    4.9287    1.2134   -3.7151 C   0  0  0  0  0  0  0  0  0  0  0  0
    5.3409    1.0433   -4.8607 O   0  0  0  0  0  0  0  0  0  0  0  0
    5.9639    1.2134   -2.8859 O   0  0  0  0  0  0  0  0  0  0  0  0
    3.0613   -0.9327   -2.5603 C   0  0  0  0  0  0  0  0  0  0  0  0
    4.5674   -1.0998   -2.1357 C   0  0  0  0  0  0  0  0  0  0  0  0
    5.2332   -0.4784   -0.8650 N   0  0  0  0  0  0  0  0  0  0  0  0
    6.6164   -1.0436   -0.7494 C   0  0  0  0  0  0  0  0  0  0  0  0
    7.6442   -0.3769   -1.6708 C   0  0  0  0  0  0  0  0  0  0  0  0
    8.3154    0.5732   -1.3141 O   0  0  0  0  0  0  0  0  0  0  0  0
    7.4725   -0.6496   -2.9877 O   0  0  0  0  0  0  0  0  0  0  0  0
    5.1164    0.9879   -0.1111 C   0  0  0  0  0  0  0  0  0  0  0  0
    5.4107    2.4176   -0.8788 C   0  0  0  0  0  0  0  0  0  0  0  0
    4.6480    3.0753   -1.5731 O   0  0  0  0  0  0  0  0  0  0  0  0
    6.7530    2.5316   -1.0538 O   0  0  0  0  0  0  0  0  0  0  0  0
    3.8286   -0.8098    0.6681 H   0  0  0  0  0  0  0  0  0  0  0  0
    2.3890    1.9378   -0.8819 H   0  0  0  0  0  0  0  0  0  0  0  0
    3.5366    0.8165   -1.1976 H   0  0  0  0  0  0  0  0  0  0  0  0
    3.0000    1.2011   -4.4135 H   0  0  0  0  0  0  0  0  0  0  0  0
    3.1337    2.4122   -3.1872 H   0  0  0  0  0  0  0  0  0  0  0  0
    6.0601    0.9787   -1.9445 H   0  0  0  0  0  0  0  0  0  0  0  0
    2.4507   -1.5842   -1.9217 H   0  0  0  0  0  0  0  0  0  0  0  0
    2.8939   -1.2965   -3.5817 H   0  0  0  0  0  0  0  0  0  0  0  0
    4.7583   -2.1904   -2.2061 H   0  0  0  0  0  0  0  0  0  0  0  0
    5.1343   -0.8313   -3.0195 H   0  0  0  0  0  0  0  0  0  0  0  0
    6.9002   -0.8345    0.2802 H   0  0  0  0  0  0  0  0  0  0  0  0
    6.6604   -2.1300   -0.8890 H   0  0  0  0  0  0  0  0  0  0  0  0
    7.4757    0.2098   -3.4961 H   0  0  0  0  0  0  0  0  0  0  0  0
    4.1197    1.1205    0.3007 H   0  0  0  0  0  0  0  0  0  0  0  0
    5.5509    0.9425    0.8835 H   0  0  0  0  0  0  0  0  0  0  0  0
    7.0110    2.6295   -2.0135 H   0  0  0  0  0  0  0  0  0  0  0  0
  1  2  2  0  0  0  0
  2  3  1  0  0  0  0
  2  4  1  0  0  0  0
  3 21  1  0  0  0  0
  4  5  1  0  0  0  0
  4 22  1  0  0  0  0
  4 23  1  0  0  0  0
  5  6  1  0  0  0  0
  5 10  1  0  0  0  0
  6  7  1  0  0  0  0
  6 24  1  0  0  0  0
  6 25  1  0  0  0  0
  7  8  2  0  0  0  0
  7  9  1  0  0  0  0
  9 26  1  0  0  0  0
 10 11  1  0  0  0  0
 10 27  1  0  0  0  0
 10 28  1  0  0  0  0
 11 12  1  0  0  0  0
 11 29  1  0  0  0  0
 11 30  1  0  0  0  0
 12 13  1  0  0  0  0
 12 17  1  0  0  0  0
 13 14  1  0  0  0  0
 13 31  1  0  0  0  0
 13 32  1  0  0  0  0
 14 15  2  0  0  0  0
 14 16  1  0  0  0  0
 16 33  1  0  0  0  0
 17 18  1  0  0  0  0
 17 34  1  0  0  0  0
 17 35  1  0  0  0  0
 18 19  2  0  0  0  0
 18 20  1  0  0  0  0
 20 36  1  0  0  0  0
M  END
>  <DRUGBANK_ID>
DB00974

>  <SECONDARY_ACCESSION_NUMBERS>
APRD01327

>  <COMMON_NAME>
Edetic acid

>  <CAS_NUMBER>
60-00-4

>  <UNII>
9G34HU7RV0

>  <SYNONYMS>
(ethylenedinitrilo)tetraacetic acid, ion(4âˆ’); {[-(bis-carboxymethyl-amino)-ethyl]-carboxymethyl-amino}-acetic acid; 2,2',2'',2'''-(ethane-1,2-diyldinitrilo)tetraacetate; Acide edetique; Acide ethylenediaminetetracetique; Acido edetico; Acidum edeticum; Edetic acid; EDTA; EDTA, ion(4-); Ethylenediaminetetraacetate; Ethylenediaminetetraacetic acid; N,N'-1,2-Ethane diylbis-(N-(carboxymethyl)glycine)

$$$$
