
 OpenBabel10282417103D

 24 23  0  0  0  0  0  0  0  0999 V2000
   -0.2728    3.5207   -1.3615 O   0  0  0  0  0  0  0  0  0  0  0  0
    0.1392    1.1319    0.1953 C   0  0  0  0  0  0  0  0  0  0  0  0
    0.9563   -0.1613    0.1365 C   0  0  0  0  0  0  0  0  0  0  0  0
    1.6175   -0.5528    1.4545 C   0  0  0  0  0  0  0  0  0  0  0  0
    0.6270   -0.6570    2.6159 C   0  0  0  0  0  0  0  0  0  0  0  0
   -0.3964   -1.6664    2.3526 N   0  0  0  0  0  0  0  0  0  0  0  0
    0.6913    3.6133   -0.4273 C   0  0  0  0  0  0  0  0  0  0  0  0
    1.3215    4.6633   -0.3012 O   0  0  0  0  0  0  0  0  0  0  0  0
    0.9335    2.4098    0.5145 C   0  0  1  0  0  0  0  0  0  0  0  0
    0.6548    2.8265    1.9137 N   0  0  0  0  0  0  0  0  0  0  0  0
   -0.8193    2.7194   -1.4158 H   0  0  0  0  0  0  0  0  0  0  0  0
   -0.6841    1.0192    0.9110 H   0  0  0  0  0  0  0  0  0  0  0  0
   -0.3493    1.1720   -0.7735 H   0  0  0  0  0  0  0  0  0  0  0  0
    0.2758   -0.9628   -0.1797 H   0  0  0  0  0  0  0  0  0  0  0  0
    1.7089   -0.0959   -0.6586 H   0  0  0  0  0  0  0  0  0  0  0  0
    2.1294   -1.5146    1.3198 H   0  0  0  0  0  0  0  0  0  0  0  0
    2.3976    0.1766    1.7018 H   0  0  0  0  0  0  0  0  0  0  0  0
    1.1646   -0.9124    3.5329 H   0  0  0  0  0  0  0  0  0  0  0  0
    0.1404    0.3045    2.7999 H   0  0  0  0  0  0  0  0  0  0  0  0
   -1.0833   -1.6474    3.1041 H   0  0  0  0  0  0  0  0  0  0  0  0
   -0.9112   -1.4290    1.5064 H   0  0  0  0  0  0  0  0  0  0  0  0
    2.0101    2.2010    0.4489 H   0  0  0  0  0  0  0  0  0  0  0  0
    1.1703    3.6940    2.1007 H   0  0  0  0  0  0  0  0  0  0  0  0
   -0.3280    3.0838    2.0083 H   0  0  0  0  0  0  0  0  0  0  0  0
  1  7  1  0  0  0  0
  1 11  1  0  0  0  0
  2 12  1  0  0  0  0
  2 13  1  0  0  0  0
  3  2  1  0  0  0  0
  3 14  1  0  0  0  0
  3 15  1  0  0  0  0
  4  3  1  0  0  0  0
  4 16  1  0  0  0  0
  4 17  1  0  0  0  0
  5  4  1  0  0  0  0
  5 18  1  0  0  0  0
  5 19  1  0  0  0  0
  6  5  1  0  0  0  0
  6 20  1  0  0  0  0
  6 21  1  0  0  0  0
  7  8  2  0  0  0  0
  9 10  1  0  0  0  0
  9 22  1  6  0  0  0
  9  2  1  0  0  0  0
  9  7  1  0  0  0  0
 10 23  1  0  0  0  0
 10 24  1  0  0  0  0
M  END
>  <DRUGBANK_ID>
DB00123

>  <SECONDARY_ACCESSION_NUMBERS>
NUTR00037; DB11101

>  <COMMON_NAME>
Lysine

>  <CAS_NUMBER>
56-87-1

>  <UNII>
K3Z4F929H6

>  <SYNONYMS>
(S)-2,6-diaminohexanoic acid; (S)-lysine; (S)-α,ε-diaminocaproic acid; 6-ammonio-L-norleucine; L-2,6-Diaminocaproic acid; L-lys; L-Lysin; L-Lysine; LYS; Lysina; Lysine; Lysine acid; Lysinum

$$$$
