K02
 OpenBabel10282417173D

 49 51  0  0  0  0  0  0  0  0999 V2000
    1.2842    0.1252   -1.0554 O   0  0  0  0  0  0  0  0  0  0  0  0
    2.5044    0.2484   -0.8873 C   0  0  0  0  0  0  0  0  0  0  0  0
    3.3181   -1.1051   -0.8024 C   0  0  0  0  0  0  0  0  0  0  0  0
    4.8000   -1.4946    0.0204 S   0  0  0  0  0  0  0  0  0  0  0  0
    4.5936   -3.2131   -0.0453 C   0  0  0  0  0  0  0  0  0  0  0  0
    3.5765   -3.5088   -0.9193 C   0  0  0  0  0  0  0  0  0  0  0  0
    2.7897   -2.3414   -1.2165 C   0  0  0  0  0  0  0  0  0  0  0  0
    2.9774    1.6232   -0.5796 N   0  0  0  0  0  0  0  0  0  0  0  0
    1.9620    2.5790    0.0059 C   0  0  0  0  0  0  0  0  0  0  0  0
    2.2777    4.3701    0.7161 S   0  0  0  0  0  0  0  0  0  0  0  0
    0.5702    3.9675    1.9996 C   0  0  0  0  0  0  0  0  0  0  0  0
    0.2431    3.8325    0.6056 C   0  0  0  0  0  0  0  0  0  0  0  0
   -0.7745    4.8632    0.7614 C   0  0  0  0  0  0  0  0  0  0  0  0
    0.0765    6.2110    1.8155 C   0  0  2  0  0  0  0  0  0  0  0  0
    1.3323    5.9320    3.1800 C   0  0  0  0  0  0  0  0  0  0  0  0
   -1.0563    6.3851    2.7018 C   0  0  0  0  0  0  0  0  0  0  0  0
   -0.7479    4.8860    3.0591 C   0  0  0  0  0  0  0  0  0  0  0  0
    0.7705    2.4924    0.7351 C   0  0  0  0  0  0  0  0  0  0  0  0
    0.3711    1.5623    1.8488 C   0  0  0  0  0  0  0  0  0  0  0  0
   -0.5877    1.8264    2.5308 O   0  0  0  0  0  0  0  0  0  0  0  0
    1.1700    0.4741    2.2429 N   0  0  0  0  0  0  0  0  0  0  0  0
    2.4089    0.0883    1.7572 C   0  0  0  0  0  0  0  0  0  0  0  0
    3.6491   -0.0240    2.5755 C   0  0  0  0  0  0  0  0  0  0  0  0
    0.5609   -0.4930    3.0878 C   0  0  0  0  0  0  0  0  0  0  0  0
    0.7149    0.0200    4.4866 C   0  0  0  0  0  0  0  0  0  0  0  0
    0.4072    7.0580    1.2227 H   0  0  0  0  0  0  0  0  0  0  0  0
    5.2710   -3.9258    0.4360 H   0  0  0  0  0  0  0  0  0  0  0  0
    3.3740   -4.5145   -1.2800 H   0  0  0  0  0  0  0  0  0  0  0  0
    1.8475   -2.3975   -1.7443 H   0  0  0  0  0  0  0  0  0  0  0  0
    3.9466    1.7277   -0.2854 H   0  0  0  0  0  0  0  0  0  0  0  0
   -1.5609    5.2335    0.1030 H   0  0  0  0  0  0  0  0  0  0  0  0
   -1.5084    4.1439    1.2404 H   0  0  0  0  0  0  0  0  0  0  0  0
    2.0173    6.7580    3.3087 H   0  0  0  0  0  0  0  0  0  0  0  0
    0.8800    5.7453    4.1941 H   0  0  0  0  0  0  0  0  0  0  0  0
    1.9652    5.0280    3.1246 H   0  0  0  0  0  0  0  0  0  0  0  0
   -0.8958    7.1333    3.5086 H   0  0  0  0  0  0  0  0  0  0  0  0
   -2.0033    6.6456    2.2074 H   0  0  0  0  0  0  0  0  0  0  0  0
   -1.0424    4.8699    4.1096 H   0  0  0  0  0  0  0  0  0  0  0  0
   -1.5492    4.1690    2.9065 H   0  0  0  0  0  0  0  0  0  0  0  0
    2.1824   -0.8206    1.2029 H   0  0  0  0  0  0  0  0  0  0  0  0
    2.7132    0.9264    1.2178 H   0  0  0  0  0  0  0  0  0  0  0  0
    3.6790   -0.9955    3.0563 H   0  0  0  0  0  0  0  0  0  0  0  0
    4.5034    0.0736    1.8969 H   0  0  0  0  0  0  0  0  0  0  0  0
    3.7705    0.8251    3.2383 H   0  0  0  0  0  0  0  0  0  0  0  0
   -0.4654   -0.6478    2.7462 H   0  0  0  0  0  0  0  0  0  0  0  0
    1.0924   -1.4460    2.9623 H   0  0  0  0  0  0  0  0  0  0  0  0
    0.1826    0.9666    4.6100 H   0  0  0  0  0  0  0  0  0  0  0  0
    0.3409   -0.7148    5.1887 H   0  0  0  0  0  0  0  0  0  0  0  0
    1.7723    0.2341    4.6863 H   0  0  0  0  0  0  0  0  0  0  0  0
  1  2  2  0  0  0  0
  2  3  1  0  0  0  0
  2  8  1  0  0  0  0
  3  4  1  0  0  0  0
  3  7  2  0  0  0  0
  4  5  1  0  0  0  0
  5  6  2  0  0  0  0
  5 27  1  0  0  0  0
  6  7  1  0  0  0  0
  6 28  1  0  0  0  0
  7 29  1  0  0  0  0
  8  9  1  0  0  0  0
  8 30  1  0  0  0  0
  9 10  1  0  0  0  0
  9 18  2  0  0  0  0
 10 11  1  0  0  0  0
 11 12  2  0  0  0  0
 11 17  1  0  0  0  0
 12 13  1  0  0  0  0
 12 18  1  0  0  0  0
 13 14  1  0  0  0  0
 13 31  1  0  0  0  0
 13 32  1  0  0  0  0
 14 16  1  0  0  0  0
 14 26  1  6  0  0  0
 14 15  1  0  0  0  0
 15 33  1  0  0  0  0
 15 34  1  0  0  0  0
 15 35  1  0  0  0  0
 16 17  1  0  0  0  0
 16 36  1  0  0  0  0
 16 37  1  0  0  0  0
 17 38  1  0  0  0  0
 17 39  1  0  0  0  0
 18 19  1  0  0  0  0
 19 20  2  0  0  0  0
 19 21  1  0  0  0  0
 21 22  1  0  0  0  0
 21 24  1  0  0  0  0
 22 23  1  0  0  0  0
 22 40  1  0  0  0  0
 22 41  1  0  0  0  0
 23 42  1  0  0  0  0
 23 43  1  0  0  0  0
 23 44  1  0  0  0  0
 24 25  1  0  0  0  0
 24 45  1  0  0  0  0
 24 46  1  0  0  0  0
 25 47  1  0  0  0  0
 25 48  1  0  0  0  0
 25 49  1  0  0  0  0
M  END
>  <DRUGBANK_ID>
DB08033

>  <COMMON_NAME>
(5R)-N,N-DIETHYL-5-METHYL-2-[(THIOPHEN-2-YLCARBONYL)AMINO]-4,5,6,7-TETRAHYDRO-1-BENZOTHIOPHENE-3-CARBOXAMIDE

$$$$
