
 OpenBabel10282417203D

 41 41  0  0  1  0  0  0  0  0999 V2000
    8.1559    3.9818    4.0247 C   0  0  0  0  0  0  0  0  0  0  0  0
    8.7841    3.2105    5.1934 C   0  0  2  0  0  0  0  0  0  0  0  0
   10.0276    2.3952    4.7912 C   0  0  1  0  0  0  0  0  0  0  0  0
   10.6249    1.7342    6.0403 C   0  0  1  0  0  0  0  0  0  0  0  0
    9.5294    0.9661    6.7487 C   0  0  2  0  0  0  0  0  0  0  0  0
    8.1704    1.6952    6.9214 C   0  0  1  0  0  0  0  0  0  0  0  0
    7.7712    2.3234    5.7100 O   0  0  0  0  0  0  0  0  0  0  0  0
    7.1386    0.8239    7.4294 O   0  0  0  0  0  0  0  0  0  0  0  0
    6.4803   -0.1362    6.5525 C   0  0  2  0  0  0  0  0  0  0  0  0
    7.4594   -0.8741    5.6761 C   0  0  0  0  0  0  0  0  0  0  0  0
    8.3818   -1.4972    6.5640 O   0  0  0  0  0  0  0  0  0  0  0  0
    5.2841    0.4599    5.8096 C   0  0  1  0  0  0  0  0  0  0  0  0
    4.6452   -0.5124    4.7796 C   0  0  2  0  0  0  0  0  0  0  0  0
    3.1349   -0.4788    4.7256 C   0  0  0  0  0  0  0  0  0  0  0  0
    2.4193    0.4119    5.1951 O   0  0  0  0  0  0  0  0  0  0  0  0
    4.9577   -1.8948    5.0061 O   0  0  0  0  0  0  0  0  0  0  0  0
    4.3837    0.8528    6.8555 O   0  0  0  0  0  0  0  0  0  0  0  0
    9.9362    0.2972    7.9380 O   0  0  0  0  0  0  0  0  0  0  0  0
   11.6602    0.8136    5.6461 O   0  0  0  0  0  0  0  0  0  0  0  0
    9.6859    1.3917    3.8015 O   0  0  0  0  0  0  0  0  0  0  0  0
    8.6204    3.5768    2.7433 O   0  0  0  0  0  0  0  0  0  0  0  0
    8.4066    5.0402    4.1317 H   0  0  0  0  0  0  0  0  0  0  0  0
    7.0658    3.8849    4.0213 H   0  0  0  0  0  0  0  0  0  0  0  0
    9.0331    3.9235    5.9907 H   0  0  0  0  0  0  0  0  0  0  0  0
   10.7846    3.0220    4.3184 H   0  0  0  0  0  0  0  0  0  0  0  0
   11.0782    2.4570    6.7202 H   0  0  0  0  0  0  0  0  0  0  0  0
    9.4196    0.1909    6.0156 H   0  0  0  0  0  0  0  0  0  0  0  0
    8.2918    2.4582    7.7037 H   0  0  0  0  0  0  0  0  0  0  0  0
    6.0822   -0.8749    7.2610 H   0  0  0  0  0  0  0  0  0  0  0  0
    7.1340   -1.6638    5.0100 H   0  0  0  0  0  0  0  0  0  0  0  0
    7.8831   -0.1424    4.9953 H   0  0  0  0  0  0  0  0  0  0  0  0
    8.4402   -0.9366    7.3767 H   0  0  0  0  0  0  0  0  0  0  0  0
    5.5483    1.3865    5.2888 H   0  0  0  0  0  0  0  0  0  0  0  0
    5.0318   -0.2866    3.7768 H   0  0  0  0  0  0  0  0  0  0  0  0
    2.6683   -1.3274    4.2077 H   0  0  0  0  0  0  0  0  0  0  0  0
    4.8330   -2.1243    5.9429 H   0  0  0  0  0  0  0  0  0  0  0  0
    3.9177    0.0668    7.1846 H   0  0  0  0  0  0  0  0  0  0  0  0
   10.1515    0.9554    8.6164 H   0  0  0  0  0  0  0  0  0  0  0  0
   11.2379    0.0962    5.1277 H   0  0  0  0  0  0  0  0  0  0  0  0
    8.8225    1.0067    4.0178 H   0  0  0  0  0  0  0  0  0  0  0  0
    8.7131    2.6038    2.7380 H   0  0  0  0  0  0  0  0  0  0  0  0
  1 21  1  0  0  0  0
  1 22  1  0  0  0  0
  1 23  1  0  0  0  0
  2  3  1  0  0  0  0
  2  7  1  0  0  0  0
  2 24  1  1  0  0  0
  2  1  1  0  0  0  0
  3  4  1  0  0  0  0
  3 20  1  0  0  0  0
  3 25  1  6  0  0  0
  4  5  1  0  0  0  0
  4 19  1  0  0  0  0
  4 26  1  1  0  0  0
  5  6  1  0  0  0  0
  5 18  1  0  0  0  0
  5 27  1  6  0  0  0
  6  7  1  0  0  0  0
  6  8  1  0  0  0  0
  6 28  1  1  0  0  0
  9 12  1  0  0  0  0
  9 29  1  1  0  0  0
  9 10  1  0  0  0  0
  9  8  1  0  0  0  0
 10 11  1  0  0  0  0
 10 30  1  0  0  0  0
 10 31  1  0  0  0  0
 11 32  1  0  0  0  0
 12 17  1  0  0  0  0
 12 33  1  6  0  0  0
 13 16  1  0  0  0  0
 13 34  1  6  0  0  0
 13 14  1  0  0  0  0
 13 12  1  0  0  0  0
 14 15  2  0  0  0  0
 14 35  1  0  0  0  0
 16 36  1  0  0  0  0
 17 37  1  0  0  0  0
 18 38  1  0  0  0  0
 19 39  1  0  0  0  0
 20 40  1  0  0  0  0
 21 41  1  0  0  0  0
M  END
>  <DRUGBANK_ID>
DB12767

>  <COMMON_NAME>
Gaxilose

>  <CAS_NUMBER>
14087-31-1

>  <UNII>
A571S2B3JE

>  <SYNONYMS>
Gaxilosa; Gaxilose

$$$$
