
 OpenBabel10282417133D

 19 20  0  0  0  0  0  0  0  0999 V2000
    1.0644    0.1338    0.0434 C   0  0  0  0  0  0  0  0  0  0  0  0
    0.6256    0.8501   -1.1200 N   0  0  0  0  0  0  0  0  0  0  0  0
    0.0744    0.2065   -2.2629 C   0  0  0  0  0  0  0  0  0  0  0  0
   -0.1823   -0.9742   -2.4189 O   0  0  0  0  0  0  0  0  0  0  0  0
   -0.1041    1.2327   -3.2037 N   0  0  0  0  0  0  0  0  0  0  0  0
    0.3217    2.4004   -2.6465 C   0  0  0  0  0  0  0  0  0  0  0  0
    0.7586    2.1887   -1.4032 C   0  0  0  0  0  0  0  0  0  0  0  0
    1.2359    3.1966   -0.6336 N   0  0  0  0  0  0  0  0  0  0  0  0
    1.2947    4.4941   -1.0932 C   0  0  0  0  0  0  0  0  0  0  0  0
    1.7183    5.4124   -0.3995 O   0  0  0  0  0  0  0  0  0  0  0  0
    0.8500    4.7017   -2.3806 N   0  0  0  0  0  0  0  0  0  0  0  0
    0.3583    3.7404   -3.2337 C   0  0  0  0  0  0  0  0  0  0  0  0
   -0.0125    3.9698   -4.3776 O   0  0  0  0  0  0  0  0  0  0  0  0
    0.6942   -0.8965    0.0140 H   0  0  0  0  0  0  0  0  0  0  0  0
    0.6953    0.6198    0.9497 H   0  0  0  0  0  0  0  0  0  0  0  0
    2.1579    0.1035    0.0504 H   0  0  0  0  0  0  0  0  0  0  0  0
   -0.4649    1.1144   -4.1383 H   0  0  0  0  0  0  0  0  0  0  0  0
    1.5498    3.0339    0.3132 H   0  0  0  0  0  0  0  0  0  0  0  0
    0.8944    5.6466   -2.7325 H   0  0  0  0  0  0  0  0  0  0  0  0
  1  2  1  0  0  0  0
  1 14  1  0  0  0  0
  1 15  1  0  0  0  0
  1 16  1  0  0  0  0
  2  3  1  0  0  0  0
  2  7  1  0  0  0  0
  3  4  2  0  0  0  0
  3  5  1  0  0  0  0
  5  6  1  0  0  0  0
  5 17  1  0  0  0  0
  6  7  2  0  0  0  0
  6 12  1  0  0  0  0
  7  8  1  0  0  0  0
  8  9  1  0  0  0  0
  8 18  1  0  0  0  0
  9 10  2  0  0  0  0
  9 11  1  0  0  0  0
 11 12  1  0  0  0  0
 11 19  1  0  0  0  0
 12 13  2  0  0  0  0
M  END
>  <DRUGBANK_ID>
DB03293

>  <SECONDARY_ACCESSION_NUMBERS>
EXPT02255

>  <COMMON_NAME>
9-Methyl Uric Acid

>  <UNII>
S4TO803W5P

$$$$
