
 OpenBabel10282417123D

 27 28  0  0  1  0  0  0  0  0999 V2000
    0.9578   -0.0685   -0.0690 C   0  0  0  0  0  0  0  0  0  0  0  0
    0.3135   -3.4691   -3.5882 C   0  0  0  0  0  0  0  0  0  0  0  0
    0.7315   -1.9920   -1.6397 C   0  0  0  0  0  0  0  0  0  0  0  0
   -0.0658   -0.0697   -2.3880 C   0  0  0  0  0  0  0  0  0  0  0  0
   -0.1930   -0.9984   -3.3874 C   0  0  0  0  0  0  0  0  0  0  0  0
   -0.6252    1.2934   -2.5359 C   0  0  1  0  0  0  0  0  0  0  0  0
   -1.6902    0.3527   -4.6148 C   0  0  2  0  0  0  0  0  0  0  0  0
   -2.8538   -0.0473   -3.9032 N   0  0  0  0  0  0  0  0  0  0  0  0
   -0.8054   -0.7753   -4.5923 N   0  0  0  0  0  0  0  0  0  0  0  0
   -1.1206    1.4650   -3.8954 N   0  0  0  0  0  0  0  0  0  0  0  0
    0.5304   -0.7016   -1.3102 N   0  3  0  0  0  0  0  0  0  0  0  0
    0.2893   -2.1853   -2.9005 N   0  0  0  0  0  0  0  0  0  0  0  0
   -1.7777    1.4636   -1.7326 O   0  0  0  0  0  0  0  0  0  0  0  0
    0.1271    2.0525   -2.3046 H   0  0  0  0  0  0  0  0  0  0  0  0
   -1.9523    0.6695   -5.6295 H   0  0  0  0  0  0  0  0  0  0  0  0
    0.5653   -0.6277    0.7822 H   0  0  0  0  0  0  0  0  0  0  0  0
    0.5828    0.9589   -0.0246 H   0  0  0  0  0  0  0  0  0  0  0  0
    2.0495   -0.0492   -0.0488 H   0  0  0  0  0  0  0  0  0  0  0  0
   -0.7097   -3.7784   -3.8234 H   0  0  0  0  0  0  0  0  0  0  0  0
    0.8925   -3.3685   -4.5098 H   0  0  0  0  0  0  0  0  0  0  0  0
    0.7771   -4.2274   -2.9514 H   0  0  0  0  0  0  0  0  0  0  0  0
    1.1707   -2.7467   -0.9982 H   0  0  0  0  0  0  0  0  0  0  0  0
   -3.6666   -0.4647   -4.3399 H   0  0  0  0  0  0  0  0  0  0  0  0
   -2.9829    0.2427   -2.9365 H   0  0  0  0  0  0  0  0  0  0  0  0
   -0.9350   -1.4342   -5.3448 H   0  0  0  0  0  0  0  0  0  0  0  0
   -1.2113    2.4025   -4.2668 H   0  0  0  0  0  0  0  0  0  0  0  0
   -1.7553    0.8260   -1.0000 H   0  0  0  0  0  0  0  0  0  0  0  0
  1 16  1  0  0  0  0
  1 17  1  0  0  0  0
  1 18  1  0  0  0  0
  2 19  1  0  0  0  0
  2 20  1  0  0  0  0
  2 21  1  0  0  0  0
  3 22  1  0  0  0  0
  5  4  2  0  0  0  0
  6  4  1  0  0  0  0
  6 14  1  1  0  0  0
  6 13  1  0  0  0  0
  7  8  1  0  0  0  0
  7 15  1  6  0  0  0
  8 23  1  0  0  0  0
  8 24  1  0  0  0  0
  9  5  1  0  0  0  0
  9  7  1  0  0  0  0
  9 25  1  0  0  0  0
 10  6  1  0  0  0  0
 10  7  1  0  0  0  0
 10 26  1  0  0  0  0
 11  1  1  0  0  0  0
 11  3  2  0  0  0  0
 11  4  1  0  0  0  0
 12  2  1  0  0  0  0
 12  3  1  0  0  0  0
 12  5  1  0  0  0  0
 13 27  1  0  0  0  0
M  CHG  1  11   1
M  END
>  <DRUGBANK_ID>
DB01978

>  <SECONDARY_ACCESSION_NUMBERS>
EXPT02320

>  <COMMON_NAME>
7,9-Dimethylguanine

>  <CAS_NUMBER>
55235-22-8

$$$$
