ENE
 OpenBabel10282417163D

 60 64  0  0  0  0  0  0  0  0999 V2000
  -11.6811   -5.5046   12.9785 O   0  0  0  0  0  0  0  0  0  0  0  0
  -12.1307   -4.7640   11.8507 C   0  0  1  0  0  0  0  0  0  0  0  0
  -13.2724   -5.6716   11.3521 C   0  0  0  0  0  0  0  0  0  0  0  0
  -14.4410   -5.3154   10.7992 C   0  0  0  0  0  0  0  0  0  0  0  0
  -14.5499   -3.9684   10.2614 C   0  0  0  0  0  0  0  0  0  0  0  0
  -13.3537   -4.0162    9.1622 C   0  0  1  0  0  0  0  0  0  0  0  0
  -12.1772   -5.3677    9.3184 O   0  0  0  0  0  0  0  0  0  0  0  0
  -10.5089   -5.6850    8.5553 C   0  0  1  0  0  0  0  0  0  0  0  0
   -9.3546   -5.3473    7.1646 C   0  0  0  0  0  0  0  0  0  0  0  0
   -9.8358   -6.1067    5.8620 C   0  0  1  0  0  0  0  0  0  0  0  0
   -9.1791   -6.0934    4.6332 O   0  0  0  0  0  0  0  0  0  0  0  0
   -9.9819   -7.0001    3.8033 C   0  0  1  0  0  0  0  0  0  0  0  0
  -10.5322   -8.6137    4.5031 C   0  0  0  0  0  0  0  0  0  0  0  0
  -10.7828   -9.5108    3.2855 C   0  0  0  0  0  0  0  0  0  0  0  0
  -11.7377   -9.1149    2.3959 C   0  0  0  0  0  0  0  0  0  0  0  0
  -11.4000   -7.8818    1.5182 C   0  0  0  0  0  0  0  0  0  0  0  0
  -11.8668   -6.6029    2.0428 O   0  0  0  0  0  0  0  0  0  0  0  0
  -11.2123   -6.0466    3.2289 C   0  0  2  0  0  0  0  0  0  0  0  0
  -12.1637   -6.1466    4.4148 C   0  0  1  0  0  0  0  0  0  0  0  0
  -12.6759   -7.4359    4.2853 O   0  0  0  0  0  0  0  0  0  0  0  0
  -11.3169   -5.8504    5.6241 C   0  0  2  0  0  0  0  0  0  0  0  0
  -11.8828   -6.5799    6.5971 O   0  0  0  0  0  0  0  0  0  0  0  0
  -11.6424   -5.9273    7.8168 C   0  0  2  0  0  0  0  0  0  0  0  0
  -11.4024   -4.1266    7.7550 C   0  0  0  0  0  0  0  0  0  0  0  0
  -11.2076   -3.3304    8.8855 C   0  0  0  0  0  0  0  0  0  0  0  0
  -12.4892   -2.8041    9.4089 C   0  0  2  0  0  0  0  0  0  0  0  0
  -12.4482   -2.3644   10.7635 O   0  0  0  0  0  0  0  0  0  0  0  0
  -12.4276   -3.2045   11.9827 C   0  0  2  0  0  0  0  0  0  0  0  0
  -11.5201   -2.3401   12.8636 C   0  0  0  0  0  0  0  0  0  0  0  0
  -10.1542   -2.6649   12.6759 O   0  0  0  0  0  0  0  0  0  0  0  0
  -13.3935   -3.1170   12.5029 H   0  0  0  0  0  0  0  0  0  0  0  0
  -12.6802   -1.9387    8.7622 H   0  0  0  0  0  0  0  0  0  0  0  0
  -11.6474   -6.8897    8.4213 H   0  0  0  0  0  0  0  0  0  0  0  0
  -11.4939   -4.7863    5.6665 H   0  0  0  0  0  0  0  0  0  0  0  0
  -13.1691   -5.7724    4.5951 H   0  0  0  0  0  0  0  0  0  0  0  0
  -11.0185   -4.9545    3.1016 H   0  0  0  0  0  0  0  0  0  0  0  0
   -9.3140   -7.2077    2.9688 H   0  0  0  0  0  0  0  0  0  0  0  0
   -9.5911   -7.1273    6.1712 H   0  0  0  0  0  0  0  0  0  0  0  0
   -9.9797   -5.6608    9.5395 H   0  0  0  0  0  0  0  0  0  0  0  0
  -13.7993   -3.9719    8.1456 H   0  0  0  0  0  0  0  0  0  0  0  0
  -11.2223   -4.8356   11.2653 H   0  0  0  0  0  0  0  0  0  0  0  0
  -11.5602   -6.4014   12.5835 H   0  0  0  0  0  0  0  0  0  0  0  0
  -12.9715   -6.6642   10.9939 H   0  0  0  0  0  0  0  0  0  0  0  0
  -15.0082   -6.0212   10.1891 H   0  0  0  0  0  0  0  0  0  0  0  0
  -15.6336   -3.8575   10.0757 H   0  0  0  0  0  0  0  0  0  0  0  0
  -14.4884   -3.0880   10.9164 H   0  0  0  0  0  0  0  0  0  0  0  0
   -9.1263   -4.2694    7.1255 H   0  0  0  0  0  0  0  0  0  0  0  0
   -8.2991   -5.6912    7.1944 H   0  0  0  0  0  0  0  0  0  0  0  0
  -11.5015   -8.7168    5.0467 H   0  0  0  0  0  0  0  0  0  0  0  0
   -9.9891   -9.0912    5.3456 H   0  0  0  0  0  0  0  0  0  0  0  0
   -9.7748   -9.6630    2.9217 H   0  0  0  0  0  0  0  0  0  0  0  0
  -12.7976   -9.0638    2.7412 H   0  0  0  0  0  0  0  0  0  0  0  0
  -11.8414   -8.0609    0.5364 H   0  0  0  0  0  0  0  0  0  0  0  0
  -10.3278   -7.7835    1.3781 H   0  0  0  0  0  0  0  0  0  0  0  0
  -12.1036   -7.6730    3.5513 H   0  0  0  0  0  0  0  0  0  0  0  0
  -11.1177   -3.5748    6.8765 H   0  0  0  0  0  0  0  0  0  0  0  0
  -10.9793   -3.8629    9.8094 H   0  0  0  0  0  0  0  0  0  0  0  0
  -11.6496   -1.2788   12.5873 H   0  0  0  0  0  0  0  0  0  0  0  0
  -11.7813   -2.4155   13.9211 H   0  0  0  0  0  0  0  0  0  0  0  0
  -10.0813   -3.6032   12.9224 H   0  0  0  0  0  0  0  0  0  0  0  0
  1 42  1  0  0  0  0
  2  3  1  0  0  0  0
  2 28  1  0  0  0  0
  2  1  1  0  0  0  0
  2 41  1  6  0  0  0
  3  4  2  0  0  0  0
  3 43  1  0  0  0  0
  4  5  1  0  0  0  0
  4 44  1  0  0  0  0
  5  6  1  0  0  0  0
  5 45  1  0  0  0  0
  5 46  1  0  0  0  0
  6  7  1  0  0  0  0
  6 26  1  0  0  0  0
  6 40  1  1  0  0  0
  7  8  1  0  0  0  0
  8  9  1  0  0  0  0
  8 23  1  0  0  0  0
  8 39  1  6  0  0  0
  9 10  1  0  0  0  0
  9 47  1  0  0  0  0
  9 48  1  0  0  0  0
 10 11  1  0  0  0  0
 10 21  1  0  0  0  0
 10 38  1  6  0  0  0
 11 12  1  0  0  0  0
 12 13  1  0  0  0  0
 12 18  1  0  0  0  0
 12 37  1  6  0  0  0
 13 14  1  0  0  0  0
 13 49  1  0  0  0  0
 13 50  1  0  0  0  0
 14 15  2  0  0  0  0
 14 51  1  0  0  0  0
 15 16  1  0  0  0  0
 15 52  1  0  0  0  0
 16 17  1  0  0  0  0
 16 53  1  0  0  0  0
 16 54  1  0  0  0  0
 17 18  1  0  0  0  0
 18 19  1  0  0  0  0
 18 36  1  1  0  0  0
 19 21  1  0  0  0  0
 19 35  1  6  0  0  0
 19 20  1  0  0  0  0
 20 55  1  0  0  0  0
 21 22  1  0  0  0  0
 21 34  1  6  0  0  0
 22 23  1  0  0  0  0
 23 24  1  0  0  0  0
 23 33  1  1  0  0  0
 24 25  2  0  0  0  0
 24 56  1  0  0  0  0
 25 26  1  0  0  0  0
 25 57  1  0  0  0  0
 26 27  1  0  0  0  0
 26 32  1  6  0  0  0
 27 28  1  0  0  0  0
 28 31  1  1  0  0  0
 28 29  1  0  0  0  0
 29 30  1  0  0  0  0
 29 58  1  0  0  0  0
 29 59  1  0  0  0  0
 30 60  1  0  0  0  0
M  END
>  <DRUGBANK_ID>
DB07716

>  <COMMON_NAME>
(4Z)-2,8:7,12:11,15:14,18:17,22-PENTAANHYDRO-4,5,6,9,10,13,19,20,21-NONADEOXY-D-ARABINO-D-ALLO-D-ALLO-DOCOSA-4,9,20-TRIENITOL

$$$$
