F25
 OpenBabel10282417163D

 59 63  0  0  0  0  0  0  0  0999 V2000
    1.1045    0.1718   -0.0589 O   0  0  0  0  0  0  0  0  0  0  0  0
    2.2797    0.1991   -0.1699 C   0  0  0  0  0  0  0  0  0  0  0  0
    3.2029    1.1130    0.3234 N   0  0  0  0  0  0  0  0  0  0  0  0
    2.8508    2.0054    1.3995 C   0  0  0  0  0  0  0  0  0  0  0  0
    3.8256    1.9915    2.5220 C   0  0  0  0  0  0  0  0  0  0  0  0
    5.2456    2.0392    2.3413 C   0  0  0  0  0  0  0  0  0  0  0  0
    6.1645    1.7680    3.2885 C   0  0  0  0  0  0  0  0  0  0  0  0
    5.6068    1.6394    4.4823 C   0  0  0  0  0  0  0  0  0  0  0  0
    6.4087    0.8508    5.2266 F   0  0  0  0  0  0  0  0  0  0  0  0
    4.2274    1.9917    4.7666 C   0  0  0  0  0  0  0  0  0  0  0  0
    3.2918    1.9975    3.7788 C   0  0  0  0  0  0  0  0  0  0  0  0
    4.5495    0.9623   -0.2674 C   0  0  1  0  0  0  0  0  0  0  0  0
    4.3453   -0.1012   -1.3579 C   0  0  1  0  0  0  0  0  0  0  0  0
    5.2440   -1.3283   -1.6688 C   0  0  1  0  0  0  0  0  0  0  0  0
    5.0539   -2.2410   -0.4961 N   0  0  2  0  0  0  0  0  0  0  0  0
    4.9835   -3.5952   -1.0712 C   0  0  0  0  0  0  0  0  0  0  0  0
    4.0776   -3.4077   -2.2760 C   0  0  0  0  0  0  0  0  0  0  0  0
    4.5574   -2.0863   -2.8599 C   0  0  0  0  0  0  0  0  0  0  0  0
    3.7349   -1.8963    0.1508 C   0  0  1  0  0  0  0  0  0  0  0  0
    3.8815   -1.5434    1.6351 C   0  0  0  0  0  0  0  0  0  0  0  0
    2.7515   -1.2658    2.4119 C   0  0  0  0  0  0  0  0  0  0  0  0
    2.8578   -0.9272    3.7986 C   0  0  0  0  0  0  0  0  0  0  0  0
    4.1114   -0.8623    4.5154 C   0  0  0  0  0  0  0  0  0  0  0  0
    5.2086   -1.2571    3.7121 C   0  0  0  0  0  0  0  0  0  0  0  0
    5.1093   -1.4906    2.3009 C   0  0  0  0  0  0  0  0  0  0  0  0
    4.2062   -0.2891    6.0870 C   0  0  0  0  0  0  0  0  0  0  0  0
    4.6671   -1.3281    6.9182 N   0  0  0  0  0  0  0  0  0  0  0  0
    5.0389    0.7075    6.9338 N   0  0  0  0  0  0  0  0  0  0  0  0
    3.1213   -0.8493   -0.8067 C   0  0  1  0  0  0  0  0  0  0  0  0
    4.9664    2.3154   -0.8718 C   0  0  0  0  0  0  0  0  0  0  0  0
    5.0693    3.3134    0.0425 F   0  0  0  0  0  0  0  0  0  0  0  0
    6.1805    2.2031   -1.4501 F   0  0  0  0  0  0  0  0  0  0  0  0
    5.2727    0.5701    0.4510 H   0  0  0  0  0  0  0  0  0  0  0  0
    4.1444    0.4476   -2.2818 H   0  0  0  0  0  0  0  0  0  0  0  0
    6.3102   -1.1311   -1.8437 H   0  0  0  0  0  0  0  0  0  0  0  0
    3.0789   -2.7787    0.1722 H   0  0  0  0  0  0  0  0  0  0  0  0
    2.5258   -1.2922   -1.6069 H   0  0  0  0  0  0  0  0  0  0  0  0
    2.8077    3.0367    1.0661 H   0  0  0  0  0  0  0  0  0  0  0  0
    1.8497    1.7192    1.7653 H   0  0  0  0  0  0  0  0  0  0  0  0
    5.7422    2.1905    1.4172 H   0  0  0  0  0  0  0  0  0  0  0  0
    7.2147    1.5276    3.1668 H   0  0  0  0  0  0  0  0  0  0  0  0
    3.7318    1.9892    5.7276 H   0  0  0  0  0  0  0  0  0  0  0  0
    2.2267    1.8595    4.0078 H   0  0  0  0  0  0  0  0  0  0  0  0
    5.9886   -3.9091   -1.3823 H   0  0  0  0  0  0  0  0  0  0  0  0
    4.6177   -4.3511   -0.3648 H   0  0  0  0  0  0  0  0  0  0  0  0
    4.1386   -4.2575   -2.9553 H   0  0  0  0  0  0  0  0  0  0  0  0
    3.0262   -3.3092   -1.9842 H   0  0  0  0  0  0  0  0  0  0  0  0
    4.7830   -2.2001   -3.9280 H   0  0  0  0  0  0  0  0  0  0  0  0
    3.7790   -1.3739   -3.1106 H   0  0  0  0  0  0  0  0  0  0  0  0
    1.7771   -1.1905    1.9162 H   0  0  0  0  0  0  0  0  0  0  0  0
    1.9146   -0.5954    4.2328 H   0  0  0  0  0  0  0  0  0  0  0  0
    6.2091   -1.2830    4.1264 H   0  0  0  0  0  0  0  0  0  0  0  0
    6.0278   -1.5468    1.7104 H   0  0  0  0  0  0  0  0  0  0  0  0
    3.1702    0.0033    6.3005 H   0  0  0  0  0  0  0  0  0  0  0  0
    4.8055   -0.7675    7.7645 H   0  0  0  0  0  0  0  0  0  0  0  0
    3.8911   -1.9496    7.0292 H   0  0  0  0  0  0  0  0  0  0  0  0
    4.6125    1.5846    7.2528 H   0  0  0  0  0  0  0  0  0  0  0  0
    5.8774    1.0805    6.4675 H   0  0  0  0  0  0  0  0  0  0  0  0
    4.2211    2.6646   -1.5841 H   0  0  0  0  0  0  0  0  0  0  0  0
  1  2  2  0  0  0  0
  2  3  1  0  0  0  0
  2 29  1  0  0  0  0
  3  4  1  0  0  0  0
  3 12  1  0  0  0  0
  4  5  1  0  0  0  0
  4 38  1  0  0  0  0
  4 39  1  0  0  0  0
  5  6  2  0  0  0  0
  5 11  1  0  0  0  0
  6  7  1  0  0  0  0
  6 40  1  0  0  0  0
  7  8  2  0  0  0  0
  7 41  1  0  0  0  0
  8  9  1  0  0  0  0
  8 10  1  0  0  0  0
 10 11  2  0  0  0  0
 10 42  1  0  0  0  0
 11 43  1  0  0  0  0
 12 13  1  0  0  0  0
 12 30  1  0  0  0  0
 12 33  1  1  0  0  0
 13 14  1  0  0  0  0
 13 29  1  0  0  0  0
 13 34  1  6  0  0  0
 14 15  1  0  0  0  0
 14 18  1  0  0  0  0
 14 35  1  6  0  0  0
 15 16  1  6  0  0  0
 15 19  1  0  0  0  0
 16 17  1  0  0  0  0
 16 44  1  0  0  0  0
 16 45  1  0  0  0  0
 17 18  1  0  0  0  0
 17 46  1  0  0  0  0
 17 47  1  0  0  0  0
 18 48  1  0  0  0  0
 18 49  1  0  0  0  0
 19 20  1  0  0  0  0
 19 29  1  0  0  0  0
 19 36  1  6  0  0  0
 20 21  2  0  0  0  0
 20 25  1  0  0  0  0
 21 22  1  0  0  0  0
 21 50  1  0  0  0  0
 22 23  2  0  0  0  0
 22 51  1  0  0  0  0
 23 24  1  0  0  0  0
 23 26  1  0  0  0  0
 24 25  2  0  0  0  0
 24 52  1  0  0  0  0
 25 53  1  0  0  0  0
 26 27  1  0  0  0  0
 26 28  1  0  0  0  0
 26 54  1  0  0  0  0
 27 55  1  0  0  0  0
 27 56  1  0  0  0  0
 28 57  1  0  0  0  0
 28 58  1  0  0  0  0
 29 37  1  6  0  0  0
 30 31  1  0  0  0  0
 30 32  1  0  0  0  0
 30 59  1  0  0  0  0
M  END
>  <DRUGBANK_ID>
DB07741

>  <COMMON_NAME>
4-(1R,3AS,4R,8AS,8BR)-[1-DIFLUOROMETHYL-2-(4-FLUOROBENZYL)-3-OXODECAHYDROPYRROLO[3,4-A]PYRROLIZIN-4-YL]BENZAMIDINE

$$$$
