
 OpenBabel10282417203D

 55 50  0  0  1  0  0  0  0  0999 V2000
    3.8751   -4.9386    3.5715 C   0  0  0  0  0  0  0  0  0  0  0  0
    3.4442   -5.0069    2.0600 C   0  0  2  0  0  0  0  0  0  0  0  0
    2.0800   -4.5182    1.7321 C   0  0  2  0  0  0  0  0  0  0  0  0
    2.0049   -3.1151    1.2415 C   0  0  1  0  0  0  0  0  0  0  0  0
    3.7010   -1.8956    0.8960 C   0  0  2  0  0  0  0  0  0  0  0  0
    4.1808   -0.7450   -0.7128 C   0  0  0  0  0  0  0  0  0  0  0  0
    3.9751   -1.4328   -1.7525 O   0  0  0  0  0  0  0  0  0  0  0  0
    4.8315    0.3263   -0.5744 O   0  5  0  0  0  0  0  0  0  0  0  0
    4.9678   -2.1209    0.5094 O   0  0  0  0  0  0  0  0  0  0  0  0
    0.8755   -3.3578   -0.1442 O   0  0  0  0  0  0  0  0  0  0  0  0
    1.0971   -5.4684    2.0349 O   0  0  0  0  0  0  0  0  0  0  0  0
    4.0498   -6.0937    1.4255 O   0  0  0  0  0  0  0  0  0  0  0  0
    2.6358   -4.7788    4.2138 O   0  0  0  0  0  0  0  0  0  0  0  0
    5.4460   -3.6181    1.7945 C   0  0  0  0  0  0  0  0  0  0  0  0
    4.9297   -4.0220   -0.0409 C   0  0  2  0  0  0  0  0  0  0  0  0
    3.1962   -3.4234   -0.6497 C   0  0  2  0  0  0  0  0  0  0  0  0
    2.1758   -1.5395   -0.2105 C   0  0  1  0  0  0  0  0  0  0  0  0
    2.8003    0.0892    0.6709 C   0  0  2  0  0  0  0  0  0  0  0  0
    2.5217    0.9565   -0.7803 C   0  0  0  0  0  0  0  0  0  0  0  0
    1.9575    0.2482   -1.7199 O   0  0  0  0  0  0  0  0  0  0  0  0
    2.3278    2.1897   -0.7323 O   0  5  0  0  0  0  0  0  0  0  0  0
    4.2755    0.2378    1.5098 O   0  0  0  0  0  0  0  0  0  0  0  0
    0.8592   -1.3360   -0.7176 O   0  0  0  0  0  0  0  0  0  0  0  0
    2.5874   -5.0205   -0.7502 O   0  0  0  0  0  0  0  0  0  0  0  0
    5.3018   -5.3348   -0.5134 O   0  0  0  0  0  0  0  0  0  0  0  0
    4.3658   -2.8357    2.8096 O   0  0  0  0  0  0  0  0  0  0  0  0
    0.0515    0.0171    1.3871 O   0  0  0  0  0  0  0  0  0  0  0  0
   -0.1038    0.9416   -1.1153 O   0  0  0  0  0  0  0  0  0  0  0  0
   -1.0339   -0.1584   -0.0530 Mg  0  2  0  0  0  0  0  0  0  0  0  0
    4.5359   -4.1635    4.0507 H   0  0  0  0  0  0  0  0  0  0  0  0
    4.5121   -5.7826    3.7981 H   0  0  0  0  0  0  0  0  0  0  0  0
    3.7499   -4.2195    1.4478 H   0  0  0  0  0  0  0  0  0  0  0  0
    1.7644   -4.6233    0.7804 H   0  0  0  0  0  0  0  0  0  0  0  0
    1.1427   -2.6571    1.7894 H   0  0  0  0  0  0  0  0  0  0  0  0
    3.6087   -1.4399    1.8974 H   0  0  0  0  0  0  0  0  0  0  0  0
    4.8892   -2.2302   -0.5011 H   0  0  0  0  0  0  0  0  0  0  0  0
    1.2613   -3.1385   -1.0536 H   0  0  0  0  0  0  0  0  0  0  0  0
    1.4359   -6.2447    1.5271 H   0  0  0  0  0  0  0  0  0  0  0  0
    3.4193   -6.7990    1.3163 H   0  0  0  0  0  0  0  0  0  0  0  0
    2.0091   -5.2459    3.6239 H   0  0  0  0  0  0  0  0  0  0  0  0
    6.1757   -2.8161    1.9445 H   0  0  0  0  0  0  0  0  0  0  0  0
    5.7884   -4.5154    2.2975 H   0  0  0  0  0  0  0  0  0  0  0  0
    5.7232   -3.5346   -0.6604 H   0  0  0  0  0  0  0  0  0  0  0  0
    3.1743   -3.4738   -1.7205 H   0  0  0  0  0  0  0  0  0  0  0  0
    1.8673   -1.4588    0.8444 H   0  0  0  0  0  0  0  0  0  0  0  0
    2.3129    0.1880    1.6780 H   0  0  0  0  0  0  0  0  0  0  0  0
    5.0378   -0.2674    1.0562 H   0  0  0  0  0  0  0  0  0  0  0  0
    1.3040   -1.2003   -1.6006 H   0  0  0  0  0  0  0  0  0  0  0  0
    1.6717   -5.3191   -0.5050 H   0  0  0  0  0  0  0  0  0  0  0  0
    4.7065   -5.9426   -0.0552 H   0  0  0  0  0  0  0  0  0  0  0  0
    3.4098   -3.0875    2.9437 H   0  0  0  0  0  0  0  0  0  0  0  0
    0.5494   -0.8315    1.3776 H   0  0  0  0  0  0  0  0  0  0  0  0
    0.8112    0.6610    1.2557 H   0  0  0  0  0  0  0  0  0  0  0  0
    0.5674    0.2443   -1.4377 H   0  0  0  0  0  0  0  0  0  0  0  0
    0.6228    1.5838   -1.4724 H   0  0  0  0  0  0  0  0  0  0  0  0
  1 13  1  0  0  0  0
  1 30  1  0  0  0  0
  1 31  1  0  0  0  0
  2 12  1  0  0  0  0
  2 32  1  6  0  0  0
  2  3  1  0  0  0  0
  2  1  1  0  0  0  0
  3 33  1  6  0  0  0
  3 11  1  0  0  0  0
  3  4  1  0  0  0  0
  4 10  1  0  0  0  0
  4 34  1  1  0  0  0
  5  9  1  0  0  0  0
  5 35  1  1  0  0  0
  5  6  1  0  0  0  0
  5  4  1  0  0  0  0
  6  7  2  0  0  0  0
  6  8  1  0  0  0  0
  9 36  1  0  0  0  0
 10 37  1  0  0  0  0
 11 38  1  0  0  0  0
 12 39  1  0  0  0  0
 13 40  1  0  0  0  0
 14 26  1  0  0  0  0
 14 41  1  0  0  0  0
 14 42  1  0  0  0  0
 15 25  1  0  0  0  0
 15 43  1  6  0  0  0
 15 16  1  0  0  0  0
 15 14  1  0  0  0  0
 16 44  1  6  0  0  0
 16 24  1  0  0  0  0
 16 17  1  0  0  0  0
 17 23  1  0  0  0  0
 17 45  1  1  0  0  0
 18 22  1  0  0  0  0
 18 46  1  1  0  0  0
 18 19  1  0  0  0  0
 18 17  1  0  0  0  0
 19 20  2  0  0  0  0
 19 21  1  0  0  0  0
 22 47  1  0  0  0  0
 23 48  1  0  0  0  0
 24 49  1  0  0  0  0
 25 50  1  0  0  0  0
 26 51  1  0  0  0  0
 27 52  1  0  0  0  0
 27 53  1  0  0  0  0
 28 54  1  0  0  0  0
 28 55  1  0  0  0  0
M  CHG  3   8  -1  21  -1  29   2
M  END
>  <DRUGBANK_ID>
DB13749

>  <COMMON_NAME>
Magnesium gluconate

>  <CAS_NUMBER>
59625-89-7

>  <UNII>
T42NAD2KHC

>  <SYNONYMS>
Magnesium (as gluconate); Magnesium D-gluconate (1:2) dihydrate; Magnesium D-gluconate (1:2) hydrate; Magnesium gluconate; Magnesium gluconate,dihydrate; Magnesium gluconicum

$$$$
