1148
 OpenBabel10282417113D

 54 57  0  0  0  0  0  0  0  0999 V2000
    1.1223    0.0403    0.2243 O   0  0  0  0  0  0  0  0  0  0  0  0
    2.8756   -0.9793   -3.3344 O   0  0  0  0  0  0  0  0  0  0  0  0
    3.1163    0.9546    0.6990 O   0  0  0  0  0  0  0  0  0  0  0  0
    3.3913   -4.8474   -4.6807 O   0  0  0  0  0  0  0  0  0  0  0  0
    1.5030   -0.7247   -2.1552 N   0  0  0  0  0  0  0  0  0  0  0  0
    1.9060   -2.4317   -2.8530 C   0  0  0  0  0  0  0  0  0  0  0  0
    2.7219    0.6484   -2.5455 C   0  0  0  0  0  0  0  0  0  0  0  0
    4.0146   -2.3455   -3.5422 C   0  0  0  0  0  0  0  0  0  0  0  0
    4.4846    0.2330   -3.1367 C   0  0  0  0  0  0  0  0  0  0  0  0
    4.7676   -1.1189   -4.1329 C   0  0  0  0  0  0  0  0  0  0  0  0
    0.1398   -0.6634   -1.9150 C   0  0  0  0  0  0  0  0  0  0  0  0
    0.1811   -0.8881   -0.4222 C   0  0  0  0  0  0  0  0  0  0  0  0
    3.3766   -1.1091   -0.4943 C   0  0  0  0  0  0  0  0  0  0  0  0
    2.5134    0.0347    0.1387 C   0  0  0  0  0  0  0  0  0  0  0  0
    3.2510   -1.8685   -1.6721 C   0  0  0  0  0  0  0  0  0  0  0  0
    3.4315   -3.5832   -2.0905 C   0  0  0  0  0  0  0  0  0  0  0  0
    2.1721   -2.5744   -5.0276 C   0  0  0  0  0  0  0  0  0  0  0  0
    1.9616   -1.2823   -4.5987 C   0  0  0  0  0  0  0  0  0  0  0  0
    2.8990   -3.9796   -3.9619 C   0  0  0  0  0  0  0  0  0  0  0  0
    4.2975   -1.7931    0.2529 C   0  0  0  0  0  0  0  0  0  0  0  0
    4.4947   -3.9690   -1.3314 C   0  0  0  0  0  0  0  0  0  0  0  0
    0.7777   -0.2467   -4.9764 C   0  0  0  0  0  0  0  0  0  0  0  0
    4.9091   -3.0640   -0.2227 C   0  0  0  0  0  0  0  0  0  0  0  0
    1.7776   -2.7043   -6.4150 C   0  0  0  0  0  0  0  0  0  0  0  0
   -0.5468   -0.6992   -5.2329 C   0  0  0  0  0  0  0  0  0  0  0  0
    0.8952    1.1670   -5.0079 C   0  0  0  0  0  0  0  0  0  0  0  0
   -1.5583    0.1569   -5.7316 C   0  0  0  0  0  0  0  0  0  0  0  0
   -0.1360    2.0422   -5.3819 C   0  0  0  0  0  0  0  0  0  0  0  0
   -1.3205    1.5209   -5.8616 C   0  0  0  0  0  0  0  0  0  0  0  0
    1.0138   -2.7388   -3.4465 H   0  0  0  0  0  0  0  0  0  0  0  0
    1.5521   -3.1673   -2.0350 H   0  0  0  0  0  0  0  0  0  0  0  0
    2.4884    1.6119   -2.1313 H   0  0  0  0  0  0  0  0  0  0  0  0
    2.5581    0.8565   -3.5845 H   0  0  0  0  0  0  0  0  0  0  0  0
    4.6295   -3.2352   -3.8371 H   0  0  0  0  0  0  0  0  0  0  0  0
    4.7813   -2.1893   -2.6930 H   0  0  0  0  0  0  0  0  0  0  0  0
    5.1215    0.0972   -2.2610 H   0  0  0  0  0  0  0  0  0  0  0  0
    4.7992    1.0017   -3.8302 H   0  0  0  0  0  0  0  0  0  0  0  0
    5.8371   -1.3941   -4.0874 H   0  0  0  0  0  0  0  0  0  0  0  0
    4.4763   -1.1225   -5.1832 H   0  0  0  0  0  0  0  0  0  0  0  0
   -0.3488   -1.5021   -2.4356 H   0  0  0  0  0  0  0  0  0  0  0  0
   -0.1495    0.2966   -2.3048 H   0  0  0  0  0  0  0  0  0  0  0  0
    0.4718   -1.9043   -0.1142 H   0  0  0  0  0  0  0  0  0  0  0  0
   -0.8467   -0.7138   -0.0907 H   0  0  0  0  0  0  0  0  0  0  0  0
    4.6225   -1.3356    1.1862 H   0  0  0  0  0  0  0  0  0  0  0  0
    5.2602   -4.5671   -1.8159 H   0  0  0  0  0  0  0  0  0  0  0  0
    5.8735   -3.2848    0.2365 H   0  0  0  0  0  0  0  0  0  0  0  0
    0.6965   -2.8246   -6.4110 H   0  0  0  0  0  0  0  0  0  0  0  0
    2.0394   -1.7720   -6.9670 H   0  0  0  0  0  0  0  0  0  0  0  0
    2.3533   -3.5306   -6.7767 H   0  0  0  0  0  0  0  0  0  0  0  0
   -0.8242   -1.7394   -5.0772 H   0  0  0  0  0  0  0  0  0  0  0  0
    1.8090    1.6953   -4.7834 H   0  0  0  0  0  0  0  0  0  0  0  0
   -2.5221   -0.2469   -6.0445 H   0  0  0  0  0  0  0  0  0  0  0  0
    0.0287    3.1198   -5.3487 H   0  0  0  0  0  0  0  0  0  0  0  0
   -2.0401    2.1785   -6.3401 H   0  0  0  0  0  0  0  0  0  0  0  0
  1 12  1  0  0  0  0
  1 14  1  0  0  0  0
  2 15  1  0  0  0  0
  2 18  1  0  0  0  0
  3 14  2  0  0  0  0
  4 19  2  0  0  0  0
  5  6  1  0  0  0  0
  5  7  1  0  0  0  0
  5 11  1  0  0  0  0
  6  8  1  0  0  0  0
  6 30  1  0  0  0  0
  6 31  1  0  0  0  0
  7  9  1  0  0  0  0
  7 32  1  0  0  0  0
  7 33  1  0  0  0  0
  8 10  1  0  0  0  0
  8 34  1  0  0  0  0
  8 35  1  0  0  0  0
  9 10  1  0  0  0  0
  9 36  1  0  0  0  0
  9 37  1  0  0  0  0
 10 38  1  0  0  0  0
 10 39  1  0  0  0  0
 11 12  1  0  0  0  0
 11 40  1  0  0  0  0
 11 41  1  0  0  0  0
 12 42  1  0  0  0  0
 12 43  1  0  0  0  0
 13 14  1  0  0  0  0
 13 15  1  0  0  0  0
 13 20  2  0  0  0  0
 15 16  2  0  0  0  0
 16 19  1  0  0  0  0
 16 21  1  0  0  0  0
 17 18  2  0  0  0  0
 17 19  1  0  0  0  0
 17 24  1  0  0  0  0
 18 22  1  0  0  0  0
 20 23  1  0  0  0  0
 20 44  1  0  0  0  0
 21 23  2  0  0  0  0
 21 45  1  0  0  0  0
 22 25  2  0  0  0  0
 22 26  1  0  0  0  0
 23 46  1  0  0  0  0
 24 47  1  0  0  0  0
 24 48  1  0  0  0  0
 24 49  1  0  0  0  0
 25 27  1  0  0  0  0
 25 50  1  0  0  0  0
 26 28  2  0  0  0  0
 26 51  1  0  0  0  0
 27 29  2  0  0  0  0
 27 52  1  0  0  0  0
 28 29  1  0  0  0  0
 28 53  1  0  0  0  0
 29 54  1  0  0  0  0
M  END
>  <DRUGBANK_ID>
DB01148

>  <SECONDARY_ACCESSION_NUMBERS>
APRD00972

>  <COMMON_NAME>
Flavoxate

>  <CAS_NUMBER>
15301-69-6

>  <UNII>
3E74Y80MEY

>  <SYNONYMS>
2-(1-piperidinyl)ethyl 3-methyl-4-oxo-2-phenyl-4H-chromene-8-carboxylate; 2-piperidinoethyl 3-methyl-4-oxo-2-phenyl-4H-1-benzopyran-8-carboxylate; 2-piperidinoethyl 3-methylflavone-8-carboxylate; Flavoxate; Flavoxato; Flavoxatum; Î²-piperidinoethyl 3-methylflavone-8-carboxylate

$$$$
