5SC
 OpenBabel10282417163D

 42 45  0  0  0  0  0  0  0  0999 V2000
    1.5505   -1.2099    0.0075 C   0  0  0  0  0  0  0  0  0  0  0  0
    0.2356   -0.8080    0.0277 C   0  0  0  0  0  0  0  0  0  0  0  0
    0.2790    0.5976    0.0164 N   0  0  0  0  0  0  0  0  0  0  0  0
    1.5746    1.0441   -0.0084 N   0  0  0  0  0  0  0  0  0  0  0  0
    2.3236   -0.0534   -0.0051 C   0  0  0  0  0  0  0  0  0  0  0  0
   -0.9394   -1.5086    0.0423 N   0  0  0  0  0  0  0  0  0  0  0  0
   -2.0303   -0.7958    0.0453 C   0  0  0  0  0  0  0  0  0  0  0  0
   -2.0906    0.6956    0.0865 C   0  0  0  0  0  0  0  0  0  0  0  0
   -0.9177    1.3705    0.0407 C   0  0  0  0  0  0  0  0  0  0  0  0
   -0.9120    2.7619    0.0115 N   0  0  0  0  0  0  0  0  0  0  0  0
   -3.3540   -1.4650    0.0117 C   0  0  0  0  0  0  0  0  0  0  0  0
    0.2213    3.6639    0.0174 C   0  0  0  0  0  0  0  0  0  0  0  0
    0.2294    4.5247   -1.2152 C   0  0  0  0  0  0  0  0  0  0  0  0
    1.3779    4.5893   -2.0160 C   0  0  0  0  0  0  0  0  0  0  0  0
    1.4469    5.4279   -3.1119 N   0  3  0  0  0  0  0  0  0  0  0  0
    0.4030    6.3094   -3.3280 C   0  0  0  0  0  0  0  0  0  0  0  0
   -0.7299    6.3087   -2.5199 C   0  0  0  0  0  0  0  0  0  0  0  0
   -0.8552    5.3443   -1.5312 C   0  0  0  0  0  0  0  0  0  0  0  0
   -4.2509   -1.2808   -1.0564 C   0  0  0  0  0  0  0  0  0  0  0  0
   -5.4910   -1.9384   -1.0100 C   0  0  0  0  0  0  0  0  0  0  0  0
   -5.8942   -2.6127    0.1422 C   0  0  0  0  0  0  0  0  0  0  0  0
   -5.0278   -2.7142    1.2275 C   0  0  0  0  0  0  0  0  0  0  0  0
   -3.7215   -2.2371    1.1202 C   0  0  0  0  0  0  0  0  0  0  0  0
    2.2414   -2.9433   -0.0006 Br  0  0  0  0  0  0  0  0  0  0  0  0
   -3.9727   -0.3887   -2.2318 C   0  0  0  0  0  0  0  0  0  0  0  0
    2.4535    5.4154   -3.8823 O   0  5  0  0  0  0  0  0  0  0  0  0
    3.4001    0.0569   -0.0136 H   0  0  0  0  0  0  0  0  0  0  0  0
   -3.0519    1.1866    0.1026 H   0  0  0  0  0  0  0  0  0  0  0  0
   -1.8207    3.2086    0.0606 H   0  0  0  0  0  0  0  0  0  0  0  0
    0.1617    4.3110    0.8995 H   0  0  0  0  0  0  0  0  0  0  0  0
    1.1857    3.1755    0.1019 H   0  0  0  0  0  0  0  0  0  0  0  0
    2.2841    4.0218   -1.8571 H   0  0  0  0  0  0  0  0  0  0  0  0
    0.5657    6.9708   -4.1638 H   0  0  0  0  0  0  0  0  0  0  0  0
   -1.5061    7.0550   -2.6566 H   0  0  0  0  0  0  0  0  0  0  0  0
   -1.7921    5.2554   -0.9871 H   0  0  0  0  0  0  0  0  0  0  0  0
   -6.1648   -1.8981   -1.8640 H   0  0  0  0  0  0  0  0  0  0  0  0
   -6.8852   -3.0581    0.1922 H   0  0  0  0  0  0  0  0  0  0  0  0
   -5.3698   -3.1673    2.1546 H   0  0  0  0  0  0  0  0  0  0  0  0
   -3.0062   -2.4414    1.9133 H   0  0  0  0  0  0  0  0  0  0  0  0
   -4.0155   -0.9535   -3.1650 H   0  0  0  0  0  0  0  0  0  0  0  0
   -4.7173    0.4161   -2.2506 H   0  0  0  0  0  0  0  0  0  0  0  0
   -2.9918    0.0870   -2.1944 H   0  0  0  0  0  0  0  0  0  0  0  0
  1  2  2  0  0  0  0
  1 24  1  0  0  0  0
  2  6  1  0  0  0  0
  3  9  1  0  0  0  0
  3  2  1  0  0  0  0
  4  5  2  0  0  0  0
  4  3  1  0  0  0  0
  5  1  1  0  0  0  0
  5 27  1  0  0  0  0
  7  6  2  0  0  0  0
  7 11  1  0  0  0  0
  8  7  1  0  0  0  0
  8 28  1  0  0  0  0
  9  8  2  0  0  0  0
 10 12  1  0  0  0  0
 10  9  1  0  0  0  0
 10 29  1  0  0  0  0
 11 19  2  0  0  0  0
 12 30  1  0  0  0  0
 12 31  1  0  0  0  0
 13 18  1  0  0  0  0
 13 12  1  0  0  0  0
 14 13  2  0  0  0  0
 14 32  1  0  0  0  0
 15 16  2  0  0  0  0
 15 14  1  0  0  0  0
 16 17  1  0  0  0  0
 16 33  1  0  0  0  0
 17 18  2  0  0  0  0
 17 34  1  0  0  0  0
 18 35  1  0  0  0  0
 19 20  1  0  0  0  0
 19 25  1  0  0  0  0
 20 36  1  0  0  0  0
 21 20  2  0  0  0  0
 21 37  1  0  0  0  0
 22 21  1  0  0  0  0
 22 38  1  0  0  0  0
 23 22  2  0  0  0  0
 23 11  1  0  0  0  0
 23 39  1  0  0  0  0
 25 40  1  0  0  0  0
 25 41  1  0  0  0  0
 25 42  1  0  0  0  0
 26 15  1  0  0  0  0
M  CHG  2  15   1  26  -1
M  END
>  <DRUGBANK_ID>
DB07179

>  <COMMON_NAME>
3-((3-bromo-5-o-tolylpyrazolo[1,5-a]pyrimidin-7-ylamino)methyl)pyridine 1-oxide

$$$$
