
 OpenBabel10282417133D

101100  0  0  0  0  0  0  0  0999 V2000
    3.7711   -1.0300   -2.1818 Fe  0  0  0  0  0  0  0  0  0  0  0  0
   -3.4078    1.9373    1.4204 O   0  0  0  0  0  0  0  0  0  0  0  0
   -0.0808   -3.3568    4.6566 O   0  0  0  0  0  0  0  0  0  0  0  0
   -1.1574    2.9882    0.7040 O   0  0  0  0  0  0  0  0  0  0  0  0
   -1.1476    2.6255    3.9437 O   0  3  0  0  0  0  0  0  0  0  0  0
   -0.1854   -5.1329    1.6953 O   0  3  0  0  0  0  0  0  0  0  0  0
    0.4809    0.2964   -0.9168 O   0  3  0  0  0  0  0  0  0  0  0  0
   -1.7406   -2.8916   -2.3863 O   0  0  0  0  0  0  0  0  0  0  0  0
   -2.5027    0.7320   -4.6768 O   0  0  0  0  0  0  0  0  0  0  0  0
   -1.7298   -4.1919    0.3558 O   0  0  0  0  0  0  0  0  0  0  0  0
    1.8087   -0.8814   -5.9685 O   0  0  0  0  0  0  0  0  0  0  0  0
    2.1760   -5.9842   -0.7838 O   0  0  0  0  0  0  0  0  0  0  0  0
    1.9778   -2.6585   -3.2843 O   0  0  0  0  0  0  0  0  0  0  0  0
    3.4032   -6.4829   -5.3529 O   0  0  0  0  0  0  0  0  0  0  0  0
   -2.7834    1.4967    2.6384 N   0  0  0  0  0  0  0  0  0  0  0  0
    0.1199   -3.6543    3.3057 N   0  0  0  0  0  0  0  0  0  0  0  0
   -0.9423    1.9718   -0.2441 N   0  0  0  0  0  0  0  0  0  0  0  0
   -2.6617   -0.2733   -2.6332 N   0  0  0  0  0  0  0  0  0  0  0  0
   -0.3102   -2.1417   -0.7927 N   0  0  0  0  0  0  0  0  0  0  0  0
    0.5308    0.4026   -4.7100 N   0  0  0  0  0  0  0  0  0  0  0  0
   -0.6150   -5.7666   -0.9018 N   0  0  0  0  0  0  0  0  0  0  0  0
    0.5424   -3.1732   -5.0554 N   0  0  0  0  0  0  0  0  0  0  0  0
    2.4285   -5.3512   -2.8850 N   0  0  0  0  0  0  0  0  0  0  0  0
   -2.3263    2.5578    3.4280 C   0  0  0  0  0  0  0  0  0  0  0  0
   -0.0821   -4.9326    2.9332 C   0  0  0  0  0  0  0  0  0  0  0  0
    0.1506    1.1699   -0.0345 C   0  0  0  0  0  0  0  0  0  0  0  0
   -1.8269    0.5653    2.2336 C   0  0  0  0  0  0  0  0  0  0  0  0
    0.2562   -2.5059    2.4336 C   0  0  0  0  0  0  0  0  0  0  0  0
   -1.8598    2.3055   -1.3870 C   0  0  0  0  0  0  0  0  0  0  0  0
   -3.2433    3.6846    3.5484 C   0  0  0  0  0  0  0  0  0  0  0  0
   -0.2606   -6.1316    3.7088 C   0  0  0  0  0  0  0  0  0  0  0  0
    0.9574    0.8604    1.1926 C   0  0  0  0  0  0  0  0  0  0  0  0
   -2.2549   -0.6364    1.4068 C   0  0  0  0  0  0  0  0  0  0  0  0
    1.4615   -2.5052    1.4657 C   0  0  0  0  0  0  0  0  0  0  0  0
   -1.0492    2.8858   -2.4981 C   0  0  0  0  0  0  0  0  0  0  0  0
   -3.1052   -0.7640    0.0698 C   0  0  0  0  0  0  0  0  0  0  0  0
    1.4494   -3.5204    0.3132 C   0  0  0  0  0  0  0  0  0  0  0  0
    0.0767    1.9688   -2.9579 C   0  0  0  0  0  0  0  0  0  0  0  0
   -2.3056   -0.8261   -1.2913 C   0  0  1  0  0  0  0  0  0  0  0  0
    0.2609   -3.4628   -0.7213 C   0  0  1  0  0  0  0  0  0  0  0  0
   -0.3534    0.5839   -3.5877 C   0  0  1  0  0  0  0  0  0  0  0  0
   -1.5064   -2.1012   -1.5527 C   0  0  0  0  0  0  0  0  0  0  0  0
   -1.9219    0.3171   -3.6852 C   0  0  0  0  0  0  0  0  0  0  0  0
   -0.8697   -4.5057   -0.4774 C   0  0  0  0  0  0  0  0  0  0  0  0
    0.7489   -0.7783   -5.3569 C   0  0  0  0  0  0  0  0  0  0  0  0
    0.1200   -5.9620   -2.1286 C   0  0  0  0  0  0  0  0  0  0  0  0
   -0.1920   -1.9395   -5.0447 C   0  0  0  0  0  0  0  0  0  0  0  0
    1.6426   -5.8603   -1.8852 C   0  0  0  0  0  0  0  0  0  0  0  0
    1.4913   -3.4918   -4.1093 C   0  0  0  0  0  0  0  0  0  0  0  0
    1.9241   -4.9886   -4.2062 C   0  0  1  0  0  0  0  0  0  0  0  0
    2.9813   -5.1401   -5.2824 C   0  0  0  0  0  0  0  0  0  0  0  0
   -1.5939   -0.1191   -0.9970 H   0  0  0  0  0  0  0  0  0  0  0  0
    0.6466   -3.6041   -1.7093 H   0  0  0  0  0  0  0  0  0  0  0  0
    0.0123   -0.2663   -3.0025 H   0  0  0  0  0  0  0  0  0  0  0  0
   -4.2359    2.4125    1.6625 H   0  0  0  0  0  0  0  0  0  0  0  0
   -0.0646   -2.3954    4.8076 H   0  0  0  0  0  0  0  0  0  0  0  0
   -2.1528    3.0230    0.7406 H   0  0  0  0  0  0  0  0  0  0  0  0
   -0.5472    1.8581    3.9196 H   0  0  0  0  0  0  0  0  0  0  0  0
   -0.5851   -4.3130    1.3810 H   0  0  0  0  0  0  0  0  0  0  0  0
   -0.2270    0.3713   -1.5636 H   0  0  0  0  0  0  0  0  0  0  0  0
    3.8088   -6.8091   -4.5332 H   0  0  0  0  0  0  0  0  0  0  0  0
   -3.6673   -0.2149   -2.8457 H   0  0  0  0  0  0  0  0  0  0  0  0
   -0.3076   -1.6591    0.0632 H   0  0  0  0  0  0  0  0  0  0  0  0
    0.9118    1.2055   -5.2188 H   0  0  0  0  0  0  0  0  0  0  0  0
   -1.2024   -6.5380   -0.5791 H   0  0  0  0  0  0  0  0  0  0  0  0
    0.2403   -3.8426   -5.7736 H   0  0  0  0  0  0  0  0  0  0  0  0
    3.4128   -5.5780   -2.7665 H   0  0  0  0  0  0  0  0  0  0  0  0
   -1.1259    1.1888    1.7439 H   0  0  0  0  0  0  0  0  0  0  0  0
   -1.1823    0.2470    3.0636 H   0  0  0  0  0  0  0  0  0  0  0  0
    0.2558   -1.5841    3.0246 H   0  0  0  0  0  0  0  0  0  0  0  0
   -0.6608   -2.5144    1.8627 H   0  0  0  0  0  0  0  0  0  0  0  0
   -2.6946    2.9496   -1.0783 H   0  0  0  0  0  0  0  0  0  0  0  0
   -2.4529    1.4839   -1.7054 H   0  0  0  0  0  0  0  0  0  0  0  0
   -3.1217    4.3183    2.6668 H   0  0  0  0  0  0  0  0  0  0  0  0
   -4.2449    3.2532    3.5777 H   0  0  0  0  0  0  0  0  0  0  0  0
   -2.9858    4.1983    4.4667 H   0  0  0  0  0  0  0  0  0  0  0  0
    0.6091   -6.2242    4.3395 H   0  0  0  0  0  0  0  0  0  0  0  0
   -1.2179   -6.0259    4.2147 H   0  0  0  0  0  0  0  0  0  0  0  0
   -0.3246   -6.9359    2.9611 H   0  0  0  0  0  0  0  0  0  0  0  0
    1.0490    1.6428    1.9214 H   0  0  0  0  0  0  0  0  0  0  0  0
    0.4693   -0.0010    1.6563 H   0  0  0  0  0  0  0  0  0  0  0  0
    1.9180    0.4128    0.9135 H   0  0  0  0  0  0  0  0  0  0  0  0
   -1.2990   -1.0066    1.1359 H   0  0  0  0  0  0  0  0  0  0  0  0
   -2.6517   -1.3177    2.1587 H   0  0  0  0  0  0  0  0  0  0  0  0
    2.3841   -2.5635    2.0537 H   0  0  0  0  0  0  0  0  0  0  0  0
    1.5527   -1.5641    0.9307 H   0  0  0  0  0  0  0  0  0  0  0  0
   -0.6305    3.8063   -2.0817 H   0  0  0  0  0  0  0  0  0  0  0  0
   -1.6792    3.1411   -3.3506 H   0  0  0  0  0  0  0  0  0  0  0  0
   -3.5632   -1.7514    0.1784 H   0  0  0  0  0  0  0  0  0  0  0  0
   -3.8866   -0.0092    0.0575 H   0  0  0  0  0  0  0  0  0  0  0  0
    1.5937   -4.4966    0.7745 H   0  0  0  0  0  0  0  0  0  0  0  0
    2.3693   -3.3554   -0.2629 H   0  0  0  0  0  0  0  0  0  0  0  0
    0.8091    1.8449   -2.1511 H   0  0  0  0  0  0  0  0  0  0  0  0
    0.7259    2.5415   -3.6245 H   0  0  0  0  0  0  0  0  0  0  0  0
   -0.1456   -6.9073   -2.5883 H   0  0  0  0  0  0  0  0  0  0  0  0
   -0.2026   -5.1450   -2.7832 H   0  0  0  0  0  0  0  0  0  0  0  0
   -1.0379   -1.9530   -5.7323 H   0  0  0  0  0  0  0  0  0  0  0  0
   -0.5666   -1.8691   -4.0329 H   0  0  0  0  0  0  0  0  0  0  0  0
    1.0698   -5.6360   -4.4430 H   0  0  0  0  0  0  0  0  0  0  0  0
    2.5708   -4.8579   -6.2569 H   0  0  0  0  0  0  0  0  0  0  0  0
    3.8408   -4.4965   -5.0740 H   0  0  0  0  0  0  0  0  0  0  0  0
  2 15  1  0  0  0  0
  2 55  1  0  0  0  0
  3 16  1  0  0  0  0
  3 56  1  0  0  0  0
  4 17  1  0  0  0  0
  4 57  1  0  0  0  0
  5 24  2  0  0  0  0
  5 58  1  0  0  0  0
  6 25  2  0  0  0  0
  6 59  1  0  0  0  0
  7 26  2  0  0  0  0
  7 60  1  0  0  0  0
  8 42  2  0  0  0  0
  9 43  2  0  0  0  0
 10 44  2  0  0  0  0
 11 45  2  0  0  0  0
 12 48  2  0  0  0  0
 13 49  2  0  0  0  0
 14 51  1  0  0  0  0
 14 61  1  0  0  0  0
 15 24  1  0  0  0  0
 15 27  1  0  0  0  0
 16 25  1  0  0  0  0
 16 28  1  0  0  0  0
 17 26  1  0  0  0  0
 17 29  1  0  0  0  0
 18 43  1  0  0  0  0
 18 62  1  0  0  0  0
 19 40  1  0  0  0  0
 19 42  1  0  0  0  0
 19 63  1  0  0  0  0
 20 41  1  0  0  0  0
 20 45  1  0  0  0  0
 20 64  1  0  0  0  0
 21 44  1  0  0  0  0
 21 46  1  0  0  0  0
 21 65  1  0  0  0  0
 22 47  1  0  0  0  0
 22 49  1  0  0  0  0
 22 66  1  0  0  0  0
 23 48  1  0  0  0  0
 23 50  1  0  0  0  0
 23 67  1  0  0  0  0
 24 30  1  0  0  0  0
 25 31  1  0  0  0  0
 26 32  1  0  0  0  0
 27 33  1  0  0  0  0
 27 68  1  0  0  0  0
 27 69  1  0  0  0  0
 28 34  1  0  0  0  0
 28 70  1  0  0  0  0
 28 71  1  0  0  0  0
 29 35  1  0  0  0  0
 29 72  1  0  0  0  0
 29 73  1  0  0  0  0
 30 74  1  0  0  0  0
 30 75  1  0  0  0  0
 30 76  1  0  0  0  0
 31 77  1  0  0  0  0
 31 78  1  0  0  0  0
 31 79  1  0  0  0  0
 32 80  1  0  0  0  0
 32 81  1  0  0  0  0
 32 82  1  0  0  0  0
 33 36  1  0  0  0  0
 33 83  1  0  0  0  0
 33 84  1  0  0  0  0
 34 37  1  0  0  0  0
 34 85  1  0  0  0  0
 34 86  1  0  0  0  0
 35 38  1  0  0  0  0
 35 87  1  0  0  0  0
 35 88  1  0  0  0  0
 36 89  1  0  0  0  0
 36 90  1  0  0  0  0
 37 91  1  0  0  0  0
 37 92  1  0  0  0  0
 38 93  1  0  0  0  0
 38 94  1  0  0  0  0
 39 18  1  0  0  0  0
 39 42  1  0  0  0  0
 39 52  1  1  0  0  0
 39 36  1  0  0  0  0
 40 44  1  0  0  0  0
 40 53  1  6  0  0  0
 40 37  1  0  0  0  0
 41 43  1  0  0  0  0
 41 54  1  1  0  0  0
 41 38  1  0  0  0  0
 45 47  1  0  0  0  0
 46 48  1  0  0  0  0
 46 95  1  0  0  0  0
 46 96  1  0  0  0  0
 47 97  1  0  0  0  0
 47 98  1  0  0  0  0
 49 50  1  0  0  0  0
 50 51  1  0  0  0  0
 50 99  1  6  0  0  0
 51100  1  0  0  0  0
 51101  1  0  0  0  0
M  CHG  3   5   1   6   1   7   1
M  END
>  <DRUGBANK_ID>
DB03574

>  <SECONDARY_ACCESSION_NUMBERS>
EXPT01403

>  <COMMON_NAME>
Ferricrocin-iron

$$$$
