
 OpenBabel10282417143D

 22 22  0  0  0  0  0  0  0  0999 V2000
    0.9448   -0.0142    0.0327 C   0  0  0  0  0  0  0  0  0  0  0  0
    0.3998   -1.0725   -0.2570 O   0  0  0  0  0  0  0  0  0  0  0  0
    0.2203    1.3075    0.3577 C   0  0  1  0  0  0  0  0  0  0  0  0
    2.2935    0.0702    0.0598 O   0  0  0  0  0  0  0  0  0  0  0  0
    0.5443    1.7029    1.7485 N   0  0  0  0  0  0  0  0  0  0  0  0
    0.4928    2.4205   -0.6512 C   0  0  0  0  0  0  0  0  0  0  0  0
    0.9772    2.1391   -1.9447 C   0  0  0  0  0  0  0  0  0  0  0  0
    0.1704    3.7580   -0.3438 C   0  0  0  0  0  0  0  0  0  0  0  0
    1.1390    3.1615   -2.8776 C   0  0  0  0  0  0  0  0  0  0  0  0
    0.3515    4.7664   -1.2867 C   0  0  0  0  0  0  0  0  0  0  0  0
    0.8270    4.4741   -2.5559 C   0  0  0  0  0  0  0  0  0  0  0  0
    0.0572    6.0665   -0.9960 O   0  0  0  0  0  0  0  0  0  0  0  0
    1.5969    2.9036   -4.1369 O   0  0  0  0  0  0  0  0  0  0  0  0
   -0.8562    1.0944    0.3107 H   0  0  0  0  0  0  0  0  0  0  0  0
    2.6242   -0.8180   -0.1791 H   0  0  0  0  0  0  0  0  0  0  0  0
   -0.0180    2.5063    2.0111 H   0  0  0  0  0  0  0  0  0  0  0  0
    0.2569    0.9532    2.3757 H   0  0  0  0  0  0  0  0  0  0  0  0
    1.2305    1.1227   -2.2331 H   0  0  0  0  0  0  0  0  0  0  0  0
   -0.2265    4.0162    0.6318 H   0  0  0  0  0  0  0  0  0  0  0  0
    0.9486    5.2629   -3.2896 H   0  0  0  0  0  0  0  0  0  0  0  0
   -0.2210    6.1291   -0.0678 H   0  0  0  0  0  0  0  0  0  0  0  0
    1.7776    1.9533   -4.2212 H   0  0  0  0  0  0  0  0  0  0  0  0
  1  2  2  0  0  0  0
  1  3  1  0  0  0  0
  3  5  1  0  0  0  0
  3  6  1  0  0  0  0
  3 14  1  6  0  0  0
  4  1  1  0  0  0  0
  4 15  1  0  0  0  0
  5 16  1  0  0  0  0
  5 17  1  0  0  0  0
  7  6  1  0  0  0  0
  7 18  1  0  0  0  0
  8  6  2  0  0  0  0
  8 19  1  0  0  0  0
  9  7  2  0  0  0  0
  9 13  1  0  0  0  0
 10  8  1  0  0  0  0
 10 12  1  0  0  0  0
 11  9  1  0  0  0  0
 11 10  2  0  0  0  0
 11 20  1  0  0  0  0
 12 21  1  0  0  0  0
 13 22  1  0  0  0  0
M  END
>  <DRUGBANK_ID>
DB04228

>  <SECONDARY_ACCESSION_NUMBERS>
EXPT01095

>  <COMMON_NAME>
Dihydroxyphenylglycine

>  <CAS_NUMBER>
162870-29-3

>  <UNII>
CF5G2G268A

>  <SYNONYMS>
(S)-3,5-dihydroxyphenylglycine; 3,5-Dihydroxy-L-phenylglycine; DHPG; L-3,5-Dihydroxyphenylglycine; S-DHPG

$$$$
