
 OpenBabel10282417203D

 46 48  0  0  0  0  0  0  0  0999 V2000
    1.4992   -0.4610   -0.0208 C   0  0  0  0  0  0  0  0  0  0  0  0
   -4.1558    2.3336   -3.9586 C   0  0  0  0  0  0  0  0  0  0  0  0
   -2.0229    5.6829   -1.9717 C   0  0  0  0  0  0  0  0  0  0  0  0
    0.5446   -1.4751   -0.0303 C   0  0  0  0  0  0  0  0  0  0  0  0
    1.0632    0.8451    0.0423 C   0  0  0  0  0  0  0  0  0  0  0  0
   -3.2403    1.2788   -3.9754 C   0  0  0  0  0  0  0  0  0  0  0  0
   -4.7222    2.7143   -2.7556 C   0  0  0  0  0  0  0  0  0  0  0  0
   -3.2158    5.7602   -1.0204 C   0  0  0  0  0  0  0  0  0  0  0  0
   -1.6531    4.2529   -2.2320 C   0  0  0  0  0  0  0  0  0  0  0  0
   -0.8410   -1.2106   -0.0845 C   0  0  0  0  0  0  0  0  0  0  0  0
   -0.2988    1.0543    0.1368 C   0  0  0  0  0  0  0  0  0  0  0  0
   -2.8398    0.6378   -2.7850 C   0  0  0  0  0  0  0  0  0  0  0  0
   -4.3650    2.0378   -1.5849 C   0  0  0  0  0  0  0  0  0  0  0  0
   -3.2935    1.3020    1.0278 C   0  0  0  0  0  0  0  0  0  0  0  0
   -3.0037    4.9884    0.2896 C   0  0  0  0  0  0  0  0  0  0  0  0
   -1.5290    3.5124   -0.9173 C   0  0  0  0  0  0  0  0  0  0  0  0
   -2.6862    2.7283    1.2117 C   0  0  0  0  0  0  0  0  0  0  0  0
   -1.3099    0.1082   -0.0624 C   0  0  0  0  0  0  0  0  0  0  0  0
   -3.3582    1.0340   -1.5458 C   0  0  0  0  0  0  0  0  0  0  0  0
   -2.8240    0.4600   -0.1919 C   0  0  0  0  0  0  0  0  0  0  0  0
   -2.6653    3.6035    0.0166 N   0  0  0  0  0  0  0  0  0  0  0  0
    2.5622   -0.6529   -0.0153 H   0  0  0  0  0  0  0  0  0  0  0  0
   -4.3704    2.9047   -4.8578 H   0  0  0  0  0  0  0  0  0  0  0  0
   -2.2526    6.1670   -2.9249 H   0  0  0  0  0  0  0  0  0  0  0  0
   -1.1566    6.1844   -1.5308 H   0  0  0  0  0  0  0  0  0  0  0  0
    0.8946   -2.5064   -0.0043 H   0  0  0  0  0  0  0  0  0  0  0  0
    1.7399    1.6911    0.0561 H   0  0  0  0  0  0  0  0  0  0  0  0
   -2.7877    0.9940   -4.9209 H   0  0  0  0  0  0  0  0  0  0  0  0
   -5.3507    3.6009   -2.6901 H   0  0  0  0  0  0  0  0  0  0  0  0
   -3.4174    6.8080   -0.7905 H   0  0  0  0  0  0  0  0  0  0  0  0
   -4.1055    5.3648   -1.5268 H   0  0  0  0  0  0  0  0  0  0  0  0
   -2.3979    3.7914   -2.8716 H   0  0  0  0  0  0  0  0  0  0  0  0
   -0.7131    4.1625   -2.7914 H   0  0  0  0  0  0  0  0  0  0  0  0
   -1.5384   -2.0393   -0.1083 H   0  0  0  0  0  0  0  0  0  0  0  0
   -0.5114    2.0709    0.4050 H   0  0  0  0  0  0  0  0  0  0  0  0
   -2.0698   -0.1264   -2.8398 H   0  0  0  0  0  0  0  0  0  0  0  0
   -4.7899    2.4547   -0.6750 H   0  0  0  0  0  0  0  0  0  0  0  0
   -4.3904    1.3903    1.0068 H   0  0  0  0  0  0  0  0  0  0  0  0
   -3.1083    0.7213    1.9431 H   0  0  0  0  0  0  0  0  0  0  0  0
   -2.2238    5.4607    0.8957 H   0  0  0  0  0  0  0  0  0  0  0  0
   -3.9422    5.0246    0.8551 H   0  0  0  0  0  0  0  0  0  0  0  0
   -1.3876    2.5015   -1.2768 H   0  0  0  0  0  0  0  0  0  0  0  0
   -0.6083    3.8594   -0.4335 H   0  0  0  0  0  0  0  0  0  0  0  0
   -3.3092    3.1900    1.9909 H   0  0  0  0  0  0  0  0  0  0  0  0
   -1.7178    2.6642    1.7180 H   0  0  0  0  0  0  0  0  0  0  0  0
   -3.3623   -0.4979   -0.1160 H   0  0  0  0  0  0  0  0  0  0  0  0
  1 22  1  0  0  0  0
  2 23  1  0  0  0  0
  3 24  1  0  0  0  0
  3 25  1  0  0  0  0
  4  1  2  0  0  0  0
  4 26  1  0  0  0  0
  5  1  1  0  0  0  0
  5 27  1  0  0  0  0
  6  2  2  0  0  0  0
  6 28  1  0  0  0  0
  7  2  1  0  0  0  0
  7 29  1  0  0  0  0
  8  3  1  0  0  0  0
  8 30  1  0  0  0  0
  8 31  1  0  0  0  0
  9  3  1  0  0  0  0
  9 32  1  0  0  0  0
  9 33  1  0  0  0  0
 10  4  1  0  0  0  0
 10 34  1  0  0  0  0
 11  5  2  0  0  0  0
 11 35  1  0  0  0  0
 12  6  1  0  0  0  0
 12 36  1  0  0  0  0
 13  7  2  0  0  0  0
 13 37  1  0  0  0  0
 14 38  1  0  0  0  0
 14 39  1  0  0  0  0
 15  8  1  0  0  0  0
 15 40  1  0  0  0  0
 15 41  1  0  0  0  0
 16  9  1  0  0  0  0
 16 42  1  0  0  0  0
 16 43  1  0  0  0  0
 17 14  1  0  0  0  0
 17 44  1  0  0  0  0
 17 45  1  0  0  0  0
 18 10  2  0  0  0  0
 18 11  1  0  0  0  0
 19 12  2  0  0  0  0
 19 13  1  0  0  0  0
 20 14  1  0  0  0  0
 20 18  1  0  0  0  0
 20 19  1  0  0  0  0
 20 46  1  0  0  0  0
 21 15  1  0  0  0  0
 21 16  1  0  0  0  0
 21 17  1  0  0  0  0
M  END
>  <DRUGBANK_ID>
DB13439

>  <COMMON_NAME>
Fenpiprane

>  <CAS_NUMBER>
3540-95-2

>  <UNII>
S2FVB1RL5X

>  <SYNONYMS>
Fenpiprane

$$$$
