
 OpenBabel10282417143D

 53 55  0  0  0  0  0  0  0  0999 V2000
    1.0426    0.0335   -0.6777 Cl  0  0  0  0  0  0  0  0  0  0  0  0
    4.3680    0.8201    6.9411 Cl  0  0  0  0  0  0  0  0  0  0  0  0
    6.2456    2.6340   -1.4589 F   0  0  0  0  0  0  0  0  0  0  0  0
    8.2751    3.1341   -1.1614 F   0  0  0  0  0  0  0  0  0  0  0  0
    5.6176   -2.4022   -0.4408 O   0  0  0  0  0  0  0  0  0  0  0  0
    0.7186   -2.6708    1.1163 O   0  0  0  0  0  0  0  0  0  0  0  0
    7.7876   -0.8700   -1.9336 O   0  5  0  0  0  0  0  0  0  0  0  0
    2.5661   -2.2878    2.3150 N   0  0  0  0  0  0  0  0  0  0  0  0
    4.8413   -1.2348   -0.4614 N   0  0  0  0  0  0  0  0  0  0  0  0
    6.7833   -0.0188    0.1219 N   0  0  0  0  0  0  0  0  0  0  0  0
    7.7662   -0.0021   -2.8479 N   0  3  0  0  0  0  0  0  0  0  0  0
    3.9854   -2.1232    2.6225 C   0  0  1  0  0  0  0  0  0  0  0  0
    4.2244   -0.7936    3.3179 C   0  0  0  0  0  0  0  0  0  0  0  0
    2.7465   -2.5784   -0.1965 C   0  0  0  0  0  0  0  0  0  0  0  0
    3.4376   -1.2774   -0.5385 C   0  0  0  0  0  0  0  0  0  0  0  0
    1.9550   -2.5074    1.1152 C   0  0  0  0  0  0  0  0  0  0  0  0
    4.5276   -3.3131    3.3959 C   0  0  0  0  0  0  0  0  0  0  0  0
    7.4700    2.0263   -1.3455 C   0  0  0  0  0  0  0  0  0  0  0  0
    5.5374   -0.0430   -0.2187 C   0  0  0  0  0  0  0  0  0  0  0  0
    7.5846    1.2182   -0.0125 C   0  0  0  0  0  0  0  0  0  0  0  0
    2.7609   -0.1178   -0.7467 C   0  0  0  0  0  0  0  0  0  0  0  0
    4.4366   -0.6266    4.6769 C   0  0  0  0  0  0  0  0  0  0  0  0
    4.1599    0.3755    2.5689 C   0  0  0  0  0  0  0  0  0  0  0  0
    7.7547    1.3731   -2.6681 C   0  0  0  0  0  0  0  0  0  0  0  0
    4.7400    1.2112   -0.3374 C   0  0  0  0  0  0  0  0  0  0  0  0
    3.4713    1.1490   -0.7520 C   0  0  0  0  0  0  0  0  0  0  0  0
    4.4260    0.6583    5.2328 C   0  0  0  0  0  0  0  0  0  0  0  0
    4.3505    1.6570    3.0696 C   0  0  0  0  0  0  0  0  0  0  0  0
    7.8191    2.2188   -3.7977 C   0  0  0  0  0  0  0  0  0  0  0  0
    4.3946    1.8020    4.4364 C   0  0  0  0  0  0  0  0  0  0  0  0
    7.7803   -0.5028   -4.1381 C   0  0  0  0  0  0  0  0  0  0  0  0
    7.7694    1.6892   -5.0789 C   0  0  0  0  0  0  0  0  0  0  0  0
    7.7316    0.3170   -5.2515 C   0  0  0  0  0  0  0  0  0  0  0  0
    6.5288   -2.0585   -0.6087 H   0  0  0  0  0  0  0  0  0  0  0  0
    1.9196   -2.2336    3.0930 H   0  0  0  0  0  0  0  0  0  0  0  0
    4.5382   -2.1378    1.6935 H   0  0  0  0  0  0  0  0  0  0  0  0
    2.0562   -2.8266   -1.0128 H   0  0  0  0  0  0  0  0  0  0  0  0
    3.4332   -3.4256   -0.1123 H   0  0  0  0  0  0  0  0  0  0  0  0
    4.3184   -4.2530    2.8777 H   0  0  0  0  0  0  0  0  0  0  0  0
    5.6141   -3.2119    3.5023 H   0  0  0  0  0  0  0  0  0  0  0  0
    4.0825   -3.3786    4.3916 H   0  0  0  0  0  0  0  0  0  0  0  0
    7.4154    1.8590    0.8608 H   0  0  0  0  0  0  0  0  0  0  0  0
    8.6397    0.9196    0.0446 H   0  0  0  0  0  0  0  0  0  0  0  0
    4.5564   -1.4834    5.3273 H   0  0  0  0  0  0  0  0  0  0  0  0
    3.8925    0.2593    1.5481 H   0  0  0  0  0  0  0  0  0  0  0  0
    5.1423    2.1262    0.0712 H   0  0  0  0  0  0  0  0  0  0  0  0
    2.9101    2.0727   -0.8328 H   0  0  0  0  0  0  0  0  0  0  0  0
    4.3837    2.5170    2.4065 H   0  0  0  0  0  0  0  0  0  0  0  0
    7.8586    3.3006   -3.6598 H   0  0  0  0  0  0  0  0  0  0  0  0
    4.3670    2.7961    4.8676 H   0  0  0  0  0  0  0  0  0  0  0  0
    7.8160   -1.5823   -4.1591 H   0  0  0  0  0  0  0  0  0  0  0  0
    7.7429    2.3496   -5.9408 H   0  0  0  0  0  0  0  0  0  0  0  0
    7.6771   -0.1288   -6.2375 H   0  0  0  0  0  0  0  0  0  0  0  0
  1 21  1  0  0  0  0
  2 27  1  0  0  0  0
  3 18  1  0  0  0  0
  4 18  1  0  0  0  0
  5  9  1  0  0  0  0
  5 34  1  0  0  0  0
  6 16  2  0  0  0  0
  7 11  1  0  0  0  0
  8 16  1  0  0  0  0
  8 35  1  0  0  0  0
  9 15  1  0  0  0  0
  9 19  1  0  0  0  0
 10 19  2  0  0  0  0
 10 20  1  0  0  0  0
 11 24  1  0  0  0  0
 11 31  2  0  0  0  0
 12  8  1  0  0  0  0
 12 13  1  0  0  0  0
 12 17  1  0  0  0  0
 12 36  1  6  0  0  0
 13 22  2  0  0  0  0
 13 23  1  0  0  0  0
 14 15  1  0  0  0  0
 14 16  1  0  0  0  0
 14 37  1  0  0  0  0
 14 38  1  0  0  0  0
 15 21  2  0  0  0  0
 17 39  1  0  0  0  0
 17 40  1  0  0  0  0
 17 41  1  0  0  0  0
 18 20  1  0  0  0  0
 18 24  1  0  0  0  0
 19 25  1  0  0  0  0
 20 42  1  0  0  0  0
 20 43  1  0  0  0  0
 21 26  1  0  0  0  0
 22 27  1  0  0  0  0
 22 44  1  0  0  0  0
 23 28  2  0  0  0  0
 23 45  1  0  0  0  0
 24 29  2  0  0  0  0
 25 26  2  0  0  0  0
 25 46  1  0  0  0  0
 26 47  1  0  0  0  0
 27 30  2  0  0  0  0
 28 30  1  0  0  0  0
 28 48  1  0  0  0  0
 29 32  1  0  0  0  0
 29 49  1  0  0  0  0
 30 50  1  0  0  0  0
 31 33  1  0  0  0  0
 31 51  1  0  0  0  0
 32 33  2  0  0  0  0
 32 52  1  0  0  0  0
 33 53  1  0  0  0  0
M  CHG  2   7  -1  11   1
M  END
>  <DRUGBANK_ID>
DB04722

>  <COMMON_NAME>
2-[3-chloro-6-[2,2-difluoro-2-(1-oxidopyridin-1-ium-2-yl)ethyl]imino-1-hydroxypyridin-2-yl]-N-[(1R)-1-(3-chlorophenyl)ethyl]acetamide

$$$$
