279
 OpenBabel10282417103D

 35 36  0  0  1  0  0  0  0  0999 V2000
    4.5326   -4.0224   -6.0770 I   0  0  0  0  0  0  0  0  0  0  0  0
    3.3887   -9.3582   -2.9024 I   0  0  0  0  0  0  0  0  0  0  0  0
    5.4105   -7.4501  -10.3741 I   0  0  0  0  0  0  0  0  0  0  0  0
    4.8256   -7.5975   -5.1066 O   0  0  0  0  0  0  0  0  0  0  0  0
   -0.0825   -6.7839   -2.4017 O   0  0  0  0  0  0  0  0  0  0  0  0
    0.5879   -6.9138   -0.2602 O   0  0  0  0  0  0  0  0  0  0  0  0
    7.8245   -5.6050   -9.2391 O   0  0  0  0  0  0  0  0  0  0  0  0
   -0.0388   -4.1033   -0.1462 N   0  0  0  0  0  0  0  0  0  0  0  0
    2.1154   -4.3094   -1.3210 C   0  0  0  0  0  0  0  0  0  0  0  0
    0.6161   -4.6989   -1.3218 C   0  0  1  0  0  0  0  0  0  0  0  0
    2.9475   -5.1106   -2.2869 C   0  0  0  0  0  0  0  0  0  0  0  0
    3.0798   -6.4900   -2.1414 C   0  0  0  0  0  0  0  0  0  0  0  0
    3.5293   -4.5064   -3.3895 C   0  0  0  0  0  0  0  0  0  0  0  0
    4.2362   -6.6791   -4.2699 C   0  0  0  0  0  0  0  0  0  0  0  0
    4.1301   -5.2738   -4.4002 C   0  0  0  0  0  0  0  0  0  0  0  0
    3.6462   -7.2715   -3.1411 C   0  0  0  0  0  0  0  0  0  0  0  0
    0.3698   -6.2236   -1.2563 C   0  0  0  0  0  0  0  0  0  0  0  0
    5.6897   -7.1909   -6.0760 C   0  0  0  0  0  0  0  0  0  0  0  0
    5.3341   -7.5347   -7.3774 C   0  0  0  0  0  0  0  0  0  0  0  0
    6.8292   -6.4295   -5.8095 C   0  0  0  0  0  0  0  0  0  0  0  0
    6.0625   -7.0125   -8.4409 C   0  0  0  0  0  0  0  0  0  0  0  0
    7.5407   -5.8808   -6.8791 C   0  0  0  0  0  0  0  0  0  0  0  0
    7.1536   -6.1719   -8.1919 C   0  0  0  0  0  0  0  0  0  0  0  0
   -0.2242   -6.1809   -3.1543 H   0  0  0  0  0  0  0  0  0  0  0  0
    8.5652   -5.0752   -8.9055 H   0  0  0  0  0  0  0  0  0  0  0  0
   -1.0167   -4.3844   -0.1064 H   0  0  0  0  0  0  0  0  0  0  0  0
    0.0302   -3.0929   -0.1244 H   0  0  0  0  0  0  0  0  0  0  0  0
    2.5627   -4.4037   -0.3252 H   0  0  0  0  0  0  0  0  0  0  0  0
    2.1928   -3.2397   -1.5770 H   0  0  0  0  0  0  0  0  0  0  0  0
    0.1372   -4.3063   -2.2286 H   0  0  0  0  0  0  0  0  0  0  0  0
    2.6857   -6.9853   -1.2585 H   0  0  0  0  0  0  0  0  0  0  0  0
    3.4809   -3.4228   -3.4852 H   0  0  0  0  0  0  0  0  0  0  0  0
    4.4515   -8.1486   -7.5383 H   0  0  0  0  0  0  0  0  0  0  0  0
    7.0766   -6.1498   -4.7877 H   0  0  0  0  0  0  0  0  0  0  0  0
    8.3319   -5.1671   -6.6688 H   0  0  0  0  0  0  0  0  0  0  0  0
  1 15  1  0  0  0  0
  2 16  1  0  0  0  0
  3 21  1  0  0  0  0
  4 14  1  0  0  0  0
  4 18  1  0  0  0  0
  5 17  1  0  0  0  0
  5 24  1  0  0  0  0
  6 17  2  0  0  0  0
  7 23  1  0  0  0  0
  7 25  1  0  0  0  0
  8 26  1  0  0  0  0
  8 27  1  0  0  0  0
  9 11  1  0  0  0  0
  9 28  1  0  0  0  0
  9 29  1  0  0  0  0
 10 17  1  0  0  0  0
 10 30  1  6  0  0  0
 10  9  1  0  0  0  0
 10  8  1  0  0  0  0
 11 12  2  0  0  0  0
 11 13  1  0  0  0  0
 12 16  1  0  0  0  0
 12 31  1  0  0  0  0
 13 15  2  0  0  0  0
 13 32  1  0  0  0  0
 14 15  1  0  0  0  0
 14 16  2  0  0  0  0
 18 19  2  0  0  0  0
 18 20  1  0  0  0  0
 19 21  1  0  0  0  0
 19 33  1  0  0  0  0
 20 22  2  0  0  0  0
 20 34  1  0  0  0  0
 21 23  2  0  0  0  0
 22 23  1  0  0  0  0
 22 35  1  0  0  0  0
M  END
>  <DRUGBANK_ID>
DB00279

>  <SECONDARY_ACCESSION_NUMBERS>
APRD01074

>  <COMMON_NAME>
Liothyronine

>  <CAS_NUMBER>
6893-02-3

>  <UNII>
06LU7C9H1V

>  <SYNONYMS>
3,3',5-triiodo-L-thyronine; 3,5,3'-Triiodo-L-thyronine; 3,5,3'-Triiodothyronine; 4-(4-hydroxy-3-iodophenoxy)-3,5-diiodo-L-phenylalanine; L-3,5,3'-Triiodothyronine; L-T3; Liothyronine; Liothyroninum; Liotironina; O-(4-hydroxy-3-iodophenyl)-3,5-diiodo-L-tyrosine; T3; Triiodothyronine

$$$$
