78A
 OpenBabel10282417163D

 60 62  0  0  0  0  0  0  0  0999 V2000
   -7.4465   -4.9671   -7.1157 N   0  0  0  0  0  0  0  0  0  0  0  0
   -8.3231   -4.9633   -8.3376 C   0  0  0  0  0  0  0  0  0  0  0  0
   -7.7150   -4.9696   -9.7483 C   0  0  0  0  0  0  0  0  0  0  0  0
   -7.6169   -6.1944  -10.4126 C   0  0  0  0  0  0  0  0  0  0  0  0
   -7.0769   -6.2909  -11.7009 C   0  0  0  0  0  0  0  0  0  0  0  0
   -6.5615   -5.1691  -12.3428 C   0  0  0  0  0  0  0  0  0  0  0  0
   -6.6721   -3.9299  -11.7297 C   0  0  0  0  0  0  0  0  0  0  0  0
   -7.3017   -3.8281  -10.4749 C   0  0  0  0  0  0  0  0  0  0  0  0
   -5.3964   -5.3612   -5.7272 C   0  0  1  0  0  0  0  0  0  0  0  0
   -4.3586   -6.2220   -5.2470 O   0  0  0  0  0  0  0  0  0  0  0  0
   -3.8280   -5.0511   -5.8721 C   0  0  2  0  0  0  0  0  0  0  0  0
   -3.2795   -3.9077   -5.0264 C   0  0  0  0  0  0  0  0  0  0  0  0
   -3.9206   -3.4956   -4.0630 O   0  0  0  0  0  0  0  0  0  0  0  0
   -2.2158   -3.1219   -5.4627 N   0  0  0  0  0  0  0  0  0  0  0  0
   -1.2100   -3.3117   -6.5521 C   0  0  2  0  0  0  0  0  0  0  0  0
   -1.8269   -3.3709   -7.9753 C   0  0  0  0  0  0  0  0  0  0  0  0
   -1.2329   -3.7781   -8.9712 O   0  0  0  0  0  0  0  0  0  0  0  0
   -0.4059   -4.5449   -6.1530 C   0  0  2  0  0  0  0  0  0  0  0  0
    0.2613   -4.3200   -4.7754 C   0  0  0  0  0  0  0  0  0  0  0  0
    0.6261   -5.0053   -7.1722 C   0  0  0  0  0  0  0  0  0  0  0  0
    0.5025   -5.6596   -4.1107 C   0  0  0  0  0  0  0  0  0  0  0  0
   -3.1506   -3.0656   -8.0668 N   0  0  0  0  0  0  0  0  0  0  0  0
   -3.8991   -1.9172   -7.4998 C   0  0  2  0  0  0  0  0  0  0  0  0
   -3.2784   -0.9733   -6.4752 C   0  0  0  0  0  0  0  0  0  0  0  0
   -3.9639   -0.7517   -5.3330 O   0  0  0  0  0  0  0  0  0  0  0  0
   -5.2169   -2.5550   -7.1291 C   0  0  0  0  0  0  0  0  0  0  0  0
   -5.3287   -3.4762   -8.3183 C   0  0  0  0  0  0  0  0  0  0  0  0
   -4.0033   -3.9873   -8.7578 C   0  0  0  0  0  0  0  0  0  0  0  0
   -2.1754   -0.4678   -6.6472 O   0  0  0  0  0  0  0  0  0  0  0  0
   -6.3680   -5.8433   -6.8238 C   0  0  0  0  0  0  0  0  0  0  0  0
   -6.1337   -6.8532   -7.5035 O   0  0  0  0  0  0  0  0  0  0  0  0
   -5.9157   -4.8013   -4.9597 H   0  0  0  0  0  0  0  0  0  0  0  0
   -3.2071   -5.3017   -6.7093 H   0  0  0  0  0  0  0  0  0  0  0  0
   -0.5555   -2.4256   -6.5683 H   0  0  0  0  0  0  0  0  0  0  0  0
   -1.1229   -5.3646   -6.0509 H   0  0  0  0  0  0  0  0  0  0  0  0
   -4.1112   -1.2774   -8.3650 H   0  0  0  0  0  0  0  0  0  0  0  0
   -7.4365   -4.0771   -6.6346 H   0  0  0  0  0  0  0  0  0  0  0  0
   -8.9977   -5.8164   -8.2388 H   0  0  0  0  0  0  0  0  0  0  0  0
   -8.9499   -4.0608   -8.2735 H   0  0  0  0  0  0  0  0  0  0  0  0
   -7.9836   -7.0941   -9.9257 H   0  0  0  0  0  0  0  0  0  0  0  0
   -7.0601   -7.2555  -12.1993 H   0  0  0  0  0  0  0  0  0  0  0  0
   -6.0968   -5.2617  -13.3217 H   0  0  0  0  0  0  0  0  0  0  0  0
   -6.2786   -3.0457  -12.2315 H   0  0  0  0  0  0  0  0  0  0  0  0
   -7.3948   -2.8245  -10.0633 H   0  0  0  0  0  0  0  0  0  0  0  0
   -1.9760   -2.3600   -4.8265 H   0  0  0  0  0  0  0  0  0  0  0  0
    1.1923   -3.7511   -4.8837 H   0  0  0  0  0  0  0  0  0  0  0  0
   -0.3638   -3.7336   -4.0905 H   0  0  0  0  0  0  0  0  0  0  0  0
    1.0768   -5.9450   -6.8483 H   0  0  0  0  0  0  0  0  0  0  0  0
    0.1779   -5.2360   -8.1378 H   0  0  0  0  0  0  0  0  0  0  0  0
    1.4117   -4.2586   -7.3117 H   0  0  0  0  0  0  0  0  0  0  0  0
    1.1593   -6.2850   -4.7175 H   0  0  0  0  0  0  0  0  0  0  0  0
    0.9581   -5.5236   -3.1293 H   0  0  0  0  0  0  0  0  0  0  0  0
   -0.4502   -6.1863   -3.9817 H   0  0  0  0  0  0  0  0  0  0  0  0
   -4.7088   -1.3424   -5.1049 H   0  0  0  0  0  0  0  0  0  0  0  0
   -5.2133   -3.0395   -6.1601 H   0  0  0  0  0  0  0  0  0  0  0  0
   -6.0581   -1.8614   -7.0632 H   0  0  0  0  0  0  0  0  0  0  0  0
   -5.8888   -4.3567   -8.2305 H   0  0  0  0  0  0  0  0  0  0  0  0
   -5.7619   -2.8602   -9.0772 H   0  0  0  0  0  0  0  0  0  0  0  0
   -3.8370   -5.0339   -8.4576 H   0  0  0  0  0  0  0  0  0  0  0  0
   -3.9087   -4.0005   -9.8433 H   0  0  0  0  0  0  0  0  0  0  0  0
  1  2  1  0  0  0  0
  1 30  1  0  0  0  0
  1 37  1  0  0  0  0
  2  3  1  0  0  0  0
  2 38  1  0  0  0  0
  2 39  1  0  0  0  0
  3  4  1  0  0  0  0
  3  8  2  0  0  0  0
  4  5  2  0  0  0  0
  4 40  1  0  0  0  0
  5  6  1  0  0  0  0
  5 41  1  0  0  0  0
  6  7  2  0  0  0  0
  6 42  1  0  0  0  0
  7  8  1  0  0  0  0
  7 43  1  0  0  0  0
  8 44  1  0  0  0  0
  9 10  1  0  0  0  0
  9 11  1  0  0  0  0
  9 32  1  1  0  0  0
  9 30  1  0  0  0  0
 10 11  1  0  0  0  0
 11 33  1  6  0  0  0
 11 12  1  0  0  0  0
 12 13  2  0  0  0  0
 12 14  1  0  0  0  0
 14 45  1  0  0  0  0
 15 34  1  1  0  0  0
 15 16  1  0  0  0  0
 15 14  1  0  0  0  0
 16 17  2  0  0  0  0
 16 22  1  0  0  0  0
 18 20  1  0  0  0  0
 18 35  1  1  0  0  0
 18 19  1  0  0  0  0
 18 15  1  0  0  0  0
 19 21  1  0  0  0  0
 19 46  1  0  0  0  0
 19 47  1  0  0  0  0
 20 48  1  0  0  0  0
 20 49  1  0  0  0  0
 20 50  1  0  0  0  0
 21 51  1  0  0  0  0
 21 52  1  0  0  0  0
 21 53  1  0  0  0  0
 22 23  1  0  0  0  0
 22 28  1  0  0  0  0
 23 26  1  0  0  0  0
 23 36  1  6  0  0  0
 23 24  1  0  0  0  0
 24 25  1  0  0  0  0
 24 29  2  0  0  0  0
 25 54  1  0  0  0  0
 26 27  1  0  0  0  0
 26 55  1  0  0  0  0
 26 56  1  0  0  0  0
 27 28  1  0  0  0  0
 27 57  1  0  0  0  0
 27 58  1  0  0  0  0
 28 59  1  0  0  0  0
 28 60  1  0  0  0  0
 30 31  2  0  0  0  0
M  END
>  <DRUGBANK_ID>
DB07231

>  <COMMON_NAME>
N-({(2S,3S)-3-[(BENZYLAMINO)CARBONYL]OXIRAN-2-YL}CARBONYL)-L-ISOLEUCYL-L-PROLINE

$$$$
