
 OpenBabel10282417133D

 25 24  0  0  1  0  0  0  0  0999 V2000
    1.0587   -0.0153    0.0350 C   0  0  0  0  0  0  0  0  0  0  0  0
    0.5595    0.7243   -1.1769 C   0  0  0  0  0  0  0  0  0  0  0  0
   -0.1276    0.1871   -2.0403 O   0  0  0  0  0  0  0  0  0  0  0  0
    0.9091    2.0396   -1.3034 N   0  0  0  0  0  0  0  0  0  0  0  0
    1.7448    2.8005   -0.3731 C   0  0  1  0  0  0  0  0  0  0  0  0
    2.9571    3.3906   -1.1185 C   0  0  0  0  0  0  0  0  0  0  0  0
    2.6854    4.2755   -2.3412 C   0  0  0  0  0  0  0  0  0  0  0  0
    2.0415    5.6036   -2.0344 C   0  0  0  0  0  0  0  0  0  0  0  0
    2.6638    6.6303   -1.8025 O   0  0  0  0  0  0  0  0  0  0  0  0
    0.6838    5.6049   -1.9965 N   0  0  0  0  0  0  0  0  0  0  0  0
    0.9667    3.7641    0.5510 C   0  0  0  0  0  0  0  0  0  0  0  0
    1.2822    4.0796    1.6758 O   0  0  0  0  0  0  0  0  0  0  0  0
   -0.0638    4.3953   -0.0542 O   0  0  0  0  0  0  0  0  0  0  0  0
    0.6881   -1.0418    0.0261 H   0  0  0  0  0  0  0  0  0  0  0  0
    0.6966    0.4779    0.9420 H   0  0  0  0  0  0  0  0  0  0  0  0
    2.1528   -0.0449    0.0294 H   0  0  0  0  0  0  0  0  0  0  0  0
    0.5334    2.4747   -2.1391 H   0  0  0  0  0  0  0  0  0  0  0  0
    2.1672    2.0969    0.3478 H   0  0  0  0  0  0  0  0  0  0  0  0
    3.6150    3.9110   -0.4132 H   0  0  0  0  0  0  0  0  0  0  0  0
    3.5393    2.5339   -1.4958 H   0  0  0  0  0  0  0  0  0  0  0  0
    3.6373    4.5039   -2.8377 H   0  0  0  0  0  0  0  0  0  0  0  0
    2.0831    3.7419   -3.0842 H   0  0  0  0  0  0  0  0  0  0  0  0
    0.2051    4.7521   -1.7101 H   0  0  0  0  0  0  0  0  0  0  0  0
    0.3034    6.4300   -1.5497 H   0  0  0  0  0  0  0  0  0  0  0  0
   -0.1697    5.2267    0.4664 H   0  0  0  0  0  0  0  0  0  0  0  0
  1  2  1  0  0  0  0
  1 14  1  0  0  0  0
  1 15  1  0  0  0  0
  1 16  1  0  0  0  0
  2  3  2  0  0  0  0
  2  4  1  0  0  0  0
  4 17  1  0  0  0  0
  5  4  1  0  0  0  0
  5  6  1  0  0  0  0
  5 11  1  0  0  0  0
  5 18  1  1  0  0  0
  6  7  1  0  0  0  0
  6 19  1  0  0  0  0
  6 20  1  0  0  0  0
  7  8  1  0  0  0  0
  7 21  1  0  0  0  0
  7 22  1  0  0  0  0
  8  9  2  0  0  0  0
  8 10  1  0  0  0  0
 10 23  1  0  0  0  0
 10 24  1  0  0  0  0
 11 12  2  0  0  0  0
 11 13  1  0  0  0  0
 13 25  1  0  0  0  0
M  END
>  <DRUGBANK_ID>
DB04167

>  <SECONDARY_ACCESSION_NUMBERS>
EXPT02358

>  <COMMON_NAME>
Aceglutamide

>  <CAS_NUMBER>
2490-97-3

>  <UNII>
01J18G9G97

>  <SYNONYMS>
Aceglutamide; N-acetyl-L-glutamine

$$$$
