
 OpenBabel10282417123D

 16 16  0  0  0  0  0  0  0  0999 V2000
    0.9959    0.0618   -0.0705 O   0  0  0  0  0  0  0  0  0  0  0  0
    0.5234    0.0981   -1.4078 C   0  0  0  0  0  0  0  0  0  0  0  0
    0.9521    1.3593   -2.0922 C   0  0  0  0  0  0  0  0  0  0  0  0
    1.7588    1.3384   -3.2331 C   0  0  0  0  0  0  0  0  0  0  0  0
    2.2184    0.1686   -3.7013 F   0  0  0  0  0  0  0  0  0  0  0  0
    2.0864    2.5151   -3.9057 C   0  0  0  0  0  0  0  0  0  0  0  0
    2.8458    2.4674   -5.0086 F   0  0  0  0  0  0  0  0  0  0  0  0
    1.6129    3.7346   -3.4415 C   0  0  0  0  0  0  0  0  0  0  0  0
    1.9097    4.8648   -4.0979 F   0  0  0  0  0  0  0  0  0  0  0  0
    0.8242    3.7787   -2.3028 C   0  0  0  0  0  0  0  0  0  0  0  0
    0.3570    4.9522   -1.8538 F   0  0  0  0  0  0  0  0  0  0  0  0
    0.4991    2.6018   -1.6343 C   0  0  0  0  0  0  0  0  0  0  0  0
   -0.2808    2.6643   -0.5468 F   0  0  0  0  0  0  0  0  0  0  0  0
    1.9669    0.0696   -0.0936 H   0  0  0  0  0  0  0  0  0  0  0  0
    0.8813   -0.7981   -1.9247 H   0  0  0  0  0  0  0  0  0  0  0  0
   -0.5709    0.0485   -1.3913 H   0  0  0  0  0  0  0  0  0  0  0  0
  1  2  1  0  0  0  0
  1 14  1  0  0  0  0
  2  3  1  0  0  0  0
  2 15  1  0  0  0  0
  2 16  1  0  0  0  0
  3  4  2  0  0  0  0
  3 12  1  0  0  0  0
  4  5  1  0  0  0  0
  4  6  1  0  0  0  0
  6  7  1  0  0  0  0
  6  8  2  0  0  0  0
  8  9  1  0  0  0  0
  8 10  1  0  0  0  0
 10 11  1  0  0  0  0
 10 12  2  0  0  0  0
 12 13  1  0  0  0  0
M  END
>  <DRUGBANK_ID>
DB01711

>  <SECONDARY_ACCESSION_NUMBERS>
EXPT02555

>  <COMMON_NAME>
2,3,4,5,6-Pentafluorobenzyl Alcohol

>  <CAS_NUMBER>
440-60-8

>  <UNII>
FYY8AJK1SP

$$$$
