
 OpenBabel10282417203D

 26 21  0  0  0  0  0  0  0  0999 V2000
    1.0826   -0.0244    0.0508 C   0  0  0  0  0  0  0  0  0  0  0  0
    0.5759   -1.2369   -0.7131 C   0  0  0  0  0  0  0  0  0  0  0  0
   -0.1547   -2.0967   -0.1281 O   0  0  0  0  0  0  0  0  0  0  0  0
    0.9190   -1.4091   -2.0802 O   0  0  0  0  0  0  0  0  0  0  0  0
    0.4456   -2.5418   -2.7938 C   0  0  0  0  0  0  0  0  0  0  0  0
   -0.8382   -2.8195   -2.5993 C   0  0  0  0  0  0  0  0  0  0  0  0
   -1.4369   -3.8620   -3.2647 C   0  0  0  0  0  0  0  0  0  0  0  0
   -0.7087   -4.6929   -4.0702 C   0  0  0  0  0  0  0  0  0  0  0  0
    0.5440   -4.3417   -4.2970 C   0  0  0  0  0  0  0  0  0  0  0  0
    1.2557   -3.3773   -3.5450 C   0  0  0  0  0  0  0  0  0  0  0  0
    2.7717   -3.2680   -3.5602 C   0  0  0  0  0  0  0  0  0  0  0  0
    3.4592   -4.0658   -4.2716 O   0  0  0  0  0  0  0  0  0  0  0  0
    3.4198   -2.2745   -2.7797 O   0  0  0  0  0  0  0  0  0  0  0  0
    1.0104    0.0857   -0.0505 O   0  6  0  0  0  0  0  0  0  0  0  0
    0.9295   -0.0024    0.0709 O   0  6  0  0  0  0  0  0  0  0  0  0
    0.9406    0.0501    0.0630 O   0  6  0  0  0  0  0  0  0  0  0  0
    1.0904   -0.0387    0.0184 Al  0  1  0  0  0  0  0  0  0  0  0  0
    0.9228    0.0218   -0.0597 Al  0  1  0  0  0  0  0  0  0  0  0  0
    0.7259   -0.0633    1.0589 H   0  0  0  0  0  0  0  0  0  0  0  0
    0.7259    0.8680   -0.4195 H   0  0  0  0  0  0  0  0  0  0  0  0
    2.1526   -0.0244    0.0508 H   0  0  0  0  0  0  0  0  0  0  0  0
   -1.4117   -2.2261   -1.9183 H   0  0  0  0  0  0  0  0  0  0  0  0
   -2.4881   -4.0260   -3.1509 H   0  0  0  0  0  0  0  0  0  0  0  0
   -1.1310   -5.5800   -4.4940 H   0  0  0  0  0  0  0  0  0  0  0  0
    1.0564   -4.8196   -5.1056 H   0  0  0  0  0  0  0  0  0  0  0  0
    4.4172   -2.2026   -2.7897 H   0  0  0  0  0  0  0  0  0  0  0  0
  1  2  1  0  0  0  0
  1 19  1  0  0  0  0
  1 20  1  0  0  0  0
  1 21  1  0  0  0  0
  2  3  2  0  0  0  0
  2  4  1  0  0  0  0
  4  5  1  0  0  0  0
  5  6  2  0  0  0  0
  5 10  1  0  0  0  0
  6  7  1  0  0  0  0
  6 22  1  0  0  0  0
  7  8  2  0  0  0  0
  7 23  1  0  0  0  0
  8  9  1  0  0  0  0
  8 24  1  0  0  0  0
  9 10  2  0  0  0  0
  9 25  1  0  0  0  0
 10 11  1  0  0  0  0
 11 12  2  0  0  0  0
 11 13  1  0  0  0  0
 13 26  1  0  0  0  0
M  CHG  5  14  -2  15  -2  16  -2  17   3  18   3
M  END
>  <DRUGBANK_ID>
DB13509

>  <COMMON_NAME>
Aloxiprin

>  <CAS_NUMBER>
9014-67-9

>  <UNII>
6QT214X4XU

>  <SYNONYMS>
Aloxiprin

$$$$
