GAX
 OpenBabel10282417163D

 50 53  0  0  0  0  0  0  0  0999 V2000
   -1.3393    0.0547    0.1198 N   0  0  0  0  0  0  0  0  0  0  0  0
   -4.7482   -0.0237   -0.4288 N   0  0  0  0  0  0  0  0  0  0  0  0
   -4.7235    1.1443   -1.3026 C   0  0  0  0  0  0  0  0  0  0  0  0
   -4.8458   -2.3459    0.0672 N   0  0  0  0  0  0  0  0  0  0  0  0
   -4.4790   -4.1939   -1.4603 N   0  0  0  0  0  0  0  0  0  0  0  0
   -4.2794    3.5636   -1.6056 C   0  0  0  0  0  0  0  0  0  0  0  0
   -2.2941    5.0569   -0.0280 N   0  0  0  0  0  0  0  0  0  0  0  0
   -4.1209    3.3847   -2.9794 C   0  0  0  0  0  0  0  0  0  0  0  0
   -4.2915    2.1171   -3.5119 C   0  0  0  0  0  0  0  0  0  0  0  0
   -3.4198    6.0133   -2.0823 O   0  0  0  0  0  0  0  0  0  0  0  0
   -4.8087    5.5971   -0.0248 O   0  0  0  0  0  0  0  0  0  0  0  0
   -4.9159   -1.6244   -2.0902 O   0  0  0  0  0  0  0  0  0  0  0  0
   -4.8008   -1.3480   -0.8993 C   0  0  0  0  0  0  0  0  0  0  0  0
   -5.0055   -3.6546   -0.3849 C   0  0  0  0  0  0  0  0  0  0  0  0
   -4.8637   -5.5131   -1.5835 C   0  0  0  0  0  0  0  0  0  0  0  0
   -5.7284   -5.9681   -0.6120 C   0  0  0  0  0  0  0  0  0  0  0  0
   -5.9906   -4.7080    0.5431 S   0  0  0  0  0  0  0  0  0  0  0  0
   -4.7324    2.4658   -0.8022 C   0  0  0  0  0  0  0  0  0  0  0  0
   -4.5978    1.0291   -2.6868 C   0  0  0  0  0  0  0  0  0  0  0  0
   -3.7708    5.1869   -0.9254 S   0  0  0  0  0  0  0  0  0  0  0  0
   -2.3234    4.3004    1.2752 C   0  0  0  0  0  0  0  0  0  0  0  0
   -2.2739    2.8005    0.9691 C   0  0  0  0  0  0  0  0  0  0  0  0
   -1.1625    2.4639    0.1034 N   0  0  0  0  0  0  0  0  0  0  0  0
   -1.0555    3.2233   -1.1587 C   0  0  0  0  0  0  0  0  0  0  0  0
   -1.0414    4.7088   -0.7886 C   0  0  0  0  0  0  0  0  0  0  0  0
   -0.6192    1.1942    0.0711 C   0  0  0  0  0  0  0  0  0  0  0  0
    0.7715    1.1873    0.0155 C   0  0  0  0  0  0  0  0  0  0  0  0
    1.4708    0.0002   -0.0050 C   0  0  0  0  0  0  0  0  0  0  0  0
    0.7564   -1.1825   -0.0021 C   0  0  0  0  0  0  0  0  0  0  0  0
   -0.6317   -1.1091    0.0452 C   0  0  0  0  0  0  0  0  0  0  0  0
   -4.4848    0.1289    0.5379 H   0  0  0  0  0  0  0  0  0  0  0  0
   -5.0313   -2.1584    1.0372 H   0  0  0  0  0  0  0  0  0  0  0  0
   -3.8365    4.2026   -3.6378 H   0  0  0  0  0  0  0  0  0  0  0  0
   -4.1393    1.9377   -4.5725 H   0  0  0  0  0  0  0  0  0  0  0  0
   -4.4791   -6.1012   -2.4099 H   0  0  0  0  0  0  0  0  0  0  0  0
   -6.1694   -6.9545   -0.5296 H   0  0  0  0  0  0  0  0  0  0  0  0
   -4.9434    2.6254    0.2547 H   0  0  0  0  0  0  0  0  0  0  0  0
   -4.7192    0.0844   -3.1977 H   0  0  0  0  0  0  0  0  0  0  0  0
   -1.4598    4.5790    1.8938 H   0  0  0  0  0  0  0  0  0  0  0  0
   -3.2221    4.5803    1.8338 H   0  0  0  0  0  0  0  0  0  0  0  0
   -3.0992    2.6784    0.3466 H   0  0  0  0  0  0  0  0  0  0  0  0
   -2.4863    2.1387    1.8125 H   0  0  0  0  0  0  0  0  0  0  0  0
   -1.8889    3.0082   -1.8226 H   0  0  0  0  0  0  0  0  0  0  0  0
   -0.1663    2.9642   -1.7421 H   0  0  0  0  0  0  0  0  0  0  0  0
   -0.8988    5.3588   -1.6541 H   0  0  0  0  0  0  0  0  0  0  0  0
   -0.1766    4.8790   -0.1275 H   0  0  0  0  0  0  0  0  0  0  0  0
    1.2911    2.1393    0.0219 H   0  0  0  0  0  0  0  0  0  0  0  0
    2.5531    0.0249   -0.0221 H   0  0  0  0  0  0  0  0  0  0  0  0
    1.2759   -2.1330   -0.0309 H   0  0  0  0  0  0  0  0  0  0  0  0
   -1.2181   -2.0264    0.0245 H   0  0  0  0  0  0  0  0  0  0  0  0
  2  3  1  0  0  0  0
  2 31  1  0  0  0  0
  3 18  2  0  0  0  0
  3 19  1  0  0  0  0
  4 13  1  0  0  0  0
  4 32  1  0  0  0  0
  5 14  2  0  0  0  0
  6 20  1  0  0  0  0
  6  8  2  0  0  0  0
  7 25  1  0  0  0  0
  7 20  1  0  0  0  0
  8 33  1  0  0  0  0
  9  8  1  0  0  0  0
  9 34  1  0  0  0  0
 12 13  2  0  0  0  0
 13  2  1  0  0  0  0
 14  4  1  0  0  0  0
 15 16  2  0  0  0  0
 15  5  1  0  0  0  0
 15 35  1  0  0  0  0
 16 17  1  0  0  0  0
 16 36  1  0  0  0  0
 17 14  1  0  0  0  0
 18  6  1  0  0  0  0
 18 37  1  0  0  0  0
 19  9  2  0  0  0  0
 19 38  1  0  0  0  0
 20 11  2  0  0  0  0
 20 10  2  0  0  0  0
 21  7  1  0  0  0  0
 21 39  1  0  0  0  0
 21 40  1  0  0  0  0
 22 23  1  0  0  0  0
 22 21  1  0  0  0  0
 22 41  1  0  0  0  0
 22 42  1  0  0  0  0
 23 24  1  0  0  0  0
 24 25  1  0  0  0  0
 24 43  1  0  0  0  0
 24 44  1  0  0  0  0
 25 45  1  0  0  0  0
 25 46  1  0  0  0  0
 26  1  1  0  0  0  0
 26 23  1  0  0  0  0
 27 26  2  0  0  0  0
 27 47  1  0  0  0  0
 28 29  2  0  0  0  0
 28 27  1  0  0  0  0
 28 48  1  0  0  0  0
 29 30  1  0  0  0  0
 29 49  1  0  0  0  0
 30  1  2  0  0  0  0
 30 50  1  0  0  0  0
M  END
>  <DRUGBANK_ID>
DB07817

>  <COMMON_NAME>
1-{3-[(4-pyridin-2-ylpiperazin-1-yl)sulfonyl]phenyl}-3-(1,3-thiazol-2-yl)urea

$$$$
