TMJ
 OpenBabel10282417173D

 36 38  0  0  0  0  0  0  0  0999 V2000
    1.1792   -1.4449   -0.3801 C   0  0  0  0  0  0  0  0  0  0  0  0
   -6.3218    0.7623   -0.3367 C   0  0  0  0  0  0  0  0  0  0  0  0
   -8.8409   -0.3288    0.2319 C   0  0  0  0  0  0  0  0  0  0  0  0
   -8.1147   -0.7889   -0.8639 C   0  0  0  0  0  0  0  0  0  0  0  0
   -8.3512    0.7237    0.9999 C   0  0  0  0  0  0  0  0  0  0  0  0
   -6.8663   -0.2275   -1.1591 C   0  0  0  0  0  0  0  0  0  0  0  0
   -7.1053    1.2897    0.6956 C   0  0  0  0  0  0  0  0  0  0  0  0
   -1.3530   -1.3707   -0.0713 C   0  0  0  0  0  0  0  0  0  0  0  0
   -0.0654    0.6924   -0.1682 C   0  0  0  0  0  0  0  0  0  0  0  0
    2.2503   -0.7592    0.4810 C   0  0  0  0  0  0  0  0  0  0  0  0
    1.2788    1.3409   -0.4077 C   0  0  0  0  0  0  0  0  0  0  0  0
  -10.3429   -1.0635    0.6369 Cl  0  0  0  0  0  0  0  0  0  0  0  0
   -4.9962    1.2080   -0.6452 N   0  0  0  0  0  0  0  0  0  0  0  0
   -3.9395    1.6864    0.5883 S   0  0  0  0  0  0  0  0  0  0  0  0
   -3.6541    3.0860    0.3779 O   0  0  0  0  0  0  0  0  0  0  0  0
   -4.3986    1.1851    1.8700 O   0  0  0  0  0  0  0  0  0  0  0  0
   -2.4596    0.7638    0.2020 C   0  0  0  0  0  0  0  0  0  0  0  0
   -1.2383    1.4326    0.0364 C   0  0  0  0  0  0  0  0  0  0  0  0
   -2.5213   -0.6333    0.1414 C   0  0  0  0  0  0  0  0  0  0  0  0
   -0.1277   -0.7122   -0.2107 C   0  0  0  0  0  0  0  0  0  0  0  0
    2.3996    0.6890    0.2827 N   0  0  0  0  0  0  0  0  0  0  0  0
    1.4744   -1.4281   -1.4362 H   0  0  0  0  0  0  0  0  0  0  0  0
    1.0841   -2.4925   -0.0739 H   0  0  0  0  0  0  0  0  0  0  0  0
   -8.5030   -1.5981   -1.4768 H   0  0  0  0  0  0  0  0  0  0  0  0
   -8.9202    1.0950    1.8493 H   0  0  0  0  0  0  0  0  0  0  0  0
   -6.3040   -0.6072   -2.0078 H   0  0  0  0  0  0  0  0  0  0  0  0
   -6.7521    2.1121    1.3128 H   0  0  0  0  0  0  0  0  0  0  0  0
   -1.3967   -2.4568   -0.0923 H   0  0  0  0  0  0  0  0  0  0  0  0
    3.2190   -1.2463    0.3173 H   0  0  0  0  0  0  0  0  0  0  0  0
    2.0093   -0.9188    1.5406 H   0  0  0  0  0  0  0  0  0  0  0  0
    1.2561    2.3920   -0.1009 H   0  0  0  0  0  0  0  0  0  0  0  0
    1.4689    1.3270   -1.4889 H   0  0  0  0  0  0  0  0  0  0  0  0
   -4.8687    1.7030   -1.5287 H   0  0  0  0  0  0  0  0  0  0  0  0
   -1.1907    2.5175    0.0998 H   0  0  0  0  0  0  0  0  0  0  0  0
   -3.4660   -1.1515    0.2915 H   0  0  0  0  0  0  0  0  0  0  0  0
    3.2558    0.8779   -0.2359 H   0  0  0  0  0  0  0  0  0  0  0  0
  1 20  1  0  0  0  0
  1 10  1  0  0  0  0
  1 22  1  0  0  0  0
  1 23  1  0  0  0  0
  2  7  2  0  0  0  0
  2  6  1  0  0  0  0
  2 13  1  0  0  0  0
  3 12  1  0  0  0  0
  3  5  2  0  0  0  0
  3  4  1  0  0  0  0
  4  6  2  0  0  0  0
  4 24  1  0  0  0  0
  5  7  1  0  0  0  0
  5 25  1  0  0  0  0
  6 26  1  0  0  0  0
  7 27  1  0  0  0  0
  8 19  1  0  0  0  0
  8 20  2  0  0  0  0
  8 28  1  0  0  0  0
  9 18  2  0  0  0  0
  9 20  1  0  0  0  0
  9 11  1  0  0  0  0
 10 21  1  0  0  0  0
 10 29  1  0  0  0  0
 10 30  1  0  0  0  0
 11 21  1  0  0  0  0
 11 31  1  0  0  0  0
 11 32  1  0  0  0  0
 13 14  1  0  0  0  0
 13 33  1  0  0  0  0
 14 16  2  0  0  0  0
 14 15  2  0  0  0  0
 14 17  1  0  0  0  0
 17 19  2  0  0  0  0
 17 18  1  0  0  0  0
 18 34  1  0  0  0  0
 19 35  1  0  0  0  0
 21 36  1  0  0  0  0
M  END
>  <DRUGBANK_ID>
DB08631

>  <COMMON_NAME>
N-(4-CHLOROPHENYL)-1,2,3,4-TETRAHYDROISOQUINOLINE-7-SULFONAMIDE

$$$$
