
 OpenBabel10282417123D

 96101  0  0  0  0  0  0  0  0999 V2000
    1.1347   -0.0197    0.0231 C   0  0  0  0  0  0  0  0  0  0  0  0
    0.5651    1.2290    0.1559 C   0  0  0  0  0  0  0  0  0  0  0  0
   -0.8008    1.3518    0.1089 C   0  0  0  0  0  0  0  0  0  0  0  0
   -1.5951    0.2115   -0.0061 C   0  0  0  0  0  0  0  0  0  0  0  0
   -1.0285   -1.0632   -0.0395 C   0  0  0  0  0  0  0  0  0  0  0  0
    0.3487   -1.1857   -0.0248 C   0  0  0  0  0  0  0  0  0  0  0  0
    6.3614    4.9570   -0.8366 C   0  0  1  0  0  0  0  0  0  0  0  0
    4.9025    4.1886   -1.1667 C   0  0  3  0  0  0  0  0  0  0  0  0
    6.0083    6.2489   -1.5506 C   0  0  0  0  0  0  0  0  0  0  0  0
    8.0406   -2.7331   -0.9392 N   0  0  0  0  0  0  0  0  0  0  0  0
    7.0223   -1.8501   -1.5965 C   0  0  0  0  0  0  0  0  0  0  0  0
    5.5596   -2.4449   -1.6993 C   0  0  2  0  0  0  0  0  0  0  0  0
    5.1983   -3.1190   -0.3531 N   0  0  0  0  0  0  0  0  0  0  0  0
    6.2628   -3.7804    0.4678 C   0  0  0  0  0  0  0  0  0  0  0  0
    7.6557   -3.2041    0.4003 C   0  0  0  0  0  0  0  0  0  0  0  0
    7.6035   -5.2500   -2.0529 C   0  0  0  0  0  0  0  0  0  0  0  0
    7.3632   -6.3715   -2.8814 C   0  0  0  0  0  0  0  0  0  0  0  0
    5.9051   -6.8245   -2.6550 C   0  0  0  0  0  0  0  0  0  0  0  0
    5.5208   -6.0670   -1.5920 C   0  0  0  0  0  0  0  0  0  0  0  0
    6.4764   -5.1825   -1.3563 O   0  0  0  0  0  0  0  0  0  0  0  0
    3.2800   -6.8278   -1.4090 C   0  0  0  0  0  0  0  0  0  0  0  0
    4.2992   -6.0529   -0.9095 C   0  0  0  0  0  0  0  0  0  0  0  0
    4.8128   -7.5610   -3.2217 C   0  0  0  0  0  0  0  0  0  0  0  0
    3.5145   -7.5322   -2.5851 C   0  0  0  0  0  0  0  0  0  0  0  0
    8.5219   -3.9250   -1.8298 C   0  0  0  0  0  0  0  0  0  0  0  0
    5.7478   -3.1026   -3.1340 C   0  0  0  0  0  0  0  0  0  0  0  0
    4.6802   -2.1763    0.6687 C   0  0  0  0  0  0  0  0  0  0  0  0
    4.8762   -3.1679   -4.1801 N   0  0  0  0  0  0  0  0  0  0  0  0
    6.8520   -3.2880   -3.4953 O   0  0  0  0  0  0  0  0  0  0  0  0
    5.1757   -0.7177    0.7166 C   0  0  1  0  0  0  0  0  0  0  0  0
    6.5110   -0.5760    1.2085 O   0  0  0  0  0  0  0  0  0  0  0  0
    4.9862    0.1435   -0.5269 C   0  0  0  0  0  0  0  0  0  0  0  0
    3.5665    0.5575   -0.8910 C   0  0  2  0  0  0  0  0  0  0  0  0
    3.5568    2.0786   -1.1327 C   0  0  0  0  0  0  0  0  0  0  0  0
    4.7844    2.7526   -1.0119 N   0  0  0  0  0  0  0  0  0  0  0  0
    2.5339    2.6430   -1.5104 O   0  0  0  0  0  0  0  0  0  0  0  0
    5.7024    5.6367   -2.8505 C   0  0  0  0  0  0  0  0  0  0  0  0
    4.8590    4.5460   -2.6582 C   0  0  0  0  0  0  0  0  0  0  0  0
    4.2921    3.9328   -3.7604 C   0  0  0  0  0  0  0  0  0  0  0  0
    4.7515    4.3111   -5.0265 C   0  0  0  0  0  0  0  0  0  0  0  0
    5.8016    5.2317   -5.1646 C   0  0  0  0  0  0  0  0  0  0  0  0
    6.3080    5.8844   -4.0549 C   0  0  0  0  0  0  0  0  0  0  0  0
    6.8510    5.4417    0.4109 O   0  0  0  0  0  0  0  0  0  0  0  0
    2.6009   -0.0889    0.1075 C   0  0  0  0  0  0  0  0  0  0  0  0
    5.3471   -3.9245   -5.4425 C   0  0  0  0  0  0  0  0  0  0  0  0
    4.1909   -4.8508   -5.7980 C   0  0  0  0  0  0  0  0  0  0  0  0
    5.8827   -3.0611   -6.5805 C   0  0  0  0  0  0  0  0  0  0  0  0
    6.5251   -4.8920   -5.2488 C   0  0  0  0  0  0  0  0  0  0  0  0
    1.1982    2.0986    0.2982 H   0  0  0  0  0  0  0  0  0  0  0  0
   -1.2216    2.3467    0.1679 H   0  0  0  0  0  0  0  0  0  0  0  0
   -2.6697    0.3255   -0.0556 H   0  0  0  0  0  0  0  0  0  0  0  0
   -1.6534   -1.9504   -0.0745 H   0  0  0  0  0  0  0  0  0  0  0  0
    0.7973   -2.1813   -0.0348 H   0  0  0  0  0  0  0  0  0  0  0  0
    7.2040    4.4149   -1.3075 H   0  0  0  0  0  0  0  0  0  0  0  0
    4.0797    4.6553   -0.6172 H   0  0  0  0  0  0  0  0  0  0  0  0
    6.6959    7.0923   -1.5693 H   0  0  0  0  0  0  0  0  0  0  0  0
    5.0984    6.6245   -1.0489 H   0  0  0  0  0  0  0  0  0  0  0  0
    7.0497   -0.8823   -1.1071 H   0  0  0  0  0  0  0  0  0  0  0  0
    7.3718   -1.4688   -2.5711 H   0  0  0  0  0  0  0  0  0  0  0  0
    4.7037   -1.8004   -1.9392 H   0  0  0  0  0  0  0  0  0  0  0  0
    6.4309   -4.8423    0.3889 H   0  0  0  0  0  0  0  0  0  0  0  0
    5.8781   -3.9777    1.4757 H   0  0  0  0  0  0  0  0  0  0  0  0
    8.3722   -3.9667    0.7061 H   0  0  0  0  0  0  0  0  0  0  0  0
    7.7520   -2.4786    1.2133 H   0  0  0  0  0  0  0  0  0  0  0  0
    7.9562   -6.6131   -3.7556 H   0  0  0  0  0  0  0  0  0  0  0  0
    2.3171   -6.8182   -0.8992 H   0  0  0  0  0  0  0  0  0  0  0  0
    4.1372   -5.3949   -0.0646 H   0  0  0  0  0  0  0  0  0  0  0  0
    4.8768   -8.0680   -4.1803 H   0  0  0  0  0  0  0  0  0  0  0  0
    2.6548   -8.0408   -3.0240 H   0  0  0  0  0  0  0  0  0  0  0  0
    8.8083   -3.4600   -2.7836 H   0  0  0  0  0  0  0  0  0  0  0  0
    9.4836   -4.2065   -1.3964 H   0  0  0  0  0  0  0  0  0  0  0  0
    4.8720   -2.5210    1.6960 H   0  0  0  0  0  0  0  0  0  0  0  0
    3.6099   -2.3605    0.6838 H   0  0  0  0  0  0  0  0  0  0  0  0
    4.1480   -2.4746   -4.3039 H   0  0  0  0  0  0  0  0  0  0  0  0
    4.6580   -0.2344    1.5424 H   0  0  0  0  0  0  0  0  0  0  0  0
    7.1475   -0.9388    0.5790 H   0  0  0  0  0  0  0  0  0  0  0  0
    5.3732   -0.1663   -1.4927 H   0  0  0  0  0  0  0  0  0  0  0  0
    5.6987    0.9346   -0.3323 H   0  0  0  0  0  0  0  0  0  0  0  0
    3.3033    0.0979   -1.8632 H   0  0  0  0  0  0  0  0  0  0  0  0
    5.5749    2.2778   -1.4218 H   0  0  0  0  0  0  0  0  0  0  0  0
    3.5192    3.1766   -3.6741 H   0  0  0  0  0  0  0  0  0  0  0  0
    4.3228    3.8563   -5.9146 H   0  0  0  0  0  0  0  0  0  0  0  0
    6.2121    5.4602   -6.1417 H   0  0  0  0  0  0  0  0  0  0  0  0
    7.1709    6.5383   -4.1076 H   0  0  0  0  0  0  0  0  0  0  0  0
    7.4900    6.1630    0.1782 H   0  0  0  0  0  0  0  0  0  0  0  0
    2.8513    0.1466    1.1457 H   0  0  0  0  0  0  0  0  0  0  0  0
    2.7293   -1.1435   -0.0787 H   0  0  0  0  0  0  0  0  0  0  0  0
    3.3205   -4.2967   -6.1402 H   0  0  0  0  0  0  0  0  0  0  0  0
    4.4857   -5.5936   -6.5456 H   0  0  0  0  0  0  0  0  0  0  0  0
    3.8938   -5.4092   -4.8982 H   0  0  0  0  0  0  0  0  0  0  0  0
    6.7687   -2.4946   -6.2576 H   0  0  0  0  0  0  0  0  0  0  0  0
    6.2309   -3.7139   -7.3985 H   0  0  0  0  0  0  0  0  0  0  0  0
    5.1459   -2.3724   -6.9816 H   0  0  0  0  0  0  0  0  0  0  0  0
    7.5062   -4.4287   -5.0656 H   0  0  0  0  0  0  0  0  0  0  0  0
    6.1920   -5.4460   -4.4084 H   0  0  0  0  0  0  0  0  0  0  0  0
    6.7108   -5.6202   -6.0383 H   0  0  0  0  0  0  0  0  0  0  0  0
  1  2  2  0  0  0  0
  2  3  1  0  0  0  0
  2 49  1  0  0  0  0
  3  4  2  0  0  0  0
  3 50  1  0  0  0  0
  4  5  1  0  0  0  0
  4 51  1  0  0  0  0
  5  6  2  0  0  0  0
  5 52  1  0  0  0  0
  6  1  1  0  0  0  0
  6 53  1  0  0  0  0
  7  8  1  0  0  0  0
  7 43  1  0  0  0  0
  7 54  1  6  0  0  0
  8 38  1  0  0  0  0
  8 55  1  0  0  0  0
  9  7  1  0  0  0  0
  9 56  1  0  0  0  0
  9 57  1  0  0  0  0
 10 15  1  0  0  0  0
 10 11  1  0  0  0  0
 11 12  1  0  0  0  0
 11 58  1  0  0  0  0
 11 59  1  0  0  0  0
 12 26  1  0  0  0  0
 12 13  1  0  0  0  0
 12 60  1  6  0  0  0
 13 27  1  0  0  0  0
 13 14  1  0  0  0  0
 14 15  1  0  0  0  0
 14 61  1  0  0  0  0
 14 62  1  0  0  0  0
 15 63  1  0  0  0  0
 15 64  1  0  0  0  0
 16 25  1  0  0  0  0
 16 17  2  0  0  0  0
 17 18  1  0  0  0  0
 17 65  1  0  0  0  0
 18 19  2  0  0  0  0
 18 23  1  0  0  0  0
 19 20  1  0  0  0  0
 20 16  1  0  0  0  0
 21 22  2  0  0  0  0
 21 66  1  0  0  0  0
 22 19  1  0  0  0  0
 22 67  1  0  0  0  0
 23 24  2  0  0  0  0
 23 68  1  0  0  0  0
 24 21  1  0  0  0  0
 24 69  1  0  0  0  0
 25 10  1  0  0  0  0
 25 70  1  0  0  0  0
 25 71  1  0  0  0  0
 26 28  1  0  0  0  0
 26 29  2  0  0  0  0
 27 72  1  0  0  0  0
 27 73  1  0  0  0  0
 28 45  1  0  0  0  0
 28 74  1  0  0  0  0
 30 27  1  0  0  0  0
 30 31  1  0  0  0  0
 30 32  1  0  0  0  0
 30 75  1  1  0  0  0
 31 76  1  0  0  0  0
 32 77  1  0  0  0  0
 32 78  1  0  0  0  0
 33 44  1  0  0  0  0
 33 79  1  6  0  0  0
 33 34  1  0  0  0  0
 33 32  1  0  0  0  0
 34 35  1  0  0  0  0
 34 36  2  0  0  0  0
 35  8  1  0  0  0  0
 35 80  1  0  0  0  0
 37  9  1  0  0  0  0
 37 38  2  0  0  0  0
 38 39  1  0  0  0  0
 39 40  2  0  0  0  0
 39 81  1  0  0  0  0
 40 41  1  0  0  0  0
 40 82  1  0  0  0  0
 41 42  2  0  0  0  0
 41 83  1  0  0  0  0
 42 37  1  0  0  0  0
 42 84  1  0  0  0  0
 43 85  1  0  0  0  0
 44  1  1  0  0  0  0
 44 86  1  0  0  0  0
 44 87  1  0  0  0  0
 45 46  1  0  0  0  0
 45 47  1  0  0  0  0
 45 48  1  0  0  0  0
 46 88  1  0  0  0  0
 46 89  1  0  0  0  0
 46 90  1  0  0  0  0
 47 91  1  0  0  0  0
 47 92  1  0  0  0  0
 47 93  1  0  0  0  0
 48 94  1  0  0  0  0
 48 95  1  0  0  0  0
 48 96  1  0  0  0  0
M  END
>  <DRUGBANK_ID>
DB02009

>  <SECONDARY_ACCESSION_NUMBERS>
EXPT01995

>  <COMMON_NAME>
L-756423

>  <CAS_NUMBER>
216863-66-0

>  <UNII>
862SGU1BRL

$$$$
