
 OpenBabel10282417133D

 65 64  0  0  0  0  0  0  0  0999 V2000
    0.9317   -0.2402    0.3986 C   0  0  0  0  0  0  0  0  0  0  0  0
    0.3918   -1.1188   -0.7012 C   0  0  0  0  0  0  0  0  0  0  0  0
    1.1228   -2.2030   -1.2195 O   0  0  0  0  0  0  0  0  0  0  0  0
    2.5320   -1.8468   -1.3228 C   0  0  0  0  0  0  0  0  0  0  0  0
    3.0024   -0.4080   -1.8997 C   0  0  0  0  0  0  0  0  0  0  0  0
    2.3638    0.9075   -1.7472 O   0  0  0  0  0  0  0  0  0  0  0  0
    0.9618    1.0542   -2.2864 C   0  0  0  0  0  0  0  0  0  0  0  0
    0.3905   -0.2891   -3.1867 C   0  0  0  0  0  0  0  0  0  0  0  0
    0.9470   -1.5230   -3.8596 O   0  0  0  0  0  0  0  0  0  0  0  0
    2.3936   -1.6444   -4.2385 C   0  0  0  0  0  0  0  0  0  0  0  0
    3.0735   -0.2666   -4.5863 C   0  0  0  0  0  0  0  0  0  0  0  0
    2.5460    1.1053   -4.6549 O   0  0  0  0  0  0  0  0  0  0  0  0
    1.2220    1.3536   -5.1122 C   0  0  0  0  0  0  0  0  0  0  0  0
    0.4434    0.4467   -6.0519 C   0  0  0  0  0  0  0  0  0  0  0  0
    1.0182   -0.5952   -6.8009 O   0  0  0  0  0  0  0  0  0  0  0  0
    2.4254   -0.5366   -7.1997 C   0  0  0  0  0  0  0  0  0  0  0  0
    3.3092    0.7260   -7.5640 C   0  0  0  0  0  0  0  0  0  0  0  0
    2.6235    2.0288   -7.5734 O   0  0  0  0  0  0  0  0  0  0  0  0
    1.1847    2.1508   -7.9576 C   0  0  0  0  0  0  0  0  0  0  0  0
   -0.0333    1.2614   -8.7436 C   0  0  0  0  0  0  0  0  0  0  0  0
    0.4728    0.0705   -9.5403 O   0  0  0  0  0  0  0  0  0  0  0  0
    1.9412   -0.0803   -9.8418 C   0  0  0  0  0  0  0  0  0  0  0  0
    3.0570    1.0613  -10.4132 C   0  0  0  0  0  0  0  0  0  0  0  0
    2.8166    2.4854  -10.3215 O   0  0  0  0  0  0  0  0  0  0  0  0
    1.4436    2.7428  -10.4570 C   0  0  0  0  0  0  0  0  0  0  0  0
    0.5312    2.1724  -11.5391 C   0  0  0  0  0  0  0  0  0  0  0  0
    0.6536    0.7945  -11.8804 O   0  0  0  0  0  0  0  0  0  0  0  0
    0.7095   -0.7452    1.3088 H   0  0  0  0  0  0  0  0  0  0  0  0
    0.5214    0.7811    0.3493 H   0  0  0  0  0  0  0  0  0  0  0  0
    2.0147   -0.0741    0.3078 H   0  0  0  0  0  0  0  0  0  0  0  0
   -0.6352   -0.9342   -1.0794 H   0  0  0  0  0  0  0  0  0  0  0  0
    0.8805   -0.5358   -1.3678 H   0  0  0  0  0  0  0  0  0  0  0  0
    2.9193   -1.8724   -0.3301 H   0  0  0  0  0  0  0  0  0  0  0  0
    2.9585   -2.6962   -1.8809 H   0  0  0  0  0  0  0  0  0  0  0  0
    4.0301   -0.4155   -2.3201 H   0  0  0  0  0  0  0  0  0  0  0  0
    2.4748   -0.5237   -2.7665 H   0  0  0  0  0  0  0  0  0  0  0  0
    0.1952    1.0628   -1.5274 H   0  0  0  0  0  0  0  0  0  0  0  0
    0.7698    2.1086   -2.5498 H   0  0  0  0  0  0  0  0  0  0  0  0
   -0.6247   -0.0576   -3.5849 H   0  0  0  0  0  0  0  0  0  0  0  0
    1.1957    0.1454   -3.6101 H   0  0  0  0  0  0  0  0  0  0  0  0
    3.0701   -2.0609   -3.5217 H   0  0  0  0  0  0  0  0  0  0  0  0
    2.5285   -2.4655   -4.9703 H   0  0  0  0  0  0  0  0  0  0  0  0
    4.1034   -0.2815   -4.9647 H   0  0  0  0  0  0  0  0  0  0  0  0
    2.3581   -0.6163   -5.2489 H   0  0  0  0  0  0  0  0  0  0  0  0
    0.4011    0.9087   -4.6046 H   0  0  0  0  0  0  0  0  0  0  0  0
    0.8249    2.3314   -4.7817 H   0  0  0  0  0  0  0  0  0  0  0  0
   -0.6651    0.4935   -6.1243 H   0  0  0  0  0  0  0  0  0  0  0  0
    0.4455    1.4417   -6.4336 H   0  0  0  0  0  0  0  0  0  0  0  0
    2.7934   -0.0066   -6.4297 H   0  0  0  0  0  0  0  0  0  0  0  0
    2.8680   -1.5454   -7.1365 H   0  0  0  0  0  0  0  0  0  0  0  0
    4.2979    0.7623   -7.0488 H   0  0  0  0  0  0  0  0  0  0  0  0
    3.7640    0.4598   -8.4753 H   0  0  0  0  0  0  0  0  0  0  0  0
    1.1843    1.1663   -7.7030 H   0  0  0  0  0  0  0  0  0  0  0  0
    0.7017    2.9118   -7.3078 H   0  0  0  0  0  0  0  0  0  0  0  0
   -0.9895    1.0036   -8.2608 H   0  0  0  0  0  0  0  0  0  0  0  0
   -0.4646    2.0549   -9.3374 H   0  0  0  0  0  0  0  0  0  0  0  0
    2.0457    0.2777   -8.8154 H   0  0  0  0  0  0  0  0  0  0  0  0
    2.3956   -1.0714   -9.6445 H   0  0  0  0  0  0  0  0  0  0  0  0
    4.0887    0.9306  -10.0421 H   0  0  0  0  0  0  0  0  0  0  0  0
    3.1875    0.8735  -11.4577 H   0  0  0  0  0  0  0  0  0  0  0  0
    1.2689    1.9597   -9.8486 H   0  0  0  0  0  0  0  0  0  0  0  0
    1.0381    3.5916   -9.8648 H   0  0  0  0  0  0  0  0  0  0  0  0
   -0.5163    2.2372  -11.2101 H   0  0  0  0  0  0  0  0  0  0  0  0
    0.7283    2.7511  -12.4079 H   0  0  0  0  0  0  0  0  0  0  0  0
    1.5748    0.5602  -12.0181 H   0  0  0  0  0  0  0  0  0  0  0  0
  1  2  1  0  0  0  0
  1 28  1  0  0  0  0
  1 29  1  0  0  0  0
  1 30  1  0  0  0  0
  2  3  1  0  0  0  0
  2 31  1  0  0  0  0
  2 32  1  0  0  0  0
  3  4  1  0  0  0  0
  4  5  1  0  0  0  0
  4 33  1  0  0  0  0
  4 34  1  0  0  0  0
  5  6  1  0  0  0  0
  5 35  1  0  0  0  0
  5 36  1  0  0  0  0
  6  7  1  0  0  0  0
  7  8  1  0  0  0  0
  7 37  1  0  0  0  0
  7 38  1  0  0  0  0
  8  9  1  0  0  0  0
  8 39  1  0  0  0  0
  8 40  1  0  0  0  0
  9 10  1  0  0  0  0
 10 11  1  0  0  0  0
 10 41  1  0  0  0  0
 10 42  1  0  0  0  0
 11 12  1  0  0  0  0
 11 43  1  0  0  0  0
 11 44  1  0  0  0  0
 12 13  1  0  0  0  0
 13 14  1  0  0  0  0
 13 45  1  0  0  0  0
 13 46  1  0  0  0  0
 14 15  1  0  0  0  0
 14 47  1  0  0  0  0
 14 48  1  0  0  0  0
 15 16  1  0  0  0  0
 16 17  1  0  0  0  0
 16 49  1  0  0  0  0
 16 50  1  0  0  0  0
 17 18  1  0  0  0  0
 17 51  1  0  0  0  0
 17 52  1  0  0  0  0
 18 19  1  0  0  0  0
 19 20  1  0  0  0  0
 19 53  1  0  0  0  0
 19 54  1  0  0  0  0
 20 21  1  0  0  0  0
 20 55  1  0  0  0  0
 20 56  1  0  0  0  0
 21 22  1  0  0  0  0
 22 23  1  0  0  0  0
 22 57  1  0  0  0  0
 22 58  1  0  0  0  0
 23 24  1  0  0  0  0
 23 59  1  0  0  0  0
 23 60  1  0  0  0  0
 24 25  1  0  0  0  0
 25 26  1  0  0  0  0
 25 61  1  0  0  0  0
 25 62  1  0  0  0  0
 26 27  1  0  0  0  0
 26 63  1  0  0  0  0
 26 64  1  0  0  0  0
 27 65  1  0  0  0  0
M  END
>  <DRUGBANK_ID>
DB03556

>  <SECONDARY_ACCESSION_NUMBERS>
EXPT02539

>  <COMMON_NAME>
2-(2-{2-[2-(2-{2-[2-(2-Ethoxy-Ethoxy)-Ethoxy]-Ethoxy}-Ethoxy)-Ethoxy]-Ethoxy}-Ethoxy)-Ethanol, Polyethyleneglycol Peg400

$$$$
