
 OpenBabel10282417223D

 20 19  0  0  0  0  0  0  0  0999 V2000
    3.7084    2.0204    3.1676 C   0  0  0  0  0  0  0  0  0  0  0  0
    4.1007    1.9662    1.7053 C   0  0  1  0  0  0  0  0  0  0  0  0
    4.9953    0.7865    1.3014 C   0  0  1  0  0  0  0  0  0  0  0  0
    4.4281   -0.6423    1.4712 C   0  0  1  0  0  0  0  0  0  0  0  0
    4.9869   -1.2606    2.7563 C   0  0  0  0  0  0  0  0  0  0  0  0
    4.5278   -2.6002    2.8970 O   0  0  0  0  0  0  0  0  0  0  0  0
    2.9388    2.0415    0.8771 O   0  0  0  0  0  0  0  0  0  0  0  0
    5.3266    0.9877   -0.0926 O   0  0  0  0  0  0  0  0  0  0  0  0
    2.9983   -0.7076    1.5365 O   0  0  0  0  0  0  0  0  0  0  0  0
    4.5326    2.1070    4.0793 O   0  0  0  0  0  0  0  0  0  0  0  0
    2.6257    2.0216    3.3830 H   0  0  0  0  0  0  0  0  0  0  0  0
    4.6704    2.8852    1.5249 H   0  0  0  0  0  0  0  0  0  0  0  0
    5.9438    0.8636    1.8436 H   0  0  0  0  0  0  0  0  0  0  0  0
    4.7253   -1.2785    0.6252 H   0  0  0  0  0  0  0  0  0  0  0  0
    6.0816   -1.2743    2.7362 H   0  0  0  0  0  0  0  0  0  0  0  0
    4.6530   -0.6990    3.6319 H   0  0  0  0  0  0  0  0  0  0  0  0
    3.5599   -2.5509    2.7702 H   0  0  0  0  0  0  0  0  0  0  0  0
    3.1009    2.8015    0.2832 H   0  0  0  0  0  0  0  0  0  0  0  0
    5.8711    0.2339   -0.3838 H   0  0  0  0  0  0  0  0  0  0  0  0
    2.6359    0.0211    0.9910 H   0  0  0  0  0  0  0  0  0  0  0  0
  1 11  1  0  0  0  0
  2 12  1  6  0  0  0
  2  7  1  0  0  0  0
  2  1  1  0  0  0  0
  3 13  1  1  0  0  0
  3  8  1  0  0  0  0
  3  2  1  0  0  0  0
  4  5  1  0  0  0  0
  4 14  1  6  0  0  0
  4  9  1  0  0  0  0
  4  3  1  0  0  0  0
  5 15  1  0  0  0  0
  5 16  1  0  0  0  0
  6  5  1  0  0  0  0
  6 17  1  0  0  0  0
  7 18  1  0  0  0  0
  8 19  1  0  0  0  0
  9 20  1  0  0  0  0
 10  1  2  0  0  0  0
M  END
>  <DRUGBANK_ID>
DB15073

>  <COMMON_NAME>
Ribose

>  <CAS_NUMBER>
50-69-1

>  <UNII>
681HV46001

>  <SYNONYMS>
aldehydo-D-ribose; D-ribo-2,3,4,5-tetrahydroxyvaleraldehyde; D-Ribose; Ribose

$$$$
