
 OpenBabel10282417203D

 68 72  0  0  1  0  0  0  0  0999 V2000
    1.3819    0.3210    0.2586 C   0  0  0  0  0  0  0  0  0  0  0  0
   -4.5534   -4.2909    0.8694 C   0  0  0  0  0  0  0  0  0  0  0  0
   -5.3387   -3.4246    1.8805 C   0  0  0  0  0  0  0  0  0  0  0  0
   -5.2864   -4.0054   -0.4292 C   0  0  0  0  0  0  0  0  0  0  0  0
   -5.8970   -2.2243    1.1080 C   0  0  0  0  0  0  0  0  0  0  0  0
   -4.3993   -1.7334   -0.8863 C   0  0  0  0  0  0  0  0  0  0  0  0
    3.4291   -3.5542    1.3385 C   0  0  0  0  0  0  0  0  0  0  0  0
    4.8580   -3.4396    1.8593 C   0  0  0  0  0  0  0  0  0  0  0  0
    3.7465   -2.0741    5.3440 C   0  0  0  0  0  0  0  0  0  0  0  0
    0.8999   -1.7724   -0.7524 C   0  0  0  0  0  0  0  0  0  0  0  0
    4.7545   -2.9684    6.2060 C   0  0  0  0  0  0  0  0  0  0  0  0
   -0.5958   -0.6749   -0.3247 C   0  0  0  0  0  0  0  0  0  0  0  0
   -3.4163   -1.2148    0.1547 C   0  0  0  0  0  0  0  0  0  0  0  0
    1.9192   -0.4606    3.1151 C   0  0  0  0  0  0  0  0  0  0  0  0
    0.5034   -0.6147    2.5864 C   0  0  0  0  0  0  0  0  0  0  0  0
   -5.5886   -2.5084   -0.3619 C   0  0  0  0  0  0  0  0  0  0  0  0
    4.0079   -1.8366    3.7316 C   0  0  2  0  0  0  0  0  0  0  0  0
    2.6529   -1.8099    2.9566 C   0  0  2  0  0  0  0  0  0  0  0  0
    2.7483   -2.1891    1.4226 C   0  0  2  0  0  0  0  0  0  0  0  0
    4.9920   -2.8720    3.2513 C   0  0  0  0  0  0  0  0  0  0  0  0
    1.3504   -2.2339    0.7957 C   0  0  1  0  0  0  0  0  0  0  0  0
    5.9256   -2.5305    5.4516 C   0  0  0  0  0  0  0  0  0  0  0  0
   -0.7670   -1.7424    0.4826 C   0  0  1  0  0  0  0  0  0  0  0  0
   -2.7553   -1.9799    1.3334 C   0  0  0  0  0  0  0  0  0  0  0  0
    5.9386   -3.2794    4.1184 C   0  0  0  0  0  0  0  0  0  0  0  0
    0.5958   -1.0602    1.1527 C   0  0  2  0  0  0  0  0  0  0  0  0
    6.5253   -1.5001    5.7215 O   0  0  0  0  0  0  0  0  0  0  0  0
   -3.2827   -2.1593    2.4704 O   0  0  0  0  0  0  0  0  0  0  0  0
    6.4052   -4.5798    4.0173 O   0  0  0  0  0  0  0  0  0  0  0  0
   -1.5435   -2.4054    1.3967 O   0  0  0  0  0  0  0  0  0  0  0  0
    4.4900   -0.8631    3.5244 H   0  0  0  0  0  0  0  0  0  0  0  0
    2.0148   -2.5662    3.4349 H   0  0  0  0  0  0  0  0  0  0  0  0
    3.3548   -1.4640    0.8771 H   0  0  0  0  0  0  0  0  0  0  0  0
    0.8415   -3.1324    1.2091 H   0  0  0  0  0  0  0  0  0  0  0  0
   -1.0880   -2.3438   -0.3873 H   0  0  0  0  0  0  0  0  0  0  0  0
    0.9655    1.2684    0.6027 H   0  0  0  0  0  0  0  0  0  0  0  0
    1.1813    0.3439   -0.8416 H   0  0  0  0  0  0  0  0  0  0  0  0
    2.4697    0.2823    0.2830 H   0  0  0  0  0  0  0  0  0  0  0  0
   -3.4927   -4.0761    0.6826 H   0  0  0  0  0  0  0  0  0  0  0  0
   -4.5593   -5.3431    1.1545 H   0  0  0  0  0  0  0  0  0  0  0  0
   -6.1257   -4.0229    2.3286 H   0  0  0  0  0  0  0  0  0  0  0  0
   -4.8722   -3.0888    2.8054 H   0  0  0  0  0  0  0  0  0  0  0  0
   -4.6959   -4.2752   -1.3138 H   0  0  0  0  0  0  0  0  0  0  0  0
   -6.2167   -4.5730   -0.4518 H   0  0  0  0  0  0  0  0  0  0  0  0
   -6.9681   -2.1510    1.2887 H   0  0  0  0  0  0  0  0  0  0  0  0
   -5.4908   -1.2604    1.4473 H   0  0  0  0  0  0  0  0  0  0  0  0
   -4.7756   -0.8491   -1.4348 H   0  0  0  0  0  0  0  0  0  0  0  0
   -3.8688   -2.2911   -1.6775 H   0  0  0  0  0  0  0  0  0  0  0  0
    2.8757   -4.3038    1.9214 H   0  0  0  0  0  0  0  0  0  0  0  0
    3.4408   -3.9066    0.3004 H   0  0  0  0  0  0  0  0  0  0  0  0
    5.3315   -4.4229    1.7839 H   0  0  0  0  0  0  0  0  0  0  0  0
    5.4087   -2.7696    1.1861 H   0  0  0  0  0  0  0  0  0  0  0  0
    3.8294   -1.0496    5.7519 H   0  0  0  0  0  0  0  0  0  0  0  0
    2.7187   -2.3878    5.5225 H   0  0  0  0  0  0  0  0  0  0  0  0
    1.2357   -2.8212   -0.9226 H   0  0  0  0  0  0  0  0  0  0  0  0
    0.2195   -2.3101   -1.4636 H   0  0  0  0  0  0  0  0  0  0  0  0
    4.6801   -2.7984    7.2885 H   0  0  0  0  0  0  0  0  0  0  0  0
    5.0255   -4.0489    6.1957 H   0  0  0  0  0  0  0  0  0  0  0  0
   -1.1939   -0.1698   -1.0977 H   0  0  0  0  0  0  0  0  0  0  0  0
   -0.8579    0.0644    0.5307 H   0  0  0  0  0  0  0  0  0  0  0  0
   -3.7889   -0.3000    0.6200 H   0  0  0  0  0  0  0  0  0  0  0  0
   -2.7199   -0.8362   -0.5621 H   0  0  0  0  0  0  0  0  0  0  0  0
    2.4441    0.3221    2.5492 H   0  0  0  0  0  0  0  0  0  0  0  0
    1.8716   -0.1123    4.1481 H   0  0  0  0  0  0  0  0  0  0  0  0
   -0.0228    0.3480    2.6379 H   0  0  0  0  0  0  0  0  0  0  0  0
   -0.0746   -1.3273    3.1786 H   0  0  0  0  0  0  0  0  0  0  0  0
   -6.4492   -2.2581   -0.9916 H   0  0  0  0  0  0  0  0  0  0  0  0
    6.5889   -4.9159    4.9110 H   0  0  0  0  0  0  0  0  0  0  0  0
  1 36  1  0  0  0  0
  1 37  1  0  0  0  0
  1 38  1  0  0  0  0
  2 39  1  0  0  0  0
  2 40  1  0  0  0  0
  3  2  1  0  0  0  0
  3 41  1  0  0  0  0
  3 42  1  0  0  0  0
  4  2  1  0  0  0  0
  4 43  1  0  0  0  0
  4 44  1  0  0  0  0
  5  3  1  0  0  0  0
  5 45  1  0  0  0  0
  5 46  1  0  0  0  0
  6 47  1  0  0  0  0
  6 48  1  0  0  0  0
  7 49  1  0  0  0  0
  7 50  1  0  0  0  0
  8  7  1  0  0  0  0
  8 51  1  0  0  0  0
  8 52  1  0  0  0  0
  9 53  1  0  0  0  0
  9 54  1  0  0  0  0
 10 55  1  0  0  0  0
 10 56  1  0  0  0  0
 11  9  1  0  0  0  0
 11 57  1  0  0  0  0
 11 58  1  0  0  0  0
 12 10  1  0  0  0  0
 12 59  1  0  0  0  0
 12 60  1  0  0  0  0
 13  6  1  0  0  0  0
 13 61  1  0  0  0  0
 13 62  1  0  0  0  0
 14 63  1  0  0  0  0
 14 64  1  0  0  0  0
 15 14  1  0  0  0  0
 15 65  1  0  0  0  0
 15 66  1  0  0  0  0
 16  4  1  0  0  0  0
 16  5  1  0  0  0  0
 16  6  1  0  0  0  0
 16 67  1  0  0  0  0
 17  9  1  0  0  0  0
 17 31  1  6  0  0  0
 18 14  1  0  0  0  0
 18 17  1  0  0  0  0
 18 32  1  1  0  0  0
 19  7  1  0  0  0  0
 19 18  1  0  0  0  0
 19 33  1  6  0  0  0
 20  8  1  0  0  0  0
 20 17  1  0  0  0  0
 21 10  1  0  0  0  0
 21 19  1  0  0  0  0
 21 34  1  1  0  0  0
 22 11  1  0  0  0  0
 23 12  1  0  0  0  0
 23 35  1  6  0  0  0
 23 30  1  0  0  0  0
 24 13  1  0  0  0  0
 25 20  2  0  0  0  0
 25 22  1  0  0  0  0
 26  1  1  6  0  0  0
 26 15  1  0  0  0  0
 26 21  1  0  0  0  0
 26 23  1  0  0  0  0
 27 22  2  0  0  0  0
 28 24  2  0  0  0  0
 29 25  1  0  0  0  0
 29 68  1  0  0  0  0
 30 24  1  0  0  0  0
M  END
>  <DRUGBANK_ID>
DB13185

>  <COMMON_NAME>
Oxabolone cipionate

>  <CAS_NUMBER>
1254-35-9

>  <UNII>
5RXY50Q01N

>  <SYNONYMS>
4-hydroxy-19-nortestosterone 17Î²-cypionate; Cipionate d'oxabolone; Cipionato de oxabolona; Oxabolone 17-cyclopentanepropionate; Oxabolone cipionate; Oxabolone cypionate; Oxaboloni cipionas

$$$$
