
 OpenBabel10282417133D

 15 15  0  0  0  0  0  0  0  0999 V2000
    2.2534    0.0030    0.0102 O   0  0  0  0  0  0  0  0  0  0  0  0
    0.8903   -0.0231    0.0119 C   0  0  0  0  0  0  0  0  0  0  0  0
    0.1732   -1.2180    0.0102 C   0  0  0  0  0  0  0  0  0  0  0  0
   -1.2272   -1.1815   -0.0023 C   0  0  0  0  0  0  0  0  0  0  0  0
   -1.8899    0.0520   -0.0123 C   0  0  0  0  0  0  0  0  0  0  0  0
   -3.3666    0.1007   -0.0396 C   0  0  0  0  0  0  0  0  0  0  0  0
   -3.9826    1.1613   -0.0525 O   0  0  0  0  0  0  0  0  0  0  0  0
   -1.1602    1.2435    0.0001 C   0  0  0  0  0  0  0  0  0  0  0  0
    0.2334    1.2027    0.0133 C   0  0  0  0  0  0  0  0  0  0  0  0
    2.5970   -0.9042   -0.0196 H   0  0  0  0  0  0  0  0  0  0  0  0
    0.6822   -2.1775    0.0186 H   0  0  0  0  0  0  0  0  0  0  0  0
   -1.7857   -2.1142   -0.0054 H   0  0  0  0  0  0  0  0  0  0  0  0
   -3.8974   -0.8649   -0.0509 H   0  0  0  0  0  0  0  0  0  0  0  0
   -1.6723    2.2031   -0.0026 H   0  0  0  0  0  0  0  0  0  0  0  0
    0.8057    2.1260    0.0222 H   0  0  0  0  0  0  0  0  0  0  0  0
  1  2  1  0  0  0  0
  1 10  1  0  0  0  0
  2  3  2  0  0  0  0
  2  9  1  0  0  0  0
  3  4  1  0  0  0  0
  3 11  1  0  0  0  0
  4  5  2  0  0  0  0
  4 12  1  0  0  0  0
  5  6  1  0  0  0  0
  5  8  1  0  0  0  0
  6  7  2  0  0  0  0
  6 13  1  0  0  0  0
  8  9  2  0  0  0  0
  8 14  1  0  0  0  0
  9 15  1  0  0  0  0
M  END
>  <DRUGBANK_ID>
DB03560

>  <SECONDARY_ACCESSION_NUMBERS>
EXPT01694

>  <COMMON_NAME>
P-Hydroxybenzaldehyde

>  <CAS_NUMBER>
123-08-0

>  <UNII>
O1738X3Y38

$$$$
