N-Acetyl-L-alanine.mol
 OpenBabel10282417123D

 18 17  0  0  0  0  0  0  0  0999 V2000
    0.9606    0.0809    0.1517 C   0  0  0  0  0  0  0  0  0  0  0  0
   -0.7455   -1.7314    0.2803 N   0  0  0  0  0  0  0  0  0  0  0  0
    0.2268   -1.0468   -0.5932 C   0  0  1  0  0  0  0  0  0  0  0  0
   -0.3509   -0.4368   -1.8558 C   0  0  0  0  0  0  0  0  0  0  0  0
    0.3927    0.9947    0.7396 O   0  0  0  0  0  0  0  0  0  0  0  0
    2.3121    0.0186    0.0861 O   0  0  0  0  0  0  0  0  0  0  0  0
   -2.1067   -1.8217    0.2834 C   0  0  0  0  0  0  0  0  0  0  0  0
   -2.6474   -2.4177    1.2169 O   0  0  0  0  0  0  0  0  0  0  0  0
   -2.9384   -1.2604   -0.8384 C   0  0  0  0  0  0  0  0  0  0  0  0
   -0.3698   -2.1267    1.1376 H   0  0  0  0  0  0  0  0  0  0  0  0
    0.9548   -1.8208   -0.8661 H   0  0  0  0  0  0  0  0  0  0  0  0
    0.4074    0.0257   -2.4899 H   0  0  0  0  0  0  0  0  0  0  0  0
   -0.8533   -1.1980   -2.4551 H   0  0  0  0  0  0  0  0  0  0  0  0
   -1.0485    0.3654   -1.5975 H   0  0  0  0  0  0  0  0  0  0  0  0
    2.6963   -0.7441   -0.3858 H   0  0  0  0  0  0  0  0  0  0  0  0
   -2.8436   -0.1745   -0.8805 H   0  0  0  0  0  0  0  0  0  0  0  0
   -2.6776   -1.7358   -1.7858 H   0  0  0  0  0  0  0  0  0  0  0  0
   -3.9971   -1.4729   -0.6710 H   0  0  0  0  0  0  0  0  0  0  0  0
  1  3  1  0  0  0  0
  1  5  2  0  0  0  0
  1  6  1  0  0  0  0
  2  3  1  0  0  0  0
  2  7  1  0  0  0  0
  2 10  1  0  0  0  0
  3  4  1  0  0  0  0
  3 11  1  6  0  0  0
  4 12  1  0  0  0  0
  4 13  1  0  0  0  0
  4 14  1  0  0  0  0
  6 15  1  0  0  0  0
  7  8  2  0  0  0  0
  7  9  1  0  0  0  0
  9 16  1  0  0  0  0
  9 17  1  0  0  0  0
  9 18  1  0  0  0  0
M  END
>  <DRUGBANK_ID>
DB02518

>  <SECONDARY_ACCESSION_NUMBERS>
EXPT00596

>  <COMMON_NAME>
N-Acetylalanine

>  <CAS_NUMBER>
97-69-8

>  <UNII>
26C4VY6Z0M

>  <SYNONYMS>
(S)-2-(acetylamino)propanoic acid; 2-acetamidopropionic acid; Ac-Ala-OH; Acetylalanine; L-N-Acetylalanine; N-acetyl-L-alanine; N-acetyl-L-Î±-alanine; N-Acetyl-S-alanine; s-(-)-n-acetylalanine

$$$$
