359
 OpenBabel10282417103D

 27 28  0  0  0  0  0  0  0  0999 V2000
    1.1060    0.0437   -0.0761 S   0  0  0  0  0  0  0  0  0  0  0  0
    0.7235   -0.6039   -1.3084 O   0  0  0  0  0  0  0  0  0  0  0  0
    0.6075   -0.4967    1.1848 O   0  0  0  0  0  0  0  0  0  0  0  0
    0.4965    1.6020   -0.1936 N   0  0  0  0  0  0  0  0  0  0  0  0
    7.0888   -0.1532    0.0026 N   0  0  0  0  0  0  0  0  0  0  0  0
    1.1092    3.6465    0.7361 N   0  0  0  0  0  0  0  0  0  0  0  0
    2.1874    2.8410   -1.2227 N   0  0  0  0  0  0  0  0  0  0  0  0
    2.8841   -0.0765    0.0470 C   0  0  0  0  0  0  0  0  0  0  0  0
    3.6691    1.0361    0.2641 C   0  0  0  0  0  0  0  0  0  0  0  0
    3.5409   -1.3034   -0.0837 C   0  0  0  0  0  0  0  0  0  0  0  0
    5.7105   -0.1617   -0.0590 C   0  0  0  0  0  0  0  0  0  0  0  0
    5.0408    1.0366    0.0695 C   0  0  0  0  0  0  0  0  0  0  0  0
    4.9542   -1.3394   -0.0773 C   0  0  0  0  0  0  0  0  0  0  0  0
    1.2615    2.7648   -0.2649 C   0  0  0  0  0  0  0  0  0  0  0  0
    2.0147    4.6577    0.7800 C   0  0  0  0  0  0  0  0  0  0  0  0
    3.1137    3.8182   -1.0809 C   0  0  0  0  0  0  0  0  0  0  0  0
    3.0823    4.7622   -0.0824 C   0  0  0  0  0  0  0  0  0  0  0  0
   -0.4212    1.7283    0.2149 H   0  0  0  0  0  0  0  0  0  0  0  0
    7.6173   -1.0076   -0.0802 H   0  0  0  0  0  0  0  0  0  0  0  0
    7.5856    0.7269   -0.0627 H   0  0  0  0  0  0  0  0  0  0  0  0
    3.2427    1.9497    0.6204 H   0  0  0  0  0  0  0  0  0  0  0  0
    2.9809   -2.2358   -0.1347 H   0  0  0  0  0  0  0  0  0  0  0  0
    5.5696    1.9841    0.0889 H   0  0  0  0  0  0  0  0  0  0  0  0
    5.4633   -2.2992   -0.0854 H   0  0  0  0  0  0  0  0  0  0  0  0
    1.8770    5.3911    1.5730 H   0  0  0  0  0  0  0  0  0  0  0  0
    3.9637    3.7417   -1.7544 H   0  0  0  0  0  0  0  0  0  0  0  0
    3.8563    5.5115    0.0284 H   0  0  0  0  0  0  0  0  0  0  0  0
  1  2  2  0  0  0  0
  1  3  2  0  0  0  0
  1  4  1  0  0  0  0
  1  8  1  0  0  0  0
  4 14  1  0  0  0  0
  4 18  1  0  0  0  0
  5 11  1  0  0  0  0
  5 19  1  0  0  0  0
  5 20  1  0  0  0  0
  6 14  1  0  0  0  0
  6 15  2  0  0  0  0
  7 14  2  0  0  0  0
  7 16  1  0  0  0  0
  8  9  2  0  0  0  0
  8 10  1  0  0  0  0
  9 12  1  0  0  0  0
  9 21  1  0  0  0  0
 10 13  2  0  0  0  0
 10 22  1  0  0  0  0
 11 12  2  0  0  0  0
 11 13  1  0  0  0  0
 12 23  1  0  0  0  0
 13 24  1  0  0  0  0
 15 17  1  0  0  0  0
 15 25  1  0  0  0  0
 16 17  2  0  0  0  0
 16 26  1  0  0  0  0
 17 27  1  0  0  0  0
M  END
>  <DRUGBANK_ID>
DB00359

>  <SECONDARY_ACCESSION_NUMBERS>
APRD00190

>  <COMMON_NAME>
Sulfadiazine

>  <CAS_NUMBER>
68-35-9

>  <UNII>
0N7609K889

>  <SYNONYMS>
2-sulfanilamidopyrimidine; 2-sulfanilylaminopyrimidine; 4-amino-N-2-pyrimidinylbenzenesulfonamide; N(1)-2-Pyrimidinylsulfanilamide; N(1)-2-Pyrimidylsulfanilamide; Sulfadiazin; Sulfadiazina; Sulfadiazine; Sulfadiazinum; Sulfapyrimidine; Sulphadiazine

$$$$
