
 OpenBabel10282417203D

 24 24  0  0  0  0  0  0  0  0999 V2000
    1.0669    0.0421   -0.0467 C   0  0  0  0  0  0  0  0  0  0  0  0
    0.6127   -0.6563   -1.2125 O   0  0  0  0  0  0  0  0  0  0  0  0
    0.9751   -0.0637   -2.3785 C   0  0  0  0  0  0  0  0  0  0  0  0
    1.5636    1.0031   -2.4933 O   0  0  0  0  0  0  0  0  0  0  0  0
    0.5097   -0.8689   -3.5311 C   0  0  0  0  0  0  0  0  0  0  0  0
   -0.8622   -1.1959   -3.5762 C   0  0  0  0  0  0  0  0  0  0  0  0
   -1.4093   -1.8493   -4.6834 C   0  0  0  0  0  0  0  0  0  0  0  0
   -0.6033   -2.1459   -5.7760 C   0  0  0  0  0  0  0  0  0  0  0  0
    0.7506   -1.7946   -5.7552 C   0  0  0  0  0  0  0  0  0  0  0  0
    1.3419   -1.2049   -4.6138 C   0  0  0  0  0  0  0  0  0  0  0  0
    2.8361   -1.0864   -4.6343 C   0  0  0  0  0  0  0  0  0  0  0  0
    3.5087   -1.4185   -5.6017 O   0  0  0  0  0  0  0  0  0  0  0  0
    3.3423   -0.6745   -3.4526 O   0  0  0  0  0  0  0  0  0  0  0  0
    4.7624   -0.5026   -3.3969 C   0  0  0  0  0  0  0  0  0  0  0  0
    0.6928   -0.4805    0.8389 H   0  0  0  0  0  0  0  0  0  0  0  0
    0.6839    1.0683   -0.0246 H   0  0  0  0  0  0  0  0  0  0  0  0
    2.1611    0.0404   -0.0089 H   0  0  0  0  0  0  0  0  0  0  0  0
   -1.5164   -0.9322   -2.7474 H   0  0  0  0  0  0  0  0  0  0  0  0
   -2.4670   -2.1060   -4.7027 H   0  0  0  0  0  0  0  0  0  0  0  0
   -1.0222   -2.6614   -6.6392 H   0  0  0  0  0  0  0  0  0  0  0  0
    1.3493   -1.9979   -6.6438 H   0  0  0  0  0  0  0  0  0  0  0  0
    5.2605   -1.4739   -3.4598 H   0  0  0  0  0  0  0  0  0  0  0  0
    5.1163    0.1699   -4.1854 H   0  0  0  0  0  0  0  0  0  0  0  0
    5.0098   -0.0512   -2.4304 H   0  0  0  0  0  0  0  0  0  0  0  0
  1  2  1  0  0  0  0
  1 15  1  0  0  0  0
  1 16  1  0  0  0  0
  1 17  1  0  0  0  0
  2  3  1  0  0  0  0
  3  4  2  0  0  0  0
  3  5  1  0  0  0  0
  5  6  2  0  0  0  0
  5 10  1  0  0  0  0
  6  7  1  0  0  0  0
  6 18  1  0  0  0  0
  7  8  2  0  0  0  0
  7 19  1  0  0  0  0
  8  9  1  0  0  0  0
  8 20  1  0  0  0  0
  9 10  2  0  0  0  0
  9 21  1  0  0  0  0
 10 11  1  0  0  0  0
 11 12  2  0  0  0  0
 11 13  1  0  0  0  0
 13 14  1  0  0  0  0
 14 22  1  0  0  0  0
 14 23  1  0  0  0  0
 14 24  1  0  0  0  0
M  END
>  <DRUGBANK_ID>
DB13336

>  <COMMON_NAME>
Dimethylphthalate

>  <CAS_NUMBER>
131-11-3

>  <UNII>
08X7F5UDJM

>  <SYNONYMS>
Dimethyl phthalate

$$$$
