
 OpenBabel10282417143D

152152  0  0  0  0  0  0  0  0999 V2000
   -1.3774   -8.0870   -1.0197 C   0  0  0  0  0  0  0  0  0  0  0  0
   -1.3542   -9.1143   -1.8535 C   0  0  0  0  0  0  0  0  0  0  0  0
   -0.4094   -7.0213   -1.2207 C   0  0  2  0  0  0  0  0  0  0  0  0
   -2.5464   -9.9737   -1.9066 C   0  0  0  0  0  0  0  0  0  0  0  0
    0.3009   -6.4894    0.0379 C   0  0  2  0  0  0  0  0  0  0  0  0
   -3.0363  -10.1110   -3.3385 C   0  0  0  0  0  0  0  0  0  0  0  0
    1.3141   -5.2970   -0.1941 C   0  0  0  0  0  0  0  0  0  0  0  0
   -1.9289  -10.6582   -4.2466 C   0  0  0  0  0  0  0  0  0  0  0  0
   -1.3625  -11.9589   -3.6623 C   0  0  0  0  0  0  0  0  0  0  0  0
   -2.4829  -12.9945   -3.5321 C   0  0  0  0  0  0  0  0  0  0  0  0
   -3.0818  -13.2690   -4.9134 C   0  0  0  0  0  0  0  0  0  0  0  0
   -1.9894  -13.7990   -5.8469 C   0  0  0  0  0  0  0  0  0  0  0  0
   -1.4119  -15.0971   -5.2754 C   0  0  0  0  0  0  0  0  0  0  0  0
   -2.5244  -16.1414   -5.1455 C   0  0  0  0  0  0  0  0  0  0  0  0
   -3.1377  -16.4264   -6.5210 C   0  0  0  0  0  0  0  0  0  0  0  0
   -2.0779  -16.9824   -7.4786 C   0  0  0  0  0  0  0  0  0  0  0  0
   -1.4664  -18.2738   -6.9339 C   0  0  0  0  0  0  0  0  0  0  0  0
   -2.5430  -19.3319   -6.7568 C   0  0  0  0  0  0  0  0  0  0  0  0
   -1.4019   -6.1917   -1.7505 O   0  0  0  0  0  0  0  0  0  0  0  0
    0.9315   -7.6573    0.6634 N   0  0  0  0  0  0  0  0  0  0  0  0
    2.7710   -9.0751    1.3179 C   0  0  0  0  0  0  0  0  0  0  0  0
    2.2635   -7.7332    0.9166 C   0  0  0  0  0  0  0  0  0  0  0  0
    3.0263   -6.7790    0.8436 O   0  0  0  0  0  0  0  0  0  0  0  0
   -0.7080   -1.5111   -1.4076 C   0  0  2  0  0  0  0  0  0  0  0  0
   -0.4064   -2.0147    0.0226 C   0  0  2  0  0  0  0  0  0  0  0  0
   -0.2429   -3.5456    0.0560 C   0  0  1  0  0  0  0  0  0  0  0  0
   -1.4026   -4.1220   -0.5154 O   0  0  0  0  0  0  0  0  0  0  0  0
   -1.6495   -3.7750   -1.9040 C   0  0  1  0  0  0  0  0  0  0  0  0
   -1.9456   -2.2877   -1.9488 C   0  0  2  0  0  0  0  0  0  0  0  0
   -0.5387   -4.0633   -3.0241 C   0  0  0  0  0  0  0  0  0  0  0  0
   -2.3015   -1.8976   -3.2758 O   0  0  0  0  0  0  0  0  0  0  0  0
    0.3682   -1.6527   -2.3388 O   0  0  0  0  0  0  0  0  0  0  0  0
   -1.4505   -1.6855    0.9587 O   0  0  0  0  0  0  0  0  0  0  0  0
    0.8521   -4.0424   -0.6783 O   0  0  0  0  0  0  0  0  0  0  0  0
    0.0687   -5.3232   -3.1719 O   0  0  0  0  0  0  0  0  0  0  0  0
    1.9029   -1.2181   -2.0561 S   0  0  0  0  0  0  0  0  0  0  0  0
    1.7276    0.3650   -2.2203 O   0  0  0  0  0  0  0  0  0  0  0  0
    2.3102   -1.5026   -0.7186 O   0  0  0  0  0  0  0  0  0  0  0  0
    2.6917   -1.6475   -3.2045 O   0  0  0  0  0  0  0  0  0  0  0  0
    3.8665   -9.5013    0.3387 C   0  0  0  0  0  0  0  0  0  0  0  0
    5.0238   -8.4894    0.2446 C   0  0  0  0  0  0  0  0  0  0  0  0
    5.6113   -8.2093    1.6333 C   0  0  0  0  0  0  0  0  0  0  0  0
    6.1882   -9.5029    2.2082 C   0  0  0  0  0  0  0  0  0  0  0  0
    7.2832  -10.0291    1.2767 C   0  0  0  0  0  0  0  0  0  0  0  0
    8.3929   -8.9808    1.1487 C   0  0  0  0  0  0  0  0  0  0  0  0
    8.9898   -8.7024    2.5310 C   0  0  0  0  0  0  0  0  0  0  0  0
    9.5639   -9.9999    3.1042 C   0  0  0  0  0  0  0  0  0  0  0  0
   10.6425  -10.5370    2.1578 C   0  0  0  0  0  0  0  0  0  0  0  0
   11.7641   -9.5026    2.0066 C   0  0  0  0  0  0  0  0  0  0  0  0
   12.3865   -9.2137    3.3686 C   0  0  0  0  0  0  0  0  0  0  0  0
   12.8834  -10.5066    3.9907 C   0  0  0  0  0  0  0  0  0  0  0  0
   13.9862  -11.0534    3.1434 C   0  0  0  0  0  0  0  0  0  0  0  0
   15.2411  -11.1414    3.5716 C   0  0  0  0  0  0  0  0  0  0  0  0
   15.6325  -10.8440    4.9828 C   0  0  0  0  0  0  0  0  0  0  0  0
   16.1228  -12.1245    5.6358 C   0  0  0  0  0  0  0  0  0  0  0  0
   17.3979  -12.6055    4.9504 C   0  0  0  0  0  0  0  0  0  0  0  0
   18.4670  -11.5067    4.9905 C   0  0  0  0  0  0  0  0  0  0  0  0
   18.8056  -11.1362    6.4397 C   0  0  0  0  0  0  0  0  0  0  0  0
   19.3637  -12.3497    7.1902 C   0  0  0  0  0  0  0  0  0  0  0  0
   20.6185  -12.8938    6.5058 C   0  0  0  0  0  0  0  0  0  0  0  0
   21.7036  -11.8300    6.4682 C   0  0  0  0  0  0  0  0  0  0  0  0
   -2.2859   -7.8301   -0.4737 H   0  0  0  0  0  0  0  0  0  0  0  0
   -0.5198   -9.2278   -2.5457 H   0  0  0  0  0  0  0  0  0  0  0  0
    0.3428   -7.2965   -1.9797 H   0  0  0  0  0  0  0  0  0  0  0  0
   -2.2415  -10.9157   -1.4507 H   0  0  0  0  0  0  0  0  0  0  0  0
   -3.3548   -9.5790   -1.2845 H   0  0  0  0  0  0  0  0  0  0  0  0
   -0.4688   -6.1482    0.7325 H   0  0  0  0  0  0  0  0  0  0  0  0
   -3.9067  -10.7761   -3.3235 H   0  0  0  0  0  0  0  0  0  0  0  0
   -3.4061   -9.1597   -3.7364 H   0  0  0  0  0  0  0  0  0  0  0  0
    1.8044   -5.0479    0.7521 H   0  0  0  0  0  0  0  0  0  0  0  0
    2.0877   -5.6056   -0.9135 H   0  0  0  0  0  0  0  0  0  0  0  0
   -2.3238  -10.7959   -5.2573 H   0  0  0  0  0  0  0  0  0  0  0  0
   -1.1205   -9.9353   -4.3872 H   0  0  0  0  0  0  0  0  0  0  0  0
   -0.5363  -12.3132   -4.2846 H   0  0  0  0  0  0  0  0  0  0  0  0
   -0.8856  -11.8098   -2.6895 H   0  0  0  0  0  0  0  0  0  0  0  0
   -2.0953  -13.9006   -3.0577 H   0  0  0  0  0  0  0  0  0  0  0  0
   -3.2708  -12.6727   -2.8453 H   0  0  0  0  0  0  0  0  0  0  0  0
   -3.9239  -13.9598   -4.8205 H   0  0  0  0  0  0  0  0  0  0  0  0
   -3.5421  -12.3789   -5.3508 H   0  0  0  0  0  0  0  0  0  0  0  0
   -2.3954  -13.9317   -6.8527 H   0  0  0  0  0  0  0  0  0  0  0  0
   -1.1855  -13.0737   -6.0013 H   0  0  0  0  0  0  0  0  0  0  0  0
   -0.5894  -15.4450   -5.9054 H   0  0  0  0  0  0  0  0  0  0  0  0
   -0.9343  -14.9437   -4.3028 H   0  0  0  0  0  0  0  0  0  0  0  0
   -2.1297  -17.0444   -4.6731 H   0  0  0  0  0  0  0  0  0  0  0  0
   -3.3089  -15.8206   -4.4528 H   0  0  0  0  0  0  0  0  0  0  0  0
   -3.9832  -17.1098   -6.4136 H   0  0  0  0  0  0  0  0  0  0  0  0
   -3.5913  -15.5301   -6.9567 H   0  0  0  0  0  0  0  0  0  0  0  0
   -2.5253  -17.1553   -8.4617 H   0  0  0  0  0  0  0  0  0  0  0  0
   -1.2822  -16.2476   -7.6531 H   0  0  0  0  0  0  0  0  0  0  0  0
   -0.6893  -18.6296   -7.6153 H   0  0  0  0  0  0  0  0  0  0  0  0
   -0.9584  -18.1008   -5.9776 H   0  0  0  0  0  0  0  0  0  0  0  0
   -3.0265  -19.5309   -7.7175 H   0  0  0  0  0  0  0  0  0  0  0  0
   -2.1177  -20.2558   -6.3648 H   0  0  0  0  0  0  0  0  0  0  0  0
   -3.3180  -19.0181   -6.0497 H   0  0  0  0  0  0  0  0  0  0  0  0
   -1.3059   -6.2356   -2.7246 H   0  0  0  0  0  0  0  0  0  0  0  0
    0.3719   -8.5015    0.7074 H   0  0  0  0  0  0  0  0  0  0  0  0
    3.1420   -8.9510    2.3401 H   0  0  0  0  0  0  0  0  0  0  0  0
    1.9710   -9.8161    1.3618 H   0  0  0  0  0  0  0  0  0  0  0  0
   -0.9709   -0.4554   -1.4354 H   0  0  0  0  0  0  0  0  0  0  0  0
    0.4834   -1.5376    0.4152 H   0  0  0  0  0  0  0  0  0  0  0  0
   -0.1569   -3.8475    1.1117 H   0  0  0  0  0  0  0  0  0  0  0  0
   -2.5704   -4.3193   -2.1632 H   0  0  0  0  0  0  0  0  0  0  0  0
   -2.8156   -2.0839   -1.3131 H   0  0  0  0  0  0  0  0  0  0  0  0
   -0.8997   -3.8106   -4.0140 H   0  0  0  0  0  0  0  0  0  0  0  0
    0.3566   -3.5170   -2.8174 H   0  0  0  0  0  0  0  0  0  0  0  0
   -1.5052   -1.9578   -3.8325 H   0  0  0  0  0  0  0  0  0  0  0  0
   -1.9918   -0.9525    0.6321 H   0  0  0  0  0  0  0  0  0  0  0  0
    0.4585   -5.3767   -2.2791 H   0  0  0  0  0  0  0  0  0  0  0  0
    1.3865    0.5098   -3.1250 H   0  0  0  0  0  0  0  0  0  0  0  0
    4.2456  -10.4772    0.6613 H   0  0  0  0  0  0  0  0  0  0  0  0
    3.4528   -9.6604   -0.6617 H   0  0  0  0  0  0  0  0  0  0  0  0
    5.7786   -8.8599   -0.4547 H   0  0  0  0  0  0  0  0  0  0  0  0
    4.7282   -7.5536   -0.2351 H   0  0  0  0  0  0  0  0  0  0  0  0
    6.3621   -7.4151    1.5653 H   0  0  0  0  0  0  0  0  0  0  0  0
    4.8775   -7.7951    2.3296 H   0  0  0  0  0  0  0  0  0  0  0  0
    6.5564   -9.3251    3.2231 H   0  0  0  0  0  0  0  0  0  0  0  0
    5.4201  -10.2676    2.3482 H   0  0  0  0  0  0  0  0  0  0  0  0
    7.6530  -10.9886    1.6474 H   0  0  0  0  0  0  0  0  0  0  0  0
    6.9015  -10.2852    0.2855 H   0  0  0  0  0  0  0  0  0  0  0  0
    9.1423   -9.3233    0.4302 H   0  0  0  0  0  0  0  0  0  0  0  0
    8.0404   -8.0468    0.7036 H   0  0  0  0  0  0  0  0  0  0  0  0
    9.7413   -7.9119    2.4578 H   0  0  0  0  0  0  0  0  0  0  0  0
    8.2573   -8.2824    3.2255 H   0  0  0  0  0  0  0  0  0  0  0  0
    9.9407   -9.8233    4.1155 H   0  0  0  0  0  0  0  0  0  0  0  0
    8.7956  -10.7633    3.2578 H   0  0  0  0  0  0  0  0  0  0  0  0
   11.0039  -11.5010    2.5243 H   0  0  0  0  0  0  0  0  0  0  0  0
   10.2464  -10.7913    1.1718 H   0  0  0  0  0  0  0  0  0  0  0  0
   12.5080   -9.8663    1.2936 H   0  0  0  0  0  0  0  0  0  0  0  0
   11.4117   -8.5669    1.5643 H   0  0  0  0  0  0  0  0  0  0  0  0
   13.1950   -8.4800    3.2726 H   0  0  0  0  0  0  0  0  0  0  0  0
   11.6682   -8.7505    4.0548 H   0  0  0  0  0  0  0  0  0  0  0  0
   13.1535  -10.2662    5.0138 H   0  0  0  0  0  0  0  0  0  0  0  0
   12.1212  -11.2776    4.1175 H   0  0  0  0  0  0  0  0  0  0  0  0
   13.7758  -11.3491    2.1165 H   0  0  0  0  0  0  0  0  0  0  0  0
   15.9961  -11.4894    2.8683 H   0  0  0  0  0  0  0  0  0  0  0  0
   16.3534  -10.0247    4.9835 H   0  0  0  0  0  0  0  0  0  0  0  0
   14.8374  -10.4659    5.6178 H   0  0  0  0  0  0  0  0  0  0  0  0
   16.2855  -11.9319    6.7020 H   0  0  0  0  0  0  0  0  0  0  0  0
   15.3529  -12.9049    5.6043 H   0  0  0  0  0  0  0  0  0  0  0  0
   17.7389  -13.5283    5.4267 H   0  0  0  0  0  0  0  0  0  0  0  0
   17.2043  -12.8934    3.9128 H   0  0  0  0  0  0  0  0  0  0  0  0
   19.3466  -11.8346    4.4320 H   0  0  0  0  0  0  0  0  0  0  0  0
   18.1547  -10.6082    4.4490 H   0  0  0  0  0  0  0  0  0  0  0  0
   19.5100  -10.3002    6.4503 H   0  0  0  0  0  0  0  0  0  0  0  0
   17.9335  -10.7431    6.9736 H   0  0  0  0  0  0  0  0  0  0  0  0
   19.5830  -12.0735    8.2259 H   0  0  0  0  0  0  0  0  0  0  0  0
   18.6110  -13.1448    7.2583 H   0  0  0  0  0  0  0  0  0  0  0  0
   20.9724  -13.7814    7.0368 H   0  0  0  0  0  0  0  0  0  0  0  0
   20.3996  -13.2328    5.4862 H   0  0  0  0  0  0  0  0  0  0  0  0
   21.9500  -11.5174    7.4870 H   0  0  0  0  0  0  0  0  0  0  0  0
   22.6003  -12.2083    5.9771 H   0  0  0  0  0  0  0  0  0  0  0  0
   21.3913  -10.9409    5.9106 H   0  0  0  0  0  0  0  0  0  0  0  0
  1  2  2  0  0  0  0
  1  3  1  0  0  0  0
  1 62  1  0  0  0  0
  2  4  1  0  0  0  0
  2 63  1  0  0  0  0
  3 19  1  0  0  0  0
  3  5  1  0  0  0  0
  3 64  1  6  0  0  0
  4  6  1  0  0  0  0
  4 65  1  0  0  0  0
  4 66  1  0  0  0  0
  5 20  1  0  0  0  0
  5  7  1  0  0  0  0
  5 67  1  1  0  0  0
  6  8  1  0  0  0  0
  6 68  1  0  0  0  0
  6 69  1  0  0  0  0
  7 34  1  0  0  0  0
  7 70  1  0  0  0  0
  7 71  1  0  0  0  0
  8  9  1  0  0  0  0
  8 72  1  0  0  0  0
  8 73  1  0  0  0  0
  9 10  1  0  0  0  0
  9 74  1  0  0  0  0
  9 75  1  0  0  0  0
 10 11  1  0  0  0  0
 10 76  1  0  0  0  0
 10 77  1  0  0  0  0
 11 12  1  0  0  0  0
 11 78  1  0  0  0  0
 11 79  1  0  0  0  0
 12 13  1  0  0  0  0
 12 80  1  0  0  0  0
 12 81  1  0  0  0  0
 13 14  1  0  0  0  0
 13 82  1  0  0  0  0
 13 83  1  0  0  0  0
 14 15  1  0  0  0  0
 14 84  1  0  0  0  0
 14 85  1  0  0  0  0
 15 16  1  0  0  0  0
 15 86  1  0  0  0  0
 15 87  1  0  0  0  0
 16 17  1  0  0  0  0
 16 88  1  0  0  0  0
 16 89  1  0  0  0  0
 17 18  1  0  0  0  0
 17 90  1  0  0  0  0
 17 91  1  0  0  0  0
 18 92  1  0  0  0  0
 18 93  1  0  0  0  0
 18 94  1  0  0  0  0
 19 95  1  0  0  0  0
 20 22  1  0  0  0  0
 20 96  1  0  0  0  0
 21 40  1  0  0  0  0
 21 97  1  0  0  0  0
 21 98  1  0  0  0  0
 22 21  1  0  0  0  0
 22 23  2  0  0  0  0
 24 25  1  0  0  0  0
 24 29  1  0  0  0  0
 24 99  1  1  0  0  0
 24 32  1  0  0  0  0
 25 26  1  0  0  0  0
 25100  1  1  0  0  0
 25 33  1  0  0  0  0
 26 27  1  0  0  0  0
 26101  1  1  0  0  0
 26 34  1  0  0  0  0
 27 28  1  0  0  0  0
 28 29  1  0  0  0  0
 28 30  1  0  0  0  0
 28102  1  6  0  0  0
 29103  1  1  0  0  0
 29 31  1  0  0  0  0
 30 35  1  0  0  0  0
 30104  1  0  0  0  0
 30105  1  0  0  0  0
 31106  1  0  0  0  0
 32 36  1  0  0  0  0
 33107  1  0  0  0  0
 35108  1  0  0  0  0
 36 37  1  0  0  0  0
 36 38  2  0  0  0  0
 36 39  2  0  0  0  0
 37109  1  0  0  0  0
 40 41  1  0  0  0  0
 40110  1  0  0  0  0
 40111  1  0  0  0  0
 41 42  1  0  0  0  0
 41112  1  0  0  0  0
 41113  1  0  0  0  0
 42 43  1  0  0  0  0
 42114  1  0  0  0  0
 42115  1  0  0  0  0
 43 44  1  0  0  0  0
 43116  1  0  0  0  0
 43117  1  0  0  0  0
 44 45  1  0  0  0  0
 44118  1  0  0  0  0
 44119  1  0  0  0  0
 45 46  1  0  0  0  0
 45120  1  0  0  0  0
 45121  1  0  0  0  0
 46 47  1  0  0  0  0
 46122  1  0  0  0  0
 46123  1  0  0  0  0
 47 48  1  0  0  0  0
 47124  1  0  0  0  0
 47125  1  0  0  0  0
 48 49  1  0  0  0  0
 48126  1  0  0  0  0
 48127  1  0  0  0  0
 49 50  1  0  0  0  0
 49128  1  0  0  0  0
 49129  1  0  0  0  0
 50 51  1  0  0  0  0
 50130  1  0  0  0  0
 50131  1  0  0  0  0
 51 52  1  0  0  0  0
 51132  1  0  0  0  0
 51133  1  0  0  0  0
 52 53  2  0  0  0  0
 52134  1  0  0  0  0
 53 54  1  0  0  0  0
 53135  1  0  0  0  0
 54 55  1  0  0  0  0
 54136  1  0  0  0  0
 54137  1  0  0  0  0
 55 56  1  0  0  0  0
 55138  1  0  0  0  0
 55139  1  0  0  0  0
 56 57  1  0  0  0  0
 56140  1  0  0  0  0
 56141  1  0  0  0  0
 57 58  1  0  0  0  0
 57142  1  0  0  0  0
 57143  1  0  0  0  0
 58 59  1  0  0  0  0
 58144  1  0  0  0  0
 58145  1  0  0  0  0
 59 60  1  0  0  0  0
 59146  1  0  0  0  0
 59147  1  0  0  0  0
 60 61  1  0  0  0  0
 60148  1  0  0  0  0
 60149  1  0  0  0  0
 61150  1  0  0  0  0
 61151  1  0  0  0  0
 61152  1  0  0  0  0
M  END
>  <DRUGBANK_ID>
DB04661

>  <COMMON_NAME>
cis-tetracosenoyl sulfatide

>  <CAS_NUMBER>
151057-28-2

>  <UNII>
LH5A9ZGN2U

>  <SYNONYMS>
1-(3-O-sulfo-beta-D-galactosyl)-N-[(15Z)-tetracos-15-enoyl]sphingosine; C24:1 Sulfatide

$$$$
