
 OpenBabel10282417243D

 20 21  0  0  0  0  0  0  0  0999 V2000
    1.0378   -0.0868    0.0681 N   0  0  0  0  0  0  0  0  0  0  0  0
    0.3941   -0.8765   -0.8981 C   0  0  0  0  0  0  0  0  0  0  0  0
    0.8690   -2.1840   -1.0553 C   0  0  0  0  0  0  0  0  0  0  0  0
    0.2039   -3.1024   -1.8636 C   0  0  0  0  0  0  0  0  0  0  0  0
   -0.9995   -2.7474   -2.4547 C   0  0  0  0  0  0  0  0  0  0  0  0
   -1.3898   -1.4051   -2.4556 C   0  0  0  0  0  0  0  0  0  0  0  0
   -0.6785   -0.4544   -1.7101 C   0  0  0  0  0  0  0  0  0  0  0  0
   -1.0358    0.9759   -1.8623 C   0  0  0  0  0  0  0  0  0  0  0  0
   -0.4323    1.8700   -1.2687 O   0  0  0  0  0  0  0  0  0  0  0  0
   -2.0534    1.2837   -2.7355 N   0  0  0  0  0  0  0  0  0  0  0  0
   -2.7808    0.3266   -3.4201 N   0  0  0  0  0  0  0  0  0  0  0  0
   -2.5134   -1.0104   -3.3245 C   0  0  0  0  0  0  0  0  0  0  0  0
   -3.1600   -1.8416   -3.9633 O   0  0  0  0  0  0  0  0  0  0  0  0
    0.5738    0.7990    0.2738 H   0  0  0  0  0  0  0  0  0  0  0  0
    2.0331    0.0381   -0.0952 H   0  0  0  0  0  0  0  0  0  0  0  0
    1.7447   -2.5062   -0.4972 H   0  0  0  0  0  0  0  0  0  0  0  0
    0.6163   -4.0955   -2.0147 H   0  0  0  0  0  0  0  0  0  0  0  0
   -1.6054   -3.5029   -2.9512 H   0  0  0  0  0  0  0  0  0  0  0  0
   -2.2887    2.2635   -2.8613 H   0  0  0  0  0  0  0  0  0  0  0  0
   -3.5175    0.6164   -4.0571 H   0  0  0  0  0  0  0  0  0  0  0  0
  1  2  1  0  0  0  0
  1 14  1  0  0  0  0
  1 15  1  0  0  0  0
  2  3  1  0  0  0  0
  2  7  2  0  0  0  0
  3  4  2  0  0  0  0
  3 16  1  0  0  0  0
  4  5  1  0  0  0  0
  4 17  1  0  0  0  0
  5  6  2  0  0  0  0
  5 18  1  0  0  0  0
  6  7  1  0  0  0  0
  6 12  1  0  0  0  0
  7  8  1  0  0  0  0
  8  9  2  0  0  0  0
  8 10  1  0  0  0  0
 10 11  1  0  0  0  0
 10 19  1  0  0  0  0
 11 12  1  0  0  0  0
 11 20  1  0  0  0  0
 12 13  2  0  0  0  0
M  END
>  <DRUGBANK_ID>
DB18536

>  <COMMON_NAME>
Luminol

>  <CAS_NUMBER>
521-31-3

>  <UNII>
5EXP385Q4F

>  <SYNONYMS>
3-aminophthalic hydrazide; 5-amino-2,3-dihydro-1,4-phthalazinedione; O-aminophthaloyl hydrazide; O-aminophthalylhydrazide

$$$$
