NOR
 OpenBabel10282417173D

 42 42  0  0  0  0  0  0  0  0999 V2000
    0.9051    0.2247   -0.0837 N   0  0  0  0  0  0  0  0  0  0  0  0
    0.4065   -0.4730   -1.2882 C   0  0  1  0  0  0  0  0  0  0  0  0
    0.9477   -1.9169   -1.4357 C   0  0  0  0  0  0  0  0  0  0  0  0
    0.5396   -2.8897   -0.3091 C   0  0  0  0  0  0  0  0  0  0  0  0
    1.3727   -2.6334    0.9543 C   0  0  0  0  0  0  0  0  0  0  0  0
    0.7111   -4.3470   -0.7694 C   0  0  0  0  0  0  0  0  0  0  0  0
    1.0509   -3.6015    2.0695 C   0  0  0  0  0  0  0  0  0  0  0  0
    0.4398   -5.3326    0.3683 C   0  0  0  0  0  0  0  0  0  0  0  0
    1.2825   -5.0223    1.6016 C   0  0  0  0  0  0  0  0  0  0  0  0
   -1.1411   -0.4313   -1.2929 C   0  0  1  0  0  0  0  0  0  0  0  0
   -1.6102    0.8895   -1.0462 O   0  0  0  0  0  0  0  0  0  0  0  0
   -1.6774   -1.0670   -2.5635 C   0  0  0  0  0  0  0  0  0  0  0  0
   -2.3306   -2.1095   -2.5403 O   0  0  0  0  0  0  0  0  0  0  0  0
   -1.2954   -0.3951   -3.6827 O   0  0  0  0  0  0  0  0  0  0  0  0
   -1.7502   -0.8893   -4.9605 C   0  0  0  0  0  0  0  0  0  0  0  0
   -1.1915   -2.2752   -5.2738 C   0  0  0  0  0  0  0  0  0  0  0  0
   -3.2707   -0.8322   -5.0565 C   0  0  0  0  0  0  0  0  0  0  0  0
    0.7902    0.1131   -2.1324 H   0  0  0  0  0  0  0  0  0  0  0  0
   -1.5359   -1.0295   -0.4654 H   0  0  0  0  0  0  0  0  0  0  0  0
    0.4304   -0.1403    0.7413 H   0  0  0  0  0  0  0  0  0  0  0  0
    1.8965    0.0088    0.0422 H   0  0  0  0  0  0  0  0  0  0  0  0
    0.6089   -2.3170   -2.4017 H   0  0  0  0  0  0  0  0  0  0  0  0
    2.0430   -1.8931   -1.5140 H   0  0  0  0  0  0  0  0  0  0  0  0
   -0.5231   -2.7702   -0.0702 H   0  0  0  0  0  0  0  0  0  0  0  0
    2.4384   -2.6793    0.7003 H   0  0  0  0  0  0  0  0  0  0  0  0
    1.1979   -1.6543    1.3850 H   0  0  0  0  0  0  0  0  0  0  0  0
    0.0257   -4.5610   -1.6001 H   0  0  0  0  0  0  0  0  0  0  0  0
    1.7286   -4.4964   -1.1495 H   0  0  0  0  0  0  0  0  0  0  0  0
    1.6850   -3.3680    2.9312 H   0  0  0  0  0  0  0  0  0  0  0  0
    0.0093   -3.4615    2.3861 H   0  0  0  0  0  0  0  0  0  0  0  0
    0.6514   -6.3512    0.0290 H   0  0  0  0  0  0  0  0  0  0  0  0
   -0.6237   -5.2931    0.6364 H   0  0  0  0  0  0  0  0  0  0  0  0
    2.3448   -5.1497    1.3607 H   0  0  0  0  0  0  0  0  0  0  0  0
    1.0414   -5.7136    2.4136 H   0  0  0  0  0  0  0  0  0  0  0  0
   -1.0970    1.1871   -0.2694 H   0  0  0  0  0  0  0  0  0  0  0  0
   -1.3435   -0.1954   -5.7079 H   0  0  0  0  0  0  0  0  0  0  0  0
   -1.5089   -3.0237   -4.5437 H   0  0  0  0  0  0  0  0  0  0  0  0
   -1.5222   -2.6176   -6.2588 H   0  0  0  0  0  0  0  0  0  0  0  0
   -0.0968   -2.2627   -5.2520 H   0  0  0  0  0  0  0  0  0  0  0  0
   -3.6233    0.1878   -4.8724 H   0  0  0  0  0  0  0  0  0  0  0  0
   -3.6176   -1.1605   -6.0393 H   0  0  0  0  0  0  0  0  0  0  0  0
   -3.7516   -1.4672   -4.3080 H   0  0  0  0  0  0  0  0  0  0  0  0
  1 20  1  0  0  0  0
  1 21  1  0  0  0  0
  2  1  1  0  0  0  0
  2  3  1  0  0  0  0
  2 10  1  0  0  0  0
  2 18  1  6  0  0  0
  3  4  1  0  0  0  0
  3 22  1  0  0  0  0
  3 23  1  0  0  0  0
  4  5  1  0  0  0  0
  4  6  1  0  0  0  0
  4 24  1  0  0  0  0
  5  7  1  0  0  0  0
  5 25  1  0  0  0  0
  5 26  1  0  0  0  0
  6  8  1  0  0  0  0
  6 27  1  0  0  0  0
  6 28  1  0  0  0  0
  7  9  1  0  0  0  0
  7 29  1  0  0  0  0
  7 30  1  0  0  0  0
  8  9  1  0  0  0  0
  8 31  1  0  0  0  0
  8 32  1  0  0  0  0
  9 33  1  0  0  0  0
  9 34  1  0  0  0  0
 10 11  1  0  0  0  0
 10 12  1  0  0  0  0
 10 19  1  1  0  0  0
 11 35  1  0  0  0  0
 12 13  2  0  0  0  0
 12 14  1  0  0  0  0
 14 15  1  0  0  0  0
 15 16  1  0  0  0  0
 15 17  1  0  0  0  0
 15 36  1  0  0  0  0
 16 37  1  0  0  0  0
 16 38  1  0  0  0  0
 16 39  1  0  0  0  0
 17 40  1  0  0  0  0
 17 41  1  0  0  0  0
 17 42  1  0  0  0  0
M  END
>  <DRUGBANK_ID>
DB08288

>  <COMMON_NAME>
CYCLOHEXYL-NORSTATINE

$$$$
