AE2
 OpenBabel10282417123D

 51 54  0  0  0  0  0  0  0  0999 V2000
    0.5270    0.6232   -0.8716 C   0  0  0  0  0  0  0  0  0  0  0  0
    1.9828    0.9393   -2.0712 C   0  0  0  0  0  0  0  0  0  0  0  0
    2.6057   -0.5728   -2.8705 C   0  0  1  0  0  0  0  0  0  0  0  0
    3.2387   -1.7998   -2.2995 O   0  0  0  0  0  0  0  0  0  0  0  0
    1.3210   -1.2172   -3.0333 C   0  0  0  0  0  0  0  0  0  0  0  0
    1.0666   -1.2240   -1.4925 C   0  0  1  0  0  0  0  0  0  0  0  0
    1.5129   -2.1222   -0.2904 C   0  0  0  0  0  0  0  0  0  0  0  0
    0.9893   -3.4716   -0.6166 C   0  0  0  0  0  0  0  0  0  0  0  0
   -0.5281   -3.3780   -0.5216 C   0  0  2  0  0  0  0  0  0  0  0  0
   -1.0275   -2.0315   -1.5365 C   0  0  1  0  0  0  0  0  0  0  0  0
   -0.3016   -0.5463   -1.4754 C   0  0  1  0  0  0  0  0  0  0  0  0
   -2.5483   -1.9038   -1.5186 C   0  0  0  0  0  0  0  0  0  0  0  0
   -3.0620   -3.2494   -2.0082 C   0  0  0  0  0  0  0  0  0  0  0  0
   -2.6827   -4.3324   -1.0284 C   0  0  1  0  0  0  0  0  0  0  0  0
   -1.3232   -4.9460   -0.7601 C   0  0  1  0  0  0  0  0  0  0  0  0
   -2.1844   -6.4172    0.0215 C   0  0  0  0  0  0  0  0  0  0  0  0
   -3.7440   -6.3267   -0.3047 C   0  0  0  0  0  0  0  0  0  0  0  0
   -3.2979   -5.6333   -1.5418 C   0  0  0  0  0  0  0  0  0  0  0  0
   -2.9838   -6.1907   -2.5504 O   0  0  0  0  0  0  0  0  0  0  0  0
   -3.0354   -3.8266    0.4892 C   0  0  0  0  0  0  0  0  0  0  0  0
   -0.9888    0.4416   -2.6163 C   0  0  0  0  0  0  0  0  0  0  0  0
    3.2738   -0.4076   -3.7175 H   0  0  0  0  0  0  0  0  0  0  0  0
    1.8857   -0.6225   -0.9868 H   0  0  0  0  0  0  0  0  0  0  0  0
   -0.7366   -2.9590    0.4639 H   0  0  0  0  0  0  0  0  0  0  0  0
   -0.7946   -2.4104   -2.5589 H   0  0  0  0  0  0  0  0  0  0  0  0
   -0.7278   -5.4452   -1.5405 H   0  0  0  0  0  0  0  0  0  0  0  0
   -0.2356    1.3932   -0.6797 H   0  0  0  0  0  0  0  0  0  0  0  0
    0.8548    0.4772    0.1733 H   0  0  0  0  0  0  0  0  0  0  0  0
    3.0874    1.0972   -2.1233 H   0  0  0  0  0  0  0  0  0  0  0  0
    2.3892    1.5607   -1.2464 H   0  0  0  0  0  0  0  0  0  0  0  0
    2.6683   -2.5836   -2.5630 H   0  0  0  0  0  0  0  0  0  0  0  0
    1.5125   -1.9833   -3.7697 H   0  0  0  0  0  0  0  0  0  0  0  0
    0.4593   -0.8552   -3.5733 H   0  0  0  0  0  0  0  0  0  0  0  0
    2.6182   -2.1141   -0.1651 H   0  0  0  0  0  0  0  0  0  0  0  0
    1.2083   -1.6587    0.6772 H   0  0  0  0  0  0  0  0  0  0  0  0
    1.4337   -4.2846   -0.0488 H   0  0  0  0  0  0  0  0  0  0  0  0
    1.3191   -3.6359   -1.6382 H   0  0  0  0  0  0  0  0  0  0  0  0
   -3.0380   -1.1661   -2.1539 H   0  0  0  0  0  0  0  0  0  0  0  0
   -2.7619   -1.5271   -0.5194 H   0  0  0  0  0  0  0  0  0  0  0  0
   -4.1390   -3.4070   -2.1388 H   0  0  0  0  0  0  0  0  0  0  0  0
   -2.7820   -3.2796   -3.0744 H   0  0  0  0  0  0  0  0  0  0  0  0
   -2.0350   -7.3151   -0.6336 H   0  0  0  0  0  0  0  0  0  0  0  0
   -1.8578   -6.9089    0.9518 H   0  0  0  0  0  0  0  0  0  0  0  0
   -4.3726   -7.1984   -0.4647 H   0  0  0  0  0  0  0  0  0  0  0  0
   -4.4217   -5.6186    0.1728 H   0  0  0  0  0  0  0  0  0  0  0  0
   -3.4588   -2.8331    0.5133 H   0  0  0  0  0  0  0  0  0  0  0  0
   -3.6905   -4.4030    1.1293 H   0  0  0  0  0  0  0  0  0  0  0  0
   -2.1528   -3.8183    1.1441 H   0  0  0  0  0  0  0  0  0  0  0  0
   -1.2188    1.4481   -2.2207 H   0  0  0  0  0  0  0  0  0  0  0  0
   -0.3762    0.6944   -3.4902 H   0  0  0  0  0  0  0  0  0  0  0  0
   -1.9624    0.1234   -2.9735 H   0  0  0  0  0  0  0  0  0  0  0  0
  1  2  1  0  0  0  0
  1 11  1  0  0  0  0
  1 27  1  0  0  0  0
  1 28  1  0  0  0  0
  2  3  1  0  0  0  0
  2 29  1  0  0  0  0
  2 30  1  0  0  0  0
  3  5  1  0  0  0  0
  3 22  1  6  0  0  0
  3  4  1  0  0  0  0
  4 31  1  0  0  0  0
  5  6  1  0  0  0  0
  5 32  1  0  0  0  0
  5 33  1  0  0  0  0
  6  7  1  0  0  0  0
  6 11  1  0  0  0  0
  6 23  1  6  0  0  0
  7  8  1  0  0  0  0
  7 34  1  0  0  0  0
  7 35  1  0  0  0  0
  8  9  1  0  0  0  0
  8 36  1  0  0  0  0
  8 37  1  0  0  0  0
  9 10  1  0  0  0  0
  9 15  1  0  0  0  0
  9 24  1  6  0  0  0
 10 11  1  0  0  0  0
 10 12  1  0  0  0  0
 10 25  1  1  0  0  0
 11 21  1  6  0  0  0
 12 13  1  0  0  0  0
 12 38  1  0  0  0  0
 12 39  1  0  0  0  0
 13 14  1  0  0  0  0
 13 40  1  0  0  0  0
 13 41  1  0  0  0  0
 14 15  1  0  0  0  0
 14 18  1  0  0  0  0
 14 20  1  6  0  0  0
 15 16  1  0  0  0  0
 15 26  1  1  0  0  0
 16 17  1  0  0  0  0
 16 42  1  0  0  0  0
 16 43  1  0  0  0  0
 17 18  1  0  0  0  0
 17 44  1  0  0  0  0
 17 45  1  0  0  0  0
 18 19  2  0  0  0  0
 20 46  1  0  0  0  0
 20 47  1  0  0  0  0
 20 48  1  0  0  0  0
 21 49  1  0  0  0  0
 21 50  1  0  0  0  0
 21 51  1  0  0  0  0
M  END
>  <DRUGBANK_ID>
DB02854

>  <SECONDARY_ACCESSION_NUMBERS>
EXPT00443

>  <COMMON_NAME>
Aetiocholanolone

>  <CAS_NUMBER>
53-42-9

>  <UNII>
97CGB1M48I

$$$$
