
 OpenBabel10282417213D

 31 34  0  0  1  0  0  0  0  0999 V2000
    0.6592    1.4603   -0.4767 C   0  0  0  0  0  0  0  0  0  0  0  0
    0.7553    0.2716    0.4008 C   0  0  2  0  0  0  0  0  0  0  0  0
    0.6200   -1.1294   -0.1660 C   0  0  0  0  0  0  0  0  0  0  0  0
   -0.7980   -1.3753    0.1206 N   0  0  0  0  0  0  0  0  0  0  0  0
   -1.4724   -0.1395   -0.3220 C   0  0  0  0  0  0  0  0  0  0  0  0
   -0.5987    0.9657    0.2476 C   0  0  2  0  0  0  0  0  0  0  0  0
   -1.4720    2.1193    0.8260 C   0  0  0  0  0  0  0  0  0  0  0  0
   -1.9595    3.1372   -0.0309 C   0  0  0  0  0  0  0  0  0  0  0  0
   -2.9835    4.0503    0.3291 C   0  0  0  0  0  0  0  0  0  0  0  0
   -3.6034    3.9867    1.5885 C   0  0  0  0  0  0  0  0  0  0  0  0
   -4.6441    4.8845    1.9607 C   0  0  0  0  0  0  0  0  0  0  0  0
   -5.2511    4.7964    3.2176 C   0  0  0  0  0  0  0  0  0  0  0  0
   -4.8460    3.8033    4.0942 C   0  0  0  0  0  0  0  0  0  0  0  0
   -3.8295    2.9044    3.7257 C   0  0  0  0  0  0  0  0  0  0  0  0
   -3.1729    2.9876    2.4721 C   0  0  0  0  0  0  0  0  0  0  0  0
   -2.1209    2.0773    2.0832 C   0  0  0  0  0  0  0  0  0  0  0  0
    1.1847    2.3278   -0.0788 H   0  0  0  0  0  0  0  0  0  0  0  0
    0.7522    1.3429   -1.5448 H   0  0  0  0  0  0  0  0  0  0  0  0
    1.6200    0.3543    1.0423 H   0  0  0  0  0  0  0  0  0  0  0  0
    0.7867   -1.1794   -1.2513 H   0  0  0  0  0  0  0  0  0  0  0  0
    1.2445   -1.8949    0.3076 H   0  0  0  0  0  0  0  0  0  0  0  0
   -0.8825   -1.4116    1.1406 H   0  0  0  0  0  0  0  0  0  0  0  0
   -1.4951   -0.0833   -1.4147 H   0  0  0  0  0  0  0  0  0  0  0  0
   -2.4940   -0.1155    0.0647 H   0  0  0  0  0  0  0  0  0  0  0  0
   -1.5969    3.1919   -1.0585 H   0  0  0  0  0  0  0  0  0  0  0  0
   -3.3191    4.7866   -0.3968 H   0  0  0  0  0  0  0  0  0  0  0  0
   -4.9882    5.6595    1.2809 H   0  0  0  0  0  0  0  0  0  0  0  0
   -6.0329    5.4993    3.5053 H   0  0  0  0  0  0  0  0  0  0  0  0
   -5.3149    3.7224    5.0743 H   0  0  0  0  0  0  0  0  0  0  0  0
   -3.5472    2.1339    4.4336 H   0  0  0  0  0  0  0  0  0  0  0  0
   -1.8697    1.2693    2.7628 H   0  0  0  0  0  0  0  0  0  0  0  0
  1 17  1  0  0  0  0
  1 18  1  0  0  0  0
  2  1  1  0  0  0  0
  2  3  1  0  0  0  0
  2  6  1  0  0  0  0
  2 19  1  1  0  0  0
  3  4  1  0  0  0  0
  3 20  1  0  0  0  0
  3 21  1  0  0  0  0
  4  5  1  0  0  0  0
  4 22  1  0  0  0  0
  5 23  1  0  0  0  0
  5 24  1  0  0  0  0
  6  5  1  0  0  0  0
  6  1  1  0  0  0  0
  6  7  1  1  0  0  0
  7  8  2  0  0  0  0
  7 16  1  0  0  0  0
  8  9  1  0  0  0  0
  8 25  1  0  0  0  0
  9 10  2  0  0  0  0
  9 26  1  0  0  0  0
 10 11  1  0  0  0  0
 10 15  1  0  0  0  0
 11 12  2  0  0  0  0
 11 27  1  0  0  0  0
 12 13  1  0  0  0  0
 12 28  1  0  0  0  0
 13 14  2  0  0  0  0
 13 29  1  0  0  0  0
 14 15  1  0  0  0  0
 14 30  1  0  0  0  0
 15 16  2  0  0  0  0
 16 31  1  0  0  0  0
M  END
>  <DRUGBANK_ID>
DB14841

>  <COMMON_NAME>
Centanafadine

>  <CAS_NUMBER>
924012-43-1

>  <UNII>
D2A6T4UH9C

>  <SYNONYMS>
Centanafadine

$$$$
