
 OpenBabel10282417223D

 52 54  0  0  0  0  0  0  0  0999 V2000
    1.1037   -0.0030    0.2009 C   0  0  0  0  0  0  0  0  0  0  0  0
    0.3413    0.9872   -0.5566 C   0  0  0  0  0  0  0  0  0  0  0  0
    0.5252    1.1332   -1.9406 C   0  0  0  0  0  0  0  0  0  0  0  0
   -0.5029    1.8546   -2.5432 C   0  0  0  0  0  0  0  0  0  0  0  0
   -1.4530    2.6465   -1.8482 C   0  0  0  0  0  0  0  0  0  0  0  0
   -1.6150    2.4924   -0.4970 C   0  0  0  0  0  0  0  0  0  0  0  0
   -0.7435    1.6230    0.1425 C   0  0  0  0  0  0  0  0  0  0  0  0
    0.4545   -0.8681    0.8305 O   0  0  0  0  0  0  0  0  0  0  0  0
    2.4435    0.0727    0.2661 O   0  0  0  0  0  0  0  0  0  0  0  0
    1.6130    0.3789   -2.7392 C   0  0  0  0  0  0  0  0  0  0  0  0
    2.4542    0.8643   -3.9263 C   0  0  0  0  0  0  0  0  0  0  0  0
    3.2617    2.0218   -3.9775 C   0  0  0  0  0  0  0  0  0  0  0  0
    3.7223    2.5660   -5.2427 C   0  0  0  0  0  0  0  0  0  0  0  0
    3.4638    1.9038   -6.4430 C   0  0  0  0  0  0  0  0  0  0  0  0
    2.8876    0.6202   -6.3433 C   0  0  0  0  0  0  0  0  0  0  0  0
    2.3483    0.1374   -5.1176 C   0  0  0  0  0  0  0  0  0  0  0  0
    1.9015   -0.7546   -2.3667 O   0  0  0  0  0  0  0  0  0  0  0  0
    3.3670    2.4915   -7.7035 O   0  0  0  0  0  0  0  0  0  0  0  0
    3.3139    3.9390   -7.9376 C   0  0  0  0  0  0  0  0  0  0  0  0
    1.9813    4.8029   -7.7179 C   0  0  0  0  0  0  0  0  0  0  0  0
    1.4719    4.7668   -6.3600 N   0  0  0  0  0  0  0  0  0  0  0  0
    0.4687    5.7364   -5.8895 C   0  0  0  0  0  0  0  0  0  0  0  0
    0.3353    5.6553   -4.3496 C   0  0  0  0  0  0  0  0  0  0  0  0
    0.0394    4.2465   -3.9453 C   0  0  0  0  0  0  0  0  0  0  0  0
    0.9617    3.3598   -4.6855 C   0  0  0  0  0  0  0  0  0  0  0  0
    0.8848    3.4656   -6.1572 C   0  0  0  0  0  0  0  0  0  0  0  0
    3.2357    1.1360   -0.2889 C   0  0  0  0  0  0  0  0  0  0  0  0
   -0.6314    1.8207   -3.6128 H   0  0  0  0  0  0  0  0  0  0  0  0
   -2.0672    3.3779   -2.3769 H   0  0  0  0  0  0  0  0  0  0  0  0
   -2.4506    2.9788    0.0045 H   0  0  0  0  0  0  0  0  0  0  0  0
   -0.9323    1.4032    1.1934 H   0  0  0  0  0  0  0  0  0  0  0  0
    3.2744    2.6923   -3.1136 H   0  0  0  0  0  0  0  0  0  0  0  0
    3.9692    3.6306   -5.2785 H   0  0  0  0  0  0  0  0  0  0  0  0
    2.6702    0.0586   -7.2497 H   0  0  0  0  0  0  0  0  0  0  0  0
    1.7299   -0.7584   -5.1223 H   0  0  0  0  0  0  0  0  0  0  0  0
    4.1706    4.4149   -7.4560 H   0  0  0  0  0  0  0  0  0  0  0  0
    3.4886    4.0378   -9.0213 H   0  0  0  0  0  0  0  0  0  0  0  0
    2.2228    5.8450   -7.9624 H   0  0  0  0  0  0  0  0  0  0  0  0
    1.1914    4.4854   -8.4100 H   0  0  0  0  0  0  0  0  0  0  0  0
   -0.5074    5.4770   -6.3179 H   0  0  0  0  0  0  0  0  0  0  0  0
    0.7259    6.7594   -6.1460 H   0  0  0  0  0  0  0  0  0  0  0  0
   -0.4744    6.2626   -3.9433 H   0  0  0  0  0  0  0  0  0  0  0  0
    1.2707    5.9499   -3.8506 H   0  0  0  0  0  0  0  0  0  0  0  0
    0.2683    4.1523   -2.8789 H   0  0  0  0  0  0  0  0  0  0  0  0
   -0.9809    3.9539   -4.1928 H   0  0  0  0  0  0  0  0  0  0  0  0
    1.9171    3.7237   -4.3131 H   0  0  0  0  0  0  0  0  0  0  0  0
    0.8303    2.3177   -4.4982 H   0  0  0  0  0  0  0  0  0  0  0  0
    1.4502    2.6831   -6.6155 H   0  0  0  0  0  0  0  0  0  0  0  0
   -0.1051    3.2714   -6.5734 H   0  0  0  0  0  0  0  0  0  0  0  0
    3.1759    1.2043   -1.3650 H   0  0  0  0  0  0  0  0  0  0  0  0
    2.9580    2.0974    0.1413 H   0  0  0  0  0  0  0  0  0  0  0  0
    4.2834    0.8989   -0.1010 H   0  0  0  0  0  0  0  0  0  0  0  0
  1  2  1  0  0  0  0
  1  8  2  0  0  0  0
  1  9  1  0  0  0  0
  2  3  1  0  0  0  0
  2  7  2  0  0  0  0
  3  4  2  0  0  0  0
  3 10  1  0  0  0  0
  4  5  1  0  0  0  0
  4 28  1  0  0  0  0
  5  6  2  0  0  0  0
  5 29  1  0  0  0  0
  6  7  1  0  0  0  0
  6 30  1  0  0  0  0
  7 31  1  0  0  0  0
  9 27  1  0  0  0  0
 10 11  1  0  0  0  0
 10 17  2  0  0  0  0
 11 12  1  0  0  0  0
 11 16  2  0  0  0  0
 12 13  2  0  0  0  0
 12 32  1  0  0  0  0
 13 14  1  0  0  0  0
 13 33  1  0  0  0  0
 14 15  2  0  0  0  0
 14 18  1  0  0  0  0
 15 16  1  0  0  0  0
 15 34  1  0  0  0  0
 16 35  1  0  0  0  0
 18 19  1  0  0  0  0
 19 20  1  0  0  0  0
 19 36  1  0  0  0  0
 19 37  1  0  0  0  0
 20 21  1  0  0  0  0
 20 38  1  0  0  0  0
 20 39  1  0  0  0  0
 21 22  1  0  0  0  0
 21 26  1  0  0  0  0
 22 23  1  0  0  0  0
 22 40  1  0  0  0  0
 22 41  1  0  0  0  0
 23 24  1  0  0  0  0
 23 42  1  0  0  0  0
 23 43  1  0  0  0  0
 24 25  1  0  0  0  0
 24 44  1  0  0  0  0
 24 45  1  0  0  0  0
 25 26  1  0  0  0  0
 25 46  1  0  0  0  0
 25 47  1  0  0  0  0
 26 48  1  0  0  0  0
 26 49  1  0  0  0  0
 27 50  1  0  0  0  0
 27 51  1  0  0  0  0
 27 52  1  0  0  0  0
M  END
>  <DRUGBANK_ID>
DB15947

>  <COMMON_NAME>
Pitofenone

>  <CAS_NUMBER>
54063-52-4

>  <UNII>
M09N8K7YJY

>  <SYNONYMS>
Pitofenona; Pitofenone; Pitofenonum

$$$$
