
 OpenBabel10282417133D

 98101  0  0  0  0  0  0  0  0999 V2000
   -4.5357   -8.2115   -0.0922 S   0  0  0  0  0  0  0  0  0  0  0  0
   -6.0660   -1.4968    1.8226 P   0  0  0  0  0  0  0  0  0  0  0  0
   -5.7661   -4.3624   -0.9158 P   0  0  1  0  0  0  0  0  0  0  0  0
   -5.0147   -3.7228    1.7342 P   0  0  2  0  0  0  0  0  0  0  0  0
   -3.1972   -0.6739   -1.6577 O   0  0  0  0  0  0  0  0  0  0  0  0
   -6.4776   -2.2048    0.2987 O   0  0  0  0  0  0  0  0  0  0  0  0
   -5.7746    1.0480   -0.2406 O   0  0  0  0  0  0  0  0  0  0  0  0
   -4.2574   -3.9884   -1.6753 O   0  0  0  0  0  0  0  0  0  0  0  0
   -7.5315   -1.8258    2.5632 O   0  0  0  0  0  0  0  0  0  0  0  0
   -4.8410   -2.0574    2.1080 O   0  0  0  0  0  0  0  0  0  0  0  0
   -3.9788   -5.1156    0.3958 O   0  0  0  0  0  0  0  0  0  0  0  0
   -5.9533   -2.7099    0.6922 O   0  0  0  0  0  0  0  0  0  0  0  0
   -5.6977   -0.8630    3.1865 O   0  0  0  0  0  0  0  0  0  0  0  0
   -5.9577   -3.3111   -2.0160 O   0  0  0  0  0  0  0  0  0  0  0  0
   -3.9777   -1.9661    3.9595 O   0  0  0  0  0  0  0  0  0  0  0  0
   -7.1164   -4.6972   -0.2361 O   0  0  0  0  0  0  0  0  0  0  0  0
   -3.4204   -2.5182    0.8998 O   0  0  0  0  0  0  0  0  0  0  0  0
   -4.1747   -4.6294    2.6669 O   0  0  0  0  0  0  0  0  0  0  0  0
   -2.2210   -4.4786    1.3231 O   0  0  0  0  0  0  0  0  0  0  0  0
   -9.4466   -5.0461   -0.1495 O   0  0  0  0  0  0  0  0  0  0  0  0
   -6.2304  -13.3916   -1.8644 O   0  0  0  0  0  0  0  0  0  0  0  0
   -4.4592    0.1685   -3.2166 N   0  0  0  0  0  0  0  0  0  0  0  0
   -4.3724   -0.5365   -5.2150 N   0  0  0  0  0  0  0  0  0  0  0  0
   -6.0622    1.9811   -3.2744 N   0  0  0  0  0  0  0  0  0  0  0  0
   -6.7347    2.3101   -5.5651 N   0  0  0  0  0  0  0  0  0  0  0  0
   -5.9297    0.9574   -7.3614 N   0  0  0  0  0  0  0  0  0  0  0  0
   -5.4150   -5.0065    1.0444 N   0  0  0  0  0  0  0  0  0  0  0  0
   -6.9815   -6.2798    0.2836 N   0  0  0  0  0  0  0  0  0  0  0  0
   -5.8101   -1.3928   -1.3355 C   0  0  1  0  0  0  0  0  0  0  0  0
   -5.6731    0.1566   -1.3278 C   0  0  2  0  0  0  0  0  0  0  0  0
   -3.8444   -1.8311   -1.4274 C   0  0  1  0  0  0  0  0  0  0  0  0
   -4.2518    0.2562   -1.8659 C   0  0  1  0  0  0  0  0  0  0  0  0
   -3.2097   -3.1991   -1.2921 C   0  0  0  0  0  0  0  0  0  0  0  0
   -5.3231    0.9937   -3.8112 C   0  0  0  0  0  0  0  0  0  0  0  0
   -3.9388   -0.7733   -4.0179 C   0  0  0  0  0  0  0  0  0  0  0  0
   -5.2223    0.5585   -5.0972 C   0  0  0  0  0  0  0  0  0  0  0  0
   -4.0161   -0.4482    1.6983 C   0  0  0  0  0  0  0  0  0  0  0  0
   -3.2266   -2.2324    2.6843 C   0  0  2  0  0  0  0  0  0  0  0  0
   -4.8996   -1.1157    0.2765 C   0  0  0  0  0  0  0  0  0  0  0  0
   -5.9671    1.2767   -6.0228 C   0  0  0  0  0  0  0  0  0  0  0  0
   -5.4347    0.7398    2.1319 C   0  0  0  0  0  0  0  0  0  0  0  0
   -3.1674    0.2967    0.7348 C   0  0  0  0  0  0  0  0  0  0  0  0
   -6.7497    2.6072   -4.2418 C   0  0  0  0  0  0  0  0  0  0  0  0
   -3.3727   -4.0642    1.4391 C   0  0  0  0  0  0  0  0  0  0  0  0
   -7.0221   -4.0244    1.8169 C   0  0  0  0  0  0  0  0  0  0  0  0
   -8.1369   -3.4145    0.7284 C   0  0  0  0  0  0  0  0  0  0  0  0
   -8.4880   -5.1937    0.6835 C   0  0  0  0  0  0  0  0  0  0  0  0
   -5.1087   -6.1876   -0.4503 C   0  0  0  0  0  0  0  0  0  0  0  0
   -4.2218   -6.9021    0.8879 C   0  0  0  0  0  0  0  0  0  0  0  0
   -6.3819   -8.2754   -0.0216 C   0  0  0  0  0  0  0  0  0  0  0  0
   -6.5819   -9.5892   -0.5287 C   0  0  0  0  0  0  0  0  0  0  0  0
   -7.0355   -9.8212   -1.8190 C   0  0  0  0  0  0  0  0  0  0  0  0
   -6.0633  -10.5502    0.3012 C   0  0  0  0  0  0  0  0  0  0  0  0
   -6.9425  -11.1120   -2.2926 C   0  0  0  0  0  0  0  0  0  0  0  0
   -5.9484  -11.8058   -0.1928 C   0  0  0  0  0  0  0  0  0  0  0  0
   -6.3817  -12.0936   -1.4799 C   0  0  0  0  0  0  0  0  0  0  0  0
   -5.3497    0.1904   -7.6813 H   0  0  0  0  0  0  0  0  0  0  0  0
   -6.4667    1.4878   -8.0251 H   0  0  0  0  0  0  0  0  0  0  0  0
   -5.8995   -5.7346    1.3133 H   0  0  0  0  0  0  0  0  0  0  0  0
   -7.2304   -6.1928   -0.7088 H   0  0  0  0  0  0  0  0  0  0  0  0
   -5.1133    0.8048    0.4049 H   0  0  0  0  0  0  0  0  0  0  0  0
   -8.3225   -1.2709    2.3837 H   0  0  0  0  0  0  0  0  0  0  0  0
   -4.7536   -2.3746    1.0732 H   0  0  0  0  0  0  0  0  0  0  0  0
   -5.0835   -2.9317   -2.0953 H   0  0  0  0  0  0  0  0  0  0  0  0
   -4.9316   -1.8830    3.6337 H   0  0  0  0  0  0  0  0  0  0  0  0
   -3.6772   -1.8032    1.3659 H   0  0  0  0  0  0  0  0  0  0  0  0
   -6.5421  -13.5562   -2.7667 H   0  0  0  0  0  0  0  0  0  0  0  0
   -6.5223   -1.6395   -2.1170 H   0  0  0  0  0  0  0  0  0  0  0  0
   -6.6755    0.3463   -1.6145 H   0  0  0  0  0  0  0  0  0  0  0  0
   -3.4605   -1.8247   -0.4686 H   0  0  0  0  0  0  0  0  0  0  0  0
   -3.8207    1.1802   -1.5828 H   0  0  0  0  0  0  0  0  0  0  0  0
   -2.8540   -3.7184   -0.4259 H   0  0  0  0  0  0  0  0  0  0  0  0
   -2.2287   -3.0904   -1.6762 H   0  0  0  0  0  0  0  0  0  0  0  0
   -3.2510   -1.5621   -3.6998 H   0  0  0  0  0  0  0  0  0  0  0  0
   -2.3699   -1.4870    2.5817 H   0  0  0  0  0  0  0  0  0  0  0  0
   -5.8814   -0.6132    0.2690 H   0  0  0  0  0  0  0  0  0  0  0  0
   -4.8774   -2.3754   -0.2822 H   0  0  0  0  0  0  0  0  0  0  0  0
   -4.9477    0.8943    3.0459 H   0  0  0  0  0  0  0  0  0  0  0  0
   -6.3354    0.8110    1.4827 H   0  0  0  0  0  0  0  0  0  0  0  0
   -6.6322    0.3371    2.4795 H   0  0  0  0  0  0  0  0  0  0  0  0
   -2.8045    0.9641    1.4233 H   0  0  0  0  0  0  0  0  0  0  0  0
   -2.4837   -0.2732    0.1348 H   0  0  0  0  0  0  0  0  0  0  0  0
   -3.6756    0.9717    0.0688 H   0  0  0  0  0  0  0  0  0  0  0  0
   -7.3766    3.4471   -3.9342 H   0  0  0  0  0  0  0  0  0  0  0  0
   -6.5661   -3.2683    2.5975 H   0  0  0  0  0  0  0  0  0  0  0  0
   -7.3232   -4.1391    2.8519 H   0  0  0  0  0  0  0  0  0  0  0  0
   -7.8337   -2.9735   -0.5241 H   0  0  0  0  0  0  0  0  0  0  0  0
   -8.5520   -2.3728    0.8406 H   0  0  0  0  0  0  0  0  0  0  0  0
   -4.4501   -4.6951   -0.5929 H   0  0  0  0  0  0  0  0  0  0  0  0
   -4.5884   -5.9792   -1.4839 H   0  0  0  0  0  0  0  0  0  0  0  0
   -4.7633   -6.5297    1.8148 H   0  0  0  0  0  0  0  0  0  0  0  0
   -3.1408   -6.4560    0.8559 H   0  0  0  0  0  0  0  0  0  0  0  0
   -6.8659   -8.0824    0.9703 H   0  0  0  0  0  0  0  0  0  0  0  0
   -6.9003   -7.7400   -0.8326 H   0  0  0  0  0  0  0  0  0  0  0  0
   -7.4329   -9.0112   -2.4305 H   0  0  0  0  0  0  0  0  0  0  0  0
   -5.6757  -10.2539    1.2762 H   0  0  0  0  0  0  0  0  0  0  0  0
   -7.3071  -11.3343   -3.2825 H   0  0  0  0  0  0  0  0  0  0  0  0
   -5.5259  -12.5559    0.4488 H   0  0  0  0  0  0  0  0  0  0  0  0
  1 49  1  0  0  0  0
  1 50  1  0  0  0  0
  2  6  1  0  0  0  0
  2  9  1  0  0  0  0
  2 10  1  0  0  0  0
  2 13  2  0  0  0  0
  3 14  1  0  0  0  0
  3 16  2  6  0  0  0
  3 11  1  0  0  0  0
  3  8  1  0  0  0  0
  4 11  1  0  0  0  0
  4 12  1  0  0  0  0
  4 17  1  0  0  0  0
  4 18  2  1  0  0  0
  5 31  1  0  0  0  0
  5 32  1  0  0  0  0
  7 61  1  0  0  0  0
  8 33  1  0  0  0  0
  9 62  1  0  0  0  0
 10 63  1  0  0  0  0
 12 39  1  0  0  0  0
 14 64  1  0  0  0  0
 15 65  1  0  0  0  0
 17 66  1  0  0  0  0
 19 44  2  0  0  0  0
 20 47  2  0  0  0  0
 21 56  1  0  0  0  0
 21 67  1  0  0  0  0
 22 34  1  0  0  0  0
 22 35  1  0  0  0  0
 23 35  2  0  0  0  0
 23 36  1  0  0  0  0
 24 34  2  0  0  0  0
 24 43  1  0  0  0  0
 25 40  1  0  0  0  0
 25 43  2  0  0  0  0
 26 40  1  0  0  0  0
 26 57  1  0  0  0  0
 26 58  1  0  0  0  0
 27 44  1  0  0  0  0
 27 45  1  0  0  0  0
 27 59  1  0  0  0  0
 28 47  1  0  0  0  0
 28 48  1  0  0  0  0
 28 60  1  0  0  0  0
 29  6  1  0  0  0  0
 29 30  1  0  0  0  0
 29 31  1  0  0  0  0
 29 68  1  6  0  0  0
 30  7  1  0  0  0  0
 30 32  1  0  0  0  0
 30 69  1  6  0  0  0
 31 70  1  1  0  0  0
 31 33  1  0  0  0  0
 32 22  1  0  0  0  0
 32 71  1  1  0  0  0
 33 72  1  0  0  0  0
 33 73  1  0  0  0  0
 34 36  1  0  0  0  0
 35 74  1  0  0  0  0
 36 40  2  0  0  0  0
 37 39  1  0  0  0  0
 37 41  1  0  0  0  0
 37 42  1  0  0  0  0
 38 44  1  0  0  0  0
 38 75  1  1  0  0  0
 38 37  1  0  0  0  0
 38 15  1  0  0  0  0
 39 76  1  0  0  0  0
 39 77  1  0  0  0  0
 41 78  1  0  0  0  0
 41 79  1  0  0  0  0
 41 80  1  0  0  0  0
 42 81  1  0  0  0  0
 42 82  1  0  0  0  0
 42 83  1  0  0  0  0
 43 84  1  0  0  0  0
 45 46  1  0  0  0  0
 45 85  1  0  0  0  0
 45 86  1  0  0  0  0
 46 47  1  0  0  0  0
 46 87  1  0  0  0  0
 46 88  1  0  0  0  0
 48 49  1  0  0  0  0
 48 89  1  0  0  0  0
 48 90  1  0  0  0  0
 49 91  1  0  0  0  0
 49 92  1  0  0  0  0
 50 51  1  0  0  0  0
 50 93  1  0  0  0  0
 50 94  1  0  0  0  0
 51 52  2  0  0  0  0
 51 53  1  0  0  0  0
 52 54  1  0  0  0  0
 52 95  1  0  0  0  0
 53 55  2  0  0  0  0
 53 96  1  0  0  0  0
 54 56  2  0  0  0  0
 54 97  1  0  0  0  0
 55 56  1  0  0  0  0
 55 98  1  0  0  0  0
M  END
>  <DRUGBANK_ID>
DB04067

>  <SECONDARY_ACCESSION_NUMBERS>
EXPT00207

>  <COMMON_NAME>
4-hydroxybenzyl coenzyme A

$$$$
