
 OpenBabel10282417123D

 15 16  0  0  0  0  0  0  0  0999 V2000
   -0.8004   -0.4420   -0.0054 C   0  0  0  0  0  0  0  0  0  0  0  0
   -0.5772    0.9016   -0.0263 C   0  0  0  0  0  0  0  0  0  0  0  0
    0.2497   -1.3984   -0.0081 C   0  0  0  0  0  0  0  0  0  0  0  0
   -2.1567   -0.5748    0.0273 N   0  0  0  0  0  0  0  0  0  0  0  0
    0.6892    1.3975   -0.0417 N   0  0  0  0  0  0  0  0  0  0  0  0
   -1.7255    1.6173   -0.0119 N   0  0  0  0  0  0  0  0  0  0  0  0
    1.4981   -0.8079   -0.0153 N   0  0  0  0  0  0  0  0  0  0  0  0
    0.0850   -2.6125    0.0002 O   0  0  0  0  0  0  0  0  0  0  0  0
   -2.6730    0.6990    0.0269 C   0  0  0  0  0  0  0  0  0  0  0  0
    1.7670    0.5482   -0.0117 C   0  0  0  0  0  0  0  0  0  0  0  0
    2.9221    0.9645    0.0217 O   0  0  0  0  0  0  0  0  0  0  0  0
   -2.6782   -1.4418    0.0571 H   0  0  0  0  0  0  0  0  0  0  0  0
    0.8270    2.3974   -0.0461 H   0  0  0  0  0  0  0  0  0  0  0  0
    2.2959   -1.4234    0.0000 H   0  0  0  0  0  0  0  0  0  0  0  0
   -3.7382    0.8899    0.0582 H   0  0  0  0  0  0  0  0  0  0  0  0
  1  2  2  0  0  0  0
  1  3  1  0  0  0  0
  1  4  1  0  0  0  0
  2  5  1  0  0  0  0
  2  6  1  0  0  0  0
  3  7  1  0  0  0  0
  3  8  2  0  0  0  0
  4  9  1  0  0  0  0
  4 12  1  0  0  0  0
  5 10  1  0  0  0  0
  5 13  1  0  0  0  0
  6  9  2  0  0  0  0
  7 10  1  0  0  0  0
  7 14  1  0  0  0  0
  9 15  1  0  0  0  0
 10 11  2  0  0  0  0
M  END
>  <DRUGBANK_ID>
DB02134

>  <SECONDARY_ACCESSION_NUMBERS>
EXPT03251

>  <COMMON_NAME>
Xanthine

>  <CAS_NUMBER>
69-89-6

>  <UNII>
1AVZ07U9S7

$$$$
