395
 OpenBabel10282417103D

 42 41  0  0  1  0  0  0  0  0999 V2000
    1.2666   -0.1889    0.0483 O   0  0  0  0  0  0  0  0  0  0  0  0
   -2.0831    2.1196    2.2781 O   0  0  0  0  0  0  0  0  0  0  0  0
    3.0525   -1.4248   -0.4897 O   0  0  0  0  0  0  0  0  0  0  0  0
   -1.8233    2.5203    0.0187 O   0  0  0  0  0  0  0  0  0  0  0  0
    3.5746    0.6814    0.0407 N   0  0  0  0  0  0  0  0  0  0  0  0
   -3.7185    1.7476    0.9254 N   0  0  0  0  0  0  0  0  0  0  0  0
    0.1848    1.2392    1.9490 C   0  0  3  0  0  0  0  0  0  0  0  0
    1.4396    1.9152    2.3831 C   0  0  0  0  0  0  0  0  0  0  0  0
    0.2482    0.8294    0.4256 C   0  0  0  0  0  0  0  0  0  0  0  0
   -0.7275    2.3832    2.3752 C   0  0  0  0  0  0  0  0  0  0  0  0
    0.0193   -0.0278    2.8010 C   0  0  0  0  0  0  0  0  0  0  0  0
    1.6482    3.3938    1.6059 C   0  0  0  0  0  0  0  0  0  0  0  0
    1.2918    4.7856    1.9805 C   0  0  0  0  0  0  0  0  0  0  0  0
    2.6204   -0.3202   -0.1535 C   0  0  0  0  0  0  0  0  0  0  0  0
    3.4156    2.0154    0.5320 C   0  0  0  0  0  0  0  0  0  0  0  0
   -2.4541    2.1962    0.9757 C   0  0  0  0  0  0  0  0  0  0  0  0
    3.9574    2.1947    2.2242 C   0  0  0  0  0  0  0  0  0  0  0  0
    3.4652    3.2599   -0.4961 C   0  0  0  0  0  0  0  0  0  0  0  0
    4.5164    0.3361    0.0749 H   0  0  0  0  0  0  0  0  0  0  0  0
   -4.2264    1.7139    1.7877 H   0  0  0  0  0  0  0  0  0  0  0  0
   -4.1088    1.6351    0.0102 H   0  0  0  0  0  0  0  0  0  0  0  0
    1.5331    2.0030    3.4705 H   0  0  0  0  0  0  0  0  0  0  0  0
    2.1188    1.0680    2.1656 H   0  0  0  0  0  0  0  0  0  0  0  0
    0.3513    1.6600   -0.2763 H   0  0  0  0  0  0  0  0  0  0  0  0
   -0.7108    0.3461    0.1846 H   0  0  0  0  0  0  0  0  0  0  0  0
   -0.4688    2.7120    3.3995 H   0  0  0  0  0  0  0  0  0  0  0  0
   -0.5400    3.2542    1.7611 H   0  0  0  0  0  0  0  0  0  0  0  0
   -1.0165   -0.3655    2.7872 H   0  0  0  0  0  0  0  0  0  0  0  0
    0.6643   -0.8442    2.4473 H   0  0  0  0  0  0  0  0  0  0  0  0
    0.3143    0.1586    3.8402 H   0  0  0  0  0  0  0  0  0  0  0  0
    2.6963    3.6759    1.5568 H   0  0  0  0  0  0  0  0  0  0  0  0
    1.2493    3.2998    0.5855 H   0  0  0  0  0  0  0  0  0  0  0  0
    1.5218    4.9278    3.0268 H   0  0  0  0  0  0  0  0  0  0  0  0
    1.9280    5.4748    1.3853 H   0  0  0  0  0  0  0  0  0  0  0  0
    0.2896    4.9795    1.6278 H   0  0  0  0  0  0  0  0  0  0  0  0
    2.3567    1.8782    0.4595 H   0  0  0  0  0  0  0  0  0  0  0  0
    4.8845    2.7386    2.3282 H   0  0  0  0  0  0  0  0  0  0  0  0
    3.3485    2.8286    2.9304 H   0  0  0  0  0  0  0  0  0  0  0  0
    3.9262    1.2577    2.8161 H   0  0  0  0  0  0  0  0  0  0  0  0
    3.0724    3.0030   -1.4924 H   0  0  0  0  0  0  0  0  0  0  0  0
    2.8097    4.1374   -0.2927 H   0  0  0  0  0  0  0  0  0  0  0  0
    4.4443    3.7179   -0.4957 H   0  0  0  0  0  0  0  0  0  0  0  0
  1  9  1  0  0  0  0
  1 14  1  0  0  0  0
  2 10  1  0  0  0  0
  2 16  1  0  0  0  0
  3 14  2  0  0  0  0
  4 16  2  0  0  0  0
  5 14  1  0  0  0  0
  5 15  1  0  0  0  0
  5 19  1  0  0  0  0
  6 16  1  0  0  0  0
  6 20  1  0  0  0  0
  6 21  1  0  0  0  0
  7  8  1  0  0  0  0
  7  9  1  0  0  0  0
  7 10  1  0  0  0  0
  7 11  1  0  0  0  0
  8 12  1  0  0  0  0
  8 22  1  0  0  0  0
  8 23  1  0  0  0  0
  9 24  1  0  0  0  0
  9 25  1  0  0  0  0
 10 26  1  0  0  0  0
 10 27  1  0  0  0  0
 11 28  1  0  0  0  0
 11 29  1  0  0  0  0
 11 30  1  0  0  0  0
 12 13  1  0  0  0  0
 12 31  1  0  0  0  0
 12 32  1  0  0  0  0
 13 33  1  0  0  0  0
 13 34  1  0  0  0  0
 13 35  1  0  0  0  0
 15 17  1  0  0  0  0
 15 18  1  0  0  0  0
 15 36  1  0  0  0  0
 17 37  1  0  0  0  0
 17 38  1  0  0  0  0
 17 39  1  0  0  0  0
 18 40  1  0  0  0  0
 18 41  1  0  0  0  0
 18 42  1  0  0  0  0
M  END
>  <DRUGBANK_ID>
DB00395

>  <SECONDARY_ACCESSION_NUMBERS>
APRD00417

>  <COMMON_NAME>
Carisoprodol

>  <CAS_NUMBER>
78-44-4

>  <UNII>
21925K482H

>  <SYNONYMS>
(Â±)-2-methyl-2-propyl-1,3-propanediol carbamate isopropylcarbamate; (1-methylethyl)carbamic acid 2-(((aminocarbonyl)oxy)methyl)-2-methylpentyl ester; (RS)-2-{[(aminocarbonyl)oxy]methyl}-2-methylpentyl isopropylcarbamate; 2-methyl-2-propyl-1,3-propanediol carbamate isopropylcarbamate; 2-methyl-2-propyltrimethylene carbamate isopropylcarbamate; carbamic acid 2-isopropylcarbamoyloxymethyl-2-methyl-pentyl ester; Carisoprodol; Carisoprodolo; Carisoprodolum; Isobamate; Isomeprobamate; Isopropyl meprobamate; Isopropylmeprobamate; N-isopropy-2-methyl-2-propyl-1,3-propanediol dicarbamate

$$$$
