
 OpenBabel10282417123D

 32 32  0  0  0  0  0  0  0  0999 V2000
    0.8918    0.0913   -0.0049 C   0  0  0  0  0  0  0  0  0  0  0  0
    2.2395    0.1078   -0.0198 N   0  0  0  0  0  0  0  0  0  0  0  0
    5.9715    0.3102   -0.1330 C   0  0  2  0  0  0  0  0  0  0  0  0
    3.9417    1.8311    0.3391 C   0  0  0  0  0  0  0  0  0  0  0  0
    3.0631    1.1035   -0.6776 C   0  0  0  0  0  0  0  0  0  0  0  0
    5.0461    0.9372    0.9289 C   0  0  0  0  0  0  0  0  0  0  0  0
    6.9046   -0.6576    0.4068 N   0  0  0  0  0  0  0  0  0  0  0  0
    6.7474    1.3676   -0.9546 C   0  0  0  0  0  0  0  0  0  0  0  0
    5.9436    2.2100   -1.6430 O   0  0  0  0  0  0  0  0  0  0  0  0
    0.3345   -0.9152    0.6761 N   0  0  0  0  0  0  0  0  0  0  0  0
    7.9550    1.4930   -1.0692 O   0  0  0  0  0  0  0  0  0  0  0  0
    0.1017    0.9269   -0.5737 N   0  0  0  0  0  0  0  0  0  0  0  0
    8.4803    0.4958    1.6944 O   0  0  0  0  0  0  0  0  0  0  0  0
    6.7646   -2.0928    0.6231 C   0  0  0  0  0  0  0  0  0  0  0  0
    7.9405   -0.4941    1.2570 C   0  0  0  0  0  0  0  0  0  0  0  0
    8.0965   -2.0180    1.4034 C   0  0  0  0  0  0  0  0  0  0  0  0
    2.7219   -0.6326    0.4711 H   0  0  0  0  0  0  0  0  0  0  0  0
    5.3841   -0.2724   -0.8498 H   0  0  0  0  0  0  0  0  0  0  0  0
    4.3861    2.7109   -0.1367 H   0  0  0  0  0  0  0  0  0  0  0  0
    3.3240    2.2503    1.1422 H   0  0  0  0  0  0  0  0  0  0  0  0
    3.6472    0.6219   -1.4668 H   0  0  0  0  0  0  0  0  0  0  0  0
    2.4727    1.8577   -1.2015 H   0  0  0  0  0  0  0  0  0  0  0  0
    5.6317    1.5267    1.6442 H   0  0  0  0  0  0  0  0  0  0  0  0
    4.5642    0.1439    1.5157 H   0  0  0  0  0  0  0  0  0  0  0  0
    6.5538    2.8898   -2.0042 H   0  0  0  0  0  0  0  0  0  0  0  0
    0.8169   -1.6274    1.1937 H   0  0  0  0  0  0  0  0  0  0  0  0
   -0.6781   -0.9084    0.6932 H   0  0  0  0  0  0  0  0  0  0  0  0
    0.6427    1.6351   -1.0624 H   0  0  0  0  0  0  0  0  0  0  0  0
    6.7988   -2.6693   -0.3052 H   0  0  0  0  0  0  0  0  0  0  0  0
    5.8949   -2.3856    1.2193 H   0  0  0  0  0  0  0  0  0  0  0  0
    8.0692   -2.3725    2.4358 H   0  0  0  0  0  0  0  0  0  0  0  0
    8.9709   -2.4210    0.8845 H   0  0  0  0  0  0  0  0  0  0  0  0
  1  2  1  0  0  0  0
  2  5  1  0  0  0  0
  2 17  1  0  0  0  0
  3  8  1  0  0  0  0
  3  6  1  0  0  0  0
  3  7  1  0  0  0  0
  3 18  1  6  0  0  0
  4  5  1  0  0  0  0
  4 19  1  0  0  0  0
  4 20  1  0  0  0  0
  5 21  1  0  0  0  0
  5 22  1  0  0  0  0
  6  4  1  0  0  0  0
  6 23  1  0  0  0  0
  6 24  1  0  0  0  0
  7 14  1  0  0  0  0
  9  8  1  0  0  0  0
  9 25  1  0  0  0  0
 10  1  1  0  0  0  0
 10 26  1  0  0  0  0
 10 27  1  0  0  0  0
 11  8  2  0  0  0  0
 12  1  2  0  0  0  0
 12 28  1  0  0  0  0
 13 15  2  0  0  0  0
 14 29  1  0  0  0  0
 14 30  1  0  0  0  0
 15  7  1  0  0  0  0
 16 14  1  0  0  0  0
 16 15  1  0  0  0  0
 16 31  1  0  0  0  0
 16 32  1  0  0  0  0
M  END
>  <DRUGBANK_ID>
DB02475

>  <SECONDARY_ACCESSION_NUMBERS>
EXPT02527

>  <COMMON_NAME>
Deoxyamidinoproclavaminic acid

>  <SYNONYMS>
Deoxyamidinoproclavaminate; Deoxyguanidinoproclavaminate; Deoxyguanidinoproclavaminic acid

$$$$
