
 OpenBabel10282417133D

 23 22  0  0  0  0  0  0  0  0999 V2000
    1.0341    0.1849    0.0559 C   0  0  0  0  0  0  0  0  0  0  0  0
    0.6074    0.2553   -1.4058 C   0  0  0  0  0  0  0  0  0  0  0  0
    1.1078   -0.9465   -2.2061 C   0  0  0  0  0  0  0  0  0  0  0  0
    0.5475   -2.2766   -1.6864 C   0  0  0  0  0  0  0  0  0  0  0  0
   -0.9841   -2.3126   -1.6781 C   0  0  0  0  0  0  0  0  0  0  0  0
   -1.5456   -2.1387   -3.0808 C   0  0  0  0  0  0  0  0  0  0  0  0
   -0.2333    2.2405    0.3819 O   0  0  0  0  0  0  0  0  0  0  0  0
    0.5541    1.3053    0.9420 C   0  0  0  0  0  0  0  0  0  0  0  0
    0.8508    1.3544    2.1322 O   0  0  0  0  0  0  0  0  0  0  0  0
    0.6577   -0.7350    0.5176 H   0  0  0  0  0  0  0  0  0  0  0  0
    2.1293    0.1608    0.1010 H   0  0  0  0  0  0  0  0  0  0  0  0
   -0.4848    0.3189   -1.4734 H   0  0  0  0  0  0  0  0  0  0  0  0
    0.9894    1.1742   -1.8638 H   0  0  0  0  0  0  0  0  0  0  0  0
    0.8323   -0.8084   -3.2581 H   0  0  0  0  0  0  0  0  0  0  0  0
    2.2029   -0.9746   -2.1901 H   0  0  0  0  0  0  0  0  0  0  0  0
    0.9319   -3.0960   -2.3041 H   0  0  0  0  0  0  0  0  0  0  0  0
    0.9201   -2.4716   -0.6741 H   0  0  0  0  0  0  0  0  0  0  0  0
   -1.3244   -3.2649   -1.2582 H   0  0  0  0  0  0  0  0  0  0  0  0
   -1.3920   -1.5372   -1.0192 H   0  0  0  0  0  0  0  0  0  0  0  0
   -1.1797   -2.9372   -3.7331 H   0  0  0  0  0  0  0  0  0  0  0  0
   -2.6370   -2.1637   -3.0667 H   0  0  0  0  0  0  0  0  0  0  0  0
   -1.2531   -1.1806   -3.5219 H   0  0  0  0  0  0  0  0  0  0  0  0
   -0.4413    2.1411   -0.5637 H   0  0  0  0  0  0  0  0  0  0  0  0
  1  2  1  0  0  0  0
  1 10  1  0  0  0  0
  1 11  1  0  0  0  0
  2  3  1  0  0  0  0
  2 12  1  0  0  0  0
  2 13  1  0  0  0  0
  3  4  1  0  0  0  0
  3 14  1  0  0  0  0
  3 15  1  0  0  0  0
  4  5  1  0  0  0  0
  4 16  1  0  0  0  0
  4 17  1  0  0  0  0
  5  6  1  0  0  0  0
  5 18  1  0  0  0  0
  5 19  1  0  0  0  0
  6 20  1  0  0  0  0
  6 21  1  0  0  0  0
  6 22  1  0  0  0  0
  7 23  1  0  0  0  0
  8  1  1  0  0  0  0
  8  7  1  0  0  0  0
  8  9  2  0  0  0  0
M  END
>  <DRUGBANK_ID>
DB02938

>  <SECONDARY_ACCESSION_NUMBERS>
EXPT02907

>  <COMMON_NAME>
Heptanoic acid

>  <CAS_NUMBER>
111-14-8

>  <UNII>
THE3YNP39D

>  <SYNONYMS>
Enanthic acid; Enanthylic acid; Heptanoic acid; Heptoic acid; Heptylic acid; n-Heptanoic acid; n-Heptoic acid; n-Heptylic acid; Oenanthic acid; Oenanthylic acid

$$$$
