
 OpenBabel10282417183D

 34 35  0  0  0  0  0  0  0  0999 V2000
    1.1905    0.2637   -0.0124 O   0  0  0  0  0  0  0  0  0  0  0  0
    3.1025   -0.0425    1.1786 N   0  0  0  0  0  0  0  0  0  0  0  0
    4.4868   -0.2153    1.2929 N   0  0  0  0  0  0  0  0  0  0  0  0
    3.1782    0.5247   -1.2826 C   0  0  0  0  0  0  0  0  0  0  0  0
    2.4293    0.2705   -0.0006 C   0  0  0  0  0  0  0  0  0  0  0  0
    4.4532   -2.7535    0.7476 C   0  0  0  0  0  0  0  0  0  0  0  0
    4.9306   -1.5892    1.6340 C   0  0  3  0  0  0  0  0  0  0  0  0
    2.6925    1.5359   -2.1002 C   0  0  0  0  0  0  0  0  0  0  0  0
    4.3124   -0.1913   -1.7254 C   0  0  0  0  0  0  0  0  0  0  0  0
    5.0503   -4.0092    0.8501 C   0  0  0  0  0  0  0  0  0  0  0  0
    3.4061   -2.6863   -0.1819 C   0  0  0  0  0  0  0  0  0  0  0  0
    3.3842    1.8759   -3.2669 C   0  0  0  0  0  0  0  0  0  0  0  0
    5.0073    0.1454   -2.8784 C   0  0  0  0  0  0  0  0  0  0  0  0
    4.7057   -5.0490   -0.0267 C   0  0  0  0  0  0  0  0  0  0  0  0
    3.1087   -3.6644   -1.1202 C   0  0  0  0  0  0  0  0  0  0  0  0
    4.5390    1.1877   -3.6520 C   0  0  0  0  0  0  0  0  0  0  0  0
    6.4789   -1.5047    1.6423 C   0  0  0  0  0  0  0  0  0  0  0  0
    3.7767   -4.8593   -1.0476 C   0  0  0  0  0  0  0  0  0  0  0  0
    2.5102   -0.3147    1.9630 H   0  0  0  0  0  0  0  0  0  0  0  0
    4.9725    0.1304    0.4683 H   0  0  0  0  0  0  0  0  0  0  0  0
    4.5975   -1.7943    2.6576 H   0  0  0  0  0  0  0  0  0  0  0  0
    1.7882    2.0702   -1.8181 H   0  0  0  0  0  0  0  0  0  0  0  0
    4.7220   -1.0465   -1.2106 H   0  0  0  0  0  0  0  0  0  0  0  0
    5.7933   -4.2049    1.6176 H   0  0  0  0  0  0  0  0  0  0  0  0
    2.7841   -1.8295   -0.2951 H   0  0  0  0  0  0  0  0  0  0  0  0
    3.0274    2.7007   -3.8735 H   0  0  0  0  0  0  0  0  0  0  0  0
    5.9066   -0.4074   -3.1422 H   0  0  0  0  0  0  0  0  0  0  0  0
    5.1748   -6.0183    0.0912 H   0  0  0  0  0  0  0  0  0  0  0  0
    2.3564   -3.4553   -1.8783 H   0  0  0  0  0  0  0  0  0  0  0  0
    5.0728    1.4563   -4.5574 H   0  0  0  0  0  0  0  0  0  0  0  0
    6.8403   -0.7233    2.3223 H   0  0  0  0  0  0  0  0  0  0  0  0
    6.9434   -2.4366    1.9781 H   0  0  0  0  0  0  0  0  0  0  0  0
    6.8791   -1.2891    0.6422 H   0  0  0  0  0  0  0  0  0  0  0  0
    3.5447   -5.6399   -1.7615 H   0  0  0  0  0  0  0  0  0  0  0  0
  1  5  2  0  0  0  0
  2  3  1  0  0  0  0
  2  5  1  0  0  0  0
  2 19  1  0  0  0  0
  3  7  1  0  0  0  0
  3 20  1  0  0  0  0
  4  5  1  0  0  0  0
  4  8  2  0  0  0  0
  4  9  1  0  0  0  0
  6  7  1  0  0  0  0
  6 10  2  0  0  0  0
  6 11  1  0  0  0  0
  7 17  1  0  0  0  0
  7 21  1  0  0  0  0
  8 12  1  0  0  0  0
  8 22  1  0  0  0  0
  9 13  2  0  0  0  0
  9 23  1  0  0  0  0
 10 14  1  0  0  0  0
 10 24  1  0  0  0  0
 11 15  2  0  0  0  0
 11 25  1  0  0  0  0
 12 16  2  0  0  0  0
 12 26  1  0  0  0  0
 13 16  1  0  0  0  0
 13 27  1  0  0  0  0
 14 18  2  0  0  0  0
 14 28  1  0  0  0  0
 15 18  1  0  0  0  0
 15 29  1  0  0  0  0
 16 30  1  0  0  0  0
 17 31  1  0  0  0  0
 17 32  1  0  0  0  0
 17 33  1  0  0  0  0
 18 34  1  0  0  0  0
M  END
>  <DRUGBANK_ID>
DB09246

>  <COMMON_NAME>
Benmoxin

>  <CAS_NUMBER>
7654-03-7

>  <UNII>
XC9FY2SGBG

>  <SYNONYMS>
Benmoxin; Mebamoxine

$$$$
