
 OpenBabel10282417153D

 78 85  0  0  0  0  0  0  0  0999 V2000
    1.2827    0.1849   -0.1193 C   0  0  3  0  0  0  0  0  0  0  0  0
    2.5065    0.4387    0.7252 C   0  0  0  0  0  0  0  0  0  0  0  0
    3.5533   -0.4806    0.7508 C   0  0  0  0  0  0  0  0  0  0  0  0
    4.6737   -0.3096    1.4926 N   0  0  0  0  0  0  0  0  0  0  0  0
    4.7148    0.8281    2.2194 C   0  0  0  0  0  0  0  0  0  0  0  0
    3.6879    1.7516    2.2028 C   0  0  0  0  0  0  0  0  0  0  0  0
    2.5760    1.5803    1.4542 N   0  0  0  0  0  0  0  0  0  0  0  0
   -1.0714    0.4784    0.0949 N   0  0  0  0  0  0  0  0  0  0  0  0
   -0.8565   -0.9133   -0.2212 C   0  0  0  0  0  0  0  0  0  0  0  0
    0.5734   -1.1338    0.2416 C   0  0  0  0  0  0  0  0  0  0  0  0
    0.1675    1.2568    0.0024 C   0  0  0  0  0  0  0  0  0  0  0  0
  -10.4818   -2.0934    5.4073 C   0  0  0  0  0  0  0  0  0  0  0  0
   -8.9981   -1.9178    5.6356 C   0  0  0  0  0  0  0  0  0  0  0  0
   -8.8903   -0.4264    5.6824 C   0  0  0  0  0  0  0  0  0  0  0  0
  -10.2137    0.1199    6.2180 C   0  0  2  0  0  0  0  0  0  0  0  0
  -11.1206   -1.0557    6.2488 N   0  0  0  0  0  0  0  0  0  0  0  0
   -2.8692    2.0630   -0.0777 C   0  0  0  0  0  0  0  0  0  0  0  0
   -2.2519    0.9898    0.5885 C   0  0  0  0  0  0  0  0  0  0  0  0
   -4.0861    2.5838    0.3354 C   0  0  0  0  0  0  0  0  0  0  0  0
   -4.7069    2.0564    1.4727 C   0  0  0  0  0  0  0  0  0  0  0  0
   -5.9698    1.0632    3.7474 C   0  0  0  0  0  0  0  0  0  0  0  0
   -6.6247    2.0806    3.1340 C   0  0  0  0  0  0  0  0  0  0  0  0
   -5.9897    2.6299    1.9059 C   0  0  0  0  0  0  0  0  0  0  0  0
   -4.1315    1.0055    2.2042 C   0  0  0  0  0  0  0  0  0  0  0  0
   -2.9140    0.4745    1.7400 C   0  0  0  0  0  0  0  0  0  0  0  0
   -2.3106   -0.5598    2.4217 O   0  0  0  0  0  0  0  0  0  0  0  0
   -4.7597    0.4777    3.3890 N   0  0  0  0  0  0  0  0  0  0  0  0
   -4.1077   -0.5908    4.1128 C   0  0  0  0  0  0  0  0  0  0  0  0
   -2.8879   -1.0311    3.5756 C   0  0  0  0  0  0  0  0  0  0  0  0
   -2.1091   -1.9435    4.2693 C   0  0  0  0  0  0  0  0  0  0  0  0
   -4.5492   -1.3377    5.2570 C   0  0  0  0  0  0  0  0  0  0  0  0
   -3.7467   -2.5501    5.7973 C   0  0  0  0  0  0  0  0  0  0  0  0
   -2.4005   -2.3867    5.5358 C   0  0  0  0  0  0  0  0  0  0  0  0
   -1.4767   -3.0135    6.4160 C   0  0  0  0  0  0  0  0  0  0  0  0
   -1.2653   -4.2543    5.9614 C   0  0  0  0  0  0  0  0  0  0  0  0
   -2.4710   -4.8212    6.3526 C   0  0  0  0  0  0  0  0  0  0  0  0
   -3.7102   -3.8757    6.4908 C   0  0  0  0  0  0  0  0  0  0  0  0
   -2.3107    2.5756   -1.1870 F   0  0  0  0  0  0  0  0  0  0  0  0
   -6.4810    3.5440    1.2393 O   0  0  0  0  0  0  0  0  0  0  0  0
   -7.9308    2.6399    3.6106 C   0  0  0  0  0  0  0  0  0  0  0  0
   -8.4093    2.1813    4.7999 N   0  0  0  0  0  0  0  0  0  0  0  0
   -8.5610    3.4969    2.9655 O   0  0  0  0  0  0  0  0  0  0  0  0
   -9.7306    2.4849    5.3263 C   0  0  0  0  0  0  0  0  0  0  0  0
  -10.7092    1.2880    5.3358 C   0  0  0  0  0  0  0  0  0  0  0  0
  -11.2230   -1.5718    7.6241 C   0  0  0  0  0  0  0  0  0  0  0  0
    1.6079    0.1393   -1.1687 H   0  0  0  0  0  0  0  0  0  0  0  0
    3.5202   -1.3959    0.1692 H   0  0  0  0  0  0  0  0  0  0  0  0
    5.6021    0.9816    2.8217 H   0  0  0  0  0  0  0  0  0  0  0  0
    3.7269    2.6587    2.7946 H   0  0  0  0  0  0  0  0  0  0  0  0
   -0.9310   -1.0408   -1.3085 H   0  0  0  0  0  0  0  0  0  0  0  0
   -1.5592   -1.6045    0.2492 H   0  0  0  0  0  0  0  0  0  0  0  0
    0.5869   -1.3037    1.3256 H   0  0  0  0  0  0  0  0  0  0  0  0
    1.0261   -2.0049   -0.2430 H   0  0  0  0  0  0  0  0  0  0  0  0
    0.2810    1.9095    0.8730 H   0  0  0  0  0  0  0  0  0  0  0  0
    0.1680    1.8854   -0.8971 H   0  0  0  0  0  0  0  0  0  0  0  0
  -10.7317   -1.9035    4.3553 H   0  0  0  0  0  0  0  0  0  0  0  0
  -10.8045   -3.1117    5.6419 H   0  0  0  0  0  0  0  0  0  0  0  0
   -8.6564   -2.3438    6.5826 H   0  0  0  0  0  0  0  0  0  0  0  0
   -8.3825   -2.3238    4.8280 H   0  0  0  0  0  0  0  0  0  0  0  0
   -8.0449   -0.1067    6.2966 H   0  0  0  0  0  0  0  0  0  0  0  0
   -8.7531   -0.1272    4.6382 H   0  0  0  0  0  0  0  0  0  0  0  0
  -10.0857    0.5277    7.2310 H   0  0  0  0  0  0  0  0  0  0  0  0
   -4.5418    3.3902   -0.2362 H   0  0  0  0  0  0  0  0  0  0  0  0
   -6.3723    0.5958    4.6244 H   0  0  0  0  0  0  0  0  0  0  0  0
   -1.1865   -2.2999    3.8040 H   0  0  0  0  0  0  0  0  0  0  0  0
   -5.5318   -1.0940    5.6833 H   0  0  0  0  0  0  0  0  0  0  0  0
   -1.7981   -3.1319    7.5102 H   0  0  0  0  0  0  0  0  0  0  0  0
   -0.7836   -4.2534    4.9742 H   0  0  0  0  0  0  0  0  0  0  0  0
   -2.2327   -5.5393    7.1600 H   0  0  0  0  0  0  0  0  0  0  0  0
   -4.3095   -3.9371    7.4146 H   0  0  0  0  0  0  0  0  0  0  0  0
   -7.8212    1.5928    5.3623 H   0  0  0  0  0  0  0  0  0  0  0  0
   -9.5710    2.8420    6.3476 H   0  0  0  0  0  0  0  0  0  0  0  0
  -10.1650    3.2983    4.7396 H   0  0  0  0  0  0  0  0  0  0  0  0
  -11.6753    1.6474    5.7163 H   0  0  0  0  0  0  0  0  0  0  0  0
  -10.8844    0.9407    4.3098 H   0  0  0  0  0  0  0  0  0  0  0  0
  -10.2466   -1.8360    8.0484 H   0  0  0  0  0  0  0  0  0  0  0  0
  -11.6828   -0.8297    8.2833 H   0  0  0  0  0  0  0  0  0  0  0  0
  -11.8539   -2.4665    7.6486 H   0  0  0  0  0  0  0  0  0  0  0  0
  1 11  1  0  0  0  0
  1  2  1  0  0  0  0
  1 46  1  0  0  0  0
  2  3  2  0  0  0  0
  3  4  1  0  0  0  0
  3 47  1  0  0  0  0
  4  5  2  0  0  0  0
  5  6  1  0  0  0  0
  5 48  1  0  0  0  0
  6  7  2  0  0  0  0
  6 49  1  0  0  0  0
  7  2  1  0  0  0  0
  8  9  1  0  0  0  0
  9 10  1  0  0  0  0
  9 50  1  0  0  0  0
  9 51  1  0  0  0  0
 10  1  1  0  0  0  0
 10 52  1  0  0  0  0
 10 53  1  0  0  0  0
 11  8  1  0  0  0  0
 11 54  1  0  0  0  0
 11 55  1  0  0  0  0
 12 13  1  0  0  0  0
 12 56  1  0  0  0  0
 12 57  1  0  0  0  0
 13 14  1  0  0  0  0
 13 58  1  0  0  0  0
 13 59  1  0  0  0  0
 14 15  1  0  0  0  0
 14 60  1  0  0  0  0
 14 61  1  0  0  0  0
 15 16  1  0  0  0  0
 15 44  1  0  0  0  0
 15 62  1  1  0  0  0
 16 12  1  0  0  0  0
 16 45  1  0  0  0  0
 17 18  2  0  0  0  0
 17 38  1  0  0  0  0
 18 25  1  0  0  0  0
 18  8  1  0  0  0  0
 19 17  1  0  0  0  0
 19 63  1  0  0  0  0
 20 23  1  0  0  0  0
 20 19  2  0  0  0  0
 20 24  1  0  0  0  0
 21 22  2  0  0  0  0
 21 64  1  0  0  0  0
 22 23  1  0  0  0  0
 22 40  1  0  0  0  0
 23 39  2  0  0  0  0
 24 25  2  0  0  0  0
 24 27  1  0  0  0  0
 25 26  1  0  0  0  0
 26 29  1  0  0  0  0
 27 21  1  0  0  0  0
 28 27  1  0  0  0  0
 28 29  2  0  0  0  0
 29 30  1  0  0  0  0
 30 33  2  0  0  0  0
 30 65  1  0  0  0  0
 31 28  1  0  0  0  0
 31 66  1  0  0  0  0
 32 31  2  0  0  0  0
 32 33  1  0  0  0  0
 33 34  1  0  0  0  0
 34 35  2  0  0  0  0
 34 67  1  0  0  0  0
 35 36  1  0  0  0  0
 35 68  1  0  0  0  0
 36 37  2  0  0  0  0
 36 69  1  0  0  0  0
 37 32  1  0  0  0  0
 37 70  1  0  0  0  0
 40 41  1  0  0  0  0
 40 42  2  0  0  0  0
 41 43  1  0  0  0  0
 41 71  1  0  0  0  0
 43 44  1  0  0  0  0
 43 72  1  0  0  0  0
 43 73  1  0  0  0  0
 44 74  1  0  0  0  0
 44 75  1  0  0  0  0
 45 76  1  0  0  0  0
 45 77  1  0  0  0  0
 45 78  1  0  0  0  0
M  END
>  <DRUGBANK_ID>
DB06638

>  <COMMON_NAME>
Quarfloxin

>  <CAS_NUMBER>
865311-47-3

>  <UNII>
8M31J5031Q

>  <SYNONYMS>
Itarnafloxin; Itarnafloxina; Itarnafloxine; Itarnafloxinum; Quarfloxin

$$$$
