22425
 OpenBabel10282417173D

 53 56  0  0  0  0  0  0  0  0999 V2000
   -0.2025   -2.0989    0.0004 S   0  0  0  0  0  0  0  0  0  0  0  0
    1.8237    1.0868    1.7547 O   0  0  0  0  0  0  0  0  0  0  0  0
    1.3181    3.3105   -0.6667 O   0  0  0  0  0  0  0  0  0  0  0  0
   -0.8991    3.3651   -0.7163 O   0  0  0  0  0  0  0  0  0  0  0  0
    0.9510    4.0321    3.0945 N   0  0  0  0  0  0  0  0  0  0  0  0
   -0.0577    1.0839   -0.8354 N   0  0  0  0  0  0  0  0  0  0  0  0
   -2.4374    1.2968   -0.3072 N   0  0  0  0  0  0  0  0  0  0  0  0
    2.2040    3.6262    2.5506 C   0  0  0  0  0  0  0  0  0  0  0  0
    0.5952    5.2126    2.2898 C   0  0  0  0  0  0  0  0  0  0  0  0
    3.4669    4.4016    2.1597 C   0  0  0  0  0  0  0  0  0  0  0  0
    1.8426    6.1730    2.2593 C   0  0  0  0  0  0  0  0  0  0  0  0
    3.0436    5.6686    1.4692 C   0  0  0  0  0  0  0  0  0  0  0  0
    0.0852    2.7896    2.9650 C   0  0  0  0  0  0  0  0  0  0  0  0
    0.5008    1.6480    1.9549 C   0  0  0  0  0  0  0  0  0  0  0  0
    2.9556    1.7936    1.1168 C   0  0  0  0  0  0  0  0  0  0  0  0
    2.7693    2.9720   -0.2433 C   0  0  0  0  0  0  0  0  0  0  0  0
    1.0597    0.0935   -0.9361 C   0  0  0  0  0  0  0  0  0  0  0  0
   -1.3410    0.5036   -0.4498 C   0  0  0  0  0  0  0  0  0  0  0  0
    1.1895   -1.1794   -0.4556 C   0  0  0  0  0  0  0  0  0  0  0  0
   -1.4630   -0.8750   -0.1984 C   0  0  0  0  0  0  0  0  0  0  0  0
    0.0513    2.6274   -0.8269 C   0  0  0  0  0  0  0  0  0  0  0  0
    2.2881    0.5726   -1.2412 C   0  0  0  0  0  0  0  0  0  0  0  0
    2.4859   -1.7512   -0.1765 C   0  0  0  0  0  0  0  0  0  0  0  0
   -2.7238   -1.4321   -0.0167 C   0  0  0  0  0  0  0  0  0  0  0  0
    3.6004    0.1251   -0.9931 C   0  0  0  0  0  0  0  0  0  0  0  0
    3.6904   -1.0746   -0.3707 C   0  0  0  0  0  0  0  0  0  0  0  0
   -3.8411   -0.6323    0.0119 C   0  0  0  0  0  0  0  0  0  0  0  0
   -3.6473    0.7279   -0.0733 C   0  0  0  0  0  0  0  0  0  0  0  0
    1.8096    3.4250    1.5635 H   0  0  0  0  0  0  0  0  0  0  0  0
    2.4649    2.7713    3.1714 H   0  0  0  0  0  0  0  0  0  0  0  0
   -0.2346    5.7059    2.7915 H   0  0  0  0  0  0  0  0  0  0  0  0
    0.2844    4.9676    1.2623 H   0  0  0  0  0  0  0  0  0  0  0  0
    4.1638    3.8812    1.4766 H   0  0  0  0  0  0  0  0  0  0  0  0
    4.0818    4.5056    3.0433 H   0  0  0  0  0  0  0  0  0  0  0  0
    2.2136    6.2680    3.2870 H   0  0  0  0  0  0  0  0  0  0  0  0
    1.5662    7.1482    1.8763 H   0  0  0  0  0  0  0  0  0  0  0  0
    3.9162    6.3272    1.4605 H   0  0  0  0  0  0  0  0  0  0  0  0
    2.7602    5.5581    0.4112 H   0  0  0  0  0  0  0  0  0  0  0  0
   -0.9499    3.0780    2.7182 H   0  0  0  0  0  0  0  0  0  0  0  0
    0.0526    2.2829    3.9336 H   0  0  0  0  0  0  0  0  0  0  0  0
    0.2808    2.1461    1.0660 H   0  0  0  0  0  0  0  0  0  0  0  0
   -0.2254    0.8216    2.0109 H   0  0  0  0  0  0  0  0  0  0  0  0
    3.7611    1.0749    0.9768 H   0  0  0  0  0  0  0  0  0  0  0  0
    3.5890    2.1587    1.9311 H   0  0  0  0  0  0  0  0  0  0  0  0
    3.2351    2.6640   -1.2008 H   0  0  0  0  0  0  0  0  0  0  0  0
    3.3851    3.8749   -0.2273 H   0  0  0  0  0  0  0  0  0  0  0  0
    2.0391    1.5331   -1.0120 H   0  0  0  0  0  0  0  0  0  0  0  0
    2.5522   -2.7325    0.2742 H   0  0  0  0  0  0  0  0  0  0  0  0
   -2.8160   -2.5094    0.0912 H   0  0  0  0  0  0  0  0  0  0  0  0
    4.4282    0.8463   -0.8754 H   0  0  0  0  0  0  0  0  0  0  0  0
    4.6383   -1.4014    0.0503 H   0  0  0  0  0  0  0  0  0  0  0  0
   -4.8199   -1.0813    0.1041 H   0  0  0  0  0  0  0  0  0  0  0  0
   -4.4900    1.4091    0.0165 H   0  0  0  0  0  0  0  0  0  0  0  0
  1 19  1  0  0  0  0
  1 20  1  0  0  0  0
  2 14  1  0  0  0  0
  2 15  1  0  0  0  0
  3 16  1  0  0  0  0
  3 21  1  0  0  0  0
  4 21  2  0  0  0  0
  5  8  1  0  0  0  0
  5  9  1  0  0  0  0
  5 13  1  0  0  0  0
  6 17  1  0  0  0  0
  6 18  1  0  0  0  0
  6 21  1  0  0  0  0
  7 18  1  0  0  0  0
  7 28  2  0  0  0  0
  8 10  1  0  0  0  0
  8 29  1  0  0  0  0
  8 30  1  0  0  0  0
  9 11  1  0  0  0  0
  9 31  1  0  0  0  0
  9 32  1  0  0  0  0
 10 12  1  0  0  0  0
 10 33  1  0  0  0  0
 10 34  1  0  0  0  0
 11 12  1  0  0  0  0
 11 35  1  0  0  0  0
 11 36  1  0  0  0  0
 12 37  1  0  0  0  0
 12 38  1  0  0  0  0
 13 14  1  0  0  0  0
 13 39  1  0  0  0  0
 13 40  1  0  0  0  0
 14 41  1  0  0  0  0
 14 42  1  0  0  0  0
 15 16  1  0  0  0  0
 15 43  1  0  0  0  0
 15 44  1  0  0  0  0
 16 45  1  0  0  0  0
 16 46  1  0  0  0  0
 17 19  1  0  0  0  0
 17 22  2  0  0  0  0
 18 20  2  0  0  0  0
 19 23  2  0  0  0  0
 20 24  1  0  0  0  0
 22 25  1  0  0  0  0
 22 47  1  0  0  0  0
 23 26  1  0  0  0  0
 23 48  1  0  0  0  0
 24 27  2  0  0  0  0
 24 49  1  0  0  0  0
 25 26  2  0  0  0  0
 25 50  1  0  0  0  0
 26 51  1  0  0  0  0
 27 28  1  0  0  0  0
 27 52  1  0  0  0  0
 28 53  1  0  0  0  0
M  END
>  <DRUGBANK_ID>
DB08796

>  <COMMON_NAME>
Pipazethate

>  <CAS_NUMBER>
2167-85-3

>  <UNII>
M5EK1T5V2L

>  <SYNONYMS>
Pipazetate; Pipazetato; Pipazetatum; Pipazethate

$$$$
