
 OpenBabel10282417133D

 41 44  0  0  1  0  0  0  0  0999 V2000
    0.9319   -0.0723   -0.0119 N   0  0  0  0  0  0  0  0  0  0  0  0
    0.1969   -0.9055    0.9506 C   0  0  0  0  0  0  0  0  0  0  0  0
    0.5249   -0.9868    2.2963 N   0  0  0  0  0  0  0  0  0  0  0  0
   -0.1423   -1.9117    3.0862 C   0  0  0  0  0  0  0  0  0  0  0  0
   -1.1100   -2.7133    2.5122 C   0  0  0  0  0  0  0  0  0  0  0  0
   -1.8230   -3.6969    3.3398 N   0  0  0  0  0  0  0  0  0  0  0  0
   -2.8543   -4.5543    2.7378 C   0  0  2  0  0  0  0  0  0  0  0  0
   -2.3231   -5.3018    1.7502 C   0  0  2  0  0  0  0  0  0  0  0  0
    0.1765   -2.0372    4.5157 N   0  0  0  0  0  0  0  0  0  0  0  0
   -2.9124   -5.3597    0.5423 O   0  0  0  0  0  0  0  0  0  0  0  0
   -4.0378   -4.6692    0.2823 C   0  0  1  0  0  0  0  0  0  0  0  0
   -5.0863   -5.6856   -0.1397 C   0  0  0  0  0  0  0  0  0  0  0  0
   -5.8818   -4.9988   -1.0947 O   0  0  0  0  0  0  0  0  0  0  0  0
   -6.4041   -3.4889   -0.4311 P   0  0  0  0  0  0  0  0  0  0  0  0
   -7.7870   -4.2692    0.2557 O   0  0  0  0  0  0  0  0  0  0  0  0
   -4.9344   -3.3785    0.4747 O   0  0  0  0  0  0  0  0  0  0  0  0
   -6.8717   -2.1376    0.1627 O   0  0  0  0  0  0  0  0  0  0  0  0
   -4.6152   -3.8867    1.2597 C   0  0  0  0  0  0  0  0  0  0  0  0
   -4.0316   -3.8210    2.4941 C   0  0  0  0  0  0  0  0  0  0  0  0
   -4.8065   -2.9666    3.2957 S   0  0  0  0  0  0  0  0  0  0  0  0
   -5.8638   -2.5228    2.5201 Mo  0  0  0  0  0  0  0  0  0  0  0  0
   -4.2001   -1.3235    0.9384 S   0  0  0  0  0  0  0  0  0  0  0  0
   -6.3876   -4.3878    2.1671 O   0  0  0  0  0  0  0  0  0  0  0  0
   -6.6048   -1.5696    4.0755 O   0  0  0  0  0  0  0  0  0  0  0  0
   -5.7360   -3.0969    1.2651 S   0  0  0  0  0  0  0  0  0  0  0  0
   -1.4024   -2.6061    1.2269 C   0  0  0  0  0  0  0  0  0  0  0  0
   -2.3021   -3.3545    0.7312 O   0  0  0  0  0  0  0  0  0  0  0  0
   -0.7808   -1.7382    0.4441 N   0  0  0  0  0  0  0  0  0  0  0  0
    0.4219    0.5059   -0.6798 H   0  0  0  0  0  0  0  0  0  0  0  0
    1.9519   -0.0723   -0.0119 H   0  0  0  0  0  0  0  0  0  0  0  0
   -1.6022   -3.7846    4.3317 H   0  0  0  0  0  0  0  0  0  0  0  0
   -3.2085   -5.3034    3.4147 H   0  0  0  0  0  0  0  0  0  0  0  0
   -1.3306   -4.9357    1.5893 H   0  0  0  0  0  0  0  0  0  0  0  0
    0.8922   -1.4421    4.9328 H   0  0  0  0  0  0  0  0  0  0  0  0
   -3.7202   -3.9527   -0.4462 H   0  0  0  0  0  0  0  0  0  0  0  0
   -4.7632   -6.6194   -0.5501 H   0  0  0  0  0  0  0  0  0  0  0  0
   -5.6638   -5.8647    0.7430 H   0  0  0  0  0  0  0  0  0  0  0  0
   -8.5432   -4.2435   -0.3981 H   0  0  0  0  0  0  0  0  0  0  0  0
   -4.3665   -4.1801    0.2876 H   0  0  0  0  0  0  0  0  0  0  0  0
   -3.9906   -0.0540    1.3790 H   0  0  0  0  0  0  0  0  0  0  0  0
   -1.0270   -1.6841   -0.5443 H   0  0  0  0  0  0  0  0  0  0  0  0
  1  2  1  0  0  0  0
  1 29  1  0  0  0  0
  1 30  1  0  0  0  0
  2  3  2  0  0  0  0
  2 28  1  0  0  0  0
  3  4  1  0  0  0  0
  4  5  2  0  0  0  0
  4  9  1  0  0  0  0
  5  6  1  0  0  0  0
  5 26  1  0  0  0  0
  6 31  1  0  0  0  0
  7  6  1  0  0  0  0
  7  8  1  0  0  0  0
  7 19  1  0  0  0  0
  7 32  1  1  0  0  0
  8  9  1  0  0  0  0
  8 10  1  0  0  0  0
  8 33  1  1  0  0  0
  9 34  1  0  0  0  0
 10 11  1  0  0  0  0
 11 18  1  0  0  0  0
 11 35  1  6  0  0  0
 11 12  1  0  0  0  0
 12 13  1  0  0  0  0
 12 36  1  0  0  0  0
 12 37  1  0  0  0  0
 13 14  1  0  0  0  0
 14 15  1  0  0  0  0
 14 16  1  0  0  0  0
 14 17  2  0  0  0  0
 15 38  1  0  0  0  0
 16 39  1  0  0  0  0
 18 19  2  0  0  0  0
 18 25  1  0  0  0  0
 19 20  1  0  0  0  0
 20 21  1  0  0  0  0
 21 22  1  0  0  0  0
 21 23  2  0  0  0  0
 21 24  2  0  0  0  0
 21 25  1  0  0  0  0
 22 40  1  0  0  0  0
 26 27  2  0  0  0  0
 26 28  1  0  0  0  0
 28 41  1  0  0  0  0
M  END
>  <DRUGBANK_ID>
DB03983

>  <SECONDARY_ACCESSION_NUMBERS>
EXPT02249

>  <COMMON_NAME>
{[2-Amino-4-oxo-6,7-di(sulfanyl-ÎºS)-3,5,5a,8,9a,10-hexahydro-4H-pyrano[3,2-g]pteridin-8-yl]methyl dihydrogenato(2-) phosphate}(dioxo)sulfanylmolybdenum

>  <SYNONYMS>
(Molybdopterin-S,S)-dioxo-thio-molybdenum(V)

$$$$
