
 OpenBabel10282417203D

 18 19  0  0  0  0  0  0  0  0999 V2000
    1.0472    0.1009    0.1131 O   0  0  0  0  0  0  0  0  0  0  0  0
    0.4057    1.1594   -0.4983 C   0  0  0  0  0  0  0  0  0  0  0  0
    0.8995    1.6797   -1.6979 C   0  0  0  0  0  0  0  0  0  0  0  0
    2.4207    0.9325   -2.5465 Br  0  0  0  0  0  0  0  0  0  0  0  0
    0.2595    2.7496   -2.3118 C   0  0  0  0  0  0  0  0  0  0  0  0
   -0.8740    3.2978   -1.7178 C   0  0  0  0  0  0  0  0  0  0  0  0
   -1.7054    4.7402   -2.6503 Br  0  0  0  0  0  0  0  0  0  0  0  0
   -1.4106    2.7554   -0.5284 C   0  0  0  0  0  0  0  0  0  0  0  0
   -2.6143    3.1972    0.0501 C   0  0  0  0  0  0  0  0  0  0  0  0
   -3.1962    2.4970    1.0923 C   0  0  0  0  0  0  0  0  0  0  0  0
   -2.4574    1.4930    1.6771 C   0  0  0  0  0  0  0  0  0  0  0  0
   -1.2523    1.0985    1.2220 N   0  0  0  0  0  0  0  0  0  0  0  0
   -0.7569    1.6619    0.0992 C   0  0  0  0  0  0  0  0  0  0  0  0
    1.9630    0.0699   -0.2104 H   0  0  0  0  0  0  0  0  0  0  0  0
    0.6234    3.1410   -3.2576 H   0  0  0  0  0  0  0  0  0  0  0  0
   -3.1406    4.0681   -0.3344 H   0  0  0  0  0  0  0  0  0  0  0  0
   -4.1996    2.7265    1.4282 H   0  0  0  0  0  0  0  0  0  0  0  0
   -2.8255    0.9612    2.5477 H   0  0  0  0  0  0  0  0  0  0  0  0
  1  2  1  0  0  0  0
  1 14  1  0  0  0  0
  2  3  1  0  0  0  0
  2 13  2  0  0  0  0
  3  4  1  0  0  0  0
  3  5  2  0  0  0  0
  5  6  1  0  0  0  0
  5 15  1  0  0  0  0
  6  7  1  0  0  0  0
  6  8  2  0  0  0  0
  8  9  1  0  0  0  0
  8 13  1  0  0  0  0
  9 10  2  0  0  0  0
  9 16  1  0  0  0  0
 10 11  1  0  0  0  0
 10 17  1  0  0  0  0
 11 12  2  0  0  0  0
 11 18  1  0  0  0  0
 12 13  1  0  0  0  0
M  END
>  <DRUGBANK_ID>
DB13536

>  <COMMON_NAME>
Broxyquinoline

>  <CAS_NUMBER>
521-74-4

>  <UNII>
UK4C618C8T

>  <SYNONYMS>
Broxyquinoline

$$$$
