AAP
 OpenBabel10282417163D

 39 40  0  0  0  0  0  0  0  0999 V2000
   -0.6204    1.2789   -0.9694 C   0  0  0  0  0  0  0  0  0  0  0  0
    0.1594    0.9995    0.3877 C   0  0  2  0  0  0  0  0  0  0  0  0
   -0.2171    2.0324   -1.8610 O   0  0  0  0  0  0  0  0  0  0  0  0
   -1.8014    0.6483   -1.2173 N   0  0  0  0  0  0  0  0  0  0  0  0
    1.2349   -0.0197    0.1640 C   0  0  0  0  0  0  0  0  0  0  0  0
    0.9467   -1.3567   -0.1227 C   0  0  0  0  0  0  0  0  0  0  0  0
    1.9783   -2.2360   -0.4433 C   0  0  0  0  0  0  0  0  0  0  0  0
    3.3033   -1.8011   -0.4610 C   0  0  0  0  0  0  0  0  0  0  0  0
    3.6091   -0.4761   -0.1994 C   0  0  0  0  0  0  0  0  0  0  0  0
    2.5889    0.4156    0.0871 C   0  0  0  0  0  0  0  0  0  0  0  0
   -0.6604   -1.9930   -0.1212 Cl  0  0  0  0  0  0  0  0  0  0  0  0
    3.1285    2.0577    0.3091 Cl  0  0  0  0  0  0  0  0  0  0  0  0
   -0.6510    0.9442    1.6165 N   0  0  0  0  0  0  0  0  0  0  0  0
   -0.4835    1.8303    2.7077 C   0  0  0  0  0  0  0  0  0  0  0  0
   -0.2071    3.2410    2.6952 C   0  0  0  0  0  0  0  0  0  0  0  0
   -0.1117    3.9454    3.9209 C   0  0  0  0  0  0  0  0  0  0  0  0
   -0.2206    3.3241    5.1520 C   0  0  0  0  0  0  0  0  0  0  0  0
   -0.4019    1.9498    5.2043 C   0  0  0  0  0  0  0  0  0  0  0  0
   -0.5321    1.2229    3.9980 C   0  0  0  0  0  0  0  0  0  0  0  0
   -0.0557    4.2152    1.5462 C   0  0  0  0  0  0  0  0  0  0  0  0
    0.2491    5.4098    1.7408 O   0  0  0  0  0  0  0  0  0  0  0  0
   -0.2610    3.8038    0.1588 C   0  0  0  0  0  0  0  0  0  0  0  0
   -0.4640    1.2924    6.5526 C   0  0  0  0  0  0  0  0  0  0  0  0
    0.7704    1.8288    0.6534 H   0  0  0  0  0  0  0  0  0  0  0  0
   -1.8699   -0.3245   -0.9501 H   0  0  0  0  0  0  0  0  0  0  0  0
   -2.1651    0.8657   -2.1416 H   0  0  0  0  0  0  0  0  0  0  0  0
    1.7543   -3.2722   -0.6796 H   0  0  0  0  0  0  0  0  0  0  0  0
    4.1069   -2.4937   -0.6821 H   0  0  0  0  0  0  0  0  0  0  0  0
    4.6381   -0.1254   -0.2226 H   0  0  0  0  0  0  0  0  0  0  0  0
   -1.3454    0.2096    1.6999 H   0  0  0  0  0  0  0  0  0  0  0  0
    0.0380    5.0269    3.9195 H   0  0  0  0  0  0  0  0  0  0  0  0
   -0.1539    3.9276    6.0552 H   0  0  0  0  0  0  0  0  0  0  0  0
   -0.6508    0.1416    4.0745 H   0  0  0  0  0  0  0  0  0  0  0  0
    0.6655    3.3387   -0.1718 H   0  0  0  0  0  0  0  0  0  0  0  0
   -1.1792    3.2154    0.1457 H   0  0  0  0  0  0  0  0  0  0  0  0
   -0.3667    4.6103   -0.5576 H   0  0  0  0  0  0  0  0  0  0  0  0
    0.4544    1.4946    7.1168 H   0  0  0  0  0  0  0  0  0  0  0  0
   -1.3160    1.6830    7.1201 H   0  0  0  0  0  0  0  0  0  0  0  0
   -0.5765    0.2089    6.4681 H   0  0  0  0  0  0  0  0  0  0  0  0
  1  3  2  0  0  0  0
  1  4  1  0  0  0  0
  2 13  1  0  0  0  0
  2 24  1  1  0  0  0
  2  5  1  0  0  0  0
  2  1  1  0  0  0  0
  4 25  1  0  0  0  0
  4 26  1  0  0  0  0
  5  6  2  0  0  0  0
  5 10  1  0  0  0  0
  6  7  1  0  0  0  0
  6 11  1  0  0  0  0
  7  8  2  0  0  0  0
  7 27  1  0  0  0  0
  8  9  1  0  0  0  0
  8 28  1  0  0  0  0
  9 10  2  0  0  0  0
  9 29  1  0  0  0  0
 10 12  1  0  0  0  0
 13 14  1  0  0  0  0
 13 30  1  0  0  0  0
 14 15  2  0  0  0  0
 14 19  1  0  0  0  0
 15 16  1  0  0  0  0
 15 20  1  0  0  0  0
 16 17  2  0  0  0  0
 16 31  1  0  0  0  0
 17 18  1  0  0  0  0
 17 32  1  0  0  0  0
 18 19  2  0  0  0  0
 18 23  1  0  0  0  0
 19 33  1  0  0  0  0
 20 21  2  0  0  0  0
 20 22  1  0  0  0  0
 22 34  1  0  0  0  0
 22 35  1  0  0  0  0
 22 36  1  0  0  0  0
 23 37  1  0  0  0  0
 23 38  1  0  0  0  0
 23 39  1  0  0  0  0
M  END
>  <DRUGBANK_ID>
DB07332

>  <COMMON_NAME>
ALPHA-(2,6-DICHLOROPHENYL)-ALPHA-(2-ACETYL-5-METHYLANILINO)ACETAMIDE

$$$$
