
 OpenBabel10282417233D

 54 55  0  0  0  0  0  0  0  0999 V2000
    0.9008    0.1262   -0.0386 C   0  0  0  0  0  0  0  0  0  0  0  0
    0.3223   -1.2763   -0.2363 C   0  0  0  0  0  0  0  0  0  0  0  0
    0.9444   -2.3206    0.5884 N   0  0  0  0  0  0  0  0  0  0  0  0
    0.4252   -3.6676    0.2922 C   0  0  0  0  0  0  0  0  0  0  0  0
    0.7181   -4.2730   -1.0844 C   0  0  0  0  0  0  0  0  0  0  0  0
    2.4057   -2.2723    0.6474 C   0  0  0  0  0  0  0  0  0  0  0  0
    3.1676   -2.5194   -0.6466 C   0  0  0  0  0  0  0  0  0  0  0  0
    2.7519   -1.7452   -1.8110 N   0  0  0  0  0  0  0  0  0  0  0  0
    3.5492   -1.0592   -2.6528 C   0  0  0  0  0  0  0  0  0  0  0  0
    3.0848   -0.2721   -3.4870 O   0  0  0  0  0  0  0  0  0  0  0  0
    4.9849   -1.2325   -2.4857 C   0  0  0  0  0  0  0  0  0  0  0  0
    5.6037   -2.5003   -2.3956 C   0  0  0  0  0  0  0  0  0  0  0  0
    4.8004   -3.5847   -2.6255 O   0  0  0  0  0  0  0  0  0  0  0  0
    5.2641   -4.8733   -2.2547 C   0  0  0  0  0  0  0  0  0  0  0  0
    6.9577   -2.5629   -2.0569 C   0  0  0  0  0  0  0  0  0  0  0  0
    7.6849   -1.3739   -1.9177 C   0  0  0  0  0  0  0  0  0  0  0  0
    8.9547   -1.4042   -1.2905 N   0  0  0  0  0  0  0  0  0  0  0  0
    9.7438   -0.3737   -0.7748 C   0  0  0  0  0  0  0  0  0  0  0  0
   10.9026   -0.6233   -0.4428 O   0  0  0  0  0  0  0  0  0  0  0  0
    9.2386    1.0338   -0.6335 C   0  0  0  0  0  0  0  0  0  0  0  0
    7.9497    1.3105   -0.1522 C   0  0  0  0  0  0  0  0  0  0  0  0
    7.3245    2.5131   -0.5151 C   0  0  0  0  0  0  0  0  0  0  0  0
    8.0480    3.5010   -1.1742 C   0  0  0  0  0  0  0  0  0  0  0  0
    7.4063    4.5700   -1.6664 F   0  0  0  0  0  0  0  0  0  0  0  0
    9.3978    3.3224   -1.4549 C   0  0  0  0  0  0  0  0  0  0  0  0
    9.9877    2.0707   -1.2203 C   0  0  0  0  0  0  0  0  0  0  0  0
    7.0800   -0.2018   -2.3840 C   0  0  0  0  0  0  0  0  0  0  0  0
    8.0384    0.9459   -3.9260 I   0  0  0  0  0  0  0  0  0  0  0  0
    5.7118   -0.0670   -2.4523 C   0  0  0  0  0  0  0  0  0  0  0  0
    0.6321    0.5117    0.9473 H   0  0  0  0  0  0  0  0  0  0  0  0
    0.5161    0.8005   -0.8089 H   0  0  0  0  0  0  0  0  0  0  0  0
    1.9910    0.1760   -0.1307 H   0  0  0  0  0  0  0  0  0  0  0  0
   -0.7540   -1.2419   -0.0418 H   0  0  0  0  0  0  0  0  0  0  0  0
    0.3624   -1.5234   -1.2932 H   0  0  0  0  0  0  0  0  0  0  0  0
    0.7981   -4.3598    1.0589 H   0  0  0  0  0  0  0  0  0  0  0  0
   -0.6616   -3.6454    0.4228 H   0  0  0  0  0  0  0  0  0  0  0  0
    1.7347   -4.6520   -1.1672 H   0  0  0  0  0  0  0  0  0  0  0  0
    0.1067   -5.1580   -1.2627 H   0  0  0  0  0  0  0  0  0  0  0  0
    0.5352   -3.5687   -1.8995 H   0  0  0  0  0  0  0  0  0  0  0  0
    2.7492   -1.3150    1.0592 H   0  0  0  0  0  0  0  0  0  0  0  0
    2.7672   -2.9995    1.3872 H   0  0  0  0  0  0  0  0  0  0  0  0
    4.2087   -2.3236   -0.3994 H   0  0  0  0  0  0  0  0  0  0  0  0
    3.1458   -3.5643   -0.9253 H   0  0  0  0  0  0  0  0  0  0  0  0
    1.8197   -1.8073   -2.1890 H   0  0  0  0  0  0  0  0  0  0  0  0
    5.9991   -5.2075   -2.9868 H   0  0  0  0  0  0  0  0  0  0  0  0
    5.6633   -4.8954   -1.2346 H   0  0  0  0  0  0  0  0  0  0  0  0
    4.4102   -5.5606   -2.2808 H   0  0  0  0  0  0  0  0  0  0  0  0
    7.4444   -3.5240   -1.9332 H   0  0  0  0  0  0  0  0  0  0  0  0
    9.3835   -2.3156   -1.1559 H   0  0  0  0  0  0  0  0  0  0  0  0
    7.3569    0.5292    0.3168 H   0  0  0  0  0  0  0  0  0  0  0  0
    6.2471    2.6259   -0.4188 H   0  0  0  0  0  0  0  0  0  0  0  0
    9.9340    4.1014   -1.9892 H   0  0  0  0  0  0  0  0  0  0  0  0
   10.9681    1.8641   -1.6460 H   0  0  0  0  0  0  0  0  0  0  0  0
    5.2319    0.8882   -2.6476 H   0  0  0  0  0  0  0  0  0  0  0  0
  1  2  1  0  0  0  0
  1 30  1  0  0  0  0
  1 31  1  0  0  0  0
  1 32  1  0  0  0  0
  2  3  1  0  0  0  0
  2 33  1  0  0  0  0
  2 34  1  0  0  0  0
  3  4  1  0  0  0  0
  3  6  1  0  0  0  0
  4  5  1  0  0  0  0
  4 35  1  0  0  0  0
  4 36  1  0  0  0  0
  5 37  1  0  0  0  0
  5 38  1  0  0  0  0
  5 39  1  0  0  0  0
  6  7  1  0  0  0  0
  6 40  1  0  0  0  0
  6 41  1  0  0  0  0
  7  8  1  0  0  0  0
  7 42  1  0  0  0  0
  7 43  1  0  0  0  0
  8  9  1  0  0  0  0
  8 44  1  0  0  0  0
  9 10  2  0  0  0  0
  9 11  1  0  0  0  0
 11 12  2  0  0  0  0
 11 29  1  0  0  0  0
 12 13  1  0  0  0  0
 12 15  1  0  0  0  0
 13 14  1  0  0  0  0
 14 45  1  0  0  0  0
 14 46  1  0  0  0  0
 14 47  1  0  0  0  0
 15 16  2  0  0  0  0
 15 48  1  0  0  0  0
 16 17  1  0  0  0  0
 16 27  1  0  0  0  0
 17 18  1  0  0  0  0
 17 49  1  0  0  0  0
 18 19  2  0  0  0  0
 18 20  1  0  0  0  0
 20 21  2  0  0  0  0
 20 26  1  0  0  0  0
 21 22  1  0  0  0  0
 21 50  1  0  0  0  0
 22 23  2  0  0  0  0
 22 51  1  0  0  0  0
 23 24  1  0  0  0  0
 23 25  1  0  0  0  0
 25 26  2  0  0  0  0
 25 52  1  0  0  0  0
 26 53  1  0  0  0  0
 27 28  1  0  0  0  0
 27 29  2  0  0  0  0
 29 54  1  0  0  0  0
M  ISO  1  28 131
M  END
>  <DRUGBANK_ID>
DB17102

>  <COMMON_NAME>
Ioflubenzamide I-131

>  <CAS_NUMBER>
1214283-52-9

>  <UNII>
65O1D58Z6V

>  <SYNONYMS>
(131i)-n-(2-(diethylamino) ethyl-4-(4 flurobenzamido)-5-(iodo)-2-methoxybenzamide; [131I]-N-(2-(diethylamino) ethyl-4-(4 flurobenzamido)-5-(iodo)-2-methoxybenzamide; Benzamide, n-(2-(diethylamino)ethyl)-4-((4-fluorobenzoyl)amino)-5-(iodo-131i)-2-methoxy-; Ioflubenzamide (131 i); Ioflubenzamide (131i); Ioflubenzamide i 131; Ioflubenzamide, I-131; N-(2-(diethylamino)ethyl)-4-((4-fluorobenzoyl)amino)-5-((sup 131)i)iodo-2-methoxybenzamide; N-(2-(diethylamino)ethyl)-4-((4-fluorobenzoyl)amino)-5-(iodo-131i)-2-methoxybenzamide

$$$$
