
 OpenBabel10282417223D

 47 49  0  0  1  0  0  0  0  0999 V2000
    1.3699   -5.4885   -3.5343 C   0  0  0  0  0  0  0  0  0  0  0  0
    0.4155   -4.2950   -3.5451 C   0  0  2  0  0  0  0  0  0  0  0  0
   -0.3589   -4.2333   -4.8626 C   0  0  0  0  0  0  0  0  0  0  0  0
    0.5977   -3.4889   -5.7868 C   0  0  0  0  0  0  0  0  0  0  0  0
    1.2366   -2.4547   -4.8619 C   0  0  0  0  0  0  0  0  0  0  0  0
    1.1455   -3.0262   -3.5178 N   0  0  0  0  0  0  0  0  0  0  0  0
    1.7188   -2.3926   -2.4246 C   0  0  0  0  0  0  0  0  0  0  0  0
    2.3386   -1.3329   -2.5454 O   0  0  0  0  0  0  0  0  0  0  0  0
    1.4798   -3.0087   -1.0187 C   0  0  2  0  0  0  0  0  0  0  0  0
    0.1095   -2.5523   -0.4814 C   0  0  0  0  0  0  0  0  0  0  0  0
    0.0847   -2.1281    0.9509 C   0  0  0  0  0  0  0  0  0  0  0  0
    0.1103   -0.8230    1.4029 C   0  0  0  0  0  0  0  0  0  0  0  0
    0.1411   -0.7835    3.1132 S   0  0  0  0  0  0  0  0  0  0  0  0
    0.0868   -2.4940    3.1286 C   0  0  0  0  0  0  0  0  0  0  0  0
    0.0237   -3.0837    1.9503 N   0  0  0  0  0  0  0  0  0  0  0  0
    2.6164   -2.7215   -0.1249 N   0  0  0  0  0  0  0  0  0  0  0  0
    3.4834   -3.6101    0.4640 C   0  0  0  0  0  0  0  0  0  0  0  0
    4.3777   -3.1948    1.2000 O   0  0  0  0  0  0  0  0  0  0  0  0
    3.2074   -5.1068    0.2726 C   0  0  1  0  0  0  0  0  0  0  0  0
    4.2228   -6.0721    0.5545 N   0  0  0  0  0  0  0  0  0  0  0  0
    3.6525   -7.2128    1.0580 C   0  0  0  0  0  0  0  0  0  0  0  0
    4.2156   -8.2726    1.2327 O   0  0  0  0  0  0  0  0  0  0  0  0
    2.3237   -6.9895    1.3049 O   0  0  0  0  0  0  0  0  0  0  0  0
    2.1088   -5.5713    1.2160 C   0  0  1  0  0  0  0  0  0  0  0  0
    2.2417   -4.9955    2.6252 C   0  0  0  0  0  0  0  0  0  0  0  0
    2.0137   -5.5040   -4.4193 H   0  0  0  0  0  0  0  0  0  0  0  0
    2.0356   -5.4668   -2.6726 H   0  0  0  0  0  0  0  0  0  0  0  0
    0.8079   -6.4265   -3.5038 H   0  0  0  0  0  0  0  0  0  0  0  0
   -0.2656   -4.3594   -2.6924 H   0  0  0  0  0  0  0  0  0  0  0  0
   -0.6431   -5.2187   -5.2438 H   0  0  0  0  0  0  0  0  0  0  0  0
   -1.2728   -3.6404   -4.7341 H   0  0  0  0  0  0  0  0  0  0  0  0
    1.3580   -4.1756   -6.1785 H   0  0  0  0  0  0  0  0  0  0  0  0
    0.0896   -3.0373   -6.6434 H   0  0  0  0  0  0  0  0  0  0  0  0
    2.2785   -2.2479   -5.1264 H   0  0  0  0  0  0  0  0  0  0  0  0
    0.6737   -1.5154   -4.8792 H   0  0  0  0  0  0  0  0  0  0  0  0
    1.4246   -4.0850   -1.1398 H   0  0  0  0  0  0  0  0  0  0  0  0
   -0.2880   -1.7359   -1.0952 H   0  0  0  0  0  0  0  0  0  0  0  0
   -0.6017   -3.3804   -0.6032 H   0  0  0  0  0  0  0  0  0  0  0  0
    0.1299    0.0821    0.8146 H   0  0  0  0  0  0  0  0  0  0  0  0
    0.1351   -3.0521    4.0567 H   0  0  0  0  0  0  0  0  0  0  0  0
    2.8119   -1.7469    0.0859 H   0  0  0  0  0  0  0  0  0  0  0  0
    2.9709   -5.2868   -0.7775 H   0  0  0  0  0  0  0  0  0  0  0  0
    5.1650   -6.0808    0.1896 H   0  0  0  0  0  0  0  0  0  0  0  0
    1.1108   -5.3830    0.8074 H   0  0  0  0  0  0  0  0  0  0  0  0
    2.1989   -3.9071    2.6186 H   0  0  0  0  0  0  0  0  0  0  0  0
    1.4452   -5.3750    3.2703 H   0  0  0  0  0  0  0  0  0  0  0  0
    3.1959   -5.2643    3.0880 H   0  0  0  0  0  0  0  0  0  0  0  0
  1 26  1  0  0  0  0
  1 27  1  0  0  0  0
  1 28  1  0  0  0  0
  2  1  1  0  0  0  0
  2  3  1  0  0  0  0
  2  6  1  0  0  0  0
  2 29  1  1  0  0  0
  3  4  1  0  0  0  0
  3 30  1  0  0  0  0
  3 31  1  0  0  0  0
  4  5  1  0  0  0  0
  4 32  1  0  0  0  0
  4 33  1  0  0  0  0
  5  6  1  0  0  0  0
  5 34  1  0  0  0  0
  5 35  1  0  0  0  0
  6  7  1  0  0  0  0
  7  8  2  0  0  0  0
  9 16  1  0  0  0  0
  9 36  1  6  0  0  0
  9 10  1  0  0  0  0
  9  7  1  0  0  0  0
 10 11  1  0  0  0  0
 10 37  1  0  0  0  0
 10 38  1  0  0  0  0
 11 12  2  0  0  0  0
 11 15  1  0  0  0  0
 12 13  1  0  0  0  0
 12 39  1  0  0  0  0
 13 14  1  0  0  0  0
 14 15  2  0  0  0  0
 14 40  1  0  0  0  0
 16 17  1  0  0  0  0
 16 41  1  0  0  0  0
 17 18  2  0  0  0  0
 19 17  1  0  0  0  0
 19 20  1  0  0  0  0
 19 24  1  0  0  0  0
 19 42  1  6  0  0  0
 20 21  1  0  0  0  0
 20 43  1  0  0  0  0
 21 22  2  0  0  0  0
 21 23  1  0  0  0  0
 24 23  1  0  0  0  0
 24 25  1  0  0  0  0
 24 44  1  6  0  0  0
 25 45  1  0  0  0  0
 25 46  1  0  0  0  0
 25 47  1  0  0  0  0
M  END
>  <DRUGBANK_ID>
DB15338

>  <COMMON_NAME>
Rovatirelin

>  <CAS_NUMBER>
204386-76-5

>  <UNII>
9DL0X410PY

>  <SYNONYMS>
Rovatirelin

$$$$
