
 OpenBabel10282417103D

 76 79  0  0  0  0  0  0  0  0999 V2000
    1.2902   -0.5060    0.7897 C   0  0  0  0  0  0  0  0  0  0  0  0
    0.3786   -1.5434    0.6678 C   0  0  0  0  0  0  0  0  0  0  0  0
   -0.9818   -1.2440    0.5565 C   0  0  0  0  0  0  0  0  0  0  0  0
   -1.4362    0.0862    0.4911 C   0  0  0  0  0  0  0  0  0  0  0  0
   -0.5261    1.1633    0.5575 C   0  0  0  0  0  0  0  0  0  0  0  0
    0.8208    0.7980    0.7695 C   0  0  0  0  0  0  0  0  0  0  0  0
    0.8469    3.5336    2.0470 C   0  0  0  0  0  0  0  0  0  0  0  0
   -0.5184    3.2864    1.8047 C   0  0  0  0  0  0  0  0  0  0  0  0
   -0.9764    2.6490    0.4704 C   0  0  0  0  0  0  0  0  0  0  0  0
    1.3520    3.8481    3.2968 C   0  0  0  0  0  0  0  0  0  0  0  0
    0.4712    3.9553    4.3546 C   0  0  0  0  0  0  0  0  0  0  0  0
   -0.8932    3.7688    4.1495 C   0  0  0  0  0  0  0  0  0  0  0  0
   -1.3907    3.4163    2.8919 C   0  0  0  0  0  0  0  0  0  0  0  0
   -0.6349    3.6147   -0.7838 C   0  0  3  0  0  0  0  0  0  0  0  0
   -1.3170    3.2412   -2.1243 C   0  0  0  0  0  0  0  0  0  0  0  0
   -0.5931    2.0712   -2.7612 C   0  0  0  0  0  0  0  0  0  0  0  0
    0.8526    2.2174   -2.9875 N   0  0  0  0  0  0  0  0  0  0  0  0
    1.5181    2.7094   -1.7856 C   0  0  0  0  0  0  0  0  0  0  0  0
    0.8319    3.9037   -1.1514 C   0  0  0  0  0  0  0  0  0  0  0  0
   -2.4301    2.6195    0.4652 O   0  0  0  0  0  0  0  0  0  0  0  0
    1.5055    0.9500   -3.4056 C   0  0  0  0  0  0  0  0  0  0  0  0
    1.4143   -0.2717   -2.4727 C   0  0  0  0  0  0  0  0  0  0  0  0
    0.0205   -0.8798   -2.3042 C   0  0  0  0  0  0  0  0  0  0  0  0
   -0.8328   -1.1208   -3.5377 C   0  0  3  0  0  0  0  0  0  0  0  0
   -0.2650   -2.3906   -4.0676 C   0  0  0  0  0  0  0  0  0  0  0  0
   -2.2029   -1.2507   -3.1514 O   0  0  0  0  0  0  0  0  0  0  0  0
    1.0217   -2.3489   -4.6195 C   0  0  0  0  0  0  0  0  0  0  0  0
    1.7521   -3.4856   -4.7765 C   0  0  0  0  0  0  0  0  0  0  0  0
    1.1628   -4.7278   -4.5161 C   0  0  0  0  0  0  0  0  0  0  0  0
   -0.1141   -4.7656   -3.9260 C   0  0  0  0  0  0  0  0  0  0  0  0
   -0.8320   -3.6198   -3.7204 C   0  0  0  0  0  0  0  0  0  0  0  0
    1.8035   -6.0079   -5.0058 C   0  0  0  0  0  0  0  0  0  0  0  0
    2.0188   -6.9654   -3.8289 C   0  0  0  0  0  0  0  0  0  0  0  0
    0.8328   -6.6178   -6.0391 C   0  0  0  0  0  0  0  0  0  0  0  0
    3.1517   -5.7538   -5.7091 C   0  0  0  0  0  0  0  0  0  0  0  0
    2.3608   -0.6816    0.7243 H   0  0  0  0  0  0  0  0  0  0  0  0
    0.7539   -2.5417    0.4766 H   0  0  0  0  0  0  0  0  0  0  0  0
   -1.6755   -2.0528    0.3238 H   0  0  0  0  0  0  0  0  0  0  0  0
   -2.4799    0.2691    0.2438 H   0  0  0  0  0  0  0  0  0  0  0  0
    1.6152    1.5359    0.7966 H   0  0  0  0  0  0  0  0  0  0  0  0
    1.6079    3.3696    1.2978 H   0  0  0  0  0  0  0  0  0  0  0  0
    2.4233    3.9569    3.4200 H   0  0  0  0  0  0  0  0  0  0  0  0
    0.8624    4.1584    5.3451 H   0  0  0  0  0  0  0  0  0  0  0  0
   -1.5811    3.8555    4.9847 H   0  0  0  0  0  0  0  0  0  0  0  0
   -2.4457    3.1761    2.7986 H   0  0  0  0  0  0  0  0  0  0  0  0
   -1.0799    4.5856   -0.5147 H   0  0  0  0  0  0  0  0  0  0  0  0
   -2.3679    2.9692   -1.9689 H   0  0  0  0  0  0  0  0  0  0  0  0
   -1.3119    4.0892   -2.8191 H   0  0  0  0  0  0  0  0  0  0  0  0
   -0.7603    1.3382   -2.0062 H   0  0  0  0  0  0  0  0  0  0  0  0
   -1.1108    1.7440   -3.6655 H   0  0  0  0  0  0  0  0  0  0  0  0
    2.5804    2.9158   -1.9525 H   0  0  0  0  0  0  0  0  0  0  0  0
    1.5092    1.9088   -1.0789 H   0  0  0  0  0  0  0  0  0  0  0  0
    0.8713    4.7412   -1.8578 H   0  0  0  0  0  0  0  0  0  0  0  0
    1.4055    4.2663   -0.3066 H   0  0  0  0  0  0  0  0  0  0  0  0
   -2.7399    3.5236    0.6337 H   0  0  0  0  0  0  0  0  0  0  0  0
    1.1475    0.6863   -4.4025 H   0  0  0  0  0  0  0  0  0  0  0  0
    2.5792    1.1437   -3.5400 H   0  0  0  0  0  0  0  0  0  0  0  0
    2.1103   -1.0586   -2.7814 H   0  0  0  0  0  0  0  0  0  0  0  0
    1.8508   -0.0115   -1.5133 H   0  0  0  0  0  0  0  0  0  0  0  0
    0.1227   -1.8262   -1.7626 H   0  0  0  0  0  0  0  0  0  0  0  0
   -0.5779   -0.2932   -1.6459 H   0  0  0  0  0  0  0  0  0  0  0  0
   -0.7891   -0.3244   -4.2805 H   0  0  0  0  0  0  0  0  0  0  0  0
   -2.2284   -1.7974   -2.3475 H   0  0  0  0  0  0  0  0  0  0  0  0
    1.5193   -1.4013   -4.8264 H   0  0  0  0  0  0  0  0  0  0  0  0
    2.7746   -3.3776   -5.1278 H   0  0  0  0  0  0  0  0  0  0  0  0
   -0.5770   -5.7124   -3.6468 H   0  0  0  0  0  0  0  0  0  0  0  0
   -1.8129   -3.6752   -3.2566 H   0  0  0  0  0  0  0  0  0  0  0  0
    1.0796   -7.2190   -3.3246 H   0  0  0  0  0  0  0  0  0  0  0  0
    2.4673   -7.9017   -4.1716 H   0  0  0  0  0  0  0  0  0  0  0  0
    2.6794   -6.5194   -3.0759 H   0  0  0  0  0  0  0  0  0  0  0  0
    0.6444   -5.9148   -6.8623 H   0  0  0  0  0  0  0  0  0  0  0  0
    1.2348   -7.5406   -6.4615 H   0  0  0  0  0  0  0  0  0  0  0  0
   -0.1441   -6.8564   -5.6009 H   0  0  0  0  0  0  0  0  0  0  0  0
    3.0332   -5.0681   -6.5599 H   0  0  0  0  0  0  0  0  0  0  0  0
    3.8808   -5.3069   -5.0210 H   0  0  0  0  0  0  0  0  0  0  0  0
    3.5820   -6.6784   -6.0974 H   0  0  0  0  0  0  0  0  0  0  0  0
  1  2  2  0  0  0  0
  1  6  1  0  0  0  0
  1 36  1  0  0  0  0
  2  3  1  0  0  0  0
  2 37  1  0  0  0  0
  3  4  2  0  0  0  0
  3 38  1  0  0  0  0
  4  5  1  0  0  0  0
  4 39  1  0  0  0  0
  5  6  2  0  0  0  0
  5  9  1  0  0  0  0
  6 40  1  0  0  0  0
  7  8  1  0  0  0  0
  7 10  2  0  0  0  0
  7 41  1  0  0  0  0
  8  9  1  0  0  0  0
  8 13  2  0  0  0  0
  9 14  1  0  0  0  0
  9 20  1  0  0  0  0
 10 11  1  0  0  0  0
 10 42  1  0  0  0  0
 11 12  2  0  0  0  0
 11 43  1  0  0  0  0
 12 13  1  0  0  0  0
 12 44  1  0  0  0  0
 13 45  1  0  0  0  0
 14 15  1  0  0  0  0
 14 19  1  0  0  0  0
 14 46  1  0  0  0  0
 15 16  1  0  0  0  0
 15 47  1  0  0  0  0
 15 48  1  0  0  0  0
 16 17  1  0  0  0  0
 16 49  1  0  0  0  0
 16 50  1  0  0  0  0
 17 18  1  0  0  0  0
 17 21  1  0  0  0  0
 18 19  1  0  0  0  0
 18 51  1  0  0  0  0
 18 52  1  0  0  0  0
 19 53  1  0  0  0  0
 19 54  1  0  0  0  0
 20 55  1  0  0  0  0
 21 22  1  0  0  0  0
 21 56  1  0  0  0  0
 21 57  1  0  0  0  0
 22 23  1  0  0  0  0
 22 58  1  0  0  0  0
 22 59  1  0  0  0  0
 23 24  1  0  0  0  0
 23 60  1  0  0  0  0
 23 61  1  0  0  0  0
 24 25  1  0  0  0  0
 24 26  1  0  0  0  0
 24 62  1  0  0  0  0
 25 27  2  0  0  0  0
 25 31  1  0  0  0  0
 26 63  1  0  0  0  0
 27 28  1  0  0  0  0
 27 64  1  0  0  0  0
 28 29  2  0  0  0  0
 28 65  1  0  0  0  0
 29 30  1  0  0  0  0
 29 32  1  0  0  0  0
 30 31  2  0  0  0  0
 30 66  1  0  0  0  0
 31 67  1  0  0  0  0
 32 33  1  0  0  0  0
 32 34  1  0  0  0  0
 32 35  1  0  0  0  0
 33 68  1  0  0  0  0
 33 69  1  0  0  0  0
 33 70  1  0  0  0  0
 34 71  1  0  0  0  0
 34 72  1  0  0  0  0
 34 73  1  0  0  0  0
 35 74  1  0  0  0  0
 35 75  1  0  0  0  0
 35 76  1  0  0  0  0
M  END
>  <DRUGBANK_ID>
DB00342

>  <SECONDARY_ACCESSION_NUMBERS>
APRD00606

>  <COMMON_NAME>
Terfenadine

>  <CAS_NUMBER>
50679-08-8

>  <UNII>
7BA5G9Y06Q

>  <SYNONYMS>
(RS)-1-(4-tert-butylphenyl)-4-{4-[hydroxy(diphenyl)methyl]piperidin-1-yl}-butan-1-ol; Terfenadin; Terfenadina; TerfÃ©nadine; Terfenadine; Terfenadinum

$$$$
