
 OpenBabel10282417113D

176182  0  0  0  0  0  0  0  0999 V2000
   68.6974  -71.7743 -388.1228 C   0  0  0  0  0  0  0  0  0  0  0  0
   67.3665  -71.3374 -387.6867 C   0  0  0  0  0  0  0  0  0  0  0  0
   67.1572  -71.1939 -386.3487 O   0  0  0  0  0  0  0  0  0  0  0  0
   69.4619  -71.7283 -385.9545 C   0  0  0  0  0  0  0  0  0  0  0  0
   68.2132  -71.3926 -385.5132 C   0  0  0  0  0  0  0  0  0  0  0  0
   69.6770  -71.9349 -387.3154 N   0  0  0  0  0  0  0  0  0  0  0  0
   69.0220  -71.7323 -389.5143 C   0  0  0  0  0  0  0  0  0  0  0  0
   66.3975  -71.0212 -388.5406 C   0  0  0  0  0  0  0  0  0  0  0  0
   70.4247  -71.7488 -390.0548 C   0  0  0  0  0  0  0  0  0  0  0  0
   68.0661  -71.1796 -390.2628 C   0  0  0  0  0  0  0  0  0  0  0  0
   66.6631  -70.9765 -389.9463 C   0  0  0  0  0  0  0  0  0  0  0  0
   64.9990  -70.7708 -388.1844 C   0  0  0  0  0  0  0  0  0  0  0  0
   70.7862  -71.6803 -391.2160 O   0  0  0  0  0  0  0  0  0  0  0  0
   68.5190  -70.5536 -391.3267 N   0  0  0  0  0  0  0  0  0  0  0  0
   70.4995  -71.9192 -385.0297 C   0  0  0  0  0  0  0  0  0  0  0  0
   67.9620  -71.3746 -384.1632 C   0  0  0  0  0  0  0  0  0  0  0  0
   65.7931  -70.7320 -390.7703 O   0  0  0  0  0  0  0  0  0  0  0  0
   71.7918  -72.4054 -385.5106 C   0  0  0  0  0  0  0  0  0  0  0  0
   70.3013  -71.7546 -383.6774 C   0  0  0  0  0  0  0  0  0  0  0  0
   69.0065  -71.5532 -383.2526 C   0  0  0  0  0  0  0  0  0  0  0  0
   66.5611  -71.2609 -383.6805 C   0  0  0  0  0  0  0  0  0  0  0  0
   72.5651  -72.8674 -384.6763 O   0  0  0  0  0  0  0  0  0  0  0  0
   71.8862  -72.2060 -386.8872 N   0  0  0  0  0  0  0  0  0  0  0  0
   72.9783  -72.2203 -387.8704 C   0  0  2  0  0  0  0  0  0  0  0  0
   73.2373  -70.4857 -388.6969 C   0  0  0  0  0  0  0  0  0  0  0  0
   74.0747  -73.6834 -388.4585 C   0  0  2  0  0  0  0  0  0  0  0  0
   72.8627  -74.3651 -388.5973 O   0  0  0  0  0  0  0  0  0  0  0  0
   72.8151  -75.2743 -389.5671 C   0  0  0  0  0  0  0  0  0  0  0  0
   70.8008  -68.8833 -389.6142 N   0  0  0  0  0  0  0  0  0  0  0  0
   69.7486  -69.3476 -388.7921 C   0  0  0  0  0  0  0  0  0  0  0  0
   70.2497  -69.0642 -391.1966 C   0  0  1  0  0  0  0  0  0  0  0  0
   68.8453  -68.2249 -389.1139 C   0  0  0  0  0  0  0  0  0  0  0  0
   68.9522  -68.4206 -390.6407 C   0  0  0  0  0  0  0  0  0  0  0  0
   70.7573  -69.9231 -390.9036 H   0  0  0  0  0  0  0  0  0  0  0  0
   70.2140  -70.1155 -392.8774 C   0  0  0  0  0  0  0  0  0  0  0  0
   69.2359  -71.4209 -393.1452 N   0  0  0  0  0  0  0  0  0  0  0  0
   70.1059  -72.6675 -393.1090 C   0  0  0  0  0  0  0  0  0  0  0  0
   67.5604  -71.7599 -392.9037 C   0  0  0  0  0  0  0  0  0  0  0  0
   70.1235  -73.5926 -391.7719 C   0  0  0  0  0  0  0  0  0  0  0  0
   69.1817  -73.6731 -390.9720 O   0  0  0  0  0  0  0  0  0  0  0  0
   71.3657  -74.2624 -391.5146 N   0  0  0  0  0  0  0  0  0  0  0  0
   71.9637  -74.7543 -392.7454 C   0  0  0  0  0  0  0  0  0  0  0  0
   71.4441  -75.1235 -390.2954 C   0  0  1  0  0  0  0  0  0  0  0  0
   70.2612  -76.0719 -390.4048 C   0  0  0  0  0  0  0  0  0  0  0  0
   69.6789  -76.2248 -391.8275 C   0  0  0  0  0  0  0  0  0  0  0  0
   70.6450  -77.4093 -389.8979 C   0  0  0  0  0  0  0  0  0  0  0  0
   71.1494  -70.2464 -393.6939 O   0  0  0  0  0  0  0  0  0  0  0  0
   73.7466  -76.0422 -389.6810 O   0  0  0  0  0  0  0  0  0  0  0  0
   75.8399  -74.1621 -387.8473 C   0  0  0  0  0  0  0  0  0  0  0  0
   71.2260  -67.5905 -387.7673 O   0  0  0  0  0  0  0  0  0  0  0  0
   74.0082  -70.1039 -389.5897 O   0  0  0  0  0  0  0  0  0  0  0  0
   72.6461  -69.3541 -388.2590 N   0  0  0  0  0  0  0  0  0  0  0  0
   71.6831  -67.9901 -388.8471 C   0  0  0  0  0  0  0  0  0  0  0  0
   73.2652  -68.1786 -388.9450 C   0  0  1  0  0  0  0  0  0  0  0  0
   74.8276  -68.1153 -387.2128 C   0  0  0  0  0  0  0  0  0  0  0  0
   74.9189  -68.2326 -388.5992 C   0  0  0  0  0  0  0  0  0  0  0  0
   75.7477  -69.4335 -388.5663 C   0  0  0  0  0  0  0  0  0  0  0  0
   71.5102  -71.6780 -389.3708 N   0  0  0  0  0  0  0  0  0  0  0  0
   73.0460  -71.9076 -390.0201 C   0  0  2  0  0  0  0  0  0  0  0  0
   74.6638  -71.7214 -388.9230 C   0  0  0  0  0  0  0  0  0  0  0  0
   73.1759  -71.0194 -391.3291 C   0  0  2  0  0  0  0  0  0  0  0  0
   72.6464  -69.7084 -390.8058 O   0  0  0  0  0  0  0  0  0  0  0  0
   72.7418  -68.6687 -391.5371 C   0  0  0  0  0  0  0  0  0  0  0  0
   73.3974  -68.9443 -385.4670 N   0  0  0  0  0  0  0  0  0  0  0  0
   71.8988  -69.1585 -385.4433 C   0  0  0  0  0  0  0  0  0  0  0  0
   73.5505  -67.5073 -385.2510 C   0  0  1  0  0  0  0  0  0  0  0  0
   71.9470  -68.8211 -384.0091 C   0  0  0  0  0  0  0  0  0  0  0  0
   72.6843  -67.4334 -384.0614 C   0  0  0  0  0  0  0  0  0  0  0  0
   72.8900  -67.3409 -386.1154 H   0  0  0  0  0  0  0  0  0  0  0  0
   74.4437  -66.1862 -385.7271 C   0  0  0  0  0  0  0  0  0  0  0  0
   73.5663  -65.3277 -386.4500 N   0  0  0  0  0  0  0  0  0  0  0  0
   73.8091  -65.0975 -387.9063 C   0  0  0  0  0  0  0  0  0  0  0  0
   72.3491  -64.8462 -385.8268 C   0  0  0  0  0  0  0  0  0  0  0  0
   72.7056  -65.5238 -388.9657 C   0  0  0  0  0  0  0  0  0  0  0  0
   71.5191  -65.5035 -388.6527 O   0  0  0  0  0  0  0  0  0  0  0  0
   73.1182  -65.9297 -390.2956 N   0  0  0  0  0  0  0  0  0  0  0  0
   74.2160  -65.1709 -390.7930 C   0  0  0  0  0  0  0  0  0  0  0  0
   72.3407  -66.9840 -391.1973 C   0  0  1  0  0  0  0  0  0  0  0  0
   72.0070  -67.0775 -392.6625 C   0  0  0  0  0  0  0  0  0  0  0  0
   70.8464  -66.4555 -393.3155 C   0  0  0  0  0  0  0  0  0  0  0  0
   73.2671  -67.5572 -393.6013 C   0  0  0  0  0  0  0  0  0  0  0  0
   75.6598  -66.1831 -385.9769 O   0  0  0  0  0  0  0  0  0  0  0  0
   72.6759  -69.2489 -392.6045 O   0  0  0  0  0  0  0  0  0  0  0  0
   74.2291  -71.9467 -391.8719 C   0  0  0  0  0  0  0  0  0  0  0  0
   73.4942  -70.9261 -384.7370 O   0  0  0  0  0  0  0  0  0  0  0  0
   75.8295  -72.0200 -389.5191 O   0  0  0  0  0  0  0  0  0  0  0  0
   74.5021  -71.0839 -387.2362 N   0  0  0  0  0  0  0  0  0  0  0  0
   74.2105  -70.0615 -385.2062 C   0  0  0  0  0  0  0  0  0  0  0  0
   75.3899  -70.7761 -386.0606 C   0  0  1  0  0  0  0  0  0  0  0  0
   77.2895  -71.9414 -387.0775 C   0  0  0  0  0  0  0  0  0  0  0  0
   75.7030  -72.2350 -386.4021 C   0  0  0  0  0  0  0  0  0  0  0  0
   74.4957  -73.7713 -386.1146 C   0  0  0  0  0  0  0  0  0  0  0  0
   64.6604  -71.6711 -387.6756 H   0  0  0  0  0  0  0  0  0  0  0  0
   64.9163  -69.8798 -387.5685 H   0  0  0  0  0  0  0  0  0  0  0  0
   64.3580  -70.6421 -389.0620 H   0  0  0  0  0  0  0  0  0  0  0  0
   69.2439  -71.1668 -391.7022 H   0  0  0  0  0  0  0  0  0  0  0  0
   68.1723  -70.0250 -392.1425 H   0  0  0  0  0  0  0  0  0  0  0  0
   71.1244  -71.8665 -382.9764 H   0  0  0  0  0  0  0  0  0  0  0  0
   68.7964  -71.5947 -382.1946 H   0  0  0  0  0  0  0  0  0  0  0  0
   66.2964  -72.1797 -383.1545 H   0  0  0  0  0  0  0  0  0  0  0  0
   66.4877  -70.3964 -383.0252 H   0  0  0  0  0  0  0  0  0  0  0  0
   65.8468  -71.1324 -384.5000 H   0  0  0  0  0  0  0  0  0  0  0  0
   71.2747  -71.4244 -387.0624 H   0  0  0  0  0  0  0  0  0  0  0  0
   73.4148  -72.3528 -386.9411 H   0  0  0  0  0  0  0  0  0  0  0  0
   74.4434  -73.6509 -389.5068 H   0  0  0  0  0  0  0  0  0  0  0  0
   69.1535  -69.5639 -387.9015 H   0  0  0  0  0  0  0  0  0  0  0  0
   70.3792  -69.6301 -387.9236 H   0  0  0  0  0  0  0  0  0  0  0  0
   68.9098  -67.1722 -389.3218 H   0  0  0  0  0  0  0  0  0  0  0  0
   69.2264  -67.7610 -388.1985 H   0  0  0  0  0  0  0  0  0  0  0  0
   68.4461  -67.9827 -391.4836 H   0  0  0  0  0  0  0  0  0  0  0  0
   68.0597  -68.9855 -390.4464 H   0  0  0  0  0  0  0  0  0  0  0  0
   69.8678  -73.2180 -393.9988 H   0  0  0  0  0  0  0  0  0  0  0  0
   71.1786  -72.4106 -393.1786 H   0  0  0  0  0  0  0  0  0  0  0  0
   67.4308  -72.5115 -392.0841 H   0  0  0  0  0  0  0  0  0  0  0  0
   66.9298  -70.8913 -392.5892 H   0  0  0  0  0  0  0  0  0  0  0  0
   67.0609  -71.9459 -393.8248 H   0  0  0  0  0  0  0  0  0  0  0  0
   72.9413  -74.3339 -392.9176 H   0  0  0  0  0  0  0  0  0  0  0  0
   72.0471  -75.8339 -392.7467 H   0  0  0  0  0  0  0  0  0  0  0  0
   71.2964  -74.5475 -393.5890 H   0  0  0  0  0  0  0  0  0  0  0  0
   71.0295  -74.7190 -389.3534 H   0  0  0  0  0  0  0  0  0  0  0  0
   69.4623  -75.6365 -389.7731 H   0  0  0  0  0  0  0  0  0  0  0  0
   70.4184  -76.6870 -392.4652 H   0  0  0  0  0  0  0  0  0  0  0  0
   68.7608  -76.7786 -391.8677 H   0  0  0  0  0  0  0  0  0  0  0  0
   69.3741  -75.3251 -392.3557 H   0  0  0  0  0  0  0  0  0  0  0  0
   70.9302  -77.3533 -388.8464 H   0  0  0  0  0  0  0  0  0  0  0  0
   69.7768  -78.0503 -390.0243 H   0  0  0  0  0  0  0  0  0  0  0  0
   71.4845  -77.7721 -390.4945 H   0  0  0  0  0  0  0  0  0  0  0  0
   76.1464  -75.1736 -387.6961 H   0  0  0  0  0  0  0  0  0  0  0  0
   76.5286  -73.6436 -388.4825 H   0  0  0  0  0  0  0  0  0  0  0  0
   76.2820  -73.9557 -386.7391 H   0  0  0  0  0  0  0  0  0  0  0  0
   71.7907  -69.8213 -388.5150 H   0  0  0  0  0  0  0  0  0  0  0  0
   73.6205  -67.9740 -389.9285 H   0  0  0  0  0  0  0  0  0  0  0  0
   73.9521  -68.6865 -387.0704 H   0  0  0  0  0  0  0  0  0  0  0  0
   75.6042  -68.4486 -386.5273 H   0  0  0  0  0  0  0  0  0  0  0  0
   74.4506  -67.1763 -387.3313 H   0  0  0  0  0  0  0  0  0  0  0  0
   75.6436  -67.6542 -389.1005 H   0  0  0  0  0  0  0  0  0  0  0  0
   75.9337  -69.9913 -389.4505 H   0  0  0  0  0  0  0  0  0  0  0  0
   76.3282  -69.8467 -387.7880 H   0  0  0  0  0  0  0  0  0  0  0  0
   74.8968  -69.7534 -388.0979 H   0  0  0  0  0  0  0  0  0  0  0  0
   71.1983  -71.9278 -388.4555 H   0  0  0  0  0  0  0  0  0  0  0  0
   72.7864  -72.9139 -390.3481 H   0  0  0  0  0  0  0  0  0  0  0  0
   74.0763  -70.3750 -391.5749 H   0  0  0  0  0  0  0  0  0  0  0  0
   70.9674  -68.6282 -385.7567 H   0  0  0  0  0  0  0  0  0  0  0  0
   71.7657  -69.9899 -386.1208 H   0  0  0  0  0  0  0  0  0  0  0  0
   71.1348  -68.8116 -383.3175 H   0  0  0  0  0  0  0  0  0  0  0  0
   72.4264  -69.7016 -383.6279 H   0  0  0  0  0  0  0  0  0  0  0  0
   71.8730  -66.7322 -383.9546 H   0  0  0  0  0  0  0  0  0  0  0  0
   73.4510  -66.9737 -383.4632 H   0  0  0  0  0  0  0  0  0  0  0  0
   73.9456  -64.0320 -387.9728 H   0  0  0  0  0  0  0  0  0  0  0  0
   74.7421  -65.5848 -388.2275 H   0  0  0  0  0  0  0  0  0  0  0  0
   71.4523  -64.9938 -386.4224 H   0  0  0  0  0  0  0  0  0  0  0  0
   72.1514  -65.2954 -384.8679 H   0  0  0  0  0  0  0  0  0  0  0  0
   72.5169  -63.8057 -385.5839 H   0  0  0  0  0  0  0  0  0  0  0  0
   75.0787  -65.8100 -390.9620 H   0  0  0  0  0  0  0  0  0  0  0  0
   73.8346  -64.6630 -391.6685 H   0  0  0  0  0  0  0  0  0  0  0  0
   74.4899  -64.3951 -390.0673 H   0  0  0  0  0  0  0  0  0  0  0  0
   71.3435  -66.7197 -390.8084 H   0  0  0  0  0  0  0  0  0  0  0  0
   71.2726  -67.9084 -392.5410 H   0  0  0  0  0  0  0  0  0  0  0  0
   71.2936  -65.5485 -393.6439 H   0  0  0  0  0  0  0  0  0  0  0  0
   70.5243  -67.1656 -394.1023 H   0  0  0  0  0  0  0  0  0  0  0  0
   69.9923  -66.3450 -392.6236 H   0  0  0  0  0  0  0  0  0  0  0  0
   74.0951  -68.2235 -393.1494 H   0  0  0  0  0  0  0  0  0  0  0  0
   72.8797  -68.2665 -394.3740 H   0  0  0  0  0  0  0  0  0  0  0  0
   73.8966  -66.7187 -393.7249 H   0  0  0  0  0  0  0  0  0  0  0  0
   75.2751  -71.6914 -391.6507 H   0  0  0  0  0  0  0  0  0  0  0  0
   74.1556  -72.9487 -391.4447 H   0  0  0  0  0  0  0  0  0  0  0  0
   73.9158  -72.0481 -392.8880 H   0  0  0  0  0  0  0  0  0  0  0  0
   73.5719  -70.7276 -386.8534 H   0  0  0  0  0  0  0  0  0  0  0  0
   75.8727  -71.1114 -385.1148 H   0  0  0  0  0  0  0  0  0  0  0  0
   77.8985  -72.2664 -386.2861 H   0  0  0  0  0  0  0  0  0  0  0  0
   77.5935  -72.3655 -388.0648 H   0  0  0  0  0  0  0  0  0  0  0  0
   77.5369  -70.9078 -387.4030 H   0  0  0  0  0  0  0  0  0  0  0  0
   75.6967  -72.2861 -387.4584 H   0  0  0  0  0  0  0  0  0  0  0  0
   73.3874  -73.8323 -386.2876 H   0  0  0  0  0  0  0  0  0  0  0  0
   74.4106  -74.7114 -386.8461 H   0  0  0  0  0  0  0  0  0  0  0  0
   74.8503  -74.4251 -385.3602 H   0  0  0  0  0  0  0  0  0  0  0  0
  2  1  1  0  0  0  0
  3  2  1  0  0  0  0
  4  6  1  0  0  0  0
  5  3  1  0  0  0  0
  5  4  1  0  0  0  0
  6  1  2  0  0  0  0
  7  1  1  0  0  0  0
  8  2  2  0  0  0  0
  9  7  1  0  0  0  0
 10  7  2  0  0  0  0
 11  8  1  0  0  0  0
 11 10  1  0  0  0  0
 12  8  1  0  0  0  0
 12 93  1  0  0  0  0
 12 94  1  0  0  0  0
 12 95  1  0  0  0  0
 13  9  2  0  0  0  0
 14 10  1  0  0  0  0
 14 96  1  0  0  0  0
 14 97  1  0  0  0  0
 15  4  2  0  0  0  0
 16  5  2  0  0  0  0
 17 11  2  0  0  0  0
 18 15  1  0  0  0  0
 19 15  1  0  0  0  0
 19 98  1  0  0  0  0
 20 16  1  0  0  0  0
 20 19  2  0  0  0  0
 20 99  1  0  0  0  0
 21 16  1  0  0  0  0
 21100  1  0  0  0  0
 21101  1  0  0  0  0
 21102  1  0  0  0  0
 22 18  2  0  0  0  0
 23 18  1  0  0  0  0
 23103  1  0  0  0  0
 24 23  1  0  0  0  0
 24104  1  1  0  0  0
 25 24  1  0  0  0  0
 25 52  1  0  0  0  0
 26 24  1  0  0  0  0
 26105  1  6  0  0  0
 26 49  1  0  0  0  0
 27 26  1  0  0  0  0
 28 27  1  0  0  0  0
 29 53  1  0  0  0  0
 30 29  1  0  0  0  0
 30106  1  0  0  0  0
 30107  1  0  0  0  0
 31 29  1  0  0  0  0
 31 34  1  1  0  0  0
 32 30  1  0  0  0  0
 32108  1  0  0  0  0
 32109  1  0  0  0  0
 33 31  1  0  0  0  0
 33 32  1  0  0  0  0
 33110  1  0  0  0  0
 33111  1  0  0  0  0
 35 31  1  0  0  0  0
 36 35  1  0  0  0  0
 37 36  1  0  0  0  0
 37112  1  0  0  0  0
 37113  1  0  0  0  0
 38114  1  0  0  0  0
 38115  1  0  0  0  0
 38116  1  0  0  0  0
 38 36  1  0  0  0  0
 39 37  1  0  0  0  0
 40 39  2  0  0  0  0
 41 39  1  0  0  0  0
 42117  1  0  0  0  0
 42118  1  0  0  0  0
 42119  1  0  0  0  0
 42 41  1  0  0  0  0
 43 28  1  0  0  0  0
 43 41  1  0  0  0  0
 43 44  1  0  0  0  0
 43120  1  1  0  0  0
 44121  1  0  0  0  0
 45 44  1  0  0  0  0
 45122  1  0  0  0  0
 45123  1  0  0  0  0
 45124  1  0  0  0  0
 46 44  1  0  0  0  0
 46125  1  0  0  0  0
 46126  1  0  0  0  0
 46127  1  0  0  0  0
 47 35  2  0  0  0  0
 48 28  2  0  0  0  0
 49128  1  0  0  0  0
 49129  1  0  0  0  0
 49130  1  0  0  0  0
 50 53  2  0  0  0  0
 51 25  2  0  0  0  0
 52131  1  0  0  0  0
 53 54  1  0  0  0  0
 54 52  1  0  0  0  0
 54132  1  6  0  0  0
 54 56  1  0  0  0  0
 55133  1  0  0  0  0
 55134  1  0  0  0  0
 55135  1  0  0  0  0
 56 55  1  0  0  0  0
 56 57  1  0  0  0  0
 56136  1  0  0  0  0
 57137  1  0  0  0  0
 57138  1  0  0  0  0
 57139  1  0  0  0  0
 58  9  1  0  0  0  0
 58140  1  0  0  0  0
 59 58  1  0  0  0  0
 59141  1  6  0  0  0
 60 59  1  0  0  0  0
 60 87  1  0  0  0  0
 61 59  1  0  0  0  0
 61142  1  1  0  0  0
 61 84  1  0  0  0  0
 62 61  1  0  0  0  0
 63 62  1  0  0  0  0
 64 88  1  0  0  0  0
 65 64  1  0  0  0  0
 65143  1  0  0  0  0
 65144  1  0  0  0  0
 66 64  1  0  0  0  0
 66 69  1  6  0  0  0
 67 65  1  0  0  0  0
 67145  1  0  0  0  0
 67146  1  0  0  0  0
 68 66  1  0  0  0  0
 68 67  1  0  0  0  0
 68147  1  0  0  0  0
 68148  1  0  0  0  0
 70 66  1  0  0  0  0
 71 70  1  0  0  0  0
 72 71  1  0  0  0  0
 72149  1  0  0  0  0
 72150  1  0  0  0  0
 73151  1  0  0  0  0
 73152  1  0  0  0  0
 73153  1  0  0  0  0
 73 71  1  0  0  0  0
 74 72  1  0  0  0  0
 75 74  2  0  0  0  0
 76 74  1  0  0  0  0
 77154  1  0  0  0  0
 77155  1  0  0  0  0
 77156  1  0  0  0  0
 77 76  1  0  0  0  0
 78 63  1  0  0  0  0
 78 76  1  0  0  0  0
 78157  1  1  0  0  0
 78 79  1  0  0  0  0
 79158  1  0  0  0  0
 80 79  1  0  0  0  0
 80159  1  0  0  0  0
 80160  1  0  0  0  0
 80161  1  0  0  0  0
 81 79  1  0  0  0  0
 81162  1  0  0  0  0
 81163  1  0  0  0  0
 81164  1  0  0  0  0
 82 70  2  0  0  0  0
 83 63  2  0  0  0  0
 84165  1  0  0  0  0
 84166  1  0  0  0  0
 84167  1  0  0  0  0
 85 88  2  0  0  0  0
 86 60  2  0  0  0  0
 87168  1  0  0  0  0
 88 89  1  0  0  0  0
 89 87  1  0  0  0  0
 89169  1  6  0  0  0
 89 91  1  0  0  0  0
 90170  1  0  0  0  0
 90171  1  0  0  0  0
 90172  1  0  0  0  0
 91 90  1  0  0  0  0
 91 92  1  0  0  0  0
 91173  1  0  0  0  0
 92174  1  0  0  0  0
 92175  1  0  0  0  0
 92176  1  0  0  0  0
M  END
>  <DRUGBANK_ID>
DB00970

>  <SECONDARY_ACCESSION_NUMBERS>
APRD00124

>  <COMMON_NAME>
Dactinomycin

>  <CAS_NUMBER>
50-76-0

>  <UNII>
1CC1JFE158

>  <SYNONYMS>
2-amino-N,N'-bis(hexadecahydro-2,5,9-trimethyl-6,13-bis(1-methylethyl)-1,4,7,11,14-pentaoxo-1H-pyrrolo(2,1-i)(1,4,7,10,13)oxatetra-azacyclohexadecin-10-yl)-4,6-dimethyl-3-oxo-3H-phenoxazine-1,9-dicarboxamide; 3H-PHENOXAZINE-1,9-DICARBOXAMIDE, 2-AMINO-N,N'-BIS(HEXADECAHYDRO-6,13-DIISOPROPYL-2,5,9-TRIMETHYL-1,4,7,11,14-PENTAOXO-1H-PYRROLO(2,1-I)(1,4,7,10,13)OXATETRAAZACYCLOHEXADECIN-10-YL)-4,6-DIMETHYL-3-OXO-; ActD; Actinomycin C1; Actinomycin D; ACTINOMYCIN I1; Actinomycin IV; ACTINOMYCIN X1; ACTINOMYCIN-D; ANA-conjugated dactinomycin nanoemulsion; Dactinomicina; Dactinomycin; Dactinomycine; Dactinomycinum; DILACTONE ACTINOMYCIN D ACID; Meractinomycin; N,N'-((2-AMINO-4,6-DIMETHYL-3-OXO-3H-PHENOXAZINE-1,9-DIYL)-BIS(CARBONYLIMINO(2-HYDROXYPROPYLIDENE)CARBONYLIMINOISOBUTYLIDENECARBONYL-1,2-PYRROLIDINEDIYLCARBONYL(METHYLIMINO)METHYLENECARBONYL))BIS(N-METHYL-L-VALINE) DILACTONE; ONCOSTATIN K

$$$$
