LAE
 OpenBabel10282417173D

 36 36  0  0  0  0  0  0  0  0999 V2000
    0.2221    1.3118   -0.0944 C   0  0  2  0  0  0  0  0  0  0  0  0
   -0.6929    0.1041    0.0116 C   0  0  0  0  0  0  0  0  0  0  0  0
    0.0391   -1.0486    0.0208 O   0  0  0  0  0  0  0  0  0  0  0  0
    1.4203   -0.7412   -0.1526 C   0  0  0  0  0  0  0  0  0  0  0  0
    1.5827    0.7167    0.2006 C   0  0  0  0  0  0  0  0  0  0  0  0
   -1.9085    0.1388    0.0885 O   0  0  0  0  0  0  0  0  0  0  0  0
   -0.1530    2.3829    0.8232 N   0  0  0  0  0  0  0  0  0  0  0  0
    0.3852    3.6412    0.7009 C   0  0  0  0  0  0  0  0  0  0  0  0
   -0.0791    4.6650    1.7071 C   0  0  0  0  0  0  0  0  0  0  0  0
    1.0932    5.1734    2.4925 C   0  0  0  0  0  0  0  0  0  0  0  0
    1.3902    6.6652    2.4797 C   0  0  0  0  0  0  0  0  0  0  0  0
    1.3445    7.2612    3.8883 C   0  0  0  0  0  0  0  0  0  0  0  0
    2.3818    6.6495    4.8415 C   0  0  0  0  0  0  0  0  0  0  0  0
    3.8154    6.7814    4.3213 C   0  0  0  0  0  0  0  0  0  0  0  0
    4.2216    8.2421    4.2165 C   0  0  0  0  0  0  0  0  0  0  0  0
    1.2034    3.9257   -0.1708 O   0  0  0  0  0  0  0  0  0  0  0  0
    1.7890    4.3724    3.1221 O   0  0  0  0  0  0  0  0  0  0  0  0
    0.1781    1.6873   -1.1229 H   0  0  0  0  0  0  0  0  0  0  0  0
    1.6940   -0.9561   -1.1908 H   0  0  0  0  0  0  0  0  0  0  0  0
    2.0204   -1.3816    0.5021 H   0  0  0  0  0  0  0  0  0  0  0  0
    2.3880    1.1869   -0.3730 H   0  0  0  0  0  0  0  0  0  0  0  0
    1.8373    0.8165    1.2623 H   0  0  0  0  0  0  0  0  0  0  0  0
   -0.8122    2.1713    1.5654 H   0  0  0  0  0  0  0  0  0  0  0  0
   -0.5656    5.4835    1.1692 H   0  0  0  0  0  0  0  0  0  0  0  0
   -0.8078    4.2568    2.4150 H   0  0  0  0  0  0  0  0  0  0  0  0
    2.3662    6.8131    2.0043 H   0  0  0  0  0  0  0  0  0  0  0  0
    0.6751    7.1933    1.8408 H   0  0  0  0  0  0  0  0  0  0  0  0
    1.5024    8.3452    3.8247 H   0  0  0  0  0  0  0  0  0  0  0  0
    0.3424    7.1356    4.3137 H   0  0  0  0  0  0  0  0  0  0  0  0
    2.2997    7.1233    5.8262 H   0  0  0  0  0  0  0  0  0  0  0  0
    2.1539    5.5944    5.0213 H   0  0  0  0  0  0  0  0  0  0  0  0
    4.4981    6.2536    4.9954 H   0  0  0  0  0  0  0  0  0  0  0  0
    3.9301    6.2963    3.3453 H   0  0  0  0  0  0  0  0  0  0  0  0
    4.1533    8.7210    5.1979 H   0  0  0  0  0  0  0  0  0  0  0  0
    5.2451    8.3336    3.8475 H   0  0  0  0  0  0  0  0  0  0  0  0
    3.5782    8.7942    3.5244 H   0  0  0  0  0  0  0  0  0  0  0  0
  1  2  1  0  0  0  0
  1  5  1  0  0  0  0
  1 18  1  6  0  0  0
  1  7  1  0  0  0  0
  2  3  1  0  0  0  0
  2  6  2  0  0  0  0
  3  4  1  0  0  0  0
  4  5  1  0  0  0  0
  4 19  1  0  0  0  0
  4 20  1  0  0  0  0
  5 21  1  0  0  0  0
  5 22  1  0  0  0  0
  7  8  1  0  0  0  0
  7 23  1  0  0  0  0
  8  9  1  0  0  0  0
  8 16  2  0  0  0  0
  9 10  1  0  0  0  0
  9 24  1  0  0  0  0
  9 25  1  0  0  0  0
 10 11  1  0  0  0  0
 10 17  2  0  0  0  0
 11 12  1  0  0  0  0
 11 26  1  0  0  0  0
 11 27  1  0  0  0  0
 12 13  1  0  0  0  0
 12 28  1  0  0  0  0
 12 29  1  0  0  0  0
 13 14  1  0  0  0  0
 13 30  1  0  0  0  0
 13 31  1  0  0  0  0
 14 15  1  0  0  0  0
 14 32  1  0  0  0  0
 14 33  1  0  0  0  0
 15 34  1  0  0  0  0
 15 35  1  0  0  0  0
 15 36  1  0  0  0  0
M  END
>  <DRUGBANK_ID>
DB08081

>  <COMMON_NAME>
3-OXO-OCTANOIC ACID (2-OXO-TETRAHYDRO-FURAN-3-YL)-AMIDE

$$$$
