
 OpenBabel10282417163D

 20 21  0  0  0  0  0  0  0  0999 V2000
    0.0160   -0.7436    0.0881 C   0  0  0  0  0  0  0  0  0  0  0  0
   -0.0206    0.6763    0.0860 C   0  0  0  0  0  0  0  0  0  0  0  0
    1.2591   -1.3913    0.0234 C   0  0  0  0  0  0  0  0  0  0  0  0
    1.1823    1.3935    0.0651 C   0  0  0  0  0  0  0  0  0  0  0  0
   -1.2583    1.3339    0.0449 C   0  0  0  0  0  0  0  0  0  0  0  0
    2.4432   -0.6626   -0.0555 C   0  0  0  0  0  0  0  0  0  0  0  0
    2.4055    0.7300   -0.0247 C   0  0  0  0  0  0  0  0  0  0  0  0
   -2.4423    0.6146   -0.1172 C   0  0  0  0  0  0  0  0  0  0  0  0
   -1.1967   -1.4416    0.1196 C   0  0  0  0  0  0  0  0  0  0  0  0
   -1.2049   -2.8064    0.2779 O   0  0  0  0  0  0  0  0  0  0  0  0
   -2.4092   -0.7716   -0.0201 C   0  0  0  0  0  0  0  0  0  0  0  0
   -3.5563   -1.5155   -0.0503 O   0  0  0  0  0  0  0  0  0  0  0  0
    1.2975   -2.4799   -0.0149 H   0  0  0  0  0  0  0  0  0  0  0  0
    1.1741    2.4829    0.0672 H   0  0  0  0  0  0  0  0  0  0  0  0
   -1.3026    2.4215    0.0944 H   0  0  0  0  0  0  0  0  0  0  0  0
    3.3910   -1.1833   -0.1517 H   0  0  0  0  0  0  0  0  0  0  0  0
    3.3284    1.2982   -0.0937 H   0  0  0  0  0  0  0  0  0  0  0  0
   -3.3632    1.1489   -0.3216 H   0  0  0  0  0  0  0  0  0  0  0  0
   -2.1490   -3.0467    0.3422 H   0  0  0  0  0  0  0  0  0  0  0  0
   -4.3093   -0.9005   -0.0810 H   0  0  0  0  0  0  0  0  0  0  0  0
  1  2  1  0  0  0  0
  1  3  2  0  0  0  0
  1  9  1  0  0  0  0
  2  4  2  0  0  0  0
  2  5  1  0  0  0  0
  3  6  1  0  0  0  0
  3 13  1  0  0  0  0
  4  7  1  0  0  0  0
  4 14  1  0  0  0  0
  5  8  2  0  0  0  0
  5 15  1  0  0  0  0
  6  7  2  0  0  0  0
  6 16  1  0  0  0  0
  7 17  1  0  0  0  0
  8 18  1  0  0  0  0
  9 11  2  0  0  0  0
  9 10  1  0  0  0  0
 10 19  1  0  0  0  0
 11  8  1  0  0  0  0
 11 12  1  0  0  0  0
 12 20  1  0  0  0  0
M  END
>  <DRUGBANK_ID>
DB07610

>  <COMMON_NAME>
1,2-Dihydroxynaphthalene

>  <CAS_NUMBER>
574-00-5

>  <UNII>
2R5017T335

>  <SYNONYMS>
1,2-Naphthalenediol; 1,2-naphthohydroquinone; beta-Naphthohydroquinone; Naphthalene-1,2-diol; Î²-naphthohydroquinone

$$$$
