
 OpenBabel10282417193D

120126  0  0  1  0  0  0  0  0999 V2000
   -2.6882    5.4884    1.6037 C   0  0  0  0  0  0  0  0  0  0  0  0
   -1.3852    4.8509    1.2809 C   0  0  0  0  0  0  0  0  0  0  0  0
   -0.7188    4.7880    0.1816 C   0  0  0  0  0  0  0  0  0  0  0  0
   -1.3622    5.8574   -0.6142 C   0  0  2  0  0  0  0  0  0  0  0  0
   -1.7962    4.5764   -1.0502 C   0  0  0  0  0  0  0  0  0  0  0  0
   -1.7064    5.0775   -2.2665 O   0  0  0  0  0  0  0  0  0  0  0  0
   -2.2897    2.8481   -0.0424 C   0  0  2  0  0  0  0  0  0  0  0  0
   -2.5611    2.0677   -1.3988 C   0  0  2  0  0  0  0  0  0  0  0  0
   -3.5486    1.1607   -0.7682 C   0  0  0  0  0  0  0  0  0  0  0  0
   -2.7579    0.2643    0.1935 C   0  0  2  0  0  0  0  0  0  0  0  0
   -2.2378   -0.1462    1.9620 C   0  0  2  0  0  0  0  0  0  0  0  0
   -1.6944    1.3550    1.4686 C   0  0  1  0  0  0  0  0  0  0  0  0
   -1.3434    1.4233    3.5356 C   0  0  1  0  0  0  0  0  0  0  0  0
   -0.3377    3.4466    2.9259 C   0  0  1  0  0  0  0  0  0  0  0  0
    0.1406    3.4603    0.6685 C   0  0  0  0  0  0  0  0  0  0  0  0
    1.4368    2.9339   -0.6677 C   0  0  0  0  0  0  0  0  0  0  0  0
    1.2711    4.4475   -0.8305 C   0  0  0  0  0  0  0  0  0  0  0  0
   -0.7896    4.8686    3.3714 C   0  0  0  0  0  0  0  0  0  0  0  0
   -0.2047    4.7842    2.1470 C   0  0  2  0  0  0  0  0  0  0  0  0
    0.7242    5.6822    1.8640 O   0  0  0  0  0  0  0  0  0  0  0  0
    1.8650    5.0963    1.3444 C   0  0  0  0  0  0  0  0  0  0  0  0
    2.4320    5.8802    0.6365 O   0  0  0  0  0  0  0  0  0  0  0  0
    2.5107    3.5878    1.8027 C   0  0  1  0  0  0  0  0  0  0  0  0
    2.4113    3.7852    3.2595 C   0  0  2  0  0  0  0  0  0  0  0  0
    1.2874    3.0429    3.8433 C   0  0  0  0  0  0  0  0  0  0  0  0
    0.5606    4.1227    5.1115 C   0  0  0  0  0  0  0  0  0  0  0  0
   -0.9783    4.0474    5.5242 C   0  0  0  0  0  0  0  0  0  0  0  0
   -1.9626    3.4042    4.5406 C   0  0  0  0  0  0  0  0  0  0  0  0
   -1.8074    2.7817    2.7908 C   0  0  0  0  0  0  0  0  0  0  0  0
    0.1673    1.9278    2.7400 C   0  0  0  0  0  0  0  0  0  0  0  0
    2.5325    5.1969    3.6125 N   0  0  0  0  0  0  0  0  0  0  0  0
    3.4964    5.6532    4.4439 C   0  0  0  0  0  0  0  0  0  0  0  0
    3.6668    6.8455    4.6381 O   0  0  0  0  0  0  0  0  0  0  0  0
    4.3244    4.6171    5.1033 C   0  0  0  0  0  0  0  0  0  0  0  0
    4.8840    3.5614    4.3647 C   0  0  0  0  0  0  0  0  0  0  0  0
    5.6661    2.5872    4.9425 C   0  0  0  0  0  0  0  0  0  0  0  0
    6.0155    2.7274    6.2637 C   0  0  0  0  0  0  0  0  0  0  0  0
    5.5709    3.8392    6.9754 C   0  0  0  0  0  0  0  0  0  0  0  0
    4.6197    4.7115    6.4453 C   0  0  0  0  0  0  0  0  0  0  0  0
    2.2813    2.2139    1.4754 O   0  0  0  0  0  0  0  0  0  0  0  0
   -0.2170    2.2566    4.5852 O   0  0  0  0  0  0  0  0  0  0  0  0
   -3.0768    1.6467    4.1026 O   0  0  0  0  0  0  0  0  0  0  0  0
   -4.0894    2.6624    3.9334 C   0  0  0  0  0  0  0  0  0  0  0  0
   -4.2317    3.8536    4.1944 O   0  0  0  0  0  0  0  0  0  0  0  0
   -4.8490    1.9829    3.0130 C   0  0  0  0  0  0  0  0  0  0  0  0
   -4.8970    0.6243    3.2686 C   0  0  0  0  0  0  0  0  0  0  0  0
   -5.7042   -0.1075    2.5254 C   0  0  0  0  0  0  0  0  0  0  0  0
   -6.4693    0.5772    1.6176 C   0  0  0  0  0  0  0  0  0  0  0  0
   -6.4214    1.9740    1.4568 C   0  0  0  0  0  0  0  0  0  0  0  0
   -5.4626    2.7108    2.0487 C   0  0  0  0  0  0  0  0  0  0  0  0
   -2.1704   -1.3277    1.0967 C   0  0  0  0  0  0  0  0  0  0  0  0
   -3.5397   -0.8433    0.6211 O   0  0  0  0  0  0  0  0  0  0  0  0
   -2.4180   -0.9324    3.5822 O   0  0  0  0  0  0  0  0  0  0  0  0
   -1.5532   -1.8084    4.6918 C   0  0  0  0  0  0  0  0  0  0  0  0
   -1.8898   -2.1216    5.8643 O   0  0  0  0  0  0  0  0  0  0  0  0
   -0.2314   -2.3594    4.2454 C   0  0  0  0  0  0  0  0  0  0  0  0
   -1.1833    2.1958   -1.6305 O   0  0  0  0  0  0  0  0  0  0  0  0
   -1.1492    3.2606   -2.6364 C   0  0  0  0  0  0  0  0  0  0  0  0
   -1.3094    3.1653   -4.3423 S   0  0  0  0  0  0  0  0  0  0  0  0
    0.2614    2.4918   -4.3323 C   0  0  0  0  0  0  0  0  0  0  0  0
   -3.8124    3.9076   -0.7110 C   0  0  0  0  0  0  0  0  0  0  0  0
   -1.4460    6.9344   -1.6632 O   0  0  0  0  0  0  0  0  0  0  0  0
   -2.6555    7.2914   -2.3286 C   0  0  0  0  0  0  0  0  0  0  0  0
   -2.6845    8.1893   -3.1705 O   0  0  0  0  0  0  0  0  0  0  0  0
   -3.9835    6.6290   -2.0208 C   0  0  0  0  0  0  0  0  0  0  0  0
   -3.4042    4.6824    1.7419 H   0  0  0  0  0  0  0  0  0  0  0  0
   -2.9898    6.1727    0.8486 H   0  0  0  0  0  0  0  0  0  0  0  0
   -2.5626    6.1067    2.4781 H   0  0  0  0  0  0  0  0  0  0  0  0
   -1.4235    6.5747    0.1382 H   0  0  0  0  0  0  0  0  0  0  0  0
   -2.5690    1.7907   -2.4816 H   0  0  0  0  0  0  0  0  0  0  0  0
   -4.2855    0.6901   -1.4450 H   0  0  0  0  0  0  0  0  0  0  0  0
   -4.2393    1.8823   -0.3517 H   0  0  0  0  0  0  0  0  0  0  0  0
   -2.1180   -0.0386   -0.7598 H   0  0  0  0  0  0  0  0  0  0  0  0
   -0.7524    0.6158    1.7312 H   0  0  0  0  0  0  0  0  0  0  0  0
   -1.5015    0.8040    4.5618 H   0  0  0  0  0  0  0  0  0  0  0  0
    2.6653    3.3779   -0.2909 H   0  0  0  0  0  0  0  0  0  0  0  0
    1.6182    1.9666   -1.0486 H   0  0  0  0  0  0  0  0  0  0  0  0
    1.2454    3.1940   -2.0658 H   0  0  0  0  0  0  0  0  0  0  0  0
    1.9964    5.2831   -0.9327 H   0  0  0  0  0  0  0  0  0  0  0  0
    2.4515    3.9895   -1.6365 H   0  0  0  0  0  0  0  0  0  0  0  0
    0.8853    4.9554   -1.8357 H   0  0  0  0  0  0  0  0  0  0  0  0
   -1.5108    5.3659    4.0405 H   0  0  0  0  0  0  0  0  0  0  0  0
   -1.8081    4.7287    3.1257 H   0  0  0  0  0  0  0  0  0  0  0  0
    0.7088    3.9976    2.0388 H   0  0  0  0  0  0  0  0  0  0  0  0
    3.5123    3.6714    1.4505 H   0  0  0  0  0  0  0  0  0  0  0  0
    2.9798    3.1170    3.8297 H   0  0  0  0  0  0  0  0  0  0  0  0
    0.9454    5.1179    5.3906 H   0  0  0  0  0  0  0  0  0  0  0  0
   -1.6076    4.8048    6.0058 H   0  0  0  0  0  0  0  0  0  0  0  0
   -2.7583    3.1260    5.2531 H   0  0  0  0  0  0  0  0  0  0  0  0
   -2.7214    2.4096    2.3647 H   0  0  0  0  0  0  0  0  0  0  0  0
    0.6619    1.0775    2.3170 H   0  0  0  0  0  0  0  0  0  0  0  0
    1.9349    5.9382    3.1841 H   0  0  0  0  0  0  0  0  0  0  0  0
    4.6442    3.4121    3.3183 H   0  0  0  0  0  0  0  0  0  0  0  0
    6.0445    1.7776    4.3337 H   0  0  0  0  0  0  0  0  0  0  0  0
    6.6435    1.9842    6.7408 H   0  0  0  0  0  0  0  0  0  0  0  0
    6.0103    4.0336    7.9447 H   0  0  0  0  0  0  0  0  0  0  0  0
    4.1402    5.4560    7.0707 H   0  0  0  0  0  0  0  0  0  0  0  0
    1.3437    2.0943    1.2828 H   0  0  0  0  0  0  0  0  0  0  0  0
    0.5353    2.2381    5.3120 H   0  0  0  0  0  0  0  0  0  0  0  0
   -4.2698    0.1124    3.9954 H   0  0  0  0  0  0  0  0  0  0  0  0
   -5.6981   -1.1552    2.7392 H   0  0  0  0  0  0  0  0  0  0  0  0
   -7.1297   -0.0033    1.0124 H   0  0  0  0  0  0  0  0  0  0  0  0
   -7.1818    2.4803    0.9034 H   0  0  0  0  0  0  0  0  0  0  0  0
   -5.2572    3.7636    1.8853 H   0  0  0  0  0  0  0  0  0  0  0  0
   -2.1018   -2.3647    1.3285 H   0  0  0  0  0  0  0  0  0  0  0  0
   -1.1784   -1.0608    0.7047 H   0  0  0  0  0  0  0  0  0  0  0  0
   -0.4241   -3.0478    3.4347 H   0  0  0  0  0  0  0  0  0  0  0  0
    0.3853   -1.5114    3.9999 H   0  0  0  0  0  0  0  0  0  0  0  0
    0.3278   -2.9467    5.0233 H   0  0  0  0  0  0  0  0  0  0  0  0
   -2.3251    3.6857   -2.7802 H   0  0  0  0  0  0  0  0  0  0  0  0
   -0.3448    3.9616   -2.1662 H   0  0  0  0  0  0  0  0  0  0  0  0
    1.0425    3.1861   -4.0244 H   0  0  0  0  0  0  0  0  0  0  0  0
    0.1677    1.6794   -3.6108 H   0  0  0  0  0  0  0  0  0  0  0  0
    0.3603    2.1979   -5.3453 H   0  0  0  0  0  0  0  0  0  0  0  0
   -4.6723    4.2544   -0.1660 H   0  0  0  0  0  0  0  0  0  0  0  0
   -3.5274    4.9646   -0.8097 H   0  0  0  0  0  0  0  0  0  0  0  0
   -4.2266    3.8765   -1.8489 H   0  0  0  0  0  0  0  0  0  0  0  0
   -3.9792    5.6817   -2.5600 H   0  0  0  0  0  0  0  0  0  0  0  0
   -4.1670    6.6424   -0.9408 H   0  0  0  0  0  0  0  0  0  0  0  0
   -4.8993    7.0588   -2.4442 H   0  0  0  0  0  0  0  0  0  0  0  0
  1 66  1  0  0  0  0
  1 67  1  0  0  0  0
  1 68  1  0  0  0  0
  1  2  1  0  0  0  0
  2  3  2  0  0  0  0
  2 19  1  0  0  0  0
  3  4  1  0  0  0  0
  3 15  1  0  0  0  0
  4  5  1  0  0  0  0
  4 62  1  0  0  0  0
  4 69  1  1  0  0  0
  5  7  1  0  0  0  0
  5  6  2  0  0  0  0
  7  8  1  0  0  0  0
  7 12  1  0  0  0  0
  7 61  1  6  0  0  0
  8  9  1  0  0  0  0
  8 70  1  6  0  0  0
  8 57  1  0  0  0  0
  9 10  1  0  0  0  0
  9 71  1  0  0  0  0
  9 72  1  0  0  0  0
 10 11  1  0  0  0  0
 10 52  1  0  0  0  0
 10 73  1  1  0  0  0
 11 51  1  0  0  0  0
 11 53  1  1  0  0  0
 12 11  1  0  0  0  0
 12 13  1  0  0  0  0
 12 74  1  1  0  0  0
 13 14  1  0  0  0  0
 13 75  1  1  0  0  0
 13 42  1  0  0  0  0
 14 15  1  0  0  0  0
 14 18  1  0  0  0  0
 14 41  1  1  0  0  0
 15 16  1  0  0  0  0
 15 17  1  0  0  0  0
 16 76  1  0  0  0  0
 16 77  1  0  0  0  0
 16 78  1  0  0  0  0
 17 79  1  0  0  0  0
 17 80  1  0  0  0  0
 17 81  1  0  0  0  0
 18 19  1  0  0  0  0
 18 82  1  0  0  0  0
 18 83  1  0  0  0  0
 19 84  1  6  0  0  0
 19 20  1  0  0  0  0
 20 21  1  0  0  0  0
 21 22  2  0  0  0  0
 21 23  1  0  0  0  0
 23 40  1  0  0  0  0
 23 85  1  6  0  0  0
 24 31  1  0  0  0  0
 24 86  1  1  0  0  0
 24 25  1  0  0  0  0
 24 23  1  0  0  0  0
 25 26  2  0  0  0  0
 25 30  1  0  0  0  0
 26 27  1  0  0  0  0
 26 87  1  0  0  0  0
 27 28  2  0  0  0  0
 27 88  1  0  0  0  0
 28 29  1  0  0  0  0
 28 89  1  0  0  0  0
 29 30  2  0  0  0  0
 29 90  1  0  0  0  0
 30 91  1  0  0  0  0
 31 32  1  0  0  0  0
 31 92  1  0  0  0  0
 32 33  2  0  0  0  0
 32 34  1  0  0  0  0
 34 35  2  0  0  0  0
 34 39  1  0  0  0  0
 35 36  1  0  0  0  0
 35 93  1  0  0  0  0
 36 37  2  0  0  0  0
 36 94  1  0  0  0  0
 37 38  1  0  0  0  0
 37 95  1  0  0  0  0
 38 39  2  0  0  0  0
 38 96  1  0  0  0  0
 39 97  1  0  0  0  0
 40 98  1  0  0  0  0
 41 99  1  0  0  0  0
 42 43  1  0  0  0  0
 43 44  2  0  0  0  0
 43 45  1  0  0  0  0
 45 46  2  0  0  0  0
 45 50  1  0  0  0  0
 46 47  1  0  0  0  0
 46100  1  0  0  0  0
 47 48  2  0  0  0  0
 47101  1  0  0  0  0
 48 49  1  0  0  0  0
 48102  1  0  0  0  0
 49 50  2  0  0  0  0
 49103  1  0  0  0  0
 50104  1  0  0  0  0
 51 52  1  0  0  0  0
 51105  1  0  0  0  0
 51106  1  0  0  0  0
 53 54  1  0  0  0  0
 54 55  2  0  0  0  0
 54 56  1  0  0  0  0
 56107  1  0  0  0  0
 56108  1  0  0  0  0
 56109  1  0  0  0  0
 57 58  1  0  0  0  0
 58 59  1  0  0  0  0
 58110  1  0  0  0  0
 58111  1  0  0  0  0
 59 60  1  0  0  0  0
 60112  1  0  0  0  0
 60113  1  0  0  0  0
 60114  1  0  0  0  0
 61115  1  0  0  0  0
 61116  1  0  0  0  0
 61117  1  0  0  0  0
 62 63  1  0  0  0  0
 63 64  2  0  0  0  0
 63 65  1  0  0  0  0
 65118  1  0  0  0  0
 65119  1  0  0  0  0
 65120  1  0  0  0  0
M  END
>  <DRUGBANK_ID>
DB12633

>  <COMMON_NAME>
BMS-184476

>  <CAS_NUMBER>
160237-25-2

>  <UNII>
3811W2NBZ8

>  <SYNONYMS>
7-methylthiomethylpaclitaxel

$$$$
