
 OpenBabel10282417133D

 38 40  0  0  1  0  0  0  0  0999 V2000
    0.7212   -3.1148    0.2077 N   0  0  0  0  0  0  0  0  0  0  0  0
    2.0200   -2.4948    0.0332 C   0  0  1  0  0  0  0  0  0  0  0  0
   -0.1002   -3.0127    1.3011 C   0  0  0  0  0  0  0  0  0  0  0  0
    0.1280   -3.9817   -0.6736 C   0  0  0  0  0  0  0  0  0  0  0  0
    2.9870   -2.8903    1.1419 C   0  0  1  0  0  0  0  0  0  0  0  0
    2.5904   -2.9508   -1.2299 O   0  0  0  0  0  0  0  0  0  0  0  0
   -1.1492   -3.8515    1.0122 C   0  0  0  0  0  0  0  0  0  0  0  0
    0.0987   -2.2777    2.4293 N   0  0  0  0  0  0  0  0  0  0  0  0
   -1.0031   -4.4599   -0.2067 N   0  0  0  0  0  0  0  0  0  0  0  0
    3.7224   -4.0908    0.5463 C   0  0  1  0  0  0  0  0  0  0  0  0
    3.8880   -1.8494    1.5401 O   0  0  0  0  0  0  0  0  0  0  0  0
    3.6916   -3.8519   -0.9771 C   0  0  1  0  0  0  0  0  0  0  0  0
   -2.2077   -3.9855    1.9894 C   0  0  0  0  0  0  0  0  0  0  0  0
   -0.8561   -2.4128    3.3171 C   0  0  0  0  0  0  0  0  0  0  0  0
    4.9695   -4.2645    1.2022 O   0  0  0  0  0  0  0  0  0  0  0  0
    3.7483   -5.0597   -1.9148 C   0  0  0  0  0  0  0  0  0  0  0  0
   -1.9622   -3.2169    3.1242 N   0  0  0  0  0  0  0  0  0  0  0  0
   -3.2012   -4.6719    1.8713 O   0  0  0  0  0  0  0  0  0  0  0  0
   -0.8149   -1.7590    4.5036 N   0  0  0  0  0  0  0  0  0  0  0  0
    6.2114   -3.2615    1.0265 P   0  0  0  0  0  0  0  0  0  0  0  0
    3.9378   -4.5969   -3.2641 O   0  0  0  0  0  0  0  0  0  0  0  0
    7.3189   -4.3150    0.5833 O   0  0  0  0  0  0  0  0  0  0  0  0
    5.9321   -2.4748   -0.3216 O   0  0  0  0  0  0  0  0  0  0  0  0
    6.6429   -2.3663    2.1309 O   0  0  0  0  0  0  0  0  0  0  0  0
    1.8602   -1.4117   -0.0311 H   0  0  0  0  0  0  0  0  0  0  0  0
    0.5684   -4.2364   -1.6303 H   0  0  0  0  0  0  0  0  0  0  0  0
    2.4926   -3.1900    2.0702 H   0  0  0  0  0  0  0  0  0  0  0  0
    3.1234   -4.9929    0.7414 H   0  0  0  0  0  0  0  0  0  0  0  0
    4.0541   -1.1476    0.8947 H   0  0  0  0  0  0  0  0  0  0  0  0
    4.5308   -3.3265   -1.3943 H   0  0  0  0  0  0  0  0  0  0  0  0
    4.6256   -5.6715   -1.6764 H   0  0  0  0  0  0  0  0  0  0  0  0
    2.8438   -5.6650   -1.9044 H   0  0  0  0  0  0  0  0  0  0  0  0
   -2.6757   -3.2831    3.8285 H   0  0  0  0  0  0  0  0  0  0  0  0
   -0.0352   -1.1435    4.7006 H   0  0  0  0  0  0  0  0  0  0  0  0
   -1.5490   -1.8087    5.1956 H   0  0  0  0  0  0  0  0  0  0  0  0
    3.3331   -3.8466   -3.4129 H   0  0  0  0  0  0  0  0  0  0  0  0
    7.7282   -4.6808    1.3864 H   0  0  0  0  0  0  0  0  0  0  0  0
    5.0711   -2.0421   -0.2438 H   0  0  0  0  0  0  0  0  0  0  0  0
  1  3  1  0  0  0  0
  1  4  1  0  0  0  0
  2  5  1  0  0  0  0
  2  6  1  0  0  0  0
  2 25  1  6  0  0  0
  2  1  1  0  0  0  0
  3  7  2  0  0  0  0
  3  8  1  0  0  0  0
  4  9  2  0  0  0  0
  4 26  1  0  0  0  0
  5 10  1  0  0  0  0
  5 11  1  0  0  0  0
  5 27  1  1  0  0  0
  6 12  1  0  0  0  0
  7 13  1  0  0  0  0
  7  9  1  0  0  0  0
  8 14  2  0  0  0  0
 10 15  1  0  0  0  0
 10 12  1  0  0  0  0
 10 28  1  1  0  0  0
 11 29  1  0  0  0  0
 12 16  1  0  0  0  0
 12 30  1  6  0  0  0
 13 17  1  0  0  0  0
 13 18  2  0  0  0  0
 14 19  1  0  0  0  0
 14 17  1  0  0  0  0
 15 20  1  0  0  0  0
 16 21  1  0  0  0  0
 16 31  1  0  0  0  0
 16 32  1  0  0  0  0
 17 33  1  0  0  0  0
 19 34  1  0  0  0  0
 19 35  1  0  0  0  0
 20 22  1  0  0  0  0
 20 23  1  0  0  0  0
 20 24  2  0  0  0  0
 21 36  1  0  0  0  0
 22 37  1  0  0  0  0
 23 38  1  0  0  0  0
M  END
>  <DRUGBANK_ID>
DB03315

>  <SECONDARY_ACCESSION_NUMBERS>
EXPT00169

>  <COMMON_NAME>
Guanosine 3'-monophosphate

>  <CAS_NUMBER>
117-68-0

>  <UNII>
839SG0O89X

>  <SYNONYMS>
3'-GMP; 3'-Guanylic acid; Guanosine 3'-phosphate; Guanosine-3'-monophosphate; Guanylic acid

$$$$
