1168
 OpenBabel10282417113D

 35 35  0  0  0  0  0  0  0  0999 V2000
    1.0175    0.0035   -0.1011 O   0  0  0  0  0  0  0  0  0  0  0  0
    2.9842    0.0170   -1.2305 N   0  0  0  0  0  0  0  0  0  0  0  0
    6.6607   -0.4004    4.6340 N   0  0  0  0  0  0  0  0  0  0  0  0
    7.3686   -0.3544    5.8998 N   0  0  0  0  0  0  0  0  0  0  0  0
    4.4379   -0.0327   -1.3950 C   0  0  0  0  0  0  0  0  0  0  0  0
    4.4896    0.0305    3.5708 C   0  0  0  0  0  0  0  0  0  0  0  0
    2.9477    0.1392    1.2397 C   0  0  0  0  0  0  0  0  0  0  0  0
    2.2468    0.0647   -0.0654 C   0  0  0  0  0  0  0  0  0  0  0  0
    5.2800    0.0411    4.8533 C   0  0  0  0  0  0  0  0  0  0  0  0
    4.9038   -1.3144   -2.0622 C   0  0  0  0  0  0  0  0  0  0  0  0
    4.9273    1.2023   -2.1409 C   0  0  0  0  0  0  0  0  0  0  0  0
    3.3404   -0.7637    3.4431 C   0  0  0  0  0  0  0  0  0  0  0  0
    4.8540    0.8834    2.5246 C   0  0  0  0  0  0  0  0  0  0  0  0
    2.5740   -0.7195    2.2757 C   0  0  0  0  0  0  0  0  0  0  0  0
    4.0297    1.0066    1.4141 C   0  0  0  0  0  0  0  0  0  0  0  0
    8.7407   -0.7968    5.6667 C   0  0  0  0  0  0  0  0  0  0  0  0
    2.4098   -0.0434   -2.0642 H   0  0  0  0  0  0  0  0  0  0  0  0
    6.6186   -1.3591    4.2740 H   0  0  0  0  0  0  0  0  0  0  0  0
    7.4039    0.6055    6.2594 H   0  0  0  0  0  0  0  0  0  0  0  0
    4.9246   -0.0558   -0.4246 H   0  0  0  0  0  0  0  0  0  0  0  0
    5.2614    1.0681    5.2419 H   0  0  0  0  0  0  0  0  0  0  0  0
    4.7905   -0.5969    5.5988 H   0  0  0  0  0  0  0  0  0  0  0  0
    4.5466   -1.3894   -3.0914 H   0  0  0  0  0  0  0  0  0  0  0  0
    6.0000   -1.3428   -2.0696 H   0  0  0  0  0  0  0  0  0  0  0  0
    4.5526   -2.1882   -1.5035 H   0  0  0  0  0  0  0  0  0  0  0  0
    4.5719    2.1225   -1.6636 H   0  0  0  0  0  0  0  0  0  0  0  0
    6.0215    1.2314   -2.1512 H   0  0  0  0  0  0  0  0  0  0  0  0
    4.5705    1.2079   -3.1754 H   0  0  0  0  0  0  0  0  0  0  0  0
    3.0453   -1.4281    4.2522 H   0  0  0  0  0  0  0  0  0  0  0  0
    5.7804    1.4529    2.5708 H   0  0  0  0  0  0  0  0  0  0  0  0
    1.6968   -1.3548    2.1780 H   0  0  0  0  0  0  0  0  0  0  0  0
    4.2769    1.7379    0.6514 H   0  0  0  0  0  0  0  0  0  0  0  0
    9.2522   -0.1446    4.9508 H   0  0  0  0  0  0  0  0  0  0  0  0
    9.2940   -0.7719    6.6096 H   0  0  0  0  0  0  0  0  0  0  0  0
    8.7619   -1.8263    5.2938 H   0  0  0  0  0  0  0  0  0  0  0  0
  1  8  2  0  0  0  0
  2  5  1  0  0  0  0
  2  8  1  0  0  0  0
  2 17  1  0  0  0  0
  3  4  1  0  0  0  0
  3  9  1  0  0  0  0
  3 18  1  0  0  0  0
  4 16  1  0  0  0  0
  4 19  1  0  0  0  0
  5 10  1  0  0  0  0
  5 11  1  0  0  0  0
  5 20  1  0  0  0  0
  6  9  1  0  0  0  0
  6 12  2  0  0  0  0
  6 13  1  0  0  0  0
  7  8  1  0  0  0  0
  7 14  2  0  0  0  0
  7 15  1  0  0  0  0
  9 21  1  0  0  0  0
  9 22  1  0  0  0  0
 10 23  1  0  0  0  0
 10 24  1  0  0  0  0
 10 25  1  0  0  0  0
 11 26  1  0  0  0  0
 11 27  1  0  0  0  0
 11 28  1  0  0  0  0
 12 14  1  0  0  0  0
 12 29  1  0  0  0  0
 13 15  2  0  0  0  0
 13 30  1  0  0  0  0
 14 31  1  0  0  0  0
 15 32  1  0  0  0  0
 16 33  1  0  0  0  0
 16 34  1  0  0  0  0
 16 35  1  0  0  0  0
M  END
>  <DRUGBANK_ID>
DB01168

>  <SECONDARY_ACCESSION_NUMBERS>
APRD00695

>  <COMMON_NAME>
Procarbazine

>  <CAS_NUMBER>
671-16-9

>  <UNII>
35S93Y190K

>  <SYNONYMS>
1-Methyl-2-(p-(isopropylcarbamoyl)benzyl)hydrazine; 2-(p-Isopropylcarbamoylbenzyl)-1-methylhydrazine; 4-((2-Methylhydrazino)methyl)-N-isopropylbenzamide; N-(1-Methylethyl)-4-((2-methylhydrazino)methyl)benzamide; N-4-Isopropylcarbamoylbenzyl-N'-methylhydrazine; N-isopropyl-4-[(2-methylhydrazino)methyl]benzamide; N-Isopropyl-p-(2-methylhydrazinomethyl)-benzamide; N-Isopropyl-Î±-(2-methylhydrazino)-p-toluamide; p-(2-Methylhydrazinomethyl)-N-isopropylbenzamide; Procarbazin; Procarbazina; Procarbazine; Procarbazinum

$$$$
