
 OpenBabel10282417153D

 41 43  0  0  0  0  0  0  0  0999 V2000
   -0.0368    0.9463   -0.0096 C   0  0  0  0  0  0  0  0  0  0  0  0
    0.1038   -1.9659   -0.0071 C   0  0  0  0  0  0  0  0  0  0  0  0
   -1.1046   -1.3157   -0.0227 C   0  0  0  0  0  0  0  0  0  0  0  0
   -1.1624    0.0832   -0.0166 C   0  0  0  0  0  0  0  0  0  0  0  0
    1.1782    0.2168    0.0307 C   0  0  0  0  0  0  0  0  0  0  0  0
    1.2487   -1.1918    0.0170 C   0  0  0  0  0  0  0  0  0  0  0  0
    2.3742    0.8141    0.1119 F   0  0  0  0  0  0  0  0  0  0  0  0
   -0.0887    2.4324    0.0055 N   0  0  0  0  0  0  0  0  0  0  0  0
   -1.2115    3.2748    0.0347 C   0  0  0  0  0  0  0  0  0  0  0  0
   -1.1765    4.5082    0.0177 O   0  0  0  0  0  0  0  0  0  0  0  0
   -2.4607    2.7640    0.0144 N   0  0  0  0  0  0  0  0  0  0  0  0
    1.1823    3.1583    0.0310 C   0  0  0  0  0  0  0  0  0  0  0  0
    2.0976    3.0356   -1.0169 C   0  0  0  0  0  0  0  0  0  0  0  0
    3.3311    3.7122   -0.9608 C   0  0  0  0  0  0  0  0  0  0  0  0
    3.6374    4.5696    0.1057 C   0  0  0  0  0  0  0  0  0  0  0  0
    2.6329    4.7222    1.0744 C   0  0  0  0  0  0  0  0  0  0  0  0
    1.4517    4.0071    1.0641 N   0  0  0  0  0  0  0  0  0  0  0  0
    4.9979    5.2386    0.0785 C   0  0  0  0  0  0  0  0  0  0  0  0
    5.4555    5.9735    1.1458 N   0  0  0  0  0  0  0  0  0  0  0  0
    5.7355    5.1235   -0.8877 O   0  0  0  0  0  0  0  0  0  0  0  0
   -2.4313    0.4887    0.0096 F   0  0  0  0  0  0  0  0  0  0  0  0
    2.7774    5.6333    2.2212 C   0  0  0  0  0  0  0  0  0  0  0  0
    3.0472    5.1127    3.5014 C   0  0  0  0  0  0  0  0  0  0  0  0
    3.5121    5.9479    4.5229 C   0  0  0  0  0  0  0  0  0  0  0  0
    3.7202    7.3007    4.2697 C   0  0  0  0  0  0  0  0  0  0  0  0
    3.4312    7.8486    3.0281 C   0  0  0  0  0  0  0  0  0  0  0  0
    2.9209    7.0238    2.0257 C   0  0  0  0  0  0  0  0  0  0  0  0
    2.8066    7.5380    0.7909 F   0  0  0  0  0  0  0  0  0  0  0  0
    4.2665    8.0708    5.2193 F   0  0  0  0  0  0  0  0  0  0  0  0
    0.1398   -3.0500    0.0028 H   0  0  0  0  0  0  0  0  0  0  0  0
   -2.0442   -1.8642   -0.0280 H   0  0  0  0  0  0  0  0  0  0  0  0
    2.2233   -1.6714    0.0391 H   0  0  0  0  0  0  0  0  0  0  0  0
   -2.6967    1.7949   -0.0314 H   0  0  0  0  0  0  0  0  0  0  0  0
   -3.2527    3.3887    0.0120 H   0  0  0  0  0  0  0  0  0  0  0  0
    1.8906    2.3897   -1.8643 H   0  0  0  0  0  0  0  0  0  0  0  0
    4.0555    3.5584   -1.7606 H   0  0  0  0  0  0  0  0  0  0  0  0
    6.2927    6.5303    1.0323 H   0  0  0  0  0  0  0  0  0  0  0  0
    5.0246    6.0393    2.0477 H   0  0  0  0  0  0  0  0  0  0  0  0
    2.9797    4.0395    3.6771 H   0  0  0  0  0  0  0  0  0  0  0  0
    3.7650    5.5406    5.4980 H   0  0  0  0  0  0  0  0  0  0  0  0
    3.6872    8.8803    2.8101 H   0  0  0  0  0  0  0  0  0  0  0  0
  1  8  1  0  0  0  0
  1  5  1  0  0  0  0
  2  3  2  0  0  0  0
  2 30  1  0  0  0  0
  3  4  1  0  0  0  0
  3 31  1  0  0  0  0
  4  1  2  0  0  0  0
  4 21  1  0  0  0  0
  5  6  2  0  0  0  0
  5  7  1  0  0  0  0
  6  2  1  0  0  0  0
  6 32  1  0  0  0  0
  8  9  1  0  0  0  0
  8 12  1  0  0  0  0
  9 10  2  0  0  0  0
  9 11  1  0  0  0  0
 11 33  1  0  0  0  0
 11 34  1  0  0  0  0
 12 17  1  0  0  0  0
 12 13  2  0  0  0  0
 13 14  1  0  0  0  0
 13 35  1  0  0  0  0
 14 15  2  0  0  0  0
 14 36  1  0  0  0  0
 15 16  1  0  0  0  0
 15 18  1  0  0  0  0
 16 17  2  0  0  0  0
 16 22  1  0  0  0  0
 18 19  1  0  0  0  0
 18 20  2  0  0  0  0
 19 37  1  0  0  0  0
 19 38  1  0  0  0  0
 22 23  2  0  0  0  0
 23 24  1  0  0  0  0
 23 39  1  0  0  0  0
 24 25  2  0  0  0  0
 24 40  1  0  0  0  0
 25 26  1  0  0  0  0
 25 29  1  0  0  0  0
 26 27  2  0  0  0  0
 26 41  1  0  0  0  0
 27 22  1  0  0  0  0
 27 28  1  0  0  0  0
M  END
>  <DRUGBANK_ID>
DB05470

>  <COMMON_NAME>
VX-702

>  <CAS_NUMBER>
745833-23-2

>  <UNII>
527E7SK68P

$$$$
