
 OpenBabel10282417203D

 37 40  0  0  1  0  0  0  0  0999 V2000
    3.8907   -0.8440    0.3169 C   0  0  0  0  0  0  0  0  0  0  0  0
    3.3392   -1.3227   -0.8680 C   0  0  0  0  0  0  0  0  0  0  0  0
    2.1130   -0.8342   -1.3016 C   0  0  0  0  0  0  0  0  0  0  0  0
    1.4105    0.1045   -0.5260 C   0  0  0  0  0  0  0  0  0  0  0  0
    1.9753    0.6207    0.6535 C   0  0  0  0  0  0  0  0  0  0  0  0
    3.2269    0.1370    1.0607 C   0  0  0  0  0  0  0  0  0  0  0  0
    1.2727    1.6877    1.4715 C   0  0  0  0  0  0  0  0  0  0  0  0
   -0.1003    2.0136    1.0538 N   0  0  0  0  0  0  0  0  0  0  0  0
   -0.2690    1.9297   -0.4090 C   0  0  2  0  0  0  0  0  0  0  0  0
   -0.0079    0.4835   -0.9052 C   0  0  2  0  0  0  0  0  0  0  0  0
   -1.0868   -0.4871   -0.3872 C   0  0  0  0  0  0  0  0  0  0  0  0
   -0.7705   -1.8322   -0.1117 C   0  0  0  0  0  0  0  0  0  0  0  0
   -1.7099   -2.6852    0.4522 C   0  0  0  0  0  0  0  0  0  0  0  0
   -3.0002   -2.2580    0.6947 C   0  0  0  0  0  0  0  0  0  0  0  0
   -3.3613   -0.9383    0.4050 C   0  0  0  0  0  0  0  0  0  0  0  0
   -2.4025   -0.0361   -0.1261 C   0  0  0  0  0  0  0  0  0  0  0  0
   -2.7523    1.4397   -0.2237 C   0  0  0  0  0  0  0  0  0  0  0  0
   -1.6762    2.2987   -0.8962 C   0  0  0  0  0  0  0  0  0  0  0  0
   -3.8760   -3.1632    1.2328 O   0  0  0  0  0  0  0  0  0  0  0  0
   -1.3120   -3.9384    0.8303 O   0  0  0  0  0  0  0  0  0  0  0  0
    4.8372   -1.2445    0.6695 H   0  0  0  0  0  0  0  0  0  0  0  0
    3.8456   -2.0965   -1.4382 H   0  0  0  0  0  0  0  0  0  0  0  0
    1.6648   -1.2372   -2.2076 H   0  0  0  0  0  0  0  0  0  0  0  0
    3.6817    0.5019    1.9784 H   0  0  0  0  0  0  0  0  0  0  0  0
    1.8756    2.6040    1.4412 H   0  0  0  0  0  0  0  0  0  0  0  0
    1.2377    1.3540    2.5158 H   0  0  0  0  0  0  0  0  0  0  0  0
   -0.3676    2.9245    1.4167 H   0  0  0  0  0  0  0  0  0  0  0  0
    0.4419    2.6266   -0.8757 H   0  0  0  0  0  0  0  0  0  0  0  0
   -0.0725    0.4877   -2.0032 H   0  0  0  0  0  0  0  0  0  0  0  0
    0.2320   -2.2146   -0.2463 H   0  0  0  0  0  0  0  0  0  0  0  0
   -4.3584   -0.5812    0.6405 H   0  0  0  0  0  0  0  0  0  0  0  0
   -3.7056    1.5877   -0.7458 H   0  0  0  0  0  0  0  0  0  0  0  0
   -2.8874    1.8036    0.8023 H   0  0  0  0  0  0  0  0  0  0  0  0
   -1.8854    3.3652   -0.7524 H   0  0  0  0  0  0  0  0  0  0  0  0
   -1.7111    2.1332   -1.9840 H   0  0  0  0  0  0  0  0  0  0  0  0
   -4.7069   -2.7335    1.4629 H   0  0  0  0  0  0  0  0  0  0  0  0
   -1.1619   -4.4326    0.0114 H   0  0  0  0  0  0  0  0  0  0  0  0
  1  2  2  0  0  0  0
  1  6  1  0  0  0  0
  1 21  1  0  0  0  0
  2  3  1  0  0  0  0
  2 22  1  0  0  0  0
  3  4  2  0  0  0  0
  3 23  1  0  0  0  0
  4  5  1  0  0  0  0
  5  6  2  0  0  0  0
  5  7  1  0  0  0  0
  6 24  1  0  0  0  0
  7  8  1  0  0  0  0
  7 25  1  0  0  0  0
  7 26  1  0  0  0  0
  8 27  1  0  0  0  0
  9  8  1  0  0  0  0
  9 10  1  0  0  0  0
  9 18  1  0  0  0  0
  9 28  1  1  0  0  0
 10  4  1  0  0  0  0
 10 11  1  0  0  0  0
 10 29  1  6  0  0  0
 11 12  2  0  0  0  0
 11 16  1  0  0  0  0
 12 13  1  0  0  0  0
 12 30  1  0  0  0  0
 13 14  2  0  0  0  0
 13 20  1  0  0  0  0
 14 15  1  0  0  0  0
 14 19  1  0  0  0  0
 15 16  2  0  0  0  0
 15 31  1  0  0  0  0
 16 17  1  0  0  0  0
 17 18  1  0  0  0  0
 17 32  1  0  0  0  0
 17 33  1  0  0  0  0
 18 34  1  0  0  0  0
 18 35  1  0  0  0  0
 19 36  1  0  0  0  0
 20 37  1  0  0  0  0
M  END
>  <DRUGBANK_ID>
DB12890

>  <COMMON_NAME>
Dihydrexidine

>  <CAS_NUMBER>
123039-93-0

>  <UNII>
32D64VH037

$$$$
