
 OpenBabel10282417203D

 28 28  0  0  0  0  0  0  0  0999 V2000
    1.4202   -0.1452    0.0391 C   0  0  0  0  0  0  0  0  0  0  0  0
    0.5515   -1.2442    0.0286 C   0  0  0  0  0  0  0  0  0  0  0  0
    0.8612    1.1388   -0.0104 C   0  0  0  0  0  0  0  0  0  0  0  0
    2.8251   -0.3397    0.1389 N   0  0  0  0  0  0  0  0  0  0  0  0
   -0.8377   -1.0331   -0.0091 C   0  0  0  0  0  0  0  0  0  0  0  0
   -0.5092    1.3586    0.0272 C   0  0  0  0  0  0  0  0  0  0  0  0
    3.7539    0.6863    0.2282 C   0  0  0  0  0  0  0  0  0  0  0  0
   -1.3561    0.2730   -0.0143 C   0  0  0  0  0  0  0  0  0  0  0  0
    5.1862    0.2838    0.4018 C   0  0  0  0  0  0  0  0  0  0  0  0
    3.5179    1.8981    0.1816 O   0  0  0  0  0  0  0  0  0  0  0  0
   -2.8048    0.4730   -0.1584 C   0  0  0  0  0  0  0  0  0  0  0  0
   -3.3999    1.6185   -0.2293 N   0  0  0  0  0  0  0  0  0  0  0  0
   -4.7702    1.6902   -0.4082 N   0  0  0  0  0  0  0  0  0  0  0  0
   -5.7332    0.7061   -0.5489 C   0  0  0  0  0  0  0  0  0  0  0  0
   -7.0001    1.1812   -0.6975 N   0  0  0  0  0  0  0  0  0  0  0  0
   -5.6654   -0.9605   -0.5691 S   0  0  0  0  0  0  0  0  0  0  0  0
    0.9192   -2.2682    0.0352 H   0  0  0  0  0  0  0  0  0  0  0  0
    1.4650    2.0316   -0.0884 H   0  0  0  0  0  0  0  0  0  0  0  0
    3.1510   -1.2960    0.2293 H   0  0  0  0  0  0  0  0  0  0  0  0
   -1.5114   -1.8890   -0.0371 H   0  0  0  0  0  0  0  0  0  0  0  0
   -0.8880    2.3747    0.0651 H   0  0  0  0  0  0  0  0  0  0  0  0
    5.7497    0.6802   -0.4493 H   0  0  0  0  0  0  0  0  0  0  0  0
    5.5581    0.7600    1.3161 H   0  0  0  0  0  0  0  0  0  0  0  0
    5.3330   -0.7930    0.4697 H   0  0  0  0  0  0  0  0  0  0  0  0
   -3.3166   -0.4769   -0.2303 H   0  0  0  0  0  0  0  0  0  0  0  0
   -5.0905    2.6550   -0.4486 H   0  0  0  0  0  0  0  0  0  0  0  0
   -7.7094    0.4617   -0.7913 H   0  0  0  0  0  0  0  0  0  0  0  0
   -7.2930    2.1444   -0.7155 H   0  0  0  0  0  0  0  0  0  0  0  0
  1  2  2  0  0  0  0
  1  3  1  0  0  0  0
  1  4  1  0  0  0  0
  2  5  1  0  0  0  0
  2 17  1  0  0  0  0
  3  6  2  0  0  0  0
  3 18  1  0  0  0  0
  4  7  1  0  0  0  0
  4 19  1  0  0  0  0
  5  8  2  0  0  0  0
  5 20  1  0  0  0  0
  6  8  1  0  0  0  0
  6 21  1  0  0  0  0
  7  9  1  0  0  0  0
  7 10  2  0  0  0  0
  8 11  1  0  0  0  0
  9 22  1  0  0  0  0
  9 23  1  0  0  0  0
  9 24  1  0  0  0  0
 11 12  2  0  0  0  0
 11 25  1  0  0  0  0
 12 13  1  0  0  0  0
 13 14  1  0  0  0  0
 13 26  1  0  0  0  0
 14 15  1  0  0  0  0
 14 16  2  0  0  0  0
 15 27  1  0  0  0  0
 15 28  1  0  0  0  0
M  END
>  <DRUGBANK_ID>
DB12829

>  <COMMON_NAME>
Amithiozone

>  <CAS_NUMBER>
104-06-3

>  <UNII>
MMG78X7SSR

>  <SYNONYMS>
Amithiozone; Thioacetazone; Thioac√©tazone; Thioacetazonum; Tioacetazona

$$$$
