
 OpenBabel10282417143D

 92 96  0  0  0  0  0  0  0  0999 V2000
    2.5462    4.0965    2.3409 C   0  0  0  0  0  0  0  0  0  0  0  0
    2.1470    1.9420    1.7793 C   0  0  0  0  0  0  0  0  0  0  0  0
    3.3428    6.1008    3.7233 C   0  0  0  0  0  0  0  0  0  0  0  0
    1.1836    2.4600    1.8159 N   0  0  0  0  0  0  0  0  0  0  0  0
    1.1620    1.0016    0.3527 C   0  0  0  0  0  0  0  0  0  0  0  0
    2.1551   -0.1448    0.7559 C   0  0  0  0  0  0  0  0  0  0  0  0
    3.5337    8.3847    4.7849 C   0  0  0  0  0  0  0  0  0  0  0  0
    0.0894    1.6847    0.3896 C   0  0  0  0  0  0  0  0  0  0  0  0
    2.2622    1.6827   -0.0790 C   0  0  0  0  0  0  0  0  0  0  0  0
    2.9114   -1.0175   -1.0322 C   0  0  0  0  0  0  0  0  0  0  0  0
    3.5210   10.0997    5.9815 C   0  0  0  0  0  0  0  0  0  0  0  0
    3.7554   10.3006    4.4413 N   0  0  0  0  0  0  0  0  0  0  0  0
   -0.8311    2.6343   -0.0609 C   0  0  0  0  0  0  0  0  0  0  0  0
    3.4961    0.1782   -1.4505 C   0  0  0  0  0  0  0  0  0  0  0  0
    2.1959   10.5800    5.8867 C   0  0  0  0  0  0  0  0  0  0  0  0
    3.4189   11.4941    7.6281 C   0  0  0  0  0  0  0  0  0  0  0  0
    2.4024   10.3905    4.6005 C   0  0  0  0  0  0  0  0  0  0  0  0
   -0.5590    3.4929    1.0392 C   0  0  0  0  0  0  0  0  0  0  0  0
    4.7484    0.5558   -1.2744 O   0  0  0  0  0  0  0  0  0  0  0  0
    2.6259    0.9423   -1.8159 O   0  0  0  0  0  0  0  0  0  0  0  0
    0.9799   10.2386    6.6214 C   0  0  0  0  0  0  0  0  0  0  0  0
    2.2827   12.7957    8.0952 C   0  0  0  0  0  0  0  0  0  0  0  0
    1.5411    9.5830    3.7879 C   0  0  0  0  0  0  0  0  0  0  0  0
   -1.1147    3.9887    2.1348 C   0  0  0  0  0  0  0  0  0  0  0  0
    0.6726    4.1795    1.0647 N   0  0  0  0  0  0  0  0  0  0  0  0
    0.8853   12.3990    7.9321 C   0  0  0  0  0  0  0  0  0  0  0  0
    2.0607    8.3075    3.2991 C   0  0  0  0  0  0  0  0  0  0  0  0
   -0.4041    4.6742    2.9985 C   0  0  0  0  0  0  0  0  0  0  0  0
   -2.4714    4.1063    2.1973 C   0  0  0  0  0  0  0  0  0  0  0  0
    0.7298    4.2920    2.7437 C   0  0  0  0  0  0  0  0  0  0  0  0
   -0.0167   12.2209    8.9061 O   0  0  0  0  0  0  0  0  0  0  0  0
    0.5507   12.2517    6.7726 O   0  0  0  0  0  0  0  0  0  0  0  0
    1.5730    7.1423    3.6697 N   0  0  0  0  0  0  0  0  0  0  0  0
    3.1936    8.1511    2.4674 C   0  0  0  0  0  0  0  0  0  0  0  0
   -0.4336    5.5162    4.0629 C   0  0  0  0  0  0  0  0  0  0  0  0
   -2.9546    3.6141    3.5136 C   0  0  0  0  0  0  0  0  0  0  0  0
    2.1105    4.8474    3.7604 C   0  0  0  0  0  0  0  0  0  0  0  0
    1.9359    6.1598    2.7823 C   0  0  0  0  0  0  0  0  0  0  0  0
    3.3215    6.7838    1.9964 C   0  0  0  0  0  0  0  0  0  0  0  0
    4.2553    9.1371    2.2663 C   0  0  0  0  0  0  0  0  0  0  0  0
   -2.4302    4.2860    4.7195 C   0  0  0  0  0  0  0  0  0  0  0  0
    4.7767    6.1236    1.9536 C   0  0  0  0  0  0  0  0  0  0  0  0
   -3.1213    5.1370    5.4860 O   0  0  0  0  0  0  0  0  0  0  0  0
   -1.2948    3.9923    5.0568 O   0  0  0  0  0  0  0  0  0  0  0  0
    5.5371    5.2723    3.0135 C   0  0  0  0  0  0  0  0  0  0  0  0
    4.9344    4.1179    3.7318 C   0  0  0  0  0  0  0  0  0  0  0  0
    4.9928    2.8413    3.3405 O   0  0  0  0  0  0  0  0  0  0  0  0
    4.0709    4.4067    4.5867 O   0  0  0  0  0  0  0  0  0  0  0  0
    4.1851    7.4595    4.4037 H   0  0  0  0  0  0  0  0  0  0  0  0
    4.1886    7.6180    3.8677 H   0  0  0  0  0  0  0  0  0  0  0  0
   -0.0192    1.6768    1.4001 H   0  0  0  0  0  0  0  0  0  0  0  0
    2.7863   -1.1649    1.0404 H   0  0  0  0  0  0  0  0  0  0  0  0
    1.8035   -1.7134    0.2900 H   0  0  0  0  0  0  0  0  0  0  0  0
    2.0737    2.3203   -0.8429 H   0  0  0  0  0  0  0  0  0  0  0  0
    2.7004    2.4740    0.3695 H   0  0  0  0  0  0  0  0  0  0  0  0
    3.0973    1.0330    0.1326 H   0  0  0  0  0  0  0  0  0  0  0  0
    3.8147   -1.8146   -1.1941 H   0  0  0  0  0  0  0  0  0  0  0  0
    2.3490   -1.4008   -2.0670 H   0  0  0  0  0  0  0  0  0  0  0  0
    4.3227   10.7315    3.6400 H   0  0  0  0  0  0  0  0  0  0  0  0
   -0.3930    3.0523   -0.9192 H   0  0  0  0  0  0  0  0  0  0  0  0
   -1.8839    2.5595   -0.0339 H   0  0  0  0  0  0  0  0  0  0  0  0
    3.2098   10.9264    8.5702 H   0  0  0  0  0  0  0  0  0  0  0  0
    4.3343   12.1692    8.0269 H   0  0  0  0  0  0  0  0  0  0  0  0
    5.4327   -0.1291   -1.2566 H   0  0  0  0  0  0  0  0  0  0  0  0
    0.0992   10.6968    6.0630 H   0  0  0  0  0  0  0  0  0  0  0  0
    0.7480    9.2310    6.6696 H   0  0  0  0  0  0  0  0  0  0  0  0
    1.0278   10.5427    7.6762 H   0  0  0  0  0  0  0  0  0  0  0  0
    2.3473   13.1939    9.1262 H   0  0  0  0  0  0  0  0  0  0  0  0
    2.4402   13.6464    7.4234 H   0  0  0  0  0  0  0  0  0  0  0  0
    1.3819   10.1412    2.8968 H   0  0  0  0  0  0  0  0  0  0  0  0
    0.6251    9.4152    4.3218 H   0  0  0  0  0  0  0  0  0  0  0  0
    1.5866    3.5957    0.7907 H   0  0  0  0  0  0  0  0  0  0  0  0
   -2.6613    5.1576    2.0387 H   0  0  0  0  0  0  0  0  0  0  0  0
   -2.8674    3.5379    1.3739 H   0  0  0  0  0  0  0  0  0  0  0  0
    0.1782   12.5819    9.7843 H   0  0  0  0  0  0  0  0  0  0  0  0
    0.9678    6.9382    4.4115 H   0  0  0  0  0  0  0  0  0  0  0  0
    0.0645    5.1513    5.0010 H   0  0  0  0  0  0  0  0  0  0  0  0
   -0.1666    6.4403    3.8197 H   0  0  0  0  0  0  0  0  0  0  0  0
   -1.4526    5.7338    4.0475 H   0  0  0  0  0  0  0  0  0  0  0  0
   -4.0073    3.7172    3.5367 H   0  0  0  0  0  0  0  0  0  0  0  0
   -2.6648    2.5628    3.6280 H   0  0  0  0  0  0  0  0  0  0  0  0
    2.1859    4.1990    4.5460 H   0  0  0  0  0  0  0  0  0  0  0  0
    3.5233    4.3463    3.1603 H   0  0  0  0  0  0  0  0  0  0  0  0
    5.2218    9.0374    2.7948 H   0  0  0  0  0  0  0  0  0  0  0  0
    4.3890    9.0645    1.2334 H   0  0  0  0  0  0  0  0  0  0  0  0
    3.8010   10.0752    2.4509 H   0  0  0  0  0  0  0  0  0  0  0  0
    4.4616    5.5123    1.1624 H   0  0  0  0  0  0  0  0  0  0  0  0
    5.4244    6.9341    1.6651 H   0  0  0  0  0  0  0  0  0  0  0  0
   -4.0820    5.1532    5.3792 H   0  0  0  0  0  0  0  0  0  0  0  0
    6.3891    4.8452    2.5418 H   0  0  0  0  0  0  0  0  0  0  0  0
    5.8468    5.8939    3.8601 H   0  0  0  0  0  0  0  0  0  0  0  0
    5.7781    2.6023    2.8471 H   0  0  0  0  0  0  0  0  0  0  0  0
  1  2  2  0  0  0  0
  1  3  1  0  0  0  0
  1  4  1  0  0  0  0
  2  5  1  0  0  0  0
  2  6  1  0  0  0  0
  3  7  1  0  0  0  0
  3 49  1  0  0  0  0
  3 50  1  0  0  0  0
  4  8  1  0  0  0  0
  4 51  1  0  0  0  0
  5  9  1  0  0  0  0
  5  8  2  0  0  0  0
  6 10  1  0  0  0  0
  6 52  1  0  0  0  0
  6 53  1  0  0  0  0
  7 11  2  0  0  0  0
  7 12  1  0  0  0  0
  8 13  1  0  0  0  0
  9 54  1  0  0  0  0
  9 55  1  0  0  0  0
  9 56  1  0  0  0  0
 10 14  1  0  0  0  0
 10 57  1  0  0  0  0
 10 58  1  0  0  0  0
 11 15  1  0  0  0  0
 11 16  1  0  0  0  0
 12 17  1  0  0  0  0
 12 59  1  0  0  0  0
 13 18  1  0  0  0  0
 13 60  1  0  0  0  0
 13 61  1  0  0  0  0
 14 19  1  0  0  0  0
 14 20  2  0  0  0  0
 15 21  1  0  0  0  0
 15 17  2  0  0  0  0
 16 22  1  0  0  0  0
 16 62  1  0  0  0  0
 16 63  1  0  0  0  0
 17 23  1  0  0  0  0
 18 24  2  0  0  0  0
 18 25  1  0  0  0  0
 19 64  1  0  0  0  0
 21 65  1  0  0  0  0
 21 66  1  0  0  0  0
 21 67  1  0  0  0  0
 22 26  1  0  0  0  0
 22 68  1  0  0  0  0
 22 69  1  0  0  0  0
 23 27  1  0  0  0  0
 23 70  1  0  0  0  0
 23 71  1  0  0  0  0
 24 28  1  0  0  0  0
 24 29  1  0  0  0  0
 25 30  1  0  0  0  0
 25 72  1  0  0  0  0
 26 31  1  0  0  0  0
 26 32  2  0  0  0  0
 27 33  1  0  0  0  0
 27 34  2  0  0  0  0
 28 35  1  0  0  0  0
 28 30  2  0  0  0  0
 29 36  1  0  0  0  0
 29 73  1  0  0  0  0
 29 74  1  0  0  0  0
 30 37  1  0  0  0  0
 31 75  1  0  0  0  0
 33 38  1  0  0  0  0
 33 76  1  0  0  0  0
 34 39  1  0  0  0  0
 34 40  1  0  0  0  0
 35 77  1  0  0  0  0
 35 78  1  0  0  0  0
 35 79  1  0  0  0  0
 36 41  1  0  0  0  0
 36 80  1  0  0  0  0
 36 81  1  0  0  0  0
 37 38  1  0  0  0  0
 37 82  1  0  0  0  0
 37 83  1  0  0  0  0
 38 39  2  0  0  0  0
 39 42  1  0  0  0  0
 40 84  1  0  0  0  0
 40 85  1  0  0  0  0
 40 86  1  0  0  0  0
 41 43  1  0  0  0  0
 41 44  2  0  0  0  0
 42 45  1  0  0  0  0
 42 87  1  0  0  0  0
 42 88  1  0  0  0  0
 43 89  1  0  0  0  0
 45 46  1  0  0  0  0
 45 90  1  0  0  0  0
 45 91  1  0  0  0  0
 46 47  1  0  0  0  0
 46 48  2  0  0  0  0
 47 92  1  0  0  0  0
M  END
>  <DRUGBANK_ID>
DB04461

>  <SECONDARY_ACCESSION_NUMBERS>
EXPT00993

>  <COMMON_NAME>
Coproporphyrinogen III

>  <CAS_NUMBER>
2624-63-7

>  <SYNONYMS>
3,8,13,17-tetramethyl-5,10,15,20,22,24-hexahydroporphyrin-2,7,12,18-tetrapropionic acid; 5,10,15,20,22,24-hexahydro-3,8,13,17-tetramethyl-21H,23H-porphine-2,7,12,18-tetrapropanoic acid

$$$$
