
 OpenBabel10282417203D

 44 44  0  0  0  0  0  0  0  0999 V2000
    0.4873   -0.6781    0.8057 C   0  0  0  0  0  0  0  0  0  0  0  0
    7.4218    0.8554    0.6824 C   0  0  0  0  0  0  0  0  0  0  0  0
    2.9751    5.1973    4.4477 C   0  0  0  0  0  0  0  0  0  0  0  0
    0.3540    0.3498    1.9061 C   0  0  0  0  0  0  0  0  0  0  0  0
    7.1777    2.3646    0.6493 C   0  0  0  0  0  0  0  0  0  0  0  0
    3.8446    4.0109    4.8474 C   0  0  0  0  0  0  0  0  0  0  0  0
    1.3346    0.9249   -1.1719 C   0  0  0  0  0  0  0  0  0  0  0  0
    0.6762    1.3798   -2.4160 C   0  0  0  0  0  0  0  0  0  0  0  0
    4.4686    1.7900    0.6641 C   0  0  0  0  0  0  0  0  0  0  0  0
    2.7836    2.6244    2.6451 C   0  0  0  0  0  0  0  0  0  0  0  0
    3.1072    1.5113    0.5687 C   0  0  0  0  0  0  0  0  0  0  0  0
    2.7595    0.8837   -0.7261 C   0  0  0  0  0  0  0  0  0  0  0  0
    2.2499    1.8589    1.6083 C   0  0  0  0  0  0  0  0  0  0  0  0
    5.0233    2.5046    1.7135 C   0  0  0  0  0  0  0  0  0  0  0  0
    4.1614    2.9318    2.7327 C   0  0  0  0  0  0  0  0  0  0  0  0
    1.1749    0.4746   -3.4925 C   0  0  0  0  0  0  0  0  0  0  0  0
    3.5973    0.1691   -1.2791 O   0  0  0  0  0  0  0  0  0  0  0  0
    0.5406   -0.3975   -4.0287 O   0  0  0  0  0  0  0  0  0  0  0  0
    2.5052    0.6209   -3.6506 O   0  0  0  0  0  0  0  0  0  0  0  0
    0.8932    1.6714    1.6427 O   0  0  0  0  0  0  0  0  0  0  0  0
    6.3634    2.8041    1.7570 O   0  0  0  0  0  0  0  0  0  0  0  0
    4.7153    3.6299    3.7776 O   0  0  0  0  0  0  0  0  0  0  0  0
   -0.1653   -0.3328   -0.0072 H   0  0  0  0  0  0  0  0  0  0  0  0
    0.1445   -1.6994    0.9445 H   0  0  0  0  0  0  0  0  0  0  0  0
    1.5468   -0.7790    0.5578 H   0  0  0  0  0  0  0  0  0  0  0  0
    6.5106    0.2568    0.5978 H   0  0  0  0  0  0  0  0  0  0  0  0
    8.0750    0.5449   -0.1368 H   0  0  0  0  0  0  0  0  0  0  0  0
    7.8546    0.5718    1.6435 H   0  0  0  0  0  0  0  0  0  0  0  0
    2.3117    4.9881    3.6042 H   0  0  0  0  0  0  0  0  0  0  0  0
    2.3446    5.5148    5.2803 H   0  0  0  0  0  0  0  0  0  0  0  0
    3.6066    6.0226    4.1106 H   0  0  0  0  0  0  0  0  0  0  0  0
   -0.7248    0.5185    1.9970 H   0  0  0  0  0  0  0  0  0  0  0  0
    0.7477   -0.0556    2.8342 H   0  0  0  0  0  0  0  0  0  0  0  0
    6.7711    2.7092   -0.3140 H   0  0  0  0  0  0  0  0  0  0  0  0
    8.1480    2.8653    0.7442 H   0  0  0  0  0  0  0  0  0  0  0  0
    3.2657    3.1539    5.2188 H   0  0  0  0  0  0  0  0  0  0  0  0
    4.4816    4.3181    5.6850 H   0  0  0  0  0  0  0  0  0  0  0  0
    1.1676   -0.1527   -1.2377 H   0  0  0  0  0  0  0  0  0  0  0  0
    0.7591    1.4482   -0.4249 H   0  0  0  0  0  0  0  0  0  0  0  0
   -0.3956    1.1539   -2.2636 H   0  0  0  0  0  0  0  0  0  0  0  0
    0.7812    2.4466   -2.5782 H   0  0  0  0  0  0  0  0  0  0  0  0
    5.0822    1.4167   -0.1448 H   0  0  0  0  0  0  0  0  0  0  0  0
    2.0710    2.9925    3.3733 H   0  0  0  0  0  0  0  0  0  0  0  0
    2.8464   -0.2392   -3.9680 H   0  0  0  0  0  0  0  0  0  0  0  0
  1 23  1  0  0  0  0
  1 24  1  0  0  0  0
  1 25  1  0  0  0  0
  2 26  1  0  0  0  0
  2 27  1  0  0  0  0
  2 28  1  0  0  0  0
  3 29  1  0  0  0  0
  3 30  1  0  0  0  0
  3 31  1  0  0  0  0
  4  1  1  0  0  0  0
  4 32  1  0  0  0  0
  4 33  1  0  0  0  0
  5  2  1  0  0  0  0
  5 34  1  0  0  0  0
  5 35  1  0  0  0  0
  6  3  1  0  0  0  0
  6 36  1  0  0  0  0
  6 37  1  0  0  0  0
  7 38  1  0  0  0  0
  7 39  1  0  0  0  0
  8  7  1  0  0  0  0
  8 40  1  0  0  0  0
  8 41  1  0  0  0  0
  9 42  1  0  0  0  0
 10 43  1  0  0  0  0
 11  9  2  0  0  0  0
 12  7  1  0  0  0  0
 12 11  1  0  0  0  0
 13 10  2  0  0  0  0
 13 11  1  0  0  0  0
 14  9  1  0  0  0  0
 15 10  1  0  0  0  0
 15 14  2  0  0  0  0
 16  8  1  0  0  0  0
 17 12  2  0  0  0  0
 18 16  2  0  0  0  0
 19 16  1  0  0  0  0
 19 44  1  0  0  0  0
 20  4  1  0  0  0  0
 20 13  1  0  0  0  0
 21  5  1  0  0  0  0
 21 14  1  0  0  0  0
 22  6  1  0  0  0  0
 22 15  1  0  0  0  0
M  END
>  <DRUGBANK_ID>
DB13311

>  <COMMON_NAME>
Trepibutone

>  <CAS_NUMBER>
41826-92-0

>  <UNII>
H1187LU49Q

>  <SYNONYMS>
Trepibutone

$$$$
