
 OpenBabel10282417213D

 63 62  0  0  0  0  0  0  0  0999 V2000
    1.0479   -0.1748    0.0880 O   0  0  0  0  0  0  0  0  0  0  0  0
    1.0670    1.8078   -1.3305 C   0  0  3  0  0  0  0  0  0  0  0  0
    2.6083    1.8270   -1.3976 C   0  0  0  0  0  0  0  0  0  0  0  0
    0.3811    2.4100   -2.5725 C   0  0  0  0  0  0  0  0  0  0  0  0
    0.5464    0.3844   -1.1080 C   0  0  0  0  0  0  0  0  0  0  0  0
    3.1817    0.9936   -2.5469 C   0  0  0  0  0  0  0  0  0  0  0  0
   -1.1260    2.5010   -2.5224 C   0  0  0  0  0  0  0  0  0  0  0  0
    2.8637    1.5434   -3.9340 C   0  0  0  0  0  0  0  0  0  0  0  0
   -1.5431    3.4177   -1.3979 C   0  0  0  0  0  0  0  0  0  0  0  0
    3.2476    3.0230   -4.0365 C   0  0  0  0  0  0  0  0  0  0  0  0
   -0.9765    4.8268   -1.6205 C   0  0  0  0  0  0  0  0  0  0  0  0
    4.7664    3.1061   -4.0396 C   0  0  0  0  0  0  0  0  0  0  0  0
    5.3089    2.2992   -5.2220 C   0  0  0  0  0  0  0  0  0  0  0  0
   -1.4476    5.4183   -2.9584 C   0  0  0  0  0  0  0  0  0  0  0  0
    4.7432    2.8478   -6.5389 C   0  0  0  0  0  0  0  0  0  0  0  0
   -2.9775    5.4790   -3.0257 C   0  0  0  0  0  0  0  0  0  0  0  0
    5.2146    4.2877   -6.7545 C   0  0  0  0  0  0  0  0  0  0  0  0
   -3.5583    6.2932   -1.8682 C   0  0  0  0  0  0  0  0  0  0  0  0
    6.7416    4.3711   -6.7428 C   0  0  0  0  0  0  0  0  0  0  0  0
   -3.0485    7.7248   -1.9089 C   0  0  0  0  0  0  0  0  0  0  0  0
    7.3297    3.4999   -7.8416 C   0  0  0  0  0  0  0  0  0  0  0  0
    2.0284   -0.2235    0.0083 H   0  0  0  0  0  0  0  0  0  0  0  0
    0.8263    2.4154   -0.4495 H   0  0  0  0  0  0  0  0  0  0  0  0
    2.9704    2.8623   -1.4224 H   0  0  0  0  0  0  0  0  0  0  0  0
    3.0287    1.4519   -0.4569 H   0  0  0  0  0  0  0  0  0  0  0  0
    0.8237    3.3773   -2.8304 H   0  0  0  0  0  0  0  0  0  0  0  0
    0.4832    1.7701   -3.4294 H   0  0  0  0  0  0  0  0  0  0  0  0
    0.7980   -0.2645   -1.9536 H   0  0  0  0  0  0  0  0  0  0  0  0
   -0.5423    0.3768   -1.0182 H   0  0  0  0  0  0  0  0  0  0  0  0
    4.2694    0.9398   -2.4230 H   0  0  0  0  0  0  0  0  0  0  0  0
    2.8494   -0.0450   -2.4838 H   0  0  0  0  0  0  0  0  0  0  0  0
   -1.4805    2.8544   -3.4993 H   0  0  0  0  0  0  0  0  0  0  0  0
   -1.5699    1.5073   -2.4312 H   0  0  0  0  0  0  0  0  0  0  0  0
    3.3518    0.9106   -4.6719 H   0  0  0  0  0  0  0  0  0  0  0  0
    1.8573    1.3710   -4.2826 H   0  0  0  0  0  0  0  0  0  0  0  0
   -2.6337    3.4168   -1.3352 H   0  0  0  0  0  0  0  0  0  0  0  0
   -1.2009    3.0245   -0.4371 H   0  0  0  0  0  0  0  0  0  0  0  0
    2.7899    3.4785   -4.9207 H   0  0  0  0  0  0  0  0  0  0  0  0
    2.8647    3.6502   -3.2284 H   0  0  0  0  0  0  0  0  0  0  0  0
   -1.2608    5.4599   -0.7765 H   0  0  0  0  0  0  0  0  0  0  0  0
    0.1188    4.8345   -1.5910 H   0  0  0  0  0  0  0  0  0  0  0  0
    5.0822    4.1528   -4.0694 H   0  0  0  0  0  0  0  0  0  0  0  0
    5.1782    2.7236   -3.1004 H   0  0  0  0  0  0  0  0  0  0  0  0
    6.3984    2.2928   -5.1915 H   0  0  0  0  0  0  0  0  0  0  0  0
    5.0821    1.2334   -5.1459 H   0  0  0  0  0  0  0  0  0  0  0  0
   -1.0056    6.4094   -3.0971 H   0  0  0  0  0  0  0  0  0  0  0  0
   -1.0672    4.8439   -3.8113 H   0  0  0  0  0  0  0  0  0  0  0  0
    5.0347    2.1957   -7.3655 H   0  0  0  0  0  0  0  0  0  0  0  0
    3.6482    2.8142   -6.5721 H   0  0  0  0  0  0  0  0  0  0  0  0
   -3.2877    5.9059   -3.9847 H   0  0  0  0  0  0  0  0  0  0  0  0
   -3.4032    4.4678   -3.0084 H   0  0  0  0  0  0  0  0  0  0  0  0
    4.8157    4.6676   -7.6995 H   0  0  0  0  0  0  0  0  0  0  0  0
    4.8065    4.9499   -5.9803 H   0  0  0  0  0  0  0  0  0  0  0  0
   -4.6504    6.2778   -1.9208 H   0  0  0  0  0  0  0  0  0  0  0  0
   -3.3058    5.8410   -0.9017 H   0  0  0  0  0  0  0  0  0  0  0  0
    7.0542    5.4102   -6.8678 H   0  0  0  0  0  0  0  0  0  0  0  0
    7.1486    4.0638   -5.7720 H   0  0  0  0  0  0  0  0  0  0  0  0
   -3.3332    8.1942   -2.8549 H   0  0  0  0  0  0  0  0  0  0  0  0
   -3.4594    8.3044   -1.0812 H   0  0  0  0  0  0  0  0  0  0  0  0
   -1.9582    7.7765   -1.8222 H   0  0  0  0  0  0  0  0  0  0  0  0
    6.9570    3.8316   -8.8148 H   0  0  0  0  0  0  0  0  0  0  0  0
    8.4187    3.5501   -7.8332 H   0  0  0  0  0  0  0  0  0  0  0  0
    7.0626    2.4442   -7.7227 H   0  0  0  0  0  0  0  0  0  0  0  0
  1  5  1  0  0  0  0
  1 22  1  0  0  0  0
  2  3  1  0  0  0  0
  2  4  1  0  0  0  0
  2  5  1  0  0  0  0
  2 23  1  0  0  0  0
  3  6  1  0  0  0  0
  3 24  1  0  0  0  0
  3 25  1  0  0  0  0
  4  7  1  0  0  0  0
  4 26  1  0  0  0  0
  4 27  1  0  0  0  0
  5 28  1  0  0  0  0
  5 29  1  0  0  0  0
  6  8  1  0  0  0  0
  6 30  1  0  0  0  0
  6 31  1  0  0  0  0
  7  9  1  0  0  0  0
  7 32  1  0  0  0  0
  7 33  1  0  0  0  0
  8 10  1  0  0  0  0
  8 34  1  0  0  0  0
  8 35  1  0  0  0  0
  9 11  1  0  0  0  0
  9 36  1  0  0  0  0
  9 37  1  0  0  0  0
 10 12  1  0  0  0  0
 10 38  1  0  0  0  0
 10 39  1  0  0  0  0
 11 14  1  0  0  0  0
 11 40  1  0  0  0  0
 11 41  1  0  0  0  0
 12 13  1  0  0  0  0
 12 42  1  0  0  0  0
 12 43  1  0  0  0  0
 13 15  1  0  0  0  0
 13 44  1  0  0  0  0
 13 45  1  0  0  0  0
 14 16  1  0  0  0  0
 14 46  1  0  0  0  0
 14 47  1  0  0  0  0
 15 17  1  0  0  0  0
 15 48  1  0  0  0  0
 15 49  1  0  0  0  0
 16 18  1  0  0  0  0
 16 50  1  0  0  0  0
 16 51  1  0  0  0  0
 17 19  1  0  0  0  0
 17 52  1  0  0  0  0
 17 53  1  0  0  0  0
 18 20  1  0  0  0  0
 18 54  1  0  0  0  0
 18 55  1  0  0  0  0
 19 21  1  0  0  0  0
 19 56  1  0  0  0  0
 19 57  1  0  0  0  0
 20 58  1  0  0  0  0
 20 59  1  0  0  0  0
 20 60  1  0  0  0  0
 21 61  1  0  0  0  0
 21 62  1  0  0  0  0
 21 63  1  0  0  0  0
M  END
>  <DRUGBANK_ID>
DB14134

>  <COMMON_NAME>
Octyldodecanol

>  <CAS_NUMBER>
5333-42-6

>  <UNII>
461N1O614Y

>  <SYNONYMS>
2-Octyl dodecanol; 2-Octyl-1-dodecanol; 2-Octyldodecyl alcohol; Octyl dodecanol

$$$$
