
 OpenBabel10282417193D

 47 49  0  0  0  0  0  0  0  0999 V2000
    1.6942   -0.2956   -0.0196 C   0  0  0  0  0  0  0  0  0  0  0  0
   -0.1939   -0.9298   -2.4035 C   0  0  0  0  0  0  0  0  0  0  0  0
    0.2276   -2.0998    0.1001 C   0  0  0  0  0  0  0  0  0  0  0  0
    1.2124    0.9320   -2.3477 C   0  0  0  0  0  0  0  0  0  0  0  0
    0.7331    3.2254    0.5320 C   0  0  0  0  0  0  0  0  0  0  0  0
   -1.0461    3.1122   -1.1080 C   0  0  0  0  0  0  0  0  0  0  0  0
    0.4358    1.8597    0.7309 C   0  0  0  0  0  0  0  0  0  0  0  0
   -1.3913    1.7179   -0.8220 C   0  0  0  0  0  0  0  0  0  0  0  0
    2.0304    1.8706   -1.6650 C   0  0  0  0  0  0  0  0  0  0  0  0
    4.9745    2.3292   -3.2145 C   0  0  0  0  0  0  0  0  0  0  0  0
    0.9731   -0.1655   -1.6447 C   0  0  0  0  0  0  0  0  0  0  0  0
    0.0720    3.8013   -0.5128 C   0  0  0  0  0  0  0  0  0  0  0  0
   -0.6265    0.9709    0.1170 C   0  0  0  0  0  0  0  0  0  0  0  0
    3.0440    2.4953   -2.4244 C   0  0  0  0  0  0  0  0  0  0  0  0
    4.0085    1.6055   -2.7251 C   0  0  0  0  0  0  0  0  0  0  0  0
    4.7443    3.9147   -3.3544 C   0  0  0  0  0  0  0  0  0  0  0  0
    3.6793    5.0229   -3.0168 C   0  0  0  0  0  0  0  0  0  0  0  0
    2.3633    6.2306   -2.4295 C   0  0  0  0  0  0  0  0  0  0  0  0
    0.7651    5.7927   -1.8370 C   0  0  0  0  0  0  0  0  0  0  0  0
    1.0185    4.6262   -1.3504 C   0  0  0  0  0  0  0  0  0  0  0  0
    2.9812    4.0118   -2.4081 C   0  0  0  0  0  0  0  0  0  0  0  0
    4.0025    0.3616   -2.1876 O   0  0  0  0  0  0  0  0  0  0  0  0
    5.8893    4.2423   -4.1640 O   0  0  0  0  0  0  0  0  0  0  0  0
    2.5327    7.4421   -2.4844 O   0  0  0  0  0  0  0  0  0  0  0  0
   -0.2263    6.3425   -0.9353 O   0  0  0  0  0  0  0  0  0  0  0  0
   -0.8165   -0.6501    0.0780 O   0  0  0  0  0  0  0  0  0  0  0  0
    2.3649    4.3523   -1.1947 O   0  0  0  0  0  0  0  0  0  0  0  0
    0.9361   -0.5568    0.7181 H   0  0  0  0  0  0  0  0  0  0  0  0
    1.7370    0.2028    0.9625 H   0  0  0  0  0  0  0  0  0  0  0  0
    2.6559   -0.7481    0.0495 H   0  0  0  0  0  0  0  0  0  0  0  0
   -1.1293   -0.3470   -2.5177 H   0  0  0  0  0  0  0  0  0  0  0  0
    0.1062   -1.1434   -3.4369 H   0  0  0  0  0  0  0  0  0  0  0  0
   -0.5247   -1.8790   -1.9982 H   0  0  0  0  0  0  0  0  0  0  0  0
    1.0292   -2.1431   -0.7115 H   0  0  0  0  0  0  0  0  0  0  0  0
    0.8092   -2.1891    1.0464 H   0  0  0  0  0  0  0  0  0  0  0  0
   -0.3171   -3.0260   -0.0279 H   0  0  0  0  0  0  0  0  0  0  0  0
    0.6343    1.2958   -3.2042 H   0  0  0  0  0  0  0  0  0  0  0  0
    1.7980    3.5349    0.7271 H   0  0  0  0  0  0  0  0  0  0  0  0
   -1.5285    3.6070   -1.9532 H   0  0  0  0  0  0  0  0  0  0  0  0
    1.4867    1.6517    0.9480 H   0  0  0  0  0  0  0  0  0  0  0  0
   -2.0712    1.2469   -1.5365 H   0  0  0  0  0  0  0  0  0  0  0  0
    1.3077    2.6027   -1.6449 H   0  0  0  0  0  0  0  0  0  0  0  0
    2.5457    1.6681   -0.7312 H   0  0  0  0  0  0  0  0  0  0  0  0
    5.8613    1.7398   -3.4641 H   0  0  0  0  0  0  0  0  0  0  0  0
    4.1099   -0.4020   -2.7747 H   0  0  0  0  0  0  0  0  0  0  0  0
    6.3309    3.3877   -4.4027 H   0  0  0  0  0  0  0  0  0  0  0  0
   -0.9530    6.9771   -1.0005 H   0  0  0  0  0  0  0  0  0  0  0  0
  1 28  1  0  0  0  0
  1 29  1  0  0  0  0
  1 30  1  0  0  0  0
  2 31  1  0  0  0  0
  2 32  1  0  0  0  0
  2 33  1  0  0  0  0
  3 34  1  0  0  0  0
  3 35  1  0  0  0  0
  3 36  1  0  0  0  0
  4 37  1  0  0  0  0
  5 38  1  0  0  0  0
  6 39  1  0  0  0  0
  7  5  1  0  0  0  0
  7 40  1  0  0  0  0
  8  6  2  0  0  0  0
  8 41  1  0  0  0  0
  9  4  1  0  0  0  0
  9 42  1  0  0  0  0
  9 43  1  0  0  0  0
 10 44  1  0  0  0  0
 11  1  1  0  0  0  0
 11  2  1  0  0  0  0
 11  4  2  0  0  0  0
 12  5  2  0  0  0  0
 12  6  1  0  0  0  0
 13  7  2  0  0  0  0
 13  8  1  0  0  0  0
 14  9  1  0  0  0  0
 15 10  2  0  0  0  0
 15 14  1  0  0  0  0
 16 10  1  0  0  0  0
 17 16  2  0  0  0  0
 18 17  1  0  0  0  0
 19 18  1  0  0  0  0
 20 12  1  0  0  0  0
 20 19  2  0  0  0  0
 21 14  2  0  0  0  0
 21 17  1  0  0  0  0
 22 15  1  0  0  0  0
 22 45  1  0  0  0  0
 23 16  1  0  0  0  0
 23 46  1  0  0  0  0
 24 18  2  0  0  0  0
 25 19  1  0  0  0  0
 25 47  1  0  0  0  0
 26  3  1  0  0  0  0
 26 13  1  0  0  0  0
 27 20  1  0  0  0  0
 27 21  1  0  0  0  0
M  END
>  <DRUGBANK_ID>
DB12672

>  <COMMON_NAME>
Icaritin

>  <CAS_NUMBER>
118525-40-9

>  <UNII>
UFE666UELY

$$$$
