
 OpenBabel10282417143D

 73 42  0  0  0  0  0  0  0  0999 V2000
    1.0537    0.0490    0.0687 Mo  0  0  0  0  0  0  0  0  0  0  0  0
    0.9229    0.0477   -0.0422 Mo  0  0  0  0  0  0  0  0  0  0  0  0
    0.9823   -0.0519   -0.0836 Mo  0  0  0  0  0  0  0  0  0  0  0  0
    0.9516   -0.0127   -0.0866 Mo  0  0  0  0  0  0  0  0  0  0  0  0
    0.9697    0.0725   -0.0618 Mo  0  0  0  0  0  0  0  0  0  0  0  0
    1.0106    0.0098   -0.0990 Mo  0  0  0  0  0  0  0  0  0  0  0  0
    0.9978   -0.0039   -0.0999 Mo  0  0  0  0  0  0  0  0  0  0  0  0
    0.9962    0.0943    0.0332 O   0  0  0  0  0  0  0  0  0  0  0  0
    0.9109   -0.0379    0.0252 O   0  0  0  0  0  0  0  0  0  0  0  0
    0.9821   -0.0977   -0.0113 O   0  0  0  0  0  0  0  0  0  0  0  0
    0.9184    0.0283   -0.0504 O   0  0  0  0  0  0  0  0  0  0  0  0
    0.9334    0.0473   -0.0577 O   0  0  0  0  0  0  0  0  0  0  0  0
    1.0671   -0.0335    0.0662 O   0  0  0  0  0  0  0  0  0  0  0  0
    1.0950    0.0294    0.0107 O   0  0  0  0  0  0  0  0  0  0  0  0
    1.0372    0.0856    0.0359 O   0  0  0  0  0  0  0  0  0  0  0  0
    0.9313    0.0388    0.0615 O   0  0  0  0  0  0  0  0  0  0  0  0
    1.0072   -0.0374    0.0925 O   0  0  0  0  0  0  0  0  0  0  0  0
    0.9514    0.0792    0.0370 O   0  0  0  0  0  0  0  0  0  0  0  0
    0.9699   -0.0331    0.0894 O   0  0  0  0  0  0  0  0  0  0  0  0
    0.9334    0.0423   -0.0614 O   0  0  0  0  0  0  0  0  0  0  0  0
    0.9155    0.0443   -0.0299 O   0  0  0  0  0  0  0  0  0  0  0  0
    1.0668    0.0488    0.0562 O   0  0  0  0  0  0  0  0  0  0  0  0
    1.0057   -0.0986   -0.0158 O   0  0  0  0  0  0  0  0  0  0  0  0
    1.0094    0.0305    0.0948 O   0  0  0  0  0  0  0  0  0  0  0  0
    1.0840    0.0431    0.0330 O   0  0  0  0  0  0  0  0  0  0  0  0
    0.9918   -0.0189   -0.0979 O   0  5  0  0  0  0  0  0  0  0  0  0
    0.9332   -0.0671    0.0321 O   0  5  0  0  0  0  0  0  0  0  0  0
    1.0718   -0.0460   -0.0522 O   0  5  0  0  0  0  0  0  0  0  0  0
    1.0322    0.0632   -0.0705 O   0  5  0  0  0  0  0  0  0  0  0  0
    1.0835    0.0331    0.0439 O   0  5  0  0  0  0  0  0  0  0  0  0
    0.9446    0.0215    0.0805 O   0  5  0  0  0  0  0  0  0  0  0  0
    0.6629    0.4100   -0.8552 H   0  0  0  0  0  0  0  0  0  0  0  0
    1.9962    0.0943    0.0332 H   0  0  0  0  0  0  0  0  0  0  0  0
    0.5776    0.6704    0.6475 H   0  0  0  0  0  0  0  0  0  0  0  0
    1.9109   -0.0379    0.0252 H   0  0  0  0  0  0  0  0  0  0  0  0
    0.6488   -0.1912    0.9269 H   0  0  0  0  0  0  0  0  0  0  0  0
    1.9821   -0.0977   -0.0113 H   0  0  0  0  0  0  0  0  0  0  0  0
    0.5851    0.9316    0.2197 H   0  0  0  0  0  0  0  0  0  0  0  0
    1.9184    0.0283   -0.0504 H   0  0  0  0  0  0  0  0  0  0  0  0
    0.6001    0.4230   -0.9224 H   0  0  0  0  0  0  0  0  0  0  0  0
    1.9334    0.0473   -0.0577 H   0  0  0  0  0  0  0  0  0  0  0  0
    0.7337   -0.6029    0.8176 H   0  0  0  0  0  0  0  0  0  0  0  0
    2.0671   -0.0335    0.0662 H   0  0  0  0  0  0  0  0  0  0  0  0
    0.7617   -0.5674    0.7405 H   0  0  0  0  0  0  0  0  0  0  0  0
    2.0950    0.0294    0.0107 H   0  0  0  0  0  0  0  0  0  0  0  0
    0.7038   -0.5154    0.7624 H   0  0  0  0  0  0  0  0  0  0  0  0
    2.0372    0.0856    0.0359 H   0  0  0  0  0  0  0  0  0  0  0  0
    0.5980   -0.1443   -0.8634 H   0  0  0  0  0  0  0  0  0  0  0  0
    1.9313    0.0388    0.0615 H   0  0  0  0  0  0  0  0  0  0  0  0
    0.6738    0.7789    0.5642 H   0  0  0  0  0  0  0  0  0  0  0  0
    2.0072   -0.0374    0.0925 H   0  0  0  0  0  0  0  0  0  0  0  0
    0.6181    0.2416    0.9657 H   0  0  0  0  0  0  0  0  0  0  0  0
    1.9514    0.0792    0.0370 H   0  0  0  0  0  0  0  0  0  0  0  0
    0.6365   -0.3348   -0.8038 H   0  0  0  0  0  0  0  0  0  0  0  0
    1.9699   -0.0331    0.0894 H   0  0  0  0  0  0  0  0  0  0  0  0
    0.6001   -0.3546    0.7938 H   0  0  0  0  0  0  0  0  0  0  0  0
    1.9334    0.0423   -0.0614 H   0  0  0  0  0  0  0  0  0  0  0  0
    0.5822    0.9098   -0.4039 H   0  0  0  0  0  0  0  0  0  0  0  0
    1.9155    0.0443   -0.0299 H   0  0  0  0  0  0  0  0  0  0  0  0
    0.7334   -0.2498   -0.8381 H   0  0  0  0  0  0  0  0  0  0  0  0
    2.0668    0.0488    0.0562 H   0  0  0  0  0  0  0  0  0  0  0  0
    0.6723   -0.9642    0.3579 H   0  0  0  0  0  0  0  0  0  0  0  0
    2.0057   -0.0986   -0.0158 H   0  0  0  0  0  0  0  0  0  0  0  0
    0.6761    0.8763    0.5114 H   0  0  0  0  0  0  0  0  0  0  0  0
    2.0094    0.0305    0.0948 H   0  0  0  0  0  0  0  0  0  0  0  0
    0.7507   -0.7140   -0.5288 H   0  0  0  0  0  0  0  0  0  0  0  0
    2.0840    0.0431    0.0330 H   0  0  0  0  0  0  0  0  0  0  0  0
    1.9918   -0.0189   -0.0979 H   0  0  0  0  0  0  0  0  0  0  0  0
    1.9332   -0.0671    0.0321 H   0  0  0  0  0  0  0  0  0  0  0  0
    2.0718   -0.0460   -0.0522 H   0  0  0  0  0  0  0  0  0  0  0  0
    2.0322    0.0632   -0.0705 H   0  0  0  0  0  0  0  0  0  0  0  0
    2.0835    0.0331    0.0439 H   0  0  0  0  0  0  0  0  0  0  0  0
    1.9446    0.0215    0.0805 H   0  0  0  0  0  0  0  0  0  0  0  0
  8 32  1  0  0  0  0
  8 33  1  0  0  0  0
  9 34  1  0  0  0  0
  9 35  1  0  0  0  0
 10 36  1  0  0  0  0
 10 37  1  0  0  0  0
 11 38  1  0  0  0  0
 11 39  1  0  0  0  0
 12 40  1  0  0  0  0
 12 41  1  0  0  0  0
 13 42  1  0  0  0  0
 13 43  1  0  0  0  0
 14 44  1  0  0  0  0
 14 45  1  0  0  0  0
 15 46  1  0  0  0  0
 15 47  1  0  0  0  0
 16 48  1  0  0  0  0
 16 49  1  0  0  0  0
 17 50  1  0  0  0  0
 17 51  1  0  0  0  0
 18 52  1  0  0  0  0
 18 53  1  0  0  0  0
 19 54  1  0  0  0  0
 19 55  1  0  0  0  0
 20 56  1  0  0  0  0
 20 57  1  0  0  0  0
 21 58  1  0  0  0  0
 21 59  1  0  0  0  0
 22 60  1  0  0  0  0
 22 61  1  0  0  0  0
 23 62  1  0  0  0  0
 23 63  1  0  0  0  0
 24 64  1  0  0  0  0
 24 65  1  0  0  0  0
 25 66  1  0  0  0  0
 25 67  1  0  0  0  0
 26 68  1  0  0  0  0
 27 69  1  0  0  0  0
 28 70  1  0  0  0  0
 29 71  1  0  0  0  0
 30 72  1  0  0  0  0
 31 73  1  0  0  0  0
M  CHG  6  26  -1  27  -1  28  -1  29  -1  30  -1  31  -1
M  END
>  <DRUGBANK_ID>
DB04414

>  <SECONDARY_ACCESSION_NUMBERS>
EXPT02207

>  <COMMON_NAME>
Heptamolybdate

$$$$
