
 OpenBabel10282417203D

 33 33  0  0  0  0  0  0  0  0999 V2000
    1.2124    0.6607    0.2367 C   0  0  0  0  0  0  0  0  0  0  0  0
    0.7879    1.6988   -0.8233 C   0  0  0  0  0  0  0  0  0  0  0  0
    1.1263    1.3242   -2.2591 C   0  0  0  0  0  0  0  0  0  0  0  0
   -1.3977   -2.3214   -4.9960 C   0  0  0  0  0  0  0  0  0  0  0  0
   -0.8856   -2.0415   -3.7539 C   0  0  0  0  0  0  0  0  0  0  0  0
   -0.7579   -3.3289   -5.6235 C   0  0  0  0  0  0  0  0  0  0  0  0
    0.5871   -0.0214   -2.4447 C   0  0  0  0  0  0  0  0  0  0  0  0
   -1.5290   -0.4646   -1.0961 C   0  0  0  0  0  0  0  0  0  0  0  0
   -1.1289   -1.7252   -0.3131 C   0  0  0  0  0  0  0  0  0  0  0  0
    0.7505   -3.6714   -3.8522 C   0  0  0  0  0  0  0  0  0  0  0  0
    0.1135   -2.7721   -3.0418 C   0  0  0  0  0  0  0  0  0  0  0  0
    0.8282   -2.5932   -1.6912 C   0  0  0  0  0  0  0  0  0  0  0  0
    0.3269   -3.9751   -5.1135 N   0  0  0  0  0  0  0  0  0  0  0  0
    2.0364   -2.6299   -1.6423 O   0  0  0  0  0  0  0  0  0  0  0  0
   -0.8153   -0.0170   -2.2290 O   0  0  0  0  0  0  0  0  0  0  0  0
    0.1591   -2.3214   -0.5305 O   0  0  0  0  0  0  0  0  0  0  0  0
    0.7472   -0.3067    0.1128 H   0  0  0  0  0  0  0  0  0  0  0  0
    0.8794    0.9434    1.2338 H   0  0  0  0  0  0  0  0  0  0  0  0
    2.2819    0.4410    0.2035 H   0  0  0  0  0  0  0  0  0  0  0  0
   -0.2943    1.8439   -0.7548 H   0  0  0  0  0  0  0  0  0  0  0  0
    1.2420    2.6571   -0.6180 H   0  0  0  0  0  0  0  0  0  0  0  0
    0.6721    1.9566   -3.0275 H   0  0  0  0  0  0  0  0  0  0  0  0
    2.2010    1.2301   -2.4326 H   0  0  0  0  0  0  0  0  0  0  0  0
   -2.1545   -1.6604   -5.4234 H   0  0  0  0  0  0  0  0  0  0  0  0
   -1.2056   -1.0210   -3.6533 H   0  0  0  0  0  0  0  0  0  0  0  0
   -1.0856   -3.6033   -6.6125 H   0  0  0  0  0  0  0  0  0  0  0  0
    0.8610   -0.3598   -3.4562 H   0  0  0  0  0  0  0  0  0  0  0  0
    1.1784   -0.5934   -1.7635 H   0  0  0  0  0  0  0  0  0  0  0  0
   -1.6793    0.4348   -0.4989 H   0  0  0  0  0  0  0  0  0  0  0  0
   -2.5706   -0.6633   -1.4032 H   0  0  0  0  0  0  0  0  0  0  0  0
   -1.1743   -1.4388    0.7561 H   0  0  0  0  0  0  0  0  0  0  0  0
   -1.8550   -2.5305   -0.4194 H   0  0  0  0  0  0  0  0  0  0  0  0
    1.6752   -4.1490   -3.5288 H   0  0  0  0  0  0  0  0  0  0  0  0
  1 17  1  0  0  0  0
  1 18  1  0  0  0  0
  1 19  1  0  0  0  0
  2  1  1  0  0  0  0
  2 20  1  0  0  0  0
  2 21  1  0  0  0  0
  3  2  1  0  0  0  0
  3 22  1  0  0  0  0
  3 23  1  0  0  0  0
  4 24  1  0  0  0  0
  5  4  2  0  0  0  0
  5 25  1  0  0  0  0
  6  4  1  0  0  0  0
  6 26  1  0  0  0  0
  7  3  1  0  0  0  0
  7 27  1  0  0  0  0
  7 28  1  0  0  0  0
  8 29  1  0  0  0  0
  8 30  1  0  0  0  0
  9  8  1  0  0  0  0
  9 31  1  0  0  0  0
  9 32  1  0  0  0  0
 10 33  1  0  0  0  0
 11  5  1  0  0  0  0
 11 10  2  0  0  0  0
 12 11  1  0  0  0  0
 13  6  2  0  0  0  0
 13 10  1  0  0  0  0
 14 12  2  0  0  0  0
 15  7  1  0  0  0  0
 15  8  1  0  0  0  0
 16  9  1  0  0  0  0
 16 12  1  0  0  0  0
M  END
>  <DRUGBANK_ID>
DB12911

>  <COMMON_NAME>
Nicoboxil

>  <CAS_NUMBER>
13912-80-6

>  <UNII>
GSD5B9US0W

>  <SYNONYMS>
beta-Butoxyethyl nicotinate; Nicoboxil

$$$$
