
 OpenBabel10282417133D

 51 53  0  0  1  0  0  0  0  0999 V2000
    1.4976   -0.3134    0.0118 C   0  0  0  0  0  0  0  0  0  0  0  0
    0.6128   -1.3986    0.0462 C   0  0  0  0  0  0  0  0  0  0  0  0
    1.0221    0.9828   -0.0970 C   0  0  0  0  0  0  0  0  0  0  0  0
   -6.6744    4.5727    2.7793 C   0  0  0  0  0  0  0  0  0  0  0  0
   -0.7594   -1.1918    0.0965 C   0  0  0  0  0  0  0  0  0  0  0  0
   -0.3388    1.1774   -0.1102 C   0  0  0  0  0  0  0  0  0  0  0  0
   -6.0727    3.4860    2.1770 C   0  0  0  0  0  0  0  0  0  0  0  0
   -7.6970    4.3496    3.6767 C   0  0  0  0  0  0  0  0  0  0  0  0
   -2.5603    2.5163   -2.9802 C   0  0  0  0  0  0  0  0  0  0  0  0
   -3.6192    1.9555   -2.2679 C   0  0  0  0  0  0  0  0  0  0  0  0
   -7.5130    1.9457    3.3128 C   0  0  0  0  0  0  0  0  0  0  0  0
   -2.6834    0.4046    0.1071 C   0  0  0  0  0  0  0  0  0  0  0  0
   -3.6100    4.6574   -2.7247 C   0  0  0  0  0  0  0  0  0  0  0  0
   -5.7952    1.0113    1.7084 C   0  0  0  0  0  0  0  0  0  0  0  0
   -1.2299    0.1113    0.1027 C   0  0  0  0  0  0  0  0  0  0  0  0
   -6.4816    2.1641    2.4022 C   0  0  0  0  0  0  0  0  0  0  0  0
   -8.0740    3.0349    4.0014 C   0  0  0  0  0  0  0  0  0  0  0  0
   -2.6075    3.8633   -3.2759 C   0  0  0  0  0  0  0  0  0  0  0  0
   -4.4898    2.7389   -1.5110 C   0  0  0  0  0  0  0  0  0  0  0  0
   -4.5470    4.1015   -1.8309 C   0  0  0  0  0  0  0  0  0  0  0  0
   -3.3709    1.3141    1.1123 C   0  0  1  0  0  0  0  0  0  0  0  0
   -5.3509    2.0806   -0.4731 C   0  0  0  0  0  0  0  0  0  0  0  0
   -2.7109    2.6913    1.3083 C   0  0  0  0  0  0  0  0  0  0  0  0
   -8.9679    2.8106    5.1865 C   0  0  0  0  0  0  0  0  0  0  0  0
   -1.5524    4.4779   -4.4849 Cl  0  0  0  0  0  0  0  0  0  0  0  0
   -5.8061    5.1448   -1.2776 Cl  0  0  0  0  0  0  0  0  0  0  0  0
   -8.4100    3.3164    6.3240 F   0  0  0  0  0  0  0  0  0  0  0  0
  -10.1840    3.4027    5.0663 F   0  0  0  0  0  0  0  0  0  0  0  0
   -9.2025    1.4950    5.4489 F   0  0  0  0  0  0  0  0  0  0  0  0
   -4.8155    1.4546    0.7037 N   0  0  0  0  0  0  0  0  0  0  0  0
   -6.5652    2.1490   -0.6640 O   0  0  0  0  0  0  0  0  0  0  0  0
   -3.1134    3.7817    0.8928 O   0  0  0  0  0  0  0  0  0  0  0  0
   -1.5033    2.6594    1.8917 O   0  0  0  0  0  0  0  0  0  0  0  0
   -3.3259    0.8170    2.0915 H   0  0  0  0  0  0  0  0  0  0  0  0
    2.5673   -0.4798    0.0428 H   0  0  0  0  0  0  0  0  0  0  0  0
    0.9978   -2.4121    0.0341 H   0  0  0  0  0  0  0  0  0  0  0  0
    1.6821    1.8397   -0.1808 H   0  0  0  0  0  0  0  0  0  0  0  0
   -6.3124    5.5685    2.5434 H   0  0  0  0  0  0  0  0  0  0  0  0
   -1.4497   -2.0330    0.0917 H   0  0  0  0  0  0  0  0  0  0  0  0
   -0.7098    2.1829   -0.2950 H   0  0  0  0  0  0  0  0  0  0  0  0
   -5.2876    3.7147    1.4743 H   0  0  0  0  0  0  0  0  0  0  0  0
   -8.1726    5.2031    4.1515 H   0  0  0  0  0  0  0  0  0  0  0  0
   -1.7396    1.8875   -3.3215 H   0  0  0  0  0  0  0  0  0  0  0  0
   -3.6945    0.8707   -2.2302 H   0  0  0  0  0  0  0  0  0  0  0  0
   -7.8650    0.9343    3.5167 H   0  0  0  0  0  0  0  0  0  0  0  0
   -2.6440    1.0091   -0.7546 H   0  0  0  0  0  0  0  0  0  0  0  0
   -3.3011   -0.4639   -0.1622 H   0  0  0  0  0  0  0  0  0  0  0  0
   -3.6738    5.7053   -3.0041 H   0  0  0  0  0  0  0  0  0  0  0  0
   -6.5240    0.3502    1.2244 H   0  0  0  0  0  0  0  0  0  0  0  0
   -5.2881    0.4117    2.4782 H   0  0  0  0  0  0  0  0  0  0  0  0
   -1.0917    3.5148    1.6339 H   0  0  0  0  0  0  0  0  0  0  0  0
  1 35  1  0  0  0  0
  2  1  2  0  0  0  0
  2 36  1  0  0  0  0
  3  1  1  0  0  0  0
  3 37  1  0  0  0  0
  4 38  1  0  0  0  0
  5  2  1  0  0  0  0
  5 39  1  0  0  0  0
  6  3  2  0  0  0  0
  6 40  1  0  0  0  0
  7  4  2  0  0  0  0
  7 41  1  0  0  0  0
  8  4  1  0  0  0  0
  8 42  1  0  0  0  0
  9 43  1  0  0  0  0
 10  9  2  0  0  0  0
 10 44  1  0  0  0  0
 11 45  1  0  0  0  0
 12 46  1  0  0  0  0
 12 47  1  0  0  0  0
 13 48  1  0  0  0  0
 14 49  1  0  0  0  0
 14 50  1  0  0  0  0
 15  5  2  0  0  0  0
 15  6  1  0  0  0  0
 15 12  1  0  0  0  0
 16  7  1  0  0  0  0
 16 11  2  0  0  0  0
 16 14  1  0  0  0  0
 17  8  2  0  0  0  0
 17 11  1  0  0  0  0
 18  9  1  0  0  0  0
 18 13  2  0  0  0  0
 19 10  1  0  0  0  0
 20 13  1  0  0  0  0
 20 19  2  0  0  0  0
 21 12  1  0  0  0  0
 21 30  1  0  0  0  0
 21 34  1  1  0  0  0
 22 19  1  0  0  0  0
 23 21  1  0  0  0  0
 24 17  1  0  0  0  0
 25 18  1  0  0  0  0
 26 20  1  0  0  0  0
 27 24  1  0  0  0  0
 28 24  1  0  0  0  0
 29 24  1  0  0  0  0
 30 14  1  0  0  0  0
 30 22  1  0  0  0  0
 31 22  2  0  0  0  0
 32 23  2  0  0  0  0
 33 23  1  0  0  0  0
 33 51  1  0  0  0  0
M  END
>  <DRUGBANK_ID>
DB03605

>  <SECONDARY_ACCESSION_NUMBERS>
EXPT00039

>  <COMMON_NAME>
(2s)-2-[(2,4-Dichloro-Benzoyl)-(3-Trifluoromethyl-Benzyl)-Amino]-3-Phenyl-Propionic Acid

$$$$
