DPB
 OpenBabel10282417123D

 47 50  0  0  0  0  0  0  0  0999 V2000
   -5.5227   -1.3505   -0.1983 C   0  0  0  0  0  0  0  0  0  0  0  0
   -4.3460   -2.0935    0.0508 C   0  0  0  0  0  0  0  0  0  0  0  0
   -3.1052   -1.4625    0.0047 C   0  0  0  0  0  0  0  0  0  0  0  0
   -3.1647   -0.0694   -0.2205 C   0  0  0  0  0  0  0  0  0  0  0  0
   -4.2655    0.6107   -0.7129 C   0  0  0  0  0  0  0  0  0  0  0  0
   -5.4793   -0.0127   -0.6098 C   0  0  0  0  0  0  0  0  0  0  0  0
   -4.7260   -6.3119    2.4798 C   0  0  0  0  0  0  0  0  0  0  0  0
   -3.5988   -5.5520    2.8069 N   0  0  0  0  0  0  0  0  0  0  0  0
   -3.6339   -4.7238    3.9137 C   0  0  0  0  0  0  0  0  0  0  0  0
   -4.6543   -4.6563    4.7649 C   0  0  0  0  0  0  0  0  0  0  0  0
   -5.8935   -5.3775    4.4159 C   0  0  0  0  0  0  0  0  0  0  0  0
   -5.8611   -6.0150    3.2005 N   0  0  0  0  0  0  0  0  0  0  0  0
   -4.7589   -7.2118    1.6400 O   0  0  0  0  0  0  0  0  0  0  0  0
   -6.8562   -5.3931    5.1497 O   0  0  0  0  0  0  0  0  0  0  0  0
   -4.5886   -3.8952    6.0459 C   0  0  0  0  0  0  0  0  0  0  0  0
   -2.3315   -5.8346    2.1159 C   0  0  1  0  0  0  0  0  0  0  0  0
   -2.4724   -5.6027    0.6864 O   0  0  0  0  0  0  0  0  0  0  0  0
   -1.2032   -5.0974    0.2302 C   0  0  2  0  0  0  0  0  0  0  0  0
   -0.7875   -4.1428    1.3070 C   0  0  2  0  0  0  0  0  0  0  0  0
   -1.0868   -5.0083    2.5289 C   0  0  0  0  0  0  0  0  0  0  0  0
   -1.2220   -4.3707   -1.1008 C   0  0  0  0  0  0  0  0  0  0  0  0
   -1.7593   -3.0464   -1.1470 O   0  0  0  0  0  0  0  0  0  0  0  0
   -1.7268   -2.2326    0.0425 C   0  0  2  0  0  0  0  0  0  0  0  0
   -1.6078   -2.9586    1.3001 O   0  0  0  0  0  0  0  0  0  0  0  0
   -0.3487   -0.8240   -0.0183 P   0  0  0  0  0  0  0  0  0  0  0  0
   -0.7490    0.3056   -1.1216 O   0  0  0  0  0  0  0  0  0  0  0  0
   -0.0872   -0.1893    1.3152 O   0  0  0  0  0  0  0  0  0  0  0  0
    1.0224   -1.1008   -0.7917 O   0  0  0  0  0  0  0  0  0  0  0  0
   -2.1225   -6.9098    2.2534 H   0  0  0  0  0  0  0  0  0  0  0  0
   -0.5298   -5.9678    0.1610 H   0  0  0  0  0  0  0  0  0  0  0  0
    0.2722   -3.8748    1.2665 H   0  0  0  0  0  0  0  0  0  0  0  0
   -6.4939   -1.8223   -0.0920 H   0  0  0  0  0  0  0  0  0  0  0  0
   -4.4182   -3.1483    0.3048 H   0  0  0  0  0  0  0  0  0  0  0  0
   -2.3588    0.6022    0.0415 H   0  0  0  0  0  0  0  0  0  0  0  0
   -4.1534    1.6333   -1.0678 H   0  0  0  0  0  0  0  0  0  0  0  0
   -6.3781    0.5707   -0.7817 H   0  0  0  0  0  0  0  0  0  0  0  0
   -2.7773   -4.1116    4.1413 H   0  0  0  0  0  0  0  0  0  0  0  0
   -6.6959   -6.5197    2.9517 H   0  0  0  0  0  0  0  0  0  0  0  0
   -5.3415   -3.1050    6.0680 H   0  0  0  0  0  0  0  0  0  0  0  0
   -4.7439   -4.5677    6.8959 H   0  0  0  0  0  0  0  0  0  0  0  0
   -3.6049   -3.4289    6.1860 H   0  0  0  0  0  0  0  0  0  0  0  0
   -1.1575   -4.4043    3.4267 H   0  0  0  0  0  0  0  0  0  0  0  0
   -0.2724   -5.7161    2.7429 H   0  0  0  0  0  0  0  0  0  0  0  0
   -1.7548   -4.9952   -1.8310 H   0  0  0  0  0  0  0  0  0  0  0  0
   -0.1898   -4.2796   -1.4525 H   0  0  0  0  0  0  0  0  0  0  0  0
   -1.3469    0.0287   -1.8454 H   0  0  0  0  0  0  0  0  0  0  0  0
    1.4094   -0.1861   -0.7972 H   0  0  0  0  0  0  0  0  0  0  0  0
  1  2  2  0  0  0  0
  1  6  1  0  0  0  0
  1 32  1  0  0  0  0
  2  3  1  0  0  0  0
  2 33  1  0  0  0  0
  3  4  2  0  0  0  0
  4  5  1  0  0  0  0
  4 34  1  0  0  0  0
  5  6  2  0  0  0  0
  5 35  1  0  0  0  0
  6 36  1  0  0  0  0
  7  8  1  0  0  0  0
  7 12  1  0  0  0  0
  7 13  2  0  0  0  0
  8  9  1  0  0  0  0
  9 10  2  0  0  0  0
  9 37  1  0  0  0  0
 10 11  1  0  0  0  0
 10 15  1  0  0  0  0
 11 12  1  0  0  0  0
 11 14  2  0  0  0  0
 12 38  1  0  0  0  0
 15 39  1  0  0  0  0
 15 40  1  0  0  0  0
 15 41  1  0  0  0  0
 16 17  1  0  0  0  0
 16 20  1  0  0  0  0
 16 29  1  1  0  0  0
 16  8  1  0  0  0  0
 17 18  1  0  0  0  0
 18 19  1  0  0  0  0
 18 21  1  0  0  0  0
 18 30  1  6  0  0  0
 19 20  1  0  0  0  0
 19 24  1  0  0  0  0
 19 31  1  6  0  0  0
 20 42  1  0  0  0  0
 20 43  1  0  0  0  0
 21 22  1  0  0  0  0
 21 44  1  0  0  0  0
 21 45  1  0  0  0  0
 22 23  1  0  0  0  0
 23 24  1  0  0  0  0
 23 25  1  6  0  0  0
 23  3  1  0  0  0  0
 25 26  1  0  0  0  0
 25 27  2  0  0  0  0
 25 28  1  0  0  0  0
 26 46  1  0  0  0  0
 28 47  1  0  0  0  0
M  END
>  <DRUGBANK_ID>
DB02217

>  <SECONDARY_ACCESSION_NUMBERS>
EXPT01255

>  <COMMON_NAME>
Dpb-T

$$$$
