
 OpenBabel10282417103D

 31 32  0  0  0  0  0  0  0  0999 V2000
   -0.5921    1.5455   -0.0113 C   0  0  0  0  0  0  0  0  0  0  0  0
   -2.0021    0.9818    0.3359 C   0  0  2  0  0  0  0  0  0  0  0  0
   -2.2013   -0.3745   -0.3848 C   0  0  0  0  0  0  0  0  0  0  0  0
   -1.1411   -1.3990    0.0758 C   0  0  0  0  0  0  0  0  0  0  0  0
    0.2355   -0.8356    0.0013 C   0  0  0  0  0  0  0  0  0  0  0  0
    0.4624    0.5121   -0.0341 C   0  0  0  0  0  0  0  0  0  0  0  0
    2.1252    0.8544   -0.0788 S   0  0  0  0  0  0  0  0  0  0  0  0
    1.3769   -1.6075    0.0404 N   0  0  0  0  0  0  0  0  0  0  0  0
    2.4356   -0.8351    0.0099 C   0  0  0  0  0  0  0  0  0  0  0  0
   -3.1509    1.8524    0.0206 N   0  0  0  0  0  0  0  0  0  0  0  0
    3.6903   -1.3051    0.0495 N   0  0  0  0  0  0  0  0  0  0  0  0
   -3.1674    3.1639    0.6738 C   0  0  0  0  0  0  0  0  0  0  0  0
   -2.0694    4.1416    0.2435 C   0  0  0  0  0  0  0  0  0  0  0  0
   -1.9691    4.3011   -1.2678 C   0  0  0  0  0  0  0  0  0  0  0  0
   -0.5994    2.0302   -0.9909 H   0  0  0  0  0  0  0  0  0  0  0  0
   -0.2833    2.2371    0.7704 H   0  0  0  0  0  0  0  0  0  0  0  0
   -2.0413    0.7860    1.4156 H   0  0  0  0  0  0  0  0  0  0  0  0
   -3.2010   -0.7796   -0.1845 H   0  0  0  0  0  0  0  0  0  0  0  0
   -2.1309   -0.2227   -1.4718 H   0  0  0  0  0  0  0  0  0  0  0  0
   -1.3435   -1.6600    1.1210 H   0  0  0  0  0  0  0  0  0  0  0  0
   -1.2126   -2.3056   -0.5292 H   0  0  0  0  0  0  0  0  0  0  0  0
   -3.2811    1.9493   -0.9850 H   0  0  0  0  0  0  0  0  0  0  0  0
    4.5001   -0.7064    0.0098 H   0  0  0  0  0  0  0  0  0  0  0  0
    3.8320   -2.3041    0.0896 H   0  0  0  0  0  0  0  0  0  0  0  0
   -4.1317    3.6379    0.4477 H   0  0  0  0  0  0  0  0  0  0  0  0
   -3.1542    3.0318    1.7625 H   0  0  0  0  0  0  0  0  0  0  0  0
   -2.2316    5.1174    0.7107 H   0  0  0  0  0  0  0  0  0  0  0  0
   -1.1050    3.8502    0.6494 H   0  0  0  0  0  0  0  0  0  0  0  0
   -2.7951    4.9117   -1.6347 H   0  0  0  0  0  0  0  0  0  0  0  0
   -1.0198    4.7742   -1.5340 H   0  0  0  0  0  0  0  0  0  0  0  0
   -2.0070    3.3525   -1.8120 H   0  0  0  0  0  0  0  0  0  0  0  0
  1  2  1  0  0  0  0
  1  6  1  0  0  0  0
  1 15  1  0  0  0  0
  1 16  1  0  0  0  0
  2  3  1  0  0  0  0
  2 10  1  0  0  0  0
  2 17  1  1  0  0  0
  3  4  1  0  0  0  0
  3 18  1  0  0  0  0
  3 19  1  0  0  0  0
  4  5  1  0  0  0  0
  4 20  1  0  0  0  0
  4 21  1  0  0  0  0
  5  8  1  0  0  0  0
  6  5  2  0  0  0  0
  7  6  1  0  0  0  0
  7  9  1  0  0  0  0
  8  9  2  0  0  0  0
  9 11  1  0  0  0  0
 10 12  1  0  0  0  0
 10 22  1  0  0  0  0
 11 23  1  0  0  0  0
 11 24  1  0  0  0  0
 12 13  1  0  0  0  0
 12 25  1  0  0  0  0
 12 26  1  0  0  0  0
 13 14  1  0  0  0  0
 13 27  1  0  0  0  0
 13 28  1  0  0  0  0
 14 29  1  0  0  0  0
 14 30  1  0  0  0  0
 14 31  1  0  0  0  0
M  END
>  <DRUGBANK_ID>
DB00413

>  <SECONDARY_ACCESSION_NUMBERS>
APRD00156

>  <COMMON_NAME>
Pramipexole

>  <CAS_NUMBER>
104632-26-0

>  <UNII>
83619PEU5T

>  <SYNONYMS>
(-)-Pramipexole; (S)-N  6-propyl-4,5,6,7-tetrahydro-1,3-benzothiazole-2,6-diamine; Pramipexol; Pramipexole; Pramipexolum

$$$$
