
 OpenBabel10282417193D

 42 43  0  0  0  0  0  0  0  0999 V2000
   -0.0865    1.9810    0.0075 C   0  0  0  0  0  0  0  0  0  0  0  0
    1.2579    1.4260    0.0049 C   0  0  0  0  0  0  0  0  0  0  0  0
   -1.1722    1.0623    0.0244 C   0  0  0  0  0  0  0  0  0  0  0  0
   -0.2501    3.5123    0.0154 C   0  0  0  0  0  0  0  0  0  0  0  0
    1.4375    0.0174    0.0084 C   0  0  0  0  0  0  0  0  0  0  0  0
    2.2867    2.3405    0.0076 O   0  0  0  0  0  0  0  0  0  0  0  0
   -0.9378   -0.3249    0.0193 C   0  0  0  0  0  0  0  0  0  0  0  0
   -2.5069    1.3565    0.1182 O   0  0  0  0  0  0  0  0  0  0  0  0
   -1.4967    4.0976    0.0075 N   0  0  0  0  0  0  0  0  0  0  0  0
    0.7304    4.2687    0.0175 O   0  0  0  0  0  0  0  0  0  0  0  0
    0.3427   -0.8355    0.0158 C   0  0  0  0  0  0  0  0  0  0  0  0
    2.9303   -0.8710   -0.0038 Cl  0  0  0  0  0  0  0  0  0  0  0  0
    3.6460    1.9356    0.0202 C   0  0  0  0  0  0  0  0  0  0  0  0
   -2.2342   -1.4761    0.0097 Cl  0  0  0  0  0  0  0  0  0  0  0  0
   -1.7451    5.5369   -0.0129 C   0  0  0  0  0  0  0  0  0  0  0  0
   -2.6600    5.8957   -1.2075 C   0  0  1  0  0  0  0  0  0  0  0  0
   -3.9606    5.1624   -1.3010 N   0  0  0  0  0  0  0  0  0  0  0  0
   -3.0371    7.3695   -1.3148 C   0  0  0  0  0  0  0  0  0  0  0  0
   -4.7926    5.9601   -2.2335 C   0  0  0  0  0  0  0  0  0  0  0  0
   -4.6652    4.9594   -0.0199 C   0  0  0  0  0  0  0  0  0  0  0  0
   -4.1787    7.3576   -2.3186 C   0  0  0  0  0  0  0  0  0  0  0  0
   -4.9760    6.2164    0.7826 C   0  0  0  0  0  0  0  0  0  0  0  0
   -2.7603    2.1623   -0.3320 H   0  0  0  0  0  0  0  0  0  0  0  0
   -2.3591    3.6112    0.0090 H   0  0  0  0  0  0  0  0  0  0  0  0
    0.4918   -1.9128    0.0238 H   0  0  0  0  0  0  0  0  0  0  0  0
    3.8778    1.3795    0.9344 H   0  0  0  0  0  0  0  0  0  0  0  0
    3.8922    1.3848   -0.8930 H   0  0  0  0  0  0  0  0  0  0  0  0
    4.2896    2.8195    0.0272 H   0  0  0  0  0  0  0  0  0  0  0  0
   -2.2271    5.7592    0.9429 H   0  0  0  0  0  0  0  0  0  0  0  0
   -0.8118    6.1032   -0.0396 H   0  0  0  0  0  0  0  0  0  0  0  0
   -2.0965    5.6367   -2.1173 H   0  0  0  0  0  0  0  0  0  0  0  0
   -3.3850    7.8024   -0.3756 H   0  0  0  0  0  0  0  0  0  0  0  0
   -2.2029    7.9995   -1.6322 H   0  0  0  0  0  0  0  0  0  0  0  0
   -5.8442    6.0073   -1.9216 H   0  0  0  0  0  0  0  0  0  0  0  0
   -4.8051    5.4988   -3.2289 H   0  0  0  0  0  0  0  0  0  0  0  0
   -5.5951    4.4101   -0.2142 H   0  0  0  0  0  0  0  0  0  0  0  0
   -4.0929    4.2808    0.6189 H   0  0  0  0  0  0  0  0  0  0  0  0
   -4.9166    8.1368   -2.0989 H   0  0  0  0  0  0  0  0  0  0  0  0
   -3.7839    7.5355   -3.3243 H   0  0  0  0  0  0  0  0  0  0  0  0
   -5.5732    6.9242    0.2013 H   0  0  0  0  0  0  0  0  0  0  0  0
   -5.5156    5.9738    1.6973 H   0  0  0  0  0  0  0  0  0  0  0  0
   -4.0659    6.7191    1.1124 H   0  0  0  0  0  0  0  0  0  0  0  0
  1  2  1  0  0  0  0
  1  3  2  0  0  0  0
  1  4  1  0  0  0  0
  2  5  2  0  0  0  0
  2  6  1  0  0  0  0
  3  7  1  0  0  0  0
  3  8  1  0  0  0  0
  4  9  1  0  0  0  0
  4 10  2  0  0  0  0
  5 11  1  0  0  0  0
  5 12  1  0  0  0  0
  6 13  1  0  0  0  0
  7 14  1  0  0  0  0
  7 11  2  0  0  0  0
  8 23  1  0  0  0  0
  9 15  1  0  0  0  0
  9 24  1  0  0  0  0
 11 25  1  0  0  0  0
 13 26  1  0  0  0  0
 13 27  1  0  0  0  0
 13 28  1  0  0  0  0
 15 29  1  0  0  0  0
 15 30  1  0  0  0  0
 16 15  1  0  0  0  0
 16 17  1  0  0  0  0
 16 18  1  0  0  0  0
 16 31  1  6  0  0  0
 17 19  1  0  0  0  0
 17 20  1  0  0  0  0
 18 21  1  0  0  0  0
 18 32  1  0  0  0  0
 18 33  1  0  0  0  0
 19 21  1  0  0  0  0
 19 34  1  0  0  0  0
 19 35  1  0  0  0  0
 20 22  1  0  0  0  0
 20 36  1  0  0  0  0
 20 37  1  0  0  0  0
 21 38  1  0  0  0  0
 21 39  1  0  0  0  0
 22 40  1  0  0  0  0
 22 41  1  0  0  0  0
 22 42  1  0  0  0  0
M  END
>  <DRUGBANK_ID>
DB12518

>  <COMMON_NAME>
Raclopride

>  <CAS_NUMBER>
84225-95-6

>  <UNII>
430K3SOZ7G

>  <SYNONYMS>
Racloprida; Raclopride; Raclopridum

$$$$
