
 OpenBabel10282417223D

 53 56  0  0  1  0  0  0  0  0999 V2000
    2.7760   -7.5474   -2.5577 C   0  0  0  0  0  0  0  0  0  0  0  0
    3.6929   -7.6063   -1.4682 O   0  0  0  0  0  0  0  0  0  0  0  0
    5.0175   -7.4515   -1.7943 C   0  0  0  0  0  0  0  0  0  0  0  0
    5.5127   -6.4631   -2.6670 C   0  0  0  0  0  0  0  0  0  0  0  0
    6.8961   -6.3078   -2.8732 C   0  0  0  0  0  0  0  0  0  0  0  0
    7.7653   -7.1834   -2.2014 C   0  0  0  0  0  0  0  0  0  0  0  0
    7.2822   -8.1634   -1.3161 C   0  0  0  0  0  0  0  0  0  0  0  0
    8.0625   -9.0390   -0.6016 O   0  0  0  0  0  0  0  0  0  0  0  0
    9.4705   -8.9328   -0.7948 C   0  0  0  0  0  0  0  0  0  0  0  0
    5.9058   -8.2835   -1.1064 C   0  0  0  0  0  0  0  0  0  0  0  0
    7.4392   -5.2541   -3.7263 C   0  0  0  0  0  0  0  0  0  0  0  0
    7.9208   -4.3970   -4.4490 C   0  0  0  0  0  0  0  0  0  0  0  0
    8.4836   -3.4803   -5.4311 C   0  0  0  0  0  0  0  0  0  0  0  0
    8.8643   -2.2223   -5.1106 N   0  0  0  0  0  0  0  0  0  0  0  0
    9.3203   -1.7013   -6.3071 N   0  0  0  0  0  0  0  0  0  0  0  0
    9.7807   -0.3156   -6.4360 C   0  0  1  0  0  0  0  0  0  0  0  0
   10.8753    0.1007   -5.4534 C   0  0  0  0  0  0  0  0  0  0  0  0
   11.6374    1.1990   -6.1686 C   0  0  0  0  0  0  0  0  0  0  0  0
   11.6237    0.8309   -7.5567 N   0  0  0  0  0  0  0  0  0  0  0  0
   10.4198    0.0565   -7.8135 C   0  0  0  0  0  0  0  0  0  0  0  0
   12.6013    0.9542   -8.5279 C   0  0  0  0  0  0  0  0  0  0  0  0
   12.4868    0.4442   -9.6460 O   0  0  0  0  0  0  0  0  0  0  0  0
   13.8828    1.6817   -8.2559 C   0  0  0  0  0  0  0  0  0  0  0  0
   14.2413    2.4055   -7.1898 C   0  0  0  0  0  0  0  0  0  0  0  0
    9.1795   -2.5944   -7.3437 C   0  0  0  0  0  0  0  0  0  0  0  0
    8.6863   -3.7599   -6.8050 C   0  0  0  0  0  0  0  0  0  0  0  0
    8.5059   -4.8203   -7.6926 C   0  0  0  0  0  0  0  0  0  0  0  0
    7.9929   -6.0282   -7.3024 N   0  0  0  0  0  0  0  0  0  0  0  0
    8.8544   -4.6692   -8.9897 N   0  0  0  0  0  0  0  0  0  0  0  0
    9.3216   -3.4787   -9.3910 C   0  0  0  0  0  0  0  0  0  0  0  0
    9.4664   -2.3914   -8.6382 N   0  0  0  0  0  0  0  0  0  0  0  0
    1.7635   -7.6702   -2.1549 H   0  0  0  0  0  0  0  0  0  0  0  0
    2.9559   -8.3699   -3.2575 H   0  0  0  0  0  0  0  0  0  0  0  0
    2.8004   -6.5838   -3.0724 H   0  0  0  0  0  0  0  0  0  0  0  0
    4.8253   -5.7806   -3.1536 H   0  0  0  0  0  0  0  0  0  0  0  0
    8.8315   -7.0761   -2.3650 H   0  0  0  0  0  0  0  0  0  0  0  0
    9.7369   -9.1380   -1.8373 H   0  0  0  0  0  0  0  0  0  0  0  0
    9.8354   -7.9488   -0.4808 H   0  0  0  0  0  0  0  0  0  0  0  0
    9.9685   -9.6833   -0.1730 H   0  0  0  0  0  0  0  0  0  0  0  0
    5.5232   -9.0268   -0.4064 H   0  0  0  0  0  0  0  0  0  0  0  0
    8.8967    0.3104   -6.2496 H   0  0  0  0  0  0  0  0  0  0  0  0
   11.5676   -0.7273   -5.2612 H   0  0  0  0  0  0  0  0  0  0  0  0
   10.5111    0.4721   -4.4911 H   0  0  0  0  0  0  0  0  0  0  0  0
   11.1544    2.1813   -6.1031 H   0  0  0  0  0  0  0  0  0  0  0  0
   12.6263    1.2011   -5.7298 H   0  0  0  0  0  0  0  0  0  0  0  0
   10.7723   -0.7791   -8.4031 H   0  0  0  0  0  0  0  0  0  0  0  0
    9.7192    0.6506   -8.4135 H   0  0  0  0  0  0  0  0  0  0  0  0
   14.5955    1.6062   -9.0790 H   0  0  0  0  0  0  0  0  0  0  0  0
   15.2234    2.8497   -7.0973 H   0  0  0  0  0  0  0  0  0  0  0  0
   13.5933    2.6127   -6.3586 H   0  0  0  0  0  0  0  0  0  0  0  0
    7.7181   -6.1858   -6.3476 H   0  0  0  0  0  0  0  0  0  0  0  0
    7.8907   -6.7436   -8.0035 H   0  0  0  0  0  0  0  0  0  0  0  0
    9.6202   -3.3781  -10.4312 H   0  0  0  0  0  0  0  0  0  0  0  0
  1  2  1  0  0  0  0
  1 32  1  0  0  0  0
  1 33  1  0  0  0  0
  1 34  1  0  0  0  0
  2  3  1  0  0  0  0
  3  4  2  0  0  0  0
  3 10  1  0  0  0  0
  4  5  1  0  0  0  0
  4 35  1  0  0  0  0
  5  6  2  0  0  0  0
  5 11  1  0  0  0  0
  6  7  1  0  0  0  0
  6 36  1  0  0  0  0
  7  8  1  0  0  0  0
  7 10  2  0  0  0  0
  8  9  1  0  0  0  0
  9 37  1  0  0  0  0
  9 38  1  0  0  0  0
  9 39  1  0  0  0  0
 10 40  1  0  0  0  0
 11 12  3  0  0  0  0
 12 13  1  0  0  0  0
 13 14  2  0  0  0  0
 13 26  1  0  0  0  0
 14 15  1  0  0  0  0
 15 25  1  0  0  0  0
 16 17  1  0  0  0  0
 16 20  1  0  0  0  0
 16 41  1  1  0  0  0
 16 15  1  0  0  0  0
 17 18  1  0  0  0  0
 17 42  1  0  0  0  0
 17 43  1  0  0  0  0
 18 19  1  0  0  0  0
 18 44  1  0  0  0  0
 18 45  1  0  0  0  0
 19 20  1  0  0  0  0
 19 21  1  0  0  0  0
 20 46  1  0  0  0  0
 20 47  1  0  0  0  0
 21 22  2  0  0  0  0
 21 23  1  0  0  0  0
 23 24  2  0  0  0  0
 23 48  1  0  0  0  0
 24 49  1  0  0  0  0
 24 50  1  0  0  0  0
 25 26  2  0  0  0  0
 25 31  1  0  0  0  0
 26 27  1  0  0  0  0
 27 28  1  0  0  0  0
 27 29  2  0  0  0  0
 28 51  1  0  0  0  0
 28 52  1  0  0  0  0
 29 30  1  0  0  0  0
 30 31  2  0  0  0  0
 30 53  1  0  0  0  0
M  END
>  <DRUGBANK_ID>
DB15149

>  <COMMON_NAME>
Futibatinib

>  <CAS_NUMBER>
1448169-71-8

>  <UNII>
4B93MGE4AL

>  <SYNONYMS>
1-((3S)-(4-amino-3-((3,5-dimethoxyphenyl)ethynyl)-1H-pyrazolo(3, 4-d) pyrimidin-1-yl)-1-pyrrolidinyl)-2-propen-1-one; 1-[(3S)-3-{4-amino-3-[(3,5-dimethoxyphenyl)ethynyl]-1H-pyrazolo[3,4-d]pyrimidin-1-yl}pyrrolidin-1-yl]prop-2-en-1-one; Futibatinib

$$$$
