
 OpenBabel10282417153D

 99105  0  0  0  0  0  0  0  0999 V2000
    4.4339   -7.9147    2.2284 C   0  0  0  0  0  0  0  0  0  0  0  0
    4.9762   -6.9766    1.2696 N   0  0  0  0  0  0  0  0  0  0  0  0
    5.7725   -7.5709    0.3119 C   0  0  0  0  0  0  0  0  0  0  0  0
    6.9902   -7.5232    0.3175 O   0  0  0  0  0  0  0  0  0  0  0  0
    4.8986   -8.3577   -0.6264 C   0  0  2  0  0  0  0  0  0  0  0  0
    4.1241   -8.8377   -0.0221 H   0  0  0  0  0  0  0  0  0  0  0  0
    5.5260   -9.4994   -1.3530 C   0  0  0  0  0  0  0  0  0  0  0  0
    6.2850   -8.8931   -2.5611 C   0  0  2  0  0  0  0  0  0  0  0  0
    7.5444   -8.0731   -2.3089 O   0  0  0  0  0  0  0  0  0  0  0  0
    8.8559   -8.5542   -1.8894 C   0  0  0  0  0  0  0  0  0  0  0  0
    9.1416   -9.7239   -1.1090 C   0  0  0  0  0  0  0  0  0  0  0  0
    8.2109  -10.7011   -0.8629 C   0  0  0  0  0  0  0  0  0  0  0  0
    8.3456  -11.7844   -0.0095 C   0  0  0  0  0  0  0  0  0  0  0  0
    9.5724  -12.0616    0.5517 C   0  0  0  0  0  0  0  0  0  0  0  0
    9.5148  -13.2183    1.2791 O   0  0  0  0  0  0  0  0  0  0  0  0
   10.6958  -13.6884    1.8870 C   0  0  0  0  0  0  0  0  0  0  0  0
   10.6341  -11.1839    0.2541 C   0  0  0  0  0  0  0  0  0  0  0  0
   12.0516  -11.3554    0.7440 C   0  0  0  0  0  0  0  0  0  0  0  0
   10.4243  -10.0173   -0.5647 C   0  0  0  0  0  0  0  0  0  0  0  0
   11.4686   -9.2212   -0.8358 N   0  0  0  0  0  0  0  0  0  0  0  0
   11.2930   -8.1243   -1.6107 C   0  0  0  0  0  0  0  0  0  0  0  0
   12.5731   -7.3655   -1.8158 C   0  0  0  0  0  0  0  0  0  0  0  0
   12.6805   -5.7269   -1.2723 S   0  0  0  0  0  0  0  0  0  0  0  0
   14.2930   -5.6273   -1.8342 C   0  0  0  0  0  0  0  0  0  0  0  0
   14.6967   -6.8366   -2.3672 C   0  0  0  0  0  0  0  0  0  0  0  0
   16.0546   -7.1008   -2.9880 C   0  0  0  0  0  0  0  0  0  0  0  0
   16.2838   -6.1981   -4.2091 C   0  0  0  0  0  0  0  0  0  0  0  0
   17.1883   -6.8709   -1.9802 C   0  0  0  0  0  0  0  0  0  0  0  0
   13.7146   -7.8327   -2.3221 N   0  0  0  0  0  0  0  0  0  0  0  0
   10.0160   -7.7520   -2.1363 C   0  0  0  0  0  0  0  0  0  0  0  0
    4.8325   -8.2051   -3.0476 C   0  0  0  0  0  0  0  0  0  0  0  0
    4.3052   -7.4643   -1.7529 C   0  0  1  0  0  0  0  0  0  0  0  0
    4.7790   -6.4855   -1.8119 H   0  0  0  0  0  0  0  0  0  0  0  0
    2.8329   -7.1136   -1.3448 C   0  0  0  0  0  0  0  0  0  0  0  0
    2.3122   -7.6389   -0.3488 O   0  0  0  0  0  0  0  0  0  0  0  0
    2.1312   -6.1078   -2.0415 N   0  0  0  0  0  0  0  0  0  0  0  0
    0.6592   -5.9100   -1.7034 C   0  0  2  0  0  0  0  0  0  0  0  0
    0.0308   -7.3754   -1.7585 C   0  0  0  0  0  0  0  0  0  0  0  0
    0.6805   -8.2653   -2.3083 O   0  0  0  0  0  0  0  0  0  0  0  0
   -1.2003   -7.8249   -1.3154 N   0  0  0  0  0  0  0  0  0  0  0  0
   -2.3218   -6.8429   -0.7225 S   0  0  0  0  0  0  0  0  0  0  0  0
   -3.2997   -6.5916   -1.7321 O   0  0  0  0  0  0  0  0  0  0  0  0
   -2.9659   -7.3548    0.8072 C   0  0  0  0  0  0  0  0  0  0  0  0
   -3.8515   -8.5000    0.9254 C   0  0  0  0  0  0  0  0  0  0  0  0
   -4.4262   -7.0874    0.9212 C   0  0  0  0  0  0  0  0  0  0  0  0
   -1.5976   -5.7730   -0.0568 O   0  0  0  0  0  0  0  0  0  0  0  0
   -0.4013   -4.4614   -1.7227 C   0  0  0  0  0  0  0  0  0  0  0  0
    0.7130   -4.7140   -0.8235 C   0  0  1  0  0  0  0  0  0  0  0  0
    1.4023   -3.9335   -1.1755 H   0  0  0  0  0  0  0  0  0  0  0  0
    0.8716   -4.7579    0.6368 C   0  0  0  0  0  0  0  0  0  0  0  0
    1.8110   -3.9890    1.2124 C   0  0  0  0  0  0  0  0  0  0  0  0
    2.2226   -3.8559    2.6487 C   0  0  0  0  0  0  0  0  0  0  0  0
    3.7733   -3.7368    2.7072 C   0  0  0  0  0  0  0  0  0  0  0  0
    4.4008   -5.1271    2.8406 C   0  0  0  0  0  0  0  0  0  0  0  0
    5.0758   -5.5615    1.5484 C   0  0  0  0  0  0  0  0  0  0  0  0
    3.3666   -8.0265    2.0312 H   0  0  0  0  0  0  0  0  0  0  0  0
    4.6215   -7.5935    3.2499 H   0  0  0  0  0  0  0  0  0  0  0  0
    4.9299   -8.8848    2.1075 H   0  0  0  0  0  0  0  0  0  0  0  0
    5.8581  -10.3775   -0.8167 H   0  0  0  0  0  0  0  0  0  0  0  0
    4.6191  -10.0173   -1.7001 H   0  0  0  0  0  0  0  0  0  0  0  0
    6.6013   -9.6670   -3.2640 H   0  0  0  0  0  0  0  0  0  0  0  0
    7.3664  -10.7005   -1.4936 H   0  0  0  0  0  0  0  0  0  0  0  0
    7.4831  -12.4288    0.1480 H   0  0  0  0  0  0  0  0  0  0  0  0
   11.4342  -13.9328    1.1152 H   0  0  0  0  0  0  0  0  0  0  0  0
   11.0314  -12.9602    2.6326 H   0  0  0  0  0  0  0  0  0  0  0  0
   10.5094  -14.6152    2.4313 H   0  0  0  0  0  0  0  0  0  0  0  0
   12.7265  -11.4761   -0.1071 H   0  0  0  0  0  0  0  0  0  0  0  0
   12.3216  -10.5046    1.3733 H   0  0  0  0  0  0  0  0  0  0  0  0
   12.2733  -12.2089    1.3650 H   0  0  0  0  0  0  0  0  0  0  0  0
   14.8723   -4.7152   -1.7691 H   0  0  0  0  0  0  0  0  0  0  0  0
   16.1020   -8.1451   -3.3232 H   0  0  0  0  0  0  0  0  0  0  0  0
   16.2579   -5.1375   -3.9304 H   0  0  0  0  0  0  0  0  0  0  0  0
   17.2588   -6.3911   -4.6704 H   0  0  0  0  0  0  0  0  0  0  0  0
   15.5099   -6.3594   -4.9666 H   0  0  0  0  0  0  0  0  0  0  0  0
   17.0771   -7.5244   -1.1093 H   0  0  0  0  0  0  0  0  0  0  0  0
   18.1676   -7.0672   -2.4318 H   0  0  0  0  0  0  0  0  0  0  0  0
   17.1968   -5.8352   -1.6197 H   0  0  0  0  0  0  0  0  0  0  0  0
    9.9793   -6.8549   -2.7463 H   0  0  0  0  0  0  0  0  0  0  0  0
    4.2115   -9.0862   -3.3452 H   0  0  0  0  0  0  0  0  0  0  0  0
    4.7009   -7.5568   -3.9170 H   0  0  0  0  0  0  0  0  0  0  0  0
    2.5774   -5.4790   -2.6868 H   0  0  0  0  0  0  0  0  0  0  0  0
   -1.3991   -8.8009   -1.5488 H   0  0  0  0  0  0  0  0  0  0  0  0
   -2.3414   -7.0644    1.6418 H   0  0  0  0  0  0  0  0  0  0  0  0
   -3.9191   -9.1264    0.0501 H   0  0  0  0  0  0  0  0  0  0  0  0
   -3.6710   -9.0089    1.8647 H   0  0  0  0  0  0  0  0  0  0  0  0
   -4.7228   -6.5841    1.8325 H   0  0  0  0  0  0  0  0  0  0  0  0
   -4.9343   -6.6964    0.0422 H   0  0  0  0  0  0  0  0  0  0  0  0
   -1.5112   -4.6035   -1.6365 H   0  0  0  0  0  0  0  0  0  0  0  0
   -0.8230   -3.6415   -1.0161 H   0  0  0  0  0  0  0  0  0  0  0  0
    0.2806   -5.4304    1.2517 H   0  0  0  0  0  0  0  0  0  0  0  0
    2.3574   -3.3317    0.5360 H   0  0  0  0  0  0  0  0  0  0  0  0
    1.8314   -4.6715    3.2721 H   0  0  0  0  0  0  0  0  0  0  0  0
    1.7418   -2.9364    2.9898 H   0  0  0  0  0  0  0  0  0  0  0  0
    4.2091   -3.1241    3.5029 H   0  0  0  0  0  0  0  0  0  0  0  0
    4.0721   -3.1870    1.8041 H   0  0  0  0  0  0  0  0  0  0  0  0
    5.1518   -5.2125    3.6390 H   0  0  0  0  0  0  0  0  0  0  0  0
    3.6101   -5.7970    3.1977 H   0  0  0  0  0  0  0  0  0  0  0  0
    6.1362   -5.2816    1.5324 H   0  0  0  0  0  0  0  0  0  0  0  0
    4.6277   -5.0388    0.6930 H   0  0  0  0  0  0  0  0  0  0  0  0
  1 56  1  0  0  0  0
  1 57  1  0  0  0  0
  1 58  1  0  0  0  0
  2  3  1  0  0  0  0
  2  1  1  0  0  0  0
  3  5  1  0  0  0  0
  3  4  2  0  0  0  0
  5  7  1  0  0  0  0
  5 32  1  0  0  0  0
  5  6  1  1  0  0  0
  7 59  1  0  0  0  0
  7 60  1  0  0  0  0
  8  7  1  0  0  0  0
  8 61  1  6  0  0  0
  8  9  1  0  0  0  0
  9 10  1  0  0  0  0
 10 11  1  0  0  0  0
 11 12  1  0  0  0  0
 11 19  2  0  0  0  0
 12 13  2  0  0  0  0
 12 62  1  0  0  0  0
 13 14  1  0  0  0  0
 13 63  1  0  0  0  0
 14 15  1  0  0  0  0
 14 17  2  0  0  0  0
 15 16  1  0  0  0  0
 16 64  1  0  0  0  0
 16 65  1  0  0  0  0
 16 66  1  0  0  0  0
 17 18  1  0  0  0  0
 18 67  1  0  0  0  0
 18 68  1  0  0  0  0
 18 69  1  0  0  0  0
 19 17  1  0  0  0  0
 19 20  1  0  0  0  0
 20 21  2  0  0  0  0
 21 22  1  0  0  0  0
 21 30  1  0  0  0  0
 22 23  1  0  0  0  0
 24 23  1  0  0  0  0
 24 70  1  0  0  0  0
 25 24  2  0  0  0  0
 25 26  1  0  0  0  0
 26 27  1  0  0  0  0
 26 28  1  0  0  0  0
 26 71  1  0  0  0  0
 27 72  1  0  0  0  0
 27 73  1  0  0  0  0
 27 74  1  0  0  0  0
 28 75  1  0  0  0  0
 28 76  1  0  0  0  0
 28 77  1  0  0  0  0
 29 25  1  0  0  0  0
 29 22  2  0  0  0  0
 30 10  2  0  0  0  0
 30 78  1  0  0  0  0
 31  8  1  0  0  0  0
 31 79  1  0  0  0  0
 31 80  1  0  0  0  0
 32 31  1  0  0  0  0
 32 34  1  0  0  0  0
 32 33  1  1  0  0  0
 34 35  2  0  0  0  0
 36 34  1  0  0  0  0
 36 37  1  0  0  0  0
 36 81  1  0  0  0  0
 37 47  1  0  0  0  0
 37 38  1  1  0  0  0
 38 39  2  0  0  0  0
 38 40  1  0  0  0  0
 40 41  1  0  0  0  0
 40 82  1  0  0  0  0
 41 42  2  0  0  0  0
 41 43  1  0  0  0  0
 41 46  2  0  0  0  0
 43 44  1  0  0  0  0
 43 45  1  0  0  0  0
 43 83  1  0  0  0  0
 44 45  1  0  0  0  0
 44 84  1  0  0  0  0
 44 85  1  0  0  0  0
 45 86  1  0  0  0  0
 45 87  1  0  0  0  0
 47 88  1  0  0  0  0
 47 89  1  0  0  0  0
 48 47  1  0  0  0  0
 48 50  1  0  0  0  0
 48 37  1  0  0  0  0
 48 49  1  6  0  0  0
 50 90  1  0  0  0  0
 51 50  2  0  0  0  0
 51 52  1  0  0  0  0
 51 91  1  0  0  0  0
 52 53  1  0  0  0  0
 52 92  1  0  0  0  0
 52 93  1  0  0  0  0
 53 54  1  0  0  0  0
 53 94  1  0  0  0  0
 53 95  1  0  0  0  0
 54 55  1  0  0  0  0
 54 96  1  0  0  0  0
 54 97  1  0  0  0  0
 55  2  1  0  0  0  0
 55 98  1  0  0  0  0
 55 99  1  0  0  0  0
M  END
>  <DRUGBANK_ID>
DB06290

>  <COMMON_NAME>
Simeprevir

>  <CAS_NUMBER>
923604-59-5

>  <UNII>
9WS5RD66HZ

>  <SYNONYMS>
Simeprevir

$$$$
