
 OpenBabel10282417133D

 42 42  0  0  1  0  0  0  0  0999 V2000
   -1.2136    3.4706    2.3683 C   0  0  0  0  0  0  0  0  0  0  0  0
   -1.6609    0.9795   -0.1436 C   0  0  0  0  0  0  0  0  0  0  0  0
   -3.0432    2.7069    1.0886 C   0  0  0  0  0  0  0  0  0  0  0  0
   -2.2959    2.4130   -0.0213 C   0  0  0  0  0  0  0  0  0  0  0  0
   -1.2829    0.3671    1.2357 C   0  0  2  0  0  0  0  0  0  0  0  0
   -3.1638    1.5852    2.3109 C   0  0  2  0  0  0  0  0  0  0  0  0
   -2.5784    0.1704    2.0336 C   0  0  1  0  0  0  0  0  0  0  0  0
   -2.0721    3.5582   -0.9263 C   0  0  0  0  0  0  0  0  0  0  0  0
    0.4516    3.1556    0.5291 C   0  0  0  0  0  0  0  0  0  0  0  0
   -0.1691    2.5416    1.7982 C   0  0  2  0  0  0  0  0  0  0  0  0
   -3.4125   -0.7196    1.2675 O   0  0  0  0  0  0  0  0  0  0  0  0
   -2.3892    4.7361   -0.6933 O   0  0  0  0  0  0  0  0  0  0  0  0
   -1.2925    3.2386   -1.9608 O   0  0  0  0  0  0  0  0  0  0  0  0
    0.5619    4.3574    0.3235 O   0  0  0  0  0  0  0  0  0  0  0  0
    0.6452    2.2716   -0.4731 O   0  0  0  0  0  0  0  0  0  0  0  0
   -4.2634    1.1490    0.2233 O   0  0  0  0  0  0  0  0  0  0  0  0
   -5.5833   -0.0761    2.1343 O   0  0  0  0  0  0  0  0  0  0  0  0
   -6.1230    0.9551    0.1577 O   0  0  0  0  0  0  0  0  0  0  0  0
   -1.0238    1.4408    4.1633 O   0  0  0  0  0  0  0  0  0  0  0  0
    1.4157    1.6782    4.4025 O   0  0  0  0  0  0  0  0  0  0  0  0
   -0.1823    2.1375    6.0111 O   0  0  0  0  0  0  0  0  0  0  0  0
   -0.2142    1.1079    1.8695 O   0  0  0  0  0  0  0  0  0  0  0  0
   -4.3929    1.7897    2.8143 O   0  0  0  0  0  0  0  0  0  0  0  0
    0.3292    3.0651    2.9086 O   0  0  0  0  0  0  0  0  0  0  0  0
   -5.3059    1.3493    1.4124 P   0  0  0  0  0  0  0  0  0  0  0  0
    0.0593    2.5756    4.5458 P   0  0  0  0  0  0  0  0  0  0  0  0
   -0.8998   -0.6580    1.0938 H   0  0  0  0  0  0  0  0  0  0  0  0
   -2.7506    1.8388    3.2670 H   0  0  0  0  0  0  0  0  0  0  0  0
   -2.4684   -0.3710    2.9790 H   0  0  0  0  0  0  0  0  0  0  0  0
   -1.6795    2.5789    2.3335 H   0  0  0  0  0  0  0  0  0  0  0  0
   -1.5245    4.3368    1.8203 H   0  0  0  0  0  0  0  0  0  0  0  0
   -1.6365    3.5950    3.3976 H   0  0  0  0  0  0  0  0  0  0  0  0
   -0.7772    0.8340   -0.7495 H   0  0  0  0  0  0  0  0  0  0  0  0
   -2.3579    0.3413   -0.6939 H   0  0  0  0  0  0  0  0  0  0  0  0
   -3.4899    3.6897    1.2952 H   0  0  0  0  0  0  0  0  0  0  0  0
   -3.7695   -0.2025    0.4969 H   0  0  0  0  0  0  0  0  0  0  0  0
   -1.0846    4.1054   -2.3900 H   0  0  0  0  0  0  0  0  0  0  0  0
    0.0839    2.5485   -1.2438 H   0  0  0  0  0  0  0  0  0  0  0  0
   -4.5963    1.8665   -0.3889 H   0  0  0  0  0  0  0  0  0  0  0  0
   -4.7953   -0.5465    2.4631 H   0  0  0  0  0  0  0  0  0  0  0  0
   -1.6785    1.5457    4.8902 H   0  0  0  0  0  0  0  0  0  0  0  0
    1.9448    1.9253    3.6270 H   0  0  0  0  0  0  0  0  0  0  0  0
  1 30  1  0  0  0  0
  1 31  1  0  0  0  0
  1 32  1  0  0  0  0
  2 33  1  0  0  0  0
  2 34  1  0  0  0  0
  3 35  1  0  0  0  0
  4  2  1  0  0  0  0
  4  3  2  0  0  0  0
  5  2  1  0  0  0  0
  5 27  1  6  0  0  0
  5 22  1  0  0  0  0
  6  3  1  0  0  0  0
  6 23  1  0  0  0  0
  6 28  1  1  0  0  0
  7  5  1  0  0  0  0
  7  6  1  0  0  0  0
  7 11  1  0  0  0  0
  7 29  1  1  0  0  0
  8  4  1  0  0  0  0
 10 22  1  6  0  0  0
 10  9  1  0  0  0  0
 10  1  1  0  0  0  0
 11 36  1  0  0  0  0
 12  8  2  0  0  0  0
 13  8  1  0  0  0  0
 13 37  1  0  0  0  0
 14  9  2  0  0  0  0
 15  9  1  0  0  0  0
 15 38  1  0  0  0  0
 16 39  1  0  0  0  0
 17 40  1  0  0  0  0
 19 41  1  0  0  0  0
 20 42  1  0  0  0  0
 24 10  1  0  0  0  0
 25 16  1  0  0  0  0
 25 17  1  0  0  0  0
 25 18  2  0  0  0  0
 25 23  1  0  0  0  0
 26 19  1  0  0  0  0
 26 20  1  0  0  0  0
 26 21  2  0  0  0  0
 26 24  1  0  0  0  0
M  END
>  <DRUGBANK_ID>
DB03116

>  <SECONDARY_ACCESSION_NUMBERS>
EXPT02914

>  <COMMON_NAME>
5-(1-Carboxy-1-Phosphonooxy-Ethoxyl)-Shikimate-3-Phosphate

$$$$
