
 OpenBabel10282417123D

 22 21  0  0  1  0  0  0  0  0999 V2000
    1.0061    0.0799    0.0645 C   0  0  0  0  0  0  0  0  0  0  0  0
    0.4556   -1.2970   -0.3054 C   0  0  0  0  0  0  0  0  0  0  0  0
    0.9482   -2.3418    0.6922 C   0  0  0  0  0  0  0  0  0  0  0  0
   -1.0858   -1.2827   -0.3659 C   0  0  0  0  0  0  0  0  0  0  0  0
   -1.6562   -0.2807   -1.3856 C   0  0  1  0  0  0  0  0  0  0  0  0
   -1.1567   -0.5827   -2.7373 N   0  0  0  0  0  0  0  0  0  0  0  0
   -3.1945   -0.3332   -1.3609 C   0  0  0  0  0  0  0  0  0  0  0  0
   -3.7841    0.8425   -1.0280 O   0  0  0  0  0  0  0  0  0  0  0  0
   -3.8629   -1.3275   -1.6170 O   0  0  0  0  0  0  0  0  0  0  0  0
    0.6372    0.3912    1.0473 H   0  0  0  0  0  0  0  0  0  0  0  0
    0.7147    0.8431   -0.6628 H   0  0  0  0  0  0  0  0  0  0  0  0
    2.0992    0.0700    0.0890 H   0  0  0  0  0  0  0  0  0  0  0  0
    0.8587   -1.5856   -1.2834 H   0  0  0  0  0  0  0  0  0  0  0  0
    0.6003   -2.1168    1.7049 H   0  0  0  0  0  0  0  0  0  0  0  0
    0.5920   -3.3404    0.4182 H   0  0  0  0  0  0  0  0  0  0  0  0
    2.0432   -2.3695    0.7038 H   0  0  0  0  0  0  0  0  0  0  0  0
   -1.4473   -2.2935   -0.6020 H   0  0  0  0  0  0  0  0  0  0  0  0
   -1.4870   -1.0511    0.6308 H   0  0  0  0  0  0  0  0  0  0  0  0
   -1.3474    0.7358   -1.1215 H   0  0  0  0  0  0  0  0  0  0  0  0
   -1.4873    0.1005   -3.4133 H   0  0  0  0  0  0  0  0  0  0  0  0
   -0.1397   -0.5660   -2.7621 H   0  0  0  0  0  0  0  0  0  0  0  0
   -3.1828    1.5871   -0.8435 H   0  0  0  0  0  0  0  0  0  0  0  0
  1  2  1  0  0  0  0
  1 10  1  0  0  0  0
  1 11  1  0  0  0  0
  1 12  1  0  0  0  0
  2  3  1  0  0  0  0
  2  4  1  0  0  0  0
  2 13  1  0  0  0  0
  3 14  1  0  0  0  0
  3 15  1  0  0  0  0
  3 16  1  0  0  0  0
  4  5  1  0  0  0  0
  4 17  1  0  0  0  0
  4 18  1  0  0  0  0
  5  6  1  0  0  0  0
  5  7  1  0  0  0  0
  5 19  1  1  0  0  0
  6 20  1  0  0  0  0
  6 21  1  0  0  0  0
  7  8  1  0  0  0  0
  7  9  2  0  0  0  0
  8 22  1  0  0  0  0
M  END
>  <DRUGBANK_ID>
DB01746

>  <SECONDARY_ACCESSION_NUMBERS>
EXPT01216

>  <COMMON_NAME>
D-Leucine

>  <CAS_NUMBER>
328-38-1

>  <UNII>
965COD96YA

>  <SYNONYMS>
(2R)-2-amino-4-methylpentanoic acid; (R)-(âˆ’)-leucine; (R)-leucine; D-2-Amino-4-methylvaleric acid; D-Leucin; D-Leuzin

$$$$
