82A
 OpenBabel10282417163D

 48 51  0  0  0  0  0  0  0  0999 V2000
   -0.3180    1.1079   -0.0027 C   0  0  0  0  0  0  0  0  0  0  0  0
    2.1917    1.5396    0.0144 C   0  0  0  0  0  0  0  0  0  0  0  0
    4.0073    2.4829   -0.5200 N   0  0  0  0  0  0  0  0  0  0  0  0
    3.6496    3.0856    0.6510 C   0  0  0  0  0  0  0  0  0  0  0  0
    2.4615    2.4976    1.0282 C   0  0  0  0  0  0  0  0  0  0  0  0
    1.7483    2.8296    2.2409 C   0  0  0  0  0  0  0  0  0  0  0  0
    1.2642    4.1277    2.4429 C   0  0  0  0  0  0  0  0  0  0  0  0
    0.5401    4.4345    3.5959 C   0  0  0  0  0  0  0  0  0  0  0  0
    0.3130    3.4500    4.5578 C   0  0  0  0  0  0  0  0  0  0  0  0
    0.8064    2.1609    4.3612 C   0  0  0  0  0  0  0  0  0  0  0  0
    1.5144    1.8423    3.2049 C   0  0  0  0  0  0  0  0  0  0  0  0
   -3.5953   -4.3660    1.2834 C   0  0  0  0  0  0  0  0  0  0  0  0
   -4.9572   -3.5317    3.1255 C   0  0  0  0  0  0  0  0  0  0  0  0
   -5.1551   -4.8294    3.5778 C   0  0  0  0  0  0  0  0  0  0  0  0
   -2.8979   -4.1977   -2.4327 O   0  0  0  0  0  0  0  0  0  0  0  0
   -3.6262   -4.4014   -1.2252 C   0  0  0  0  0  0  0  0  0  0  0  0
   -2.7591   -4.1322    0.0261 C   0  0  1  0  0  0  0  0  0  0  0  0
   -2.1834   -2.7688   -0.0303 N   0  0  0  0  0  0  0  0  0  0  0  0
   -0.8173   -2.5453    0.0039 C   0  0  0  0  0  0  0  0  0  0  0  0
   -0.0277   -3.4875    0.0352 O   0  0  0  0  0  0  0  0  0  0  0  0
   -0.3589   -1.1587   -0.0130 C   0  0  0  0  0  0  0  0  0  0  0  0
    0.9694   -0.7242   -0.0314 C   0  0  0  0  0  0  0  0  0  0  0  0
    0.9938    0.6924   -0.0231 C   0  0  0  0  0  0  0  0  0  0  0  0
   -1.1213   -0.0064   -0.0099 N   0  0  0  0  0  0  0  0  0  0  0  0
    3.1446    1.5318   -0.9271 N   0  0  0  0  0  0  0  0  0  0  0  0
    0.5378    0.9543    5.5581 Cl  0  0  0  0  0  0  0  0  0  0  0  0
   -4.1856   -3.3025    1.9861 C   0  0  0  0  0  0  0  0  0  0  0  0
   -5.8959   -5.0179    4.6795 F   0  0  0  0  0  0  0  0  0  0  0  0
   -4.5969   -5.9057    2.8952 C   0  0  0  0  0  0  0  0  0  0  0  0
   -4.8399   -7.5143    3.4609 Cl  0  0  0  0  0  0  0  0  0  0  0  0
   -3.8293   -5.6800    1.7456 C   0  0  0  0  0  0  0  0  0  0  0  0
   -1.9285   -4.8486    0.0300 H   0  0  0  0  0  0  0  0  0  0  0  0
   -0.7425    2.1033    0.0144 H   0  0  0  0  0  0  0  0  0  0  0  0
    4.8280    2.6685   -1.0887 H   0  0  0  0  0  0  0  0  0  0  0  0
    4.2651    3.8497    1.1065 H   0  0  0  0  0  0  0  0  0  0  0  0
    1.4332    4.9000    1.6955 H   0  0  0  0  0  0  0  0  0  0  0  0
    0.1525    5.4393    3.7425 H   0  0  0  0  0  0  0  0  0  0  0  0
   -0.2471    3.6925    5.4569 H   0  0  0  0  0  0  0  0  0  0  0  0
    1.8835    0.8301    3.0552 H   0  0  0  0  0  0  0  0  0  0  0  0
   -5.3985   -2.6999    3.6656 H   0  0  0  0  0  0  0  0  0  0  0  0
   -2.4568   -3.3331   -2.3600 H   0  0  0  0  0  0  0  0  0  0  0  0
   -3.9952   -5.4337   -1.2314 H   0  0  0  0  0  0  0  0  0  0  0  0
   -4.4987   -3.7395   -1.2493 H   0  0  0  0  0  0  0  0  0  0  0  0
   -2.8236   -1.9945   -0.0475 H   0  0  0  0  0  0  0  0  0  0  0  0
    1.8315   -1.3815   -0.0281 H   0  0  0  0  0  0  0  0  0  0  0  0
   -2.1292    0.0338   -0.0019 H   0  0  0  0  0  0  0  0  0  0  0  0
   -4.0517   -2.2745    1.6671 H   0  0  0  0  0  0  0  0  0  0  0  0
   -3.4118   -6.5349    1.2137 H   0  0  0  0  0  0  0  0  0  0  0  0
  1 24  1  0  0  0  0
  1 23  2  0  0  0  0
  1 33  1  0  0  0  0
  2 23  1  0  0  0  0
  2 25  2  0  0  0  0
  2  5  1  0  0  0  0
  3 25  1  0  0  0  0
  3  4  1  0  0  0  0
  3 34  1  0  0  0  0
  4  5  2  0  0  0  0
  4 35  1  0  0  0  0
  5  6  1  0  0  0  0
  6 11  1  0  0  0  0
  6  7  2  0  0  0  0
  7  8  1  0  0  0  0
  7 36  1  0  0  0  0
  8  9  2  0  0  0  0
  8 37  1  0  0  0  0
  9 10  1  0  0  0  0
  9 38  1  0  0  0  0
 10 26  1  0  0  0  0
 10 11  2  0  0  0  0
 11 39  1  0  0  0  0
 12 31  2  0  0  0  0
 12 27  1  0  0  0  0
 12 17  1  0  0  0  0
 13 14  1  0  0  0  0
 13 27  2  0  0  0  0
 13 40  1  0  0  0  0
 14 28  1  0  0  0  0
 14 29  2  0  0  0  0
 15 16  1  0  0  0  0
 15 41  1  0  0  0  0
 16 17  1  0  0  0  0
 16 42  1  0  0  0  0
 16 43  1  0  0  0  0
 17 18  1  0  0  0  0
 17 32  1  1  0  0  0
 18 19  1  0  0  0  0
 18 44  1  0  0  0  0
 19 20  2  0  0  0  0
 19 21  1  0  0  0  0
 21 24  1  0  0  0  0
 21 22  2  0  0  0  0
 22 23  1  0  0  0  0
 22 45  1  0  0  0  0
 24 46  1  0  0  0  0
 27 47  1  0  0  0  0
 29 30  1  0  0  0  0
 29 31  1  0  0  0  0
 31 48  1  0  0  0  0
M  END
>  <DRUGBANK_ID>
DB07264

>  <COMMON_NAME>
(S)-N-(1-(3-CHLORO-4-FLUOROPHENYL)-2-HYDROXYETHYL)-4-(4-(3-CHLOROPHENYL)-1H-PYRAZOL-3-YL)-1H-PYRROLE-2-CARBOXAMIDE

$$$$
