
 OpenBabel10282417233D

 97 99  0  0  1  0  0  0  0  0999 V2000
    1.8429    0.0016   -3.8151 H   0  0  0  0  0  0  0  0  0  0  0  0
    2.0366    1.0463   -3.6885 C   0  0  0  0  0  0  0  0  0  0  0  0
    0.7186    1.8023   -3.7288 C   0  0  1  0  0  0  0  0  0  0  0  0
    0.8101    2.9290   -2.6945 C   0  0  0  0  0  0  0  0  0  0  0  0
   -0.4849    3.7466   -2.7306 C   0  0  0  0  0  0  0  0  0  0  0  0
   -0.7041    4.2772   -4.1494 C   0  0  0  0  0  0  0  0  0  0  0  0
   -0.7487    3.1816   -5.0653 C   0  0  1  0  0  0  0  0  0  0  0  0
   -1.0120    3.7332   -6.4570 C   0  0  0  0  0  0  0  0  0  0  0  0
   -1.0021    2.8399   -7.0459 H   0  0  0  0  0  0  0  0  0  0  0  0
    0.4526    2.4085   -5.1087 N   0  0  0  0  0  0  0  0  0  0  0  0
    1.3011    2.2241   -6.2949 C   0  0  0  0  0  0  0  0  0  0  0  0
    0.9842    2.7760   -7.3949 O   0  0  0  0  0  0  0  0  0  0  0  0
    2.5162    1.4013   -6.2086 N   0  0  0  0  0  0  0  0  0  0  0  0
    2.8828    0.7630   -4.9363 C   0  0  1  0  0  0  0  0  0  0  0  0
    2.9322   -0.7449   -5.1216 C   0  0  0  0  0  0  0  0  0  0  0  0
    3.9674   -1.0917   -6.1793 C   0  0  0  0  0  0  0  0  0  0  0  0
    5.3322   -0.5908   -5.7358 C   0  0  0  0  0  0  0  0  0  0  0  0
    4.0167   -2.5996   -6.3646 C   0  0  0  0  0  0  0  0  0  0  0  0
    3.5883   -0.4316   -7.4949 C   0  0  0  0  0  0  0  0  0  0  0  0
    4.2477    1.2639   -4.4928 C   0  0  0  0  0  0  0  0  0  0  0  0
    4.3727    1.8679   -3.3817 O   0  0  0  0  0  0  0  0  0  0  0  0
    5.4231    1.0497   -5.3493 N   0  0  0  0  0  0  0  0  0  0  0  0
    5.2548    0.4841   -6.6956 C   0  0  2  0  0  0  0  0  0  0  0  0
    6.0516   -0.8056   -6.8066 C   0  0  0  0  0  0  0  0  0  0  0  0
    7.4656   -0.5644   -6.3038 C   0  0  0  0  0  0  0  0  0  0  0  0
    8.5695   -1.0789   -6.8254 C   0  0  0  0  0  0  0  0  0  0  0  0
    9.6293   -0.6692   -6.1586 N   0  0  0  0  0  0  0  0  0  0  0  0
   11.0232   -1.0331   -6.4510 C   0  0  0  0  0  0  0  0  0  0  0  0
   11.2871   -1.8090   -7.4223 O   0  0  0  0  0  0  0  0  0  0  0  0
   12.0749   -0.5176   -5.6481 O   0  0  0  0  0  0  0  0  0  0  0  0
   13.4214   -0.8691   -5.9306 C   0  0  0  0  0  0  0  0  0  0  0  0
    9.2193    0.1373   -5.1663 C   0  0  0  0  0  0  0  0  0  0  0  0
    7.8012    0.2021   -5.2672 C   0  0  0  0  0  0  0  0  0  0  0  0
    7.0901    0.9907   -4.3386 C   0  0  0  0  0  0  0  0  0  0  0  0
    7.7684    1.6603   -3.3814 C   0  0  0  0  0  0  0  0  0  0  0  0
    9.1233    1.5988   -3.2944 C   0  0  0  0  0  0  0  0  0  0  0  0
    9.8567    0.8557   -4.1529 C   0  0  0  0  0  0  0  0  0  0  0  0
    5.7553    1.4795   -7.7295 C   0  0  0  0  0  0  0  0  0  0  0  0
    4.9627    1.9273   -8.6163 O   0  0  0  0  0  0  0  0  0  0  0  0
    7.1562    1.9242   -7.7038 N   0  0  0  0  0  0  0  0  0  0  0  0
    8.0712    1.4057   -6.6767 C   0  0  2  0  0  0  0  0  0  0  0  0
    8.2726    2.4587   -5.5992 C   0  0  0  0  0  0  0  0  0  0  0  0
    7.2178    2.2833   -4.5189 C   0  0  0  0  0  0  0  0  0  0  0  0
    7.3471    0.8991   -3.9045 C   0  0  0  0  0  0  0  0  0  0  0  0
    8.7298    0.7434   -3.2927 C   0  0  0  0  0  0  0  0  0  0  0  0
    9.4099    1.0700   -7.3137 C   0  0  0  0  0  0  0  0  0  0  0  0
    9.9084   -0.2585   -7.2602 O   0  0  0  0  0  0  0  0  0  0  0  0
   10.0830    1.9784   -7.8941 O   0  0  0  0  0  0  0  0  0  0  0  0
    2.5892    1.1997   -2.7852 H   0  0  0  0  0  0  0  0  0  0  0  0
    2.6052    1.4069   -4.5201 H   0  0  0  0  0  0  0  0  0  0  0  0
   -0.0744    1.1166   -3.5144 H   0  0  0  0  0  0  0  0  0  0  0  0
    0.9474    2.5129   -1.7183 H   0  0  0  0  0  0  0  0  0  0  0  0
    1.6407    3.5623   -2.9266 H   0  0  0  0  0  0  0  0  0  0  0  0
   -1.3098    3.1272   -2.4464 H   0  0  0  0  0  0  0  0  0  0  0  0
   -0.4090    4.5679   -2.0489 H   0  0  0  0  0  0  0  0  0  0  0  0
   -1.6284    4.8147   -4.1906 H   0  0  0  0  0  0  0  0  0  0  0  0
    0.1005    4.9310   -4.4141 H   0  0  0  0  0  0  0  0  0  0  0  0
   -1.5247    2.5274   -4.7266 H   0  0  0  0  0  0  0  0  0  0  0  0
   -1.9114    4.2790   -6.6519 H   0  0  0  0  0  0  0  0  0  0  0  0
   -0.1661    4.3372   -6.7111 H   0  0  0  0  0  0  0  0  0  0  0  0
    3.1050    1.2734   -7.0317 H   0  0  0  0  0  0  0  0  0  0  0  0
    2.1542    1.0071   -4.1917 H   0  0  0  0  0  0  0  0  0  0  0  0
    3.1991   -1.2096   -4.1955 H   0  0  0  0  0  0  0  0  0  0  0  0
    1.9714   -1.0975   -5.4338 H   0  0  0  0  0  0  0  0  0  0  0  0
    5.5991   -1.0555   -4.8097 H   0  0  0  0  0  0  0  0  0  0  0  0
    6.0609   -0.8350   -6.4804 H   0  0  0  0  0  0  0  0  0  0  0  0
    5.2975    0.4706   -5.6053 H   0  0  0  0  0  0  0  0  0  0  0  0
    3.0559   -2.9522   -6.6768 H   0  0  0  0  0  0  0  0  0  0  0  0
    4.7454   -2.8437   -7.1092 H   0  0  0  0  0  0  0  0  0  0  0  0
    4.2836   -3.0642   -5.4385 H   0  0  0  0  0  0  0  0  0  0  0  0
    2.6275   -0.7842   -7.8071 H   0  0  0  0  0  0  0  0  0  0  0  0
    3.5535    0.6298   -7.3644 H   0  0  0  0  0  0  0  0  0  0  0  0
    4.3170   -0.6758   -8.2394 H   0  0  0  0  0  0  0  0  0  0  0  0
    6.3390    1.3858   -5.0517 H   0  0  0  0  0  0  0  0  0  0  0  0
    4.2191    0.2795   -6.8696 H   0  0  0  0  0  0  0  0  0  0  0  0
    5.5873   -1.5660   -6.2142 H   0  0  0  0  0  0  0  0  0  0  0  0
    6.0854   -1.1206   -7.8287 H   0  0  0  0  0  0  0  0  0  0  0  0
    8.5965   -1.7353   -7.6700 H   0  0  0  0  0  0  0  0  0  0  0  0
   13.5361   -1.9303   -5.8566 H   0  0  0  0  0  0  0  0  0  0  0  0
   13.6728   -0.5514   -6.9209 H   0  0  0  0  0  0  0  0  0  0  0  0
   14.0701   -0.3903   -5.2271 H   0  0  0  0  0  0  0  0  0  0  0  0
    6.0236    1.0579   -4.3919 H   0  0  0  0  0  0  0  0  0  0  0  0
    7.2261    2.2532   -2.6749 H   0  0  0  0  0  0  0  0  0  0  0  0
    9.6221    2.1526   -2.5267 H   0  0  0  0  0  0  0  0  0  0  0  0
   10.9217    0.8182   -4.0562 H   0  0  0  0  0  0  0  0  0  0  0  0
    7.4920    2.5922   -8.3976 H   0  0  0  0  0  0  0  0  0  0  0  0
    7.6531    0.5232   -6.2393 H   0  0  0  0  0  0  0  0  0  0  0  0
    9.2459    2.3491   -5.1686 H   0  0  0  0  0  0  0  0  0  0  0  0
    8.1816    3.4331   -6.0317 H   0  0  0  0  0  0  0  0  0  0  0  0
    7.3577    3.0248   -3.7602 H   0  0  0  0  0  0  0  0  0  0  0  0
    6.2445    2.3929   -4.9496 H   0  0  0  0  0  0  0  0  0  0  0  0
    6.6046    0.7756   -3.1440 H   0  0  0  0  0  0  0  0  0  0  0  0
    7.2073    0.1576   -4.6632 H   0  0  0  0  0  0  0  0  0  0  0  0
    8.8697    1.4848   -2.5340 H   0  0  0  0  0  0  0  0  0  0  0  0
    8.8208   -0.2311   -2.8602 H   0  0  0  0  0  0  0  0  0  0  0  0
    9.4723    0.8668   -4.0532 H   0  0  0  0  0  0  0  0  0  0  0  0
    9.3788   -0.9733   -6.8034 H   0  0  0  0  0  0  0  0  0  0  0  0
  1  2  1  0  0  0  0
  2 49  1  0  0  0  0
  2 50  1  0  0  0  0
  3  4  1  0  0  0  0
  3 10  1  0  0  0  0
  3 51  1  1  0  0  0
  3  2  1  0  0  0  0
  4  5  1  0  0  0  0
  4 52  1  0  0  0  0
  4 53  1  0  0  0  0
  5  6  1  0  0  0  0
  5 54  1  0  0  0  0
  5 55  1  0  0  0  0
  6 56  1  0  0  0  0
  6 57  1  0  0  0  0
  7  6  1  0  0  0  0
  7 10  1  0  0  0  0
  7 58  1  1  0  0  0
  7  8  1  0  0  0  0
  8  9  1  0  0  0  0
  8 59  1  0  0  0  0
  8 60  1  0  0  0  0
 10 11  1  0  0  0  0
 11 12  2  0  0  0  0
 11 13  1  0  0  0  0
 13 61  1  0  0  0  0
 14 13  1  0  0  0  0
 14 15  1  0  0  0  0
 14 20  1  0  0  0  0
 14 62  1  1  0  0  0
 15 16  1  0  0  0  0
 15 63  1  0  0  0  0
 15 64  1  0  0  0  0
 16 17  1  0  0  0  0
 16 18  1  0  0  0  0
 16 19  1  0  0  0  0
 17 65  1  0  0  0  0
 17 66  1  0  0  0  0
 17 67  1  0  0  0  0
 18 68  1  0  0  0  0
 18 69  1  0  0  0  0
 18 70  1  0  0  0  0
 19 71  1  0  0  0  0
 19 72  1  0  0  0  0
 19 73  1  0  0  0  0
 20 21  2  0  0  0  0
 20 22  1  0  0  0  0
 22 74  1  0  0  0  0
 23 38  1  0  0  0  0
 23 75  1  6  0  0  0
 23 24  1  0  0  0  0
 23 22  1  0  0  0  0
 24 25  1  0  0  0  0
 24 76  1  0  0  0  0
 24 77  1  0  0  0  0
 25 26  2  0  0  0  0
 25 33  1  0  0  0  0
 26 27  1  0  0  0  0
 26 78  1  0  0  0  0
 27 28  1  0  0  0  0
 27 32  1  0  0  0  0
 28 29  2  0  0  0  0
 28 30  1  0  0  0  0
 30 31  1  0  0  0  0
 31 79  1  0  0  0  0
 31 80  1  0  0  0  0
 31 81  1  0  0  0  0
 32 33  2  0  0  0  0
 32 37  1  0  0  0  0
 33 34  1  0  0  0  0
 34 35  2  0  0  0  0
 34 82  1  0  0  0  0
 35 36  1  0  0  0  0
 35 83  1  0  0  0  0
 36 37  2  0  0  0  0
 36 84  1  0  0  0  0
 37 85  1  0  0  0  0
 38 39  2  0  0  0  0
 38 40  1  0  0  0  0
 40 86  1  0  0  0  0
 41 46  1  0  0  0  0
 41 87  1  1  0  0  0
 41 42  1  0  0  0  0
 41 40  1  0  0  0  0
 42 43  1  0  0  0  0
 42 88  1  0  0  0  0
 42 89  1  0  0  0  0
 43 44  1  0  0  0  0
 43 90  1  0  0  0  0
 43 91  1  0  0  0  0
 44 45  1  0  0  0  0
 44 92  1  0  0  0  0
 44 93  1  0  0  0  0
 45 94  1  0  0  0  0
 45 95  1  0  0  0  0
 45 96  1  0  0  0  0
 46 47  1  0  0  0  0
 46 48  2  0  0  0  0
 47 97  1  0  0  0  0
M  ISO  2   1   2   9   2
M  END
>  <DRUGBANK_ID>
DB17410

>  <COMMON_NAME>
Vodudeutentan

>  <CAS_NUMBER>
2364365-83-1

>  <UNII>
2YCH69X4OX

>  <SYNONYMS>
BQ-788 free acid, di(methyl-d)-; D-norleucine, n-((cis-2,6-di(methyl-d)-1-piperidinyl)carbonyl)-4-methyl-l-leucyl-1-(methoxycarbonyl)-d-tryptophyl-; Vodudeutentan

$$$$
