
 OpenBabel10282417233D

153157  0  0  1  0  0  0  0  0999 V2000
    0.3907    4.5862   -0.4638 C   0  0  0  0  0  0  0  0  0  0  0  0
    2.6670    4.2351    0.3018 S   0  0  0  0  0  0  0  0  0  0  0  0
    3.3398    3.2930   -0.8979 C   0  0  0  0  0  0  0  0  0  0  0  0
    2.6600    2.2183   -0.0571 C   0  0  0  0  0  0  0  0  0  0  0  0
    1.0933    2.4628    0.1949 C   0  0  2  0  0  0  0  0  0  0  0  0
    0.5682    2.5008   -1.3018 N   0  0  0  0  0  0  0  0  0  0  0  0
   -0.5244    1.9260   -1.8627 C   0  0  0  0  0  0  0  0  0  0  0  0
   -0.8587    2.2182   -3.0094 O   0  0  0  0  0  0  0  0  0  0  0  0
   -1.2173    0.8906   -1.0068 C   0  0  1  0  0  0  0  0  0  0  0  0
   -0.1896   -0.0902   -0.5924 N   0  0  0  0  0  0  0  0  0  0  0  0
   -1.9045    1.5571    0.1987 C   0  0  0  0  0  0  0  0  0  0  0  0
   -2.9528    2.5724   -0.1759 C   0  0  0  0  0  0  0  0  0  0  0  0
   -2.8386    3.9180    0.2040 C   0  0  0  0  0  0  0  0  0  0  0  0
   -3.7479    4.8923   -0.1858 C   0  0  0  0  0  0  0  0  0  0  0  0
   -4.8747    4.4812   -0.8666 C   0  0  0  0  0  0  0  0  0  0  0  0
   -5.8632    5.3549   -1.2024 O   0  0  0  0  0  0  0  0  0  0  0  0
   -5.0544    3.1386   -1.1920 C   0  0  0  0  0  0  0  0  0  0  0  0
   -4.0853    2.1879   -0.8754 C   0  0  0  0  0  0  0  0  0  0  0  0
    0.6845    3.7608    1.5877 C   0  0  0  0  0  0  0  0  0  0  0  0
   -0.1528    3.4982    2.4648 O   0  0  0  0  0  0  0  0  0  0  0  0
    1.0275    5.4377    1.3184 N   0  0  0  0  0  0  0  0  0  0  0  0
    1.7361    6.2982   -0.2607 C   0  0  1  0  0  0  0  0  0  0  0  0
    0.9076    6.8649   -1.5167 C   0  0  0  0  0  0  0  0  0  0  0  0
    0.2025    8.0374   -1.0152 C   0  0  0  0  0  0  0  0  0  0  0  0
   -0.3567    8.0454    0.2766 C   0  0  0  0  0  0  0  0  0  0  0  0
   -0.5636    9.2267    0.9467 C   0  0  0  0  0  0  0  0  0  0  0  0
   -0.2059   10.4012    0.2814 C   0  0  0  0  0  0  0  0  0  0  0  0
    0.2776   10.3603   -1.0490 C   0  0  0  0  0  0  0  0  0  0  0  0
    0.3688    9.1782   -1.7513 C   0  0  0  0  0  0  0  0  0  0  0  0
    3.1767    6.7656   -0.1994 C   0  0  0  0  0  0  0  0  0  0  0  0
    4.0726    6.4531   -0.9869 O   0  0  0  0  0  0  0  0  0  0  0  0
    3.2852    7.7048    0.7408 N   0  0  0  0  0  0  0  0  0  0  0  0
    2.4381    7.9531    1.8701 C   0  0  0  0  0  0  0  0  0  0  0  0
    2.1037    9.3544    1.5981 C   0  0  0  0  0  0  0  0  0  0  0  0
    3.2919    9.9916    1.0542 C   0  0  0  0  0  0  0  0  0  0  0  0
    3.9755    8.8609    0.3056 C   0  0  1  0  0  0  0  0  0  0  0  0
    5.3495    8.6254    0.8364 C   0  0  0  0  0  0  0  0  0  0  0  0
    5.7814    7.5573    1.2631 O   0  0  0  0  0  0  0  0  0  0  0  0
    6.1209    9.7310    0.8936 N   0  0  0  0  0  0  0  0  0  0  0  0
    5.7809   11.1095    0.5041 C   0  0  1  0  0  0  0  0  0  0  0  0
    5.5852   12.1043    1.6611 C   0  0  0  0  0  0  0  0  0  0  0  0
    6.7806   12.3999    2.4897 C   0  0  0  0  0  0  0  0  0  0  0  0
    7.3199   13.6412    2.2681 N   0  0  0  0  0  0  0  0  0  0  0  0
    7.2574   11.5387    3.2215 O   0  0  0  0  0  0  0  0  0  0  0  0
    6.6282   11.5683   -0.6633 C   0  0  0  0  0  0  0  0  0  0  0  0
    6.1152   11.8422   -1.7514 O   0  0  0  0  0  0  0  0  0  0  0  0
    7.9702   11.6888   -0.5106 N   0  0  0  0  0  0  0  0  0  0  0  0
    8.7507   11.3747    0.6792 C   0  0  1  0  0  0  0  0  0  0  0  0
    9.6829   10.2040    0.5952 C   0  0  0  0  0  0  0  0  0  0  0  0
    9.5638   12.4492    1.4221 C   0  0  0  0  0  0  0  0  0  0  0  0
    9.6879   12.4123    2.6507 O   0  0  0  0  0  0  0  0  0  0  0  0
   10.3256   13.3406    0.7308 N   0  0  0  0  0  0  0  0  0  0  0  0
   10.4163   13.5307   -0.6822 C   0  0  0  0  0  0  0  0  0  0  0  0
   11.8997   13.4393   -0.9406 C   0  0  0  0  0  0  0  0  0  0  0  0
   12.5837   13.9453    0.3338 C   0  0  0  0  0  0  0  0  0  0  0  0
   11.5094   13.8648    1.4077 C   0  0  1  0  0  0  0  0  0  0  0  0
   11.1787   15.1828    2.1153 C   0  0  0  0  0  0  0  0  0  0  0  0
   10.7742   15.2167    3.2819 O   0  0  0  0  0  0  0  0  0  0  0  0
   11.1966   16.3763    1.4563 N   0  0  0  0  0  0  0  0  0  0  0  0
   11.5047   16.7676    0.0583 C   0  0  1  0  0  0  0  0  0  0  0  0
   10.2632   17.1847   -0.8344 C   0  0  0  0  0  0  0  0  0  0  0  0
    9.2543   18.3533   -0.5472 C   0  0  0  0  0  0  0  0  0  0  0  0
    9.1210   19.4796   -1.5573 C   0  0  0  0  0  0  0  0  0  0  0  0
    8.6735   20.8683   -1.0659 C   0  0  0  0  0  0  0  0  0  0  0  0
    8.3329   21.0643    0.4191 C   0  0  0  0  0  0  0  0  0  0  0  0
    8.6618   22.2960    1.0630 O   0  0  0  0  0  0  0  0  0  0  0  0
    8.4167   19.9088    1.3763 C   0  0  0  0  0  0  0  0  0  0  0  0
    8.8343   18.5737    0.8835 C   0  0  0  0  0  0  0  0  0  0  0  0
   12.9368   17.5015   -0.0608 C   0  0  0  0  0  0  0  0  0  0  0  0
   13.9065   16.9639   -0.5908 O   0  0  0  0  0  0  0  0  0  0  0  0
   13.1659   18.7177    0.5136 N   0  0  0  0  0  0  0  0  0  0  0  0
   12.1007   19.4351    0.9952 C   0  0  1  0  0  0  0  0  0  0  0  0
   11.9619   19.9440    2.4259 C   0  0  0  0  0  0  0  0  0  0  0  0
   12.8522   21.1442    2.5391 C   0  0  0  0  0  0  0  0  0  0  0  0
   12.3781   22.3657    1.7503 C   0  0  0  0  0  0  0  0  0  0  0  0
   12.9232   21.5462    3.9737 C   0  0  0  0  0  0  0  0  0  0  0  0
   11.6827   20.4245   -0.0962 C   0  0  0  0  0  0  0  0  0  0  0  0
   10.5285   20.5495    0.5248 O   0  0  0  0  0  0  0  0  0  0  0  0
   11.9880   21.0966   -0.9724 O   0  0  0  0  0  0  0  0  0  0  0  0
   -0.1110    5.5578   -0.1779 H   0  0  0  0  0  0  0  0  0  0  0  0
   -0.4269    4.1470    0.1112 H   0  0  0  0  0  0  0  0  0  0  0  0
    0.1460    4.5853   -1.5079 H   0  0  0  0  0  0  0  0  0  0  0  0
    2.9412    3.6741   -1.8378 H   0  0  0  0  0  0  0  0  0  0  0  0
    4.4036    3.5273   -0.7824 H   0  0  0  0  0  0  0  0  0  0  0  0
    2.8545    1.3137   -0.6106 H   0  0  0  0  0  0  0  0  0  0  0  0
    3.0875    2.0679    0.9599 H   0  0  0  0  0  0  0  0  0  0  0  0
    0.7482    1.5454    0.6238 H   0  0  0  0  0  0  0  0  0  0  0  0
    0.9565    3.1796   -1.9638 H   0  0  0  0  0  0  0  0  0  0  0  0
   -1.9441    0.3793   -1.6362 H   0  0  0  0  0  0  0  0  0  0  0  0
   -0.5935   -0.8079   -0.0073 H   0  0  0  0  0  0  0  0  0  0  0  0
    0.2409   -0.5083   -1.4155 H   0  0  0  0  0  0  0  0  0  0  0  0
   -2.3420    0.7958    0.8489 H   0  0  0  0  0  0  0  0  0  0  0  0
   -1.1839    2.0582    0.8358 H   0  0  0  0  0  0  0  0  0  0  0  0
   -2.0566    4.2326    0.8769 H   0  0  0  0  0  0  0  0  0  0  0  0
   -3.5697    5.9228    0.1059 H   0  0  0  0  0  0  0  0  0  0  0  0
   -5.6033    6.2461   -0.9177 H   0  0  0  0  0  0  0  0  0  0  0  0
   -5.9637    2.8250   -1.6882 H   0  0  0  0  0  0  0  0  0  0  0  0
   -4.2331    1.1464   -1.1434 H   0  0  0  0  0  0  0  0  0  0  0  0
    0.5838    5.9647    2.0593 H   0  0  0  0  0  0  0  0  0  0  0  0
    1.9781    5.5331   -1.0635 H   0  0  0  0  0  0  0  0  0  0  0  0
    1.6221    6.9898   -2.3661 H   0  0  0  0  0  0  0  0  0  0  0  0
    0.1500    6.2636   -2.0473 H   0  0  0  0  0  0  0  0  0  0  0  0
   -0.3373    7.1860    0.9295 H   0  0  0  0  0  0  0  0  0  0  0  0
   -0.5281    9.1478    2.0439 H   0  0  0  0  0  0  0  0  0  0  0  0
    0.0343   11.2682    0.8941 H   0  0  0  0  0  0  0  0  0  0  0  0
    0.8034   11.2105   -1.4656 H   0  0  0  0  0  0  0  0  0  0  0  0
    0.7576    9.1027   -2.7650 H   0  0  0  0  0  0  0  0  0  0  0  0
    2.9608    7.7609    2.7957 H   0  0  0  0  0  0  0  0  0  0  0  0
    1.5256    7.4039    1.9045 H   0  0  0  0  0  0  0  0  0  0  0  0
    1.6095    9.3049    0.6570 H   0  0  0  0  0  0  0  0  0  0  0  0
    1.5626    9.9120    2.3520 H   0  0  0  0  0  0  0  0  0  0  0  0
    2.9742   10.8032    0.3855 H   0  0  0  0  0  0  0  0  0  0  0  0
    3.8102   10.3298    1.9307 H   0  0  0  0  0  0  0  0  0  0  0  0
    3.9551    8.9632   -0.7939 H   0  0  0  0  0  0  0  0  0  0  0  0
    6.9820    9.4838    1.3563 H   0  0  0  0  0  0  0  0  0  0  0  0
    4.8200   11.0976   -0.0069 H   0  0  0  0  0  0  0  0  0  0  0  0
    5.1906   13.0438    1.2729 H   0  0  0  0  0  0  0  0  0  0  0  0
    4.8859   11.7354    2.4128 H   0  0  0  0  0  0  0  0  0  0  0  0
    8.2551   13.8366    2.6365 H   0  0  0  0  0  0  0  0  0  0  0  0
    6.9360   14.3317    1.6414 H   0  0  0  0  0  0  0  0  0  0  0  0
    8.3968   11.9487   -1.3825 H   0  0  0  0  0  0  0  0  0  0  0  0
    8.0331   10.9727    1.3543 H   0  0  0  0  0  0  0  0  0  0  0  0
   10.5319   10.4645   -0.0293 H   0  0  0  0  0  0  0  0  0  0  0  0
   10.0415    9.9974    1.6166 H   0  0  0  0  0  0  0  0  0  0  0  0
    9.1658    9.3136    0.2405 H   0  0  0  0  0  0  0  0  0  0  0  0
    9.9848   14.4996   -0.9014 H   0  0  0  0  0  0  0  0  0  0  0  0
    9.8813   12.8301   -1.2983 H   0  0  0  0  0  0  0  0  0  0  0  0
   12.1492   12.3823   -1.0629 H   0  0  0  0  0  0  0  0  0  0  0  0
   12.1661   13.9770   -1.8524 H   0  0  0  0  0  0  0  0  0  0  0  0
   13.4845   13.3828    0.5720 H   0  0  0  0  0  0  0  0  0  0  0  0
   13.0137   14.9330    0.2548 H   0  0  0  0  0  0  0  0  0  0  0  0
   11.8527   13.1590    2.1760 H   0  0  0  0  0  0  0  0  0  0  0  0
   11.1163   17.1054    2.1536 H   0  0  0  0  0  0  0  0  0  0  0  0
   11.7088   15.8612   -0.4846 H   0  0  0  0  0  0  0  0  0  0  0  0
   10.6705   17.2253   -1.8599 H   0  0  0  0  0  0  0  0  0  0  0  0
    9.5946   16.3209   -0.8230 H   0  0  0  0  0  0  0  0  0  0  0  0
    9.8183   19.4386   -2.4478 H   0  0  0  0  0  0  0  0  0  0  0  0
    9.1630   21.7389   -1.6018 H   0  0  0  0  0  0  0  0  0  0  0  0
    8.8081   23.0369    0.4465 H   0  0  0  0  0  0  0  0  0  0  0  0
    8.7203   20.1337    2.4470 H   0  0  0  0  0  0  0  0  0  0  0  0
    9.2464   17.8986    1.6698 H   0  0  0  0  0  0  0  0  0  0  0  0
   13.9598   19.2669    0.2075 H   0  0  0  0  0  0  0  0  0  0  0  0
   11.3274   18.6931    1.0658 H   0  0  0  0  0  0  0  0  0  0  0  0
   10.9343   20.2550    2.7122 H   0  0  0  0  0  0  0  0  0  0  0  0
   12.1636   19.1096    3.1067 H   0  0  0  0  0  0  0  0  0  0  0  0
   13.8215   20.8193    2.1559 H   0  0  0  0  0  0  0  0  0  0  0  0
   11.3178   22.6028    1.9163 H   0  0  0  0  0  0  0  0  0  0  0  0
   13.0043   23.2372    1.9075 H   0  0  0  0  0  0  0  0  0  0  0  0
   12.5432   22.2183    0.6997 H   0  0  0  0  0  0  0  0  0  0  0  0
   13.2330   20.6980    4.5850 H   0  0  0  0  0  0  0  0  0  0  0  0
   13.6499   22.3534    4.0353 H   0  0  0  0  0  0  0  0  0  0  0  0
   11.9429   21.9012    4.3120 H   0  0  0  0  0  0  0  0  0  0  0  0
    9.9655   20.0260   -0.0188 H   0  0  0  0  0  0  0  0  0  0  0  0
  1  2  1  0  0  0  0
  1 80  1  0  0  0  0
  1 81  1  0  0  0  0
  1 82  1  0  0  0  0
  2  3  1  0  0  0  0
  3  4  1  0  0  0  0
  3 83  1  0  0  0  0
  3 84  1  0  0  0  0
  4 85  1  0  0  0  0
  4 86  1  0  0  0  0
  5 19  1  0  0  0  0
  5 87  1  1  0  0  0
  5  6  1  0  0  0  0
  5  4  1  0  0  0  0
  6  7  1  0  0  0  0
  6 88  1  0  0  0  0
  7  8  2  0  0  0  0
  9  7  1  0  0  0  0
  9 10  1  0  0  0  0
  9 11  1  0  0  0  0
  9 89  1  6  0  0  0
 10 90  1  0  0  0  0
 10 91  1  0  0  0  0
 11 12  1  0  0  0  0
 11 92  1  0  0  0  0
 11 93  1  0  0  0  0
 12 13  2  0  0  0  0
 12 18  1  0  0  0  0
 13 14  1  0  0  0  0
 13 94  1  0  0  0  0
 14 15  2  0  0  0  0
 14 95  1  0  0  0  0
 15 16  1  0  0  0  0
 15 17  1  0  0  0  0
 16 96  1  0  0  0  0
 17 18  2  0  0  0  0
 17 97  1  0  0  0  0
 18 98  1  0  0  0  0
 19 20  2  0  0  0  0
 19 21  1  0  0  0  0
 21 99  1  0  0  0  0
 22 21  1  0  0  0  0
 22 23  1  0  0  0  0
 22 30  1  0  0  0  0
 22100  1  6  0  0  0
 23 24  1  0  0  0  0
 23101  1  0  0  0  0
 23102  1  0  0  0  0
 24 25  2  0  0  0  0
 24 29  1  0  0  0  0
 25 26  1  0  0  0  0
 25103  1  0  0  0  0
 26 27  2  0  0  0  0
 26104  1  0  0  0  0
 27 28  1  0  0  0  0
 27105  1  0  0  0  0
 28 29  2  0  0  0  0
 28106  1  0  0  0  0
 29107  1  0  0  0  0
 30 31  2  0  0  0  0
 30 32  1  0  0  0  0
 32 33  1  0  0  0  0
 33 34  1  0  0  0  0
 33108  1  0  0  0  0
 33109  1  0  0  0  0
 34 35  1  0  0  0  0
 34110  1  0  0  0  0
 34111  1  0  0  0  0
 35112  1  0  0  0  0
 35113  1  0  0  0  0
 36 35  1  0  0  0  0
 36 32  1  0  0  0  0
 36114  1  6  0  0  0
 36 37  1  0  0  0  0
 37 38  2  0  0  0  0
 37 39  1  0  0  0  0
 39115  1  0  0  0  0
 40 39  1  0  0  0  0
 40 41  1  0  0  0  0
 40 45  1  0  0  0  0
 40116  1  6  0  0  0
 41 42  1  0  0  0  0
 41117  1  0  0  0  0
 41118  1  0  0  0  0
 42 43  1  0  0  0  0
 42 44  2  0  0  0  0
 43119  1  0  0  0  0
 43120  1  0  0  0  0
 45 46  2  0  0  0  0
 45 47  1  0  0  0  0
 47121  1  0  0  0  0
 48 47  1  0  0  0  0
 48 49  1  0  0  0  0
 48 50  1  0  0  0  0
 48122  1  1  0  0  0
 49123  1  0  0  0  0
 49124  1  0  0  0  0
 49125  1  0  0  0  0
 50 51  2  0  0  0  0
 50 52  1  0  0  0  0
 52 53  1  0  0  0  0
 53 54  1  0  0  0  0
 53126  1  0  0  0  0
 53127  1  0  0  0  0
 54 55  1  0  0  0  0
 54128  1  0  0  0  0
 54129  1  0  0  0  0
 55130  1  0  0  0  0
 55131  1  0  0  0  0
 56 55  1  0  0  0  0
 56 52  1  0  0  0  0
 56132  1  1  0  0  0
 56 57  1  0  0  0  0
 57 58  2  0  0  0  0
 57 59  1  0  0  0  0
 59133  1  0  0  0  0
 60 59  1  0  0  0  0
 60 61  1  0  0  0  0
 60 69  1  0  0  0  0
 60134  1  6  0  0  0
 61 62  1  0  0  0  0
 61135  1  0  0  0  0
 61136  1  0  0  0  0
 62 63  2  0  0  0  0
 62 68  1  0  0  0  0
 63 64  1  0  0  0  0
 63137  1  0  0  0  0
 64 65  2  0  0  0  0
 64138  1  0  0  0  0
 65 66  1  0  0  0  0
 65 67  1  0  0  0  0
 66139  1  0  0  0  0
 67 68  2  0  0  0  0
 67140  1  0  0  0  0
 68141  1  0  0  0  0
 69 70  2  0  0  0  0
 69 71  1  0  0  0  0
 71142  1  0  0  0  0
 72 71  1  0  0  0  0
 72 73  1  0  0  0  0
 72 77  1  0  0  0  0
 72143  1  6  0  0  0
 73 74  1  0  0  0  0
 73144  1  0  0  0  0
 73145  1  0  0  0  0
 74 75  1  0  0  0  0
 74 76  1  0  0  0  0
 74146  1  0  0  0  0
 75147  1  0  0  0  0
 75148  1  0  0  0  0
 75149  1  0  0  0  0
 76150  1  0  0  0  0
 76151  1  0  0  0  0
 76152  1  0  0  0  0
 77 78  1  0  0  0  0
 77 79  2  0  0  0  0
 78153  1  0  0  0  0
M  END
>  <DRUGBANK_ID>
DB17352

>  <COMMON_NAME>
WT-1 A1

>  <CAS_NUMBER>
852243-39-1

>  <UNII>
V4JB309K8X

>  <SYNONYMS>
L-leucine, l-tyrosyl-l-methionyl-l-phenylalanyl-l-prolyl-l-asparaginyl-l-alanyl-l-prolyl-l-tyrosyl-; Tyr-met-phe-pro-asn-ala-pro-tyr-leu

$$$$
