
 OpenBabel10282417183D

 73 76  0  0  0  0  0  0  0  0999 V2000
    5.6115    4.3209    2.4852 C   0  0  1  0  0  0  0  0  0  0  0  0
    5.8361    4.8904    3.8611 C   0  0  0  0  0  0  0  0  0  0  0  0
    4.8110    5.8888    3.9592 O   0  0  0  0  0  0  0  0  0  0  0  0
    4.3982    3.4794    2.7537 C   0  0  2  0  0  0  0  0  0  0  0  0
    4.7791    2.0818    3.2905 C   0  0  2  0  0  0  0  0  0  0  0  0
    5.3335    1.5829    2.0381 O   0  0  0  0  0  0  0  0  0  0  0  0
    3.6025    1.2451    3.7790 C   0  0  2  0  0  0  0  0  0  0  0  0
    3.5041   -0.0675    3.2309 O   0  0  0  0  0  0  0  0  0  0  0  0
    2.4761    2.1149    3.4441 C   0  0  1  0  0  0  0  0  0  0  0  0
    2.3844    3.1289    4.4980 O   0  0  0  0  0  0  0  0  0  0  0  0
    2.6227    2.5901    1.7511 C   0  0  3  0  0  0  0  0  0  0  0  0
    1.2157    3.7738    1.1303 O   0  0  0  0  0  0  0  0  0  0  0  0
    0.0211    2.7748   -0.0377 C   0  0  1  0  0  0  0  0  0  0  0  0
   -1.1558    3.0301   -0.8622 C   0  0  2  0  0  0  0  0  0  0  0  0
   -0.3578    3.5599   -1.9696 C   0  0  2  0  0  0  0  0  0  0  0  0
    0.7050    2.5395   -2.4985 O   0  0  0  0  0  0  0  0  0  0  0  0
    1.7420    1.7467   -1.7185 C   0  0  2  0  0  0  0  0  0  0  0  0
    1.1368    1.2664   -0.4459 C   0  0  1  0  0  0  0  0  0  0  0  0
    0.7318    0.2556   -0.5497 H   0  0  0  0  0  0  0  0  0  0  0  0
    2.4324    1.1385    0.7739 O   0  0  0  0  0  0  0  0  0  0  0  0
    2.8250    2.4935   -1.1668 O   0  0  0  0  0  0  0  0  0  0  0  0
    2.0863    3.0842   -0.0867 C   0  0  1  0  0  0  0  0  0  0  0  0
    0.7777    2.2012    1.4384 C   0  0  2  0  0  0  0  0  0  0  0  0
   -0.1500    0.9161    1.3046 O   0  0  0  0  0  0  0  0  0  0  0  0
   -0.1779    3.7734    2.3133 C   0  0  2  0  0  0  0  0  0  0  0  0
    0.8454    5.2363    2.5403 C   0  0  0  0  0  0  0  0  0  0  0  0
    1.6018    5.9168    1.2357 C   0  0  1  0  0  0  0  0  0  0  0  0
    2.4768    6.9919    1.7565 N   0  0  0  0  0  0  0  0  0  0  0  0
    2.5810    4.9167    0.2725 C   0  0  2  0  0  0  0  0  0  0  0  0
    3.2699    5.6098   -0.7443 O   0  0  0  0  0  0  0  0  0  0  0  0
   -1.0820    3.3132    3.3425 N   0  0  0  0  0  0  0  0  0  0  0  0
   -0.3635    2.2485    3.9707 C   0  0  0  0  0  0  0  0  0  0  0  0
    1.5412    3.5589   -0.8650 H   0  0  0  0  0  0  0  0  0  0  0  0
    0.1183    4.9593   -1.4703 C   0  0  0  0  0  0  0  0  0  0  0  0
    1.0412    5.4979   -2.3592 O   0  0  0  0  0  0  0  0  0  0  0  0
   -2.1155    3.8231   -0.1604 O   0  0  0  0  0  0  0  0  0  0  0  0
   -0.7759    2.6193    0.7473 H   0  0  0  0  0  0  0  0  0  0  0  0
    3.8701    3.1433    1.4796 O   0  0  0  0  0  0  0  0  0  0  0  0
    3.6310    4.1157    3.1757 H   0  0  0  0  0  0  0  0  0  0  0  0
    5.3076    5.3878    1.4983 N   0  0  0  0  0  0  0  0  0  0  0  0
    6.4153    3.7199    2.0721 H   0  0  0  0  0  0  0  0  0  0  0  0
    5.6915    4.1400    4.6509 H   0  0  0  0  0  0  0  0  0  0  0  0
    6.8026    5.3646    3.9547 H   0  0  0  0  0  0  0  0  0  0  0  0
    5.0182    6.4062    3.1495 H   0  0  0  0  0  0  0  0  0  0  0  0
    5.5316    1.9895    4.0617 H   0  0  0  0  0  0  0  0  0  0  0  0
    5.1082    2.2807    1.3498 H   0  0  0  0  0  0  0  0  0  0  0  0
    3.4128    1.1527    4.8668 H   0  0  0  0  0  0  0  0  0  0  0  0
    3.0371   -0.0728    2.3694 H   0  0  0  0  0  0  0  0  0  0  0  0
    1.7111    1.3360    3.6201 H   0  0  0  0  0  0  0  0  0  0  0  0
    2.4440    4.0835    4.3072 H   0  0  0  0  0  0  0  0  0  0  0  0
   -1.6528    2.0668   -1.0468 H   0  0  0  0  0  0  0  0  0  0  0  0
   -1.0848    3.7009   -2.7510 H   0  0  0  0  0  0  0  0  0  0  0  0
    2.2041    0.9161   -2.2613 H   0  0  0  0  0  0  0  0  0  0  0  0
    1.0359    2.0763    2.4119 H   0  0  0  0  0  0  0  0  0  0  0  0
   -0.8011    0.9237    0.5597 H   0  0  0  0  0  0  0  0  0  0  0  0
   -0.7662    4.3268    1.5857 H   0  0  0  0  0  0  0  0  0  0  0  0
    0.2672    6.0074    3.0399 H   0  0  0  0  0  0  0  0  0  0  0  0
    1.6805    4.9527    3.1418 H   0  0  0  0  0  0  0  0  0  0  0  0
    0.8633    6.4109    0.6089 H   0  0  0  0  0  0  0  0  0  0  0  0
    3.1472    7.2193    1.0124 H   0  0  0  0  0  0  0  0  0  0  0  0
    2.9924    6.6596    2.5695 H   0  0  0  0  0  0  0  0  0  0  0  0
    3.2725    4.8161    1.0331 H   0  0  0  0  0  0  0  0  0  0  0  0
    3.4331    4.9640   -1.4472 H   0  0  0  0  0  0  0  0  0  0  0  0
   -1.8249    2.8676    2.8136 H   0  0  0  0  0  0  0  0  0  0  0  0
   -0.4531    1.7628    4.9223 H   0  0  0  0  0  0  0  0  0  0  0  0
   -0.2626    1.3974    3.2969 H   0  0  0  0  0  0  0  0  0  0  0  0
    0.5235    2.8006    4.1608 H   0  0  0  0  0  0  0  0  0  0  0  0
   -0.5813    5.6254   -0.9422 H   0  0  0  0  0  0  0  0  0  0  0  0
    0.6555    4.8819   -0.5623 H   0  0  0  0  0  0  0  0  0  0  0  0
    1.6435    4.7601   -2.5839 H   0  0  0  0  0  0  0  0  0  0  0  0
   -1.6999    4.6023    0.2489 H   0  0  0  0  0  0  0  0  0  0  0  0
    5.0332    4.9243    0.6133 H   0  0  0  0  0  0  0  0  0  0  0  0
    4.4023    5.8009    1.7370 H   0  0  0  0  0  0  0  0  0  0  0  0
  1 40  1  0  0  0  0
  1 41  1  6  0  0  0
  1  2  1  0  0  0  0
  2  3  1  0  0  0  0
  2 42  1  0  0  0  0
  2 43  1  0  0  0  0
  3 44  1  0  0  0  0
  4  5  1  0  0  0  0
  4  1  1  0  0  0  0
  4 39  1  1  0  0  0
  5  7  1  0  0  0  0
  5 45  1  1  0  0  0
  5  6  1  0  0  0  0
  6 46  1  0  0  0  0
  7 47  1  1  0  0  0
  7  8  1  0  0  0  0
  8 48  1  0  0  0  0
  9  7  1  0  0  0  0
  9 10  1  0  0  0  0
  9 11  1  0  0  0  0
  9 49  1  1  0  0  0
 10 50  1  0  0  0  0
 11 20  1  0  0  0  0
 11 38  1  0  0  0  0
 12 11  1  0  0  0  0
 13 12  1  0  0  0  0
 13 37  1  1  0  0  0
 14 13  1  0  0  0  0
 14 36  1  0  0  0  0
 14 51  1  6  0  0  0
 15 14  1  0  0  0  0
 15 34  1  0  0  0  0
 15 52  1  6  0  0  0
 16 15  1  0  0  0  0
 17 16  1  0  0  0  0
 17 18  1  0  0  0  0
 17 21  1  0  0  0  0
 17 53  1  6  0  0  0
 18 19  1  6  0  0  0
 18 13  1  0  0  0  0
 18 20  1  0  0  0  0
 22 23  1  0  0  0  0
 22 33  1  6  0  0  0
 22 21  1  0  0  0  0
 23 24  1  0  0  0  0
 23 25  1  0  0  0  0
 23 54  1  1  0  0  0
 24 55  1  0  0  0  0
 25 56  1  6  0  0  0
 25 31  1  0  0  0  0
 26 25  1  0  0  0  0
 26 27  1  0  0  0  0
 26 57  1  0  0  0  0
 26 58  1  0  0  0  0
 27 29  1  0  0  0  0
 27 59  1  6  0  0  0
 27 28  1  0  0  0  0
 28 60  1  0  0  0  0
 28 61  1  0  0  0  0
 29 22  1  0  0  0  0
 29 62  1  1  0  0  0
 29 30  1  0  0  0  0
 30 63  1  0  0  0  0
 31 32  1  0  0  0  0
 31 64  1  0  0  0  0
 32 65  1  0  0  0  0
 32 66  1  0  0  0  0
 32 67  1  0  0  0  0
 34 35  1  0  0  0  0
 34 68  1  0  0  0  0
 34 69  1  0  0  0  0
 35 70  1  0  0  0  0
 36 71  1  0  0  0  0
 38  4  1  0  0  0  0
 40 72  1  0  0  0  0
 40 73  1  0  0  0  0
M  END
>  <DRUGBANK_ID>
DB11520

>  <COMMON_NAME>
Hygromycin B

>  <CAS_NUMBER>
31282-04-9

>  <UNII>
3XQ2233B0B

$$$$
