
 OpenBabel10282417203D

 21 21  0  0  0  0  0  0  0  0999 V2000
    0.9787   -0.0242    0.0410 C   0  0  0  0  0  0  0  0  0  0  0  0
   -0.3689    0.6856   -1.9563 C   0  0  0  0  0  0  0  0  0  0  0  0
    2.0768    2.7753   -0.2001 C   0  0  0  0  0  0  0  0  0  0  0  0
   -0.2092    3.3406   -0.6253 C   0  0  0  0  0  0  0  0  0  0  0  0
    2.3698    4.1237    0.0570 C   0  0  0  0  0  0  0  0  0  0  0  0
    0.0665    4.6836   -0.3485 C   0  0  0  0  0  0  0  0  0  0  0  0
    0.7867    2.3537   -0.5603 C   0  0  0  0  0  0  0  0  0  0  0  0
    1.3548    5.0685   -0.0203 C   0  0  0  0  0  0  0  0  0  0  0  0
    0.5122    1.0256   -0.8503 N   0  0  0  0  0  0  0  0  0  0  0  0
    1.5781    6.3919    0.2173 O   0  0  0  0  0  0  0  0  0  0  0  0
    0.6165   -1.0093   -0.2747 H   0  0  0  0  0  0  0  0  0  0  0  0
    0.6104    0.1408    1.0599 H   0  0  0  0  0  0  0  0  0  0  0  0
    2.0711   -0.0799    0.0611 H   0  0  0  0  0  0  0  0  0  0  0  0
   -1.3607    1.1365   -1.8573 H   0  0  0  0  0  0  0  0  0  0  0  0
    0.0773    1.0161   -2.9011 H   0  0  0  0  0  0  0  0  0  0  0  0
   -0.5208   -0.3963   -2.0348 H   0  0  0  0  0  0  0  0  0  0  0  0
    2.8910    2.0560   -0.1617 H   0  0  0  0  0  0  0  0  0  0  0  0
   -1.2346    3.0725   -0.8574 H   0  0  0  0  0  0  0  0  0  0  0  0
    3.3869    4.4072    0.3046 H   0  0  0  0  0  0  0  0  0  0  0  0
   -0.7292    5.4216   -0.3894 H   0  0  0  0  0  0  0  0  0  0  0  0
    2.5218    6.5235    0.3998 H   0  0  0  0  0  0  0  0  0  0  0  0
  1 11  1  0  0  0  0
  1 12  1  0  0  0  0
  1 13  1  0  0  0  0
  2 14  1  0  0  0  0
  2 15  1  0  0  0  0
  2 16  1  0  0  0  0
  3 17  1  0  0  0  0
  4 18  1  0  0  0  0
  5  3  1  0  0  0  0
  5 19  1  0  0  0  0
  6  4  2  0  0  0  0
  6 20  1  0  0  0  0
  7  3  2  0  0  0  0
  7  4  1  0  0  0  0
  8  5  2  0  0  0  0
  8  6  1  0  0  0  0
  9  1  1  0  0  0  0
  9  2  1  0  0  0  0
  9  7  1  0  0  0  0
 10  8  1  0  0  0  0
 10 21  1  0  0  0  0
M  END
>  <DRUGBANK_ID>
DB13549

>  <COMMON_NAME>
4-dimethylaminophenol

>  <CAS_NUMBER>
619-60-3

>  <UNII>
X387L5559O

$$$$
