
 OpenBabel10282417133D

 53 59  0  0  0  0  0  0  0  0999 V2000
    1.7718    3.5365   -2.6841 Ru  0  2  0  0  0  0  0  0  0  0  0  0
    1.1831    2.7186   -1.5236 N   0  0  0  0  0  0  0  0  0  0  0  0
   -0.1237   -2.2809    0.0367 C   0  0  0  0  0  0  0  0  0  0  0  0
    1.1564   -1.4624   -0.0035 C   0  0  0  0  0  0  0  0  0  0  0  0
    1.1332   -0.1861   -0.4739 C   0  0  0  0  0  0  0  0  0  0  0  0
    2.4134    0.6325   -0.5140 C   0  0  0  0  0  0  0  0  0  0  0  0
    2.3902    1.9088   -0.9844 C   0  0  0  0  0  0  0  0  0  0  0  0
    3.5639    2.9126   -1.1136 C   0  0  0  0  0  0  0  0  0  0  0  0
    4.6070    3.0933   -0.2592 C   0  0  0  0  0  0  0  0  0  0  0  0
    5.6673    4.1387   -0.5647 C   0  0  0  0  0  0  0  0  0  0  0  0
    6.7104    4.3194    0.2896 C   0  0  0  0  0  0  0  0  0  0  0  0
    7.7707    5.3648   -0.0159 C   0  0  0  0  0  0  0  0  0  0  0  0
    3.2784    3.6609   -2.4342 N   0  0  0  0  0  0  0  0  0  0  0  0
    1.4973    2.8659   -4.0038 N   0  0  0  0  0  0  0  0  0  0  0  0
    0.9006    2.5829   -2.6905 C   0  0  0  0  0  0  0  0  0  0  0  0
    0.8851    1.3100   -2.2106 C   0  0  0  0  0  0  0  0  0  0  0  0
    0.2681    1.0174   -0.8526 C   0  0  0  0  0  0  0  0  0  0  0  0
    0.2525   -0.2555   -0.3726 C   0  0  0  0  0  0  0  0  0  0  0  0
    0.7807    3.7340   -4.7437 C   0  0  0  0  0  0  0  0  0  0  0  0
    0.5420    4.9685   -3.9999 C   0  0  0  0  0  0  0  0  0  0  0  0
   -0.2392    6.1630   -4.5228 C   0  0  0  0  0  0  0  0  0  0  0  0
   -0.7771    6.1299   -5.7720 C   0  0  0  0  0  0  0  0  0  0  0  0
   -1.5583    7.3243   -6.2949 C   0  0  0  0  0  0  0  0  0  0  0  0
    1.1173    5.9299   -1.7228 C   0  0  0  0  0  0  0  0  0  0  0  0
    1.1236    4.8929   -2.7647 N   0  0  0  0  0  0  0  0  0  0  0  0
    3.3352    1.4944   -4.5002 C   0  0  0  0  0  0  0  0  0  0  0  0
    3.7168    1.3338   -5.7906 C   0  0  0  0  0  0  0  0  0  0  0  0
    2.5435    2.5942   -4.4800 N   0  0  0  0  0  0  0  0  0  0  0  0
    2.4676    3.0420   -5.7035 C   0  0  0  0  0  0  0  0  0  0  0  0
    3.1615    2.2905   -6.4830 N   0  0  0  0  0  0  0  0  0  0  0  0
    0.2206    2.7105   -1.1862 H   0  0  0  0  0  0  0  0  0  0  0  0
   -1.0431   -1.8533   -0.3051 H   0  0  0  0  0  0  0  0  0  0  0  0
    0.2553   -2.0386    0.0248 H   0  0  0  0  0  0  0  0  0  0  0  0
    0.2138    0.2415   -0.8156 H   0  0  0  0  0  0  0  0  0  0  0  0
    3.3328    0.2048   -0.1723 H   0  0  0  0  0  0  0  0  0  0  0  0
    4.6811    2.4995    0.6278 H   0  0  0  0  0  0  0  0  0  0  0  0
    4.9209    3.4028   -0.3497 H   0  0  0  0  0  0  0  0  0  0  0  0
    6.7845    3.7256    1.1767 H   0  0  0  0  0  0  0  0  0  0  0  0
    7.6967    5.9586   -0.9029 H   0  0  0  0  0  0  0  0  0  0  0  0
    3.9580    4.1424   -3.0232 H   0  0  0  0  0  0  0  0  0  0  0  0
    1.7970    1.9321   -4.2843 H   0  0  0  0  0  0  0  0  0  0  0  0
    1.3350    2.7889   -3.6465 H   0  0  0  0  0  0  0  0  0  0  0  0
    1.3072    0.5149   -2.7890 H   0  0  0  0  0  0  0  0  0  0  0  0
    0.7024    1.2234   -1.8085 H   0  0  0  0  0  0  0  0  0  0  0  0
    0.6746   -1.0506   -0.9511 H   0  0  0  0  0  0  0  0  0  0  0  0
    0.3107    5.3221   -4.1547 H   0  0  0  0  0  0  0  0  0  0  0  0
   -0.6502    5.2631   -6.3863 H   0  0  0  0  0  0  0  0  0  0  0  0
   -1.6851    8.1912   -5.6806 H   0  0  0  0  0  0  0  0  0  0  0  0
    1.6105    5.7538   -0.7897 H   0  0  0  0  0  0  0  0  0  0  0  0
    0.5605    5.5403   -3.3163 H   0  0  0  0  0  0  0  0  0  0  0  0
    3.6040    0.8787   -3.6674 H   0  0  0  0  0  0  0  0  0  0  0  0
    4.3556    0.5644   -6.1714 H   0  0  0  0  0  0  0  0  0  0  0  0
    1.9125    3.9034   -6.0113 H   0  0  0  0  0  0  0  0  0  0  0  0
  2  1  1  0  0  0  0
  2 31  1  0  0  0  0
  3  2  2  0  0  0  0
  3  4  1  0  0  0  0
  3 32  1  0  0  0  0
  4  5  2  0  0  0  0
  4 33  1  0  0  0  0
  5  6  1  0  0  0  0
  5 34  1  0  0  0  0
  6  7  2  0  0  0  0
  6 35  1  0  0  0  0
  7  2  1  0  0  0  0
  7  8  1  0  0  0  0
  8 13  1  0  0  0  0
  8  9  2  0  0  0  0
  9 36  1  0  0  0  0
 10 11  2  0  0  0  0
 10  9  1  0  0  0  0
 10 37  1  0  0  0  0
 11 12  1  0  0  0  0
 11 38  1  0  0  0  0
 12 13  2  0  0  0  0
 12 39  1  0  0  0  0
 13  1  1  0  0  0  0
 13 40  1  0  0  0  0
 14  1  1  0  0  0  0
 14 41  1  0  0  0  0
 15 14  1  0  0  0  0
 15 16  2  0  0  0  0
 15 42  1  0  0  0  0
 16 17  1  0  0  0  0
 16 43  1  0  0  0  0
 17 18  2  0  0  0  0
 17 44  1  0  0  0  0
 18 19  1  0  0  0  0
 18 45  1  0  0  0  0
 19 20  1  0  0  0  0
 19 14  2  0  0  0  0
 20 25  2  0  0  0  0
 20 21  1  0  0  0  0
 21 22  2  0  0  0  0
 21 46  1  0  0  0  0
 22 23  1  0  0  0  0
 22 47  1  0  0  0  0
 23 24  2  0  0  0  0
 23 48  1  0  0  0  0
 24 25  1  0  0  0  0
 24 49  1  0  0  0  0
 25  1  1  0  0  0  0
 25 50  1  0  0  0  0
 26 28  1  0  0  0  0
 26 51  1  0  0  0  0
 27 30  1  0  0  0  0
 27 26  2  0  0  0  0
 27 52  1  0  0  0  0
 28  1  1  0  0  0  0
 29 30  2  0  0  0  0
 29 28  1  0  0  0  0
 29 53  1  0  0  0  0
M  CHG  1   1   2
M  END
>  <DRUGBANK_ID>
DB03871

>  <SECONDARY_ACCESSION_NUMBERS>
EXPT01271; EXPT02061; DB02003

>  <COMMON_NAME>
lambda-bis(2,2'-bipyridine)imidazole ruthenium (II)

>  <SYNONYMS>
delta-bis(2,2'-bipyridine)imidazole ruthenium (II)

$$$$
