
 OpenBabel10282417123D

 14 13  0  0  0  0  0  0  0  0999 V2000
    0.8732    0.0613   -0.1274 O   0  0  0  0  0  0  0  0  0  0  0  0
    0.2410   -0.6181   -1.1101 C   0  0  0  0  0  0  0  0  0  0  0  0
    0.8796   -1.0719   -2.0478 O   0  0  0  0  0  0  0  0  0  0  0  0
   -1.2442   -0.8060   -0.8333 C   0  0  0  0  0  0  0  0  0  0  0  0
   -1.5108   -1.2534    0.4889 O   0  0  0  0  0  0  0  0  0  0  0  0
   -1.1301   -2.7754    0.8174 P   0  0  0  0  0  0  0  0  0  0  0  0
   -2.0938   -3.5689   -0.1760 O   0  0  0  0  0  0  0  0  0  0  0  0
    0.3220   -2.9174    0.1828 O   0  0  0  0  0  0  0  0  0  0  0  0
   -1.2222   -3.2166    2.2331 O   0  0  0  0  0  0  0  0  0  0  0  0
    1.8180    0.0700   -0.3931 H   0  0  0  0  0  0  0  0  0  0  0  0
   -1.7520    0.1486   -0.9913 H   0  0  0  0  0  0  0  0  0  0  0  0
   -1.6465   -1.5238   -1.5551 H   0  0  0  0  0  0  0  0  0  0  0  0
   -2.9710   -3.6744    0.2371 H   0  0  0  0  0  0  0  0  0  0  0  0
    0.9265   -2.2895    0.6218 H   0  0  0  0  0  0  0  0  0  0  0  0
  1  2  1  0  0  0  0
  1 10  1  0  0  0  0
  2  3  2  0  0  0  0
  2  4  1  0  0  0  0
  4  5  1  0  0  0  0
  4 11  1  0  0  0  0
  4 12  1  0  0  0  0
  5  6  1  0  0  0  0
  6  7  1  0  0  0  0
  6  8  1  0  0  0  0
  6  9  2  0  0  0  0
  7 13  1  0  0  0  0
  8 14  1  0  0  0  0
M  END
>  <DRUGBANK_ID>
DB02726

>  <SECONDARY_ACCESSION_NUMBERS>
EXPT02567; DB02389

>  <COMMON_NAME>
2-Phosphoglycolic Acid

>  <CAS_NUMBER>
13147-57-4

>  <UNII>
H8593JOP13

$$$$
