
 OpenBabel10282417233D

 44 47  0  0  1  0  0  0  0  0999 V2000
    1.2477   -0.0558    0.0974 N   0  0  3  0  0  0  0  0  0  0  0  0
    0.7228    1.3194   -0.1884 C   0  0  2  0  0  0  0  0  0  0  0  0
    2.8089    2.4605    0.6798 C   0  0  0  0  0  0  0  0  0  0  0  0
    1.2964    2.4031    0.7779 C   0  0  1  0  0  0  0  0  0  0  0  0
   -0.8169    1.3813   -0.2201 C   0  0  0  0  0  0  0  0  0  0  0  0
    0.7885   -0.9971   -0.9485 C   0  0  0  0  0  0  0  0  0  0  0  0
    3.4806    2.8561   -0.5042 C   0  0  0  0  0  0  0  0  0  0  0  0
   -1.3462   -0.0387   -0.0080 C   0  0  1  0  0  0  0  0  0  0  0  0
   -0.7555   -0.9550   -1.1177 C   0  0  1  0  0  0  0  0  0  0  0  0
    0.7164   -0.5222    1.3827 C   0  0  0  0  0  0  0  0  0  0  0  0
    5.6027    2.3960    0.5733 N   0  0  0  0  0  0  0  0  0  0  0  0
    4.8930    2.8122   -0.4915 C   0  0  0  0  0  0  0  0  0  0  0  0
   -1.2207   -0.5300   -2.5008 C   0  0  0  0  0  0  0  0  0  0  0  0
   -0.8169   -0.4959    1.3726 C   0  0  0  0  0  0  0  0  0  0  0  0
   -0.5094    0.2008   -3.3800 C   0  0  0  0  0  0  0  0  0  0  0  0
    0.6865    3.6819    0.5749 O   0  0  0  0  0  0  0  0  0  0  0  0
    4.9337    1.9918    1.6717 C   0  0  0  0  0  0  0  0  0  0  0  0
    3.5581    2.0075    1.7748 C   0  0  0  0  0  0  0  0  0  0  0  0
    2.8282    3.2742   -1.6930 C   0  0  0  0  0  0  0  0  0  0  0  0
    5.5657    3.2191   -1.6364 C   0  0  0  0  0  0  0  0  0  0  0  0
    3.5216    3.6517   -2.8285 C   0  0  0  0  0  0  0  0  0  0  0  0
    4.9022    3.6383   -2.7952 C   0  0  0  0  0  0  0  0  0  0  0  0
    1.0430    1.5481   -1.2053 H   0  0  0  0  0  0  0  0  0  0  0  0
    1.0062    2.1474    1.8020 H   0  0  0  0  0  0  0  0  0  0  0  0
   -1.2200    2.0523    0.5459 H   0  0  0  0  0  0  0  0  0  0  0  0
   -1.1546    1.7941   -1.1796 H   0  0  0  0  0  0  0  0  0  0  0  0
    1.3372   -0.8052   -1.8758 H   0  0  0  0  0  0  0  0  0  0  0  0
    1.0967   -2.0183   -0.6853 H   0  0  0  0  0  0  0  0  0  0  0  0
   -2.4410   -0.0391   -0.0173 H   0  0  0  0  0  0  0  0  0  0  0  0
   -1.1337   -1.9726   -0.9453 H   0  0  0  0  0  0  0  0  0  0  0  0
    1.1100    0.0867    2.2029 H   0  0  0  0  0  0  0  0  0  0  0  0
    1.0908   -1.5307    1.5928 H   0  0  0  0  0  0  0  0  0  0  0  0
   -2.2271   -0.8325   -2.7808 H   0  0  0  0  0  0  0  0  0  0  0  0
   -1.1657    0.1967    2.1492 H   0  0  0  0  0  0  0  0  0  0  0  0
   -1.2000   -1.4905    1.6150 H   0  0  0  0  0  0  0  0  0  0  0  0
   -0.9063    0.4832   -4.3457 H   0  0  0  0  0  0  0  0  0  0  0  0
    0.4828    0.5733   -3.1514 H   0  0  0  0  0  0  0  0  0  0  0  0
    1.1827    4.1722   -0.0956 H   0  0  0  0  0  0  0  0  0  0  0  0
    5.5502    1.6389    2.4937 H   0  0  0  0  0  0  0  0  0  0  0  0
    3.0837    1.6422    2.6807 H   0  0  0  0  0  0  0  0  0  0  0  0
    1.7464    3.3067   -1.7792 H   0  0  0  0  0  0  0  0  0  0  0  0
    6.6536    3.2088   -1.6279 H   0  0  0  0  0  0  0  0  0  0  0  0
    2.9749    3.9530   -3.7169 H   0  0  0  0  0  0  0  0  0  0  0  0
    5.4626    3.9508   -3.6693 H   0  0  0  0  0  0  0  0  0  0  0  0
  1 10  1  0  0  0  0
  2  1  1  0  0  0  0
  2 23  1  6  0  0  0
  2  4  1  0  0  0  0
  3  4  1  0  0  0  0
  4 16  1  0  0  0  0
  4 24  1  1  0  0  0
  5  2  1  0  0  0  0
  5  8  1  0  0  0  0
  5 25  1  0  0  0  0
  5 26  1  0  0  0  0
  6  1  1  0  0  0  0
  6 27  1  0  0  0  0
  6 28  1  0  0  0  0
  7  3  2  0  0  0  0
  8 14  1  0  0  0  0
  8 29  1  6  0  0  0
  9  6  1  0  0  0  0
  9  8  1  0  0  0  0
  9 30  1  1  0  0  0
  9 13  1  0  0  0  0
 10 31  1  0  0  0  0
 10 32  1  0  0  0  0
 11 17  1  0  0  0  0
 12  7  1  0  0  0  0
 12 11  2  0  0  0  0
 13 33  1  0  0  0  0
 14 10  1  0  0  0  0
 14 34  1  0  0  0  0
 14 35  1  0  0  0  0
 15 13  2  0  0  0  0
 15 36  1  0  0  0  0
 15 37  1  0  0  0  0
 16 38  1  0  0  0  0
 17 18  2  0  0  0  0
 17 39  1  0  0  0  0
 18  3  1  0  0  0  0
 18 40  1  0  0  0  0
 19  7  1  0  0  0  0
 19 41  1  0  0  0  0
 20 12  1  0  0  0  0
 20 22  2  0  0  0  0
 20 42  1  0  0  0  0
 21 19  2  0  0  0  0
 21 43  1  0  0  0  0
 22 21  1  0  0  0  0
 22 44  1  0  0  0  0
M  END
>  <DRUGBANK_ID>
DB16831

>  <COMMON_NAME>
Cinchonidine

>  <CAS_NUMBER>
485-71-2

>  <UNII>
1U622LRA8Z

>  <SYNONYMS>
Alpha-quinidine; Cinchovatine; Quinine bisulfate impurity B; Quinine hydrochloride impurity B; Quinine sulfate impurity B

$$$$
