
 OpenBabel10282417223D

146153  0  0  0  0  0  0  0  0999 V2000
   -1.6522    7.8743   -1.5632 C   0  0  0  0  0  0  0  0  0  0  0  0
   -0.0701    8.7692   -1.5461 C   0  0  1  0  0  0  0  0  0  0  0  0
   -1.1880    9.5440   -2.3240 C   0  0  0  0  0  0  0  0  0  0  0  0
    2.1508    9.0426   -3.0071 C   0  0  1  0  0  0  0  0  0  0  0  0
    1.1500    9.5283   -1.8930 C   0  0  2  0  0  0  0  0  0  0  0  0
    2.9197    7.8451   -2.4913 C   0  0  0  0  0  0  0  0  0  0  0  0
    1.8362    6.7329   -2.4060 C   0  0  1  0  0  0  0  0  0  0  0  0
    1.0185    6.9250   -1.2801 C   0  0  1  0  0  0  0  0  0  0  0  0
   -0.1836    5.3454   -1.1008 C   0  0  1  0  0  0  0  0  0  0  0  0
    0.6342    4.1838   -1.9108 C   0  0  0  0  0  0  0  0  0  0  0  0
    1.9984    5.2390   -2.6904 C   0  0  2  0  0  0  0  0  0  0  0  0
    2.0807    3.6289   -3.3674 C   0  0  2  0  0  0  0  0  0  0  0  0
    1.1881    4.4593   -4.9938 C   0  0  0  0  0  0  0  0  0  0  0  0
    0.9711    5.4773   -3.8875 C   0  0  0  0  0  0  0  0  0  0  0  0
    2.0926    4.3480   -6.0541 C   0  0  0  0  0  0  0  0  0  0  0  0
    2.5590    3.1420   -5.4614 C   0  0  1  0  0  0  0  0  0  0  0  0
    4.5256    2.9260   -6.5920 C   0  0  0  0  0  0  0  0  0  0  0  0
    4.7528    3.6457   -7.7771 C   0  0  0  0  0  0  0  0  0  0  0  0
    2.8153    5.3283   -6.9694 C   0  0  1  0  0  0  0  0  0  0  0  0
    4.2852    4.8863   -7.1118 C   0  0  2  0  0  0  0  0  0  0  0  0
    5.3882    5.9229   -7.0292 C   0  0  0  0  0  0  0  0  0  0  0  0
    4.9170    7.3308   -6.5697 C   0  0  0  0  0  0  0  0  0  0  0  0
    3.4635    7.6871   -6.7065 C   0  0  2  0  0  0  0  0  0  0  0  0
    2.6843    6.6157   -6.1867 C   0  0  2  0  0  0  0  0  0  0  0  0
    0.4343    7.1539   -2.2968 C   0  0  0  0  0  0  0  0  0  0  0  0
    1.6795    8.6671   -4.2914 O   0  0  0  0  0  0  0  0  0  0  0  0
    1.2074    9.5157   -0.4533 O   0  0  0  0  0  0  0  0  0  0  0  0
   -0.7188   10.8245   -2.6236 O   0  0  0  0  0  0  0  0  0  0  0  0
   -1.4153    4.5401   -1.2723 O   0  0  0  0  0  0  0  0  0  0  0  0
    1.9164    2.9277   -1.4366 C   0  0  0  0  0  0  0  0  0  0  0  0
    2.2007    1.7547   -7.2185 C   0  0  0  0  0  0  0  0  0  0  0  0
    3.2740    8.9300   -7.4676 C   0  0  0  0  0  0  0  0  0  0  0  0
    2.8363    6.1641   -4.8159 C   0  0  0  0  0  0  0  0  0  0  0  0
    4.4523    4.6489   -5.6011 C   0  0  0  0  0  0  0  0  0  0  0  0
    4.1653    3.4194   -4.8534 O   0  0  0  0  0  0  0  0  0  0  0  0
    4.7782    5.6102   -4.9374 O   0  0  0  0  0  0  0  0  0  0  0  0
    3.6931    1.6565   -5.5610 C   0  0  2  0  0  0  0  0  0  0  0  0
    2.7527    0.5877   -5.5525 O   0  0  0  0  0  0  0  0  0  0  0  0
    2.2925    0.2626   -4.3276 C   0  0  1  0  0  0  0  0  0  0  0  0
    3.6164    0.2789   -3.6467 C   0  0  2  0  0  0  0  0  0  0  0  0
    4.5515    1.4486   -3.5965 C   0  0  1  0  0  0  0  0  0  0  0  0
    5.1825    1.6465   -4.9055 C   0  0  1  0  0  0  0  0  0  0  0  0
    1.1995    0.9963   -3.6363 C   0  0  0  0  0  0  0  0  0  0  0  0
   -0.4216    0.9984   -4.1554 O   0  0  0  0  0  0  0  0  0  0  0  0
    4.3142   -0.7598   -4.2800 O   0  0  0  0  0  0  0  0  0  0  0  0
    3.8953    2.5083   -3.0006 O   0  0  0  0  0  0  0  0  0  0  0  0
    5.9234    0.6091   -5.5308 O   0  0  0  0  0  0  0  0  0  0  0  0
   -0.7942    1.6292   -5.5471 C   0  0  2  0  0  0  0  0  0  0  0  0
   -0.8566    3.1752   -5.3490 O   0  0  0  0  0  0  0  0  0  0  0  0
   -1.8352    4.0969   -5.7815 C   0  0  1  0  0  0  0  0  0  0  0  0
   -2.4740    3.4053   -7.0002 C   0  0  2  0  0  0  0  0  0  0  0  0
   -2.8454    1.9873   -6.7015 C   0  0  1  0  0  0  0  0  0  0  0  0
   -1.8250    1.2157   -7.1839 C   0  0  1  0  0  0  0  0  0  0  0  0
   -2.0997    3.9849   -4.3453 C   0  0  0  0  0  0  0  0  0  0  0  0
   -1.2545    4.6611   -3.5299 O   0  0  0  0  0  0  0  0  0  0  0  0
   -1.6399    1.2001   -8.6241 O   0  0  0  0  0  0  0  0  0  0  0  0
   -2.9498    1.6073   -5.3296 O   0  0  0  0  0  0  0  0  0  0  0  0
   -1.9680    3.6559   -8.4640 O   0  0  0  0  0  0  0  0  0  0  0  0
   -0.5535    3.5150   -9.0722 C   0  0  2  0  0  0  0  0  0  0  0  0
    0.1780    1.9949   -8.9372 O   0  0  0  0  0  0  0  0  0  0  0  0
    0.1909    1.1955   -7.4405 C   0  0  2  0  0  0  0  0  0  0  0  0
    0.4211    2.6573   -6.7111 C   0  0  1  0  0  0  0  0  0  0  0  0
    0.2964    4.0752   -7.2396 C   0  0  2  0  0  0  0  0  0  0  0  0
    0.4692    4.4459   -8.5882 C   0  0  1  0  0  0  0  0  0  0  0  0
    0.4081   -0.4022   -6.9926 C   0  0  0  0  0  0  0  0  0  0  0  0
    0.9099    2.3719   -5.1278 O   0  0  0  0  0  0  0  0  0  0  0  0
    1.7467    4.0827   -9.0413 O   0  0  0  0  0  0  0  0  0  0  0  0
   -0.5585    3.6705  -10.1357 H   0  0  0  0  0  0  0  0  0  0  0  0
    0.0217    5.2908   -6.5752 O   0  0  0  0  0  0  0  0  0  0  0  0
    1.4859    6.9973   -0.2845 H   0  0  0  0  0  0  0  0  0  0  0  0
    3.0640    5.1448   -2.3875 H   0  0  0  0  0  0  0  0  0  0  0  0
    2.3587    5.5411   -7.9216 H   0  0  0  0  0  0  0  0  0  0  0  0
   -1.8682    7.5829   -0.5259 H   0  0  0  0  0  0  0  0  0  0  0  0
   -1.1867    7.0115   -1.5591 H   0  0  0  0  0  0  0  0  0  0  0  0
   -1.9946    7.3231   -2.4809 H   0  0  0  0  0  0  0  0  0  0  0  0
   -1.6249    9.0753   -3.2358 H   0  0  0  0  0  0  0  0  0  0  0  0
   -1.9532    9.7202   -1.5225 H   0  0  0  0  0  0  0  0  0  0  0  0
    2.5707    9.9677   -3.4208 H   0  0  0  0  0  0  0  0  0  0  0  0
    1.3129   10.5837   -1.9393 H   0  0  0  0  0  0  0  0  0  0  0  0
    3.6872    8.0615   -3.2678 H   0  0  0  0  0  0  0  0  0  0  0  0
    3.5165    6.9701   -2.6462 H   0  0  0  0  0  0  0  0  0  0  0  0
   -1.2230    5.7489   -1.0701 H   0  0  0  0  0  0  0  0  0  0  0  0
    0.9285    4.5505   -0.6141 H   0  0  0  0  0  0  0  0  0  0  0  0
   -0.0540    3.3305   -1.7775 H   0  0  0  0  0  0  0  0  0  0  0  0
    0.7980    3.7654   -4.3465 H   0  0  0  0  0  0  0  0  0  0  0  0
    0.9336    6.5261   -4.2168 H   0  0  0  0  0  0  0  0  0  0  0  0
   -0.0254    5.7791   -4.0649 H   0  0  0  0  0  0  0  0  0  0  0  0
    4.9184    1.8318   -7.3175 H   0  0  0  0  0  0  0  0  0  0  0  0
    4.8019    1.4924   -6.6691 H   0  0  0  0  0  0  0  0  0  0  0  0
    5.5229    3.8975   -8.4817 H   0  0  0  0  0  0  0  0  0  0  0  0
    5.7275    3.1072   -7.5383 H   0  0  0  0  0  0  0  0  0  0  0  0
    6.2734    5.9917   -7.6226 H   0  0  0  0  0  0  0  0  0  0  0  0
    6.0307    5.4462   -6.2253 H   0  0  0  0  0  0  0  0  0  0  0  0
    5.5542    8.0417   -7.0536 H   0  0  0  0  0  0  0  0  0  0  0  0
    5.1835    7.4014   -5.5184 H   0  0  0  0  0  0  0  0  0  0  0  0
    2.8919    8.3168   -6.0326 H   0  0  0  0  0  0  0  0  0  0  0  0
    1.8833    7.2303   -5.6697 H   0  0  0  0  0  0  0  0  0  0  0  0
   -0.1384    7.4871   -0.7483 H   0  0  0  0  0  0  0  0  0  0  0  0
    0.2873    7.8607   -3.1840 H   0  0  0  0  0  0  0  0  0  0  0  0
   -0.3216    6.5855   -2.8006 H   0  0  0  0  0  0  0  0  0  0  0  0
    1.0815    9.3461   -4.6062 H   0  0  0  0  0  0  0  0  0  0  0  0
    2.0595    9.4637   -0.0540 H   0  0  0  0  0  0  0  0  0  0  0  0
   -0.3090   11.0618   -1.7643 H   0  0  0  0  0  0  0  0  0  0  0  0
   -1.3838    4.4169   -2.2407 H   0  0  0  0  0  0  0  0  0  0  0  0
    0.9355    3.0121   -0.4493 H   0  0  0  0  0  0  0  0  0  0  0  0
    1.4508    1.9825   -1.3937 H   0  0  0  0  0  0  0  0  0  0  0  0
    2.5207    3.3893   -0.6169 H   0  0  0  0  0  0  0  0  0  0  0  0
    2.7135    2.0784   -8.4189 H   0  0  0  0  0  0  0  0  0  0  0  0
    2.5943    0.7110   -7.4689 H   0  0  0  0  0  0  0  0  0  0  0  0
    1.6281    1.8078   -8.0781 H   0  0  0  0  0  0  0  0  0  0  0  0
    2.2188    9.2287   -7.4986 H   0  0  0  0  0  0  0  0  0  0  0  0
    3.8253    9.6901   -6.8685 H   0  0  0  0  0  0  0  0  0  0  0  0
    3.6890    8.7863   -8.4422 H   0  0  0  0  0  0  0  0  0  0  0  0
    2.9381    5.0653   -4.5578 H   0  0  0  0  0  0  0  0  0  0  0  0
    3.3741    5.9192   -3.9325 H   0  0  0  0  0  0  0  0  0  0  0  0
    1.9033    5.9468   -5.1630 H   0  0  0  0  0  0  0  0  0  0  0  0
    3.5813    1.9735   -7.0743 H   0  0  0  0  0  0  0  0  0  0  0  0
    1.7841   -0.6483   -4.4850 H   0  0  0  0  0  0  0  0  0  0  0  0
    3.3472    0.1401   -2.6451 H   0  0  0  0  0  0  0  0  0  0  0  0
    5.4432    1.3922   -3.0669 H   0  0  0  0  0  0  0  0  0  0  0  0
    5.7910    2.6715   -5.0293 H   0  0  0  0  0  0  0  0  0  0  0  0
    1.0477    1.1110   -2.6159 H   0  0  0  0  0  0  0  0  0  0  0  0
    1.7742    1.8960   -3.6463 H   0  0  0  0  0  0  0  0  0  0  0  0
    4.0033   -1.4765   -3.7323 H   0  0  0  0  0  0  0  0  0  0  0  0
    3.4931    2.8915   -3.8075 H   0  0  0  0  0  0  0  0  0  0  0  0
    5.2061   -0.0206   -5.8009 H   0  0  0  0  0  0  0  0  0  0  0  0
    0.4376    1.0580   -5.7262 H   0  0  0  0  0  0  0  0  0  0  0  0
   -1.6046    5.1709   -6.0751 H   0  0  0  0  0  0  0  0  0  0  0  0
   -3.4407    3.8091   -6.9146 H   0  0  0  0  0  0  0  0  0  0  0  0
   -3.3706    1.3569   -7.3778 H   0  0  0  0  0  0  0  0  0  0  0  0
   -1.8387    0.1408   -7.3293 H   0  0  0  0  0  0  0  0  0  0  0  0
   -3.0555    4.2732   -4.1672 H   0  0  0  0  0  0  0  0  0  0  0  0
   -1.8161    3.0482   -3.8451 H   0  0  0  0  0  0  0  0  0  0  0  0
   -0.4517    4.2569   -3.8660 H   0  0  0  0  0  0  0  0  0  0  0  0
   -0.9687    1.8687   -8.6823 H   0  0  0  0  0  0  0  0  0  0  0  0
   -2.1944    1.7797   -4.7150 H   0  0  0  0  0  0  0  0  0  0  0  0
   -0.5791    0.4391   -6.5704 H   0  0  0  0  0  0  0  0  0  0  0  0
    1.3244    2.9128   -6.7095 H   0  0  0  0  0  0  0  0  0  0  0  0
   -0.6406    3.7859   -7.1982 H   0  0  0  0  0  0  0  0  0  0  0  0
    0.2811    5.5078   -8.4511 H   0  0  0  0  0  0  0  0  0  0  0  0
    0.8928   -0.7061   -7.8511 H   0  0  0  0  0  0  0  0  0  0  0  0
    0.7435   -0.5048   -5.9387 H   0  0  0  0  0  0  0  0  0  0  0  0
   -0.5248   -1.0446   -6.7464 H   0  0  0  0  0  0  0  0  0  0  0  0
    0.1693    2.4532   -4.4056 H   0  0  0  0  0  0  0  0  0  0  0  0
    2.0448    3.4736   -8.3588 H   0  0  0  0  0  0  0  0  0  0  0  0
    0.5311    5.9917   -6.1702 H   0  0  0  0  0  0  0  0  0  0  0  0
  1 73  1  0  0  0  0
  1 74  1  0  0  0  0
  1 75  1  0  0  0  0
  2  8  1  0  0  0  0
  2  3  1  6  0  0  0
  2  1  1  0  0  0  0
  3 28  1  0  0  0  0
  3 76  1  0  0  0  0
  3 77  1  0  0  0  0
  4  5  1  0  0  0  0
  4  6  1  0  0  0  0
  4 78  1  6  0  0  0
  4 26  1  0  0  0  0
  5  2  1  0  0  0  0
  5 79  1  6  0  0  0
  5 27  1  0  0  0  0
  6 80  1  0  0  0  0
  6 81  1  0  0  0  0
  7 11  1  0  0  0  0
  7  6  1  0  0  0  0
  7  8  1  0  0  0  0
  7 25  1  1  0  0  0
  8  9  1  0  0  0  0
  8 70  1  6  0  0  0
  9 10  1  0  0  0  0
  9 82  1  6  0  0  0
  9 29  1  0  0  0  0
 10 12  1  0  0  0  0
 10 83  1  0  0  0  0
 10 84  1  0  0  0  0
 11 12  1  0  0  0  0
 11 14  1  0  0  0  0
 11 71  1  1  0  0  0
 12 16  1  0  0  0  0
 12 30  1  1  0  0  0
 13 14  1  0  0  0  0
 13 85  1  0  0  0  0
 14 86  1  0  0  0  0
 14 87  1  0  0  0  0
 15 19  1  0  0  0  0
 15 13  2  0  0  0  0
 15 16  1  0  0  0  0
 16 17  1  0  0  0  0
 16 31  1  6  0  0  0
 17 18  1  0  0  0  0
 17 88  1  0  0  0  0
 17 89  1  0  0  0  0
 18 20  1  0  0  0  0
 18 90  1  0  0  0  0
 18 91  1  0  0  0  0
 19 20  1  0  0  0  0
 19 24  1  0  0  0  0
 19 72  1  1  0  0  0
 20 21  1  0  0  0  0
 20 34  1  1  0  0  0
 21 22  1  0  0  0  0
 21 92  1  0  0  0  0
 21 93  1  0  0  0  0
 22 23  1  0  0  0  0
 22 94  1  0  0  0  0
 22 95  1  0  0  0  0
 23 24  1  0  0  0  0
 23 32  1  0  0  0  0
 23 96  1  1  0  0  0
 24 97  1  6  0  0  0
 24 33  1  0  0  0  0
 25 98  1  0  0  0  0
 25 99  1  0  0  0  0
 25100  1  0  0  0  0
 26101  1  0  0  0  0
 27102  1  0  0  0  0
 28103  1  0  0  0  0
 29104  1  0  0  0  0
 30105  1  0  0  0  0
 30106  1  0  0  0  0
 30107  1  0  0  0  0
 31108  1  0  0  0  0
 31109  1  0  0  0  0
 31110  1  0  0  0  0
 32111  1  0  0  0  0
 32112  1  0  0  0  0
 32113  1  0  0  0  0
 33114  1  0  0  0  0
 33115  1  0  0  0  0
 33116  1  0  0  0  0
 34 35  1  0  0  0  0
 34 36  2  0  0  0  0
 37 35  1  0  0  0  0
 37 38  1  0  0  0  0
 37 42  1  0  0  0  0
 37117  1  6  0  0  0
 38 39  1  0  0  0  0
 39 40  1  0  0  0  0
 39 43  1  0  0  0  0
 39118  1  6  0  0  0
 40 41  1  0  0  0  0
 40119  1  1  0  0  0
 40 45  1  0  0  0  0
 41 42  1  0  0  0  0
 41 46  1  0  0  0  0
 41120  1  1  0  0  0
 42 47  1  0  0  0  0
 42121  1  6  0  0  0
 43 44  1  0  0  0  0
 43122  1  0  0  0  0
 43123  1  0  0  0  0
 45124  1  0  0  0  0
 46125  1  0  0  0  0
 47126  1  0  0  0  0
 48 44  1  0  0  0  0
 48 49  1  0  0  0  0
 48 53  1  0  0  0  0
 48127  1  6  0  0  0
 49 50  1  0  0  0  0
 50 51  1  0  0  0  0
 50 54  1  0  0  0  0
 50128  1  6  0  0  0
 51 52  1  0  0  0  0
 51129  1  6  0  0  0
 51 58  1  0  0  0  0
 52 53  1  0  0  0  0
 52 57  1  0  0  0  0
 52130  1  6  0  0  0
 53 56  1  0  0  0  0
 53131  1  1  0  0  0
 54 55  1  0  0  0  0
 54132  1  0  0  0  0
 54133  1  0  0  0  0
 55134  1  0  0  0  0
 56135  1  0  0  0  0
 57136  1  0  0  0  0
 59 58  1  0  0  0  0
 59 60  1  0  0  0  0
 59 64  1  0  0  0  0
 59 68  1  6  0  0  0
 60 61  1  0  0  0  0
 61 62  1  0  0  0  0
 61137  1  1  0  0  0
 61 65  1  0  0  0  0
 62 63  1  0  0  0  0
 62 66  1  0  0  0  0
 62138  1  6  0  0  0
 63 64  1  0  0  0  0
 63139  1  6  0  0  0
 63 69  1  0  0  0  0
 64 67  1  0  0  0  0
 64140  1  6  0  0  0
 65141  1  0  0  0  0
 65142  1  0  0  0  0
 65143  1  0  0  0  0
 66144  1  0  0  0  0
 67145  1  0  0  0  0
 69146  1  0  0  0  0
M  END
>  <DRUGBANK_ID>
DB15532

>  <COMMON_NAME>
Madecassoside

>  <CAS_NUMBER>
34540-22-2

>  <UNII>
CQ2F5O6YIY

>  <SYNONYMS>
Asiaticoside A; Redermic

$$$$
