
 OpenBabel10282417133D

 29 11  0  0  0  0  0  0  0  0999 V2000
    0.9215    0.0301   -0.0542 Br  0  5  0  0  0  0  0  0  0  0  0  0
    0.9973   -0.0535    0.0844 Br  0  0  0  0  0  0  0  0  0  0  0  0
    1.0722   -0.0456   -0.0520 Br  0  0  0  0  0  0  0  0  0  0  0  0
    1.0647    0.0496   -0.0579 Br  0  0  0  0  0  0  0  0  0  0  0  0
    1.0904    0.0266    0.0335 Br  0  0  0  0  0  0  0  0  0  0  0  0
    1.0373    0.0018   -0.0928 Br  0  0  0  0  0  0  0  0  0  0  0  0
    1.0228   -0.0973   -0.0023 Br  0  0  0  0  0  0  0  0  0  0  0  0
    1.0595   -0.0269    0.0757 Br  0  0  0  0  0  0  0  0  0  0  0  0
    0.9418    0.0766   -0.0275 Br  0  0  0  0  0  0  0  0  0  0  0  0
    0.9009   -0.0133    0.0016 Br  0  0  0  0  0  0  0  0  0  0  0  0
    1.0245    0.0606    0.0757 Br  0  0  0  0  0  0  0  0  0  0  0  0
    1.0733    0.0080   -0.0675 Br  0  0  0  0  0  0  0  0  0  0  0  0
    0.9199    0.0559    0.0216 Ta  0  0  0  0  0  0  0  0  0  0  0  0
    1.0627    0.0778    0.0038 Ta  0  0  0  0  0  0  0  0  0  0  0  0
    1.0035    0.0580   -0.0814 Ta  0  0  0  0  0  0  0  0  0  0  0  0
    0.9162    0.0296   -0.0458 Ta  0  0  0  0  0  0  0  0  0  0  0  0
    0.9465   -0.0528    0.0659 Ta  0  0  0  0  0  0  0  0  0  0  0  0
    1.0090    0.0996    0.0012 Ta  0  3  0  0  0  0  0  0  0  0  0  0
    2.5073   -0.0535    0.0844 H   0  0  0  0  0  0  0  0  0  0  0  0
    2.5822   -0.0456   -0.0520 H   0  0  0  0  0  0  0  0  0  0  0  0
    2.5747    0.0496   -0.0579 H   0  0  0  0  0  0  0  0  0  0  0  0
    2.6004    0.0266    0.0335 H   0  0  0  0  0  0  0  0  0  0  0  0
    2.5473    0.0018   -0.0928 H   0  0  0  0  0  0  0  0  0  0  0  0
    2.5328   -0.0973   -0.0023 H   0  0  0  0  0  0  0  0  0  0  0  0
    2.5695   -0.0269    0.0757 H   0  0  0  0  0  0  0  0  0  0  0  0
    2.4518    0.0766   -0.0275 H   0  0  0  0  0  0  0  0  0  0  0  0
    2.4109   -0.0133    0.0016 H   0  0  0  0  0  0  0  0  0  0  0  0
    2.5345    0.0606    0.0757 H   0  0  0  0  0  0  0  0  0  0  0  0
    2.5833    0.0080   -0.0675 H   0  0  0  0  0  0  0  0  0  0  0  0
  2 19  1  0  0  0  0
  3 20  1  0  0  0  0
  4 21  1  0  0  0  0
  5 22  1  0  0  0  0
  6 23  1  0  0  0  0
  7 24  1  0  0  0  0
  8 25  1  0  0  0  0
  9 26  1  0  0  0  0
 10 27  1  0  0  0  0
 11 28  1  0  0  0  0
 12 29  1  0  0  0  0
M  CHG  2   1  -1  18   1
M  END
>  <DRUGBANK_ID>
DB04119

>  <SECONDARY_ACCESSION_NUMBERS>
EXPT03019

>  <COMMON_NAME>
Hexatantalum Dodecabromide

$$$$
