
 OpenBabel10282417183D

 37 39  0  0  0  0  0  0  0  0999 V2000
    1.2424   -1.4450   -0.0362 C   0  0  3  0  0  0  0  0  0  0  0  0
   -0.0612   -0.6528    0.0773 C   0  0  0  0  0  0  0  0  0  0  0  0
   -0.0851    0.7473   -0.0239 C   0  0  0  0  0  0  0  0  0  0  0  0
    2.4905   -0.5779   -0.2980 C   0  0  0  0  0  0  0  0  0  0  0  0
    1.1978    1.5364   -0.1390 C   0  0  0  0  0  0  0  0  0  0  0  0
    1.2029   -2.5575   -1.0794 C   0  0  0  0  0  0  0  0  0  0  0  0
    2.4162    0.7683    0.4211 C   0  0  3  0  0  0  0  0  0  0  0  0
    2.3779    0.5209    1.8764 N   0  0  0  0  0  0  0  0  0  0  0  0
   -1.2750   -1.3497    0.2547 C   0  0  0  0  0  0  0  0  0  0  0  0
   -1.3222    1.4068   -0.0532 C   0  0  0  0  0  0  0  0  0  0  0  0
    2.2173   -3.5175   -1.0903 C   0  0  0  0  0  0  0  0  0  0  0  0
    0.1599   -2.6632   -2.0156 C   0  0  0  0  0  0  0  0  0  0  0  0
    2.3568    1.7510    2.6488 C   0  0  0  0  0  0  0  0  0  0  0  0
   -2.4956   -0.6929    0.1726 C   0  0  0  0  0  0  0  0  0  0  0  0
   -2.5184    0.6878    0.0226 C   0  0  0  0  0  0  0  0  0  0  0  0
    2.1619   -4.5830   -1.9881 C   0  0  0  0  0  0  0  0  0  0  0  0
    0.0442   -3.7851   -2.8260 C   0  0  0  0  0  0  0  0  0  0  0  0
    1.0577   -4.7270   -2.8284 C   0  0  0  0  0  0  0  0  0  0  0  0
    1.3680   -1.9282    0.9456 H   0  0  0  0  0  0  0  0  0  0  0  0
    2.6129   -0.4014   -1.3768 H   0  0  0  0  0  0  0  0  0  0  0  0
    3.3946   -1.1206    0.0139 H   0  0  0  0  0  0  0  0  0  0  0  0
    1.0899    2.4982    0.3726 H   0  0  0  0  0  0  0  0  0  0  0  0
    1.3709    1.7728   -1.1968 H   0  0  0  0  0  0  0  0  0  0  0  0
    3.3341    1.3229    0.1865 H   0  0  0  0  0  0  0  0  0  0  0  0
    1.5301   -0.0020    2.1050 H   0  0  0  0  0  0  0  0  0  0  0  0
   -1.2694   -2.4358    0.3477 H   0  0  0  0  0  0  0  0  0  0  0  0
   -1.3637    2.4890   -0.1496 H   0  0  0  0  0  0  0  0  0  0  0  0
    3.0600   -3.4398   -0.4059 H   0  0  0  0  0  0  0  0  0  0  0  0
   -0.6073   -1.9009   -2.1025 H   0  0  0  0  0  0  0  0  0  0  0  0
    1.4761    2.3594    2.4284 H   0  0  0  0  0  0  0  0  0  0  0  0
    2.3107    1.5043    3.7125 H   0  0  0  0  0  0  0  0  0  0  0  0
    3.2616    2.3363    2.4683 H   0  0  0  0  0  0  0  0  0  0  0  0
   -3.4180   -1.2666    0.1961 H   0  0  0  0  0  0  0  0  0  0  0  0
   -3.4716    1.2051   -0.0343 H   0  0  0  0  0  0  0  0  0  0  0  0
    2.9687   -5.3046   -2.0125 H   0  0  0  0  0  0  0  0  0  0  0  0
   -0.8427   -3.9010   -3.4419 H   0  0  0  0  0  0  0  0  0  0  0  0
    0.9937   -5.5778   -3.5010 H   0  0  0  0  0  0  0  0  0  0  0  0
  1  2  1  0  0  0  0
  1  4  1  0  0  0  0
  1  6  1  0  0  0  0
  1 19  1  0  0  0  0
  2  3  1  0  0  0  0
  2  9  2  0  0  0  0
  3 10  2  0  0  0  0
  3  5  1  0  0  0  0
  4  7  1  0  0  0  0
  4 20  1  0  0  0  0
  4 21  1  0  0  0  0
  5  7  1  0  0  0  0
  5 22  1  0  0  0  0
  5 23  1  0  0  0  0
  6 11  2  0  0  0  0
  6 12  1  0  0  0  0
  7  8  1  0  0  0  0
  7 24  1  0  0  0  0
  8 13  1  0  0  0  0
  8 25  1  0  0  0  0
  9 14  1  0  0  0  0
  9 26  1  0  0  0  0
 10 15  1  0  0  0  0
 10 27  1  0  0  0  0
 11 16  1  0  0  0  0
 11 28  1  0  0  0  0
 12 17  2  0  0  0  0
 12 29  1  0  0  0  0
 13 30  1  0  0  0  0
 13 31  1  0  0  0  0
 13 32  1  0  0  0  0
 14 15  2  0  0  0  0
 14 33  1  0  0  0  0
 15 34  1  0  0  0  0
 16 18  2  0  0  0  0
 16 35  1  0  0  0  0
 17 18  1  0  0  0  0
 17 36  1  0  0  0  0
 18 37  1  0  0  0  0
M  END
>  <DRUGBANK_ID>
DB09193

>  <COMMON_NAME>
CP-39,332

>  <CAS_NUMBER>
61764-60-1

>  <UNII>
R0YEK8P3H4

$$$$
