
 OpenBabel10282417183D

  1  0  0  0  0  0  0  0  0  0999 V2000
    0.9746    0.0816    0.0519 Cr  0  0  0  0  0  0  0  0  0  0  0  0
M  END
>  <DRUGBANK_ID>
DB11136

>  <COMMON_NAME>
Chromium

>  <CAS_NUMBER>
7440-47-3

>  <UNII>
0R0008Q3JB

>  <SYNONYMS>
Biochrome; Chrom; Chromium, elemental; Cromo; Dinakrome

$$$$
