
 OpenBabel10282417233D

 45 47  0  0  0  0  0  0  0  0999 V2000
    1.4272   -0.2634    0.0178 C   0  0  0  0  0  0  0  0  0  0  0  0
    0.5208   -1.3244    0.0226 C   0  0  0  0  0  0  0  0  0  0  0  0
   -0.8545   -1.0824   -0.0179 C   0  0  0  0  0  0  0  0  0  0  0  0
   -1.3337    0.2324   -0.0649 C   0  0  0  0  0  0  0  0  0  0  0  0
   -2.8240    0.5079   -0.1997 C   0  0  1  0  0  0  0  0  0  0  0  0
   -3.4254    1.2570    0.9979 C   0  0  0  0  0  0  0  0  0  0  0  0
   -2.8737    2.5515    1.2276 O   0  0  0  0  0  0  0  0  0  0  0  0
   -3.1640    1.2036   -1.5004 C   0  0  0  0  0  0  0  0  0  0  0  0
   -3.8994    0.7272   -2.3634 O   0  0  0  0  0  0  0  0  0  0  0  0
   -2.5382    2.4031   -1.5864 O   0  0  0  0  0  0  0  0  0  0  0  0
   -2.7603    3.1718   -2.7661 C   0  0  2  0  0  0  0  0  0  0  0  0
   -1.3914    3.6574   -3.2678 C   0  0  0  0  0  0  0  0  0  0  0  0
   -1.2899    5.1673   -3.4679 C   0  0  2  0  0  0  0  0  0  0  0  0
   -1.0648    5.8451   -2.1000 C   0  0  2  0  0  0  0  0  0  0  0  0
   -2.4672    6.1754   -1.6025 C   0  0  0  0  0  0  0  0  0  0  0  0
   -3.3976    5.6675   -2.7148 C   0  0  2  0  0  0  0  0  0  0  0  0
   -3.8297    4.2259   -2.4416 C   0  0  0  0  0  0  0  0  0  0  0  0
   -2.5610    5.7655   -3.9215 N   0  0  0  0  0  0  0  0  0  0  0  0
   -3.1394    5.1364   -5.1120 C   0  0  0  0  0  0  0  0  0  0  0  0
   -0.3057    7.0434   -2.2478 O   0  0  0  0  0  0  0  0  0  0  0  0
   -0.4002    1.2840   -0.0465 C   0  0  0  0  0  0  0  0  0  0  0  0
    0.9657    1.0434   -0.0300 C   0  0  0  0  0  0  0  0  0  0  0  0
    2.4957   -0.4523    0.0442 H   0  0  0  0  0  0  0  0  0  0  0  0
    0.8914   -2.3457    0.0376 H   0  0  0  0  0  0  0  0  0  0  0  0
   -1.5389   -1.9292   -0.0286 H   0  0  0  0  0  0  0  0  0  0  0  0
   -3.3489   -0.4575   -0.2569 H   0  0  0  0  0  0  0  0  0  0  0  0
   -4.5010    1.3993    0.8538 H   0  0  0  0  0  0  0  0  0  0  0  0
   -3.2808    0.6757    1.9143 H   0  0  0  0  0  0  0  0  0  0  0  0
   -1.9658    2.4222    1.5544 H   0  0  0  0  0  0  0  0  0  0  0  0
   -3.1583    2.5225   -3.5546 H   0  0  0  0  0  0  0  0  0  0  0  0
   -0.5883    3.3178   -2.6016 H   0  0  0  0  0  0  0  0  0  0  0  0
   -1.1915    3.1718   -4.2316 H   0  0  0  0  0  0  0  0  0  0  0  0
   -0.4747    5.4119   -4.1586 H   0  0  0  0  0  0  0  0  0  0  0  0
   -0.5310    5.2068   -1.3878 H   0  0  0  0  0  0  0  0  0  0  0  0
   -2.6693    5.6760   -0.6475 H   0  0  0  0  0  0  0  0  0  0  0  0
   -2.5884    7.2534   -1.4438 H   0  0  0  0  0  0  0  0  0  0  0  0
   -4.2822    6.3121   -2.7751 H   0  0  0  0  0  0  0  0  0  0  0  0
   -4.7076    4.0097   -3.0640 H   0  0  0  0  0  0  0  0  0  0  0  0
   -4.1753    4.1281   -1.4047 H   0  0  0  0  0  0  0  0  0  0  0  0
   -3.2845    4.0556   -5.0370 H   0  0  0  0  0  0  0  0  0  0  0  0
   -4.1245    5.5586   -5.3363 H   0  0  0  0  0  0  0  0  0  0  0  0
   -2.4977    5.2933   -5.9836 H   0  0  0  0  0  0  0  0  0  0  0  0
   -0.6661    7.4942   -3.0337 H   0  0  0  0  0  0  0  0  0  0  0  0
   -0.7175    2.3234   -0.0813 H   0  0  0  0  0  0  0  0  0  0  0  0
    1.6539    1.8826   -0.0761 H   0  0  0  0  0  0  0  0  0  0  0  0
  1 22  2  0  0  0  0
  1 23  1  0  0  0  0
  2  1  1  0  0  0  0
  2  3  2  0  0  0  0
  2 24  1  0  0  0  0
  3  4  1  0  0  0  0
  3 25  1  0  0  0  0
  4  5  1  0  0  0  0
  5  6  1  0  0  0  0
  5  8  1  0  0  0  0
  5 26  1  6  0  0  0
  6 27  1  0  0  0  0
  6 28  1  0  0  0  0
  7  6  1  0  0  0  0
  7 29  1  0  0  0  0
  8 10  1  0  0  0  0
  9  8  2  0  0  0  0
 11 10  1  0  0  0  0
 11 12  1  0  0  0  0
 11 30  1  6  0  0  0
 12 13  1  0  0  0  0
 12 31  1  0  0  0  0
 12 32  1  0  0  0  0
 13 18  1  0  0  0  0
 13 33  1  6  0  0  0
 14 13  1  0  0  0  0
 14 34  1  1  0  0  0
 14 20  1  0  0  0  0
 15 14  1  0  0  0  0
 15 16  1  0  0  0  0
 15 35  1  0  0  0  0
 15 36  1  0  0  0  0
 16 18  1  0  0  0  0
 16 37  1  6  0  0  0
 17 16  1  0  0  0  0
 17 11  1  0  0  0  0
 17 38  1  0  0  0  0
 17 39  1  0  0  0  0
 19 18  1  0  0  0  0
 19 40  1  0  0  0  0
 19 41  1  0  0  0  0
 19 42  1  0  0  0  0
 20 43  1  0  0  0  0
 21  4  2  0  0  0  0
 21 44  1  0  0  0  0
 22 21  1  0  0  0  0
 22 45  1  0  0  0  0
M  END
>  <DRUGBANK_ID>
DB16896

>  <COMMON_NAME>
Raceanisodamine

>  <CAS_NUMBER>
85760-60-7

>  <UNII>
U5AC4ZPQ36

$$$$
