
 OpenBabel10282417203D

 56 57  0  0  0  0  0  0  0  0999 V2000
   -0.1573   -1.8241   -0.2813 C   0  0  3  0  0  0  0  0  0  0  0  0
   -0.0389   -2.6502    1.0056 C   0  0  0  0  0  0  0  0  0  0  0  0
   -1.6527   -1.1073   -0.3341 C   0  0  0  0  0  0  0  0  0  0  0  0
    1.0633   -0.9395   -0.4398 C   0  0  0  0  0  0  0  0  0  0  0  0
   -0.0427   -2.5207   -1.6422 C   0  0  0  0  0  0  0  0  0  0  0  0
   -1.0577   -3.5674    1.2288 C   0  0  0  0  0  0  0  0  0  0  0  0
    0.9878   -2.5612    1.9821 C   0  0  0  0  0  0  0  0  0  0  0  0
   -1.7572    0.1417   -0.8376 N   0  0  0  0  0  0  0  0  0  0  0  0
   -2.6983   -1.6143    0.0726 O   0  0  0  0  0  0  0  0  0  0  0  0
    0.6960    0.2148   -1.0684 N   0  0  0  0  0  0  0  0  0  0  0  0
    2.2332   -1.1559   -0.1313 O   0  0  0  0  0  0  0  0  0  0  0  0
    0.0285   -1.5208   -2.8328 C   0  0  0  0  0  0  0  0  0  0  0  0
   -1.0191   -4.4432    2.2950 C   0  0  0  0  0  0  0  0  0  0  0  0
    1.0899   -3.5181    2.9917 C   0  0  0  0  0  0  0  0  0  0  0  0
   -2.9474    1.1999   -0.3035 C   0  0  0  0  0  0  0  0  0  0  0  0
   -0.5869    0.6996   -1.0350 C   0  0  0  0  0  0  0  0  0  0  0  0
    0.0685   -4.4434    3.1577 C   0  0  0  0  0  0  0  0  0  0  0  0
   -2.7571    2.4153    0.9675 C   0  0  3  0  0  0  0  0  0  0  0  0
   -0.8550    1.7807   -0.5259 O   0  0  0  0  0  0  0  0  0  0  0  0
   -1.6124    3.5516    1.1241 C   0  0  0  0  0  0  0  0  0  0  0  0
   -4.0162    3.1665    1.0768 O   0  0  0  0  0  0  0  0  0  0  0  0
   -1.2460    4.3836   -0.0149 O   0  0  0  0  0  0  0  0  0  0  0  0
   -4.4046    4.0498    0.1211 C   0  0  0  0  0  0  0  0  0  0  0  0
   -0.6569    3.7620   -1.1708 C   0  0  0  0  0  0  0  0  0  0  0  0
   -3.5905    4.1240   -0.9528 N   0  0  0  0  0  0  0  0  0  0  0  0
   -5.4038    4.7397    0.2190 O   0  0  0  0  0  0  0  0  0  0  0  0
    0.7701    2.9831   -0.7836 C   0  0  0  0  0  0  0  0  0  0  0  0
    0.9135    1.9806    0.8486 C   0  0  0  0  0  0  0  0  0  0  0  0
   -0.1975    0.7664    1.5309 C   0  0  0  0  0  0  0  0  0  0  0  0
    0.8606   -3.1406   -1.6490 H   0  0  0  0  0  0  0  0  0  0  0  0
   -0.9277   -3.1382   -1.7550 H   0  0  0  0  0  0  0  0  0  0  0  0
   -1.9133   -3.6003    0.5626 H   0  0  0  0  0  0  0  0  0  0  0  0
    1.7531   -1.7822    1.9965 H   0  0  0  0  0  0  0  0  0  0  0  0
    1.5278    0.8046   -0.9655 H   0  0  0  0  0  0  0  0  0  0  0  0
    0.9536   -0.9208   -2.8452 H   0  0  0  0  0  0  0  0  0  0  0  0
    0.0152   -2.0104   -3.7879 H   0  0  0  0  0  0  0  0  0  0  0  0
   -0.8115   -0.8179   -2.8268 H   0  0  0  0  0  0  0  0  0  0  0  0
   -1.8315   -5.1505    2.4010 H   0  0  0  0  0  0  0  0  0  0  0  0
    1.9750   -3.5580    3.6247 H   0  0  0  0  0  0  0  0  0  0  0  0
   -3.2624    1.7590   -1.1903 H   0  0  0  0  0  0  0  0  0  0  0  0
   -3.7763    0.5820    0.0353 H   0  0  0  0  0  0  0  0  0  0  0  0
    0.1129   -5.1670    3.9624 H   0  0  0  0  0  0  0  0  0  0  0  0
   -2.7382    1.8702    1.9310 H   0  0  0  0  0  0  0  0  0  0  0  0
   -1.8938    4.2552    1.9313 H   0  0  0  0  0  0  0  0  0  0  0  0
   -0.7343    3.1752    1.5957 H   0  0  0  0  0  0  0  0  0  0  0  0
   -1.4306    3.0992   -1.6571 H   0  0  0  0  0  0  0  0  0  0  0  0
   -0.6634    4.4197   -2.0614 H   0  0  0  0  0  0  0  0  0  0  0  0
   -3.6892    4.8885   -1.5987 H   0  0  0  0  0  0  0  0  0  0  0  0
   -2.6370    4.1006   -0.6449 H   0  0  0  0  0  0  0  0  0  0  0  0
    0.8821    2.3591   -1.7242 H   0  0  0  0  0  0  0  0  0  0  0  0
    1.6118    3.6515   -0.9255 H   0  0  0  0  0  0  0  0  0  0  0  0
    1.9074    1.5168    0.8630 H   0  0  0  0  0  0  0  0  0  0  0  0
    0.9227    2.6741    1.6708 H   0  0  0  0  0  0  0  0  0  0  0  0
   -0.1496   -0.0492    0.8869 H   0  0  0  0  0  0  0  0  0  0  0  0
   -0.1461    0.0661    2.3780 H   0  0  0  0  0  0  0  0  0  0  0  0
   -1.2466    0.9730    1.4542 H   0  0  0  0  0  0  0  0  0  0  0  0
  1  2  1  0  0  0  0
  1  3  1  0  0  0  0
  1  4  1  0  0  0  0
  1  5  1  0  0  0  0
  2  6  1  0  0  0  0
  2  7  2  0  0  0  0
  3  8  1  0  0  0  0
  3  9  2  0  0  0  0
  4 10  1  0  0  0  0
  4 11  2  0  0  0  0
  5 12  1  0  0  0  0
  5 30  1  0  0  0  0
  5 31  1  0  0  0  0
  6 13  2  0  0  0  0
  6 32  1  0  0  0  0
  7 14  1  0  0  0  0
  7 33  1  0  0  0  0
  8 15  1  0  0  0  0
  8 16  1  0  0  0  0
 10 16  1  0  0  0  0
 10 34  1  0  0  0  0
 12 35  1  0  0  0  0
 12 36  1  0  0  0  0
 12 37  1  0  0  0  0
 13 17  1  0  0  0  0
 13 38  1  0  0  0  0
 14 17  2  0  0  0  0
 14 39  1  0  0  0  0
 15 18  1  0  0  0  0
 15 40  1  0  0  0  0
 15 41  1  0  0  0  0
 16 19  2  0  0  0  0
 17 42  1  0  0  0  0
 18 20  1  0  0  0  0
 18 21  1  0  0  0  0
 18 43  1  0  0  0  0
 20 22  1  0  0  0  0
 20 44  1  0  0  0  0
 20 45  1  0  0  0  0
 21 23  1  0  0  0  0
 22 24  1  0  0  0  0
 23 25  1  0  0  0  0
 23 26  2  0  0  0  0
 24 27  1  0  0  0  0
 24 46  1  0  0  0  0
 24 47  1  0  0  0  0
 25 48  1  0  0  0  0
 25 49  1  0  0  0  0
 27 28  1  0  0  0  0
 27 50  1  0  0  0  0
 27 51  1  0  0  0  0
 28 29  1  0  0  0  0
 28 52  1  0  0  0  0
 28 53  1  0  0  0  0
 29 54  1  0  0  0  0
 29 55  1  0  0  0  0
 29 56  1  0  0  0  0
M  END
>  <DRUGBANK_ID>
DB13303

>  <COMMON_NAME>
Febarbamate

>  <CAS_NUMBER>
13246-02-1

>  <UNII>
5Z48ONN38P

>  <SYNONYMS>
Febarbamate; Febarbamato; Febarbamatum; Phebarbamate; Phenobamate

$$$$
