
 OpenBabel10282417153D

153153  0  0  1  0  0  0  0  0999 V2000
   -1.4767   -9.1492   -0.0073 O   0  0  0  0  0  0  0  0  0  0  0  0
   -1.6799  -11.2806    0.4953 O   0  0  0  0  0  0  0  0  0  0  0  0
   -2.4774   -6.1273   -3.5930 O   0  0  0  0  0  0  0  0  0  0  0  0
   -2.4816   -6.2892    2.1193 O   0  0  0  0  0  0  0  0  0  0  0  0
    2.7239   -3.1805   -0.1504 O   0  0  0  0  0  0  0  0  0  0  0  0
   -2.6394   -1.2901    0.3361 O   0  0  0  0  0  0  0  0  0  0  0  0
    1.8200   -4.5000   -1.9878 O   0  0  0  0  0  0  0  0  0  0  0  0
    1.7699    1.9267    1.4248 O   0  0  0  0  0  0  0  0  0  0  0  0
   -2.4112   -0.1141    4.5892 O   0  0  0  0  0  0  0  0  0  0  0  0
    1.7378   -4.5774    4.0242 O   0  0  0  0  0  0  0  0  0  0  0  0
    4.8294    0.1755    3.2874 O   0  0  0  0  0  0  0  0  0  0  0  0
    0.7626   -9.7320   -0.0302 N   0  0  0  0  0  0  0  0  0  0  0  0
   -1.1555   -7.3468   -2.2275 N   0  0  0  0  0  0  0  0  0  0  0  0
   -0.9582  -12.8962   -0.6844 N   0  0  0  0  0  0  0  0  0  0  0  0
   -2.6589   -5.6639   -0.1256 N   0  0  0  0  0  0  0  0  0  0  0  0
    0.6038   -4.9315   -0.0720 N   0  0  0  0  0  0  0  0  0  0  0  0
   -0.0563    0.6567    1.1430 N   0  0  0  0  0  0  0  0  0  0  0  0
   -0.7711   -2.0894   -0.6330 N   0  0  0  0  0  0  0  0  0  0  0  0
    3.3029   -5.4125    0.4666 N   0  0  0  0  0  0  0  0  0  0  0  0
   -0.4058    0.4370    3.8547 N   0  0  0  0  0  0  0  0  0  0  0  0
    2.8839   -6.3680   -1.5832 N   0  0  0  0  0  0  0  0  0  0  0  0
    4.0196   -4.2564   -1.5831 N   0  0  0  0  0  0  0  0  0  0  0  0
    0.1794   -2.8171    4.4572 N   0  0  0  0  0  0  0  0  0  0  0  0
    3.6377   -0.9667    5.4336 N   0  0  0  0  0  0  0  0  0  0  0  0
    0.6859  -11.1011   -0.3152 C   0  0  1  0  0  0  0  0  0  0  0  0
    1.7307  -11.6276    0.6507 C   0  0  0  0  0  0  0  0  0  0  0  0
    2.8878  -10.6519    0.5546 C   0  0  0  0  0  0  0  0  0  0  0  0
    2.1675   -9.3827    0.2110 C   0  0  0  0  0  0  0  0  0  0  0  0
   -0.3379   -9.0358   -0.4645 C   0  0  0  0  0  0  0  0  0  0  0  0
   -0.0472   -7.8322   -1.2175 C   0  0  2  0  0  0  0  0  0  0  0  0
   -0.7150  -11.7113   -0.1206 C   0  0  0  0  0  0  0  0  0  0  0  0
   -0.0303   -7.1060    0.0669 C   0  0  0  0  0  0  0  0  0  0  0  0
   -2.3048   -5.0964   -1.5425 C   0  0  1  0  0  0  0  0  0  0  0  0
   -1.1297   -4.1624   -2.2381 C   0  0  2  0  0  0  0  0  0  0  0  0
    1.1249   -7.0267    1.3219 C   0  0  0  0  0  0  0  0  0  0  0  0
   -2.0893   -6.3130   -2.4254 C   0  0  0  0  0  0  0  0  0  0  0  0
   -0.9270   -2.5454   -2.9363 C   0  0  0  0  0  0  0  0  0  0  0  0
    0.0044  -13.7936   -1.2151 C   0  0  0  0  0  0  0  0  0  0  0  0
   -0.1094   -4.9030   -3.0888 C   0  0  0  0  0  0  0  0  0  0  0  0
    2.7463   -6.6686    1.1321 C   0  0  0  0  0  0  0  0  0  0  0  0
   -0.7598   -5.0384    1.0958 C   0  0  2  0  0  0  0  0  0  0  0  0
   -2.0305   -5.7955    1.0835 C   0  0  0  0  0  0  0  0  0  0  0  0
   -0.4936   -0.7844    1.4291 C   0  0  2  0  0  0  0  0  0  0  0  0
    0.8714   -2.0307    1.7253 C   0  0  2  0  0  0  0  0  0  0  0  0
   -2.1889   -1.8083   -2.8757 C   0  0  0  0  0  0  0  0  0  0  0  0
   -1.5590   -3.8021    1.2349 C   0  0  0  0  0  0  0  0  0  0  0  0
    0.8284   -2.6980   -1.1516 C   0  0  2  0  0  0  0  0  0  0  0  0
    0.1594  -14.9624   -0.2783 C   0  0  0  0  0  0  0  0  0  0  0  0
    2.3495   -1.7812    1.6237 C   0  0  0  0  0  0  0  0  0  0  0  0
   -1.4049   -1.3005    0.3046 C   0  0  0  0  0  0  0  0  0  0  0  0
    1.0691   -4.1420   -1.0751 C   0  0  0  0  0  0  0  0  0  0  0  0
   -2.1718   -3.4175    2.5456 C   0  0  0  0  0  0  0  0  0  0  0  0
    1.0486    0.4983    3.3496 C   0  0  1  0  0  0  0  0  0  0  0  0
    0.8619   -3.5053    1.8843 C   0  0  0  0  0  0  0  0  0  0  0  0
    2.0829   -2.0717   -0.7058 C   0  0  1  0  0  0  0  0  0  0  0  0
    2.0323   -0.8719    3.8572 C   0  0  0  0  0  0  0  0  0  0  0  0
    0.9399    1.1685    1.9384 C   0  0  0  0  0  0  0  0  0  0  0  0
    3.0878   -0.4780    1.4781 C   0  0  0  0  0  0  0  0  0  0  0  0
   -1.9211   -4.2541    3.8484 C   0  0  0  0  0  0  0  0  0  0  0  0
    1.3791   -0.8105   -0.4957 C   0  0  0  0  0  0  0  0  0  0  0  0
    3.6805   -1.8860    3.3614 C   0  0  0  0  0  0  0  0  0  0  0  0
    1.3767   -0.9614    5.2613 C   0  0  0  0  0  0  0  0  0  0  0  0
    3.5493   -5.4042   -0.8337 C   0  0  0  0  0  0  0  0  0  0  0  0
   -1.2272   -0.4641    4.4967 C   0  0  0  0  0  0  0  0  0  0  0  0
   -0.7806   -1.8876    5.1625 C   0  0  0  0  0  0  0  0  0  0  0  0
    1.5460   -3.4469    4.5230 C   0  0  0  0  0  0  0  0  0  0  0  0
    3.0448   -2.7469    5.2820 C   0  0  0  0  0  0  0  0  0  0  0  0
    3.2159   -0.4063    6.6843 C   0  0  0  0  0  0  0  0  0  0  0  0
    4.0280    0.2500    4.3659 C   0  0  0  0  0  0  0  0  0  0  0  0
    3.4851    1.6799    4.3447 C   0  0  0  0  0  0  0  0  0  0  0  0
    2.8996   -3.7034    0.6827 H   0  0  0  0  0  0  0  0  0  0  0  0
   -0.9101   -7.6717   -3.1529 H   0  0  0  0  0  0  0  0  0  0  0  0
   -1.9162  -13.1635   -0.4872 H   0  0  0  0  0  0  0  0  0  0  0  0
   -3.5412   -6.1434   -0.0110 H   0  0  0  0  0  0  0  0  0  0  0  0
    1.4556   -5.3818    0.2525 H   0  0  0  0  0  0  0  0  0  0  0  0
    0.1904    0.9667    0.1867 H   0  0  0  0  0  0  0  0  0  0  0  0
   -1.5606   -2.6319   -0.9344 H   0  0  0  0  0  0  0  0  0  0  0  0
   -0.9176    1.2693    3.5543 H   0  0  0  0  0  0  0  0  0  0  0  0
    2.4618   -5.9797   -2.4377 H   0  0  0  0  0  0  0  0  0  0  0  0
    2.0027   -6.4797   -1.0882 H   0  0  0  0  0  0  0  0  0  0  0  0
    4.0013   -3.4012   -0.9850 H   0  0  0  0  0  0  0  0  0  0  0  0
    3.2755   -3.9101   -2.2336 H   0  0  0  0  0  0  0  0  0  0  0  0
   -0.3101   -2.7431    3.5803 H   0  0  0  0  0  0  0  0  0  0  0  0
    1.0100  -11.1663   -1.3685 H   0  0  0  0  0  0  0  0  0  0  0  0
    1.3055  -11.5864    1.6623 H   0  0  0  0  0  0  0  0  0  0  0  0
    2.0589  -12.6319    0.4271 H   0  0  0  0  0  0  0  0  0  0  0  0
    3.4447  -10.5534    1.4990 H   0  0  0  0  0  0  0  0  0  0  0  0
    3.6044  -10.8840   -0.2335 H   0  0  0  0  0  0  0  0  0  0  0  0
    2.2378   -8.8619    1.1536 H   0  0  0  0  0  0  0  0  0  0  0  0
    2.6486   -8.8521   -0.6170 H   0  0  0  0  0  0  0  0  0  0  0  0
    0.9008   -7.8812   -1.7343 H   0  0  0  0  0  0  0  0  0  0  0  0
   -0.4075   -6.2731   -0.4718 H   0  0  0  0  0  0  0  0  0  0  0  0
   -0.9661   -7.3315    0.5688 H   0  0  0  0  0  0  0  0  0  0  0  0
   -3.1256   -4.3958   -1.6535 H   0  0  0  0  0  0  0  0  0  0  0  0
   -0.8029   -4.0673   -1.2345 H   0  0  0  0  0  0  0  0  0  0  0  0
    0.9346   -6.3845    2.1878 H   0  0  0  0  0  0  0  0  0  0  0  0
    0.8500   -7.9196    1.9276 H   0  0  0  0  0  0  0  0  0  0  0  0
   -0.3339   -1.7024   -2.4861 H   0  0  0  0  0  0  0  0  0  0  0  0
   -0.1673   -2.5120   -3.7526 H   0  0  0  0  0  0  0  0  0  0  0  0
   -0.3691  -14.0801   -2.1944 H   0  0  0  0  0  0  0  0  0  0  0  0
    0.9676  -13.2998   -1.3525 H   0  0  0  0  0  0  0  0  0  0  0  0
    0.5630   -4.0765   -3.2020 H   0  0  0  0  0  0  0  0  0  0  0  0
    0.3067   -5.7198   -2.5028 H   0  0  0  0  0  0  0  0  0  0  0  0
    0.1114   -5.0872   -4.1261 H   0  0  0  0  0  0  0  0  0  0  0  0
    3.1944   -6.6870    2.1384 H   0  0  0  0  0  0  0  0  0  0  0  0
    3.1982   -7.4146    0.5233 H   0  0  0  0  0  0  0  0  0  0  0  0
   -0.3455   -5.4087    2.0302 H   0  0  0  0  0  0  0  0  0  0  0  0
   -1.2333   -0.6370    2.2046 H   0  0  0  0  0  0  0  0  0  0  0  0
    0.8085   -2.2793    2.6927 H   0  0  0  0  0  0  0  0  0  0  0  0
   -2.7217   -1.8581   -1.9313 H   0  0  0  0  0  0  0  0  0  0  0  0
   -1.9622   -0.7344   -2.9366 H   0  0  0  0  0  0  0  0  0  0  0  0
   -2.7724   -2.4081   -3.5313 H   0  0  0  0  0  0  0  0  0  0  0  0
   -0.8636   -3.1017    0.9778 H   0  0  0  0  0  0  0  0  0  0  0  0
   -2.2768   -3.6453    0.4451 H   0  0  0  0  0  0  0  0  0  0  0  0
    1.1109   -2.4047   -2.1650 H   0  0  0  0  0  0  0  0  0  0  0  0
   -0.7949  -15.4863   -0.1686 H   0  0  0  0  0  0  0  0  0  0  0  0
    0.9055  -15.6475   -0.6791 H   0  0  0  0  0  0  0  0  0  0  0  0
    0.4746  -14.6384    0.7216 H   0  0  0  0  0  0  0  0  0  0  0  0
    2.5987   -2.7193    2.1519 H   0  0  0  0  0  0  0  0  0  0  0  0
    3.1736   -2.1413    1.0642 H   0  0  0  0  0  0  0  0  0  0  0  0
   -2.0858   -2.3292    2.6492 H   0  0  0  0  0  0  0  0  0  0  0  0
   -3.2225   -3.5425    2.3197 H   0  0  0  0  0  0  0  0  0  0  0  0
    1.2957    1.2823    3.9893 H   0  0  0  0  0  0  0  0  0  0  0  0
    1.6278   -4.2721    2.0047 H   0  0  0  0  0  0  0  0  0  0  0  0
    0.1126   -3.8666    2.5393 H   0  0  0  0  0  0  0  0  0  0  0  0
    0.7547   -3.5199    0.8909 H   0  0  0  0  0  0  0  0  0  0  0  0
    2.9746   -1.6057   -1.0920 H   0  0  0  0  0  0  0  0  0  0  0  0
    1.1651   -1.1951    3.3800 H   0  0  0  0  0  0  0  0  0  0  0  0
    2.8543    0.1239    2.2962 H   0  0  0  0  0  0  0  0  0  0  0  0
    4.1513   -0.6267    1.3606 H   0  0  0  0  0  0  0  0  0  0  0  0
    2.9748    0.1246    0.6065 H   0  0  0  0  0  0  0  0  0  0  0  0
   -1.3123   -4.1597    4.7903 H   0  0  0  0  0  0  0  0  0  0  0  0
   -2.4145   -3.4549    4.3764 H   0  0  0  0  0  0  0  0  0  0  0  0
   -0.9761   -4.7745    3.6709 H   0  0  0  0  0  0  0  0  0  0  0  0
    1.4733   -0.3048    0.3948 H   0  0  0  0  0  0  0  0  0  0  0  0
    0.7279   -0.3195   -1.2072 H   0  0  0  0  0  0  0  0  0  0  0  0
    0.6514   -1.2704    0.0422 H   0  0  0  0  0  0  0  0  0  0  0  0
    4.6644   -1.6841    3.8420 H   0  0  0  0  0  0  0  0  0  0  0  0
    3.6991   -3.0152    3.3383 H   0  0  0  0  0  0  0  0  0  0  0  0
    4.2601   -1.9741    2.3945 H   0  0  0  0  0  0  0  0  0  0  0  0
    0.5390   -0.5643    5.8224 H   0  0  0  0  0  0  0  0  0  0  0  0
    1.4687   -1.8240    5.9382 H   0  0  0  0  0  0  0  0  0  0  0  0
    1.5980    0.0454    5.3753 H   0  0  0  0  0  0  0  0  0  0  0  0
   -0.4288   -1.9959    6.1700 H   0  0  0  0  0  0  0  0  0  0  0  0
   -1.7524   -2.2914    5.4120 H   0  0  0  0  0  0  0  0  0  0  0  0
    2.8550   -3.1922    6.2506 H   0  0  0  0  0  0  0  0  0  0  0  0
    3.8799   -3.4113    4.9497 H   0  0  0  0  0  0  0  0  0  0  0  0
    4.0324    0.1871    6.9892 H   0  0  0  0  0  0  0  0  0  0  0  0
    2.3892    0.3173    6.7004 H   0  0  0  0  0  0  0  0  0  0  0  0
    2.8625   -1.2709    7.2442 H   0  0  0  0  0  0  0  0  0  0  0  0
    2.5210    2.0500    4.6661 H   0  0  0  0  0  0  0  0  0  0  0  0
    4.1946    2.1389    4.9879 H   0  0  0  0  0  0  0  0  0  0  0  0
    3.5457    2.1135    3.3018 H   0  0  0  0  0  0  0  0  0  0  0  0
  1 29  2  0  0  0  0
  2 31  2  0  0  0  0
  3 36  2  0  0  0  0
  4 42  2  0  0  0  0
  5 71  1  0  0  0  0
  6 50  2  0  0  0  0
  7 51  2  0  0  0  0
  8 57  2  0  0  0  0
  9 64  2  0  0  0  0
 10 66  2  0  0  0  0
 11 69  2  0  0  0  0
 12 25  1  0  0  0  0
 12 28  1  0  0  0  0
 12 29  1  0  0  0  0
 13 36  1  0  0  0  0
 13 72  1  0  0  0  0
 14 31  1  0  0  0  0
 14 38  1  0  0  0  0
 14 73  1  0  0  0  0
 15 42  1  0  0  0  0
 15 74  1  0  0  0  0
 16 51  1  0  0  0  0
 16 75  1  0  0  0  0
 17 57  1  0  0  0  0
 17 76  1  0  0  0  0
 18 50  1  0  0  0  0
 18 77  1  0  0  0  0
 19 40  1  0  0  0  0
 19 63  2  0  0  0  0
 20 64  1  0  0  0  0
 20 78  1  0  0  0  0
 21 63  1  0  0  0  0
 21 79  1  0  0  0  0
 21 80  1  0  0  0  0
 22 63  1  0  0  0  0
 22 81  1  0  0  0  0
 22 82  1  0  0  0  0
 23 65  1  0  0  0  0
 23 66  1  0  0  0  0
 23 83  1  0  0  0  0
 24 67  1  0  0  0  0
 24 68  1  0  0  0  0
 24 69  1  0  0  0  0
 25 26  1  0  0  0  0
 25 84  1  6  0  0  0
 25 31  1  0  0  0  0
 26 27  1  0  0  0  0
 26 85  1  0  0  0  0
 26 86  1  0  0  0  0
 27 28  1  0  0  0  0
 27 87  1  0  0  0  0
 27 88  1  0  0  0  0
 28 89  1  0  0  0  0
 28 90  1  0  0  0  0
 29 30  1  0  0  0  0
 30 13  1  0  0  0  0
 30 32  1  0  0  0  0
 30 91  1  6  0  0  0
 32 35  1  0  0  0  0
 32 92  1  0  0  0  0
 32 93  1  0  0  0  0
 33 15  1  0  0  0  0
 33 36  1  0  0  0  0
 33 94  1  6  0  0  0
 34 39  1  0  0  0  0
 34 95  1  1  0  0  0
 34 37  1  0  0  0  0
 34 33  1  0  0  0  0
 35 40  1  0  0  0  0
 35 96  1  0  0  0  0
 35 97  1  0  0  0  0
 37 45  1  0  0  0  0
 37 98  1  0  0  0  0
 37 99  1  0  0  0  0
 38 48  1  0  0  0  0
 38100  1  0  0  0  0
 38101  1  0  0  0  0
 39102  1  0  0  0  0
 39103  1  0  0  0  0
 39104  1  0  0  0  0
 40105  1  0  0  0  0
 40106  1  0  0  0  0
 41 16  1  0  0  0  0
 41 42  1  0  0  0  0
 41 46  1  0  0  0  0
 41107  1  1  0  0  0
 43 50  1  0  0  0  0
 43108  1  1  0  0  0
 43 44  1  0  0  0  0
 43 17  1  0  0  0  0
 44109  1  1  0  0  0
 44 54  1  0  0  0  0
 44 49  1  0  0  0  0
 45110  1  0  0  0  0
 45111  1  0  0  0  0
 45112  1  0  0  0  0
 46 52  1  0  0  0  0
 46113  1  0  0  0  0
 46114  1  0  0  0  0
 47 18  1  0  0  0  0
 47 51  1  0  0  0  0
 47115  1  6  0  0  0
 48116  1  0  0  0  0
 48117  1  0  0  0  0
 48118  1  0  0  0  0
 49 58  1  0  0  0  0
 49119  1  0  0  0  0
 49120  1  0  0  0  0
 52 59  1  0  0  0  0
 52121  1  0  0  0  0
 52122  1  0  0  0  0
 53 20  1  0  0  0  0
 53 56  1  0  0  0  0
 53 57  1  0  0  0  0
 53123  1  1  0  0  0
 54124  1  0  0  0  0
 54125  1  0  0  0  0
 54126  1  0  0  0  0
 55 60  1  0  0  0  0
 55127  1  6  0  0  0
 55 47  1  0  0  0  0
 55  5  1  0  0  0  0
 56 61  1  0  0  0  0
 56 62  1  0  0  0  0
 56128  1  0  0  0  0
 58129  1  0  0  0  0
 58130  1  0  0  0  0
 58131  1  0  0  0  0
 59132  1  0  0  0  0
 59133  1  0  0  0  0
 59134  1  0  0  0  0
 60135  1  0  0  0  0
 60136  1  0  0  0  0
 60137  1  0  0  0  0
 61138  1  0  0  0  0
 61139  1  0  0  0  0
 61140  1  0  0  0  0
 62141  1  0  0  0  0
 62142  1  0  0  0  0
 62143  1  0  0  0  0
 64 65  1  0  0  0  0
 65144  1  0  0  0  0
 65145  1  0  0  0  0
 66 67  1  0  0  0  0
 67146  1  0  0  0  0
 67147  1  0  0  0  0
 68148  1  0  0  0  0
 68149  1  0  0  0  0
 68150  1  0  0  0  0
 69 70  1  0  0  0  0
 70151  1  0  0  0  0
 70152  1  0  0  0  0
 70153  1  0  0  0  0
M  END
>  <DRUGBANK_ID>
DB05434

>  <COMMON_NAME>
ABT-510

>  <CAS_NUMBER>
251579-55-2

>  <UNII>
CRR8E37XOB

$$$$
