
 OpenBabel10282417213D

 56 60  0  0  1  0  0  0  0  0999 V2000
    2.3516    0.6080    1.6943 C   0  0  0  0  0  0  0  0  0  0  0  0
   -5.2935    5.3958   -0.5700 C   0  0  0  0  0  0  0  0  0  0  0  0
   -5.0308    4.2999   -1.3893 C   0  0  0  0  0  0  0  0  0  0  0  0
   -6.1854    5.2686    0.4946 C   0  0  0  0  0  0  0  0  0  0  0  0
   -5.7136    3.0916   -1.1858 C   0  0  0  0  0  0  0  0  0  0  0  0
   -6.7363    4.0201    0.8033 C   0  0  0  0  0  0  0  0  0  0  0  0
   -2.0259   -2.1916    0.1288 C   0  0  0  0  0  0  0  0  0  0  0  0
   -4.0052    1.5277    0.3844 C   0  0  0  0  0  0  0  0  0  0  0  0
   -0.5879   -2.1282   -0.3931 C   0  0  0  0  0  0  0  0  0  0  0  0
   -2.7357    1.5185   -0.1172 C   0  0  0  0  0  0  0  0  0  0  0  0
    2.5482   -1.8963    0.0200 C   0  0  0  0  0  0  0  0  0  0  0  0
    3.9410   -1.2438   -0.1235 C   0  0  0  0  0  0  0  0  0  0  0  0
    0.1041    1.6985   -0.0886 C   0  0  0  0  0  0  0  0  0  0  0  0
    1.5937    1.7264   -0.4167 C   0  0  0  0  0  0  0  0  0  0  0  0
   -4.1492   -0.8464    0.2840 C   0  0  0  0  0  0  0  0  0  0  0  0
   -6.5187    2.9232   -0.0442 C   0  0  0  0  0  0  0  0  0  0  0  0
   -2.7593   -0.8794    0.0383 C   0  0  0  0  0  0  0  0  0  0  0  0
   -4.7738    0.3878    0.3997 C   0  0  0  0  0  0  0  0  0  0  0  0
   -2.0574    0.3226   -0.2046 C   0  0  0  0  0  0  0  0  0  0  0  0
   -0.5853    0.3714   -0.5220 C   0  0  2  0  0  0  0  0  0  0  0  0
    0.1261   -0.8583    0.0867 C   0  0  2  0  0  0  0  0  0  0  0  0
    1.5829   -0.7811   -0.3593 C   0  0  1  0  0  0  0  0  0  0  0  0
    3.6872    0.2412   -0.4441 C   0  0  1  0  0  0  0  0  0  0  0  0
   -7.0558    1.5940    0.3927 C   0  0  0  0  0  0  0  0  0  0  0  0
    2.2937    0.4939    0.1493 C   0  0  2  0  0  0  0  0  0  0  0  0
    4.6941    1.1033    0.0440 O   0  0  0  0  0  0  0  0  0  0  0  0
   -8.2302    1.5098    0.7109 O   0  0  0  0  0  0  0  0  0  0  0  0
   -6.1842    0.4816    0.5223 O   0  0  0  0  0  0  0  0  0  0  0  0
   -0.5135    0.3209   -1.6187 H   0  0  0  0  0  0  0  0  0  0  0  0
    0.0597   -0.8277    1.1828 H   0  0  0  0  0  0  0  0  0  0  0  0
    1.5658   -0.7577   -1.4622 H   0  0  0  0  0  0  0  0  0  0  0  0
    3.6606    0.3713   -1.5340 H   0  0  0  0  0  0  0  0  0  0  0  0
    2.8853    1.5159    1.9958 H   0  0  0  0  0  0  0  0  0  0  0  0
    1.3602    0.6583    2.1522 H   0  0  0  0  0  0  0  0  0  0  0  0
    2.8664   -0.2391    2.1565 H   0  0  0  0  0  0  0  0  0  0  0  0
   -4.7910    6.3443   -0.7501 H   0  0  0  0  0  0  0  0  0  0  0  0
   -4.2612    4.3704   -2.1564 H   0  0  0  0  0  0  0  0  0  0  0  0
   -6.4301    6.1363    1.1025 H   0  0  0  0  0  0  0  0  0  0  0  0
   -5.4626    2.2393   -1.8151 H   0  0  0  0  0  0  0  0  0  0  0  0
   -7.2992    3.8984    1.7271 H   0  0  0  0  0  0  0  0  0  0  0  0
   -2.5751   -2.9592   -0.4269 H   0  0  0  0  0  0  0  0  0  0  0  0
   -2.0097   -2.4888    1.1861 H   0  0  0  0  0  0  0  0  0  0  0  0
   -4.3698    2.4889    0.6920 H   0  0  0  0  0  0  0  0  0  0  0  0
   -0.6064   -2.1423   -1.4900 H   0  0  0  0  0  0  0  0  0  0  0  0
   -0.0526   -3.0243   -0.0643 H   0  0  0  0  0  0  0  0  0  0  0  0
   -2.2948    2.4785   -0.3530 H   0  0  0  0  0  0  0  0  0  0  0  0
    2.4398   -2.7645   -0.6373 H   0  0  0  0  0  0  0  0  0  0  0  0
    2.3832   -2.2357    1.0486 H   0  0  0  0  0  0  0  0  0  0  0  0
    4.5144   -1.7129   -0.9291 H   0  0  0  0  0  0  0  0  0  0  0  0
    4.5205   -1.3658    0.7976 H   0  0  0  0  0  0  0  0  0  0  0  0
   -0.0589    1.8703    0.9839 H   0  0  0  0  0  0  0  0  0  0  0  0
   -0.3338    2.5612   -0.6024 H   0  0  0  0  0  0  0  0  0  0  0  0
    2.0386    2.6493   -0.0259 H   0  0  0  0  0  0  0  0  0  0  0  0
    1.7025    1.7650   -1.5079 H   0  0  0  0  0  0  0  0  0  0  0  0
   -4.7087   -1.7669    0.4351 H   0  0  0  0  0  0  0  0  0  0  0  0
    4.7775    0.9846    1.0038 H   0  0  0  0  0  0  0  0  0  0  0  0
  1 33  1  0  0  0  0
  1 34  1  0  0  0  0
  1 35  1  0  0  0  0
  2 36  1  0  0  0  0
  3  2  2  0  0  0  0
  3 37  1  0  0  0  0
  4  2  1  0  0  0  0
  4 38  1  0  0  0  0
  5  3  1  0  0  0  0
  5 39  1  0  0  0  0
  6  4  2  0  0  0  0
  6 40  1  0  0  0  0
  7 41  1  0  0  0  0
  7 42  1  0  0  0  0
  8 43  1  0  0  0  0
  9  7  1  0  0  0  0
  9 44  1  0  0  0  0
  9 45  1  0  0  0  0
 10  8  1  0  0  0  0
 10 46  1  0  0  0  0
 11 47  1  0  0  0  0
 11 48  1  0  0  0  0
 12 11  1  0  0  0  0
 12 49  1  0  0  0  0
 12 50  1  0  0  0  0
 13 51  1  0  0  0  0
 13 52  1  0  0  0  0
 14 13  1  0  0  0  0
 14 53  1  0  0  0  0
 14 54  1  0  0  0  0
 15 55  1  0  0  0  0
 16  5  2  0  0  0  0
 16  6  1  0  0  0  0
 17  7  1  0  0  0  0
 17 15  2  0  0  0  0
 18  8  2  0  0  0  0
 18 15  1  0  0  0  0
 19 10  2  0  0  0  0
 19 17  1  0  0  0  0
 20 13  1  0  0  0  0
 20 19  1  0  0  0  0
 20 29  1  6  0  0  0
 21  9  1  0  0  0  0
 21 20  1  0  0  0  0
 21 30  1  1  0  0  0
 22 11  1  0  0  0  0
 22 21  1  0  0  0  0
 22 31  1  6  0  0  0
 23 12  1  0  0  0  0
 23 26  1  0  0  0  0
 23 32  1  6  0  0  0
 24 16  1  0  0  0  0
 25  1  1  1  0  0  0
 25 14  1  0  0  0  0
 25 22  1  0  0  0  0
 25 23  1  0  0  0  0
 26 56  1  0  0  0  0
 27 24  2  0  0  0  0
 28 18  1  0  0  0  0
 28 24  1  0  0  0  0
M  END
>  <DRUGBANK_ID>
DB13953

>  <SECONDARY_ACCESSION_NUMBERS>
DBSALT000066

>  <COMMON_NAME>
Estradiol benzoate

>  <CAS_NUMBER>
50-50-0

>  <UNII>
1S4CJB5ZGN

>  <SYNONYMS>
benzoato de estradiol; Estradiol benzoate

$$$$
