
 OpenBabel10282417183D

 53 55  0  0  0  0  0  0  0  0999 V2000
   -0.0345    0.7331   -0.0243 C   0  0  0  0  0  0  0  0  0  0  0  0
   -1.2236    0.0101   -0.0617 C   0  0  0  0  0  0  0  0  0  0  0  0
   -1.2144   -1.3856   -0.1133 C   0  0  0  0  0  0  0  0  0  0  0  0
    0.0017   -2.0927   -0.0884 C   0  0  0  0  0  0  0  0  0  0  0  0
    1.1906   -1.3393   -0.0508 C   0  0  0  0  0  0  0  0  0  0  0  0
    1.1711    0.0508   -0.0286 C   0  0  0  0  0  0  0  0  0  0  0  0
    0.0144   -3.6287    0.0083 C   0  0  3  0  0  0  0  0  0  0  0  0
   -0.7416   -4.2064   -1.0844 O   0  0  0  0  0  0  0  0  0  0  0  0
   -1.5804   -5.2370   -0.5824 N   0  0  0  0  0  0  0  0  0  0  0  0
   -1.6153   -5.1030    0.6989 C   0  0  0  0  0  0  0  0  0  0  0  0
   -0.7565   -4.0273    1.2650 C   0  0  0  0  0  0  0  0  0  0  0  0
   -4.5274   -6.9520    3.3073 C   0  0  0  0  0  0  0  0  0  0  0  0
   -5.6269   -7.5423    4.2139 C   0  0  0  0  0  0  0  0  0  0  0  0
   -6.6474   -6.8093    4.7868 N   0  0  0  0  0  0  0  0  0  0  0  0
   -7.0647   -5.4286    4.7309 C   0  0  0  0  0  0  0  0  0  0  0  0
   -8.3367   -5.0836    3.9752 C   0  0  0  0  0  0  0  0  0  0  0  0
   -8.5050   -5.5168    2.6869 N   0  0  0  0  0  0  0  0  0  0  0  0
   -7.7081   -6.4586    1.8886 C   0  0  0  0  0  0  0  0  0  0  0  0
   -8.3424   -7.8310    1.6956 C   0  0  0  0  0  0  0  0  0  0  0  0
   -9.4639   -7.7209    0.9494 F   0  0  0  0  0  0  0  0  0  0  0  0
   -2.5775   -5.7974    1.5542 C   0  0  0  0  0  0  0  0  0  0  0  0
   -3.4973   -4.9978    2.1796 C   0  0  0  0  0  0  0  0  0  0  0  0
   -4.4020   -5.5726    3.0570 C   0  0  0  0  0  0  0  0  0  0  0  0
   -3.6097   -7.7724    2.6055 C   0  0  0  0  0  0  0  0  0  0  0  0
   -2.6339   -7.1738    1.7440 C   0  0  0  0  0  0  0  0  0  0  0  0
   -5.7153   -8.7367    4.4288 O   0  0  0  0  0  0  0  0  0  0  0  0
   -9.1037   -4.2251    4.4125 O   0  0  0  0  0  0  0  0  0  0  0  0
   -7.4983   -8.6686    1.0560 F   0  0  0  0  0  0  0  0  0  0  0  0
   -8.6781   -8.3907    2.8765 F   0  0  0  0  0  0  0  0  0  0  0  0
    1.4398   -4.2092   -0.0775 C   0  0  0  0  0  0  0  0  0  0  0  0
    2.0683   -3.7894   -1.2074 F   0  0  0  0  0  0  0  0  0  0  0  0
    2.1972   -3.7958    0.9728 F   0  0  0  0  0  0  0  0  0  0  0  0
    1.4858   -5.5562   -0.0742 F   0  0  0  0  0  0  0  0  0  0  0  0
   -2.7286    0.8396   -0.0035 Cl  0  0  0  0  0  0  0  0  0  0  0  0
    2.6653    0.9008    0.0190 Cl  0  0  0  0  0  0  0  0  0  0  0  0
   -3.5365   -9.2758    2.6989 C   0  0  0  0  0  0  0  0  0  0  0  0
   -0.0432    1.8169    0.0109 H   0  0  0  0  0  0  0  0  0  0  0  0
   -2.1633   -1.9223   -0.1301 H   0  0  0  0  0  0  0  0  0  0  0  0
    2.1721   -1.8073   -0.0221 H   0  0  0  0  0  0  0  0  0  0  0  0
   -0.1408   -4.3554    2.1036 H   0  0  0  0  0  0  0  0  0  0  0  0
   -1.4154   -3.2332    1.6392 H   0  0  0  0  0  0  0  0  0  0  0  0
   -7.2753   -7.4242    5.3021 H   0  0  0  0  0  0  0  0  0  0  0  0
   -7.0205   -5.0080    5.7383 H   0  0  0  0  0  0  0  0  0  0  0  0
   -6.3893   -4.8321    4.1785 H   0  0  0  0  0  0  0  0  0  0  0  0
   -9.3639   -5.1805    2.2672 H   0  0  0  0  0  0  0  0  0  0  0  0
   -7.4992   -5.9908    0.9211 H   0  0  0  0  0  0  0  0  0  0  0  0
   -6.7446   -6.5912    2.3408 H   0  0  0  0  0  0  0  0  0  0  0  0
   -3.5518   -3.9222    2.0188 H   0  0  0  0  0  0  0  0  0  0  0  0
   -4.9601   -4.7843    3.4994 H   0  0  0  0  0  0  0  0  0  0  0  0
   -1.9112   -7.8009    1.2267 H   0  0  0  0  0  0  0  0  0  0  0  0
   -3.6248   -9.7144    1.6995 H   0  0  0  0  0  0  0  0  0  0  0  0
   -2.5769   -9.5600    3.1411 H   0  0  0  0  0  0  0  0  0  0  0  0
   -4.3030   -9.7571    3.2958 H   0  0  0  0  0  0  0  0  0  0  0  0
  1  2  2  0  0  0  0
  1 37  1  0  0  0  0
  2  3  1  0  0  0  0
  2 34  1  0  0  0  0
  3  4  2  0  0  0  0
  3 38  1  0  0  0  0
  4  5  1  0  0  0  0
  5  6  2  0  0  0  0
  5 39  1  0  0  0  0
  6  1  1  0  0  0  0
  6 35  1  0  0  0  0
  7  8  1  0  0  0  0
  7  4  1  0  0  0  0
  7 30  1  0  0  0  0
  8  9  1  0  0  0  0
  9 10  2  0  0  0  0
 10 11  1  0  0  0  0
 11  7  1  0  0  0  0
 11 40  1  0  0  0  0
 11 41  1  0  0  0  0
 12 24  1  0  0  0  0
 12 13  1  0  0  0  0
 13 26  2  0  0  0  0
 13 14  1  0  0  0  0
 14 15  1  0  0  0  0
 14 42  1  0  0  0  0
 15 16  1  0  0  0  0
 15 43  1  0  0  0  0
 15 44  1  0  0  0  0
 16 27  2  0  0  0  0
 16 17  1  0  0  0  0
 17 18  1  0  0  0  0
 17 45  1  0  0  0  0
 18 19  1  0  0  0  0
 18 46  1  0  0  0  0
 18 47  1  0  0  0  0
 19 20  1  0  0  0  0
 19 28  1  0  0  0  0
 19 29  1  0  0  0  0
 21 22  2  0  0  0  0
 21 10  1  0  0  0  0
 22 23  1  0  0  0  0
 22 48  1  0  0  0  0
 23 12  2  0  0  0  0
 23 49  1  0  0  0  0
 24 25  2  0  0  0  0
 24 36  1  0  0  0  0
 25 21  1  0  0  0  0
 25 50  1  0  0  0  0
 30 31  1  0  0  0  0
 30 32  1  0  0  0  0
 30 33  1  0  0  0  0
 36 51  1  0  0  0  0
 36 52  1  0  0  0  0
 36 53  1  0  0  0  0
M  END
>  <DRUGBANK_ID>
DB11414

>  <COMMON_NAME>
Fluralaner

>  <CAS_NUMBER>
864731-61-3

>  <UNII>
WSH8393RM5

>  <SYNONYMS>
Fluralaner

$$$$
