
 OpenBabel10282417243D

 93 97  0  0  1  0  0  0  0  0999 V2000
    0.8887    0.8972   -3.4931 H   0  0  0  0  0  0  0  0  0  0  0  0
    0.5459    0.8279   -2.4525 C   0  0  2  0  0  0  0  0  0  0  0  0
    0.8802   -0.5055   -2.0185 O   0  0  0  0  0  0  0  0  0  0  0  0
    0.3201   -1.0351   -0.7779 C   0  0  2  0  0  0  0  0  0  0  0  0
    0.3963   -0.1956    0.4648 C   0  0  1  0  0  0  0  0  0  0  0  0
    1.4692    0.0773    0.4113 H   0  0  0  0  0  0  0  0  0  0  0  0
   -0.5304    0.9391    0.1134 O   0  0  0  0  0  0  0  0  0  0  0  0
   -1.4911    1.3568    1.1187 C   0  0  2  0  0  0  0  0  0  0  0  0
   -1.4919    0.1816    2.0592 C   0  0  2  0  0  0  0  0  0  0  0  0
   -1.6687    0.6744    3.3866 O   0  0  0  0  0  0  0  0  0  0  0  0
   -0.0717   -0.4743    1.8907 C   0  0  2  0  0  0  0  0  0  0  0  0
    0.8152    0.1676    2.8442 O   0  0  0  0  0  0  0  0  0  0  0  0
   -2.6995    1.9972    0.4829 N   0  0  0  0  0  0  0  0  0  0  0  0
   -3.3105    1.3011   -0.5184 C   0  0  0  0  0  0  0  0  0  0  0  0
   -4.1565    1.8275   -1.4153 C   0  0  0  0  0  0  0  0  0  0  0  0
   -4.5382    3.2207   -1.2784 C   0  0  0  0  0  0  0  0  0  0  0  0
   -5.3220    3.7530   -2.0929 O   0  0  0  0  0  0  0  0  0  0  0  0
   -3.9685    3.8774   -0.2414 N   0  0  0  0  0  0  0  0  0  0  0  0
   -2.9559    3.3956    0.5742 C   0  0  0  0  0  0  0  0  0  0  0  0
   -2.3047    4.2113    1.2181 O   0  0  0  0  0  0  0  0  0  0  0  0
    0.5780   -2.5517   -0.7080 C   0  0  2  0  0  0  0  0  0  0  0  0
    1.3693   -2.8217   -1.4229 H   0  0  0  0  0  0  0  0  0  0  0  0
   -0.7427   -3.1575   -1.0874 N   0  0  0  0  0  0  0  0  0  0  0  0
   -1.2559   -2.6048   -2.3703 C   0  0  0  0  0  0  0  0  0  0  0  0
   -1.6871   -2.8359   -0.0174 C   0  0  0  0  0  0  0  0  0  0  0  0
   -1.5373   -3.5736    1.2449 C   0  0  0  0  0  0  0  0  0  0  0  0
   -0.6577   -4.5192    1.5732 C   0  0  0  0  0  0  0  0  0  0  0  0
    0.5959   -4.4385    0.9653 N   0  0  0  0  0  0  0  0  0  0  0  0
    1.3565   -5.5889    0.5512 C   0  0  0  0  0  0  0  0  0  0  0  0
    1.1062   -3.1704    0.6301 C   0  0  0  0  0  0  0  0  0  0  0  0
    1.9166   -2.5865    1.3516 O   0  0  0  0  0  0  0  0  0  0  0  0
   -0.9692   -5.4549    2.7480 C   0  0  0  0  0  0  0  0  0  0  0  0
   -0.0634   -6.1424    3.2299 O   0  0  0  0  0  0  0  0  0  0  0  0
   -2.2237   -5.5093    3.3668 N   0  0  0  0  0  0  0  0  0  0  0  0
   -3.4657   -4.9081    3.0395 C   0  0  0  0  0  0  0  0  0  0  0  0
   -3.9277   -4.8705    1.7287 C   0  0  0  0  0  0  0  0  0  0  0  0
   -4.8520   -3.8914    1.3507 C   0  0  0  0  0  0  0  0  0  0  0  0
   -5.4567   -3.0367    2.2825 C   0  0  0  0  0  0  0  0  0  0  0  0
   -6.3465   -1.8775    1.8617 C   0  0  0  0  0  0  0  0  0  0  0  0
   -5.6311   -0.7386    1.1185 C   0  0  0  0  0  0  0  0  0  0  0  0
   -5.0232   -1.2189   -0.1842 C   0  0  0  0  0  0  0  0  0  0  0  0
   -5.9613   -1.8375   -1.1841 C   0  0  0  0  0  0  0  0  0  0  0  0
   -5.1958   -3.2892    3.6307 C   0  0  0  0  0  0  0  0  0  0  0  0
   -4.1736   -4.1849    4.0092 C   0  0  0  0  0  0  0  0  0  0  0  0
    1.2874    1.8019   -1.6807 O   0  0  0  0  0  0  0  0  0  0  0  0
    0.4693    2.9457   -1.3306 C   0  0  2  0  0  0  0  0  0  0  0  0
    0.5323    3.3272    0.2329 C   0  0  0  0  0  0  0  0  0  0  0  0
    1.1948    2.3972    1.1539 N   0  0  0  0  0  0  0  0  0  0  0  0
   -0.8896    2.6903   -2.0656 C   0  0  1  0  0  0  0  0  0  0  0  0
   -0.9820    3.4727   -3.2637 O   0  0  0  0  0  0  0  0  0  0  0  0
   -0.9372    1.2154   -2.4914 C   0  0  1  0  0  0  0  0  0  0  0  0
   -1.6536    0.9315   -3.7031 O   0  0  0  0  0  0  0  0  0  0  0  0
   -0.7236   -0.8917   -0.9511 H   0  0  0  0  0  0  0  0  0  0  0  0
   -1.1285    2.1751    1.7230 H   0  0  0  0  0  0  0  0  0  0  0  0
   -2.2984   -0.4965    1.7958 H   0  0  0  0  0  0  0  0  0  0  0  0
   -0.8627    1.2037    3.5830 H   0  0  0  0  0  0  0  0  0  0  0  0
   -0.0961   -1.5231    2.1591 H   0  0  0  0  0  0  0  0  0  0  0  0
    1.5743    0.6068    2.4032 H   0  0  0  0  0  0  0  0  0  0  0  0
   -2.9543    0.2866   -0.6127 H   0  0  0  0  0  0  0  0  0  0  0  0
   -4.5267    1.2716   -2.2686 H   0  0  0  0  0  0  0  0  0  0  0  0
   -4.1234    4.8768   -0.2142 H   0  0  0  0  0  0  0  0  0  0  0  0
   -1.5618   -1.5517   -2.3552 H   0  0  0  0  0  0  0  0  0  0  0  0
   -0.5098   -2.6944   -3.1630 H   0  0  0  0  0  0  0  0  0  0  0  0
   -2.1805   -3.1030   -2.6597 H   0  0  0  0  0  0  0  0  0  0  0  0
   -1.6786   -1.8039    0.3177 H   0  0  0  0  0  0  0  0  0  0  0  0
   -2.6889   -2.9860   -0.4025 H   0  0  0  0  0  0  0  0  0  0  0  0
   -2.2984   -3.2823    1.9417 H   0  0  0  0  0  0  0  0  0  0  0  0
    1.5055   -5.5077   -0.5340 H   0  0  0  0  0  0  0  0  0  0  0  0
    2.3443   -5.5721    1.0193 H   0  0  0  0  0  0  0  0  0  0  0  0
    0.8343   -6.5236    0.7599 H   0  0  0  0  0  0  0  0  0  0  0  0
   -2.1631   -5.9299    4.2870 H   0  0  0  0  0  0  0  0  0  0  0  0
   -3.4292   -5.4379    0.9450 H   0  0  0  0  0  0  0  0  0  0  0  0
   -4.9826   -3.7590    0.2830 H   0  0  0  0  0  0  0  0  0  0  0  0
   -7.1524   -2.2679    1.2337 H   0  0  0  0  0  0  0  0  0  0  0  0
   -6.8394   -1.4389    2.7366 H   0  0  0  0  0  0  0  0  0  0  0  0
   -6.3323    0.0766    0.8950 H   0  0  0  0  0  0  0  0  0  0  0  0
   -4.8493   -0.2940    1.7532 H   0  0  0  0  0  0  0  0  0  0  0  0
   -4.6444   -0.4049   -0.7496 H   0  0  0  0  0  0  0  0  0  0  0  0
   -4.1512   -1.8176    0.0445 H   0  0  0  0  0  0  0  0  0  0  0  0
   -6.6744   -1.0778   -1.5150 H   0  0  0  0  0  0  0  0  0  0  0  0
   -5.3868   -2.1746   -2.0528 H   0  0  0  0  0  0  0  0  0  0  0  0
   -6.5083   -2.6857   -0.7827 H   0  0  0  0  0  0  0  0  0  0  0  0
   -5.7494   -2.7473    4.3955 H   0  0  0  0  0  0  0  0  0  0  0  0
   -3.8744   -4.2023    5.0540 H   0  0  0  0  0  0  0  0  0  0  0  0
    0.9160    3.8320   -1.7720 H   0  0  0  0  0  0  0  0  0  0  0  0
    0.9698    4.2760    0.5089 H   0  0  0  0  0  0  0  0  0  0  0  0
   -0.4926    3.4438    0.5011 H   0  0  0  0  0  0  0  0  0  0  0  0
    0.6786    2.2733    2.0343 H   0  0  0  0  0  0  0  0  0  0  0  0
    0.9037    1.5977    0.6282 H   0  0  0  0  0  0  0  0  0  0  0  0
   -1.7444    3.0090   -1.4982 H   0  0  0  0  0  0  0  0  0  0  0  0
   -0.1588    3.3303   -3.7566 H   0  0  0  0  0  0  0  0  0  0  0  0
   -1.4789    0.5852   -1.8166 H   0  0  0  0  0  0  0  0  0  0  0  0
   -1.4942    1.6533   -4.3349 H   0  0  0  0  0  0  0  0  0  0  0  0
  2 45  1  0  0  0  0
  2  3  1  0  0  0  0
  2  1  1  6  0  0  0
  4 21  1  0  0  0  0
  4 53  1  6  0  0  0
  4  5  1  0  0  0  0
  4  3  1  0  0  0  0
  5  6  1  1  0  0  0
  5  7  1  0  0  0  0
  5 11  1  0  0  0  0
  8  7  1  0  0  0  0
  8 54  1  1  0  0  0
  8 13  1  0  0  0  0
  9  8  1  0  0  0  0
  9 10  1  0  0  0  0
  9 55  1  6  0  0  0
 10 56  1  0  0  0  0
 11  9  1  0  0  0  0
 11 12  1  0  0  0  0
 11 57  1  1  0  0  0
 12 58  1  0  0  0  0
 13 14  1  0  0  0  0
 13 19  1  0  0  0  0
 14 15  2  0  0  0  0
 14 59  1  0  0  0  0
 15 16  1  0  0  0  0
 15 60  1  0  0  0  0
 16 17  2  0  0  0  0
 16 18  1  0  0  0  0
 18 19  1  0  0  0  0
 18 61  1  0  0  0  0
 19 20  2  0  0  0  0
 21 22  1  6  0  0  0
 21 23  1  0  0  0  0
 21 30  1  0  0  0  0
 23 24  1  0  0  0  0
 23 25  1  0  0  0  0
 24 62  1  0  0  0  0
 24 63  1  0  0  0  0
 24 64  1  0  0  0  0
 25 26  1  0  0  0  0
 25 65  1  0  0  0  0
 25 66  1  0  0  0  0
 26 27  2  0  0  0  0
 26 67  1  0  0  0  0
 27 28  1  0  0  0  0
 27 32  1  0  0  0  0
 28 29  1  0  0  0  0
 28 30  1  0  0  0  0
 29 68  1  0  0  0  0
 29 69  1  0  0  0  0
 29 70  1  0  0  0  0
 30 31  2  0  0  0  0
 32 33  2  0  0  0  0
 32 34  1  0  0  0  0
 34 35  1  0  0  0  0
 34 71  1  0  0  0  0
 35 36  2  0  0  0  0
 35 44  1  0  0  0  0
 36 37  1  0  0  0  0
 36 72  1  0  0  0  0
 37 38  2  0  0  0  0
 37 73  1  0  0  0  0
 38 39  1  0  0  0  0
 38 43  1  0  0  0  0
 39 40  1  0  0  0  0
 39 74  1  0  0  0  0
 39 75  1  0  0  0  0
 40 41  1  0  0  0  0
 40 76  1  0  0  0  0
 40 77  1  0  0  0  0
 41 42  1  0  0  0  0
 41 78  1  0  0  0  0
 41 79  1  0  0  0  0
 42 80  1  0  0  0  0
 42 81  1  0  0  0  0
 42 82  1  0  0  0  0
 43 44  2  0  0  0  0
 43 83  1  0  0  0  0
 44 84  1  0  0  0  0
 46 45  1  0  0  0  0
 46 85  1  6  0  0  0
 46 47  1  0  0  0  0
 47 48  1  0  0  0  0
 47 86  1  0  0  0  0
 47 87  1  0  0  0  0
 48 88  1  0  0  0  0
 48 89  1  0  0  0  0
 49 46  1  0  0  0  0
 49 50  1  0  0  0  0
 49 51  1  0  0  0  0
 49 90  1  1  0  0  0
 50 91  1  0  0  0  0
 51  2  1  0  0  0  0
 51 52  1  0  0  0  0
 51 92  1  1  0  0  0
 52 93  1  0  0  0  0
M  END
>  <DRUGBANK_ID>
DB18077

>  <COMMON_NAME>
CPZEN-45

>  <CAS_NUMBER>
737759-36-3

>  <UNII>
LLP2Z9Z2EK

>  <SYNONYMS>
5-{[(5-amino-3,3-dihydroxyoxolan-2-yl)oxy][5-(2,4-dioxo-1,2,3,4-tetrahydropyrimidin-1-yl)-3,4-dihydroxyoxolan-2-yl]methyl}-N-(4-butylphenyl)-4,7-dimethyl-6-oxocyclohept-1-ene-1-carboxamide; Uridine, 5'-o-(5-amino-5-deoxy-.beta.-d-ribofuranosyl)-5'-c-((2s)-5-(((4-butylphenyl)amino)carbonyl)-2,3,4,7-tetrahydro-1,4-dimethyl-3-oxo-1h-1,4-diazepin-2-yl)-, (5's)-

$$$$
