
 OpenBabel10282417233D

 55 57  0  0  0  0  0  0  0  0999 V2000
    6.1718    1.2764   -0.7997 C   0  0  0  0  0  0  0  0  0  0  0  0
    6.1027   -0.1450   -0.4201 C   0  0  0  0  0  0  0  0  0  0  0  0
    5.0166    2.1847   -0.8908 C   0  0  0  0  0  0  0  0  0  0  0  0
    7.4167    1.8204   -1.0683 C   0  0  0  0  0  0  0  0  0  0  0  0
    5.0760   -1.0249   -0.1031 O   0  0  0  0  0  0  0  0  0  0  0  0
    7.2901   -0.8876   -0.3175 C   0  0  0  0  0  0  0  0  0  0  0  0
    4.6833    3.6429   -1.0880 C   0  0  0  0  0  0  0  0  0  0  0  0
    3.9920    1.5690   -0.5867 O   0  0  0  0  0  0  0  0  0  0  0  0
    8.5531    1.0394   -0.9890 C   0  0  0  0  0  0  0  0  0  0  0  0
    7.7276    3.0931   -1.4246 O   0  0  0  0  0  0  0  0  0  0  0  0
    3.7725   -0.6011    0.2830 C   0  0  2  0  0  0  0  0  0  0  0  0
    8.4939   -0.2883   -0.6123 C   0  0  0  0  0  0  0  0  0  0  0  0
    3.6107    3.8753   -2.2246 C   0  0  0  0  0  0  0  0  0  0  0  0
    3.0469   -0.3686   -0.9253 O   0  0  0  0  0  0  0  0  0  0  0  0
    3.9459    0.3922    1.5046 C   0  0  1  0  0  0  0  0  0  0  0  0
    9.6360   -1.0198   -0.5419 O   0  0  0  0  0  0  0  0  0  0  0  0
    2.1262    3.8044   -1.8280 C   0  0  0  0  0  0  0  0  0  0  0  0
    1.7882    0.2562   -0.7246 C   0  0  1  0  0  0  0  0  0  0  0  0
    2.6790    1.0708    1.9161 C   0  0  2  0  0  0  0  0  0  0  0  0
    4.5008   -0.2915    2.6359 O   0  0  0  0  0  0  0  0  0  0  0  0
    1.6477    2.6229   -1.4765 C   0  0  0  0  0  0  0  0  0  0  0  0
    0.9755    4.5309   -1.9060 C   0  0  0  0  0  0  0  0  0  0  0  0
    1.9114    1.5299    0.7102 C   0  0  2  0  0  0  0  0  0  0  0  0
    1.1571    0.5284   -2.5302 C   0  0  0  0  0  0  0  0  0  0  0  0
    3.0110    2.2044    2.7848 O   0  0  0  0  0  0  0  0  0  0  0  0
    0.2527    2.1406   -1.0270 C   0  0  0  0  0  0  0  0  0  0  0  0
   -0.4617    4.0579   -1.5393 C   0  0  0  0  0  0  0  0  0  0  0  0
    0.7748    2.2060    1.3304 O   0  0  0  0  0  0  0  0  0  0  0  0
    1.2270   -0.5767   -3.3863 O   0  0  0  0  0  0  0  0  0  0  0  0
   -0.8422    2.8455   -1.0479 C   0  0  0  0  0  0  0  0  0  0  0  0
   -2.0169    2.2111   -0.8248 O   0  0  0  0  0  0  0  0  0  0  0  0
    7.2703   -1.9321   -0.0004 H   0  0  0  0  0  0  0  0  0  0  0  0
    4.2475    3.9627   -0.1312 H   0  0  0  0  0  0  0  0  0  0  0  0
    5.5158    4.3027   -1.2412 H   0  0  0  0  0  0  0  0  0  0  0  0
    9.4896    1.5211   -1.2361 H   0  0  0  0  0  0  0  0  0  0  0  0
    6.9686    3.6584   -1.5475 H   0  0  0  0  0  0  0  0  0  0  0  0
    3.2162   -1.4494    0.6942 H   0  0  0  0  0  0  0  0  0  0  0  0
    3.8109    4.8466   -2.6657 H   0  0  0  0  0  0  0  0  0  0  0  0
    3.8508    3.1261   -3.0134 H   0  0  0  0  0  0  0  0  0  0  0  0
    4.6943    1.1780    1.3608 H   0  0  0  0  0  0  0  0  0  0  0  0
   10.3673   -0.4357   -0.8054 H   0  0  0  0  0  0  0  0  0  0  0  0
    1.1173   -0.4937   -0.3125 H   0  0  0  0  0  0  0  0  0  0  0  0
    2.0132    0.4500    2.5093 H   0  0  0  0  0  0  0  0  0  0  0  0
    3.8613   -0.9786    2.8669 H   0  0  0  0  0  0  0  0  0  0  0  0
    2.4666    1.9280   -1.6705 H   0  0  0  0  0  0  0  0  0  0  0  0
    1.0658    5.4880   -2.3772 H   0  0  0  0  0  0  0  0  0  0  0  0
    2.4895    2.4365    0.4520 H   0  0  0  0  0  0  0  0  0  0  0  0
    0.1246    0.9305   -2.6966 H   0  0  0  0  0  0  0  0  0  0  0  0
    1.6976    1.3053   -3.1444 H   0  0  0  0  0  0  0  0  0  0  0  0
    3.4235    2.9108    2.2505 H   0  0  0  0  0  0  0  0  0  0  0  0
   -0.0125    1.0976   -0.7687 H   0  0  0  0  0  0  0  0  0  0  0  0
   -1.2743    4.6976   -1.8067 H   0  0  0  0  0  0  0  0  0  0  0  0
   -0.0082    1.6551    1.3905 H   0  0  0  0  0  0  0  0  0  0  0  0
    2.1348   -0.4816   -3.7191 H   0  0  0  0  0  0  0  0  0  0  0  0
   -1.9026    1.2431   -0.6465 H   0  0  0  0  0  0  0  0  0  0  0  0
  1  2  2  0  0  0  0
  1  3  1  0  0  0  0
  1  4  1  0  0  0  0
  2  5  1  0  0  0  0
  2  6  1  0  0  0  0
  3  7  1  0  0  0  0
  3  8  2  0  0  0  0
  4  9  2  0  0  0  0
  4 10  1  0  0  0  0
  6 12  2  0  0  0  0
  6 32  1  0  0  0  0
  7 13  1  0  0  0  0
  7 33  1  0  0  0  0
  7 34  1  0  0  0  0
  9 12  1  0  0  0  0
  9 35  1  0  0  0  0
 10 36  1  0  0  0  0
 11 14  1  0  0  0  0
 11 15  1  0  0  0  0
 11 37  1  1  0  0  0
 11  5  1  0  0  0  0
 12 16  1  0  0  0  0
 13 17  1  0  0  0  0
 13 38  1  0  0  0  0
 13 39  1  0  0  0  0
 14 18  1  0  0  0  0
 15 19  1  0  0  0  0
 15 20  1  0  0  0  0
 15 40  1  6  0  0  0
 16 41  1  0  0  0  0
 17 21  2  0  0  0  0
 17 22  1  0  0  0  0
 18 23  1  0  0  0  0
 18 24  1  0  0  0  0
 18 42  1  1  0  0  0
 19 25  1  0  0  0  0
 19 23  1  0  0  0  0
 19 43  1  1  0  0  0
 20 44  1  0  0  0  0
 21 26  1  0  0  0  0
 21 45  1  0  0  0  0
 22 27  2  0  0  0  0
 22 46  1  0  0  0  0
 23 28  1  0  0  0  0
 23 47  1  6  0  0  0
 24 29  1  0  0  0  0
 24 48  1  0  0  0  0
 24 49  1  0  0  0  0
 25 50  1  0  0  0  0
 26 30  2  0  0  0  0
 26 51  1  0  0  0  0
 27 30  1  0  0  0  0
 27 52  1  0  0  0  0
 28 53  1  0  0  0  0
 29 54  1  0  0  0  0
 30 31  1  0  0  0  0
 31 55  1  0  0  0  0
M  END
>  <DRUGBANK_ID>
DB16771

>  <COMMON_NAME>
Phlorizin

>  <CAS_NUMBER>
60-81-1

>  <UNII>
CU9S17279X

>  <SYNONYMS>
Floridzin; Phloretin 2'-glucoside; Phlorhizin; Phloridzin; Phloridzosid; Phlorizoside; Phlorrhizen; Phlorrhizin

$$$$
