
 OpenBabel10282417193D

 68 74  0  0  1  0  0  0  0  0999 V2000
    1.0205   -0.0596   -0.0569 C   0  0  0  0  0  0  0  0  0  0  0  0
    0.5027    0.2723    1.3535 C   0  0  0  0  0  0  0  0  0  0  0  0
    1.3998    1.2298    2.1404 C   0  0  2  0  0  0  0  0  0  0  0  0
    2.3258    0.5252    3.1779 C   0  0  0  0  0  0  0  0  0  0  0  0
    2.5848   -0.9226    3.2410 C   0  0  0  0  0  0  0  0  0  0  0  0
    3.7023   -1.3512    2.6433 C   0  0  0  0  0  0  0  0  0  0  0  0
    4.5725   -0.3775    2.1733 N   0  0  0  0  0  0  0  0  0  0  0  0
    4.4806    0.9783    2.5007 C   0  0  0  0  0  0  0  0  0  0  0  0
    5.1734    1.8604    2.0142 O   0  0  0  0  0  0  0  0  0  0  0  0
    3.3500    1.3470    3.4629 C   0  0  0  0  0  0  0  0  0  0  0  0
    3.0009    2.8017    3.7004 C   0  0  0  0  0  0  0  0  0  0  0  0
    1.5499    3.0199    3.7928 O   0  0  0  0  0  0  0  0  0  0  0  0
    0.6823    2.3071    2.9900 C   0  0  0  0  0  0  0  0  0  0  0  0
   -0.5098    2.5425    2.9673 O   0  0  0  0  0  0  0  0  0  0  0  0
    5.5870   -0.9815    1.3049 C   0  0  0  0  0  0  0  0  0  0  0  0
    5.3028   -2.4615    1.4228 C   0  0  0  0  0  0  0  0  0  0  0  0
    4.2391   -2.6844    2.2793 C   0  0  0  0  0  0  0  0  0  0  0  0
    3.7830   -3.9110    2.6077 N   0  0  0  0  0  0  0  0  0  0  0  0
    4.4000   -4.9910    2.0262 C   0  0  0  0  0  0  0  0  0  0  0  0
    3.9909   -6.2957    2.3387 C   0  0  0  0  0  0  0  0  0  0  0  0
    4.5026   -7.4376    1.6989 C   0  0  0  0  0  0  0  0  0  0  0  0
    5.3935   -7.2934    0.6518 C   0  0  0  0  0  0  0  0  0  0  0  0
    5.9715   -6.0457    0.4479 C   0  0  0  0  0  0  0  0  0  0  0  0
    5.4645   -4.8687    1.0877 C   0  0  0  0  0  0  0  0  0  0  0  0
    5.9324   -3.5520    0.8068 C   0  0  0  0  0  0  0  0  0  0  0  0
    7.1150   -3.2928   -0.0952 C   0  0  0  0  0  0  0  0  0  0  0  0
    8.1783   -2.6020    0.6264 N   0  0  0  0  0  0  0  0  0  0  0  0
    8.6523   -3.3709    1.7967 C   0  0  0  0  0  0  0  0  0  0  0  0
    9.7075   -2.5583    2.5679 C   0  0  0  0  0  0  0  0  0  0  0  0
   10.8739   -2.1687    1.7482 N   0  0  0  0  0  0  0  0  0  0  0  0
   10.4134   -1.5449    0.4856 C   0  0  0  0  0  0  0  0  0  0  0  0
    9.3224   -2.3411   -0.2617 C   0  0  0  0  0  0  0  0  0  0  0  0
   11.7039   -3.3393    1.4681 C   0  0  0  0  0  0  0  0  0  0  0  0
    5.6976   -8.3131   -0.2216 O   0  0  0  0  0  0  0  0  0  0  0  0
    4.8981   -9.4934    0.0181 C   0  0  0  0  0  0  0  0  0  0  0  0
    4.8491   -9.7315    1.5141 C   0  0  0  0  0  0  0  0  0  0  0  0
    4.0833   -8.6754    2.1288 O   0  0  0  0  0  0  0  0  0  0  0  0
    2.1706    1.9091    1.1059 O   0  0  0  0  0  0  0  0  0  0  0  0
    0.6774    0.6746   -0.7976 H   0  0  0  0  0  0  0  0  0  0  0  0
    0.6496   -1.0409   -0.3559 H   0  0  0  0  0  0  0  0  0  0  0  0
    2.1159   -0.0990   -0.1116 H   0  0  0  0  0  0  0  0  0  0  0  0
   -0.5200    0.6535    1.2700 H   0  0  0  0  0  0  0  0  0  0  0  0
    0.4236   -0.6652    1.9038 H   0  0  0  0  0  0  0  0  0  0  0  0
    1.9118   -1.5969    3.7611 H   0  0  0  0  0  0  0  0  0  0  0  0
    3.3657    3.4934    2.9383 H   0  0  0  0  0  0  0  0  0  0  0  0
    3.4135    3.1311    4.6579 H   0  0  0  0  0  0  0  0  0  0  0  0
    5.4357   -0.6237    0.2811 H   0  0  0  0  0  0  0  0  0  0  0  0
    6.5696   -0.6977    1.6842 H   0  0  0  0  0  0  0  0  0  0  0  0
    3.2097   -6.4313    3.0810 H   0  0  0  0  0  0  0  0  0  0  0  0
    6.8012   -6.0059   -0.2517 H   0  0  0  0  0  0  0  0  0  0  0  0
    6.7609   -2.6824   -0.9359 H   0  0  0  0  0  0  0  0  0  0  0  0
    7.5209   -4.2020   -0.5403 H   0  0  0  0  0  0  0  0  0  0  0  0
    7.8406   -3.5894    2.4989 H   0  0  0  0  0  0  0  0  0  0  0  0
    9.0584   -4.3408    1.4810 H   0  0  0  0  0  0  0  0  0  0  0  0
    9.2305   -1.6521    2.9668 H   0  0  0  0  0  0  0  0  0  0  0  0
   10.0329   -3.1304    3.4455 H   0  0  0  0  0  0  0  0  0  0  0  0
   10.0201   -0.5446    0.7122 H   0  0  0  0  0  0  0  0  0  0  0  0
   11.2660   -1.3859   -0.1852 H   0  0  0  0  0  0  0  0  0  0  0  0
    9.7380   -3.2870   -0.6347 H   0  0  0  0  0  0  0  0  0  0  0  0
    9.0010   -1.7694   -1.1399 H   0  0  0  0  0  0  0  0  0  0  0  0
   11.1881   -4.1040    0.8788 H   0  0  0  0  0  0  0  0  0  0  0  0
   12.6016   -3.0413    0.9194 H   0  0  0  0  0  0  0  0  0  0  0  0
   12.0326   -3.8043    2.4030 H   0  0  0  0  0  0  0  0  0  0  0  0
    5.3745  -10.3354   -0.4966 H   0  0  0  0  0  0  0  0  0  0  0  0
    3.8871   -9.3775   -0.4018 H   0  0  0  0  0  0  0  0  0  0  0  0
    5.8682   -9.7457    1.9259 H   0  0  0  0  0  0  0  0  0  0  0  0
    4.3714  -10.6855    1.7556 H   0  0  0  0  0  0  0  0  0  0  0  0
    2.5508    2.7564    1.3802 H   0  0  0  0  0  0  0  0  0  0  0  0
  1  2  1  0  0  0  0
  1 39  1  0  0  0  0
  1 40  1  0  0  0  0
  1 41  1  0  0  0  0
  2 42  1  0  0  0  0
  2 43  1  0  0  0  0
  3  2  1  0  0  0  0
  3  4  1  0  0  0  0
  3 13  1  0  0  0  0
  3 38  1  6  0  0  0
  4  5  1  0  0  0  0
  4 10  2  0  0  0  0
  5  6  2  0  0  0  0
  5 44  1  0  0  0  0
  6  7  1  0  0  0  0
  6 17  1  0  0  0  0
  7  8  1  0  0  0  0
  7 15  1  0  0  0  0
  8  9  2  0  0  0  0
  8 10  1  0  0  0  0
 10 11  1  0  0  0  0
 11 12  1  0  0  0  0
 11 45  1  0  0  0  0
 11 46  1  0  0  0  0
 12 13  1  0  0  0  0
 13 14  2  0  0  0  0
 15 16  1  0  0  0  0
 15 47  1  0  0  0  0
 15 48  1  0  0  0  0
 16 17  2  0  0  0  0
 16 25  1  0  0  0  0
 17 18  1  0  0  0  0
 18 19  2  0  0  0  0
 19 20  1  0  0  0  0
 19 24  1  0  0  0  0
 20 21  2  0  0  0  0
 20 49  1  0  0  0  0
 21 22  1  0  0  0  0
 21 37  1  0  0  0  0
 22 23  2  0  0  0  0
 22 34  1  0  0  0  0
 23 24  1  0  0  0  0
 23 50  1  0  0  0  0
 24 25  2  0  0  0  0
 25 26  1  0  0  0  0
 26 27  1  0  0  0  0
 26 51  1  0  0  0  0
 26 52  1  0  0  0  0
 27 28  1  0  0  0  0
 27 32  1  0  0  0  0
 28 29  1  0  0  0  0
 28 53  1  0  0  0  0
 28 54  1  0  0  0  0
 29 30  1  0  0  0  0
 29 55  1  0  0  0  0
 29 56  1  0  0  0  0
 30 31  1  0  0  0  0
 30 33  1  0  0  0  0
 31 32  1  0  0  0  0
 31 57  1  0  0  0  0
 31 58  1  0  0  0  0
 32 59  1  0  0  0  0
 32 60  1  0  0  0  0
 33 61  1  0  0  0  0
 33 62  1  0  0  0  0
 33 63  1  0  0  0  0
 34 35  1  0  0  0  0
 35 36  1  0  0  0  0
 35 64  1  0  0  0  0
 35 65  1  0  0  0  0
 36 37  1  0  0  0  0
 36 66  1  0  0  0  0
 36 67  1  0  0  0  0
 38 68  1  0  0  0  0
M  END
>  <DRUGBANK_ID>
DB12222

>  <COMMON_NAME>
Lurtotecan

>  <CAS_NUMBER>
149882-10-0

>  <UNII>
4J1L80T08I

>  <SYNONYMS>
Lurtotecan

$$$$
