
 OpenBabel10282417123D

 23 23  0  0  0  0  0  0  0  0999 V2000
    0.9817   -1.5487    2.0043 N   0  0  0  0  0  0  0  0  0  0  0  0
    0.5428   -1.3351    0.6009 C   0  0  2  0  0  0  0  0  0  0  0  0
    1.1906   -0.0486    0.0626 C   0  0  0  0  0  0  0  0  0  0  0  0
    1.7546    0.0810   -1.0130 O   0  0  0  0  0  0  0  0  0  0  0  0
    1.1387    0.9912    0.9265 O   0  0  0  0  0  0  0  0  0  0  0  0
   -0.9950   -1.3507    0.5166 C   0  0  0  0  0  0  0  0  0  0  0  0
   -1.5138   -1.1797   -0.8695 C   0  0  0  0  0  0  0  0  0  0  0  0
   -1.6800    0.0462   -1.5434 C   0  0  0  0  0  0  0  0  0  0  0  0
   -1.9405   -2.1080   -1.8080 C   0  0  0  0  0  0  0  0  0  0  0  0
   -2.0960   -3.5832   -1.8618 C   0  0  0  0  0  0  0  0  0  0  0  0
   -1.4361    1.2880   -1.1018 O   0  0  0  0  0  0  0  0  0  0  0  0
   -2.1250   -0.0848   -2.7844 N   0  0  0  0  0  0  0  0  0  0  0  0
   -2.2923   -1.4514   -2.9554 O   0  0  0  0  0  0  0  0  0  0  0  0
    0.7045   -0.7346    2.5596 H   0  0  0  0  0  0  0  0  0  0  0  0
    2.0038   -1.5337    2.0202 H   0  0  0  0  0  0  0  0  0  0  0  0
    0.9424   -2.1580   -0.0006 H   0  0  0  0  0  0  0  0  0  0  0  0
    1.7176    1.6710    0.5091 H   0  0  0  0  0  0  0  0  0  0  0  0
   -1.3778   -2.2919    0.9336 H   0  0  0  0  0  0  0  0  0  0  0  0
   -1.4169   -0.5545    1.1469 H   0  0  0  0  0  0  0  0  0  0  0  0
   -3.1334   -3.8651   -2.0802 H   0  0  0  0  0  0  0  0  0  0  0  0
   -1.4706   -4.0209   -2.6488 H   0  0  0  0  0  0  0  0  0  0  0  0
   -1.8178   -4.0515   -0.9142 H   0  0  0  0  0  0  0  0  0  0  0  0
   -1.1405    1.2731   -0.1784 H   0  0  0  0  0  0  0  0  0  0  0  0
  1 14  1  0  0  0  0
  1 15  1  0  0  0  0
  2  6  1  0  0  0  0
  2 16  1  6  0  0  0
  2  3  1  0  0  0  0
  2  1  1  0  0  0  0
  3  4  2  0  0  0  0
  3  5  1  0  0  0  0
  5 17  1  0  0  0  0
  6  7  1  0  0  0  0
  6 18  1  0  0  0  0
  6 19  1  0  0  0  0
  8  7  1  0  0  0  0
  8 11  1  0  0  0  0
  8 12  2  0  0  0  0
  9  7  2  0  0  0  0
  9 10  1  0  0  0  0
  9 13  1  0  0  0  0
 10 20  1  0  0  0  0
 10 21  1  0  0  0  0
 10 22  1  0  0  0  0
 11 23  1  0  0  0  0
 12 13  1  0  0  0  0
M  END
>  <DRUGBANK_ID>
DB02057

>  <SECONDARY_ACCESSION_NUMBERS>
EXPT00513

>  <COMMON_NAME>
(S)-AMPA

>  <CAS_NUMBER>
83643-88-3

>  <UNII>
9280SC28GD

>  <SYNONYMS>
(S)-alpha-Amino-3-hydroxy-5-methyl-4-isoxazolepropionic acid; L-AMPA; S-AMPA

$$$$
