
 OpenBabel10282417123D

 34 35  0  0  0  0  0  0  0  0999 V2000
   -0.5354    1.5015   -0.1968 O   0  0  0  0  0  0  0  0  0  0  0  0
    0.5301   -1.4588   -0.1258 O   0  0  0  0  0  0  0  0  0  0  0  0
    2.1662    0.2506   -0.3887 O   0  0  0  0  0  0  0  0  0  0  0  0
   -1.8981   -2.3319    1.0393 O   0  0  0  0  0  0  0  0  0  0  0  0
   -3.6983   -0.2384   -0.2475 O   0  0  0  0  0  0  0  0  0  0  0  0
   -1.3195    0.8035   -2.3055 O   0  0  0  0  0  0  0  0  0  0  0  0
    2.0581   -2.6098    1.6719 O   0  0  0  0  0  0  0  0  0  0  0  0
    3.9906   -1.6506    0.9994 O   0  0  0  0  0  0  0  0  0  0  0  0
   -0.1455   -0.6945    0.9025 C   0  0  1  0  0  0  0  0  0  0  0  0
    0.1290    0.7928    0.8412 C   0  0  1  0  0  0  0  0  0  0  0  0
   -1.6545   -0.9266    0.8606 C   0  0  1  0  0  0  0  0  0  0  0  0
   -2.2761   -0.4011   -0.4256 C   0  0  2  0  0  0  0  0  0  0  0  0
   -1.6294    0.9269   -0.9039 C   0  0  1  0  0  0  0  0  0  0  0  0
    1.6411    0.9935    0.7106 C   0  0  0  0  0  0  0  0  0  0  0  0
    1.9376   -1.1518   -0.2792 C   0  0  2  0  0  0  0  0  0  0  0  0
    2.4526   -1.7709   -1.6096 C   0  0  0  0  0  0  0  0  0  0  0  0
    2.7842   -1.8220    0.8395 C   0  0  0  0  0  0  0  0  0  0  0  0
   -0.2386   -0.0873   -2.5132 C   0  0  0  0  0  0  0  0  0  0  0  0
    0.2034   -1.0633    1.8703 H   0  0  0  0  0  0  0  0  0  0  0  0
   -0.1981    1.2495    1.7829 H   0  0  0  0  0  0  0  0  0  0  0  0
   -1.6489   -2.7871    0.2152 H   0  0  0  0  0  0  0  0  0  0  0  0
   -4.0111    0.3997   -0.9159 H   0  0  0  0  0  0  0  0  0  0  0  0
    1.1288   -2.7066    1.3706 H   0  0  0  0  0  0  0  0  0  0  0  0
   -2.1290   -0.4255    1.7120 H   0  0  0  0  0  0  0  0  0  0  0  0
   -2.2172   -1.1717   -1.2004 H   0  0  0  0  0  0  0  0  0  0  0  0
   -2.3996    1.7062   -0.8726 H   0  0  0  0  0  0  0  0  0  0  0  0
    2.1597    0.6801    1.6229 H   0  0  0  0  0  0  0  0  0  0  0  0
    1.8719    2.0499    0.5398 H   0  0  0  0  0  0  0  0  0  0  0  0
    3.5278   -1.5902   -1.7437 H   0  0  0  0  0  0  0  0  0  0  0  0
    2.2742   -2.8497   -1.6607 H   0  0  0  0  0  0  0  0  0  0  0  0
    1.9897   -1.3385   -2.5039 H   0  0  0  0  0  0  0  0  0  0  0  0
    0.6172    0.3010   -1.9788 H   0  0  0  0  0  0  0  0  0  0  0  0
   -0.4817   -1.1034   -2.1882 H   0  0  0  0  0  0  0  0  0  0  0  0
    0.0483   -0.1550   -3.5596 H   0  0  0  0  0  0  0  0  0  0  0  0
  1 10  1  0  0  0  0
  1 13  1  0  0  0  0
  2  9  1  0  0  0  0
  2 15  1  0  0  0  0
  3 14  1  0  0  0  0
  3 15  1  0  0  0  0
  4 21  1  0  0  0  0
  5 22  1  0  0  0  0
  6 18  1  0  0  0  0
  7 17  1  0  0  0  0
  7 23  1  0  0  0  0
  8 17  2  0  0  0  0
  9 10  1  0  0  0  0
  9 11  1  0  0  0  0
  9 19  1  1  0  0  0
 10 14  1  0  0  0  0
 10 20  1  1  0  0  0
 11  4  1  0  0  0  0
 11 12  1  0  0  0  0
 11 24  1  1  0  0  0
 12 13  1  0  0  0  0
 12 25  1  6  0  0  0
 12  5  1  0  0  0  0
 13  6  1  0  0  0  0
 13 26  1  1  0  0  0
 14 27  1  0  0  0  0
 14 28  1  0  0  0  0
 15 16  1  0  0  0  0
 15 17  1  1  0  0  0
 16 29  1  0  0  0  0
 16 30  1  0  0  0  0
 16 31  1  0  0  0  0
 18 32  1  0  0  0  0
 18 33  1  0  0  0  0
 18 34  1  0  0  0  0
M  END
>  <DRUGBANK_ID>
DB01651

>  <SECONDARY_ACCESSION_NUMBERS>
EXPT00869

>  <COMMON_NAME>
Methyl 4,6-O-[(1R)-1-carboxyethylidene]-beta-D-galactopyranoside

>  <SYNONYMS>
Methyl 4,6-O-[(1R)-1-carboxyethylidene]-Î²-D-galactopyranoside

$$$$
