Untitled Document-1
 OpenBabel10282417183D

153153  0  0  0  0  0  0  0  0999 V2000
    1.6140   -0.1023    0.0115 C   0  0  0  0  0  0  0  0  0  0  0  0
    0.5544   -1.1438    0.0055 C   0  0  0  0  0  0  0  0  0  0  0  0
   -0.7472   -0.8032   -0.0123 C   0  0  0  0  0  0  0  0  0  0  0  0
   -1.1609    0.6208    0.0144 C   0  0  0  0  0  0  0  0  0  0  0  0
   -0.1012    1.6750   -0.0447 C   0  0  0  0  0  0  0  0  0  0  0  0
    1.2042    1.3364   -0.0617 C   0  0  0  0  0  0  0  0  0  0  0  0
    2.7872   -0.4396    0.0640 O   0  0  0  0  0  0  0  0  0  0  0  0
   -2.3463    0.9190    0.0706 O   0  0  0  0  0  0  0  0  0  0  0  0
   -1.8777   -1.7912   -0.0655 C   0  0  0  0  0  0  0  0  0  0  0  0
    2.1535    2.3422   -0.1406 O   0  0  0  0  0  0  0  0  0  0  0  0
    3.5398    2.0687   -0.1745 C   0  0  0  0  0  0  0  0  0  0  0  0
   -0.6222    2.9628   -0.0795 O   0  0  0  0  0  0  0  0  0  0  0  0
    0.2645    4.0708   -0.1130 C   0  0  0  0  0  0  0  0  0  0  0  0
    1.0789   -2.5627   -0.0109 C   0  0  0  0  0  0  0  0  0  0  0  0
    0.5688   -3.3660    1.1540 C   0  0  0  0  0  0  0  0  0  0  0  0
   -0.2137   -4.4543    1.0209 C   0  0  0  0  0  0  0  0  0  0  0  0
   -0.8694   -5.0911    2.2267 C   0  0  0  0  0  0  0  0  0  0  0  0
   -2.4041   -4.9408    2.2824 C   0  0  0  0  0  0  0  0  0  0  0  0
   -3.1153   -5.6108    1.1378 C   0  0  0  0  0  0  0  0  0  0  0  0
   -3.8645   -6.7186    1.2379 C   0  0  0  0  0  0  0  0  0  0  0  0
   -4.3046   -7.4702   -0.0019 C   0  0  0  0  0  0  0  0  0  0  0  0
   -3.7508   -8.9061   -0.1025 C   0  0  0  0  0  0  0  0  0  0  0  0
   -4.2279   -9.7969    1.0106 C   0  0  0  0  0  0  0  0  0  0  0  0
   -5.1130  -10.7948    0.8812 C   0  0  0  0  0  0  0  0  0  0  0  0
   -5.7433  -11.4276    2.1047 C   0  0  0  0  0  0  0  0  0  0  0  0
   -7.2739  -11.2603    2.1891 C   0  0  0  0  0  0  0  0  0  0  0  0
   -7.9975  -11.9313    1.0553 C   0  0  0  0  0  0  0  0  0  0  0  0
   -8.7343  -13.0460    1.1563 C   0  0  0  0  0  0  0  0  0  0  0  0
   -9.1670  -13.7971   -0.0858 C   0  0  0  0  0  0  0  0  0  0  0  0
   -8.6093  -15.2312   -0.1871 C   0  0  0  0  0  0  0  0  0  0  0  0
   -9.0854  -16.1223    0.9258 C   0  0  0  0  0  0  0  0  0  0  0  0
   -9.9711  -17.1196    0.7965 C   0  0  0  0  0  0  0  0  0  0  0  0
  -10.6013  -17.7519    2.0201 C   0  0  0  0  0  0  0  0  0  0  0  0
  -12.1318  -17.5843    2.1045 C   0  0  0  0  0  0  0  0  0  0  0  0
  -12.8555  -18.2552    0.9706 C   0  0  0  0  0  0  0  0  0  0  0  0
  -13.5923  -19.3699    1.0717 C   0  0  0  0  0  0  0  0  0  0  0  0
  -14.0248  -20.1210   -0.1704 C   0  0  0  0  0  0  0  0  0  0  0  0
  -13.4672  -21.5550   -0.2718 C   0  0  0  0  0  0  0  0  0  0  0  0
  -13.9433  -22.4462    0.8411 C   0  0  0  0  0  0  0  0  0  0  0  0
  -14.8289  -23.4434    0.7118 C   0  0  0  0  0  0  0  0  0  0  0  0
  -15.4592  -24.0758    1.9354 C   0  0  0  0  0  0  0  0  0  0  0  0
  -16.9897  -23.9083    2.0197 C   0  0  0  0  0  0  0  0  0  0  0  0
  -17.7135  -24.5793    0.8859 C   0  0  0  0  0  0  0  0  0  0  0  0
  -18.4501  -25.6941    0.9871 C   0  0  0  0  0  0  0  0  0  0  0  0
  -18.8832  -26.4456   -0.2546 C   0  0  0  0  0  0  0  0  0  0  0  0
  -18.3279  -27.8809   -0.3546 C   0  0  0  0  0  0  0  0  0  0  0  0
  -18.8073  -28.7721    0.7586 C   0  0  0  0  0  0  0  0  0  0  0  0
  -19.6948  -29.7687    0.6300 C   0  0  0  0  0  0  0  0  0  0  0  0
  -20.3235  -30.4096    1.8528 C   0  0  0  0  0  0  0  0  0  0  0  0
  -21.8589  -30.2710    1.9346 C   0  0  0  0  0  0  0  0  0  0  0  0
  -22.5713  -30.9497    0.7967 C   0  0  0  0  0  0  0  0  0  0  0  0
  -23.2849  -32.0838    0.8604 C   0  0  0  0  0  0  0  0  0  0  0  0
  -23.7642  -32.7633   -0.3914 C   0  0  0  0  0  0  0  0  0  0  0  0
  -23.6354  -32.6969    2.1779 C   0  0  0  0  0  0  0  0  0  0  0  0
  -20.0535  -30.2548   -0.7405 C   0  0  0  0  0  0  0  0  0  0  0  0
  -18.8465  -26.1913    2.3430 C   0  0  0  0  0  0  0  0  0  0  0  0
  -15.1897  -23.9317   -0.6573 C   0  0  0  0  0  0  0  0  0  0  0  0
  -13.9887  -19.8672    2.4275 C   0  0  0  0  0  0  0  0  0  0  0  0
  -10.3318  -17.6079   -0.5726 C   0  0  0  0  0  0  0  0  0  0  0  0
   -9.1309  -13.5433    2.5122 C   0  0  0  0  0  0  0  0  0  0  0  0
   -5.4737  -11.2836   -0.4878 C   0  0  0  0  0  0  0  0  0  0  0  0
   -4.2698   -7.2145    2.5932 C   0  0  0  0  0  0  0  0  0  0  0  0
   -0.5143   -5.0291   -0.3406 C   0  0  0  0  0  0  0  0  0  0  0  0
   -1.8039   -2.3865   -0.9784 H   0  0  0  0  0  0  0  0  0  0  0  0
   -1.8634   -2.4332    0.8140 H   0  0  0  0  0  0  0  0  0  0  0  0
   -2.8747   -1.3461   -0.0718 H   0  0  0  0  0  0  0  0  0  0  0  0
    3.8670    1.5965    0.7551 H   0  0  0  0  0  0  0  0  0  0  0  0
    3.8037    1.4863   -1.0611 H   0  0  0  0  0  0  0  0  0  0  0  0
    4.0506    3.0333   -0.2488 H   0  0  0  0  0  0  0  0  0  0  0  0
    0.8957    4.0896    0.7824 H   0  0  0  0  0  0  0  0  0  0  0  0
    0.8548    4.0621   -1.0357 H   0  0  0  0  0  0  0  0  0  0  0  0
   -0.3223    4.9910   -0.1140 H   0  0  0  0  0  0  0  0  0  0  0  0
    0.7920   -2.9928   -0.9761 H   0  0  0  0  0  0  0  0  0  0  0  0
    2.1709   -2.6284    0.0074 H   0  0  0  0  0  0  0  0  0  0  0  0
    0.7950   -2.9726    2.1453 H   0  0  0  0  0  0  0  0  0  0  0  0
   -0.5815   -6.1487    2.2709 H   0  0  0  0  0  0  0  0  0  0  0  0
   -0.4766   -4.6385    3.1485 H   0  0  0  0  0  0  0  0  0  0  0  0
   -2.7186   -5.3623    3.2427 H   0  0  0  0  0  0  0  0  0  0  0  0
   -2.7017   -3.8893    2.3101 H   0  0  0  0  0  0  0  0  0  0  0  0
   -2.9627   -5.1892    0.1497 H   0  0  0  0  0  0  0  0  0  0  0  0
   -5.3997   -7.4649   -0.0627 H   0  0  0  0  0  0  0  0  0  0  0  0
   -3.9569   -6.9452   -0.9049 H   0  0  0  0  0  0  0  0  0  0  0  0
   -4.0608   -9.2929   -1.0796 H   0  0  0  0  0  0  0  0  0  0  0  0
   -2.6569   -8.9087   -0.1082 H   0  0  0  0  0  0  0  0  0  0  0  0
   -3.8663   -9.5681    2.0070 H   0  0  0  0  0  0  0  0  0  0  0  0
   -5.4581  -12.4852    2.1552 H   0  0  0  0  0  0  0  0  0  0  0  0
   -5.3367  -10.9689    3.0194 H   0  0  0  0  0  0  0  0  0  0  0  0
   -7.5807  -11.6749    3.1558 H   0  0  0  0  0  0  0  0  0  0  0  0
   -7.5569  -10.2038    2.2086 H   0  0  0  0  0  0  0  0  0  0  0  0
   -7.8569  -11.5056    0.0680 H   0  0  0  0  0  0  0  0  0  0  0  0
  -10.2616  -13.7933   -0.1505 H   0  0  0  0  0  0  0  0  0  0  0  0
   -8.8166  -13.2706   -0.9872 H   0  0  0  0  0  0  0  0  0  0  0  0
   -8.9181  -15.6181   -1.1645 H   0  0  0  0  0  0  0  0  0  0  0  0
   -7.5154  -15.2318   -0.1925 H   0  0  0  0  0  0  0  0  0  0  0  0
   -8.7234  -15.8931    1.9219 H   0  0  0  0  0  0  0  0  0  0  0  0
  -10.3162  -18.8095    2.0708 H   0  0  0  0  0  0  0  0  0  0  0  0
  -10.1946  -17.2929    2.9347 H   0  0  0  0  0  0  0  0  0  0  0  0
  -12.4387  -17.9987    3.0711 H   0  0  0  0  0  0  0  0  0  0  0  0
  -12.4146  -16.5277    2.1239 H   0  0  0  0  0  0  0  0  0  0  0  0
  -12.7147  -17.8295   -0.0167 H   0  0  0  0  0  0  0  0  0  0  0  0
  -15.1194  -20.1172   -0.2352 H   0  0  0  0  0  0  0  0  0  0  0  0
  -13.6745  -19.5945   -1.0718 H   0  0  0  0  0  0  0  0  0  0  0  0
  -13.7759  -21.9420   -1.2492 H   0  0  0  0  0  0  0  0  0  0  0  0
  -12.3732  -21.5557   -0.2771 H   0  0  0  0  0  0  0  0  0  0  0  0
  -13.5812  -22.2170    1.8372 H   0  0  0  0  0  0  0  0  0  0  0  0
  -15.1740  -25.1333    1.9861 H   0  0  0  0  0  0  0  0  0  0  0  0
  -15.0525  -23.6168    2.8500 H   0  0  0  0  0  0  0  0  0  0  0  0
  -17.2965  -24.3227    2.9864 H   0  0  0  0  0  0  0  0  0  0  0  0
  -17.2725  -22.8516    2.0391 H   0  0  0  0  0  0  0  0  0  0  0  0
  -17.5726  -24.1536   -0.1014 H   0  0  0  0  0  0  0  0  0  0  0  0
  -19.9778  -26.4406   -0.3198 H   0  0  0  0  0  0  0  0  0  0  0  0
  -18.5320  -25.9198   -1.1562 H   0  0  0  0  0  0  0  0  0  0  0  0
  -18.6354  -28.2673   -1.3326 H   0  0  0  0  0  0  0  0  0  0  0  0
  -17.2336  -27.8822   -0.3592 H   0  0  0  0  0  0  0  0  0  0  0  0
  -18.4424  -28.5439    1.7539 H   0  0  0  0  0  0  0  0  0  0  0  0
  -20.0234  -31.4626    1.9041 H   0  0  0  0  0  0  0  0  0  0  0  0
  -19.9240  -29.9431    2.7670 H   0  0  0  0  0  0  0  0  0  0  0  0
  -22.1752  -30.6855    2.8986 H   0  0  0  0  0  0  0  0  0  0  0  0
  -22.1503  -29.2150    1.9489 H   0  0  0  0  0  0  0  0  0  0  0  0
  -22.4568  -30.4834   -0.1769 H   0  0  0  0  0  0  0  0  0  0  0  0
  -23.4192  -33.8029   -0.4184 H   0  0  0  0  0  0  0  0  0  0  0  0
  -24.8551  -32.7469   -0.4427 H   0  0  0  0  0  0  0  0  0  0  0  0
  -23.3763  -32.2795   -1.2969 H   0  0  0  0  0  0  0  0  0  0  0  0
  -22.7364  -33.0132    2.7160 H   0  0  0  0  0  0  0  0  0  0  0  0
  -24.1677  -31.9534    2.7838 H   0  0  0  0  0  0  0  0  0  0  0  0
  -24.2968  -33.5577    2.0633 H   0  0  0  0  0  0  0  0  0  0  0  0
  -20.6896  -29.5192   -1.2466 H   0  0  0  0  0  0  0  0  0  0  0  0
  -19.1485  -30.4148   -1.3332 H   0  0  0  0  0  0  0  0  0  0  0  0
  -20.5481  -31.2258   -0.7223 H   0  0  0  0  0  0  0  0  0  0  0  0
  -17.9786  -26.6261    2.8527 H   0  0  0  0  0  0  0  0  0  0  0  0
  -19.2418  -25.3694    2.9458 H   0  0  0  0  0  0  0  0  0  0  0  0
  -19.6573  -26.9189    2.2995 H   0  0  0  0  0  0  0  0  0  0  0  0
  -15.8269  -23.1967   -1.1631 H   0  0  0  0  0  0  0  0  0  0  0  0
  -14.2860  -24.0918   -1.2514 H   0  0  0  0  0  0  0  0  0  0  0  0
  -15.6843  -24.9032   -0.6365 H   0  0  0  0  0  0  0  0  0  0  0  0
  -13.1209  -20.3020    2.9374 H   0  0  0  0  0  0  0  0  0  0  0  0
  -14.3841  -19.0454    3.0305 H   0  0  0  0  0  0  0  0  0  0  0  0
  -14.7994  -20.5950    2.3840 H   0  0  0  0  0  0  0  0  0  0  0  0
  -10.9691  -16.8728   -1.0784 H   0  0  0  0  0  0  0  0  0  0  0  0
   -9.4281  -17.7680   -1.1667 H   0  0  0  0  0  0  0  0  0  0  0  0
  -10.8264  -18.5793   -0.5518 H   0  0  0  0  0  0  0  0  0  0  0  0
   -8.2630  -13.9781    3.0221 H   0  0  0  0  0  0  0  0  0  0  0  0
   -9.5263  -12.7215    3.1151 H   0  0  0  0  0  0  0  0  0  0  0  0
   -9.9416  -14.2711    2.4686 H   0  0  0  0  0  0  0  0  0  0  0  0
   -6.1111  -10.5488   -0.9938 H   0  0  0  0  0  0  0  0  0  0  0  0
   -4.5701  -11.4438   -1.0819 H   0  0  0  0  0  0  0  0  0  0  0  0
   -5.9683  -12.2551   -0.4668 H   0  0  0  0  0  0  0  0  0  0  0  0
   -3.4049   -7.6517    3.1063 H   0  0  0  0  0  0  0  0  0  0  0  0
   -4.6666   -6.3928    3.1953 H   0  0  0  0  0  0  0  0  0  0  0  0
   -5.0810   -7.9419    2.5474 H   0  0  0  0  0  0  0  0  0  0  0  0
   -1.1674   -4.3557   -0.9035 H   0  0  0  0  0  0  0  0  0  0  0  0
    0.3967   -5.1842   -0.9213 H   0  0  0  0  0  0  0  0  0  0  0  0
   -1.0085   -5.9997   -0.2879 H   0  0  0  0  0  0  0  0  0  0  0  0
  1  2  1  0  0  0  0
  1  6  1  0  0  0  0
  1  7  2  0  0  0  0
  2  3  2  0  0  0  0
  2 14  1  0  0  0  0
  3  4  1  0  0  0  0
  3  9  1  0  0  0  0
  4  5  1  0  0  0  0
  4  8  2  0  0  0  0
  5  6  2  0  0  0  0
  5 12  1  0  0  0  0
  6 10  1  0  0  0  0
  9 64  1  0  0  0  0
  9 65  1  0  0  0  0
  9 66  1  0  0  0  0
 10 11  1  0  0  0  0
 11 67  1  0  0  0  0
 11 68  1  0  0  0  0
 11 69  1  0  0  0  0
 12 13  1  0  0  0  0
 13 70  1  0  0  0  0
 13 71  1  0  0  0  0
 13 72  1  0  0  0  0
 14 15  1  0  0  0  0
 14 73  1  0  0  0  0
 14 74  1  0  0  0  0
 15 16  2  0  0  0  0
 15 75  1  0  0  0  0
 16 17  1  0  0  0  0
 16 63  1  0  0  0  0
 17 18  1  0  0  0  0
 17 76  1  0  0  0  0
 17 77  1  0  0  0  0
 18 19  1  0  0  0  0
 18 78  1  0  0  0  0
 18 79  1  0  0  0  0
 19 20  2  0  0  0  0
 19 80  1  0  0  0  0
 20 21  1  0  0  0  0
 20 62  1  0  0  0  0
 21 22  1  0  0  0  0
 21 81  1  0  0  0  0
 21 82  1  0  0  0  0
 22 23  1  0  0  0  0
 22 83  1  0  0  0  0
 22 84  1  0  0  0  0
 23 24  2  0  0  0  0
 23 85  1  0  0  0  0
 24 25  1  0  0  0  0
 24 61  1  0  0  0  0
 25 26  1  0  0  0  0
 25 86  1  0  0  0  0
 25 87  1  0  0  0  0
 26 27  1  0  0  0  0
 26 88  1  0  0  0  0
 26 89  1  0  0  0  0
 27 28  2  0  0  0  0
 27 90  1  0  0  0  0
 28 29  1  0  0  0  0
 28 60  1  0  0  0  0
 29 30  1  0  0  0  0
 29 91  1  0  0  0  0
 29 92  1  0  0  0  0
 30 31  1  0  0  0  0
 30 93  1  0  0  0  0
 30 94  1  0  0  0  0
 31 32  2  0  0  0  0
 31 95  1  0  0  0  0
 32 33  1  0  0  0  0
 32 59  1  0  0  0  0
 33 34  1  0  0  0  0
 33 96  1  0  0  0  0
 33 97  1  0  0  0  0
 34 35  1  0  0  0  0
 34 98  1  0  0  0  0
 34 99  1  0  0  0  0
 35 36  2  0  0  0  0
 35100  1  0  0  0  0
 36 37  1  0  0  0  0
 36 58  1  0  0  0  0
 37 38  1  0  0  0  0
 37101  1  0  0  0  0
 37102  1  0  0  0  0
 38 39  1  0  0  0  0
 38103  1  0  0  0  0
 38104  1  0  0  0  0
 39 40  2  0  0  0  0
 39105  1  0  0  0  0
 40 41  1  0  0  0  0
 40 57  1  0  0  0  0
 41 42  1  0  0  0  0
 41106  1  0  0  0  0
 41107  1  0  0  0  0
 42 43  1  0  0  0  0
 42108  1  0  0  0  0
 42109  1  0  0  0  0
 43 44  2  0  0  0  0
 43110  1  0  0  0  0
 44 45  1  0  0  0  0
 44 56  1  0  0  0  0
 45 46  1  0  0  0  0
 45111  1  0  0  0  0
 45112  1  0  0  0  0
 46 47  1  0  0  0  0
 46113  1  0  0  0  0
 46114  1  0  0  0  0
 47 48  2  0  0  0  0
 47115  1  0  0  0  0
 48 49  1  0  0  0  0
 48 55  1  0  0  0  0
 49 50  1  0  0  0  0
 49116  1  0  0  0  0
 49117  1  0  0  0  0
 50 51  1  0  0  0  0
 50118  1  0  0  0  0
 50119  1  0  0  0  0
 51 52  2  0  0  0  0
 51120  1  0  0  0  0
 52 53  1  0  0  0  0
 52 54  1  0  0  0  0
 53121  1  0  0  0  0
 53122  1  0  0  0  0
 53123  1  0  0  0  0
 54124  1  0  0  0  0
 54125  1  0  0  0  0
 54126  1  0  0  0  0
 55127  1  0  0  0  0
 55128  1  0  0  0  0
 55129  1  0  0  0  0
 56130  1  0  0  0  0
 56131  1  0  0  0  0
 56132  1  0  0  0  0
 57133  1  0  0  0  0
 57134  1  0  0  0  0
 57135  1  0  0  0  0
 58136  1  0  0  0  0
 58137  1  0  0  0  0
 58138  1  0  0  0  0
 59139  1  0  0  0  0
 59140  1  0  0  0  0
 59141  1  0  0  0  0
 60142  1  0  0  0  0
 60143  1  0  0  0  0
 60144  1  0  0  0  0
 61145  1  0  0  0  0
 61146  1  0  0  0  0
 61147  1  0  0  0  0
 62148  1  0  0  0  0
 62149  1  0  0  0  0
 62150  1  0  0  0  0
 63151  1  0  0  0  0
 63152  1  0  0  0  0
 63153  1  0  0  0  0
M  END
>  <DRUGBANK_ID>
DB09270

>  <COMMON_NAME>
Ubidecarenone

>  <CAS_NUMBER>
303-98-0

>  <UNII>
EJ27X76M46

>  <SYNONYMS>
Coenzyme Q-10; Coenzyme Q10; CoQ10; Ubidecarenone; Ubiquinone; Vitamin Q10

$$$$
