
 OpenBabel10282417213D

 67 71  0  0  0  0  0  0  0  0999 V2000
    1.4556   -0.2905    0.0086 C   0  0  0  0  0  0  0  0  0  0  0  0
   -4.3154    2.7806    3.2645 C   0  0  0  0  0  0  0  0  0  0  0  0
    0.5441   -1.3497    0.0172 C   0  0  0  0  0  0  0  0  0  0  0  0
    1.0068    1.0178   -0.0205 C   0  0  0  0  0  0  0  0  0  0  0  0
   -3.3658    3.3476    2.4320 C   0  0  0  0  0  0  0  0  0  0  0  0
   -4.8252    1.5039    3.0065 C   0  0  0  0  0  0  0  0  0  0  0  0
   -2.4113   -1.0388   -8.1219 C   0  0  0  0  0  0  0  0  0  0  0  0
   -6.1842   -3.2929   -7.8955 C   0  0  0  0  0  0  0  0  0  0  0  0
   -0.8277   -1.1041    0.0232 C   0  0  0  0  0  0  0  0  0  0  0  0
   -0.3493    1.2591    0.0249 C   0  0  0  0  0  0  0  0  0  0  0  0
   -2.9307    2.6289    1.3484 C   0  0  0  0  0  0  0  0  0  0  0  0
   -4.2998    0.7364    1.9782 C   0  0  0  0  0  0  0  0  0  0  0  0
   -6.2006   -1.8817   -7.7229 C   0  0  0  0  0  0  0  0  0  0  0  0
   -2.9994   -2.2184   -7.6653 C   0  0  0  0  0  0  0  0  0  0  0  0
   -2.9883    0.1913   -7.8033 C   0  0  0  0  0  0  0  0  0  0  0  0
   -5.7505   -3.8875   -6.7610 C   0  0  0  0  0  0  0  0  0  0  0  0
   -5.1607   -1.4414   -2.5839 C   0  0  0  0  0  0  0  0  0  0  0  0
   -3.4786   -0.7472   -4.1677 C   0  0  0  0  0  0  0  0  0  0  0  0
   -5.0335   -0.0999   -1.8785 C   0  0  0  0  0  0  0  0  0  0  0  0
   -3.2653    0.5747   -3.4454 C   0  0  0  0  0  0  0  0  0  0  0  0
   -5.9539   -0.5495   -4.6643 C   0  0  0  0  0  0  0  0  0  0  0  0
   -4.9496    1.5901   -5.6328 C   0  0  0  0  0  0  0  0  0  0  0  0
   -1.2863    0.2164    0.0570 C   0  0  0  0  0  0  0  0  0  0  0  0
   -3.3286    1.3008    1.1547 C   0  0  0  0  0  0  0  0  0  0  0  0
   -6.1396    0.9677   -4.8585 C   0  0  3  0  0  0  0  0  0  0  0  0
   -4.9513   -1.2186   -7.4612 C   0  0  0  0  0  0  0  0  0  0  0  0
   -4.1555   -2.2190   -6.9671 C   0  0  0  0  0  0  0  0  0  0  0  0
   -4.3248    0.1398   -7.4054 C   0  0  0  0  0  0  0  0  0  0  0  0
   -2.7648    0.5280    0.0132 C   0  0  0  0  0  0  0  0  0  0  0  0
   -3.0551    1.2845   -1.2637 C   0  0  0  0  0  0  0  0  0  0  0  0
   -4.5927   -3.3829   -6.3489 N   0  0  0  0  0  0  0  0  0  0  0  0
   -4.8537   -1.2638   -3.9988 N   0  0  0  0  0  0  0  0  0  0  0  0
   -3.6788    0.4133   -2.1116 N   0  0  0  0  0  0  0  0  0  0  0  0
   -7.3089    1.2204   -5.6597 O   0  0  0  0  0  0  0  0  0  0  0  0
   -2.6216    2.3582   -1.6069 O   0  0  0  0  0  0  0  0  0  0  0  0
   -4.9963    1.3230   -7.0719 O   0  0  0  0  0  0  0  0  0  0  0  0
    2.5222   -0.4784    0.0248 H   0  0  0  0  0  0  0  0  0  0  0  0
   -4.6640    3.3489    4.1163 H   0  0  0  0  0  0  0  0  0  0  0  0
    0.9093   -2.3714    0.0161 H   0  0  0  0  0  0  0  0  0  0  0  0
    1.6823    1.8642   -0.0787 H   0  0  0  0  0  0  0  0  0  0  0  0
   -2.9602    4.3398    2.5901 H   0  0  0  0  0  0  0  0  0  0  0  0
   -5.6247    1.1039    3.6194 H   0  0  0  0  0  0  0  0  0  0  0  0
   -1.5277   -1.1448   -8.7355 H   0  0  0  0  0  0  0  0  0  0  0  0
   -5.3918   -3.6293   -8.6415 H   0  0  0  0  0  0  0  0  0  0  0  0
   -1.5237   -1.9410   -0.0026 H   0  0  0  0  0  0  0  0  0  0  0  0
   -0.6558    2.2962    0.0030 H   0  0  0  0  0  0  0  0  0  0  0  0
   -2.2748    3.1330    0.6472 H   0  0  0  0  0  0  0  0  0  0  0  0
   -4.6503   -0.2815    1.8157 H   0  0  0  0  0  0  0  0  0  0  0  0
   -7.0612   -1.5088   -7.1596 H   0  0  0  0  0  0  0  0  0  0  0  0
   -2.7277   -3.1889   -8.0623 H   0  0  0  0  0  0  0  0  0  0  0  0
   -2.4279    1.1060   -7.9881 H   0  0  0  0  0  0  0  0  0  0  0  0
   -6.0313   -4.8947   -6.4605 H   0  0  0  0  0  0  0  0  0  0  0  0
   -6.1552   -1.8836   -2.4767 H   0  0  0  0  0  0  0  0  0  0  0  0
   -4.4469   -2.1537   -2.1514 H   0  0  0  0  0  0  0  0  0  0  0  0
   -2.7645   -1.4868   -3.7707 H   0  0  0  0  0  0  0  0  0  0  0  0
   -3.1680   -0.6616   -5.2037 H   0  0  0  0  0  0  0  0  0  0  0  0
   -5.7425    0.6270   -2.2785 H   0  0  0  0  0  0  0  0  0  0  0  0
   -5.2917   -0.1591   -0.8235 H   0  0  0  0  0  0  0  0  0  0  0  0
   -3.8910    1.4281   -3.6748 H   0  0  0  0  0  0  0  0  0  0  0  0
   -2.2456    0.9528   -3.6062 H   0  0  0  0  0  0  0  0  0  0  0  0
   -5.7914   -0.8071   -5.6595 H   0  0  0  0  0  0  0  0  0  0  0  0
   -6.9034   -1.0773   -4.5117 H   0  0  0  0  0  0  0  0  0  0  0  0
   -4.8751    2.6541   -5.3266 H   0  0  0  0  0  0  0  0  0  0  0  0
   -3.9895    1.2084   -5.3664 H   0  0  0  0  0  0  0  0  0  0  0  0
   -6.3624    1.4343   -3.8959 H   0  0  0  0  0  0  0  0  0  0  0  0
   -3.2823   -0.4429   -0.0424 H   0  0  0  0  0  0  0  0  0  0  0  0
   -6.9650    1.4547   -6.5466 H   0  0  0  0  0  0  0  0  0  0  0  0
  1 37  1  0  0  0  0
  2 38  1  0  0  0  0
  3  1  2  0  0  0  0
  3 39  1  0  0  0  0
  4  1  1  0  0  0  0
  4 40  1  0  0  0  0
  5  2  2  0  0  0  0
  5 41  1  0  0  0  0
  6  2  1  0  0  0  0
  6 42  1  0  0  0  0
  7 43  1  0  0  0  0
  8 44  1  0  0  0  0
  9  3  1  0  0  0  0
  9 45  1  0  0  0  0
 10  4  2  0  0  0  0
 10 46  1  0  0  0  0
 11  5  1  0  0  0  0
 11 47  1  0  0  0  0
 12  6  2  0  0  0  0
 12 48  1  0  0  0  0
 13  8  2  0  0  0  0
 13 49  1  0  0  0  0
 14  7  2  0  0  0  0
 14 50  1  0  0  0  0
 15  7  1  0  0  0  0
 15 51  1  0  0  0  0
 16  8  1  0  0  0  0
 16 52  1  0  0  0  0
 17 53  1  0  0  0  0
 17 54  1  0  0  0  0
 18 55  1  0  0  0  0
 18 56  1  0  0  0  0
 19 17  1  0  0  0  0
 19 57  1  0  0  0  0
 19 58  1  0  0  0  0
 20 18  1  0  0  0  0
 20 59  1  0  0  0  0
 20 60  1  0  0  0  0
 21 61  1  0  0  0  0
 21 62  1  0  0  0  0
 22 63  1  0  0  0  0
 22 64  1  0  0  0  0
 23  9  2  0  0  0  0
 23 10  1  0  0  0  0
 24 11  2  0  0  0  0
 24 12  1  0  0  0  0
 25 21  1  0  0  0  0
 25 22  1  0  0  0  0
 25 65  1  0  0  0  0
 26 13  1  0  0  0  0
 27 14  1  0  0  0  0
 27 26  2  0  0  0  0
 28 15  2  0  0  0  0
 28 26  1  0  0  0  0
 29 23  1  0  0  0  0
 29 24  1  0  0  0  0
 29 66  1  0  0  0  0
 30 29  1  0  0  0  0
 31 16  2  0  0  0  0
 31 27  1  0  0  0  0
 32 17  1  0  0  0  0
 32 18  1  0  0  0  0
 32 21  1  0  0  0  0
 33 19  1  0  0  0  0
 33 20  1  0  0  0  0
 33 30  1  0  0  0  0
 34 25  1  0  0  0  0
 34 67  1  0  0  0  0
 35 30  2  0  0  0  0
 36 22  1  0  0  0  0
 36 28  1  0  0  0  0
M  END
>  <DRUGBANK_ID>
DB14067

>  <COMMON_NAME>
Dofequidar

>  <CAS_NUMBER>
129716-58-1

>  <UNII>
0BJK6B565B

>  <SYNONYMS>
Dofequidar

$$$$
