PRD
 OpenBabel10282417123D

 45 47  0  0  0  0  0  0  0  0999 V2000
   -0.0248    0.6330   -0.2331 C   0  0  0  0  0  0  0  0  0  0  0  0
   -0.0642   -0.7586   -0.0814 C   0  0  0  0  0  0  0  0  0  0  0  0
   -1.2259   -1.3908    0.0492 N   0  0  0  0  0  0  0  0  0  0  0  0
    1.0991   -1.4265   -0.1132 N   0  0  0  0  0  0  0  0  0  0  0  0
    2.2987   -0.7682   -0.3365 C   0  0  0  0  0  0  0  0  0  0  0  0
    2.4698    0.6074   -0.5807 C   0  0  0  0  0  0  0  0  0  0  0  0
    3.7072    1.3183   -0.6389 N   0  0  0  0  0  0  0  0  0  0  0  0
    3.8475    2.8386   -0.6478 C   0  0  0  0  0  0  0  0  0  0  0  0
    1.2224    1.2527   -0.5386 C   0  0  0  0  0  0  0  0  0  0  0  0
   -1.2467    1.2963   -0.0661 C   0  0  0  0  0  0  0  0  0  0  0  0
   -1.3204    2.6941   -0.1897 N   0  0  0  0  0  0  0  0  0  0  0  0
   -2.4105    0.6591    0.0551 N   0  0  0  0  0  0  0  0  0  0  0  0
   -2.3628   -0.6835    0.0564 C   0  0  0  0  0  0  0  0  0  0  0  0
   -3.5473   -1.3539    0.0339 N   0  0  0  0  0  0  0  0  0  0  0  0
    4.9495    0.6491   -0.1569 C   0  0  0  0  0  0  0  0  0  0  0  0
    4.9584   -0.0745    1.1952 C   0  0  0  0  0  0  0  0  0  0  0  0
    4.0127   -0.0251    2.2373 C   0  0  0  0  0  0  0  0  0  0  0  0
    4.0616   -0.9859    3.2524 C   0  0  0  0  0  0  0  0  0  0  0  0
    4.9679   -2.0374    3.2199 C   0  0  0  0  0  0  0  0  0  0  0  0
    6.0244   -2.0050    2.3240 C   0  0  0  0  0  0  0  0  0  0  0  0
    6.0378   -1.0051    1.3459 C   0  0  0  0  0  0  0  0  0  0  0  0
    2.8820    0.7296    2.4025 O   0  0  0  0  0  0  0  0  0  0  0  0
    2.9313    2.0691    2.0059 C   0  0  0  0  0  0  0  0  0  0  0  0
    6.9548   -2.9941    2.4886 O   0  0  0  0  0  0  0  0  0  0  0  0
    8.1467   -2.8939    1.7179 C   0  0  0  0  0  0  0  0  0  0  0  0
    3.1437   -1.4428   -0.2118 H   0  0  0  0  0  0  0  0  0  0  0  0
    4.4324    3.1977    0.2208 H   0  0  0  0  0  0  0  0  0  0  0  0
    4.4103    3.2258   -1.5022 H   0  0  0  0  0  0  0  0  0  0  0  0
    2.9051    3.3975   -0.5859 H   0  0  0  0  0  0  0  0  0  0  0  0
    1.1875    2.3347   -0.5983 H   0  0  0  0  0  0  0  0  0  0  0  0
   -2.2343    3.0748    0.0325 H   0  0  0  0  0  0  0  0  0  0  0  0
   -0.5387    3.2444    0.1307 H   0  0  0  0  0  0  0  0  0  0  0  0
   -3.5223   -2.3624    0.0070 H   0  0  0  0  0  0  0  0  0  0  0  0
   -4.4093   -0.8340    0.0051 H   0  0  0  0  0  0  0  0  0  0  0  0
    5.2370   -0.0754   -0.9335 H   0  0  0  0  0  0  0  0  0  0  0  0
    5.7785    1.3736   -0.1250 H   0  0  0  0  0  0  0  0  0  0  0  0
    3.3347   -0.9252    4.0593 H   0  0  0  0  0  0  0  0  0  0  0  0
    4.8342   -2.8697    3.9042 H   0  0  0  0  0  0  0  0  0  0  0  0
    6.8572   -0.9805    0.6303 H   0  0  0  0  0  0  0  0  0  0  0  0
    3.9298    2.4951    2.0462 H   0  0  0  0  0  0  0  0  0  0  0  0
    2.5698    2.1317    1.0174 H   0  0  0  0  0  0  0  0  0  0  0  0
    2.1461    2.6863    2.4375 H   0  0  0  0  0  0  0  0  0  0  0  0
    7.9314   -3.0430    0.6556 H   0  0  0  0  0  0  0  0  0  0  0  0
    8.6537   -1.9378    1.8882 H   0  0  0  0  0  0  0  0  0  0  0  0
    8.8310   -3.6888    2.0333 H   0  0  0  0  0  0  0  0  0  0  0  0
  1  2  2  0  0  0  0
  1  9  1  0  0  0  0
  1 10  1  0  0  0  0
  2  3  1  0  0  0  0
  2  4  1  0  0  0  0
  3 13  2  0  0  0  0
  4  5  2  0  0  0  0
  5  6  1  0  0  0  0
  5 26  1  0  0  0  0
  6  7  1  0  0  0  0
  6  9  2  0  0  0  0
  7  8  1  0  0  0  0
  7 15  1  0  0  0  0
  8 27  1  0  0  0  0
  8 28  1  0  0  0  0
  8 29  1  0  0  0  0
  9 30  1  0  0  0  0
 10 11  1  0  0  0  0
 10 12  2  0  0  0  0
 11 31  1  0  0  0  0
 11 32  1  0  0  0  0
 12 13  1  0  0  0  0
 13 14  1  0  0  0  0
 14 33  1  0  0  0  0
 14 34  1  0  0  0  0
 15 16  1  0  0  0  0
 15 35  1  0  0  0  0
 15 36  1  0  0  0  0
 16 17  2  0  0  0  0
 16 21  1  0  0  0  0
 17 18  1  0  0  0  0
 17 22  1  0  0  0  0
 18 19  2  0  0  0  0
 18 37  1  0  0  0  0
 19 20  1  0  0  0  0
 19 38  1  0  0  0  0
 20 21  2  0  0  0  0
 20 24  1  0  0  0  0
 21 39  1  0  0  0  0
 22 23  1  0  0  0  0
 23 40  1  0  0  0  0
 23 41  1  0  0  0  0
 23 42  1  0  0  0  0
 24 25  1  0  0  0  0
 25 43  1  0  0  0  0
 25 44  1  0  0  0  0
 25 45  1  0  0  0  0
M  END
>  <DRUGBANK_ID>
DB02583

>  <SECONDARY_ACCESSION_NUMBERS>
EXPT02658

>  <COMMON_NAME>
N6-(2,5-Dimethoxy-Benzyl)-N6-Methyl-Pyrido[2,3-D]Pyrimidine-2,4,6-Triamine

>  <CAS_NUMBER>
175354-76-4

$$$$
