
 OpenBabel10282417113D

 66 66  0  0  1  0  0  0  0  0999 V2000
    1.5200   -0.0000    0.2080 C   0  0  2  0  0  0  0  0  0  0  0  0
    0.7810   -1.2660   -0.2190 C   0  0  2  0  0  0  0  0  0  0  0  0
    0.7750    1.2560   -0.2230 C   0  0  1  0  0  0  0  0  0  0  0  0
   -0.6760   -1.2000    0.2540 C   0  0  1  0  0  0  0  0  0  0  0  0
    1.4135   -2.3988    0.3583 O   0  0  0  0  0  0  0  0  0  0  0  0
   -0.6520    1.2010    0.2580 C   0  0  2  0  0  0  0  0  0  0  0  0
    1.4129    2.3922    0.3414 O   0  0  0  0  0  0  0  0  0  0  0  0
   -1.3130    0.0080   -0.2100 O   0  0  0  0  0  0  0  0  0  0  0  0
   -1.5690   -2.6216   -0.4225 S   0  0  0  0  0  0  0  0  0  0  0  0
   -1.3984    2.4185   -0.2627 C   0  0  0  0  0  0  0  0  0  0  0  0
    2.8101    0.0029   -0.3854 O   0  0  0  0  0  0  0  0  0  0  0  0
   -1.6562    2.3206   -1.6556 O   0  0  0  0  0  0  0  0  0  0  0  0
   -0.6892    2.7761   -2.5904 C   0  0  0  0  0  0  0  0  0  0  0  0
    0.4070    3.2715   -2.1803 O   0  0  0  0  0  0  0  0  0  0  0  0
   -0.9652    2.6713   -4.0815 C   0  0  0  0  0  0  0  0  0  0  0  0
    1.5184    2.5198    1.7517 C   0  0  0  0  0  0  0  0  0  0  0  0
    0.9485    1.4401    2.6572 C   0  0  0  0  0  0  0  0  0  0  0  0
    2.0893    3.5367    2.2568 O   0  0  0  0  0  0  0  0  0  0  0  0
    3.9688    0.0349    0.4348 C   0  0  0  0  0  0  0  0  0  0  0  0
    3.8282    0.0660    1.9480 C   0  0  0  0  0  0  0  0  0  0  0  0
    5.1234    0.0375   -0.0962 O   0  0  0  0  0  0  0  0  0  0  0  0
    2.5410   -1.8560    1.0295 C   0  0  0  0  0  0  0  0  0  0  0  0
    2.6277   -0.3596    1.2815 C   0  0  0  0  0  0  0  0  0  0  0  0
    3.4775   -2.6215    1.4196 O   0  0  0  0  0  0  0  0  0  0  0  0
   -1.4244   -2.4657   -5.2578 P   0  3  0  0  0  0  0  0  0  0  0  0
    0.3184   -2.4488   -5.8157 C   0  0  0  0  0  0  0  0  0  0  0  0
   -2.2694   -3.9380   -5.9411 C   0  0  0  0  0  0  0  0  0  0  0  0
   -2.2675   -0.9512   -5.8447 C   0  0  0  0  0  0  0  0  0  0  0  0
    1.0187   -3.7067   -5.3282 C   0  0  0  0  0  0  0  0  0  0  0  0
   -3.7151   -0.9653   -5.3813 C   0  0  0  0  0  0  0  0  0  0  0  0
   -1.4970   -2.5440   -2.8301 Au  0  5  0  0  0  0  0  0  0  0  0  0
   -3.7170   -3.9521   -5.4777 C   0  0  0  0  0  0  0  0  0  0  0  0
    1.5906    0.0024    1.2757 H   0  0  0  0  0  0  0  0  0  0  0  0
    0.8034   -1.3459   -1.2858 H   0  0  0  0  0  0  0  0  0  0  0  0
    0.7864    1.3256   -1.2907 H   0  0  0  0  0  0  0  0  0  0  0  0
   -0.6984   -1.2194    1.3236 H   0  0  0  0  0  0  0  0  0  0  0  0
   -0.6493    1.1900    1.3279 H   0  0  0  0  0  0  0  0  0  0  0  0
   -2.2326    2.0292    0.2827 H   0  0  0  0  0  0  0  0  0  0  0  0
   -1.2474    3.4445    0.0009 H   0  0  0  0  0  0  0  0  0  0  0  0
   -1.1161    1.6453   -4.3450 H   0  0  0  0  0  0  0  0  0  0  0  0
   -1.8427    3.2343   -4.3222 H   0  0  0  0  0  0  0  0  0  0  0  0
   -0.1309    3.0606   -4.6268 H   0  0  0  0  0  0  0  0  0  0  0  0
    1.7329    1.0256    3.2554 H   0  0  0  0  0  0  0  0  0  0  0  0
    0.2016    1.8662    3.2939 H   0  0  0  0  0  0  0  0  0  0  0  0
    0.5099    0.6684    2.0597 H   0  0  0  0  0  0  0  0  0  0  0  0
    4.3080   -0.7929    2.3686 H   0  0  0  0  0  0  0  0  0  0  0  0
    4.2867    0.9538    2.3306 H   0  0  0  0  0  0  0  0  0  0  0  0
    2.7908    0.0590    2.2100 H   0  0  0  0  0  0  0  0  0  0  0  0
    2.6884   -0.1781    2.3343 H   0  0  0  0  0  0  0  0  0  0  0  0
    3.4995    0.0331    0.8011 H   0  0  0  0  0  0  0  0  0  0  0  0
    1.7565    0.1198    0.8865 H   0  0  0  0  0  0  0  0  0  0  0  0
    0.3503   -2.4143   -6.8847 H   0  0  0  0  0  0  0  0  0  0  0  0
    0.8125   -1.5879   -5.4162 H   0  0  0  0  0  0  0  0  0  0  0  0
   -2.2375   -3.9036   -7.0101 H   0  0  0  0  0  0  0  0  0  0  0  0
   -1.7764   -4.8235   -5.5980 H   0  0  0  0  0  0  0  0  0  0  0  0
   -1.7734   -0.0903   -5.4452 H   0  0  0  0  0  0  0  0  0  0  0  0
   -2.2356   -0.9167   -6.9137 H   0  0  0  0  0  0  0  0  0  0  0  0
    0.5246   -4.5676   -5.7278 H   0  0  0  0  0  0  0  0  0  0  0  0
    2.0377   -3.6968   -5.6545 H   0  0  0  0  0  0  0  0  0  0  0  0
    0.9867   -3.7412   -4.2593 H   0  0  0  0  0  0  0  0  0  0  0  0
   -3.7470   -0.9997   -4.3123 H   0  0  0  0  0  0  0  0  0  0  0  0
   -4.2081   -0.0798   -5.7245 H   0  0  0  0  0  0  0  0  0  0  0  0
   -4.2092   -1.8262   -5.7809 H   0  0  0  0  0  0  0  0  0  0  0  0
   -4.2100   -3.0666   -5.8209 H   0  0  0  0  0  0  0  0  0  0  0  0
   -4.2111   -4.8130   -5.8773 H   0  0  0  0  0  0  0  0  0  0  0  0
   -3.7489   -3.9866   -4.4088 H   0  0  0  0  0  0  0  0  0  0  0  0
  1  2  1  0  0  0  0
  1  3  1  0  0  0  0
  1 33  1  1  0  0  0
  1 11  1  0  0  0  0
  2  4  1  0  0  0  0
  2 34  1  6  0  0  0
  2  5  1  0  0  0  0
  3  6  1  0  0  0  0
  3  7  1  0  0  0  0
  3 35  1  6  0  0  0
  4  8  1  0  0  0  0
  4  9  1  0  0  0  0
  4 36  1  1  0  0  0
  5 22  1  0  0  0  0
  6  8  1  0  0  0  0
  6 37  1  1  0  0  0
  6 10  1  0  0  0  0
  7 16  1  0  0  0  0
  9 31  1  0  0  0  0
 10 12  1  0  0  0  0
 10 38  1  0  0  0  0
 10 39  1  0  0  0  0
 11 19  1  0  0  0  0
 12 13  1  0  0  0  0
 13 14  2  0  0  0  0
 13 15  1  0  0  0  0
 15 40  1  0  0  0  0
 15 41  1  0  0  0  0
 15 42  1  0  0  0  0
 16 17  1  0  0  0  0
 16 18  2  0  0  0  0
 17 43  1  0  0  0  0
 17 44  1  0  0  0  0
 17 45  1  0  0  0  0
 19 20  1  0  0  0  0
 19 21  2  0  0  0  0
 20 46  1  0  0  0  0
 20 47  1  0  0  0  0
 20 48  1  0  0  0  0
 22 23  1  0  0  0  0
 22 24  2  0  0  0  0
 23 49  1  0  0  0  0
 23 50  1  0  0  0  0
 23 51  1  0  0  0  0
 25 26  1  0  0  0  0
 25 27  1  0  0  0  0
 25 28  1  0  0  0  0
 25 31  1  0  0  0  0
 26 29  1  0  0  0  0
 26 52  1  0  0  0  0
 26 53  1  0  0  0  0
 27 32  1  0  0  0  0
 27 54  1  0  0  0  0
 27 55  1  0  0  0  0
 28 30  1  0  0  0  0
 28 56  1  0  0  0  0
 28 57  1  0  0  0  0
 29 58  1  0  0  0  0
 29 59  1  0  0  0  0
 29 60  1  0  0  0  0
 30 61  1  0  0  0  0
 30 62  1  0  0  0  0
 30 63  1  0  0  0  0
 32 64  1  0  0  0  0
 32 65  1  0  0  0  0
 32 66  1  0  0  0  0
M  CHG  2  25   1  31  -1
M  END
>  <DRUGBANK_ID>
DB00995

>  <SECONDARY_ACCESSION_NUMBERS>
APRD00808

>  <COMMON_NAME>
Auranofin

>  <CAS_NUMBER>
34031-32-8

>  <UNII>
3H04W2810V

>  <SYNONYMS>
(1-Thio-beta-D-glucopyranosato)(triethylphosphine)gold 2,3,4,6-tetraacetate; 2,3,4,6-Tetra-O-acetyl-1-thio-beta-D-glucopyranosato-S (triethylphosphine)gold; Auranofin; Auranofina; Auranofine; Auranofinum; Triethylphosphine gold

$$$$
