
 OpenBabel10282417123D

 16 15  0  0  1  0  0  0  0  0999 V2000
    1.0720   -1.6234   -1.7089 N   0  0  0  0  0  0  0  0  0  0  0  0
    0.4955   -0.3295   -1.2823 C   0  0  2  0  0  0  0  0  0  0  0  0
    0.9846    0.0550    0.1171 C   0  0  0  0  0  0  0  0  0  0  0  0
    0.1065   -0.4008    1.2549 C   0  0  0  0  0  0  0  0  0  0  0  0
    0.6649   -1.3331    2.0555 O   0  0  0  0  0  0  0  0  0  0  0  0
   -0.9943    0.0780    1.4834 O   0  0  0  0  0  0  0  0  0  0  0  0
   -1.0401   -0.4174   -1.4250 C   0  0  0  0  0  0  0  0  0  0  0  0
   -1.5893    0.5430   -2.2045 O   0  0  0  0  0  0  0  0  0  0  0  0
   -1.7121   -1.3147   -0.9334 O   0  0  0  0  0  0  0  0  0  0  0  0
    0.6797   -2.3649   -1.1204 H   0  0  0  0  0  0  0  0  0  0  0  0
    2.0827   -1.6420   -1.6058 H   0  0  0  0  0  0  0  0  0  0  0  0
    0.8755    0.4110   -1.9966 H   0  0  0  0  0  0  0  0  0  0  0  0
    2.0195   -0.2738    0.2781 H   0  0  0  0  0  0  0  0  0  0  0  0
    1.0296    1.1492    0.1982 H   0  0  0  0  0  0  0  0  0  0  0  0
    1.5850   -1.5833    1.8556 H   0  0  0  0  0  0  0  0  0  0  0  0
   -0.9582    1.1184   -2.6727 H   0  0  0  0  0  0  0  0  0  0  0  0
  1 10  1  0  0  0  0
  1 11  1  0  0  0  0
  2  7  1  0  0  0  0
  2 12  1  6  0  0  0
  2  3  1  0  0  0  0
  2  1  1  0  0  0  0
  3  4  1  0  0  0  0
  3 13  1  0  0  0  0
  3 14  1  0  0  0  0
  4  5  1  0  0  0  0
  4  6  2  0  0  0  0
  5 15  1  0  0  0  0
  7  8  1  0  0  0  0
  7  9  2  0  0  0  0
  8 16  1  0  0  0  0
M  END
>  <DRUGBANK_ID>
DB02655

>  <SECONDARY_ACCESSION_NUMBERS>
EXPT01114

>  <COMMON_NAME>
D-Aspartic Acid

>  <CAS_NUMBER>
1783-96-6

>  <UNII>
4SR0Q8YD1X

$$$$
