
 OpenBabel10282417213D

 37 38  0  0  0  0  0  0  0  0999 V2000
    1.0852    0.0644    0.0049 C   0  0  0  0  0  0  0  0  0  0  0  0
    0.5113    0.6811   -1.2879 C   0  0  0  0  0  0  0  0  0  0  0  0
    1.0383   -0.1538   -2.4677 C   0  0  0  0  0  0  0  0  0  0  0  0
   -1.0191    0.5797   -1.0782 C   0  0  0  0  0  0  0  0  0  0  0  0
   -1.7772    1.4647   -0.6940 O   0  0  0  0  0  0  0  0  0  0  0  0
   -1.5388   -0.6406   -1.3112 O   0  0  0  0  0  0  0  0  0  0  0  0
    1.0645    2.0101   -1.3828 O   0  0  0  0  0  0  0  0  0  0  0  0
    0.7469    2.7626   -2.4844 C   0  0  0  0  0  0  0  0  0  0  0  0
   -0.5351    2.8723   -3.0104 C   0  0  0  0  0  0  0  0  0  0  0  0
   -0.8053    3.6663   -4.1143 C   0  0  0  0  0  0  0  0  0  0  0  0
    0.2083    4.3948   -4.7208 C   0  0  0  0  0  0  0  0  0  0  0  0
    1.4978    4.3428   -4.1725 C   0  0  0  0  0  0  0  0  0  0  0  0
    1.7701    3.5067   -3.0748 C   0  0  0  0  0  0  0  0  0  0  0  0
   -0.0517    5.1298   -5.9885 C   0  0  0  0  0  0  0  0  0  0  0  0
    0.8664    5.6759   -6.5910 O   0  0  0  0  0  0  0  0  0  0  0  0
   -1.4113    5.1707   -6.5848 C   0  0  0  0  0  0  0  0  0  0  0  0
   -2.4783    5.7243   -5.8658 C   0  0  0  0  0  0  0  0  0  0  0  0
   -3.7446    5.8034   -6.4465 C   0  0  0  0  0  0  0  0  0  0  0  0
   -3.9318    5.3686   -7.7577 C   0  0  0  0  0  0  0  0  0  0  0  0
   -2.8654    4.8443   -8.4898 C   0  0  0  0  0  0  0  0  0  0  0  0
   -1.6097    4.7045   -7.8896 C   0  0  0  0  0  0  0  0  0  0  0  0
   -5.4974    5.4545   -8.4655 Cl  0  0  0  0  0  0  0  0  0  0  0  0
    0.7583   -0.9760    0.1292 H   0  0  0  0  0  0  0  0  0  0  0  0
    0.7498    0.6225    0.8872 H   0  0  0  0  0  0  0  0  0  0  0  0
    2.1798    0.0824    0.0119 H   0  0  0  0  0  0  0  0  0  0  0  0
    0.7206   -1.1988   -2.4172 H   0  0  0  0  0  0  0  0  0  0  0  0
    0.7054    0.2479   -3.4299 H   0  0  0  0  0  0  0  0  0  0  0  0
    2.1362   -0.1302   -2.4877 H   0  0  0  0  0  0  0  0  0  0  0  0
   -2.4964   -0.5073   -1.1379 H   0  0  0  0  0  0  0  0  0  0  0  0
   -1.3969    2.3647   -2.6159 H   0  0  0  0  0  0  0  0  0  0  0  0
   -1.8303    3.6702   -4.4663 H   0  0  0  0  0  0  0  0  0  0  0  0
    2.3000    4.9362   -4.6077 H   0  0  0  0  0  0  0  0  0  0  0  0
    2.7906    3.4162   -2.7083 H   0  0  0  0  0  0  0  0  0  0  0  0
   -2.3326    6.0845   -4.8504 H   0  0  0  0  0  0  0  0  0  0  0  0
   -4.5719    6.2200   -5.8778 H   0  0  0  0  0  0  0  0  0  0  0  0
   -3.0048    4.5544   -9.5285 H   0  0  0  0  0  0  0  0  0  0  0  0
   -0.7954    4.2378   -8.4403 H   0  0  0  0  0  0  0  0  0  0  0  0
  1  2  1  0  0  0  0
  1 23  1  0  0  0  0
  1 24  1  0  0  0  0
  1 25  1  0  0  0  0
  2  3  1  0  0  0  0
  2  4  1  0  0  0  0
  2  7  1  0  0  0  0
  3 26  1  0  0  0  0
  3 27  1  0  0  0  0
  3 28  1  0  0  0  0
  4  5  2  0  0  0  0
  4  6  1  0  0  0  0
  6 29  1  0  0  0  0
  7  8  1  0  0  0  0
  8  9  2  0  0  0  0
  8 13  1  0  0  0  0
  9 10  1  0  0  0  0
  9 30  1  0  0  0  0
 10 11  2  0  0  0  0
 10 31  1  0  0  0  0
 11 12  1  0  0  0  0
 11 14  1  0  0  0  0
 12 13  2  0  0  0  0
 12 32  1  0  0  0  0
 13 33  1  0  0  0  0
 14 15  2  0  0  0  0
 14 16  1  0  0  0  0
 16 17  2  0  0  0  0
 16 21  1  0  0  0  0
 17 18  1  0  0  0  0
 17 34  1  0  0  0  0
 18 19  2  0  0  0  0
 18 35  1  0  0  0  0
 19 20  1  0  0  0  0
 19 22  1  0  0  0  0
 20 21  2  0  0  0  0
 20 36  1  0  0  0  0
 21 37  1  0  0  0  0
M  END
>  <DRUGBANK_ID>
DB13873

>  <COMMON_NAME>
Fenofibric acid

>  <CAS_NUMBER>
42017-89-0

>  <UNII>
BGF9MN2HU1

$$$$
