76V
 OpenBabel10282417163D

 57 57  0  0  0  0  0  0  0  0999 V2000
    1.9071    6.7245    7.6969 C   0  0  0  0  0  0  0  0  0  0  0  0
    2.5537    7.9622    8.3134 C   0  0  0  0  0  0  0  0  0  0  0  0
    3.7431    4.9066    7.6453 C   0  0  0  0  0  0  0  0  0  0  0  0
    3.9193    4.9178    8.8304 O   0  0  0  0  0  0  0  0  0  0  0  0
    2.8860    5.8190    7.0368 O   0  0  0  0  0  0  0  0  0  0  0  0
    4.2589    3.4582    5.3191 C   0  0  2  0  0  0  0  0  0  0  0  0
    4.7227    4.1986    6.6227 C   0  0  2  0  0  0  0  0  0  0  0  0
    4.7871    2.7830    6.4735 O   0  0  0  0  0  0  0  0  0  0  0  0
    5.0093    3.5536    4.0035 C   0  0  0  0  0  0  0  0  0  0  0  0
    6.1576    3.1440    3.8629 O   0  0  0  0  0  0  0  0  0  0  0  0
    4.3598    4.1175    2.9004 N   0  0  0  0  0  0  0  0  0  0  0  0
    2.9676    4.5766    2.7321 C   0  0  2  0  0  0  0  0  0  0  0  0
    2.2781    4.8449    4.0376 C   0  0  0  0  0  0  0  0  0  0  0  0
    1.4690    4.1143    4.6066 O   0  0  0  0  0  0  0  0  0  0  0  0
    2.0465    3.7579    1.8388 C   0  0  2  0  0  0  0  0  0  0  0  0
    1.7815    2.3456    2.3671 C   0  0  0  0  0  0  0  0  0  0  0  0
    2.5921    3.7556    0.4138 C   0  0  0  0  0  0  0  0  0  0  0  0
    0.7384    1.6649    1.5121 C   0  0  0  0  0  0  0  0  0  0  0  0
    2.7574    5.8717    4.7541 N   0  0  0  0  0  0  0  0  0  0  0  0
    3.4431    7.1163    4.3646 C   0  0  2  0  0  0  0  0  0  0  0  0
    4.9225    7.3447    4.7907 C   0  0  0  0  0  0  0  0  0  0  0  0
    5.2802    6.6243    5.8482 O   0  0  0  0  0  0  0  0  0  0  0  0
    2.5662    8.2606    4.8863 C   0  0  2  0  0  0  0  0  0  0  0  0
    1.1166    8.1949    4.3905 C   0  0  0  0  0  0  0  0  0  0  0  0
    3.2183    9.6094    4.6905 C   0  0  0  0  0  0  0  0  0  0  0  0
    1.1011    8.0426    2.8903 C   0  0  0  0  0  0  0  0  0  0  0  0
    5.6730    8.1814    4.3182 O   0  0  0  0  0  0  0  0  0  0  0  0
    3.2949    3.0292    5.1394 H   0  0  0  0  0  0  0  0  0  0  0  0
    5.7291    4.6083    6.6913 H   0  0  0  0  0  0  0  0  0  0  0  0
    3.0582    5.5427    2.2299 H   0  0  0  0  0  0  0  0  0  0  0  0
    1.0809    4.2915    1.8148 H   0  0  0  0  0  0  0  0  0  0  0  0
    3.5158    7.1151    3.2874 H   0  0  0  0  0  0  0  0  0  0  0  0
    2.4894    8.1844    5.9485 H   0  0  0  0  0  0  0  0  0  0  0  0
    1.1870    7.0682    6.9288 H   0  0  0  0  0  0  0  0  0  0  0  0
    1.2819    6.1474    8.3716 H   0  0  0  0  0  0  0  0  0  0  0  0
    3.3088    7.6431    9.0226 H   0  0  0  0  0  0  0  0  0  0  0  0
    3.0988    8.6152    7.6193 H   0  0  0  0  0  0  0  0  0  0  0  0
    1.8023    8.6055    8.7860 H   0  0  0  0  0  0  0  0  0  0  0  0
    4.9144    4.0915    2.0470 H   0  0  0  0  0  0  0  0  0  0  0  0
    2.7117    1.7734    2.4291 H   0  0  0  0  0  0  0  0  0  0  0  0
    1.3621    2.3475    3.3751 H   0  0  0  0  0  0  0  0  0  0  0  0
    1.9015    3.2714   -0.2785 H   0  0  0  0  0  0  0  0  0  0  0  0
    2.7362    4.7782    0.0496 H   0  0  0  0  0  0  0  0  0  0  0  0
    3.5490    3.2290    0.3746 H   0  0  0  0  0  0  0  0  0  0  0  0
    1.1191    1.4793    0.5076 H   0  0  0  0  0  0  0  0  0  0  0  0
    0.4520    0.7125    1.9579 H   0  0  0  0  0  0  0  0  0  0  0  0
   -0.1515    2.3021    1.4439 H   0  0  0  0  0  0  0  0  0  0  0  0
    2.2665    5.7959    5.6408 H   0  0  0  0  0  0  0  0  0  0  0  0
    4.4425    6.1880    6.0564 H   0  0  0  0  0  0  0  0  0  0  0  0
    0.5727    7.3485    4.8370 H   0  0  0  0  0  0  0  0  0  0  0  0
    0.5767    9.0917    4.7124 H   0  0  0  0  0  0  0  0  0  0  0  0
    2.5796   10.4075    5.0652 H   0  0  0  0  0  0  0  0  0  0  0  0
    4.1382    9.6706    5.2830 H   0  0  0  0  0  0  0  0  0  0  0  0
    3.4582    9.7522    3.6377 H   0  0  0  0  0  0  0  0  0  0  0  0
    1.5250    7.0813    2.5993 H   0  0  0  0  0  0  0  0  0  0  0  0
    0.0875    8.0658    2.5009 H   0  0  0  0  0  0  0  0  0  0  0  0
    1.7065    8.8270    2.4326 H   0  0  0  0  0  0  0  0  0  0  0  0
  1  2  1  0  0  0  0
  1  5  1  0  0  0  0
  1 34  1  0  0  0  0
  1 35  1  0  0  0  0
  2 36  1  0  0  0  0
  2 37  1  0  0  0  0
  2 38  1  0  0  0  0
  3  4  2  0  0  0  0
  3  5  1  0  0  0  0
  6  7  1  0  0  0  0
  6  8  1  0  0  0  0
  6 28  1  6  0  0  0
  6  9  1  0  0  0  0
  7  3  1  0  0  0  0
  7  8  1  0  0  0  0
  7 29  1  6  0  0  0
  9 10  2  0  0  0  0
  9 11  1  0  0  0  0
 11 39  1  0  0  0  0
 12 30  1  6  0  0  0
 12 13  1  0  0  0  0
 12 11  1  0  0  0  0
 13 14  2  0  0  0  0
 13 19  1  0  0  0  0
 15 17  1  0  0  0  0
 15 31  1  6  0  0  0
 15 16  1  0  0  0  0
 15 12  1  0  0  0  0
 16 18  1  0  0  0  0
 16 40  1  0  0  0  0
 16 41  1  0  0  0  0
 17 42  1  0  0  0  0
 17 43  1  0  0  0  0
 17 44  1  0  0  0  0
 18 45  1  0  0  0  0
 18 46  1  0  0  0  0
 18 47  1  0  0  0  0
 19 48  1  0  0  0  0
 20 32  1  6  0  0  0
 20 21  1  0  0  0  0
 20 19  1  0  0  0  0
 21 22  1  0  0  0  0
 21 27  2  0  0  0  0
 22 49  1  0  0  0  0
 23 25  1  0  0  0  0
 23 33  1  1  0  0  0
 23 24  1  0  0  0  0
 23 20  1  0  0  0  0
 24 26  1  0  0  0  0
 24 50  1  0  0  0  0
 24 51  1  0  0  0  0
 25 52  1  0  0  0  0
 25 53  1  0  0  0  0
 25 54  1  0  0  0  0
 26 55  1  0  0  0  0
 26 56  1  0  0  0  0
 26 57  1  0  0  0  0
M  END
>  <DRUGBANK_ID>
DB07225

>  <COMMON_NAME>
N-{[(2S,3S)-3-(ETHOXYCARBONYL)OXIRAN-2-YL]CARBONYL}-L-ISOLEUCYL-L-ISOLEUCINE

$$$$
