
 OpenBabel10282417243D

 66 70  0  0  1  0  0  0  0  0999 V2000
    0.3626   -8.4003    1.2007 N   0  0  0  0  0  0  0  0  0  0  0  0
   -0.1250   -7.2567    1.7695 C   0  0  0  0  0  0  0  0  0  0  0  0
    0.2235   -6.1157    1.1631 N   0  0  0  0  0  0  0  0  0  0  0  0
   -0.2653   -5.0083    1.7154 C   0  0  0  0  0  0  0  0  0  0  0  0
    0.0434   -3.7656    1.1913 O   0  0  0  0  0  0  0  0  0  0  0  0
    0.9267   -3.7195    0.0627 C   0  0  2  0  0  0  0  0  0  0  0  0
    1.9366   -2.5378    0.0737 C   0  0  0  0  0  0  0  0  0  0  0  0
    2.9559   -2.6700   -0.9093 C   0  0  0  0  0  0  0  0  0  0  0  0
    4.0971   -1.8809   -0.9214 C   0  0  0  0  0  0  0  0  0  0  0  0
    4.2498   -0.9143    0.0505 C   0  0  0  0  0  0  0  0  0  0  0  0
    5.7260   -0.0378    0.1367 Cl  0  0  0  0  0  0  0  0  0  0  0  0
    3.2228   -0.6758    0.9647 C   0  0  0  0  0  0  0  0  0  0  0  0
    2.0301   -1.4517    0.9853 C   0  0  0  0  0  0  0  0  0  0  0  0
    0.9992   -1.0449    1.9677 C   0  0  0  0  0  0  0  0  0  0  0  0
    0.5906   -1.8901    3.0039 C   0  0  0  0  0  0  0  0  0  0  0  0
   -0.4226   -1.5290    3.8952 C   0  0  0  0  0  0  0  0  0  0  0  0
   -0.9508   -0.2471    3.8588 C   0  0  0  0  0  0  0  0  0  0  0  0
   -0.4686    0.6640    2.9249 C   0  0  0  0  0  0  0  0  0  0  0  0
    0.4539    0.2532    1.9539 C   0  0  0  0  0  0  0  0  0  0  0  0
    0.0880   -3.7684   -1.2264 C   0  0  0  0  0  0  0  0  0  0  0  0
    0.8471   -3.7495   -2.3498 F   0  0  0  0  0  0  0  0  0  0  0  0
   -0.6513   -4.9000   -1.3008 F   0  0  0  0  0  0  0  0  0  0  0  0
   -0.7656   -2.7213   -1.3079 F   0  0  0  0  0  0  0  0  0  0  0  0
   -1.0781   -5.0144    2.8259 C   0  0  0  0  0  0  0  0  0  0  0  0
   -1.3869   -6.2302    3.4036 C   0  0  0  0  0  0  0  0  0  0  0  0
   -0.8867   -7.3621    2.8786 N   0  0  0  0  0  0  0  0  0  0  0  0
   -2.2310   -6.2507    4.5026 N   0  0  0  0  0  0  0  0  0  0  0  0
   -3.5753   -5.6926    4.3928 C   0  0  0  0  0  0  0  0  0  0  0  0
   -3.7553   -4.6537    5.4970 C   0  0  0  0  0  0  0  0  0  0  0  0
   -3.5138   -5.2674    6.8944 C   0  0  3  0  0  0  0  0  0  0  0  0
   -4.6038   -6.2930    7.2708 C   0  0  0  0  0  0  0  0  0  0  0  0
   -4.9119   -6.0540    8.6886 N   0  0  0  0  0  0  0  0  0  0  0  0
   -4.7989   -4.5916    8.8661 C   0  0  1  0  0  0  0  0  0  0  0  0
   -3.6299   -4.1753    7.9801 C   0  0  0  0  0  0  0  0  0  0  0  0
   -6.0874   -3.8623    8.4356 C   0  0  0  0  0  0  0  0  0  0  0  0
   -6.6069   -3.0394    9.3757 O   0  0  0  0  0  0  0  0  0  0  0  0
   -6.5963   -3.9431    7.3176 O   0  0  0  0  0  0  0  0  0  0  0  0
   -2.1004   -5.9135    6.9055 C   0  0  0  0  0  0  0  0  0  0  0  0
   -1.9125   -6.9304    5.7516 C   0  0  0  0  0  0  0  0  0  0  0  0
    0.0336   -9.2816    1.5520 H   0  0  0  0  0  0  0  0  0  0  0  0
    0.8679   -8.3066    0.3358 H   0  0  0  0  0  0  0  0  0  0  0  0
    1.5965   -4.5907    0.0924 H   0  0  0  0  0  0  0  0  0  0  0  0
    2.8958   -3.4472   -1.6705 H   0  0  0  0  0  0  0  0  0  0  0  0
    4.8686   -2.0730   -1.6612 H   0  0  0  0  0  0  0  0  0  0  0  0
    3.3643    0.1132    1.7040 H   0  0  0  0  0  0  0  0  0  0  0  0
    1.0404   -2.8740    3.1014 H   0  0  0  0  0  0  0  0  0  0  0  0
   -0.7847   -2.2506    4.6219 H   0  0  0  0  0  0  0  0  0  0  0  0
   -1.7229    0.0435    4.5653 H   0  0  0  0  0  0  0  0  0  0  0  0
   -0.8119    1.6949    2.9508 H   0  0  0  0  0  0  0  0  0  0  0  0
    0.7545    0.9685    1.1897 H   0  0  0  0  0  0  0  0  0  0  0  0
   -1.4415   -4.0928    3.2513 H   0  0  0  0  0  0  0  0  0  0  0  0
   -3.7685   -5.2358    3.4162 H   0  0  0  0  0  0  0  0  0  0  0  0
   -4.3147   -6.4943    4.5130 H   0  0  0  0  0  0  0  0  0  0  0  0
   -3.0424   -3.8325    5.3369 H   0  0  0  0  0  0  0  0  0  0  0  0
   -4.7563   -4.2137    5.4325 H   0  0  0  0  0  0  0  0  0  0  0  0
   -5.5102   -6.1755    6.6669 H   0  0  0  0  0  0  0  0  0  0  0  0
   -4.2843   -7.3316    7.1447 H   0  0  0  0  0  0  0  0  0  0  0  0
   -4.1981   -6.5187    9.2495 H   0  0  0  0  0  0  0  0  0  0  0  0
   -4.5881   -4.3645    9.9167 H   0  0  0  0  0  0  0  0  0  0  0  0
   -2.7116   -4.1233    8.5767 H   0  0  0  0  0  0  0  0  0  0  0  0
   -3.7917   -3.1810    7.5469 H   0  0  0  0  0  0  0  0  0  0  0  0
   -6.1522   -3.0475   10.2379 H   0  0  0  0  0  0  0  0  0  0  0  0
   -1.3492   -5.1178    6.7964 H   0  0  0  0  0  0  0  0  0  0  0  0
   -1.9102   -6.3929    7.8737 H   0  0  0  0  0  0  0  0  0  0  0  0
   -2.5890   -7.7805    5.8968 H   0  0  0  0  0  0  0  0  0  0  0  0
   -0.8919   -7.3262    5.7785 H   0  0  0  0  0  0  0  0  0  0  0  0
  1  2  1  0  0  0  0
  1 40  1  0  0  0  0
  1 41  1  0  0  0  0
  2  3  2  0  0  0  0
  2 26  1  0  0  0  0
  3  4  1  0  0  0  0
  4  5  1  0  0  0  0
  4 24  2  0  0  0  0
  6 20  1  0  0  0  0
  6 42  1  1  0  0  0
  6  7  1  0  0  0  0
  6  5  1  0  0  0  0
  7  8  2  0  0  0  0
  7 13  1  0  0  0  0
  8  9  1  0  0  0  0
  8 43  1  0  0  0  0
  9 10  2  0  0  0  0
  9 44  1  0  0  0  0
 10 11  1  0  0  0  0
 10 12  1  0  0  0  0
 12 13  2  0  0  0  0
 12 45  1  0  0  0  0
 13 14  1  0  0  0  0
 14 15  2  0  0  0  0
 14 19  1  0  0  0  0
 15 16  1  0  0  0  0
 15 46  1  0  0  0  0
 16 17  2  0  0  0  0
 16 47  1  0  0  0  0
 17 18  1  0  0  0  0
 17 48  1  0  0  0  0
 18 19  2  0  0  0  0
 18 49  1  0  0  0  0
 19 50  1  0  0  0  0
 20 21  1  0  0  0  0
 20 22  1  0  0  0  0
 20 23  1  0  0  0  0
 24 25  1  0  0  0  0
 24 51  1  0  0  0  0
 25 26  2  0  0  0  0
 25 27  1  0  0  0  0
 27 28  1  0  0  0  0
 27 39  1  0  0  0  0
 28 29  1  0  0  0  0
 28 52  1  0  0  0  0
 28 53  1  0  0  0  0
 29 30  1  0  0  0  0
 29 54  1  0  0  0  0
 29 55  1  0  0  0  0
 30 31  1  0  0  0  0
 30 34  1  0  0  0  0
 30 38  1  0  0  0  0
 31 32  1  0  0  0  0
 31 56  1  0  0  0  0
 31 57  1  0  0  0  0
 32 58  1  0  0  0  0
 33 32  1  0  0  0  0
 33 34  1  0  0  0  0
 33 35  1  0  0  0  0
 33 59  1  1  0  0  0
 34 60  1  0  0  0  0
 34 61  1  0  0  0  0
 35 36  1  0  0  0  0
 35 37  2  0  0  0  0
 36 62  1  0  0  0  0
 38 39  1  0  0  0  0
 38 63  1  0  0  0  0
 38 64  1  0  0  0  0
 39 65  1  0  0  0  0
 39 66  1  0  0  0  0
M  END
>  <DRUGBANK_ID>
DB18478

>  <COMMON_NAME>
Rodatristat

>  <CAS_NUMBER>
1673568-73-4

>  <UNII>
91D8378G2V

>  <SYNONYMS>
(3s)-8-(2-amino-6-((1r)-1-(5-chloro(1,1'-biphenyl)-2-yl)-2,2,2-trifluoroethoxy)-4-pyrimidinyl)-2,8-diazaspiro(4.5)decane-3-carboxylic acid; (3s)-8-(2-amino-6-((1r)-1-(5-chloro(1,1'-biphenyl)-2-yl)-2,2,2-trifluoroethoxy)pyrimidin-4-yl)-2,8-diazaspiro(4.5)decane-3-carboxylic acid; 2,8-diazaspiro(4.5)decane-3-carboxylic acid, 8-(2-amino-6-((1r)-1-(5-chloro(1,1'-biphenyl)-2-yl)-2,2,2-trifluoroethoxy)-4-pyrimidinyl)-, (3s)-

$$$$
