
 OpenBabel10282417223D

 76 79  0  0  1  0  0  0  0  0999 V2000
    0.8294    0.0103   -0.0722 C   0  0  0  0  0  0  0  0  0  0  0  0
    0.3863    0.9692    0.8882 O   0  0  0  0  0  0  0  0  0  0  0  0
    0.8049    0.7934    2.1869 C   0  0  0  0  0  0  0  0  0  0  0  0
    2.1315    0.5525    2.5852 C   0  0  0  0  0  0  0  0  0  0  0  0
    2.4560    0.4582    3.9414 C   0  0  0  0  0  0  0  0  0  0  0  0
    1.4813    0.6278    4.9258 C   0  0  0  0  0  0  0  0  0  0  0  0
    1.8406    0.4873    6.3866 C   0  0  0  0  0  0  0  0  0  0  0  0
    2.3491   -0.9296    6.6679 C   0  0  0  0  0  0  0  0  0  0  0  0
    2.8900    1.5234    6.7951 C   0  0  0  0  0  0  0  0  0  0  0  0
    0.1818    0.9317    4.5167 C   0  0  0  0  0  0  0  0  0  0  0  0
   -0.7757    1.1277    5.4341 F   0  0  0  0  0  0  0  0  0  0  0  0
   -0.1560    1.0312    3.1673 C   0  0  0  0  0  0  0  0  0  0  0  0
    3.2378    0.4388    1.6374 C   0  0  0  0  0  0  0  0  0  0  0  0
    3.5065    1.4466    0.7928 C   0  0  0  0  0  0  0  0  0  0  0  0
    2.8276    2.8020    0.7578 C   0  0  0  0  0  0  0  0  0  0  0  0
    3.8039    3.8489    0.9573 N   0  0  0  0  0  0  0  0  0  0  0  0
    4.8615    4.2096    0.0464 C   0  0  1  0  0  0  0  0  0  0  0  0
    4.3974    4.4140   -1.4040 C   0  0  0  0  0  0  0  0  0  0  0  0
    5.5596    5.3285    0.7930 C   0  0  2  0  0  0  0  0  0  0  0  0
    4.8628    5.4895    2.0375 O   0  0  0  0  0  0  0  0  0  0  0  0
    3.8178    4.6245    2.0794 C   0  0  0  0  0  0  0  0  0  0  0  0
    3.0093    4.5952    3.0045 O   0  0  0  0  0  0  0  0  0  0  0  0
    5.5342    6.6127    0.0442 C   0  0  0  0  0  0  0  0  0  0  0  0
    4.2951    7.1774   -0.2772 C   0  0  0  0  0  0  0  0  0  0  0  0
    4.2056    8.3311   -1.0341 C   0  0  0  0  0  0  0  0  0  0  0  0
    5.3860    8.9918   -1.3645 C   0  0  0  0  0  0  0  0  0  0  0  0
    6.6311    8.4901   -0.9528 C   0  0  0  0  0  0  0  0  0  0  0  0
    6.7100    7.2362   -0.3485 C   0  0  0  0  0  0  0  0  0  0  0  0
    7.8503    9.3656   -0.9940 C   0  0  0  0  0  0  0  0  0  0  0  0
    8.3594    9.5599    0.2549 F   0  0  0  0  0  0  0  0  0  0  0  0
    8.8563    8.8458   -1.7408 F   0  0  0  0  0  0  0  0  0  0  0  0
    7.5944   10.6060   -1.4885 F   0  0  0  0  0  0  0  0  0  0  0  0
    2.8596    8.8904   -1.3852 C   0  0  0  0  0  0  0  0  0  0  0  0
    2.6410   10.0843   -0.7766 F   0  0  0  0  0  0  0  0  0  0  0  0
    2.7180    9.1013   -2.7202 F   0  0  0  0  0  0  0  0  0  0  0  0
    1.8267    8.0808   -1.0214 F   0  0  0  0  0  0  0  0  0  0  0  0
    4.4089    1.2011   -0.3500 C   0  0  0  0  0  0  0  0  0  0  0  0
    5.2291   -0.0704   -0.4632 C   0  0  0  0  0  0  0  0  0  0  0  0
    6.6889    0.3397   -0.1404 C   0  0  0  0  0  0  0  0  0  0  0  0
    5.0071   -0.5567   -1.9015 C   0  0  0  0  0  0  0  0  0  0  0  0
    4.8678   -1.2068    0.4880 C   0  0  0  0  0  0  0  0  0  0  0  0
    3.8584   -0.9239    1.5813 C   0  0  0  0  0  0  0  0  0  0  0  0
    0.4250    0.3016   -1.0450 H   0  0  0  0  0  0  0  0  0  0  0  0
    0.4929   -0.9932    0.1909 H   0  0  0  0  0  0  0  0  0  0  0  0
    1.9013   -0.0167   -0.2442 H   0  0  0  0  0  0  0  0  0  0  0  0
    3.4897    0.2723    4.2294 H   0  0  0  0  0  0  0  0  0  0  0  0
    0.9464    0.6521    6.9999 H   0  0  0  0  0  0  0  0  0  0  0  0
    3.2616   -1.1542    6.1034 H   0  0  0  0  0  0  0  0  0  0  0  0
    2.5794   -1.0555    7.7298 H   0  0  0  0  0  0  0  0  0  0  0  0
    1.5974   -1.6761    6.3878 H   0  0  0  0  0  0  0  0  0  0  0  0
    2.5274    2.5403    6.6096 H   0  0  0  0  0  0  0  0  0  0  0  0
    3.1279    1.4323    7.8594 H   0  0  0  0  0  0  0  0  0  0  0  0
    3.8252    1.3992    6.2375 H   0  0  0  0  0  0  0  0  0  0  0  0
   -1.1698    1.2999    2.8921 H   0  0  0  0  0  0  0  0  0  0  0  0
    2.3139    2.9591   -0.1981 H   0  0  0  0  0  0  0  0  0  0  0  0
    2.0658    2.9139    1.5312 H   0  0  0  0  0  0  0  0  0  0  0  0
    5.6664    3.4832    0.0239 H   0  0  0  0  0  0  0  0  0  0  0  0
    5.2377    4.7087   -2.0396 H   0  0  0  0  0  0  0  0  0  0  0  0
    3.9610    3.5127   -1.8391 H   0  0  0  0  0  0  0  0  0  0  0  0
    3.6023    5.1565   -1.4954 H   0  0  0  0  0  0  0  0  0  0  0  0
    6.5869    5.0309    1.0462 H   0  0  0  0  0  0  0  0  0  0  0  0
    3.3774    6.6699    0.0277 H   0  0  0  0  0  0  0  0  0  0  0  0
    5.3313    9.9444   -1.8886 H   0  0  0  0  0  0  0  0  0  0  0  0
    7.6787    6.7896   -0.1216 H   0  0  0  0  0  0  0  0  0  0  0  0
    5.1686    1.9352   -0.2514 H   0  0  0  0  0  0  0  0  0  0  0  0
    3.8884    1.4523   -1.2813 H   0  0  0  0  0  0  0  0  0  0  0  0
    7.3828   -0.4975   -0.2146 H   0  0  0  0  0  0  0  0  0  0  0  0
    7.0492    1.1512   -0.7845 H   0  0  0  0  0  0  0  0  0  0  0  0
    6.7310    0.7178    0.8950 H   0  0  0  0  0  0  0  0  0  0  0  0
    3.9274   -0.7147   -2.0592 H   0  0  0  0  0  0  0  0  0  0  0  0
    5.3327    0.1798   -2.6431 H   0  0  0  0  0  0  0  0  0  0  0  0
    5.5061   -1.5072   -2.0916 H   0  0  0  0  0  0  0  0  0  0  0  0
    4.5091   -2.0691   -0.0857 H   0  0  0  0  0  0  0  0  0  0  0  0
    5.7803   -1.5776    0.9738 H   0  0  0  0  0  0  0  0  0  0  0  0
    3.0533   -1.6588    1.4512 H   0  0  0  0  0  0  0  0  0  0  0  0
    4.3392   -1.1484    2.5397 H   0  0  0  0  0  0  0  0  0  0  0  0
  1  2  1  0  0  0  0
  1 43  1  0  0  0  0
  1 44  1  0  0  0  0
  1 45  1  0  0  0  0
  2  3  1  0  0  0  0
  3  4  2  0  0  0  0
  3 12  1  0  0  0  0
  4  5  1  0  0  0  0
  4 13  1  0  0  0  0
  5  6  2  0  0  0  0
  5 46  1  0  0  0  0
  6  7  1  0  0  0  0
  6 10  1  0  0  0  0
  7  8  1  0  0  0  0
  7  9  1  0  0  0  0
  7 47  1  0  0  0  0
  8 48  1  0  0  0  0
  8 49  1  0  0  0  0
  8 50  1  0  0  0  0
  9 51  1  0  0  0  0
  9 52  1  0  0  0  0
  9 53  1  0  0  0  0
 10 11  1  0  0  0  0
 10 12  2  0  0  0  0
 12 54  1  0  0  0  0
 13 14  2  0  0  0  0
 13 42  1  0  0  0  0
 14 15  1  0  0  0  0
 14 37  1  0  0  0  0
 15 16  1  0  0  0  0
 15 55  1  0  0  0  0
 15 56  1  0  0  0  0
 16 21  1  0  0  0  0
 17 16  1  0  0  0  0
 17 18  1  0  0  0  0
 17 19  1  0  0  0  0
 17 57  1  6  0  0  0
 18 58  1  0  0  0  0
 18 59  1  0  0  0  0
 18 60  1  0  0  0  0
 19 20  1  0  0  0  0
 19 61  1  1  0  0  0
 19 23  1  0  0  0  0
 20 21  1  0  0  0  0
 21 22  2  0  0  0  0
 23 24  2  0  0  0  0
 23 28  1  0  0  0  0
 24 25  1  0  0  0  0
 24 62  1  0  0  0  0
 25 26  2  0  0  0  0
 25 33  1  0  0  0  0
 26 27  1  0  0  0  0
 26 63  1  0  0  0  0
 27 28  2  0  0  0  0
 27 29  1  0  0  0  0
 28 64  1  0  0  0  0
 29 30  1  0  0  0  0
 29 31  1  0  0  0  0
 29 32  1  0  0  0  0
 33 34  1  0  0  0  0
 33 35  1  0  0  0  0
 33 36  1  0  0  0  0
 37 38  1  0  0  0  0
 37 65  1  0  0  0  0
 37 66  1  0  0  0  0
 38 39  1  0  0  0  0
 38 40  1  0  0  0  0
 38 41  1  0  0  0  0
 39 67  1  0  0  0  0
 39 68  1  0  0  0  0
 39 69  1  0  0  0  0
 40 70  1  0  0  0  0
 40 71  1  0  0  0  0
 40 72  1  0  0  0  0
 41 42  1  0  0  0  0
 41 73  1  0  0  0  0
 41 74  1  0  0  0  0
 42 75  1  0  0  0  0
 42 76  1  0  0  0  0
M  END
>  <DRUGBANK_ID>
DB15437

>  <COMMON_NAME>
Rocacetrapib

>  <CAS_NUMBER>
1402796-27-3

>  <UNII>
K9SP3L3YQP

>  <SYNONYMS>
Rocacetrapib

$$$$
