24U
 OpenBabel10282417163D

 47 48  0  0  0  0  0  0  0  0999 V2000
   -1.0646    0.4237    0.3045 N   0  0  0  0  0  0  0  0  0  0  0  0
   -0.7320   -0.9966   -0.0057 C   0  0  2  0  0  0  0  0  0  0  0  0
   -1.4897   -2.1346    0.6736 C   0  0  0  0  0  0  0  0  0  0  0  0
   -1.3728   -3.3217    0.3300 O   0  0  0  0  0  0  0  0  0  0  0  0
   -2.3532   -1.7169    1.6209 N   0  0  0  0  0  0  0  0  0  0  0  0
   -3.5567   -2.4108    2.0047 C   0  0  0  0  0  0  0  0  0  0  0  0
   -3.7114   -2.2207    3.4721 C   0  0  0  0  0  0  0  0  0  0  0  0
   -3.7715   -3.3510    4.2703 C   0  0  0  0  0  0  0  0  0  0  0  0
   -3.8612   -3.2106    5.6450 C   0  0  0  0  0  0  0  0  0  0  0  0
   -3.7918   -1.9422    6.2413 C   0  0  0  0  0  0  0  0  0  0  0  0
   -3.7079   -1.8000    7.7245 C   0  0  0  0  0  0  0  0  0  0  0  0
   -3.6204   -0.5811    8.3147 N   0  0  0  0  0  0  0  0  0  0  0  0
   -3.6952   -2.8099    8.5375 N   0  0  0  0  0  0  0  0  0  0  0  0
   -3.7488   -0.8031    5.4312 C   0  0  0  0  0  0  0  0  0  0  0  0
   -3.7322   -0.9403    4.0520 C   0  0  0  0  0  0  0  0  0  0  0  0
    0.7326   -1.1148    0.3707 C   0  0  0  0  0  0  0  0  0  0  0  0
    1.3047    0.2162   -0.0753 C   0  0  0  0  0  0  0  0  0  0  0  0
    0.1586    1.2166    0.1070 C   0  0  0  0  0  0  0  0  0  0  0  0
   -2.2685    1.1210    0.4352 C   0  0  0  0  0  0  0  0  0  0  0  0
   -3.6752    0.4794    0.3626 C   0  0  0  0  0  0  0  0  0  0  0  0
   -4.1576   -0.2245   -0.9045 C   0  0  0  0  0  0  0  0  0  0  0  0
   -3.1727   -1.1051   -1.6202 C   0  0  0  0  0  0  0  0  0  0  0  0
   -2.2351    2.3167    0.7652 O   0  0  0  0  0  0  0  0  0  0  0  0
   -0.7391   -1.1380   -1.0891 H   0  0  0  0  0  0  0  0  0  0  0  0
   -2.1992   -0.7785    1.9719 H   0  0  0  0  0  0  0  0  0  0  0  0
   -4.4470   -1.9886    1.5178 H   0  0  0  0  0  0  0  0  0  0  0  0
   -3.5199   -3.4536    1.6786 H   0  0  0  0  0  0  0  0  0  0  0  0
   -3.7188   -4.3394    3.8190 H   0  0  0  0  0  0  0  0  0  0  0  0
   -3.9664   -4.1229    6.2158 H   0  0  0  0  0  0  0  0  0  0  0  0
   -3.4629    0.2822    7.8213 H   0  0  0  0  0  0  0  0  0  0  0  0
   -3.4480   -0.5866    9.3115 H   0  0  0  0  0  0  0  0  0  0  0  0
   -3.7577   -3.7032    8.0518 H   0  0  0  0  0  0  0  0  0  0  0  0
   -3.7147    0.2020    5.8359 H   0  0  0  0  0  0  0  0  0  0  0  0
   -3.6828   -0.0351    3.4500 H   0  0  0  0  0  0  0  0  0  0  0  0
    0.8403   -1.2558    1.4504 H   0  0  0  0  0  0  0  0  0  0  0  0
    1.1981   -1.9655   -0.1393 H   0  0  0  0  0  0  0  0  0  0  0  0
    2.1956    0.4803    0.4997 H   0  0  0  0  0  0  0  0  0  0  0  0
    1.5998    0.1606   -1.1318 H   0  0  0  0  0  0  0  0  0  0  0  0
    0.3252    1.8882    0.9533 H   0  0  0  0  0  0  0  0  0  0  0  0
    0.0534    1.8301   -0.7998 H   0  0  0  0  0  0  0  0  0  0  0  0
   -3.8718   -0.1116    1.2444 H   0  0  0  0  0  0  0  0  0  0  0  0
   -4.4054    1.2787    0.5712 H   0  0  0  0  0  0  0  0  0  0  0  0
   -5.0409   -0.8323   -0.6697 H   0  0  0  0  0  0  0  0  0  0  0  0
   -4.4612    0.5501   -1.6090 H   0  0  0  0  0  0  0  0  0  0  0  0
   -2.9853   -2.0137   -1.0519 H   0  0  0  0  0  0  0  0  0  0  0  0
   -3.4869   -1.4556   -2.6006 H   0  0  0  0  0  0  0  0  0  0  0  0
   -2.2905   -0.5046   -1.8137 H   0  0  0  0  0  0  0  0  0  0  0  0
  1 19  1  0  0  0  0
  2  1  1  0  0  0  0
  2 24  1  6  0  0  0
  2  3  1  0  0  0  0
  3  5  1  0  0  0  0
  4  3  2  0  0  0  0
  5 25  1  0  0  0  0
  6  5  1  0  0  0  0
  6  7  1  0  0  0  0
  6 26  1  0  0  0  0
  6 27  1  0  0  0  0
  7 15  2  0  0  0  0
  7  8  1  0  0  0  0
  8  9  2  0  0  0  0
  8 28  1  0  0  0  0
  9 10  1  0  0  0  0
  9 29  1  0  0  0  0
 10 11  1  0  0  0  0
 11 13  2  0  0  0  0
 11 12  1  0  0  0  0
 12 30  1  0  0  0  0
 12 31  1  0  0  0  0
 13 32  1  0  0  0  0
 14 10  2  0  0  0  0
 14 33  1  0  0  0  0
 15 14  1  0  0  0  0
 15 34  1  0  0  0  0
 16  2  1  0  0  0  0
 16 17  1  0  0  0  0
 16 35  1  0  0  0  0
 16 36  1  0  0  0  0
 17 18  1  0  0  0  0
 17 37  1  0  0  0  0
 17 38  1  0  0  0  0
 18  1  1  0  0  0  0
 18 39  1  0  0  0  0
 18 40  1  0  0  0  0
 19 23  2  0  0  0  0
 19 20  1  0  0  0  0
 20 21  1  0  0  0  0
 20 41  1  0  0  0  0
 20 42  1  0  0  0  0
 21 22  1  0  0  0  0
 21 43  1  0  0  0  0
 21 44  1  0  0  0  0
 22 45  1  0  0  0  0
 22 46  1  0  0  0  0
 22 47  1  0  0  0  0
M  END
>  <DRUGBANK_ID>
DB06929

>  <COMMON_NAME>
1-butanoyl-N-(4-carbamimidoylbenzyl)-L-prolinamide

$$$$
