500
 OpenBabel10282417103D

 34 35  0  0  0  0  0  0  0  0999 V2000
    1.0132   -0.0372    0.0028 O   0  0  0  0  0  0  0  0  0  0  0  0
    5.3165    6.1899   -1.5407 O   0  0  0  0  0  0  0  0  0  0  0  0
    3.6998    5.1126   -2.6772 O   0  0  0  0  0  0  0  0  0  0  0  0
    3.9045    1.6821   -1.0392 N   0  0  0  0  0  0  0  0  0  0  0  0
    4.3659    2.9443   -0.6917 C   0  0  0  0  0  0  0  0  0  0  0  0
    2.9924    1.2384   -0.0826 C   0  0  0  0  0  0  0  0  0  0  0  0
    3.7508    3.2940    0.4964 C   0  0  0  0  0  0  0  0  0  0  0  0
    2.8775    2.2512    0.8571 C   0  0  0  0  0  0  0  0  0  0  0  0
    5.3365    3.7709   -1.4873 C   0  0  0  0  0  0  0  0  0  0  0  0
    2.2424   -0.0163   -0.0526 C   0  0  0  0  0  0  0  0  0  0  0  0
    4.2924    0.9364   -2.2215 C   0  0  0  0  0  0  0  0  0  0  0  0
    2.9681   -1.3276   -0.0007 C   0  0  0  0  0  0  0  0  0  0  0  0
    2.2443   -2.5294   -0.0184 C   0  0  0  0  0  0  0  0  0  0  0  0
    4.3623   -1.3898    0.0877 C   0  0  0  0  0  0  0  0  0  0  0  0
    4.3116   -3.8074   -0.0030 C   0  0  0  0  0  0  0  0  0  0  0  0
    2.9132   -3.7603   -0.0096 C   0  0  0  0  0  0  0  0  0  0  0  0
    5.0305   -2.6121    0.0438 C   0  0  0  0  0  0  0  0  0  0  0  0
    4.6879    5.0636   -1.9515 C   0  0  0  0  0  0  0  0  0  0  0  0
    5.0505   -5.1113   -0.0323 C   0  0  0  0  0  0  0  0  0  0  0  0
    6.0887    6.0565   -0.9608 H   0  0  0  0  0  0  0  0  0  0  0  0
    3.8896    4.2263    1.0302 H   0  0  0  0  0  0  0  0  0  0  0  0
    2.2286    2.2274    1.7253 H   0  0  0  0  0  0  0  0  0  0  0  0
    6.2176    3.9767   -0.8695 H   0  0  0  0  0  0  0  0  0  0  0  0
    5.7110    3.2762   -2.3847 H   0  0  0  0  0  0  0  0  0  0  0  0
    4.8553    0.0539   -1.9222 H   0  0  0  0  0  0  0  0  0  0  0  0
    3.4018    0.6565   -2.7850 H   0  0  0  0  0  0  0  0  0  0  0  0
    4.9546    1.5204   -2.8562 H   0  0  0  0  0  0  0  0  0  0  0  0
    1.1549   -2.5200   -0.0307 H   0  0  0  0  0  0  0  0  0  0  0  0
    4.9613   -0.4894    0.1741 H   0  0  0  0  0  0  0  0  0  0  0  0
    2.3340   -4.6817   -0.0133 H   0  0  0  0  0  0  0  0  0  0  0  0
    6.1180   -2.6202    0.0521 H   0  0  0  0  0  0  0  0  0  0  0  0
    5.6763   -5.1674   -0.9292 H   0  0  0  0  0  0  0  0  0  0  0  0
    5.6858   -5.2024    0.8548 H   0  0  0  0  0  0  0  0  0  0  0  0
    4.3627   -5.9619   -0.0454 H   0  0  0  0  0  0  0  0  0  0  0  0
  1 10  2  0  0  0  0
  2 18  1  0  0  0  0
  2 20  1  0  0  0  0
  3 18  2  0  0  0  0
  4  5  1  0  0  0  0
  4  6  1  0  0  0  0
  4 11  1  0  0  0  0
  5  7  2  0  0  0  0
  5  9  1  0  0  0  0
  6  8  2  0  0  0  0
  6 10  1  0  0  0  0
  7  8  1  0  0  0  0
  7 21  1  0  0  0  0
  8 22  1  0  0  0  0
  9 18  1  0  0  0  0
  9 23  1  0  0  0  0
  9 24  1  0  0  0  0
 10 12  1  0  0  0  0
 11 25  1  0  0  0  0
 11 26  1  0  0  0  0
 11 27  1  0  0  0  0
 12 13  2  0  0  0  0
 12 14  1  0  0  0  0
 13 16  1  0  0  0  0
 13 28  1  0  0  0  0
 14 17  2  0  0  0  0
 14 29  1  0  0  0  0
 15 16  2  0  0  0  0
 15 17  1  0  0  0  0
 15 19  1  0  0  0  0
 16 30  1  0  0  0  0
 17 31  1  0  0  0  0
 19 32  1  0  0  0  0
 19 33  1  0  0  0  0
 19 34  1  0  0  0  0
M  END
>  <DRUGBANK_ID>
DB00500

>  <SECONDARY_ACCESSION_NUMBERS>
APRD01268

>  <COMMON_NAME>
Tolmetin

>  <CAS_NUMBER>
26171-23-3

>  <UNII>
D8K2JPN18B

>  <SYNONYMS>
1-Methyl-5-(4-methylbenzoyl)-pyrrole-2-acetic acid; 1-Methyl-5-p-toluoylpyrrole-2-acetic acid; 5-(p-Toluoyl)-1-methylpyrrole-2-acetic acid; Tolmetin; Tolmetina; Tolm√©tine; Tolmetino; Tolmetinum

$$$$
