APP
 OpenBabel10282417163D

 25 25  0  0  0  0  0  0  0  0999 V2000
    1.4595   -0.0664    0.2261 N   0  0  0  0  0  0  0  0  0  0  0  0
    2.3603   -0.1110    1.2883 C   0  0  0  0  0  0  0  0  0  0  0  0
    2.6495    0.8685    1.9742 O   0  0  0  0  0  0  0  0  0  0  0  0
    3.0231   -1.4383    1.5728 C   0  0  0  0  0  0  0  0  0  0  0  0
    0.8470    1.2172   -0.1872 C   0  0  2  0  0  0  0  0  0  0  0  0
    1.7531    2.4535   -0.0279 C   0  0  0  0  0  0  0  0  0  0  0  0
    2.9569    2.4985   -0.2555 O   0  0  0  0  0  0  0  0  0  0  0  0
    1.1135    3.6000    0.2693 O   0  0  0  0  0  0  0  0  0  0  0  0
   -0.6147    1.3128    0.2932 C   0  0  0  0  0  0  0  0  0  0  0  0
   -1.4167    0.0733   -0.1521 C   0  0  0  0  0  0  0  0  0  0  0  0
   -0.7115   -1.2265    0.2403 C   0  0  0  0  0  0  0  0  0  0  0  0
    0.7389   -1.2444   -0.2493 C   0  0  0  0  0  0  0  0  0  0  0  0
    0.7816    1.1474   -1.2835 H   0  0  0  0  0  0  0  0  0  0  0  0
    2.3340   -2.0780    2.1280 H   0  0  0  0  0  0  0  0  0  0  0  0
    3.3503   -1.9263    0.6498 H   0  0  0  0  0  0  0  0  0  0  0  0
    3.9167   -1.2729    2.1841 H   0  0  0  0  0  0  0  0  0  0  0  0
    1.8681    4.2275    0.3268 H   0  0  0  0  0  0  0  0  0  0  0  0
   -1.1028    2.2042   -0.1214 H   0  0  0  0  0  0  0  0  0  0  0  0
   -0.6648    1.4006    1.3844 H   0  0  0  0  0  0  0  0  0  0  0  0
   -2.4237    0.0935    0.2825 H   0  0  0  0  0  0  0  0  0  0  0  0
   -1.5502    0.0920   -1.2422 H   0  0  0  0  0  0  0  0  0  0  0  0
   -0.7398   -1.3307    1.3319 H   0  0  0  0  0  0  0  0  0  0  0  0
   -1.2511   -2.0837   -0.1795 H   0  0  0  0  0  0  0  0  0  0  0  0
    1.2126   -2.1713    0.0772 H   0  0  0  0  0  0  0  0  0  0  0  0
    0.7702   -1.2242   -1.3440 H   0  0  0  0  0  0  0  0  0  0  0  0
  1  2  1  0  0  0  0
  1  5  1  0  0  0  0
  1 12  1  0  0  0  0
  2  3  2  0  0  0  0
  2  4  1  0  0  0  0
  4 14  1  0  0  0  0
  4 15  1  0  0  0  0
  4 16  1  0  0  0  0
  5  9  1  0  0  0  0
  5 13  1  6  0  0  0
  5  6  1  0  0  0  0
  6  7  2  0  0  0  0
  6  8  1  0  0  0  0
  8 17  1  0  0  0  0
  9 10  1  0  0  0  0
  9 18  1  0  0  0  0
  9 19  1  0  0  0  0
 10 11  1  0  0  0  0
 10 20  1  0  0  0  0
 10 21  1  0  0  0  0
 11 12  1  0  0  0  0
 11 22  1  0  0  0  0
 11 23  1  0  0  0  0
 12 24  1  0  0  0  0
 12 25  1  0  0  0  0
M  END
>  <DRUGBANK_ID>
DB07384

>  <COMMON_NAME>
1-ACETYL-2-CARBOXYPIPERIDINE

$$$$
