MRK
 OpenBabel10282417173D

 35 37  0  0  0  0  0  0  0  0999 V2000
   -0.8511    0.0677    0.8247 S   0  0  0  0  0  0  0  0  0  0  0  0
    0.1500    1.2907    0.1689 C   0  0  0  0  0  0  0  0  0  0  0  0
    1.3986    0.7374   -0.0132 C   0  0  0  0  0  0  0  0  0  0  0  0
    1.4352   -0.6521   -0.0170 N   0  0  0  0  0  0  0  0  0  0  0  0
    0.2319   -1.1201    0.2310 C   0  0  0  0  0  0  0  0  0  0  0  0
   -0.1015   -2.4517    0.0784 N   0  0  0  0  0  0  0  0  0  0  0  0
   -1.3234   -3.0920   -0.0112 C   0  0  0  0  0  0  0  0  0  0  0  0
   -1.3760   -4.3261    0.0314 O   0  0  0  0  0  0  0  0  0  0  0  0
   -2.7091   -1.2929   -1.0942 C   0  0  0  0  0  0  0  0  0  0  0  0
   -2.5974   -2.3552   -0.1811 C   0  0  0  0  0  0  0  0  0  0  0  0
   -3.6400   -2.6638    0.7155 C   0  0  0  0  0  0  0  0  0  0  0  0
   -4.7624   -1.8400    0.8231 C   0  0  0  0  0  0  0  0  0  0  0  0
   -4.8124   -0.7196   -0.0273 C   0  0  0  0  0  0  0  0  0  0  0  0
   -5.8227    0.1612    0.0600 F   0  0  0  0  0  0  0  0  0  0  0  0
   -3.8261   -0.4663   -0.9889 C   0  0  0  0  0  0  0  0  0  0  0  0
   -6.0942   -2.0660    1.9990 S   0  0  0  0  0  0  0  0  0  0  0  0
   -4.7044   -3.6981    3.7578 N   0  0  0  0  0  0  0  0  0  0  0  0
   -5.7582   -3.5170    2.8952 C   0  0  0  0  0  0  0  0  0  0  0  0
   -6.6180   -4.5116    2.9977 N   0  0  0  0  0  0  0  0  0  0  0  0
   -6.1043   -5.3630    3.9422 C   0  0  0  0  0  0  0  0  0  0  0  0
   -4.9121   -4.8824    4.4243 C   0  0  0  0  0  0  0  0  0  0  0  0
   -3.5415   -2.8728    3.9663 C   0  0  0  0  0  0  0  0  0  0  0  0
   -1.8007   -1.1033   -2.1485 N   0  0  0  0  0  0  0  0  0  0  0  0
   -0.1671    2.3221    0.0891 H   0  0  0  0  0  0  0  0  0  0  0  0
    2.3036    1.3064   -0.1877 H   0  0  0  0  0  0  0  0  0  0  0  0
    0.6947   -3.0681   -0.0361 H   0  0  0  0  0  0  0  0  0  0  0  0
   -3.5243   -3.5391    1.3457 H   0  0  0  0  0  0  0  0  0  0  0  0
   -3.9116    0.4225   -1.6075 H   0  0  0  0  0  0  0  0  0  0  0  0
   -6.6210   -6.2695    4.2350 H   0  0  0  0  0  0  0  0  0  0  0  0
   -4.2254   -5.2655    5.1672 H   0  0  0  0  0  0  0  0  0  0  0  0
   -3.4833   -2.6015    5.0210 H   0  0  0  0  0  0  0  0  0  0  0  0
   -2.6625   -3.4545    3.6705 H   0  0  0  0  0  0  0  0  0  0  0  0
   -3.5938   -1.9639    3.3697 H   0  0  0  0  0  0  0  0  0  0  0  0
   -1.6918   -0.1389   -2.4478 H   0  0  0  0  0  0  0  0  0  0  0  0
   -0.8947   -1.5518   -2.0212 H   0  0  0  0  0  0  0  0  0  0  0  0
  1  2  1  0  0  0  0
  1  5  1  0  0  0  0
  2  3  2  0  0  0  0
  2 24  1  0  0  0  0
  3  4  1  0  0  0  0
  3 25  1  0  0  0  0
  4  5  2  0  0  0  0
  5  6  1  0  0  0  0
  6  7  1  0  0  0  0
  6 26  1  0  0  0  0
  7  8  2  0  0  0  0
  7 10  1  0  0  0  0
  9 10  2  0  0  0  0
  9 15  1  0  0  0  0
  9 23  1  0  0  0  0
 10 11  1  0  0  0  0
 11 12  2  0  0  0  0
 11 27  1  0  0  0  0
 12 13  1  0  0  0  0
 12 16  1  0  0  0  0
 13 14  1  0  0  0  0
 13 15  2  0  0  0  0
 15 28  1  0  0  0  0
 16 18  1  0  0  0  0
 17 18  1  0  0  0  0
 17 21  1  0  0  0  0
 17 22  1  0  0  0  0
 18 19  2  0  0  0  0
 19 20  1  0  0  0  0
 20 21  2  0  0  0  0
 20 29  1  0  0  0  0
 21 30  1  0  0  0  0
 22 31  1  0  0  0  0
 22 32  1  0  0  0  0
 22 33  1  0  0  0  0
 23 34  1  0  0  0  0
 23 35  1  0  0  0  0
M  END
>  <DRUGBANK_ID>
DB08210

>  <COMMON_NAME>
2-AMINO-4-FLUORO-5-[(1-METHYL-1H-IMIDAZOL-2-YL)SULFANYL]-N-(1,3-THIAZOL-2-YL)BENZAMIDE

$$$$
