918
 OpenBabel10282417113D

 48 50  0  0  0  0  0  0  0  0999 V2000
    1.0848   -0.0345   -0.0365 S   0  0  0  0  0  0  0  0  0  0  0  0
    0.7146    0.3142   -1.4070 O   0  0  0  0  0  0  0  0  0  0  0  0
    0.5749   -1.2389    0.5644 O   0  0  0  0  0  0  0  0  0  0  0  0
    0.5416    1.2377    0.9707 N   0  0  0  0  0  0  0  0  0  0  0  0
    4.0280   -3.7727   -3.8442 N   0  0  0  0  0  0  0  0  0  0  0  0
    7.1201   -1.8659   -6.4519 N   0  0  0  0  0  0  0  0  0  0  0  0
   -0.6189    1.9515    0.3578 C   0  0  0  0  0  0  0  0  0  0  0  0
    1.4683    2.3090    1.4261 C   0  0  0  0  0  0  0  0  0  0  0  0
    0.0659    3.0961   -0.3709 C   0  0  0  0  0  0  0  0  0  0  0  0
    1.0845    3.5659    0.6508 C   0  0  0  0  0  0  0  0  0  0  0  0
    2.8972    0.0077    0.0479 C   0  0  0  0  0  0  0  0  0  0  0  0
    3.4023   -1.0687   -0.8692 C   0  0  0  0  0  0  0  0  0  0  0  0
    4.1591   -1.7112   -3.0509 C   0  0  0  0  0  0  0  0  0  0  0  0
    4.0224   -0.7163   -2.0773 C   0  0  0  0  0  0  0  0  0  0  0  0
    4.5323   -1.6917   -4.4249 C   0  0  0  0  0  0  0  0  0  0  0  0
    3.8323   -3.0278   -2.7197 C   0  0  0  0  0  0  0  0  0  0  0  0
    3.1241   -2.4110   -0.5700 C   0  0  0  0  0  0  0  0  0  0  0  0
    5.2210   -0.5659   -5.1921 C   0  0  0  0  0  0  0  0  0  0  0  0
    3.3714   -3.4292   -1.4761 C   0  0  0  0  0  0  0  0  0  0  0  0
    4.0430   -2.9091   -4.9113 C   0  0  0  0  0  0  0  0  0  0  0  0
    6.7562   -0.7424   -5.5458 C   0  0  0  0  0  0  0  0  0  0  0  0
    8.5199   -1.9096   -6.8403 C   0  0  0  0  0  0  0  0  0  0  0  0
    6.9099   -3.1353   -5.7873 C   0  0  0  0  0  0  0  0  0  0  0  0
    4.0230   -4.7844   -3.8888 H   0  0  0  0  0  0  0  0  0  0  0  0
   -1.2855    2.3108    1.1494 H   0  0  0  0  0  0  0  0  0  0  0  0
   -1.2174    1.3120   -0.2979 H   0  0  0  0  0  0  0  0  0  0  0  0
    2.5235    2.0696    1.3143 H   0  0  0  0  0  0  0  0  0  0  0  0
    1.3204    2.4708    2.5016 H   0  0  0  0  0  0  0  0  0  0  0  0
    0.5977    2.7377   -1.2606 H   0  0  0  0  0  0  0  0  0  0  0  0
   -0.6268    3.8747   -0.6908 H   0  0  0  0  0  0  0  0  0  0  0  0
    1.9568    4.0333    0.1840 H   0  0  0  0  0  0  0  0  0  0  0  0
    0.6303    4.2997    1.3250 H   0  0  0  0  0  0  0  0  0  0  0  0
    3.2275    0.9864   -0.3152 H   0  0  0  0  0  0  0  0  0  0  0  0
    3.2234   -0.1687    1.0726 H   0  0  0  0  0  0  0  0  0  0  0  0
    4.2357    0.3161   -2.3370 H   0  0  0  0  0  0  0  0  0  0  0  0
    2.6133   -2.6719    0.3545 H   0  0  0  0  0  0  0  0  0  0  0  0
    4.6579   -0.3566   -6.1078 H   0  0  0  0  0  0  0  0  0  0  0  0
    5.1545    0.3483   -4.5824 H   0  0  0  0  0  0  0  0  0  0  0  0
    3.0887   -4.4545   -1.2685 H   0  0  0  0  0  0  0  0  0  0  0  0
    4.0539   -3.3300   -5.9112 H   0  0  0  0  0  0  0  0  0  0  0  0
    7.0646    0.1947   -6.0366 H   0  0  0  0  0  0  0  0  0  0  0  0
    7.3391   -0.7999   -4.6163 H   0  0  0  0  0  0  0  0  0  0  0  0
    9.1658   -2.0566   -5.9673 H   0  0  0  0  0  0  0  0  0  0  0  0
    8.6579   -2.7742   -7.5062 H   0  0  0  0  0  0  0  0  0  0  0  0
    8.8258   -1.0221   -7.3916 H   0  0  0  0  0  0  0  0  0  0  0  0
    7.4618   -3.2986   -4.8573 H   0  0  0  0  0  0  0  0  0  0  0  0
    5.9242   -3.0761   -5.4882 H   0  0  0  0  0  0  0  0  0  0  0  0
    6.8704   -4.0082   -6.4413 H   0  0  0  0  0  0  0  0  0  0  0  0
  1  2  2  0  0  0  0
  1  3  2  0  0  0  0
  1  4  1  0  0  0  0
  1 11  1  0  0  0  0
  4  7  1  0  0  0  0
  4  8  1  0  0  0  0
  5 16  1  0  0  0  0
  5 20  1  0  0  0  0
  5 24  1  0  0  0  0
  6 21  1  0  0  0  0
  6 22  1  0  0  0  0
  6 23  1  0  0  0  0
  7  9  1  0  0  0  0
  7 25  1  0  0  0  0
  7 26  1  0  0  0  0
  8 10  1  0  0  0  0
  8 27  1  0  0  0  0
  8 28  1  0  0  0  0
  9 10  1  0  0  0  0
  9 29  1  0  0  0  0
  9 30  1  0  0  0  0
 10 31  1  0  0  0  0
 10 32  1  0  0  0  0
 11 12  1  0  0  0  0
 11 33  1  0  0  0  0
 11 34  1  0  0  0  0
 12 14  2  0  0  0  0
 12 17  1  0  0  0  0
 13 14  1  0  0  0  0
 13 15  1  0  0  0  0
 13 16  2  0  0  0  0
 14 35  1  0  0  0  0
 15 18  1  0  0  0  0
 15 20  2  0  0  0  0
 16 19  1  0  0  0  0
 17 19  2  0  0  0  0
 17 36  1  0  0  0  0
 18 21  1  0  0  0  0
 18 37  1  0  0  0  0
 18 38  1  0  0  0  0
 19 39  1  0  0  0  0
 20 40  1  0  0  0  0
 21 41  1  0  0  0  0
 21 42  1  0  0  0  0
 22 43  1  0  0  0  0
 22 44  1  0  0  0  0
 22 45  1  0  0  0  0
 23 46  1  0  0  0  0
 23 47  1  0  0  0  0
 23 48  1  0  0  0  0
M  END
>  <DRUGBANK_ID>
DB00918

>  <SECONDARY_ACCESSION_NUMBERS>
APRD00169

>  <COMMON_NAME>
Almotriptan

>  <CAS_NUMBER>
154323-57-6

>  <UNII>
1O4XL5SN61

>  <SYNONYMS>
1-(((3-(2-(Dimethylamino)ethyl)indol-5-yl)methyl)sulfonyl)pyrrolidine; Almotriptan

$$$$
