
 OpenBabel10282417103D

 26 25  0  0  0  0  0  0  0  0999 V2000
    1.0229   -0.0339    0.2447 C   0  0  0  0  0  0  0  0  0  0  0  0
    0.2835   -0.7804   -0.8734 C   0  0  1  0  0  0  0  0  0  0  0  0
    0.4643    0.5765    1.1490 O   0  0  0  0  0  0  0  0  0  0  0  0
   -0.5468   -1.8352   -0.2349 N   0  0  0  0  0  0  0  0  0  0  0  0
   -0.0238    1.6700   -2.5357 S   0  0  0  0  0  0  0  0  0  0  0  0
   -0.6452    0.1647   -1.6607 C   0  0  0  0  0  0  0  0  0  0  0  0
    2.3756   -0.1207    0.1779 O   0  0  0  0  0  0  0  0  0  0  0  0
    2.8718    1.9847   -4.1729 C   0  0  0  0  0  0  0  0  0  0  0  0
    3.4901    2.8356   -3.0618 C   0  0  1  0  0  0  0  0  0  0  0  0
    2.7404    2.3101   -5.3374 O   0  0  0  0  0  0  0  0  0  0  0  0
    4.3831    3.8514   -3.6964 N   0  0  0  0  0  0  0  0  0  0  0  0
    1.2335    2.6367   -1.2251 S   0  0  0  0  0  0  0  0  0  0  0  0
    2.4422    3.5830   -2.2220 C   0  0  0  0  0  0  0  0  0  0  0  0
    2.4230    0.7866   -3.7395 O   0  0  0  0  0  0  0  0  0  0  0  0
    0.9970   -1.2789   -1.5408 H   0  0  0  0  0  0  0  0  0  0  0  0
   -1.0422   -2.4083   -0.9109 H   0  0  0  0  0  0  0  0  0  0  0  0
    0.0112   -2.4367    0.3687 H   0  0  0  0  0  0  0  0  0  0  0  0
   -1.1367   -0.4318   -2.4437 H   0  0  0  0  0  0  0  0  0  0  0  0
   -1.4455    0.5271   -1.0098 H   0  0  0  0  0  0  0  0  0  0  0  0
    2.7363   -0.5701   -0.6082 H   0  0  0  0  0  0  0  0  0  0  0  0
    4.1214    2.1960   -2.4357 H   0  0  0  0  0  0  0  0  0  0  0  0
    5.0168    3.3667   -4.3354 H   0  0  0  0  0  0  0  0  0  0  0  0
    3.8076    4.4273   -4.3198 H   0  0  0  0  0  0  0  0  0  0  0  0
    1.8654    4.2889   -2.8278 H   0  0  0  0  0  0  0  0  0  0  0  0
    2.9851    4.1903   -1.4831 H   0  0  0  0  0  0  0  0  0  0  0  0
    1.6967    0.5864   -4.3716 H   0  0  0  0  0  0  0  0  0  0  0  0
  1  2  1  0  0  0  0
  1  3  2  0  0  0  0
  2  4  1  0  0  0  0
  2  6  1  0  0  0  0
  2 15  1  6  0  0  0
  4 16  1  0  0  0  0
  4 17  1  0  0  0  0
  5  6  1  0  0  0  0
  5 12  1  0  0  0  0
  6 18  1  0  0  0  0
  6 19  1  0  0  0  0
  7  1  1  0  0  0  0
  7 20  1  0  0  0  0
  8  9  1  0  0  0  0
  8 10  2  0  0  0  0
  9 11  1  0  0  0  0
  9 13  1  0  0  0  0
  9 21  1  1  0  0  0
 11 22  1  0  0  0  0
 11 23  1  0  0  0  0
 12 13  1  0  0  0  0
 13 24  1  0  0  0  0
 13 25  1  0  0  0  0
 14  8  1  0  0  0  0
 14 26  1  0  0  0  0
M  END
>  <DRUGBANK_ID>
DB00138

>  <SECONDARY_ACCESSION_NUMBERS>
NUTR00023

>  <COMMON_NAME>
Cystine

>  <CAS_NUMBER>
56-89-3

>  <UNII>
48TCX9A1VT

>  <SYNONYMS>
(R,R)-3,3'-dithiobis(2-aminopropanoic acid); Cistina; Cystine; L-alpha-Diamino-beta-dithiolactic acid; L-Cystine; L-Dicysteine; β,β'-dithiodialanine

$$$$
