
 OpenBabel10282417143D

 60 65  0  0  1  0  0  0  0  0999 V2000
    1.0911    0.0175    0.0314 C   0  0  0  0  0  0  0  0  0  0  0  0
    0.5456   -1.5151   -1.9068 C   0  0  0  0  0  0  0  0  0  0  0  0
    0.8467    7.0818   -9.4800 C   0  0  0  0  0  0  0  0  0  0  0  0
   -0.7055    6.8302  -11.3067 C   0  0  0  0  0  0  0  0  0  0  0  0
   -3.4882    3.5730   -8.5595 C   0  0  0  0  0  0  0  0  0  0  0  0
    0.7529    5.7124   -9.2367 C   0  0  0  0  0  0  0  0  0  0  0  0
   -0.6804    5.4310  -11.1527 C   0  0  0  0  0  0  0  0  0  0  0  0
    0.1276   -1.7459   -3.2248 C   0  0  0  0  0  0  0  0  0  0  0  0
   -3.9386    4.8908   -8.5101 C   0  0  0  0  0  0  0  0  0  0  0  0
    0.2073    0.8814   -2.1460 C   0  0  0  0  0  0  0  0  0  0  0  0
   -3.5919    3.4440   -6.1473 C   0  0  0  0  0  0  0  0  0  0  0  0
    1.1017    9.8830  -10.9084 C   0  0  0  0  0  0  0  0  0  0  0  0
    0.5913   -0.2089   -1.3642 C   0  0  0  0  0  0  0  0  0  0  0  0
    0.0551    7.6616  -10.4711 C   0  0  0  0  0  0  0  0  0  0  0  0
   -3.2403    2.8576   -7.3741 C   0  0  0  0  0  0  0  0  0  0  0  0
   -0.0215    4.8789  -10.0552 C   0  0  0  0  0  0  0  0  0  0  0  0
   -0.2409   -0.6485   -3.9767 C   0  0  0  0  0  0  0  0  0  0  0  0
   -0.2193    0.6243   -3.4329 C   0  0  0  0  0  0  0  0  0  0  0  0
   -4.1346    5.5152   -7.2769 C   0  0  0  0  0  0  0  0  0  0  0  0
   -3.9788    4.7867   -6.0936 C   0  0  0  0  0  0  0  0  0  0  0  0
   -0.0018    9.1055  -10.6083 C   0  0  0  0  0  0  0  0  0  0  0  0
   -0.9417    1.8196   -7.9901 C   0  0  1  0  0  0  0  0  0  0  0  0
   -0.0176    1.3348   -6.8628 C   0  0  1  0  0  0  0  0  0  0  0  0
   -2.3810    1.6053   -7.4443 C   0  0  1  0  0  0  0  0  0  0  0  0
   -0.6891   -0.5780   -5.3674 C   0  0  0  0  0  0  0  0  0  0  0  0
   -0.7431    1.5864   -4.3781 C   0  0  0  0  0  0  0  0  0  0  0  0
   -0.6417    3.2689   -8.3939 C   0  0  0  0  0  0  0  0  0  0  0  0
    1.0603    2.3222   -6.4460 C   0  0  0  0  0  0  0  0  0  0  0  0
   -0.9435    0.8950   -5.7309 C   0  0  1  0  0  0  0  0  0  0  0  0
   -4.5514    7.1913   -7.2882 Cl  0  0  0  0  0  0  0  0  0  0  0  0
   -4.1862    5.5035   -4.5337 Cl  0  0  0  0  0  0  0  0  0  0  0  0
   -0.2004    3.5139   -9.6885 N   0  0  0  0  0  0  0  0  0  0  0  0
   -1.1859    9.8100  -10.4336 N   0  0  0  0  0  0  0  0  0  0  0  0
   -1.0061   11.1142  -10.5766 N   0  0  0  0  0  0  0  0  0  0  0  0
   -0.8195   -1.5538   -6.0930 O   0  0  0  0  0  0  0  0  0  0  0  0
   -1.0209    2.7281   -4.0349 O   0  0  0  0  0  0  0  0  0  0  0  0
   -0.8331    4.1936   -7.6048 O   0  0  0  0  0  0  0  0  0  0  0  0
    2.2518    2.1785   -6.6677 O   0  0  0  0  0  0  0  0  0  0  0  0
    0.5927    3.4097   -5.8395 O   0  0  0  0  0  0  0  0  0  0  0  0
   -2.2966    0.9870   -6.1565 O   0  0  0  0  0  0  0  0  0  0  0  0
    0.5761   11.5162  -10.9440 S   0  0  0  0  0  0  0  0  0  0  0  0
   -0.8159    1.1670   -8.8656 H   0  0  0  0  0  0  0  0  0  0  0  0
    0.5345    0.4632   -7.2442 H   0  0  0  0  0  0  0  0  0  0  0  0
   -2.9163    0.8837   -8.0758 H   0  0  0  0  0  0  0  0  0  0  0  0
    0.7283   -0.7686    0.6998 H   0  0  0  0  0  0  0  0  0  0  0  0
    0.7341    0.9752    0.4260 H   0  0  0  0  0  0  0  0  0  0  0  0
    2.1850    0.0240    0.0362 H   0  0  0  0  0  0  0  0  0  0  0  0
    0.8397   -2.3617   -1.2880 H   0  0  0  0  0  0  0  0  0  0  0  0
    1.4987    7.6820   -8.8514 H   0  0  0  0  0  0  0  0  0  0  0  0
   -1.3342    7.2770  -12.0754 H   0  0  0  0  0  0  0  0  0  0  0  0
   -3.1736    3.1712   -9.5207 H   0  0  0  0  0  0  0  0  0  0  0  0
    1.2669    5.3000   -8.3717 H   0  0  0  0  0  0  0  0  0  0  0  0
   -1.2545    4.8176  -11.8392 H   0  0  0  0  0  0  0  0  0  0  0  0
    0.0907   -2.7504   -3.6351 H   0  0  0  0  0  0  0  0  0  0  0  0
   -4.0590    5.4468   -9.4355 H   0  0  0  0  0  0  0  0  0  0  0  0
    0.2276    1.9015   -1.7704 H   0  0  0  0  0  0  0  0  0  0  0  0
   -3.4747    2.8923   -5.2167 H   0  0  0  0  0  0  0  0  0  0  0  0
    2.1219    9.5912  -11.1024 H   0  0  0  0  0  0  0  0  0  0  0  0
   -0.4489    2.8522  -10.4123 H   0  0  0  0  0  0  0  0  0  0  0  0
    1.2140    4.1593   -5.7831 H   0  0  0  0  0  0  0  0  0  0  0  0
  1 45  1  0  0  0  0
  1 46  1  0  0  0  0
  1 47  1  0  0  0  0
  2 48  1  0  0  0  0
  3 49  1  0  0  0  0
  4 50  1  0  0  0  0
  5 51  1  0  0  0  0
  6  3  1  0  0  0  0
  6 52  1  0  0  0  0
  7  4  2  0  0  0  0
  7 53  1  0  0  0  0
  8  2  2  0  0  0  0
  8 54  1  0  0  0  0
  9  5  2  0  0  0  0
  9 55  1  0  0  0  0
 10 56  1  0  0  0  0
 11 57  1  0  0  0  0
 12 58  1  0  0  0  0
 13  1  1  0  0  0  0
 13  2  1  0  0  0  0
 13 10  2  0  0  0  0
 14  3  2  0  0  0  0
 14  4  1  0  0  0  0
 15  5  1  0  0  0  0
 15 11  2  0  0  0  0
 16  6  2  0  0  0  0
 16  7  1  0  0  0  0
 17  8  1  0  0  0  0
 18 10  1  0  0  0  0
 18 17  2  0  0  0  0
 19  9  1  0  0  0  0
 20 11  1  0  0  0  0
 20 19  2  0  0  0  0
 21 12  2  0  0  0  0
 21 14  1  0  0  0  0
 22 27  1  0  0  0  0
 22 42  1  6  0  0  0
 23 22  1  0  0  0  0
 23 28  1  0  0  0  0
 23 43  1  6  0  0  0
 24 15  1  0  0  0  0
 24 22  1  0  0  0  0
 24 44  1  6  0  0  0
 25 17  1  0  0  0  0
 26 18  1  0  0  0  0
 29 23  1  0  0  0  0
 29 25  1  1  0  0  0
 29 26  1  0  0  0  0
 29 40  1  0  0  0  0
 30 19  1  0  0  0  0
 31 20  1  0  0  0  0
 32 16  1  0  0  0  0
 32 27  1  0  0  0  0
 32 59  1  0  0  0  0
 33 21  1  0  0  0  0
 34 33  2  0  0  0  0
 35 25  2  0  0  0  0
 36 26  2  0  0  0  0
 37 27  2  0  0  0  0
 38 28  2  0  0  0  0
 39 28  1  0  0  0  0
 39 60  1  0  0  0  0
 40 24  1  0  0  0  0
 41 12  1  0  0  0  0
 41 34  1  0  0  0  0
M  END
>  <DRUGBANK_ID>
DB04330

>  <SECONDARY_ACCESSION_NUMBERS>
EXPT00194

>  <COMMON_NAME>
Bilh 434

$$$$
