
 OpenBabel10282417153D

231244  0  0  1  0  0  0  0  0999 V2000
   -3.1394    3.5321   -4.9312 C   0  0  0  0  0  0  0  0  0  0  0  0
   -3.7161    4.9136   -5.5760 Cl  0  0  0  0  0  0  0  0  0  0  0  0
   -3.9093    1.5260   -8.9898 O   0  0  0  0  0  0  0  0  0  0  0  0
   -4.3904    2.3793  -10.0265 C   0  0  0  0  0  0  0  0  0  0  0  0
   -2.8501    2.0181   -5.4974 C   0  0  0  0  0  0  0  0  0  0  0  0
   -1.8062    1.3732   -3.9727 N   0  0  0  0  0  0  0  0  0  0  0  0
   -2.1847    2.2148   -2.9349 C   0  0  0  0  0  0  0  0  0  0  0  0
   -2.7076    3.6174   -3.4138 S   0  0  0  0  0  0  0  0  0  0  0  0
   -2.9895   -0.1821   -7.0242 C   0  0  0  0  0  0  0  0  0  0  0  0
   -3.2173    1.3243   -6.7828 C   0  0  0  0  0  0  0  0  0  0  0  0
   -3.2154   -0.6598   -8.1433 O   0  0  0  0  0  0  0  0  0  0  0  0
   -3.5280    0.0472   -1.5136 C   0  0  0  0  0  0  0  0  0  0  0  0
   -4.6809    0.7397   -1.5045 C   0  0  0  0  0  0  0  0  0  0  0  0
   -5.2791    1.3438   -2.7445 C   0  0  0  0  0  0  0  0  0  0  0  0
   -4.8720    0.5738   -4.3185 S   0  0  0  0  0  0  0  0  0  0  0  0
   -2.8131   -0.0979   -2.6767 N   0  0  0  0  0  0  0  0  0  0  0  0
   -3.3060    0.4346   -3.9283 C   0  0  1  0  0  0  0  0  0  0  0  0
   -2.1423   -0.4515   -4.6675 C   0  0  1  0  0  0  0  0  0  0  0  0
   -2.1803   -1.1428   -3.2912 C   0  0  0  0  0  0  0  0  0  0  0  0
   -5.4099    0.9102   -0.1968 C   0  0  0  0  0  0  0  0  0  0  0  0
   -2.9452   -0.5027   -0.2281 C   0  0  0  0  0  0  0  0  0  0  0  0
   -1.9245   -1.2320   -0.2313 O   0  0  0  0  0  0  0  0  0  0  0  0
   -3.6254   -0.0740    1.0625 O   0  5  0  0  0  0  0  0  0  0  0  0
   -1.8748   -2.2275   -2.8784 O   0  0  0  0  0  0  0  0  0  0  0  0
   -3.1950    1.7411   -4.0792 H   0  0  0  0  0  0  0  0  0  0  0  0
   -2.5176   -1.0101   -5.9420 N   0  0  0  0  0  0  0  0  0  0  0  0
   -1.8941    2.0243   -1.6807 N   0  0  0  0  0  0  0  0  0  0  0  0
   -3.6525    2.0990   -7.7435 N   0  0  0  0  0  0  0  0  0  0  0  0
   -5.7646   -0.4182    0.3547 N   0  3  0  0  0  0  0  0  0  0  0  0
   -6.5053   -2.9236    1.2385 C   0  0  0  0  0  0  0  0  0  0  0  0
   -7.4034   -1.8489    1.1981 C   0  0  0  0  0  0  0  0  0  0  0  0
   -7.0325   -0.6410    0.6208 C   0  0  0  0  0  0  0  0  0  0  0  0
   -5.2092   -2.7022    0.9775 C   0  0  0  0  0  0  0  0  0  0  0  0
   -4.9051   -1.4598    0.6517 C   0  0  0  0  0  0  0  0  0  0  0  0
   -5.6909    3.0119   -9.6348 C   0  0  0  0  0  0  0  0  0  0  0  0
   -5.2645    4.1069   -8.2149 C   0  0  0  0  0  0  0  0  0  0  0  0
   -3.5522    5.6079   -7.2991 N   0  0  0  0  0  0  0  0  0  0  0  0
    4.4513    7.0956    0.8549 C   0  0  0  0  0  0  0  0  0  0  0  0
    2.4218    7.5329   -0.8218 C   0  0  0  0  0  0  0  0  0  0  0  0
    0.0624    7.5388   -3.4336 C   0  0  2  0  0  0  0  0  0  0  0  0
    6.6699    6.6379    2.2894 C   0  0  0  0  0  0  0  0  0  0  0  0
    8.3493    6.7406    3.7963 C   0  0  0  0  0  0  0  0  0  0  0  0
    4.2450    7.6704    1.3321 C   0  0  0  0  0  0  0  0  0  0  0  0
    6.3866    7.6266    3.2194 C   0  0  0  0  0  0  0  0  0  0  0  0
    8.6197    5.4979    2.4432 O   0  0  0  0  0  0  0  0  0  0  0  0
    8.1854    7.9057    5.0748 O   0  0  0  0  0  0  0  0  0  0  0  0
   -1.9145    8.2633   -5.3249 N   0  0  0  0  0  0  0  0  0  0  0  0
   -4.0728    8.5103   -6.4386 C   0  0  0  0  0  0  0  0  0  0  0  0
   -2.3397    9.4444   -4.8678 C   0  0  1  0  0  0  0  0  0  0  0  0
   -5.7591    8.1804   -7.3837 O   0  0  0  0  0  0  0  0  0  0  0  0
   -1.5253   11.2846  -11.7502 C   0  0  2  0  0  0  0  0  0  0  0  0
    0.0393    9.3365   -3.1751 N   0  0  0  0  0  0  0  0  0  0  0  0
   -3.2733   10.5203   -5.1091 C   0  0  1  0  0  0  0  0  0  0  0  0
   -2.1422   10.9838   -5.7578 C   0  0  1  0  0  0  0  0  0  0  0  0
    1.9803    6.3205   -2.0421 N   0  0  0  0  0  0  0  0  0  0  0  0
   -2.3225    6.5671   -9.0449 N   0  0  0  0  0  0  0  0  0  0  0  0
   -1.8428    9.8974  -12.2231 C   0  0  0  0  0  0  0  0  0  0  0  0
    2.1719    8.9592   -1.8812 C   0  0  0  0  0  0  0  0  0  0  0  0
    0.7192    6.1111   -4.1225 C   0  0  0  0  0  0  0  0  0  0  0  0
   -0.5081    9.0924   -4.9376 C   0  0  0  0  0  0  0  0  0  0  0  0
   -4.2856   11.3431   -5.0766 C   0  0  2  0  0  0  0  0  0  0  0  0
   -2.8794    9.6234  -13.1563 N   0  0  0  0  0  0  0  0  0  0  0  0
   -0.8184    6.3570   -6.5504 C   0  0  1  0  0  0  0  0  0  0  0  0
   -0.0880   11.5283  -11.9859 N   0  0  0  0  0  0  0  0  0  0  0  0
   -1.3377    9.0419   -3.6530 C   0  0  0  0  0  0  0  0  0  0  0  0
    0.3740    8.1631   -5.5229 C   0  0  0  0  0  0  0  0  0  0  0  0
   -3.7116    7.1117  -11.1863 C   0  0  0  0  0  0  0  0  0  0  0  0
    3.8198    7.2599   -1.0801 C   0  0  1  0  0  0  0  0  0  0  0  0
   -1.7209   11.7037   -4.7472 O   0  0  0  0  0  0  0  0  0  0  0  0
   -1.1003   10.2549   -5.9965 O   0  0  0  0  0  0  0  0  0  0  0  0
   -1.8996    9.2396   -8.1286 C   0  0  1  0  0  0  0  0  0  0  0  0
   -0.1710    6.4186   -4.2698 C   0  0  0  0  0  0  0  0  0  0  0  0
   -3.8933   12.4283   -4.1126 C   0  0  1  0  0  0  0  0  0  0  0  0
   -2.2007   10.0457   -3.2122 O   0  0  0  0  0  0  0  0  0  0  0  0
    0.8450    7.9027   -6.6856 O   0  0  0  0  0  0  0  0  0  0  0  0
   -3.2468    8.1500  -13.3124 C   0  0  2  0  0  0  0  0  0  0  0  0
   -3.9525    9.9385   -7.7566 C   0  0  1  0  0  0  0  0  0  0  0  0
    0.8656   11.8065  -10.9812 C   0  0  0  0  0  0  0  0  0  0  0  0
   -2.6078   12.7672   -4.5042 C   0  0  1  0  0  0  0  0  0  0  0  0
   -4.9096    9.9322   -5.8073 C   0  0  1  0  0  0  0  0  0  0  0  0
   -1.8806   11.5674  -10.3377 C   0  0  1  0  0  0  0  0  0  0  0  0
   -2.8096   10.3403   -8.0600 C   0  0  0  0  0  0  0  0  0  0  0  0
   -4.7976    8.8408   -8.5942 O   0  0  0  0  0  0  0  0  0  0  0  0
    4.8671    5.8111    0.0224 C   0  0  0  0  0  0  0  0  0  0  0  0
   -2.4235    8.3356   -9.0177 C   0  0  1  0  0  0  0  0  0  0  0  0
   -2.3816    7.2997  -12.7040 C   0  0  0  0  0  0  0  0  0  0  0  0
   -6.2339   10.1526   -5.5161 C   0  0  0  0  0  0  0  0  0  0  0  0
   -1.3040   10.9438   -9.4080 C   0  0  0  0  0  0  0  0  0  0  0  0
   -3.0880    9.4891   -6.4677 O   0  0  0  0  0  0  0  0  0  0  0  0
    1.0796    7.4295   -4.9703 C   0  0  0  0  0  0  0  0  0  0  0  0
   -1.0884    7.8569   -2.7346 C   0  0  0  0  0  0  0  0  0  0  0  0
   -3.7119   10.0941   -3.5195 C   0  0  0  0  0  0  0  0  0  0  0  0
    0.5424    8.6920   -7.5618 C   0  0  0  0  0  0  0  0  0  0  0  0
   -3.5810    7.8240   -8.5943 C   0  0  2  0  0  0  0  0  0  0  0  0
    0.6294   10.2135   -7.3737 C   0  0  0  0  0  0  0  0  0  0  0  0
   -4.1742    8.6047   -4.7589 C   0  0  0  0  0  0  0  0  0  0  0  0
   -2.5837    7.6661  -10.7193 C   0  0  0  0  0  0  0  0  0  0  0  0
   -0.0810   11.2639   -8.3078 C   0  0  0  0  0  0  0  0  0  0  0  0
   -5.3679    8.8242   -5.2933 C   0  0  0  0  0  0  0  0  0  0  0  0
    2.3148   12.0809  -11.2679 C   0  0  1  0  0  0  0  0  0  0  0  0
   -1.2436    8.9390  -11.7812 O   0  0  0  0  0  0  0  0  0  0  0  0
    2.4000    6.3174   -3.3501 O   0  0  0  0  0  0  0  0  0  0  0  0
    3.8141    9.4642   -1.0504 O   0  0  0  0  0  0  0  0  0  0  0  0
   -5.0567    8.0187  -12.0111 O   0  0  0  0  0  0  0  0  0  0  0  0
    0.5690   11.8824   -9.8729 O   0  0  0  0  0  0  0  0  0  0  0  0
   -5.8830   11.4101   -4.7282 C   0  0  0  0  0  0  0  0  0  0  0  0
   -1.0354    9.1283   -9.8874 C   0  0  0  0  0  0  0  0  0  0  0  0
   -4.5509   10.8971   -3.4379 C   0  0  0  0  0  0  0  0  0  0  0  0
   -0.2713    7.9984   -8.8649 C   0  0  0  0  0  0  0  0  0  0  0  0
   -2.9513    5.8374  -10.9580 O   0  0  0  0  0  0  0  0  0  0  0  0
    2.6916   13.4689  -10.7747 C   0  0  0  0  0  0  0  0  0  0  0  0
   -0.6281    9.6842   -8.4548 N   0  0  0  0  0  0  0  0  0  0  0  0
   -5.7536   10.0130   -4.0302 O   0  0  0  0  0  0  0  0  0  0  0  0
   -4.9363   13.3230   -4.0669 O   0  0  0  0  0  0  0  0  0  0  0  0
   -3.9723    9.3655  -10.3023 N   0  0  0  0  0  0  0  0  0  0  0  0
    3.1748   11.0652  -10.6669 N   0  0  0  0  0  0  0  0  0  0  0  0
   -2.6462    8.9579  -10.2205 O   0  0  0  0  0  0  0  0  0  0  0  0
   -2.9664    7.4371   -4.2496 Cl  0  0  0  0  0  0  0  0  0  0  0  0
   -6.8655   11.1276   -6.2241 O   0  0  0  0  0  0  0  0  0  0  0  0
    1.3247   10.7753   -6.0684 Cl  0  0  0  0  0  0  0  0  0  0  0  0
   -1.5492   12.8267   -9.9232 O   0  0  0  0  0  0  0  0  0  0  0  0
   -2.0542   13.6273   -3.4154 C   0  0  0  0  0  0  0  0  0  0  0  0
   -1.3858    8.5331   -7.1636 C   0  0  0  0  0  0  0  0  0  0  0  0
   -2.3573   14.9894   -3.6712 O   0  0  0  0  0  0  0  0  0  0  0  0
   -4.3733    6.6853   -9.6443 C   0  0  0  0  0  0  0  0  0  0  0  0
    2.5168   13.5669   -9.2700 C   0  0  0  0  0  0  0  0  0  0  0  0
    4.5716   11.3402  -10.9322 C   0  0  0  0  0  0  0  0  0  0  0  0
    3.3957   12.5737   -8.5645 C   0  0  0  0  0  0  0  0  0  0  0  0
    2.8888   14.9453   -8.7942 C   0  0  0  0  0  0  0  0  0  0  0  0
   -3.1871    9.0647   -4.0345 H   0  0  0  0  0  0  0  0  0  0  0  0
   -2.0149    6.7120   -5.4930 C   0  0  0  0  0  0  0  0  0  0  0  0
   -3.7187    6.6577   -6.6283 O   0  0  0  0  0  0  0  0  0  0  0  0
    5.6090    6.5021    1.1886 C   0  0  0  0  0  0  0  0  0  0  0  0
    5.9095    5.9002    2.2507 C   0  0  0  0  0  0  0  0  0  0  0  0
    6.0833    4.4718    2.3460 C   0  0  0  0  0  0  0  0  0  0  0  0
    5.2415    3.9733    1.4071 C   0  0  0  0  0  0  0  0  0  0  0  0
    4.7106    4.6852    0.3434 C   0  0  0  0  0  0  0  0  0  0  0  0
    6.8498    3.6804    3.1985 O   0  0  0  0  0  0  0  0  0  0  0  0
   -3.6702    3.1518  -10.2356 H   0  0  0  0  0  0  0  0  0  0  0  0
   -4.5216    1.7812  -10.9257 H   0  0  0  0  0  0  0  0  0  0  0  0
   -4.9232    2.3607   -2.7803 H   0  0  0  0  0  0  0  0  0  0  0  0
   -6.3489    1.2687   -2.6733 H   0  0  0  0  0  0  0  0  0  0  0  0
   -1.1401   -0.0722   -4.9269 H   0  0  0  0  0  0  0  0  0  0  0  0
   -4.7950    1.4464    0.5105 H   0  0  0  0  0  0  0  0  0  0  0  0
   -6.3178    1.4823   -0.3524 H   0  0  0  0  0  0  0  0  0  0  0  0
   -2.3459   -2.0046   -6.0947 H   0  0  0  0  0  0  0  0  0  0  0  0
   -1.6186    1.0840   -1.3719 H   0  0  0  0  0  0  0  0  0  0  0  0
   -1.8745    2.7881   -1.0252 H   0  0  0  0  0  0  0  0  0  0  0  0
   -6.8252   -3.9232    1.4716 H   0  0  0  0  0  0  0  0  0  0  0  0
   -8.3929   -1.9561    1.6120 H   0  0  0  0  0  0  0  0  0  0  0  0
   -7.7548    0.1150    0.3787 H   0  0  0  0  0  0  0  0  0  0  0  0
   -4.4807   -3.4899    1.0013 H   0  0  0  0  0  0  0  0  0  0  0  0
   -3.8322   -1.4897    0.6285 H   0  0  0  0  0  0  0  0  0  0  0  0
   -6.0763    3.6209  -10.4366 H   0  0  0  0  0  0  0  0  0  0  0  0
   -6.4315    2.2175   -9.4408 H   0  0  0  0  0  0  0  0  0  0  0  0
   -6.4554    4.2826   -8.0923 H   0  0  0  0  0  0  0  0  0  0  0  0
   -5.1784    3.2194   -7.5778 H   0  0  0  0  0  0  0  0  0  0  0  0
   -3.5683    4.7184   -8.7827 H   0  0  0  0  0  0  0  0  0  0  0  0
   -1.0039    7.3298   -5.0952 H   0  0  0  0  0  0  0  0  0  0  0  0
   10.1853    6.4237    4.3136 H   0  0  0  0  0  0  0  0  0  0  0  0
    5.3344    7.8889    3.1176 H   0  0  0  0  0  0  0  0  0  0  0  0
    8.4325    4.8621    1.7809 H   0  0  0  0  0  0  0  0  0  0  0  0
    9.2146    8.4100    6.5764 H   0  0  0  0  0  0  0  0  0  0  0  0
   -2.9010    8.6934   -7.0344 H   0  0  0  0  0  0  0  0  0  0  0  0
   -3.8757   10.2668   -6.0676 H   0  0  0  0  0  0  0  0  0  0  0  0
   -2.1153   11.9738  -12.3333 H   0  0  0  0  0  0  0  0  0  0  0  0
    1.3525    9.0423   -1.8936 H   0  0  0  0  0  0  0  0  0  0  0  0
   -2.4327   11.5467   -6.4438 H   0  0  0  0  0  0  0  0  0  0  0  0
    2.0518    6.5661   -0.2150 H   0  0  0  0  0  0  0  0  0  0  0  0
   -3.1425    6.6337  -10.7649 H   0  0  0  0  0  0  0  0  0  0  0  0
   -4.7342   11.7040   -5.9654 H   0  0  0  0  0  0  0  0  0  0  0  0
   -3.3575   10.3937  -13.6347 H   0  0  0  0  0  0  0  0  0  0  0  0
   -0.6361    6.3515   -4.6587 H   0  0  0  0  0  0  0  0  0  0  0  0
    0.2044   11.5032  -12.9528 H   0  0  0  0  0  0  0  0  0  0  0  0
    4.7887    6.9225   -1.5564 H   0  0  0  0  0  0  0  0  0  0  0  0
   -3.5951   12.0418   -3.0735 H   0  0  0  0  0  0  0  0  0  0  0  0
   -3.0312    8.0711  -14.5789 H   0  0  0  0  0  0  0  0  0  0  0  0
   -4.5645   10.3259   -7.3095 H   0  0  0  0  0  0  0  0  0  0  0  0
   -2.7700   13.3075   -5.4048 H   0  0  0  0  0  0  0  0  0  0  0  0
   -6.8267    9.6318   -6.1773 H   0  0  0  0  0  0  0  0  0  0  0  0
   -2.8884   11.3631  -10.1404 H   0  0  0  0  0  0  0  0  0  0  0  0
   -2.4459   10.9407   -7.4930 H   0  0  0  0  0  0  0  0  0  0  0  0
   -3.0219   10.8698   -8.8521 H   0  0  0  0  0  0  0  0  0  0  0  0
   -1.5822    7.5983   -9.2961 H   0  0  0  0  0  0  0  0  0  0  0  0
   -2.4102    6.2896  -13.1751 H   0  0  0  0  0  0  0  0  0  0  0  0
   -1.3892    7.5664  -12.6192 H   0  0  0  0  0  0  0  0  0  0  0  0
    1.6637    6.5065   -4.9917 H   0  0  0  0  0  0  0  0  0  0  0  0
   -1.1097    8.1540   -1.7538 H   0  0  0  0  0  0  0  0  0  0  0  0
   -3.4541    7.3834   -7.8286 H   0  0  0  0  0  0  0  0  0  0  0  0
    0.1804   12.1331   -8.3871 H   0  0  0  0  0  0  0  0  0  0  0  0
   -5.4810    7.9881   -6.1008 H   0  0  0  0  0  0  0  0  0  0  0  0
    2.4485   12.0207  -12.3259 H   0  0  0  0  0  0  0  0  0  0  0  0
   -6.4060   12.0255   -4.4703 H   0  0  0  0  0  0  0  0  0  0  0  0
   -1.4256    8.7611  -10.4408 H   0  0  0  0  0  0  0  0  0  0  0  0
   -4.6583   11.3601   -2.7109 H   0  0  0  0  0  0  0  0  0  0  0  0
   -0.2646    7.1712   -9.1742 H   0  0  0  0  0  0  0  0  0  0  0  0
    3.7243   13.6727  -11.0243 H   0  0  0  0  0  0  0  0  0  0  0  0
    2.0731   14.2047  -11.2617 H   0  0  0  0  0  0  0  0  0  0  0  0
    0.2824    9.2528   -8.9594 H   0  0  0  0  0  0  0  0  0  0  0  0
   -0.2389   10.1087   -9.7168 H   0  0  0  0  0  0  0  0  0  0  0  0
   -5.4699    9.8657   -3.3194 H   0  0  0  0  0  0  0  0  0  0  0  0
   -5.0370   13.6312   -4.9918 H   0  0  0  0  0  0  0  0  0  0  0  0
   -2.9160    9.2911  -11.2893 H   0  0  0  0  0  0  0  0  0  0  0  0
   -3.8692    8.4834   -9.7876 H   0  0  0  0  0  0  0  0  0  0  0  0
    3.0102   11.0187   -9.7370 H   0  0  0  0  0  0  0  0  0  0  0  0
   -2.9922    9.6622  -10.2597 H   0  0  0  0  0  0  0  0  0  0  0  0
   -6.9729   12.2403   -6.4698 H   0  0  0  0  0  0  0  0  0  0  0  0
   -2.1043   12.8158  -10.6996 H   0  0  0  0  0  0  0  0  0  0  0  0
   -2.4425   13.3494   -2.4400 H   0  0  0  0  0  0  0  0  0  0  0  0
   -0.9899   13.4845   -3.4157 H   0  0  0  0  0  0  0  0  0  0  0  0
   -1.4017    7.8948   -6.5145 H   0  0  0  0  0  0  0  0  0  0  0  0
   -0.8785    7.7415   -7.1560 H   0  0  0  0  0  0  0  0  0  0  0  0
   -1.1073    8.9116   -6.3955 H   0  0  0  0  0  0  0  0  0  0  0  0
   -2.0005   15.2387   -4.5535 H   0  0  0  0  0  0  0  0  0  0  0  0
   -5.0261    6.6402  -10.5553 H   0  0  0  0  0  0  0  0  0  0  0  0
   -4.0528    5.7486   -9.4624 H   0  0  0  0  0  0  0  0  0  0  0  0
   -5.3224    6.9103   -9.6998 H   0  0  0  0  0  0  0  0  0  0  0  0
    1.4850   13.3796   -9.0233 H   0  0  0  0  0  0  0  0  0  0  0  0
    4.8573   12.3239  -10.5941 H   0  0  0  0  0  0  0  0  0  0  0  0
    5.2020   10.6148  -10.4464 H   0  0  0  0  0  0  0  0  0  0  0  0
    4.7139   11.2839  -11.9959 H   0  0  0  0  0  0  0  0  0  0  0  0
    4.4234   12.7208   -8.8244 H   0  0  0  0  0  0  0  0  0  0  0  0
    3.2586   12.5929   -7.5177 H   0  0  0  0  0  0  0  0  0  0  0  0
    3.1338   11.6289   -8.7344 H   0  0  0  0  0  0  0  0  0  0  0  0
    2.2665   15.6824   -9.2748 H   0  0  0  0  0  0  0  0  0  0  0  0
    2.7569   15.0134   -7.7259 H   0  0  0  0  0  0  0  0  0  0  0  0
    3.9220   15.1447   -9.0347 H   0  0  0  0  0  0  0  0  0  0  0  0
    5.7248    8.0634    1.3327 H   0  0  0  0  0  0  0  0  0  0  0  0
    4.9533    2.9478    1.4619 H   0  0  0  0  0  0  0  0  0  0  0  0
    4.2474    4.3445   -0.4991 H   0  0  0  0  0  0  0  0  0  0  0  0
    6.7607    2.6979    3.1174 H   0  0  0  0  0  0  0  0  0  0  0  0
  1  5  2  0  0  0  0
  1  2  1  0  0  0  0
  3  4  1  0  0  0  0
  4 35  1  0  0  0  0
  4139  1  0  0  0  0
  4140  1  0  0  0  0
  5  6  1  0  0  0  0
  6  7  2  0  0  0  0
  7 27  1  0  0  0  0
  7  8  1  0  0  0  0
  8  1  1  0  0  0  0
  9 11  2  0  0  0  0
  9 10  1  0  0  0  0
 10  5  1  0  0  0  0
 10 28  2  0  0  0  0
 12 13  2  0  0  0  0
 12 21  1  0  0  0  0
 13 20  1  0  0  0  0
 13 14  1  0  0  0  0
 14 15  1  0  0  0  0
 14141  1  0  0  0  0
 14142  1  0  0  0  0
 16 12  1  0  0  0  0
 16 17  1  0  0  0  0
 17 15  1  0  0  0  0
 17 25  1  6  0  0  0
 17 18  1  0  0  0  0
 18 19  1  0  0  0  0
 18143  1  6  0  0  0
 18 26  1  0  0  0  0
 19 16  1  0  0  0  0
 19 24  2  0  0  0  0
 20 29  1  0  0  0  0
 20144  1  0  0  0  0
 20145  1  0  0  0  0
 21 22  2  0  0  0  0
 21 23  1  0  0  0  0
 26  9  1  0  0  0  0
 26146  1  0  0  0  0
 27147  1  0  0  0  0
 27148  1  0  0  0  0
 28  3  1  0  0  0  0
 29 34  2  0  0  0  0
 30 31  1  0  0  0  0
 30149  1  0  0  0  0
 31 32  2  0  0  0  0
 31150  1  0  0  0  0
 32 29  1  0  0  0  0
 32151  1  0  0  0  0
 33 30  2  0  0  0  0
 33 34  1  0  0  0  0
 33152  1  0  0  0  0
 34153  1  0  0  0  0
 35 36  1  0  0  0  0
 35154  1  0  0  0  0
 35155  1  0  0  0  0
 36 37  1  0  0  0  0
 36156  1  0  0  0  0
 36157  1  0  0  0  0
 37158  1  0  0  0  0
 38 39  2  0  0  0  0
 38134  1  0  0  0  0
 39 40  1  0  0  0  0
 40 47  1  0  0  0  0
 40159  1  6  0  0  0
 40131  1  0  0  0  0
 41 38  1  0  0  0  0
 41 42  2  0  0  0  0
 42 44  1  0  0  0  0
 42160  1  0  0  0  0
 43 39  1  0  0  0  0
 43161  1  0  0  0  0
 44 43  2  0  0  0  0
 45 41  1  0  0  0  0
 45162  1  0  0  0  0
 46 44  1  0  0  0  0
 46163  1  0  0  0  0
 47 48  1  0  0  0  0
 47164  1  0  0  0  0
 48 49  1  0  0  0  0
 48 50  2  0  0  0  0
 49 52  1  0  0  0  0
 49165  1  1  0  0  0
 51 57  1  0  0  0  0
 51166  1  6  0  0  0
 51 64  1  0  0  0  0
 52167  1  0  0  0  0
 53 54  1  0  0  0  0
 53130  1  1  0  0  0
 54 70  1  0  0  0  0
 54168  1  6  0  0  0
 55 68  1  0  0  0  0
 55169  1  0  0  0  0
 56170  1  0  0  0  0
 57 62  1  0  0  0  0
 58 52  1  0  0  0  0
 59 55  1  0  0  0  0
 60 65  1  0  0  0  0
 60 66  2  0  0  0  0
 61 53  1  0  0  0  0
 61113  1  0  0  0  0
 61171  1  6  0  0  0
 62172  1  0  0  0  0
 63 56  1  0  0  0  0
 63 59  1  0  0  0  0
 63173  1  1  0  0  0
 64174  1  0  0  0  0
 65 74  1  0  0  0  0
 66 90  1  0  0  0  0
 67 56  1  0  0  0  0
 68 58  1  0  0  0  0
 68175  1  6  0  0  0
 69 54  1  0  0  0  0
 70 60  1  0  0  0  0
 71 82  1  0  0  0  0
 71112  1  6  0  0  0
 71123  1  0  0  0  0
 72 63  1  0  0  0  0
 73 61  1  0  0  0  0
 73114  1  0  0  0  0
 73176  1  1  0  0  0
 74 92  1  0  0  0  0
 75 66  1  0  0  0  0
 76 62  1  0  0  0  0
 76 67  1  0  0  0  0
 76177  1  6  0  0  0
 76 86  1  0  0  0  0
 77178  1  1  0  0  0
 77 89  1  0  0  0  0
 78 64  1  0  0  0  0
 79 69  1  0  0  0  0
 79 73  1  0  0  0  0
 79179  1  6  0  0  0
 79122  1  0  0  0  0
 80 49  1  0  0  0  0
 80119  1  0  0  0  0
 80180  1  6  0  0  0
 81 51  1  0  0  0  0
 81181  1  1  0  0  0
 81121  1  0  0  0  0
 82 77  1  0  0  0  0
 82182  1  0  0  0  0
 82183  1  0  0  0  0
 83 77  1  0  0  0  0
 84 68  1  0  0  0  0
 84133  2  0  0  0  0
 85 94  1  0  0  0  0
 85117  1  0  0  0  0
 85 71  1  0  0  0  0
 85184  1  6  0  0  0
 86185  1  0  0  0  0
 86186  1  0  0  0  0
 87 80  1  0  0  0  0
 88 81  1  0  0  0  0
 88107  2  0  0  0  0
 89 53  1  0  0  0  0
 90 72  2  0  0  0  0
 90187  1  0  0  0  0
 91 72  1  0  0  0  0
 91 65  2  0  0  0  0
 91188  1  0  0  0  0
 92108  1  0  0  0  0
 93 75  1  0  0  0  0
 94 83  1  0  0  0  0
 94189  1  1  0  0  0
 94125  1  0  0  0  0
 95 93  1  0  0  0  0
 96 99  1  0  0  0  0
 96 92  2  0  0  0  0
 97 86  1  0  0  0  0
 98 95  2  0  0  0  0
 98 88  1  0  0  0  0
 98190  1  0  0  0  0
 99 87  2  0  0  0  0
 99191  1  0  0  0  0
100 78  1  0  0  0  0
100116  1  0  0  0  0
100192  1  6  0  0  0
101 57  2  0  0  0  0
102 59  2  0  0  0  0
103 58  2  0  0  0  0
104 67  2  0  0  0  0
105 78  2  0  0  0  0
106 87  1  0  0  0  0
106193  1  0  0  0  0
107109  1  0  0  0  0
107194  1  0  0  0  0
108106  2  0  0  0  0
108195  1  0  0  0  0
109 93  2  0  0  0  0
109196  1  0  0  0  0
110 97  2  0  0  0  0
111100  1  0  0  0  0
111197  1  0  0  0  0
111198  1  0  0  0  0
112199  1  0  0  0  0
112200  1  0  0  0  0
113201  1  0  0  0  0
114202  1  0  0  0  0
115 97  1  0  0  0  0
115203  1  0  0  0  0
115204  1  0  0  0  0
116205  1  0  0  0  0
117206  1  0  0  0  0
118 96  1  0  0  0  0
119207  1  0  0  0  0
120 95  1  0  0  0  0
121208  1  0  0  0  0
122209  1  0  0  0  0
122210  1  0  0  0  0
123211  1  0  0  0  0
123212  1  0  0  0  0
123213  1  0  0  0  0
124122  1  0  0  0  0
124214  1  0  0  0  0
125215  1  0  0  0  0
125216  1  0  0  0  0
125217  1  0  0  0  0
126111  1  0  0  0  0
126218  1  0  0  0  0
127116  1  0  0  0  0
127219  1  0  0  0  0
127220  1  0  0  0  0
127221  1  0  0  0  0
128126  1  0  0  0  0
128222  1  0  0  0  0
128223  1  0  0  0  0
128224  1  0  0  0  0
129126  1  0  0  0  0
129225  1  0  0  0  0
129226  1  0  0  0  0
129227  1  0  0  0  0
131 37  1  0  0  0  0
131132  2  0  0  0  0
133134  1  0  0  0  0
133228  1  0  0  0  0
134135  2  0  0  0  0
135136  1  0  0  0  0
135138  1  0  0  0  0
136137  2  0  0  0  0
136229  1  0  0  0  0
137 84  1  0  0  0  0
137230  1  0  0  0  0
138231  1  0  0  0  0
M  CHG  2  23  -1  29   1
M  END
>  <DRUGBANK_ID>
DB05735

>  <COMMON_NAME>
Cefilavancin

>  <CAS_NUMBER>
722454-12-8

>  <UNII>
F76229E21M

>  <SYNONYMS>
Cefilavancin

$$$$
