CL3
 OpenBabel10282417133D

 43 46  0  0  0  0  0  0  0  0999 V2000
    0.9783    0.1074   -0.1345 O   0  0  0  0  0  0  0  0  0  0  0  0
    6.3703   -1.1764   -3.7254 N   0  0  0  0  0  0  0  0  0  0  0  0
    7.0802   -1.6641   -2.6636 N   0  0  0  0  0  0  0  0  0  0  0  0
    7.8560   -2.8029   -2.6281 C   0  0  0  0  0  0  0  0  0  0  0  0
    7.9454   -3.5639   -3.8128 C   0  0  0  0  0  0  0  0  0  0  0  0
    7.2750   -3.1620   -4.9022 C   0  0  0  0  0  0  0  0  0  0  0  0
    6.4706   -1.9104   -4.7899 C   0  0  0  0  0  0  0  0  0  0  0  0
    7.1897   -1.1031   -1.4112 C   0  0  0  0  0  0  0  0  0  0  0  0
    7.9834   -1.8602   -0.6719 N   0  0  0  0  0  0  0  0  0  0  0  0
    8.3927   -2.9354   -1.4351 N   0  0  0  0  0  0  0  0  0  0  0  0
    5.7481   -1.4874   -6.0064 C   0  0  0  0  0  0  0  0  0  0  0  0
    6.4942    0.1062   -0.9949 C   0  0  0  0  0  0  0  0  0  0  0  0
    5.1011    0.1752   -1.0971 C   0  0  0  0  0  0  0  0  0  0  0  0
    4.3858    1.2419   -0.5486 C   0  0  0  0  0  0  0  0  0  0  0  0
    5.0913    2.3152    0.0046 C   0  0  0  0  0  0  0  0  0  0  0  0
    6.4855    2.2706    0.0847 C   0  0  0  0  0  0  0  0  0  0  0  0
    7.1855    1.1743   -0.4227 C   0  0  0  0  0  0  0  0  0  0  0  0
    4.7747   -2.3174   -6.5675 C   0  0  0  0  0  0  0  0  0  0  0  0
    4.0369   -1.8656   -7.6617 C   0  0  0  0  0  0  0  0  0  0  0  0
    4.2571   -0.5856   -8.1744 C   0  0  0  0  0  0  0  0  0  0  0  0
    5.2117    0.2501   -7.5929 C   0  0  0  0  0  0  0  0  0  0  0  0
    5.9788   -0.2082   -6.5224 C   0  0  0  0  0  0  0  0  0  0  0  0
    2.9681    1.2028   -0.4941 N   0  0  0  0  0  0  0  0  0  0  0  0
    2.2362    2.4026   -0.8902 C   0  0  0  0  0  0  0  0  0  0  0  0
    2.2196    0.0913   -0.1060 C   0  0  0  0  0  0  0  0  0  0  0  0
    2.9043   -1.1578    0.4231 C   0  0  0  0  0  0  0  0  0  0  0  0
    8.5681   -4.4509   -3.8205 H   0  0  0  0  0  0  0  0  0  0  0  0
    7.3210   -3.6910   -5.8449 H   0  0  0  0  0  0  0  0  0  0  0  0
    4.5654   -0.6418   -1.5767 H   0  0  0  0  0  0  0  0  0  0  0  0
    4.5695    3.1646    0.4381 H   0  0  0  0  0  0  0  0  0  0  0  0
    7.0251    3.0723    0.5824 H   0  0  0  0  0  0  0  0  0  0  0  0
    8.2717    1.1552   -0.3710 H   0  0  0  0  0  0  0  0  0  0  0  0
    4.5632   -3.2947   -6.1432 H   0  0  0  0  0  0  0  0  0  0  0  0
    3.2709   -2.5001   -8.1007 H   0  0  0  0  0  0  0  0  0  0  0  0
    3.6759   -0.2340   -9.0239 H   0  0  0  0  0  0  0  0  0  0  0  0
    5.3446    1.2636   -7.9637 H   0  0  0  0  0  0  0  0  0  0  0  0
    6.7433    0.4328   -6.0897 H   0  0  0  0  0  0  0  0  0  0  0  0
    1.5850    2.1517   -1.7357 H   0  0  0  0  0  0  0  0  0  0  0  0
    1.6099    2.7451   -0.0606 H   0  0  0  0  0  0  0  0  0  0  0  0
    2.8990    3.2124   -1.2095 H   0  0  0  0  0  0  0  0  0  0  0  0
    2.5250   -1.3831    1.4228 H   0  0  0  0  0  0  0  0  0  0  0  0
    2.6805   -1.9910   -0.2507 H   0  0  0  0  0  0  0  0  0  0  0  0
    3.9826   -1.0916    0.5403 H   0  0  0  0  0  0  0  0  0  0  0  0
  1 25  2  0  0  0  0
  2  3  1  0  0  0  0
  2  7  2  0  0  0  0
  3  4  1  0  0  0  0
  3  8  1  0  0  0  0
  4  5  1  0  0  0  0
  4 10  2  0  0  0  0
  5  6  2  0  0  0  0
  5 27  1  0  0  0  0
  6  7  1  0  0  0  0
  6 28  1  0  0  0  0
  7 11  1  0  0  0  0
  8  9  2  0  0  0  0
  8 12  1  0  0  0  0
  9 10  1  0  0  0  0
 11 18  2  0  0  0  0
 11 22  1  0  0  0  0
 12 13  2  0  0  0  0
 12 17  1  0  0  0  0
 13 14  1  0  0  0  0
 13 29  1  0  0  0  0
 14 15  2  0  0  0  0
 14 23  1  0  0  0  0
 15 16  1  0  0  0  0
 15 30  1  0  0  0  0
 16 17  2  0  0  0  0
 16 31  1  0  0  0  0
 17 32  1  0  0  0  0
 18 19  1  0  0  0  0
 18 33  1  0  0  0  0
 19 20  2  0  0  0  0
 19 34  1  0  0  0  0
 20 21  1  0  0  0  0
 20 35  1  0  0  0  0
 21 22  2  0  0  0  0
 21 36  1  0  0  0  0
 22 37  1  0  0  0  0
 23 24  1  0  0  0  0
 23 25  1  0  0  0  0
 24 38  1  0  0  0  0
 24 39  1  0  0  0  0
 24 40  1  0  0  0  0
 25 26  1  0  0  0  0
 26 41  1  0  0  0  0
 26 42  1  0  0  0  0
 26 43  1  0  0  0  0
M  END
>  <DRUGBANK_ID>
DB04154

>  <SECONDARY_ACCESSION_NUMBERS>
EXPT00933

>  <COMMON_NAME>
N-Methyl-N-[3-(6-Phenyl[1,2,4]Triazolo[4,3-B]Pyridazin-3-Yl)Phenyl]Acetamide

$$$$
