
 OpenBabel10282417233D

 12 12  0  0  0  0  0  0  0  0999 V2000
    1.1024    0.0507   -0.0511 O   0  0  0  0  0  0  0  0  0  0  0  0
    2.3297    0.0493   -0.0421 C   0  0  0  0  0  0  0  0  0  0  0  0
    3.0770    1.1898    0.0275 N   0  0  0  0  0  0  0  0  0  0  0  0
    4.4145    1.2513   -0.2469 C   0  0  0  0  0  0  0  0  0  0  0  0
    5.0008    2.3113   -0.4364 O   0  0  0  0  0  0  0  0  0  0  0  0
    5.0582    0.0433   -0.3077 N   0  0  0  0  0  0  0  0  0  0  0  0
    4.4189   -1.1586   -0.1869 C   0  0  0  0  0  0  0  0  0  0  0  0
    3.0875   -1.2163   -0.1016 C   0  0  0  0  0  0  0  0  0  0  0  0
    2.5818    2.0652    0.0851 H   0  0  0  0  0  0  0  0  0  0  0  0
    6.0565    0.0834   -0.4812 H   0  0  0  0  0  0  0  0  0  0  0  0
    5.0403   -2.0481   -0.1902 H   0  0  0  0  0  0  0  0  0  0  0  0
    2.5282   -2.1409   -0.0665 H   0  0  0  0  0  0  0  0  0  0  0  0
  1  2  2  0  0  0  0
  2  3  1  0  0  0  0
  2  8  1  0  0  0  0
  3  4  1  0  0  0  0
  3  9  1  0  0  0  0
  4  5  2  0  0  0  0
  4  6  1  0  0  0  0
  6  7  1  0  0  0  0
  6 10  1  0  0  0  0
  7  8  2  0  0  0  0
  7 11  1  0  0  0  0
  8 12  1  0  0  0  0
M  ISO  1   4  13
M  END
>  <DRUGBANK_ID>
DB16345

>  <COMMON_NAME>
Uracil C-13

>  <CAS_NUMBER>
35803-45-3

>  <UNII>
OZF8J4VAIK

>  <SYNONYMS>
13C-uracil; Uracil (2-13c); Uracil 2c-13; Uracil C-13, 2-; Uracil-(2-13c)

$$$$
