
 OpenBabel10282417243D

 32 33  0  0  0  0  0  0  0  0999 V2000
    0.9171    0.0492    0.0073 N   0  0  0  0  0  0  0  0  0  0  0  0
    0.4252    1.0891    0.8955 C   0  0  0  0  0  0  0  0  0  0  0  0
    0.9018    2.4212    0.4331 C   0  0  0  0  0  0  0  0  0  0  0  0
    0.1105    3.4695    0.1578 C   0  0  0  0  0  0  0  0  0  0  0  0
   -1.2298    3.2923    0.2272 F   0  0  0  0  0  0  0  0  0  0  0  0
    0.6042    4.8122   -0.2784 C   0  0  0  0  0  0  0  0  0  0  0  0
    1.6037    5.5848    0.9785 S   0  0  0  0  0  0  0  0  0  0  0  0
    2.7058    4.6713    1.2355 O   0  0  0  0  0  0  0  0  0  0  0  0
    1.8759    6.9333    0.5131 O   0  0  0  0  0  0  0  0  0  0  0  0
    0.5982    5.7686    2.4411 C   0  0  0  0  0  0  0  0  0  0  0  0
    1.2164    5.7430    3.6960 C   0  0  0  0  0  0  0  0  0  0  0  0
    2.5323    5.4996    3.8501 N   0  0  0  0  0  0  0  0  0  0  0  0
    3.0758    5.4874    5.0835 C   0  0  0  0  0  0  0  0  0  0  0  0
    2.3609    5.7391    6.2319 C   0  0  0  0  0  0  0  0  0  0  0  0
    1.0053    6.0046    6.1003 C   0  0  0  0  0  0  0  0  0  0  0  0
    0.4072    6.0002    4.8300 C   0  0  0  0  0  0  0  0  0  0  0  0
   -0.9667    6.2547    4.6900 C   0  0  0  0  0  0  0  0  0  0  0  0
   -1.5580    6.2538    3.4315 C   0  0  0  0  0  0  0  0  0  0  0  0
   -0.7780    6.0179    2.3035 C   0  0  0  0  0  0  0  0  0  0  0  0
    0.6052    0.2448   -0.9421 H   0  0  0  0  0  0  0  0  0  0  0  0
    1.9357    0.0670   -0.0095 H   0  0  0  0  0  0  0  0  0  0  0  0
   -0.6670    1.0439    0.9393 H   0  0  0  0  0  0  0  0  0  0  0  0
    0.7993    0.9086    1.9092 H   0  0  0  0  0  0  0  0  0  0  0  0
    1.9829    2.5362    0.3723 H   0  0  0  0  0  0  0  0  0  0  0  0
    1.2170    4.7196   -1.1815 H   0  0  0  0  0  0  0  0  0  0  0  0
   -0.2288    5.4767   -0.5240 H   0  0  0  0  0  0  0  0  0  0  0  0
    4.1378    5.2628    5.1115 H   0  0  0  0  0  0  0  0  0  0  0  0
    2.8470    5.7297    7.2002 H   0  0  0  0  0  0  0  0  0  0  0  0
    0.4215    6.2148    6.9937 H   0  0  0  0  0  0  0  0  0  0  0  0
   -1.5841    6.4599    5.5633 H   0  0  0  0  0  0  0  0  0  0  0  0
   -2.6227    6.4537    3.3313 H   0  0  0  0  0  0  0  0  0  0  0  0
   -1.2607    6.0586    1.3327 H   0  0  0  0  0  0  0  0  0  0  0  0
  1  2  1  0  0  0  0
  1 20  1  0  0  0  0
  1 21  1  0  0  0  0
  2  3  1  0  0  0  0
  2 22  1  0  0  0  0
  2 23  1  0  0  0  0
  3  4  2  0  0  0  0
  3 24  1  0  0  0  0
  4  5  1  0  0  0  0
  4  6  1  0  0  0  0
  6  7  1  0  0  0  0
  6 25  1  0  0  0  0
  6 26  1  0  0  0  0
  7  8  2  0  0  0  0
  7  9  2  0  0  0  0
  7 10  1  0  0  0  0
 10 11  2  0  0  0  0
 10 19  1  0  0  0  0
 11 12  1  0  0  0  0
 11 16  1  0  0  0  0
 12 13  2  0  0  0  0
 13 14  1  0  0  0  0
 13 27  1  0  0  0  0
 14 15  2  0  0  0  0
 14 28  1  0  0  0  0
 15 16  1  0  0  0  0
 15 29  1  0  0  0  0
 16 17  2  0  0  0  0
 17 18  1  0  0  0  0
 17 30  1  0  0  0  0
 18 19  2  0  0  0  0
 18 31  1  0  0  0  0
 19 32  1  0  0  0  0
M  END
>  <DRUGBANK_ID>
DB17510

>  <COMMON_NAME>
PXS-5505

>  <CAS_NUMBER>
2409963-83-1

>  <UNII>
DO94E28WYW

>  <SYNONYMS>
2-buten-1-amine, 3-fluoro-4-(8-quinolinylsulfonyl)-, (2z)-

$$$$
