
 OpenBabel10282417233D

 58 57  0  0  0  0  0  0  0  0999 V2000
    0.9208   -0.0604    0.0089 H   0  0  0  0  0  0  0  0  0  0  0  0
    1.9908   -0.0604    0.0089 C   0  0  0  0  0  0  0  0  0  0  0  0
    2.3475   -1.0665   -0.0646 H   0  0  0  0  0  0  0  0  0  0  0  0
    2.4975    0.7447   -1.1767 C   0  0  0  0  0  0  0  0  0  0  0  0
    3.2796    1.8387   -0.9716 C   0  0  0  0  0  0  0  0  0  0  0  0
    3.6468    2.2560    0.4432 C   0  0  0  0  0  0  0  0  0  0  0  0
    5.1583    2.2323    0.6022 C   0  0  0  0  0  0  0  0  0  0  0  0
    5.7873    3.1968   -0.3900 C   0  0  0  0  0  0  0  0  0  0  0  0
    5.2721    4.6024   -0.1265 C   0  0  0  0  0  0  0  0  0  0  0  0
    5.6393    5.0197    1.2882 C   0  0  0  0  0  0  0  0  0  0  0  0
    2.4975    0.5638    1.2989 C   0  0  0  0  0  0  0  0  0  0  0  0
    1.6134    1.0141    2.2297 C   0  0  0  0  0  0  0  0  0  0  0  0
    0.1190    0.8932    1.9796 C   0  0  0  0  0  0  0  0  0  0  0  0
   -0.5100    0.0425    3.0710 C   0  0  0  0  0  0  0  0  0  0  0  0
   -0.2738    0.6965    4.4226 C   0  0  0  0  0  0  0  0  0  0  0  0
   -0.9029    2.0802    4.4329 C   0  0  0  0  0  0  0  0  0  0  0  0
   -2.3973    1.9592    4.1828 C   0  0  0  0  0  0  0  0  0  0  0  0
   -3.0263    1.1086    5.2742 C   0  0  0  0  0  0  0  0  0  0  0  0
   -2.7901    1.7626    6.6258 C   0  0  0  0  0  0  0  0  0  0  0  0
   -3.4191    3.1463    6.6360 C   0  0  0  0  0  0  0  0  0  0  0  0
   -4.3263    3.4256    7.4811 O   0  0  0  0  0  0  0  0  0  0  0  0
   -2.9932    4.1268    5.7014 O   0  0  0  0  0  0  0  0  0  0  0  0
   -3.5809    5.4194    5.7109 C   0  0  0  0  0  0  0  0  0  0  0  0
   -5.0753    5.2984    5.4609 C   0  0  0  0  0  0  0  0  0  0  0  0
    2.2390    0.4509   -2.1725 H   0  0  0  0  0  0  0  0  0  0  0  0
    3.6363    2.4054   -1.8061 H   0  0  0  0  0  0  0  0  0  0  0  0
    3.2841    3.2454    0.6286 H   0  0  0  0  0  0  0  0  0  0  0  0
    3.2040    1.5771    1.1416 H   0  0  0  0  0  0  0  0  0  0  0  0
    5.4168    2.5261    1.5981 H   0  0  0  0  0  0  0  0  0  0  0  0
    5.5209    1.2429    0.4167 H   0  0  0  0  0  0  0  0  0  0  0  0
    6.8513    3.1801   -0.2780 H   0  0  0  0  0  0  0  0  0  0  0  0
    5.5288    2.9030   -1.3858 H   0  0  0  0  0  0  0  0  0  0  0  0
    5.7150    5.2813   -0.8249 H   0  0  0  0  0  0  0  0  0  0  0  0
    4.2081    4.6190   -0.2384 H   0  0  0  0  0  0  0  0  0  0  0  0
    6.7033    5.0030    1.4002 H   0  0  0  0  0  0  0  0  0  0  0  0
    5.2767    6.0091    1.4737 H   0  0  0  0  0  0  0  0  0  0  0  0
    5.1965    4.3407    1.9867 H   0  0  0  0  0  0  0  0  0  0  0  0
    3.5495    0.6489    1.4749 H   0  0  0  0  0  0  0  0  0  0  0  0
    1.9701    1.4535    3.1378 H   0  0  0  0  0  0  0  0  0  0  0  0
   -0.3238    1.8672    1.9868 H   0  0  0  0  0  0  0  0  0  0  0  0
   -0.0473    0.4328    1.0282 H   0  0  0  0  0  0  0  0  0  0  0  0
   -1.5620   -0.0426    2.8950 H   0  0  0  0  0  0  0  0  0  0  0  0
   -0.0672   -0.9315    3.0638 H   0  0  0  0  0  0  0  0  0  0  0  0
   -0.7166    0.0977    5.1909 H   0  0  0  0  0  0  0  0  0  0  0  0
    0.7782    0.7817    4.5986 H   0  0  0  0  0  0  0  0  0  0  0  0
   -0.7365    2.5406    5.3843 H   0  0  0  0  0  0  0  0  0  0  0  0
   -0.4600    2.6790    3.6646 H   0  0  0  0  0  0  0  0  0  0  0  0
   -2.8401    2.9333    4.1900 H   0  0  0  0  0  0  0  0  0  0  0  0
   -2.5636    1.4988    3.2314 H   0  0  0  0  0  0  0  0  0  0  0  0
   -4.0783    1.0234    5.0982 H   0  0  0  0  0  0  0  0  0  0  0  0
   -2.5835    0.1345    5.2670 H   0  0  0  0  0  0  0  0  0  0  0  0
   -3.2329    1.1638    7.3941 H   0  0  0  0  0  0  0  0  0  0  0  0
   -1.7381    1.8477    6.8018 H   0  0  0  0  0  0  0  0  0  0  0  0
   -3.4146    5.8798    6.6624 H   0  0  0  0  0  0  0  0  0  0  0  0
   -3.1381    6.0182    4.9427 H   0  0  0  0  0  0  0  0  0  0  0  0
   -5.5182    4.6996    6.2292 H   0  0  0  0  0  0  0  0  0  0  0  0
   -5.5182    6.2725    5.4681 H   0  0  0  0  0  0  0  0  0  0  0  0
   -5.2416    4.8380    4.5094 H   0  0  0  0  0  0  0  0  0  0  0  0
  1  2  1  0  0  0  0
  2  3  1  0  0  0  0
  2  4  1  0  0  0  0
  2 11  1  0  0  0  0
  4  5  2  0  0  0  0
  4 25  1  0  0  0  0
  5  6  1  0  0  0  0
  5 26  1  0  0  0  0
  6  7  1  0  0  0  0
  6 27  1  0  0  0  0
  6 28  1  0  0  0  0
  7  8  1  0  0  0  0
  7 29  1  0  0  0  0
  7 30  1  0  0  0  0
  8  9  1  0  0  0  0
  8 31  1  0  0  0  0
  8 32  1  0  0  0  0
  9 10  1  0  0  0  0
  9 33  1  0  0  0  0
  9 34  1  0  0  0  0
 10 35  1  0  0  0  0
 10 36  1  0  0  0  0
 10 37  1  0  0  0  0
 11 12  2  0  0  0  0
 11 38  1  0  0  0  0
 12 13  1  0  0  0  0
 12 39  1  0  0  0  0
 13 14  1  0  0  0  0
 13 40  1  0  0  0  0
 13 41  1  0  0  0  0
 14 15  1  0  0  0  0
 14 42  1  0  0  0  0
 14 43  1  0  0  0  0
 15 16  1  0  0  0  0
 15 44  1  0  0  0  0
 15 45  1  0  0  0  0
 16 17  1  0  0  0  0
 16 46  1  0  0  0  0
 16 47  1  0  0  0  0
 17 18  1  0  0  0  0
 17 48  1  0  0  0  0
 17 49  1  0  0  0  0
 18 19  1  0  0  0  0
 18 50  1  0  0  0  0
 18 51  1  0  0  0  0
 19 20  1  0  0  0  0
 19 52  1  0  0  0  0
 19 53  1  0  0  0  0
 20 21  2  0  0  0  0
 20 22  1  0  0  0  0
 22 23  1  0  0  0  0
 23 24  1  0  0  0  0
 23 54  1  0  0  0  0
 23 55  1  0  0  0  0
 24 56  1  0  0  0  0
 24 57  1  0  0  0  0
 24 58  1  0  0  0  0
M  ISO  2   1   2   3   2
M  END
>  <DRUGBANK_ID>
DB16949

>  <COMMON_NAME>
Deulinoleate ethyl

>  <CAS_NUMBER>
1404475-07-5

>  <UNII>
24B102R86P

>  <SYNONYMS>
9-cis, 12-cis-11,11-d2-linoleic acid ethyl ester; 9-cis,12-cis-11,11-D2-linoleic acid ethyl ester; 9,12-octadecadienoic-11,11-d2 acid, ethyl ester, (9z,12z)-; Di-deuterated linoleic acid; ethyl (9Z,12Z)-octadeca-9,12-dienoate-11,11-d2

$$$$
