Cytidine.mol
 OpenBabel10282417123D

 30 31  0  0  0  0  0  0  0  0999 V2000
    0.0121   -1.2953   -0.0055 N   0  0  0  0  0  0  0  0  0  0  0  0
    1.1987   -0.5617   -0.0043 C   0  0  0  0  0  0  0  0  0  0  0  0
   -1.2032   -0.6431   -0.0409 C   0  0  0  0  0  0  0  0  0  0  0  0
    1.1518    0.8037   -0.0640 N   0  0  0  0  0  0  0  0  0  0  0  0
    0.0085    1.4061   -0.0021 C   0  0  0  0  0  0  0  0  0  0  0  0
   -1.2692    0.6795    0.1108 C   0  0  0  0  0  0  0  0  0  0  0  0
    0.0540   -2.7559    0.1348 C   0  0  2  0  0  0  0  0  0  0  0  0
    0.5517   -3.1332    1.4388 O   0  0  0  0  0  0  0  0  0  0  0  0
    0.8946   -3.4894   -0.9154 C   0  0  1  0  0  0  0  0  0  0  0  0
    1.4447   -4.2635    1.2960 C   0  0  1  0  0  0  0  0  0  0  0  0
    1.3705   -4.7220   -0.1646 C   0  0  1  0  0  0  0  0  0  0  0  0
    0.1446   -3.7872   -2.0928 O   0  0  0  0  0  0  0  0  0  0  0  0
    2.2954   -1.1255   -0.0114 O   0  0  0  0  0  0  0  0  0  0  0  0
    0.4215   -5.7912   -0.3276 O   0  0  0  0  0  0  0  0  0  0  0  0
    0.0153    2.7656   -0.0885 N   0  0  0  0  0  0  0  0  0  0  0  0
    2.8795   -3.9536    1.7731 C   0  0  0  0  0  0  0  0  0  0  0  0
    3.4101   -2.6855    1.4653 O   0  0  0  0  0  0  0  0  0  0  0  0
   -2.1017   -1.2416   -0.1513 H   0  0  0  0  0  0  0  0  0  0  0  0
   -2.1871    1.2292    0.2466 H   0  0  0  0  0  0  0  0  0  0  0  0
   -0.9782   -3.1347    0.0910 H   0  0  0  0  0  0  0  0  0  0  0  0
    1.7629   -2.9141   -1.2306 H   0  0  0  0  0  0  0  0  0  0  0  0
    1.0688   -5.0669    1.9462 H   0  0  0  0  0  0  0  0  0  0  0  0
    2.3293   -5.0967   -0.5351 H   0  0  0  0  0  0  0  0  0  0  0  0
   -0.4841   -4.4977   -1.8756 H   0  0  0  0  0  0  0  0  0  0  0  0
   -0.4281   -5.5354    0.0673 H   0  0  0  0  0  0  0  0  0  0  0  0
   -0.8297    3.3019   -0.2188 H   0  0  0  0  0  0  0  0  0  0  0  0
    0.8906    3.1993   -0.3635 H   0  0  0  0  0  0  0  0  0  0  0  0
    2.9244   -4.0286    2.8637 H   0  0  0  0  0  0  0  0  0  0  0  0
    3.5781   -4.6898    1.3670 H   0  0  0  0  0  0  0  0  0  0  0  0
    3.0471   -2.3382    0.6249 H   0  0  0  0  0  0  0  0  0  0  0  0
  1  2  1  0  0  0  0
  1  3  1  0  0  0  0
  2 13  2  0  0  0  0
  2  4  1  0  0  0  0
  3  6  2  0  0  0  0
  3 18  1  0  0  0  0
  4  5  2  0  0  0  0
  5 15  1  0  0  0  0
  6  5  1  0  0  0  0
  6 19  1  0  0  0  0
  7  1  1  0  0  0  0
  7  8  1  0  0  0  0
  7  9  1  0  0  0  0
  7 20  1  6  0  0  0
  8 10  1  0  0  0  0
  9 11  1  0  0  0  0
  9 12  1  0  0  0  0
  9 21  1  6  0  0  0
 10 11  1  0  0  0  0
 10 22  1  1  0  0  0
 10 16  1  0  0  0  0
 11 14  1  0  0  0  0
 11 23  1  6  0  0  0
 12 24  1  0  0  0  0
 14 25  1  0  0  0  0
 15 26  1  0  0  0  0
 15 27  1  0  0  0  0
 16 17  1  0  0  0  0
 16 28  1  0  0  0  0
 16 29  1  0  0  0  0
 17 30  1  0  0  0  0
M  END
>  <DRUGBANK_ID>
DB02097

>  <SECONDARY_ACCESSION_NUMBERS>
EXPT01051

>  <COMMON_NAME>
Cytidine

>  <CAS_NUMBER>
65-46-3

>  <UNII>
5CSZ8459RP

>  <SYNONYMS>
1-beta-D-Ribofuranosylcytosine; 1β-D-ribofuranosylcytosine; 4-amino-1-β-D-ribofuranosylpyrimidin-2(1H)-one; 4-amino-1β-D-ribofuranosyl-2(1H)-pyrimidinone; Citidina; Cytidin; Cytosine riboside; Zytidin

$$$$
