
 OpenBabel10282417203D

 26 26  0  0  0  0  0  0  0  0999 V2000
    0.8412   -0.3992   -0.0339 C   0  0  0  0  0  0  0  0  0  0  0  0
    0.1355   -0.2416   -1.1651 C   0  0  0  0  0  0  0  0  0  0  0  0
   -1.8523    4.7792   -0.3486 C   0  0  0  0  0  0  0  0  0  0  0  0
   -2.1826    3.5305   -0.9147 C   0  0  0  0  0  0  0  0  0  0  0  0
   -1.3146    0.1220   -1.1900 C   0  0  0  0  0  0  0  0  0  0  0  0
    0.3969    4.0217   -0.0279 C   0  0  0  0  0  0  0  0  0  0  0  0
   -0.0727    6.3420    0.6370 C   0  0  0  0  0  0  0  0  0  0  0  0
   -0.5536    5.0196    0.1089 C   0  0  0  0  0  0  0  0  0  0  0  0
    0.1186    2.8715   -0.7516 C   0  0  0  0  0  0  0  0  0  0  0  0
   -1.1982    2.5376   -1.1028 C   0  0  0  0  0  0  0  0  0  0  0  0
   -0.2216    7.4705   -0.3495 C   0  0  0  0  0  0  0  0  0  0  0  0
    1.5743    2.2530   -1.4620 Cl  0  0  0  0  0  0  0  0  0  0  0  0
   -0.8904    8.4696   -0.1831 O   0  0  0  0  0  0  0  0  0  0  0  0
    0.4896    7.2912   -1.4847 O   0  0  0  0  0  0  0  0  0  0  0  0
   -1.5787    1.4103   -1.7933 O   0  0  0  0  0  0  0  0  0  0  0  0
    0.3697   -0.3323    0.9399 H   0  0  0  0  0  0  0  0  0  0  0  0
    1.9278   -0.4400   -0.0648 H   0  0  0  0  0  0  0  0  0  0  0  0
    0.6516   -0.2139   -2.1255 H   0  0  0  0  0  0  0  0  0  0  0  0
   -2.6002    5.5710   -0.2998 H   0  0  0  0  0  0  0  0  0  0  0  0
   -3.2025    3.3809   -1.2702 H   0  0  0  0  0  0  0  0  0  0  0  0
   -1.8092   -0.6271   -1.8228 H   0  0  0  0  0  0  0  0  0  0  0  0
   -1.7736    0.0462   -0.1974 H   0  0  0  0  0  0  0  0  0  0  0  0
    1.4221    4.2043    0.2845 H   0  0  0  0  0  0  0  0  0  0  0  0
   -0.6078    6.5743    1.5598 H   0  0  0  0  0  0  0  0  0  0  0  0
    0.9934    6.2892    0.9037 H   0  0  0  0  0  0  0  0  0  0  0  0
    0.2742    8.0650   -2.0461 H   0  0  0  0  0  0  0  0  0  0  0  0
  1 16  1  0  0  0  0
  1 17  1  0  0  0  0
  2  1  2  0  0  0  0
  2 18  1  0  0  0  0
  3 19  1  0  0  0  0
  4  3  2  0  0  0  0
  4 20  1  0  0  0  0
  5  2  1  0  0  0  0
  5 21  1  0  0  0  0
  5 22  1  0  0  0  0
  6 23  1  0  0  0  0
  7 24  1  0  0  0  0
  7 25  1  0  0  0  0
  8  3  1  0  0  0  0
  8  6  2  0  0  0  0
  8  7  1  0  0  0  0
  9  6  1  0  0  0  0
 10  4  1  0  0  0  0
 10  9  2  0  0  0  0
 11  7  1  0  0  0  0
 12  9  1  0  0  0  0
 13 11  2  0  0  0  0
 14 11  1  0  0  0  0
 14 26  1  0  0  0  0
 15  5  1  0  0  0  0
 15 10  1  0  0  0  0
M  END
>  <DRUGBANK_ID>
DB13167

>  <COMMON_NAME>
Alclofenac

>  <CAS_NUMBER>
22131-79-9

>  <UNII>
M9CP5H21N8

>  <SYNONYMS>
(4-Allyloxy-3-chlorphenyl)essigsäure; [4-(allyloxy)-3-chlorophenyl]acetic acid; 3-Chloro-4-(2-propenyloxy)benzeneacetic acid; Alclofenac; Alclofénac; Alclofenaco; Alclofenacum; Alclophenac

$$$$
