
 OpenBabel10282417233D

 40 42  0  0  0  0  0  0  0  0999 V2000
    1.0782   -0.0353    0.1441 N   0  0  0  0  0  0  0  0  0  0  0  0
    0.3730   -0.5641    1.1756 C   0  0  0  0  0  0  0  0  0  0  0  0
   -0.8574   -0.5330    1.1362 O   0  0  0  0  0  0  0  0  0  0  0  0
    1.1061   -1.1913    2.3375 C   0  0  0  0  0  0  0  0  0  0  0  0
    2.4565   -1.1966    2.4009 C   0  0  0  0  0  0  0  0  0  0  0  0
    3.2772   -1.7685    3.3810 N   0  0  0  0  0  0  0  0  0  0  0  0
    3.0741   -2.9341    4.1027 C   0  0  0  0  0  0  0  0  0  0  0  0
    4.0319   -3.1223    4.9753 N   0  0  0  0  0  0  0  0  0  0  0  0
    4.8377   -2.0384    4.7808 C   0  0  0  0  0  0  0  0  0  0  0  0
    4.4479   -1.2217    3.7977 N   0  0  0  0  0  0  0  0  0  0  0  0
    6.0090   -1.8088    5.6027 C   0  0  0  0  0  0  0  0  0  0  0  0
    6.0781   -0.6803    6.4281 C   0  0  0  0  0  0  0  0  0  0  0  0
    7.1632   -0.4967    7.2972 C   0  0  0  0  0  0  0  0  0  0  0  0
    8.1760   -1.4639    7.3367 C   0  0  0  0  0  0  0  0  0  0  0  0
    8.0858   -2.6284    6.5630 C   0  0  0  0  0  0  0  0  0  0  0  0
    7.0287   -2.7644    5.6500 C   0  0  0  0  0  0  0  0  0  0  0  0
    9.0288   -3.7773    6.8131 C   0  0  0  0  0  0  0  0  0  0  0  0
    8.3624   -4.8956    7.2130 F   0  0  0  0  0  0  0  0  0  0  0  0
    9.7469   -4.1309    5.7165 F   0  0  0  0  0  0  0  0  0  0  0  0
    9.9357   -3.5193    7.7968 F   0  0  0  0  0  0  0  0  0  0  0  0
    7.2185    0.6713    8.2463 C   0  0  0  0  0  0  0  0  0  0  0  0
    7.2643    0.2688    9.5466 F   0  0  0  0  0  0  0  0  0  0  0  0
    8.3205    1.4444    8.0531 F   0  0  0  0  0  0  0  0  0  0  0  0
    6.1466    1.5024    8.1476 F   0  0  0  0  0  0  0  0  0  0  0  0
    0.3009   -1.6788    3.4823 C   0  0  0  0  0  0  0  0  0  0  0  0
   -0.7580   -2.5552    3.3457 C   0  0  0  0  0  0  0  0  0  0  0  0
   -1.4715   -3.0428    4.3847 N   0  0  0  0  0  0  0  0  0  0  0  0
   -1.1160   -2.6058    5.6026 C   0  0  0  0  0  0  0  0  0  0  0  0
   -0.1166   -1.7564    5.8692 N   0  0  0  0  0  0  0  0  0  0  0  0
    0.5548   -1.2983    4.7956 C   0  0  0  0  0  0  0  0  0  0  0  0
    0.5364    0.3796   -0.6064 H   0  0  0  0  0  0  0  0  0  0  0  0
    2.0806    0.0204    0.0617 H   0  0  0  0  0  0  0  0  0  0  0  0
    3.0559   -0.6609    1.6758 H   0  0  0  0  0  0  0  0  0  0  0  0
    2.2303   -3.5917    3.9391 H   0  0  0  0  0  0  0  0  0  0  0  0
    5.2645    0.0447    6.4177 H   0  0  0  0  0  0  0  0  0  0  0  0
    9.0173   -1.3320    8.0202 H   0  0  0  0  0  0  0  0  0  0  0  0
    6.9765   -3.6399    5.0026 H   0  0  0  0  0  0  0  0  0  0  0  0
   -1.0724   -2.9205    2.3711 H   0  0  0  0  0  0  0  0  0  0  0  0
   -1.6913   -2.9651    6.4480 H   0  0  0  0  0  0  0  0  0  0  0  0
    1.3706   -0.6237    5.0502 H   0  0  0  0  0  0  0  0  0  0  0  0
  1  2  1  0  0  0  0
  1 31  1  0  0  0  0
  1 32  1  0  0  0  0
  2  3  2  0  0  0  0
  2  4  1  0  0  0  0
  4  5  2  0  0  0  0
  4 25  1  0  0  0  0
  5  6  1  0  0  0  0
  5 33  1  0  0  0  0
  6  7  1  0  0  0  0
  6 10  1  0  0  0  0
  7  8  2  0  0  0  0
  7 34  1  0  0  0  0
  8  9  1  0  0  0  0
  9 10  2  0  0  0  0
  9 11  1  0  0  0  0
 11 12  2  0  0  0  0
 11 16  1  0  0  0  0
 12 13  1  0  0  0  0
 12 35  1  0  0  0  0
 13 14  2  0  0  0  0
 13 21  1  0  0  0  0
 14 15  1  0  0  0  0
 14 36  1  0  0  0  0
 15 16  2  0  0  0  0
 15 17  1  0  0  0  0
 16 37  1  0  0  0  0
 17 18  1  0  0  0  0
 17 19  1  0  0  0  0
 17 20  1  0  0  0  0
 21 22  1  0  0  0  0
 21 23  1  0  0  0  0
 21 24  1  0  0  0  0
 25 26  2  0  0  0  0
 25 30  1  0  0  0  0
 26 27  1  0  0  0  0
 26 38  1  0  0  0  0
 27 28  2  0  0  0  0
 28 29  1  0  0  0  0
 28 39  1  0  0  0  0
 29 30  2  0  0  0  0
 30 40  1  0  0  0  0
M  END
>  <DRUGBANK_ID>
DB16153

>  <COMMON_NAME>
Eltanexor

>  <CAS_NUMBER>
1642300-52-4

>  <UNII>
Q59IQJ9NTK

>  <SYNONYMS>
Eltanexor

$$$$
