
 OpenBabel10282417203D

 24 23  0  0  0  0  0  0  0  0999 V2000
    1.0096   -0.0404    0.0219 C   0  0  0  0  0  0  0  0  0  0  0  0
    0.5052    0.5369   -1.2723 N   0  3  0  0  0  0  0  0  0  0  0  0
    0.8197   -0.3566   -2.4628 C   0  0  0  0  0  0  0  0  0  0  0  0
   -1.0074    0.7045   -1.2602 C   0  0  0  0  0  0  0  0  0  0  0  0
    1.0526    1.9146   -1.4406 N   0  0  0  0  0  0  0  0  0  0  0  0
    2.5334    2.0500   -1.4606 C   0  0  0  0  0  0  0  0  0  0  0  0
    3.2519    1.4937   -2.6811 C   0  0  0  0  0  0  0  0  0  0  0  0
    2.6401    2.0441   -3.9680 C   0  0  0  0  0  0  0  0  0  0  0  0
    3.4645    2.2595   -4.8947 O   0  0  0  0  0  0  0  0  0  0  0  0
    1.3855    2.1927   -3.9517 O   0  5  0  0  0  0  0  0  0  0  0  0
    0.5983   -1.0476    0.1182 H   0  0  0  0  0  0  0  0  0  0  0  0
    0.6820    0.5956    0.8494 H   0  0  0  0  0  0  0  0  0  0  0  0
    2.0997   -0.1146   -0.0078 H   0  0  0  0  0  0  0  0  0  0  0  0
    0.2270   -1.2689   -2.3578 H   0  0  0  0  0  0  0  0  0  0  0  0
    0.5372    0.1313   -3.3952 H   0  0  0  0  0  0  0  0  0  0  0  0
    1.8510   -0.6832   -2.4138 H   0  0  0  0  0  0  0  0  0  0  0  0
   -1.3020    1.3062   -0.3973 H   0  0  0  0  0  0  0  0  0  0  0  0
   -1.3209    1.1737   -2.1998 H   0  0  0  0  0  0  0  0  0  0  0  0
   -1.4429   -0.2977   -1.1871 H   0  0  0  0  0  0  0  0  0  0  0  0
    0.7585    2.3194   -2.3654 H   0  0  0  0  0  0  0  0  0  0  0  0
    2.7509    3.1269   -1.4265 H   0  0  0  0  0  0  0  0  0  0  0  0
    2.9787    1.6609   -0.5404 H   0  0  0  0  0  0  0  0  0  0  0  0
    4.3148    1.7463   -2.6279 H   0  0  0  0  0  0  0  0  0  0  0  0
    3.2646    0.4061   -2.7069 H   0  0  0  0  0  0  0  0  0  0  0  0
  1  2  1  0  0  0  0
  1 11  1  0  0  0  0
  1 12  1  0  0  0  0
  1 13  1  0  0  0  0
  2  3  1  0  0  0  0
  2  4  1  0  0  0  0
  2  5  1  0  0  0  0
  3 14  1  0  0  0  0
  3 15  1  0  0  0  0
  3 16  1  0  0  0  0
  4 17  1  0  0  0  0
  4 18  1  0  0  0  0
  4 19  1  0  0  0  0
  5  6  1  0  0  0  0
  5 20  1  0  0  0  0
  6  7  1  0  0  0  0
  6 21  1  0  0  0  0
  6 22  1  0  0  0  0
  7  8  1  0  0  0  0
  7 23  1  0  0  0  0
  7 24  1  0  0  0  0
  8  9  2  0  0  0  0
  8 10  1  0  0  0  0
M  CHG  2   2   1  10  -1
M  END
>  <DRUGBANK_ID>
DB13723

>  <COMMON_NAME>
Meldonium

>  <CAS_NUMBER>
76144-81-5

>  <UNII>
73H7UDN6EC

>  <SYNONYMS>
Meldonium

$$$$
