
 OpenBabel10282417133D

 43 42  0  0  0  0  0  0  0  0999 V2000
   -3.2597    3.3442    2.3065 S   0  0  0  0  0  0  0  0  0  0  0  0
   -0.7007    3.6775    2.6452 O   0  0  0  0  0  0  0  0  0  0  0  0
   -6.9903    2.6223    5.7524 O   0  0  0  0  0  0  0  0  0  0  0  0
   -5.8015    3.6529    4.1367 N   0  0  0  0  0  0  0  0  0  0  0  0
   -4.5579   -1.1913   -1.0085 C   0  0  0  0  0  0  0  0  0  0  0  0
   -3.8918    0.0397   -1.6459 C   0  0  0  0  0  0  0  0  0  0  0  0
   -6.0663   -0.9797   -0.8120 C   0  0  0  0  0  0  0  0  0  0  0  0
   -4.0803    1.2482   -0.7536 C   0  0  0  0  0  0  0  0  0  0  0  0
   -6.7531   -0.7037   -2.1478 C   0  0  0  0  0  0  0  0  0  0  0  0
   -3.5401    0.9175    0.6240 C   0  0  0  0  0  0  0  0  0  0  0  0
   -6.5211   -1.8636   -3.1026 C   0  0  0  0  0  0  0  0  0  0  0  0
   -2.0409    0.9343    0.6543 C   0  0  0  0  0  0  0  0  0  0  0  0
   -1.2329    1.8080    1.2795 C   0  0  0  0  0  0  0  0  0  0  0  0
   -1.5722    3.0025    2.1382 C   0  0  0  0  0  0  0  0  0  0  0  0
   -3.6026    4.6688    3.4041 C   0  0  0  0  0  0  0  0  0  0  0  0
   -5.1432    4.7869    3.4857 C   0  0  0  0  0  0  0  0  0  0  0  0
   -6.4929    3.6568    5.3154 C   0  0  0  0  0  0  0  0  0  0  0  0
   -6.6114    4.9706    6.0355 C   0  0  0  0  0  0  0  0  0  0  0  0
   -5.7766    2.7464    3.6776 H   0  0  0  0  0  0  0  0  0  0  0  0
   -4.3421   -2.0722   -1.6129 H   0  0  0  0  0  0  0  0  0  0  0  0
   -4.1082   -1.4572   -0.0480 H   0  0  0  0  0  0  0  0  0  0  0  0
   -4.2914    0.2589   -2.6398 H   0  0  0  0  0  0  0  0  0  0  0  0
   -2.8253   -0.1493   -1.7973 H   0  0  0  0  0  0  0  0  0  0  0  0
   -6.4994   -1.8650   -0.3351 H   0  0  0  0  0  0  0  0  0  0  0  0
   -6.2721   -0.1544   -0.1171 H   0  0  0  0  0  0  0  0  0  0  0  0
   -5.1407    1.5213   -0.6621 H   0  0  0  0  0  0  0  0  0  0  0  0
   -3.6047    2.1439   -1.1731 H   0  0  0  0  0  0  0  0  0  0  0  0
   -7.8235   -0.5466   -1.9896 H   0  0  0  0  0  0  0  0  0  0  0  0
   -6.3808    0.2256   -2.5951 H   0  0  0  0  0  0  0  0  0  0  0  0
   -3.8911   -0.0054    1.0847 H   0  0  0  0  0  0  0  0  0  0  0  0
   -4.0692    1.5979    1.2511 H   0  0  0  0  0  0  0  0  0  0  0  0
   -6.9186   -2.7855   -2.6677 H   0  0  0  0  0  0  0  0  0  0  0  0
   -6.9981   -1.6767   -4.0639 H   0  0  0  0  0  0  0  0  0  0  0  0
   -5.4575   -2.0229   -3.3082 H   0  0  0  0  0  0  0  0  0  0  0  0
   -1.5696    0.1292    0.0808 H   0  0  0  0  0  0  0  0  0  0  0  0
   -0.1597    1.6586    1.1636 H   0  0  0  0  0  0  0  0  0  0  0  0
   -3.1744    4.4753    4.3878 H   0  0  0  0  0  0  0  0  0  0  0  0
   -3.1906    5.5791    2.9686 H   0  0  0  0  0  0  0  0  0  0  0  0
   -5.3790    5.7046    4.0233 H   0  0  0  0  0  0  0  0  0  0  0  0
   -5.6061    4.8810    2.4930 H   0  0  0  0  0  0  0  0  0  0  0  0
   -5.6141    5.3497    6.2751 H   0  0  0  0  0  0  0  0  0  0  0  0
   -7.1517    5.6877    5.4104 H   0  0  0  0  0  0  0  0  0  0  0  0
   -7.1663    4.8379    6.9669 H   0  0  0  0  0  0  0  0  0  0  0  0
  1 14  1  0  0  0  0
  1 15  1  0  0  0  0
  2 14  2  0  0  0  0
  3 17  2  0  0  0  0
  4 16  1  0  0  0  0
  4 17  1  0  0  0  0
  4 19  1  0  0  0  0
  5  6  1  0  0  0  0
  5  7  1  0  0  0  0
  5 20  1  0  0  0  0
  5 21  1  0  0  0  0
  6  8  1  0  0  0  0
  6 22  1  0  0  0  0
  6 23  1  0  0  0  0
  7  9  1  0  0  0  0
  7 24  1  0  0  0  0
  7 25  1  0  0  0  0
  8 10  1  0  0  0  0
  8 26  1  0  0  0  0
  8 27  1  0  0  0  0
  9 11  1  0  0  0  0
  9 28  1  0  0  0  0
  9 29  1  0  0  0  0
 10 12  1  0  0  0  0
 10 30  1  0  0  0  0
 10 31  1  0  0  0  0
 11 32  1  0  0  0  0
 11 33  1  0  0  0  0
 11 34  1  0  0  0  0
 12 13  2  0  0  0  0
 12 35  1  0  0  0  0
 13 14  1  0  0  0  0
 13 36  1  0  0  0  0
 15 16  1  0  0  0  0
 15 37  1  0  0  0  0
 15 38  1  0  0  0  0
 16 39  1  0  0  0  0
 16 40  1  0  0  0  0
 17 18  1  0  0  0  0
 18 41  1  0  0  0  0
 18 42  1  0  0  0  0
 18 43  1  0  0  0  0
M  END
>  <DRUGBANK_ID>
DB03813

>  <SECONDARY_ACCESSION_NUMBERS>
EXPT01103

>  <COMMON_NAME>
2-Decenoyl N-acetyl cysteamine

$$$$
