
 OpenBabel10282417123D

 50 51  0  0  0  0  0  0  0  0999 V2000
    0.8470    0.1360    0.1767 O   0  0  0  0  0  0  0  0  0  0  0  0
    1.0524   -1.3958    1.7769 O   0  0  0  0  0  0  0  0  0  0  0  0
   -3.1011    2.3880    0.5605 O   0  0  0  0  0  0  0  0  0  0  0  0
   -2.6012   -4.7160    0.1717 O   0  0  0  0  0  0  0  0  0  0  0  0
   -1.4917   -3.6188    1.7859 O   0  0  0  0  0  0  0  0  0  0  0  0
   -4.2511   -0.9748   -6.9277 O   0  0  0  0  0  0  0  0  0  0  0  0
   -2.1754    4.4779   -3.3382 O   0  0  0  0  0  0  0  0  0  0  0  0
   -1.8923    0.5917    1.0823 N   0  0  0  0  0  0  0  0  0  0  0  0
   -4.0214   -1.1468   -4.7029 N   0  0  0  0  0  0  0  0  0  0  0  0
   -3.0431    0.6746   -6.0110 N   0  0  0  0  0  0  0  0  0  0  0  0
   -1.3459    0.7197   -4.2911 N   0  0  0  0  0  0  0  0  0  0  0  0
   -1.0809    2.5426   -2.8224 N   0  0  0  0  0  0  0  0  0  0  0  0
   -3.4430    3.4810   -5.5228 N   0  0  0  0  0  0  0  0  0  0  0  0
   -0.2577    0.4758   -2.3091 N   0  0  0  0  0  0  0  0  0  0  0  0
   -1.2030   -0.7281    1.0823 C   0  0  1  0  0  0  0  0  0  0  0  0
   -1.6113   -1.5379   -0.1207 C   0  0  0  0  0  0  0  0  0  0  0  0
   -1.1337   -2.9178   -0.4738 C   0  0  0  0  0  0  0  0  0  0  0  0
    0.3239   -0.6662    1.1283 C   0  0  0  0  0  0  0  0  0  0  0  0
   -2.8891    1.1949    0.3323 C   0  0  0  0  0  0  0  0  0  0  0  0
   -3.6276    0.5480   -0.8179 C   0  0  0  0  0  0  0  0  0  0  0  0
   -1.7032   -3.8082    0.5985 C   0  0  0  0  0  0  0  0  0  0  0  0
   -4.1605   -0.7454   -0.9460 C   0  0  0  0  0  0  0  0  0  0  0  0
   -3.7546    1.3138   -1.9406 C   0  0  0  0  0  0  0  0  0  0  0  0
   -4.0905   -0.6533   -3.3710 C   0  0  0  0  0  0  0  0  0  0  0  0
   -4.2842   -1.3979   -2.2193 C   0  0  0  0  0  0  0  0  0  0  0  0
   -4.0449    0.7022   -3.1556 C   0  0  0  0  0  0  0  0  0  0  0  0
   -2.2021    1.3805   -5.1463 C   0  0  0  0  0  0  0  0  0  0  0  0
   -3.7646   -0.4945   -5.8968 C   0  0  0  0  0  0  0  0  0  0  0  0
   -2.4482    2.7114   -4.9380 C   0  0  0  0  0  0  0  0  0  0  0  0
   -0.9015    1.3063   -3.1515 C   0  0  0  0  0  0  0  0  0  0  0  0
   -1.8311    3.3249   -3.6555 C   0  0  0  0  0  0  0  0  0  0  0  0
   -1.6050    1.2091    1.8387 H   0  0  0  0  0  0  0  0  0  0  0  0
   -4.4851   -2.0382   -4.8687 H   0  0  0  0  0  0  0  0  0  0  0  0
   -3.2437    1.1416   -6.8897 H   0  0  0  0  0  0  0  0  0  0  0  0
   -1.5586   -0.2666   -4.2411 H   0  0  0  0  0  0  0  0  0  0  0  0
   -3.4615    4.4610   -5.2269 H   0  0  0  0  0  0  0  0  0  0  0  0
   -3.8893    3.2175   -6.3846 H   0  0  0  0  0  0  0  0  0  0  0  0
   -0.2545    0.8051   -1.3366 H   0  0  0  0  0  0  0  0  0  0  0  0
   -0.4075   -0.5153   -2.3924 H   0  0  0  0  0  0  0  0  0  0  0  0
    1.8169   -0.0247    0.2034 H   0  0  0  0  0  0  0  0  0  0  0  0
   -2.7512   -4.7772   -0.7883 H   0  0  0  0  0  0  0  0  0  0  0  0
   -1.5446   -1.1955    2.0090 H   0  0  0  0  0  0  0  0  0  0  0  0
   -2.6249   -1.7494    0.1488 H   0  0  0  0  0  0  0  0  0  0  0  0
   -1.5883   -0.9276   -1.0126 H   0  0  0  0  0  0  0  0  0  0  0  0
   -1.5849   -3.1639   -1.4480 H   0  0  0  0  0  0  0  0  0  0  0  0
   -0.0531   -2.9926   -0.5758 H   0  0  0  0  0  0  0  0  0  0  0  0
   -4.3678   -1.3104   -0.0410 H   0  0  0  0  0  0  0  0  0  0  0  0
   -3.5282    2.3757   -1.9310 H   0  0  0  0  0  0  0  0  0  0  0  0
   -4.4921   -2.4663   -2.2445 H   0  0  0  0  0  0  0  0  0  0  0  0
   -4.1384    1.3441   -4.0021 H   0  0  0  0  0  0  0  0  0  0  0  0
  1 18  1  0  0  0  0
  1 40  1  0  0  0  0
  2 18  2  0  0  0  0
  3 19  2  0  0  0  0
  4 21  1  0  0  0  0
  4 41  1  0  0  0  0
  5 21  2  0  0  0  0
  6 28  2  0  0  0  0
  7 31  2  0  0  0  0
  8 19  1  0  0  0  0
  8 32  1  0  0  0  0
  9 24  1  0  0  0  0
  9 28  1  0  0  0  0
  9 33  1  0  0  0  0
 10 27  1  0  0  0  0
 10 28  1  0  0  0  0
 10 34  1  0  0  0  0
 11 27  1  0  0  0  0
 11 30  1  0  0  0  0
 11 35  1  0  0  0  0
 12 30  2  0  0  0  0
 12 31  1  0  0  0  0
 13 29  1  0  0  0  0
 13 36  1  0  0  0  0
 13 37  1  0  0  0  0
 14 30  1  0  0  0  0
 14 38  1  0  0  0  0
 14 39  1  0  0  0  0
 15  8  1  0  0  0  0
 15 16  1  0  0  0  0
 15 18  1  0  0  0  0
 15 42  1  1  0  0  0
 16 17  1  0  0  0  0
 16 43  1  0  0  0  0
 16 44  1  0  0  0  0
 17 21  1  0  0  0  0
 17 45  1  0  0  0  0
 17 46  1  0  0  0  0
 19 20  1  0  0  0  0
 20 22  2  0  0  0  0
 20 23  1  0  0  0  0
 22 25  1  0  0  0  0
 22 47  1  0  0  0  0
 23 26  2  0  0  0  0
 23 48  1  0  0  0  0
 24 25  2  0  0  0  0
 24 26  1  0  0  0  0
 25 49  1  0  0  0  0
 26 50  1  0  0  0  0
 27 29  2  0  0  0  0
 29 31  1  0  0  0  0
M  END
>  <DRUGBANK_ID>
DB02358

>  <SECONDARY_ACCESSION_NUMBERS>
EXPT01992

>  <COMMON_NAME>
LY374571

$$$$
