628
 OpenBabel10282417143D

 44 47  0  0  0  0  0  0  0  0999 V2000
    2.1140    0.6801   -0.0460 C   0  0  0  0  0  0  0  0  0  0  0  0
    0.9448    1.3582   -0.0871 C   0  0  0  0  0  0  0  0  0  0  0  0
   -0.2602    0.6592   -0.0329 N   0  0  0  0  0  0  0  0  0  0  0  0
   -0.3340   -0.7249    0.0011 C   0  0  0  0  0  0  0  0  0  0  0  0
    0.8855   -1.4484    0.0106 C   0  0  0  0  0  0  0  0  0  0  0  0
    2.0549   -0.7846    0.0001 C   0  0  0  0  0  0  0  0  0  0  0  0
   -1.5578    1.1245    0.0035 C   0  0  0  0  0  0  0  0  0  0  0  0
   -2.3409   -0.0092    0.0016 C   0  0  0  0  0  0  0  0  0  0  0  0
   -1.5773   -1.1391    0.0075 N   0  0  0  0  0  0  0  0  0  0  0  0
   -7.0118   -5.0812    0.1705 S   0  0  0  0  0  0  0  0  0  0  0  0
   -6.0624   -3.5794    0.1152 C   0  0  0  0  0  0  0  0  0  0  0  0
   -5.1150   -3.3256    1.1076 C   0  0  0  0  0  0  0  0  0  0  0  0
   -4.3293   -2.1672    1.0473 C   0  0  0  0  0  0  0  0  0  0  0  0
   -4.4786   -1.2430    0.0054 C   0  0  0  0  0  0  0  0  0  0  0  0
   -5.4419   -1.5063   -0.9801 C   0  0  0  0  0  0  0  0  0  0  0  0
   -6.2588   -2.6496   -0.9120 C   0  0  0  0  0  0  0  0  0  0  0  0
    3.4628    1.3377   -0.0252 C   0  0  0  0  0  0  0  0  0  0  0  0
    3.5637    2.8056   -0.0454 C   0  0  0  0  0  0  0  0  0  0  0  0
    3.0832    3.5851    1.0180 C   0  0  0  0  0  0  0  0  0  0  0  0
    3.1962    4.9759    0.9685 C   0  0  0  0  0  0  0  0  0  0  0  0
    3.8601    5.5885   -0.0920 C   0  0  0  0  0  0  0  0  0  0  0  0
    4.3996    4.8131   -1.1165 C   0  0  0  0  0  0  0  0  0  0  0  0
    4.2056    3.4294   -1.1248 C   0  0  0  0  0  0  0  0  0  0  0  0
    4.5014    0.6825    0.0027 O   0  0  0  0  0  0  0  0  0  0  0  0
   -8.4098   -4.7517    0.0822 O   0  0  0  0  0  0  0  0  0  0  0  0
   -3.6871   -0.0721   -0.0628 N   0  0  0  0  0  0  0  0  0  0  0  0
    2.3223    2.9192    2.4231 Cl  0  0  0  0  0  0  0  0  0  0  0  0
    4.6817    2.5741   -2.5511 Cl  0  0  0  0  0  0  0  0  0  0  0  0
   -6.6222   -5.8639   -1.2718 N   0  0  0  0  0  0  0  0  0  0  0  0
   -6.4886   -5.9300    1.2241 O   0  0  0  0  0  0  0  0  0  0  0  0
    0.8595    2.4348   -0.1286 H   0  0  0  0  0  0  0  0  0  0  0  0
    0.8420   -2.5306    0.0299 H   0  0  0  0  0  0  0  0  0  0  0  0
    2.9936   -1.3350    0.0185 H   0  0  0  0  0  0  0  0  0  0  0  0
   -1.7854    2.1810    0.0067 H   0  0  0  0  0  0  0  0  0  0  0  0
   -4.9749   -4.0205    1.9320 H   0  0  0  0  0  0  0  0  0  0  0  0
   -3.5846   -1.9910    1.8203 H   0  0  0  0  0  0  0  0  0  0  0  0
   -5.5226   -0.8444   -1.8396 H   0  0  0  0  0  0  0  0  0  0  0  0
   -7.0312   -2.8001   -1.6616 H   0  0  0  0  0  0  0  0  0  0  0  0
    2.7851    5.5873    1.7690 H   0  0  0  0  0  0  0  0  0  0  0  0
    3.9552    6.6713   -0.1208 H   0  0  0  0  0  0  0  0  0  0  0  0
    4.9611    5.2948   -1.9146 H   0  0  0  0  0  0  0  0  0  0  0  0
   -4.2415    0.7761   -0.0649 H   0  0  0  0  0  0  0  0  0  0  0  0
   -6.9934   -6.8172   -1.2367 H   0  0  0  0  0  0  0  0  0  0  0  0
   -6.9649   -5.3640   -2.0893 H   0  0  0  0  0  0  0  0  0  0  0  0
  1  2  2  0  0  0  0
  1  6  1  0  0  0  0
  1 17  1  0  0  0  0
  2  3  1  0  0  0  0
  2 31  1  0  0  0  0
  3  4  1  0  0  0  0
  3  7  1  0  0  0  0
  4  5  1  0  0  0  0
  4  9  2  0  0  0  0
  5  6  2  0  0  0  0
  5 32  1  0  0  0  0
  6 33  1  0  0  0  0
  7  8  2  0  0  0  0
  7 34  1  0  0  0  0
  8  9  1  0  0  0  0
  8 26  1  0  0  0  0
 10 11  1  0  0  0  0
 10 25  2  0  0  0  0
 10 29  1  0  0  0  0
 10 30  2  0  0  0  0
 11 12  1  0  0  0  0
 11 16  2  0  0  0  0
 12 13  2  0  0  0  0
 12 35  1  0  0  0  0
 13 14  1  0  0  0  0
 13 36  1  0  0  0  0
 14 15  2  0  0  0  0
 14 26  1  0  0  0  0
 15 16  1  0  0  0  0
 15 37  1  0  0  0  0
 16 38  1  0  0  0  0
 17 18  1  0  0  0  0
 17 24  2  0  0  0  0
 18 19  1  0  0  0  0
 18 23  2  0  0  0  0
 19 20  2  0  0  0  0
 19 27  1  0  0  0  0
 20 21  1  0  0  0  0
 20 39  1  0  0  0  0
 21 22  2  0  0  0  0
 21 40  1  0  0  0  0
 22 23  1  0  0  0  0
 22 41  1  0  0  0  0
 23 28  1  0  0  0  0
 26 42  1  0  0  0  0
 29 43  1  0  0  0  0
 29 44  1  0  0  0  0
M  END
>  <DRUGBANK_ID>
DB04607

>  <COMMON_NAME>
PHENYLAMINOIMIDAZO(1,2-ALPHA)PYRIDINE

$$$$
