
 OpenBabel10282417233D

 74 75  0  0  0  0  0  0  0  0999 V2000
    1.3272    0.4030   -0.2482 C   0  0  0  0  0  0  0  0  0  0  0  0
    0.5521    1.3582   -1.0029 N   0  0  0  0  0  0  0  0  0  0  0  0
   -0.9123    1.1777   -0.8612 C   0  0  0  0  0  0  0  0  0  0  0  0
   -1.4956    1.2916    0.5803 C   0  0  3  0  0  0  0  0  0  0  0  0
   -1.0700    2.6809    1.1336 C   0  0  0  0  0  0  0  0  0  0  0  0
   -1.4822    2.9130    2.5752 C   0  0  0  0  0  0  0  0  0  0  0  0
   -1.0296    1.7499    3.4511 C   0  0  0  0  0  0  0  0  0  0  0  0
   -1.5053    0.4102    2.9011 C   0  0  0  0  0  0  0  0  0  0  0  0
   -1.0978    0.2152    1.5189 N   0  0  0  0  0  0  0  0  0  0  0  0
   -0.6776   -1.0528    1.0641 C   0  0  0  0  0  0  0  0  0  0  0  0
   -0.9660   -1.5484    0.0032 O   0  0  0  0  0  0  0  0  0  0  0  0
    0.2997   -1.6016    1.9295 O   0  0  0  0  0  0  0  0  0  0  0  0
    1.0955   -2.7049    1.5075 C   0  0  0  0  0  0  0  0  0  0  0  0
    2.2686   -2.4722    0.7648 C   0  0  0  0  0  0  0  0  0  0  0  0
    3.2091   -3.4642    0.4766 C   0  0  0  0  0  0  0  0  0  0  0  0
    3.1243   -4.6836    1.1168 C   0  0  0  0  0  0  0  0  0  0  0  0
    4.1621   -5.7515    0.7257 C   0  0  0  0  0  0  0  0  0  0  0  0
    4.5328   -6.6971    1.7404 N   0  0  0  0  0  0  0  0  0  0  0  0
    4.1992   -8.0233    1.8943 C   0  0  0  0  0  0  0  0  0  0  0  0
    4.7253   -8.6015    2.8534 O   0  0  0  0  0  0  0  0  0  0  0  0
    3.2742   -8.8550    0.9438 C   0  0  0  0  0  0  0  0  0  0  0  0
    1.7772   -8.5020    0.8451 C   0  0  0  0  0  0  0  0  0  0  0  0
    1.5829   -7.1996    0.1225 C   0  0  0  0  0  0  0  0  0  0  0  0
    2.2484   -7.0121   -1.2310 C   0  0  0  0  0  0  0  0  0  0  0  0
    1.4490   -7.7570   -2.1667 C   0  0  0  0  0  0  0  0  0  0  0  0
    0.8917   -7.1151   -3.1788 C   0  0  0  0  0  0  0  0  0  0  0  0
   -0.0002   -7.8862   -4.0569 C   0  0  0  0  0  0  0  0  0  0  0  0
   -1.3682   -7.2444   -3.9890 C   0  0  0  0  0  0  0  0  0  0  0  0
    0.6223   -7.8846   -5.4328 C   0  0  0  0  0  0  0  0  0  0  0  0
    1.9635   -4.8742    1.9484 C   0  0  0  0  0  0  0  0  0  0  0  0
    0.8846   -3.9625    2.0350 C   0  0  0  0  0  0  0  0  0  0  0  0
   -0.2518   -4.4442    2.6352 O   0  0  0  0  0  0  0  0  0  0  0  0
   -1.3663   -3.5616    2.7380 C   0  0  0  0  0  0  0  0  0  0  0  0
    1.1316   -0.5922   -0.6526 H   0  0  0  0  0  0  0  0  0  0  0  0
    1.1360    0.4715    0.8267 H   0  0  0  0  0  0  0  0  0  0  0  0
    2.4040    0.5695   -0.3043 H   0  0  0  0  0  0  0  0  0  0  0  0
    0.8122    2.2775   -0.6630 H   0  0  0  0  0  0  0  0  0  0  0  0
   -1.3637    1.9798   -1.4584 H   0  0  0  0  0  0  0  0  0  0  0  0
   -1.2632    0.2620   -1.3490 H   0  0  0  0  0  0  0  0  0  0  0  0
   -2.5930    1.2659    0.5279 H   0  0  0  0  0  0  0  0  0  0  0  0
   -1.4738    3.4788    0.4972 H   0  0  0  0  0  0  0  0  0  0  0  0
    0.0212    2.7867    1.1066 H   0  0  0  0  0  0  0  0  0  0  0  0
   -1.0262    3.8446    2.9344 H   0  0  0  0  0  0  0  0  0  0  0  0
   -2.5678    3.0420    2.6312 H   0  0  0  0  0  0  0  0  0  0  0  0
    0.0659    1.7467    3.5079 H   0  0  0  0  0  0  0  0  0  0  0  0
   -1.4121    1.8934    4.4666 H   0  0  0  0  0  0  0  0  0  0  0  0
   -1.1557   -0.4091    3.5337 H   0  0  0  0  0  0  0  0  0  0  0  0
   -2.6031    0.3788    2.9109 H   0  0  0  0  0  0  0  0  0  0  0  0
    2.5310   -1.4980    0.4026 H   0  0  0  0  0  0  0  0  0  0  0  0
    4.0277   -3.2457   -0.2064 H   0  0  0  0  0  0  0  0  0  0  0  0
    3.8110   -6.4066   -0.0220 H   0  0  0  0  0  0  0  0  0  0  0  0
    5.0040   -5.3538    0.1401 H   0  0  0  0  0  0  0  0  0  0  0  0
    5.1702   -6.3423    2.4387 H   0  0  0  0  0  0  0  0  0  0  0  0
    3.7371   -8.9296   -0.0449 H   0  0  0  0  0  0  0  0  0  0  0  0
    3.2928   -9.8848    1.3272 H   0  0  0  0  0  0  0  0  0  0  0  0
    1.1829   -9.2666    0.3392 H   0  0  0  0  0  0  0  0  0  0  0  0
    1.3749   -8.3952    1.8619 H   0  0  0  0  0  0  0  0  0  0  0  0
    0.5855   -6.7492    0.1757 H   0  0  0  0  0  0  0  0  0  0  0  0
    2.1255   -6.6370    0.8145 H   0  0  0  0  0  0  0  0  0  0  0  0
    2.3388   -5.9403   -1.4778 H   0  0  0  0  0  0  0  0  0  0  0  0
    3.2511   -7.4369   -1.3580 H   0  0  0  0  0  0  0  0  0  0  0  0
    1.3088   -8.8128   -1.9676 H   0  0  0  0  0  0  0  0  0  0  0  0
    1.0655   -6.0509   -3.3384 H   0  0  0  0  0  0  0  0  0  0  0  0
   -0.0767   -8.9216   -3.6970 H   0  0  0  0  0  0  0  0  0  0  0  0
   -1.3322   -6.2033   -4.3270 H   0  0  0  0  0  0  0  0  0  0  0  0
   -2.0647   -7.8019   -4.6145 H   0  0  0  0  0  0  0  0  0  0  0  0
   -1.7497   -7.2451   -2.9586 H   0  0  0  0  0  0  0  0  0  0  0  0
    1.6262   -8.3296   -5.4042 H   0  0  0  0  0  0  0  0  0  0  0  0
    0.0042   -8.4679   -6.1139 H   0  0  0  0  0  0  0  0  0  0  0  0
    0.7232   -6.8638   -5.8161 H   0  0  0  0  0  0  0  0  0  0  0  0
    1.8135   -5.8160    2.4809 H   0  0  0  0  0  0  0  0  0  0  0  0
   -1.1173   -2.7487    3.4250 H   0  0  0  0  0  0  0  0  0  0  0  0
   -1.7019   -3.1970    1.7621 H   0  0  0  0  0  0  0  0  0  0  0  0
   -2.2247   -4.0827    3.1695 H   0  0  0  0  0  0  0  0  0  0  0  0
  1  2  1  0  0  0  0
  1 34  1  0  0  0  0
  1 35  1  0  0  0  0
  1 36  1  0  0  0  0
  2  3  1  0  0  0  0
  2 37  1  0  0  0  0
  3  4  1  0  0  0  0
  3 38  1  0  0  0  0
  3 39  1  0  0  0  0
  4  5  1  0  0  0  0
  4  9  1  0  0  0  0
  4 40  1  0  0  0  0
  5  6  1  0  0  0  0
  5 41  1  0  0  0  0
  5 42  1  0  0  0  0
  6  7  1  0  0  0  0
  6 43  1  0  0  0  0
  6 44  1  0  0  0  0
  7  8  1  0  0  0  0
  7 45  1  0  0  0  0
  7 46  1  0  0  0  0
  8  9  1  0  0  0  0
  8 47  1  0  0  0  0
  8 48  1  0  0  0  0
  9 10  1  0  0  0  0
 10 11  2  0  0  0  0
 10 12  1  0  0  0  0
 12 13  1  0  0  0  0
 13 14  2  0  0  0  0
 13 31  1  0  0  0  0
 14 15  1  0  0  0  0
 14 49  1  0  0  0  0
 15 16  2  0  0  0  0
 15 50  1  0  0  0  0
 16 17  1  0  0  0  0
 16 30  1  0  0  0  0
 17 18  1  0  0  0  0
 17 51  1  0  0  0  0
 17 52  1  0  0  0  0
 18 19  1  0  0  0  0
 18 53  1  0  0  0  0
 19 20  2  0  0  0  0
 19 21  1  0  0  0  0
 21 22  1  0  0  0  0
 21 54  1  0  0  0  0
 21 55  1  0  0  0  0
 22 23  1  0  0  0  0
 22 56  1  0  0  0  0
 22 57  1  0  0  0  0
 23 24  1  0  0  0  0
 23 58  1  0  0  0  0
 23 59  1  0  0  0  0
 24 25  1  0  0  0  0
 24 60  1  0  0  0  0
 24 61  1  0  0  0  0
 25 26  2  0  0  0  0
 25 62  1  0  0  0  0
 26 27  1  0  0  0  0
 26 63  1  0  0  0  0
 27 28  1  0  0  0  0
 27 29  1  0  0  0  0
 27 64  1  0  0  0  0
 28 65  1  0  0  0  0
 28 66  1  0  0  0  0
 28 67  1  0  0  0  0
 29 68  1  0  0  0  0
 29 69  1  0  0  0  0
 29 70  1  0  0  0  0
 30 31  2  0  0  0  0
 30 71  1  0  0  0  0
 31 32  1  0  0  0  0
 32 33  1  0  0  0  0
 33 72  1  0  0  0  0
 33 73  1  0  0  0  0
 33 74  1  0  0  0  0
M  END
>  <DRUGBANK_ID>
DB17071

>  <COMMON_NAME>
Vocacapsaicin

>  <CAS_NUMBER>
1931116-86-7

>  <UNII>
KRJ8H9BOG7

>  <SYNONYMS>
1-piperidinecarboxylic acid, 2-((methylamino)methyl)-, 2-methoxy-4-((((6e)-8-methyl-1-oxo-6-nonen-1-yl)amino)methyl) phenyl ester; 2-methoxy-4-(((6e)-8-methylnon-6-enamido)methyl)phenyl (2rs)-2-((methylamino)methyl)piperidine-1-carboxylate

$$$$
