
 OpenBabel10282417123D

 18 18  0  0  0  0  0  0  0  0999 V2000
    0.9603   -0.0894    0.0541 C   0  0  0  0  0  0  0  0  0  0  0  0
    0.4631   -0.5031    1.4329 C   0  0  0  0  0  0  0  0  0  0  0  0
    0.8918    0.4258    2.4649 N   0  0  0  0  0  0  0  0  0  0  0  0
    1.6112    0.0783    3.5723 C   0  0  0  0  0  0  0  0  0  0  0  0
    2.0299   -1.0317    3.8611 O   0  0  0  0  0  0  0  0  0  0  0  0
    1.7995    1.2964    4.4325 C   0  0  0  0  0  0  0  0  0  0  0  0
    1.1217    2.4134    3.6645 C   0  0  0  0  0  0  0  0  0  0  0  0
    0.5086    1.7356    2.4808 C   0  0  0  0  0  0  0  0  0  0  0  0
   -0.2115    2.3001    1.6726 O   0  0  0  0  0  0  0  0  0  0  0  0
    0.6080    0.9101   -0.2194 H   0  0  0  0  0  0  0  0  0  0  0  0
    0.6001   -0.7832   -0.7107 H   0  0  0  0  0  0  0  0  0  0  0  0
    2.0541   -0.0703    0.0260 H   0  0  0  0  0  0  0  0  0  0  0  0
   -0.6329   -0.5169    1.4341 H   0  0  0  0  0  0  0  0  0  0  0  0
    0.8146   -1.5141    1.6665 H   0  0  0  0  0  0  0  0  0  0  0  0
    1.3258    1.1436    5.4069 H   0  0  0  0  0  0  0  0  0  0  0  0
    2.8646    1.5008    4.5742 H   0  0  0  0  0  0  0  0  0  0  0  0
    0.3401    2.8971    4.2561 H   0  0  0  0  0  0  0  0  0  0  0  0
    1.8438    3.1602    3.3219 H   0  0  0  0  0  0  0  0  0  0  0  0
  1  2  1  0  0  0  0
  1 10  1  0  0  0  0
  1 11  1  0  0  0  0
  1 12  1  0  0  0  0
  2  3  1  0  0  0  0
  2 13  1  0  0  0  0
  2 14  1  0  0  0  0
  3  4  1  0  0  0  0
  3  8  1  0  0  0  0
  4  5  2  0  0  0  0
  4  6  1  0  0  0  0
  6  7  1  0  0  0  0
  6 15  1  0  0  0  0
  6 16  1  0  0  0  0
  7  8  1  0  0  0  0
  7 17  1  0  0  0  0
  7 18  1  0  0  0  0
  8  9  2  0  0  0  0
M  END
>  <DRUGBANK_ID>
DB01902

>  <SECONDARY_ACCESSION_NUMBERS>
EXPT02325

>  <COMMON_NAME>
1-Ethyl-Pyrrolidine-2,5-Dione

>  <UNII>
MC084H847A

$$$$
