
 OpenBabel10282417153D

 16 15  0  0  0  0  0  0  0  0999 V2000
    1.0356    0.0907    0.0689 O   0  0  0  0  0  0  0  0  0  0  0  0
    3.0051   -0.8970   -0.3500 O   0  0  0  0  0  0  0  0  0  0  0  0
    2.6373    2.4868    0.4655 O   0  0  0  0  0  0  0  0  0  0  0  0
    0.2486    1.2116    0.5135 C   0  0  0  0  0  0  0  0  0  0  0  0
    0.4396    1.4595    2.0009 C   0  0  0  0  0  0  0  0  0  0  0  0
    2.3747    0.1012   -0.0138 C   0  0  0  0  0  0  0  0  0  0  0  0
    3.1655    1.3901    0.3307 C   0  0  0  0  0  0  0  0  0  0  0  0
    4.6508    1.2365    0.4425 C   0  0  0  0  0  0  0  0  0  0  0  0
    0.4436    2.0831   -0.1194 H   0  0  0  0  0  0  0  0  0  0  0  0
   -0.8011    0.9488    0.3373 H   0  0  0  0  0  0  0  0  0  0  0  0
    1.4856    1.5940    2.2859 H   0  0  0  0  0  0  0  0  0  0  0  0
   -0.1122    2.3478    2.3160 H   0  0  0  0  0  0  0  0  0  0  0  0
    0.1005    0.5922    2.5736 H   0  0  0  0  0  0  0  0  0  0  0  0
    4.9145    0.4234    1.1226 H   0  0  0  0  0  0  0  0  0  0  0  0
    5.0625    1.0676   -0.5539 H   0  0  0  0  0  0  0  0  0  0  0  0
    5.0648    2.1660    0.8460 H   0  0  0  0  0  0  0  0  0  0  0  0
  1  4  1  0  0  0  0
  1  6  1  0  0  0  0
  2  6  2  0  0  0  0
  3  7  2  0  0  0  0
  4  5  1  0  0  0  0
  4  9  1  0  0  0  0
  4 10  1  0  0  0  0
  5 11  1  0  0  0  0
  5 12  1  0  0  0  0
  5 13  1  0  0  0  0
  6  7  1  0  0  0  0
  7  8  1  0  0  0  0
  8 14  1  0  0  0  0
  8 15  1  0  0  0  0
  8 16  1  0  0  0  0
M  END
>  <DRUGBANK_ID>
DB05869

>  <COMMON_NAME>
Ethyl pyruvate

>  <CAS_NUMBER>
617-35-6

>  <UNII>
03O98E01OB

>  <SYNONYMS>
2-oxopropanoic acid ethyl ester; 2-oxopropionic acid ethyl ester; Ethyl 2-oxopropanoate; Ethyl 2-oxopropionate; Ethyl methylglyoxylate; Pyruvic acid ethyl ester; Pyruvic acid, ethyl ester

$$$$
