
 OpenBabel10282417203D

 15 16  0  0  0  0  0  0  0  0999 V2000
   -2.2128    0.6583   -0.0009 C   0  0  0  0  0  0  0  0  0  0  0  0
   -1.0478    1.4233    0.0007 C   0  0  0  0  0  0  0  0  0  0  0  0
   -0.8955   -1.3958    0.0006 C   0  0  0  0  0  0  0  0  0  0  0  0
   -2.1285   -0.7390    0.0009 C   0  0  0  0  0  0  0  0  0  0  0  0
    0.2540   -0.6150    0.0002 C   0  0  0  0  0  0  0  0  0  0  0  0
    0.1722    0.7735    0.0010 C   0  0  0  0  0  0  0  0  0  0  0  0
    2.4496   -0.1081    0.0002 C   0  0  0  0  0  0  0  0  0  0  0  0
   -3.2639   -1.4964    0.0041 O   0  0  0  0  0  0  0  0  0  0  0  0
    3.6639   -0.2740    0.0003 O   0  0  0  0  0  0  0  0  0  0  0  0
    1.5362   -1.1675   -0.0005 O   0  0  0  0  0  0  0  0  0  0  0  0
    1.7551    1.5146    0.0013 S   0  0  0  0  0  0  0  0  0  0  0  0
   -3.1718    1.1675   -0.0038 H   0  0  0  0  0  0  0  0  0  0  0  0
   -1.0912    2.5072    0.0016 H   0  0  0  0  0  0  0  0  0  0  0  0
   -0.8531   -2.4810    0.0009 H   0  0  0  0  0  0  0  0  0  0  0  0
   -4.0370   -0.9057    0.0099 H   0  0  0  0  0  0  0  0  0  0  0  0
  1 12  1  0  0  0  0
  2  1  2  0  0  0  0
  2 13  1  0  0  0  0
  3 14  1  0  0  0  0
  4  1  1  0  0  0  0
  4  3  2  0  0  0  0
  5  3  1  0  0  0  0
  6  2  1  0  0  0  0
  6  5  2  0  0  0  0
  8  4  1  0  0  0  0
  8 15  1  0  0  0  0
  9  7  2  0  0  0  0
 10  5  1  0  0  0  0
 10  7  1  0  0  0  0
 11  6  1  0  0  0  0
 11  7  1  0  0  0  0
M  END
>  <DRUGBANK_ID>
DB13343

>  <COMMON_NAME>
Tioxolone

>  <CAS_NUMBER>
4991-65-5

>  <UNII>
S0FAJ1R9CD

>  <SYNONYMS>
tioxolona; Tioxolone

$$$$
