
 OpenBabel10282417123D

 18 17  0  0  0  0  0  0  0  0999 V2000
    0.9321    0.0999    0.0063 O   0  0  0  0  0  0  0  0  0  0  0  0
    0.6007   -0.8685    0.9894 C   0  0  0  0  0  0  0  0  0  0  0  0
    1.1299   -2.2627    0.6575 C   0  0  0  0  0  0  0  0  0  0  0  0
    2.9595   -2.4052    0.6317 S   0  0  0  0  0  0  0  0  0  0  0  0
    3.5742   -1.1462   -0.8791 S   0  0  0  0  0  0  0  0  0  0  0  0
    5.4038   -1.0951   -0.7436 C   0  0  0  0  0  0  0  0  0  0  0  0
    5.9330   -0.5172    0.5678 C   0  0  0  0  0  0  0  0  0  0  0  0
    5.6017   -1.3095    1.6976 O   0  0  0  0  0  0  0  0  0  0  0  0
    1.8952    0.0168   -0.1517 H   0  0  0  0  0  0  0  0  0  0  0  0
    0.9623   -0.5202    1.9620 H   0  0  0  0  0  0  0  0  0  0  0  0
   -0.4929   -0.9032    1.0361 H   0  0  0  0  0  0  0  0  0  0  0  0
    0.7763   -2.9592    1.4262 H   0  0  0  0  0  0  0  0  0  0  0  0
    0.7497   -2.6125   -0.3067 H   0  0  0  0  0  0  0  0  0  0  0  0
    5.7841   -2.1066   -0.9138 H   0  0  0  0  0  0  0  0  0  0  0  0
    5.7574   -0.4646   -1.5673 H   0  0  0  0  0  0  0  0  0  0  0  0
    7.0267   -0.4775    0.5253 H   0  0  0  0  0  0  0  0  0  0  0  0
    5.5714    0.5022    0.7350 H   0  0  0  0  0  0  0  0  0  0  0  0
    4.6385   -1.4799    1.6444 H   0  0  0  0  0  0  0  0  0  0  0  0
  1  2  1  0  0  0  0
  1  9  1  0  0  0  0
  2  3  1  0  0  0  0
  2 10  1  0  0  0  0
  2 11  1  0  0  0  0
  3  4  1  0  0  0  0
  3 12  1  0  0  0  0
  3 13  1  0  0  0  0
  4  5  1  0  0  0  0
  5  6  1  0  0  0  0
  6  7  1  0  0  0  0
  6 14  1  0  0  0  0
  6 15  1  0  0  0  0
  7  8  1  0  0  0  0
  7 16  1  0  0  0  0
  7 17  1  0  0  0  0
  8 18  1  0  0  0  0
M  END
>  <DRUGBANK_ID>
DB02486

>  <SECONDARY_ACCESSION_NUMBERS>
EXPT01723

>  <COMMON_NAME>
2-Hydroxyethyl Disulfide

>  <CAS_NUMBER>
1892-29-1

>  <UNII>
45543L74BS

$$$$
