G44
 OpenBabel10282417163D

 46 48  0  0  0  0  0  0  0  0999 V2000
    2.4750    0.0116   -0.0114 C   0  0  0  0  0  0  0  0  0  0  0  0
    0.9734    0.0161    0.0070 C   0  0  0  0  0  0  0  0  0  0  0  0
    0.2804   -1.2003    0.0076 C   0  0  0  0  0  0  0  0  0  0  0  0
   -1.1116   -1.2165   -0.0074 C   0  0  0  0  0  0  0  0  0  0  0  0
   -1.8259   -0.0189   -0.0270 C   0  0  0  0  0  0  0  0  0  0  0  0
   -1.1588    1.2119    0.0035 C   0  0  0  0  0  0  0  0  0  0  0  0
    0.2468    1.2198    0.0117 C   0  0  0  0  0  0  0  0  0  0  0  0
   -1.9044    2.5117   -0.0051 C   0  0  0  0  0  0  0  0  0  0  0  0
   -1.2989    3.5818   -0.0513 O   0  0  0  0  0  0  0  0  0  0  0  0
   -3.3865    2.5509    0.0245 C   0  0  0  0  0  0  0  0  0  0  0  0
   -4.0811    1.9707    1.0786 C   0  0  0  0  0  0  0  0  0  0  0  0
   -5.4566    2.0040    1.0187 C   0  0  0  0  0  0  0  0  0  0  0  0
   -6.1512    2.5634    0.0046 N   0  0  0  0  0  0  0  0  0  0  0  0
   -5.4788    3.1460   -1.0092 C   0  0  0  0  0  0  0  0  0  0  0  0
   -6.1814    3.5898   -2.1182 N   0  0  0  0  0  0  0  0  0  0  0  0
   -7.6313    3.7412   -2.0641 C   0  0  0  0  0  0  0  0  0  0  0  0
   -8.1154    5.1832   -2.0574 C   0  0  0  0  0  0  0  0  0  0  0  0
   -9.4994    5.4436   -2.0497 C   0  0  0  0  0  0  0  0  0  0  0  0
   -9.9919    6.7574   -2.0523 C   0  0  0  0  0  0  0  0  0  0  0  0
   -9.1098    7.8421   -2.0700 C   0  0  0  0  0  0  0  0  0  0  0  0
   -7.7344    7.5901   -2.0705 C   0  0  0  0  0  0  0  0  0  0  0  0
   -7.2457    6.2799   -2.0609 C   0  0  0  0  0  0  0  0  0  0  0  0
   -9.5904    9.2627   -2.0929 C   0  0  0  0  0  0  0  0  0  0  0  0
  -10.9171    9.5618   -2.0965 N   0  0  0  0  0  0  0  0  0  0  0  0
   -8.7188   10.2197   -2.1151 N   0  0  0  0  0  0  0  0  0  0  0  0
   -4.0855    3.1632   -1.0214 C   0  0  0  0  0  0  0  0  0  0  0  0
    2.8641   -0.5167    0.8653 H   0  0  0  0  0  0  0  0  0  0  0  0
    2.8392   -0.4848   -0.9175 H   0  0  0  0  0  0  0  0  0  0  0  0
    2.8803    1.0280    0.0004 H   0  0  0  0  0  0  0  0  0  0  0  0
    0.8223   -2.1441    0.0087 H   0  0  0  0  0  0  0  0  0  0  0  0
   -1.6467   -2.1627   -0.0137 H   0  0  0  0  0  0  0  0  0  0  0  0
   -2.9075   -0.0815   -0.0742 H   0  0  0  0  0  0  0  0  0  0  0  0
    0.7811    2.1696    0.0112 H   0  0  0  0  0  0  0  0  0  0  0  0
   -3.5763    1.4906    1.9083 H   0  0  0  0  0  0  0  0  0  0  0  0
   -6.0646    1.5523    1.7970 H   0  0  0  0  0  0  0  0  0  0  0  0
   -5.6945    4.1873   -2.7696 H   0  0  0  0  0  0  0  0  0  0  0  0
   -8.0877    3.2169   -1.2167 H   0  0  0  0  0  0  0  0  0  0  0  0
   -8.0256    3.2706   -2.9730 H   0  0  0  0  0  0  0  0  0  0  0  0
  -10.2147    4.6221   -2.0367 H   0  0  0  0  0  0  0  0  0  0  0  0
  -11.0660    6.9008   -2.0392 H   0  0  0  0  0  0  0  0  0  0  0  0
   -7.0250    8.4152   -2.0741 H   0  0  0  0  0  0  0  0  0  0  0  0
   -6.1696    6.1415   -2.0468 H   0  0  0  0  0  0  0  0  0  0  0  0
  -11.2418   10.5173   -2.1136 H   0  0  0  0  0  0  0  0  0  0  0  0
  -11.6321    8.8502   -2.0801 H   0  0  0  0  0  0  0  0  0  0  0  0
   -9.1857   11.1262   -2.1312 H   0  0  0  0  0  0  0  0  0  0  0  0
   -3.5425    3.6251   -1.8397 H   0  0  0  0  0  0  0  0  0  0  0  0
  1  2  1  0  0  0  0
  1 27  1  0  0  0  0
  1 28  1  0  0  0  0
  1 29  1  0  0  0  0
  2  7  1  0  0  0  0
  2  3  2  0  0  0  0
  3  4  1  0  0  0  0
  3 30  1  0  0  0  0
  4  5  2  0  0  0  0
  4 31  1  0  0  0  0
  5  6  1  0  0  0  0
  5 32  1  0  0  0  0
  6  8  1  0  0  0  0
  6  7  2  0  0  0  0
  7 33  1  0  0  0  0
  8 10  1  0  0  0  0
  8  9  2  0  0  0  0
 10 11  2  0  0  0  0
 10 26  1  0  0  0  0
 11 12  1  0  0  0  0
 11 34  1  0  0  0  0
 12 13  2  0  0  0  0
 12 35  1  0  0  0  0
 13 14  1  0  0  0  0
 14 15  1  0  0  0  0
 14 26  2  0  0  0  0
 15 16  1  0  0  0  0
 15 36  1  0  0  0  0
 16 17  1  0  0  0  0
 16 37  1  0  0  0  0
 16 38  1  0  0  0  0
 17 22  2  0  0  0  0
 17 18  1  0  0  0  0
 18 19  2  0  0  0  0
 18 39  1  0  0  0  0
 19 20  1  0  0  0  0
 19 40  1  0  0  0  0
 20 21  2  0  0  0  0
 20 23  1  0  0  0  0
 21 22  1  0  0  0  0
 21 41  1  0  0  0  0
 22 42  1  0  0  0  0
 23 24  1  0  0  0  0
 23 25  2  0  0  0  0
 24 43  1  0  0  0  0
 24 44  1  0  0  0  0
 25 45  1  0  0  0  0
 26 46  1  0  0  0  0
M  END
>  <DRUGBANK_ID>
DB07809

>  <COMMON_NAME>
4-({[4-(3-METHYLBENZOYL)PYRIDIN-2-YL]AMINO}METHYL)BENZENECARBOXIMIDAMIDE

$$$$
