122
 OpenBabel10282417103D

 21 20  0  0  0  0  0  0  0  0999 V2000
    0.7969    0.0265    0.1286 O   0  0  0  0  0  0  0  0  0  0  0  0
    2.5463   -0.0525   -2.3522 N   0  3  0  0  0  0  0  0  0  0  0  0
    0.9925   -0.0418   -2.2942 C   0  0  0  0  0  0  0  0  0  0  0  0
    3.0964   -1.4685   -2.3376 C   0  0  0  0  0  0  0  0  0  0  0  0
    2.9636    0.6238   -3.6566 C   0  0  0  0  0  0  0  0  0  0  0  0
    3.1513    0.7435   -1.1954 C   0  0  0  0  0  0  0  0  0  0  0  0
    0.3993   -0.6897   -1.0323 C   0  0  0  0  0  0  0  0  0  0  0  0
    0.9018   -0.6163    0.8592 H   0  0  0  0  0  0  0  0  0  0  0  0
    0.6399   -0.5660   -3.1905 H   0  0  0  0  0  0  0  0  0  0  0  0
    0.6937    1.0119   -2.3533 H   0  0  0  0  0  0  0  0  0  0  0  0
    2.6523   -2.0214   -3.1702 H   0  0  0  0  0  0  0  0  0  0  0  0
    4.1839   -1.4180   -2.4467 H   0  0  0  0  0  0  0  0  0  0  0  0
    2.8458   -1.9405   -1.3843 H   0  0  0  0  0  0  0  0  0  0  0  0
    2.5818    1.6489   -3.6515 H   0  0  0  0  0  0  0  0  0  0  0  0
    4.0561    0.6229   -3.7150 H   0  0  0  0  0  0  0  0  0  0  0  0
    2.5381    0.0577   -4.4903 H   0  0  0  0  0  0  0  0  0  0  0  0
    2.6361    1.7055   -1.1246 H   0  0  0  0  0  0  0  0  0  0  0  0
    3.0628    0.1656   -0.2732 H   0  0  0  0  0  0  0  0  0  0  0  0
    4.2144    0.8967   -1.4043 H   0  0  0  0  0  0  0  0  0  0  0  0
    0.7027   -1.7343   -0.9324 H   0  0  0  0  0  0  0  0  0  0  0  0
   -0.6931   -0.6647   -1.0916 H   0  0  0  0  0  0  0  0  0  0  0  0
  1  7  1  0  0  0  0
  1  8  1  0  0  0  0
  2  3  1  0  0  0  0
  2  4  1  0  0  0  0
  2  5  1  0  0  0  0
  2  6  1  0  0  0  0
  3  7  1  0  0  0  0
  3  9  1  0  0  0  0
  3 10  1  0  0  0  0
  4 11  1  0  0  0  0
  4 12  1  0  0  0  0
  4 13  1  0  0  0  0
  5 14  1  0  0  0  0
  5 15  1  0  0  0  0
  5 16  1  0  0  0  0
  6 17  1  0  0  0  0
  6 18  1  0  0  0  0
  6 19  1  0  0  0  0
  7 20  1  0  0  0  0
  7 21  1  0  0  0  0
M  CHG  1   2   1
M  END
>  <DRUGBANK_ID>
DB00122

>  <SECONDARY_ACCESSION_NUMBERS>
NUTR00020

>  <COMMON_NAME>
Choline

>  <CAS_NUMBER>
62-49-7

>  <UNII>
N91BDP6H0X

>  <SYNONYMS>
Bilineurine; Choline ion; N-trimethylethanolamine; N,N,N-trimethylethanol-ammonium; trimethylethanolamine; Vitamin J

$$$$
