
 OpenBabel10282417143D

 65 67  0  0  0  0  0  0  0  0999 V2000
    1.0119   -0.1496    0.1833 S   0  0  0  0  0  0  0  0  0  0  0  0
   -2.9023    4.6448   -1.1895 O   0  0  0  0  0  0  0  0  0  0  0  0
    1.2889    2.0311   -3.5554 O   0  0  0  0  0  0  0  0  0  0  0  0
    0.4773   -0.8389   -0.9616 O   0  0  0  0  0  0  0  0  0  0  0  0
    0.5776   -0.5333    1.5195 O   0  0  0  0  0  0  0  0  0  0  0  0
   -1.4962    2.9380   -1.6324 N   0  0  0  0  0  0  0  0  0  0  0  0
    0.5708    1.5016    0.0418 N   0  0  0  0  0  0  0  0  0  0  0  0
    3.4013   -1.2481   -0.0185 N   0  0  0  0  0  0  0  0  0  0  0  0
   -2.8846    3.8793   -3.4861 C   0  0  2  0  0  0  0  0  0  0  0  0
   -3.7761    2.6162   -3.8740 C   0  0  0  0  0  0  0  0  0  0  0  0
   -3.4628    1.2372   -3.2402 C   0  0  0  0  0  0  0  0  0  0  0  0
   -1.6824    4.2190   -4.3736 C   0  0  0  0  0  0  0  0  0  0  0  0
   -2.4442    3.8674   -2.0267 C   0  0  0  0  0  0  0  0  0  0  0  0
   -3.6671    1.1899   -1.7045 C   0  0  0  0  0  0  0  0  0  0  0  0
   -4.1571    0.0007   -3.7588 C   0  0  0  0  0  0  0  0  0  0  0  0
   -0.8986    1.8237   -2.4316 C   0  0  0  0  0  0  0  0  0  0  0  0
   -1.8187    4.4945   -5.7145 C   0  0  0  0  0  0  0  0  0  0  0  0
    0.5850    1.5951   -2.4114 C   0  0  2  0  0  0  0  0  0  0  0  0
   -0.3726    4.3312   -3.8628 C   0  0  0  0  0  0  0  0  0  0  0  0
   -0.6647    4.6625   -6.5001 C   0  0  0  0  0  0  0  0  0  0  0  0
    1.0512    2.2529   -1.1560 C   0  0  0  0  0  0  0  0  0  0  0  0
    0.7698    4.3719   -4.6453 C   0  0  0  0  0  0  0  0  0  0  0  0
    0.6224    4.4538   -5.9930 C   0  0  0  0  0  0  0  0  0  0  0  0
   -0.7640    5.2767   -7.7950 C   0  0  0  0  0  0  0  0  0  0  0  0
   -1.2437    6.5937   -7.8560 C   0  0  0  0  0  0  0  0  0  0  0  0
   -0.2465    4.6467   -8.9228 C   0  0  0  0  0  0  0  0  0  0  0  0
    2.7909   -0.0550    0.1220 C   0  0  0  0  0  0  0  0  0  0  0  0
   -1.2282    7.2740   -9.0569 C   0  0  0  0  0  0  0  0  0  0  0  0
   -0.1788    5.3520  -10.1110 C   0  0  0  0  0  0  0  0  0  0  0  0
   -0.6981    6.6478  -10.1831 C   0  0  0  0  0  0  0  0  0  0  0  0
    3.4648    1.1641    0.1829 C   0  0  0  0  0  0  0  0  0  0  0  0
    4.8335    1.1854    0.0050 C   0  0  0  0  0  0  0  0  0  0  0  0
    4.7471   -1.1993   -0.0684 C   0  0  0  0  0  0  0  0  0  0  0  0
    5.4941   -0.0259   -0.0805 C   0  0  0  0  0  0  0  0  0  0  0  0
   -1.4144    2.9531   -0.6212 H   0  0  0  0  0  0  0  0  0  0  0  0
   -0.4396    1.5272    0.2005 H   0  0  0  0  0  0  0  0  0  0  0  0
    0.6577    2.0306   -4.3019 H   0  0  0  0  0  0  0  0  0  0  0  0
   -3.5560    4.7465   -3.5896 H   0  0  0  0  0  0  0  0  0  0  0  0
   -4.8109    2.8396   -3.5909 H   0  0  0  0  0  0  0  0  0  0  0  0
   -3.7726    2.5109   -4.9667 H   0  0  0  0  0  0  0  0  0  0  0  0
   -2.4900    0.9620   -3.6302 H   0  0  0  0  0  0  0  0  0  0  0  0
   -4.7200    1.1141   -1.4526 H   0  0  0  0  0  0  0  0  0  0  0  0
   -3.1114    0.3624   -1.2453 H   0  0  0  0  0  0  0  0  0  0  0  0
   -3.3843    2.0620   -1.1324 H   0  0  0  0  0  0  0  0  0  0  0  0
   -4.0623   -0.0845   -4.8418 H   0  0  0  0  0  0  0  0  0  0  0  0
   -3.6371   -0.8689   -3.3203 H   0  0  0  0  0  0  0  0  0  0  0  0
   -5.1946   -0.0127   -3.4401 H   0  0  0  0  0  0  0  0  0  0  0  0
   -1.1293    1.9806   -3.4727 H   0  0  0  0  0  0  0  0  0  0  0  0
   -1.3060    0.8903   -2.0418 H   0  0  0  0  0  0  0  0  0  0  0  0
   -2.8026    4.6538   -6.1510 H   0  0  0  0  0  0  0  0  0  0  0  0
    0.7818    0.5338   -2.4805 H   0  0  0  0  0  0  0  0  0  0  0  0
   -0.1605    4.2504   -2.8087 H   0  0  0  0  0  0  0  0  0  0  0  0
    0.6984    3.2885   -1.0570 H   0  0  0  0  0  0  0  0  0  0  0  0
    2.1126    2.4200   -1.2613 H   0  0  0  0  0  0  0  0  0  0  0  0
    1.7486    4.2411   -4.1889 H   0  0  0  0  0  0  0  0  0  0  0  0
    1.5105    4.4741   -6.6173 H   0  0  0  0  0  0  0  0  0  0  0  0
   -1.5940    7.0898   -6.9500 H   0  0  0  0  0  0  0  0  0  0  0  0
    0.1291    3.6279   -8.8535 H   0  0  0  0  0  0  0  0  0  0  0  0
   -1.6039    8.2907   -9.0989 H   0  0  0  0  0  0  0  0  0  0  0  0
    0.2922    4.8942  -10.9736 H   0  0  0  0  0  0  0  0  0  0  0  0
   -0.6845    7.1772  -11.1284 H   0  0  0  0  0  0  0  0  0  0  0  0
    2.9696    2.1086    0.3666 H   0  0  0  0  0  0  0  0  0  0  0  0
    5.3655    2.1324   -0.0221 H   0  0  0  0  0  0  0  0  0  0  0  0
    5.2350   -2.1669   -0.0836 H   0  0  0  0  0  0  0  0  0  0  0  0
    6.5751   -0.0547   -0.1238 H   0  0  0  0  0  0  0  0  0  0  0  0
  1  4  2  0  0  0  0
  1  5  2  0  0  0  0
  1  7  1  0  0  0  0
  1 27  1  0  0  0  0
  2 13  2  0  0  0  0
  3 37  1  0  0  0  0
  6 13  1  0  0  0  0
  6 16  1  0  0  0  0
  6 35  1  0  0  0  0
  7 21  1  0  0  0  0
  7 36  1  0  0  0  0
  8 27  1  0  0  0  0
  8 33  2  0  0  0  0
  9 13  1  0  0  0  0
  9 38  1  6  0  0  0
  9 12  1  0  0  0  0
  9 10  1  0  0  0  0
 10 11  1  0  0  0  0
 10 39  1  0  0  0  0
 10 40  1  0  0  0  0
 11 14  1  0  0  0  0
 11 15  1  0  0  0  0
 11 41  1  0  0  0  0
 12 17  1  0  0  0  0
 12 19  2  0  0  0  0
 14 42  1  0  0  0  0
 14 43  1  0  0  0  0
 14 44  1  0  0  0  0
 15 45  1  0  0  0  0
 15 46  1  0  0  0  0
 15 47  1  0  0  0  0
 16 48  1  0  0  0  0
 16 49  1  0  0  0  0
 17 20  2  0  0  0  0
 17 50  1  0  0  0  0
 18 21  1  0  0  0  0
 18 51  1  1  0  0  0
 18 16  1  0  0  0  0
 18  3  1  0  0  0  0
 19 22  1  0  0  0  0
 19 52  1  0  0  0  0
 20 23  1  0  0  0  0
 20 24  1  0  0  0  0
 21 53  1  0  0  0  0
 21 54  1  0  0  0  0
 22 23  2  0  0  0  0
 22 55  1  0  0  0  0
 23 56  1  0  0  0  0
 24 25  2  0  0  0  0
 24 26  1  0  0  0  0
 25 28  1  0  0  0  0
 25 57  1  0  0  0  0
 26 29  2  0  0  0  0
 26 58  1  0  0  0  0
 27 31  2  0  0  0  0
 28 30  2  0  0  0  0
 28 59  1  0  0  0  0
 29 30  1  0  0  0  0
 29 60  1  0  0  0  0
 30 61  1  0  0  0  0
 31 32  1  0  0  0  0
 31 62  1  0  0  0  0
 32 34  2  0  0  0  0
 32 63  1  0  0  0  0
 33 34  1  0  0  0  0
 33 64  1  0  0  0  0
 34 65  1  0  0  0  0
M  END
>  <DRUGBANK_ID>
DB04244

>  <SECONDARY_ACCESSION_NUMBERS>
EXPT01807

>  <COMMON_NAME>
(2R)-2-(3-Biphenylyl)-N-{(2R)-2-hydroxy-3-[(2-pyridinylsulfonyl)amino]propyl}-4-methylpentanamide

$$$$
