
 OpenBabel10282417123D

 17 17  0  0  0  0  0  0  0  0999 V2000
    0.9178    0.0438    0.0612 O   0  0  0  0  0  0  0  0  0  0  0  0
    0.3784    0.5928   -1.0332 C   0  0  0  0  0  0  0  0  0  0  0  0
    1.0641    1.0365   -1.9369 O   0  0  0  0  0  0  0  0  0  0  0  0
   -1.1609    0.6199   -1.0040 C   0  0  0  0  0  0  0  0  0  0  0  0
   -1.7787    0.1938   -0.0358 O   0  0  0  0  0  0  0  0  0  0  0  0
   -1.8929    1.1919   -2.1577 C   0  0  0  0  0  0  0  0  0  0  0  0
   -1.5459    0.8597   -3.4710 C   0  0  0  0  0  0  0  0  0  0  0  0
   -2.2892    1.3706   -4.5377 C   0  0  0  0  0  0  0  0  0  0  0  0
   -3.3908    2.1911   -4.2951 C   0  0  0  0  0  0  0  0  0  0  0  0
   -3.7605    2.4941   -2.9850 C   0  0  0  0  0  0  0  0  0  0  0  0
   -2.9971    2.0195   -1.9159 C   0  0  0  0  0  0  0  0  0  0  0  0
    1.8868    0.1073   -0.0561 H   0  0  0  0  0  0  0  0  0  0  0  0
   -0.7108    0.1967   -3.6811 H   0  0  0  0  0  0  0  0  0  0  0  0
   -2.0181    1.1163   -5.5596 H   0  0  0  0  0  0  0  0  0  0  0  0
   -3.9639    2.5923   -5.1282 H   0  0  0  0  0  0  0  0  0  0  0  0
   -4.6495    3.0920   -2.7981 H   0  0  0  0  0  0  0  0  0  0  0  0
   -3.2654    2.2985   -0.8988 H   0  0  0  0  0  0  0  0  0  0  0  0
  1  2  1  0  0  0  0
  1 12  1  0  0  0  0
  2  3  2  0  0  0  0
  2  4  1  0  0  0  0
  4  5  2  0  0  0  0
  4  6  1  0  0  0  0
  6  7  2  0  0  0  0
  6 11  1  0  0  0  0
  7  8  1  0  0  0  0
  7 13  1  0  0  0  0
  8  9  2  0  0  0  0
  8 14  1  0  0  0  0
  9 10  1  0  0  0  0
  9 15  1  0  0  0  0
 10 11  2  0  0  0  0
 10 16  1  0  0  0  0
 11 17  1  0  0  0  0
M  END
>  <DRUGBANK_ID>
DB02279

>  <SECONDARY_ACCESSION_NUMBERS>
EXPT00053

>  <COMMON_NAME>
Benzoylformic Acid

>  <CAS_NUMBER>
611-73-4

>  <UNII>
2PZL5A0W0M

$$$$
