
 OpenBabel10282417133D

183194  0  0  0  0  0  0  0  0999 V2000
   -0.5198   -4.0602    3.6803 Co  0  7  0  0  0  0  0  0  0  0  0  0
    0.7504   -7.3017    1.0907 C   0  0  0  0  0  0  0  0  0  0  0  0
   -1.6167   -3.0698    4.1031 N   0  0  0  0  0  0  0  0  0  0  0  0
   -0.3272   -3.8882    2.1616 N   0  3  0  0  0  0  0  0  0  0  0  0
   -3.7659   -2.8468   -0.2968 C   0  0  0  0  0  0  0  0  0  0  0  0
   -4.0193   -3.6606    0.9618 C   0  0  2  0  0  0  0  0  0  0  0  0
    1.7540   -2.8502    3.7605 C   0  0  0  0  0  0  0  0  0  0  0  0
    0.7643   -3.7342    4.3930 N   0  3  0  0  0  0  0  0  0  0  0  0
    1.0085   -4.2613    5.6288 C   0  0  0  0  0  0  0  0  0  0  0  0
    0.0272   -5.1658    6.2353 C   0  0  0  0  0  0  0  0  0  0  0  0
   -0.9232   -5.7364    5.4713 C   0  0  0  0  0  0  0  0  0  0  0  0
   -0.9617   -5.4868    3.9868 N   0  3  0  0  0  0  0  0  0  0  0  0
   -3.6077   -5.9773    4.3729 C   0  0  0  0  0  0  0  0  0  0  0  0
   -3.3512   -6.0652    5.8685 C   0  0  1  0  0  0  0  0  0  0  0  0
   -4.3929   -6.9679    6.5090 C   0  0  0  0  0  0  0  0  0  0  0  0
   -4.1364   -7.0558    8.0047 C   0  0  0  0  0  0  0  0  0  0  0  0
   -4.2244   -5.6671    8.6163 C   0  0  0  0  0  0  0  0  0  0  0  0
   -1.9649   -6.6391    6.1119 C   0  0  0  0  0  0  0  0  0  0  0  0
   -1.8769   -8.0278    5.5002 C   0  0  0  0  0  0  0  0  0  0  0  0
   -1.7084   -6.7270    7.6075 C   0  0  0  0  0  0  0  0  0  0  0  0
    2.6522   -1.3930    1.9631 C   0  0  0  0  0  0  0  0  0  0  0  0
   -2.7428   -1.7227   -0.2818 C   0  0  0  0  0  0  0  0  0  0  0  0
   -2.4894   -0.9089   -1.5403 C   0  0  0  0  0  0  0  0  0  0  0  0
   -2.7006   -5.1311    3.4946 C   0  0  0  0  0  0  0  0  0  0  0  0
   -1.6678   -5.7072    4.4495 C   0  0  0  0  0  0  0  0  0  0  0  0
   -2.0532   -2.3259    2.8243 C   0  0  1  0  0  0  0  0  0  0  0  0
   -1.5318   -1.3963    2.7293 H   0  0  0  0  0  0  0  0  0  0  0  0
   -1.6706   -3.2905    1.6741 C   0  0  2  0  0  0  0  0  0  0  0  0
   -1.4927   -2.5388    0.3650 C   0  0  0  0  0  0  0  0  0  0  0  0
    2.2742   -9.1731    1.6713 C   0  0  0  0  0  0  0  0  0  0  0  0
    0.2155   -1.4231    2.4348 C   0  0  1  0  0  0  0  0  0  0  0  0
   -0.0581   -0.8373    1.0592 C   0  0  0  0  0  0  0  0  0  0  0  0
   -0.2385   -1.9643    0.0553 C   0  0  0  0  0  0  0  0  0  0  0  0
   -1.4103   -2.8357    0.4770 C   0  0  0  0  0  0  0  0  0  0  0  0
   -2.4103   -2.9732   -0.2952 O   0  0  0  0  0  0  0  0  0  0  0  0
   -1.3869   -3.5195    1.7781 N   0  0  0  0  0  0  0  0  0  0  0  0
    1.3000   -3.3914    1.3809 C   0  0  0  0  0  0  0  0  0  0  0  0
    1.6048   -4.7101    2.0727 C   0  0  0  0  0  0  0  0  0  0  0  0
    2.7294   -4.8861    2.6379 O   0  0  0  0  0  0  0  0  0  0  0  0
    0.5988   -5.7818    2.0880 N   0  0  0  0  0  0  0  0  0  0  0  0
    1.4804   -2.2644    2.3848 C   0  0  2  0  0  0  0  0  0  0  0  0
   -2.9843   -5.1563    2.6507 C   0  0  0  0  0  0  0  0  0  0  0  0
   -3.1734   -6.6186    2.2813 C   0  0  0  0  0  0  0  0  0  0  0  0
   -2.3761   -7.4973    2.7368 O   0  0  0  0  0  0  0  0  0  0  0  0
   -4.2784   -7.0164    1.3972 N   0  0  0  0  0  0  0  0  0  0  0  0
    1.2004   -7.8429    3.4710 C   0  0  2  0  0  0  0  0  0  0  0  0
    0.7277   -6.4561    3.8757 C   0  0  0  0  0  0  0  0  0  0  0  0
   -0.3234   -5.9716    2.8904 C   0  0  0  0  0  0  0  0  0  0  0  0
   -1.4935   -5.6884    3.2976 O   0  0  0  0  0  0  0  0  0  0  0  0
    0.0135   -5.8304    1.4665 N   0  0  0  0  0  0  0  0  0  0  0  0
    0.7461   -6.3000    2.2469 C   0  0  0  0  0  0  0  0  0  0  0  0
    2.1414   -5.3260    3.5895 C   0  0  0  0  0  0  0  0  0  0  0  0
    1.9559   -6.9375    2.1202 C   0  0  0  0  0  0  0  0  0  0  0  0
    0.8860   -5.3295    3.1384 N   0  3  0  0  0  0  0  0  0  0  0  0
    2.8274   -6.3131    2.9693 N   0  0  0  0  0  0  0  0  0  0  0  0
    4.2439   -6.6512    3.1702 C   0  0  1  0  0  0  0  0  0  0  0  0
    5.1398   -5.4103    2.9353 O   0  0  0  0  0  0  0  0  0  0  0  0
    6.4196   -5.7581    3.7413 C   0  0  2  0  0  0  0  0  0  0  0  0
    7.3261   -6.6799    2.9419 C   0  0  0  0  0  0  0  0  0  0  0  0
    7.6683   -7.8135    3.7256 O   0  0  0  0  0  0  0  0  0  0  0  0
    4.5072   -7.0384    4.6401 C   0  0  2  0  0  0  0  0  0  0  0  0
    3.4997   -6.5181    5.4949 O   0  0  0  0  0  0  0  0  0  0  0  0
    5.8906   -6.4707    5.0036 C   0  0  2  0  0  0  0  0  0  0  0  0
    5.8040   -5.5731    6.1005 O   0  0  0  0  0  0  0  0  0  0  0  0
    2.5081   -5.4407    2.4757 C   0  0  0  0  0  0  0  0  0  0  0  0
    1.9071   -5.4973    3.8707 C   0  0  0  0  0  0  0  0  0  0  0  0
    0.9039   -6.2429    4.1006 O   0  0  0  0  0  0  0  0  0  0  0  0
    2.4862   -4.6897    4.9538 N   0  0  0  0  0  0  0  0  0  0  0  0
    1.9050   -4.7444    6.3029 C   0  0  0  0  0  0  0  0  0  0  0  0
    2.9809   -6.8274    2.0710 C   0  0  0  0  0  0  0  0  0  0  0  0
    1.8015   -7.7863    2.0760 C   0  0  1  0  0  0  0  0  0  0  0  0
    2.9561   -5.2290    7.2882 C   0  0  2  0  0  0  0  0  0  0  0  0
    4.0579   -4.3332    7.2835 O   0  0  0  0  0  0  0  0  0  0  0  0
    3.4288   -6.6158    6.8835 C   0  0  0  0  0  0  0  0  0  0  0  0
    5.9642   -3.3604    5.4157 O   0  0  0  0  0  0  0  0  0  0  0  0
    4.7420   -4.2688    5.6958 P   0  0  3  0  0  0  0  0  0  0  0  0
    3.6799   -2.9645    5.2912 O   0  5  0  0  0  0  0  0  0  0  0  0
   -5.0838   -5.4243    9.5206 O   0  0  0  0  0  0  0  0  0  0  0  0
   -3.3155   -4.6049    8.1619 N   0  0  0  0  0  0  0  0  0  0  0  0
   -2.7309   -4.3425    1.3922 C   0  0  1  0  0  0  0  0  0  0  0  0
   -2.2493   -5.2626    0.2823 C   0  0  0  0  0  0  0  0  0  0  0  0
    2.0958   -7.9890    1.2584 C   0  0  0  0  0  0  0  0  0  0  0  0
   -0.1994   -7.7837    0.6287 C   0  0  0  0  0  0  0  0  0  0  0  0
   -5.0797   -4.7126    0.6799 C   0  0  0  0  0  0  0  0  0  0  0  0
   -5.3331   -5.5264    1.9384 C   0  0  0  0  0  0  0  0  0  0  0  0
   -5.8147   -4.6063    3.0484 C   0  0  0  0  0  0  0  0  0  0  0  0
   -5.0784   -3.6493    3.4447 O   0  0  0  0  0  0  0  0  0  0  0  0
   -7.1321   -4.8235    3.6634 N   0  0  0  0  0  0  0  0  0  0  0  0
    1.0509   -8.4155    0.5212 C   0  0  0  0  0  0  0  0  0  0  0  0
   -0.3544   -6.7361    1.4818 C   0  0  0  0  0  0  0  0  0  0  0  0
    1.2263   -9.5867   -0.4318 C   0  0  0  0  0  0  0  0  0  0  0  0
   -1.3740   -8.2691   -0.2051 C   0  0  0  0  0  0  0  0  0  0  0  0
   -0.7724   -4.2857    5.6717 C   0  0  0  0  0  0  0  0  0  0  0  0
   -4.3583   -3.0129    1.7431 H   0  0  0  0  0  0  0  0  0  0  0  0
    0.0663   -5.3724    7.2844 H   0  0  0  0  0  0  0  0  0  0  0  0
   -3.4131   -5.0876    6.2990 H   0  0  0  0  0  0  0  0  0  0  0  0
   -5.3688   -6.5639    6.3377 H   0  0  0  0  0  0  0  0  0  0  0  0
   -4.3310   -7.9455    6.0785 H   0  0  0  0  0  0  0  0  0  0  0  0
   -4.8697   -7.6913    8.4556 H   0  0  0  0  0  0  0  0  0  0  0  0
   -3.1605   -7.4598    8.1760 H   0  0  0  0  0  0  0  0  0  0  0  0
   -0.9010   -8.4318    5.6716 H   0  0  0  0  0  0  0  0  0  0  0  0
   -2.6102   -8.6633    5.9512 H   0  0  0  0  0  0  0  0  0  0  0  0
   -2.0575   -7.9659    4.4474 H   0  0  0  0  0  0  0  0  0  0  0  0
   -0.7325   -7.1310    7.7788 H   0  0  0  0  0  0  0  0  0  0  0  0
   -1.7703   -5.7494    8.0381 H   0  0  0  0  0  0  0  0  0  0  0  0
   -2.4417   -7.3625    8.0584 H   0  0  0  0  0  0  0  0  0  0  0  0
    3.4146   -1.6336    2.6742 H   0  0  0  0  0  0  0  0  0  0  0  0
    2.9717   -1.6858    0.9848 H   0  0  0  0  0  0  0  0  0  0  0  0
    2.4703   -0.3386    1.9781 H   0  0  0  0  0  0  0  0  0  0  0  0
   -2.1504   -1.5566   -2.3216 H   0  0  0  0  0  0  0  0  0  0  0  0
   -3.3964   -0.4289   -1.8433 H   0  0  0  0  0  0  0  0  0  0  0  0
   -1.7430   -0.1684   -1.3419 H   0  0  0  0  0  0  0  0  0  0  0  0
   -0.6911   -5.3829    4.1566 H   0  0  0  0  0  0  0  0  0  0  0  0
   -1.8729   -5.3684    5.4435 H   0  0  0  0  0  0  0  0  0  0  0  0
   -1.7124   -6.7759    4.4206 H   0  0  0  0  0  0  0  0  0  0  0  0
   -0.7938   -1.7406    0.5042 H   0  0  0  0  0  0  0  0  0  0  0  0
   -1.1246   -3.2086   -0.3838 H   0  0  0  0  0  0  0  0  0  0  0  0
   -2.4345   -2.1379    0.0531 H   0  0  0  0  0  0  0  0  0  0  0  0
    3.0141   -9.5142    2.3649 H   0  0  0  0  0  0  0  0  0  0  0  0
    1.4439   -9.8480    1.6748 H   0  0  0  0  0  0  0  0  0  0  0  0
    2.6973   -9.1332    0.6893 H   0  0  0  0  0  0  0  0  0  0  0  0
   -0.6094   -2.0366    2.7317 H   0  0  0  0  0  0  0  0  0  0  0  0
   -0.9486   -0.2450    1.0944 H   0  0  0  0  0  0  0  0  0  0  0  0
    0.7668   -0.2238    0.7623 H   0  0  0  0  0  0  0  0  0  0  0  0
   -0.4311   -1.5519   -0.9131 H   0  0  0  0  0  0  0  0  0  0  0  0
    0.6519   -2.5565    0.0201 H   0  0  0  0  0  0  0  0  0  0  0  0
   -0.5844   -3.4091    2.3979 H   0  0  0  0  0  0  0  0  0  0  0  0
   -2.1733   -4.1043    2.0611 H   0  0  0  0  0  0  0  0  0  0  0  0
    0.3144   -3.4259    0.9657 H   0  0  0  0  0  0  0  0  0  0  0  0
    2.0111   -3.2263    0.5986 H   0  0  0  0  0  0  0  0  0  0  0  0
    0.8033   -6.6667    2.5522 H   0  0  0  0  0  0  0  0  0  0  0  0
   -0.3038   -5.6405    1.6344 H   0  0  0  0  0  0  0  0  0  0  0  0
   -2.1368   -5.0583    3.2964 H   0  0  0  0  0  0  0  0  0  0  0  0
   -3.8589   -4.7995    3.1534 H   0  0  0  0  0  0  0  0  0  0  0  0
   -4.9182   -6.3112    1.0316 H   0  0  0  0  0  0  0  0  0  0  0  0
   -4.4052   -7.9977    1.1493 H   0  0  0  0  0  0  0  0  0  0  0  0
    0.3702   -8.5179    3.4745 H   0  0  0  0  0  0  0  0  0  0  0  0
    0.3046   -6.4960    4.8577 H   0  0  0  0  0  0  0  0  0  0  0  0
    1.5580   -5.7812    3.8721 H   0  0  0  0  0  0  0  0  0  0  0  0
    0.9526   -6.0577    1.1397 H   0  0  0  0  0  0  0  0  0  0  0  0
   -0.6919   -5.5053    0.8053 H   0  0  0  0  0  0  0  0  0  0  0  0
    2.5396   -4.6539    4.3207 H   0  0  0  0  0  0  0  0  0  0  0  0
    4.4628   -7.4487    2.4913 H   0  0  0  0  0  0  0  0  0  0  0  0
    7.0048   -4.8931    3.9741 H   0  0  0  0  0  0  0  0  0  0  0  0
    6.7515   -6.9921    2.0950 H   0  0  0  0  0  0  0  0  0  0  0  0
    8.2192   -6.1946    2.6077 H   0  0  0  0  0  0  0  0  0  0  0  0
    8.2054   -7.5217    4.5171 H   0  0  0  0  0  0  0  0  0  0  0  0
    4.5052   -8.1030    4.7475 H   0  0  0  0  0  0  0  0  0  0  0  0
    3.4776   -5.5215    5.4160 H   0  0  0  0  0  0  0  0  0  0  0  0
    6.5524   -7.2629    5.2852 H   0  0  0  0  0  0  0  0  0  0  0  0
    1.7682   -5.0996    1.7821 H   0  0  0  0  0  0  0  0  0  0  0  0
    3.3384   -4.7657    2.4722 H   0  0  0  0  0  0  0  0  0  0  0  0
    3.2914   -4.0913    4.7693 H   0  0  0  0  0  0  0  0  0  0  0  0
    1.0747   -5.4194    6.3065 H   0  0  0  0  0  0  0  0  0  0  0  0
    1.5722   -3.7682    6.5878 H   0  0  0  0  0  0  0  0  0  0  0  0
    3.4040   -6.7876    1.0890 H   0  0  0  0  0  0  0  0  0  0  0  0
    3.7208   -7.1685    2.7646 H   0  0  0  0  0  0  0  0  0  0  0  0
    2.5330   -5.2689    8.2702 H   0  0  0  0  0  0  0  0  0  0  0  0
    4.1688   -6.9569    7.5771 H   0  0  0  0  0  0  0  0  0  0  0  0
    2.5986   -7.2908    6.8870 H   0  0  0  0  0  0  0  0  0  0  0  0
    3.8519   -6.5759    5.9015 H   0  0  0  0  0  0  0  0  0  0  0  0
   -2.6257   -4.7997    7.4362 H   0  0  0  0  0  0  0  0  0  0  0  0
   -3.3745   -3.6730    8.5724 H   0  0  0  0  0  0  0  0  0  0  0  0
   -2.7927   -5.0813   -0.6215 H   0  0  0  0  0  0  0  0  0  0  0  0
   -1.2107   -5.0633    0.1200 H   0  0  0  0  0  0  0  0  0  0  0  0
   -2.3750   -6.2840    0.5752 H   0  0  0  0  0  0  0  0  0  0  0  0
    3.0432   -8.4780    1.1680 H   0  0  0  0  0  0  0  0  0  0  0  0
   -5.9867   -4.2325    0.3769 H   0  0  0  0  0  0  0  0  0  0  0  0
   -4.7407   -5.3602   -0.1014 H   0  0  0  0  0  0  0  0  0  0  0  0
   -6.0795   -6.2669    1.7400 H   0  0  0  0  0  0  0  0  0  0  0  0
   -4.4261   -6.0064    2.2414 H   0  0  0  0  0  0  0  0  0  0  0  0
   -7.4552   -4.2061    4.4082 H   0  0  0  0  0  0  0  0  0  0  0  0
   -7.7230   -5.5916    3.3453 H   0  0  0  0  0  0  0  0  0  0  0  0
   -1.3023   -6.2478    1.5714 H   0  0  0  0  0  0  0  0  0  0  0  0
    1.9760   -9.3474   -1.1568 H   0  0  0  0  0  0  0  0  0  0  0  0
    1.5269  -10.4531    0.1195 H   0  0  0  0  0  0  0  0  0  0  0  0
    0.2995   -9.7840   -0.9288 H   0  0  0  0  0  0  0  0  0  0  0  0
   -2.1669   -8.5801    0.4426 H   0  0  0  0  0  0  0  0  0  0  0  0
   -1.7178   -7.4744   -0.8336 H   0  0  0  0  0  0  0  0  0  0  0  0
   -1.0641   -9.0946   -0.8113 H   0  0  0  0  0  0  0  0  0  0  0  0
   -1.0677   -5.2924    5.8820 H   0  0  0  0  0  0  0  0  0  0  0  0
    0.1475   -4.0714    6.1744 H   0  0  0  0  0  0  0  0  0  0  0  0
   -1.5308   -3.6127    6.0135 H   0  0  0  0  0  0  0  0  0  0  0  0
  1 93  1  0  0  0  0
  1 54  1  0  0  0  0
  2  3  1  0  0  0  0
  3  1  1  0  0  0  0
  4  5  2  0  0  0  0
  4  1  1  0  0  0  0
  5 22  1  0  0  0  0
  6  5  1  0  0  0  0
  6 84  1  0  0  0  0
  6 94  1  1  0  0  0
  7  8  1  0  0  0  0
  8  9  2  0  0  0  0
  8  1  1  0  0  0  0
  9 10  1  0  0  0  0
 10 11  2  0  0  0  0
 10 95  1  0  0  0  0
 11 12  1  0  0  0  0
 11 18  1  0  0  0  0
 12 13  2  0  0  0  0
 12  1  1  0  0  0  0
 13 14  1  0  0  0  0
 14 15  1  0  0  0  0
 14 18  1  0  0  0  0
 14 96  1  1  0  0  0
 15 16  1  0  0  0  0
 15 97  1  0  0  0  0
 15 98  1  0  0  0  0
 16 17  1  0  0  0  0
 16 99  1  0  0  0  0
 16100  1  0  0  0  0
 17 78  2  0  0  0  0
 17 79  1  0  0  0  0
 18 19  1  0  0  0  0
 18 20  1  0  0  0  0
 19101  1  0  0  0  0
 19102  1  0  0  0  0
 19103  1  0  0  0  0
 20104  1  0  0  0  0
 20105  1  0  0  0  0
 20106  1  0  0  0  0
 21107  1  0  0  0  0
 21108  1  0  0  0  0
 21109  1  0  0  0  0
 22  7  2  0  0  0  0
 22 23  1  0  0  0  0
 23110  1  0  0  0  0
 23111  1  0  0  0  0
 23112  1  0  0  0  0
 24  2  2  0  0  0  0
 24 13  1  0  0  0  0
 24 25  1  0  0  0  0
 25113  1  0  0  0  0
 25114  1  0  0  0  0
 25115  1  0  0  0  0
 26  3  1  0  0  0  0
 26 46  1  0  0  0  0
 26 28  1  0  0  0  0
 26 27  1  1  0  0  0
 28  4  1  0  0  0  0
 28 80  1  0  0  0  0
 28 29  1  1  0  0  0
 29116  1  0  0  0  0
 29117  1  0  0  0  0
 29118  1  0  0  0  0
 30119  1  0  0  0  0
 30120  1  0  0  0  0
 30121  1  0  0  0  0
 31  9  1  0  0  0  0
 31 41  1  0  0  0  0
 31 32  1  0  0  0  0
 31122  1  6  0  0  0
 32 33  1  0  0  0  0
 32123  1  0  0  0  0
 32124  1  0  0  0  0
 33 34  1  0  0  0  0
 33125  1  0  0  0  0
 33126  1  0  0  0  0
 34 35  2  0  0  0  0
 34 36  1  0  0  0  0
 36127  1  0  0  0  0
 36128  1  0  0  0  0
 37 38  1  0  0  0  0
 37129  1  0  0  0  0
 37130  1  0  0  0  0
 38 40  1  0  0  0  0
 38 39  2  0  0  0  0
 40131  1  0  0  0  0
 40132  1  0  0  0  0
 41  7  1  0  0  0  0
 41 37  1  6  0  0  0
 41 21  1  0  0  0  0
 42 43  1  0  0  0  0
 42133  1  0  0  0  0
 42134  1  0  0  0  0
 43 44  2  0  0  0  0
 43 45  1  0  0  0  0
 45135  1  0  0  0  0
 45136  1  0  0  0  0
 46 71  1  0  0  0  0
 46 47  1  0  0  0  0
 46137  1  1  0  0  0
 47 48  1  0  0  0  0
 47138  1  0  0  0  0
 47139  1  0  0  0  0
 48 49  2  0  0  0  0
 48 50  1  0  0  0  0
 50140  1  0  0  0  0
 50141  1  0  0  0  0
 51 54  1  0  0  0  0
 51 53  1  0  0  0  0
 52 55  1  0  0  0  0
 52 54  2  0  0  0  0
 52142  1  0  0  0  0
 53 82  2  0  0  0  0
 55 53  1  0  0  0  0
 56 55  1  0  0  0  0
 56 61  1  0  0  0  0
 56 57  1  0  0  0  0
 56143  1  6  0  0  0
 58 57  1  0  0  0  0
 58144  1  1  0  0  0
 58 59  1  0  0  0  0
 59 60  1  0  0  0  0
 59145  1  0  0  0  0
 59146  1  0  0  0  0
 60147  1  0  0  0  0
 61 63  1  0  0  0  0
 61 62  1  0  0  0  0
 61148  1  1  0  0  0
 62149  1  0  0  0  0
 63 58  1  0  0  0  0
 63 64  1  0  0  0  0
 63150  1  1  0  0  0
 65 66  1  0  0  0  0
 65151  1  0  0  0  0
 65152  1  0  0  0  0
 66 67  2  0  0  0  0
 66 68  1  0  0  0  0
 68153  1  0  0  0  0
 69 68  1  0  0  0  0
 69154  1  0  0  0  0
 69155  1  0  0  0  0
 70 65  1  0  0  0  0
 70156  1  0  0  0  0
 70157  1  0  0  0  0
 71  2  1  0  0  0  0
 71 30  1  1  0  0  0
 71 70  1  0  0  0  0
 72 69  1  0  0  0  0
 72 73  1  0  0  0  0
 72 74  1  0  0  0  0
 72158  1  1  0  0  0
 74159  1  0  0  0  0
 74160  1  0  0  0  0
 74161  1  0  0  0  0
 76 64  1  0  0  0  0
 76 73  1  0  0  0  0
 76 75  2  0  0  0  0
 76 77  1  0  0  0  0
 79162  1  0  0  0  0
 79163  1  0  0  0  0
 80  6  1  0  0  0  0
 80 81  1  6  0  0  0
 80 42  1  0  0  0  0
 81164  1  0  0  0  0
 81165  1  0  0  0  0
 81166  1  0  0  0  0
 82 89  1  0  0  0  0
 82167  1  0  0  0  0
 83 92  1  0  0  0  0
 84 85  1  0  0  0  0
 84168  1  0  0  0  0
 84169  1  0  0  0  0
 85 86  1  0  0  0  0
 85170  1  0  0  0  0
 85171  1  0  0  0  0
 86 88  1  0  0  0  0
 86 87  2  0  0  0  0
 88172  1  0  0  0  0
 88173  1  0  0  0  0
 89 83  2  0  0  0  0
 89 91  1  0  0  0  0
 90 51  2  0  0  0  0
 90 83  1  0  0  0  0
 90174  1  0  0  0  0
 91175  1  0  0  0  0
 91176  1  0  0  0  0
 91177  1  0  0  0  0
 92178  1  0  0  0  0
 92179  1  0  0  0  0
 92180  1  0  0  0  0
 93181  1  0  0  0  0
 93182  1  0  0  0  0
 93183  1  0  0  0  0
M  CHG  6   1  -3   4   1   8   1  12   1  54   1  77  -1
M  END
>  <DRUGBANK_ID>
DB03614

>  <SECONDARY_ACCESSION_NUMBERS>
EXPT00979

>  <COMMON_NAME>
Mecobalamin

>  <CAS_NUMBER>
13422-55-4

>  <UNII>
BR1SN1JS2W

>  <SYNONYMS>
Co-methylcobalamin; MeCbl; Mecobalamin; Mecobalamina; Mecobalaminum; Methyl vitamin B12; Methyl(III)cobalamin; Methylcobalamin

$$$$
