820
 OpenBabel10282417113D

 48 53  0  0  1  0  0  0  0  0999 V2000
    2.3421   -2.6414    0.0003 O   0  0  0  0  0  0  0  0  0  0  0  0
    2.8657    2.7279   -0.3137 O   0  0  0  0  0  0  0  0  0  0  0  0
   -1.5663    2.3986    4.9556 O   0  0  0  0  0  0  0  0  0  0  0  0
    0.3199    3.6929    5.7234 O   0  0  0  0  0  0  0  0  0  0  0  0
    1.4755    0.9264    0.1362 N   0  0  0  0  0  0  0  0  0  0  0  0
   -2.1666    1.6814   -0.2038 N   0  0  0  0  0  0  0  0  0  0  0  0
    3.6898   -0.7871   -0.0284 N   0  0  0  0  0  0  0  0  0  0  0  0
    1.2440   -0.4917   -0.2807 C   0  0  2  0  0  0  0  0  0  0  0  0
    0.3239    1.8406    0.3634 C   0  0  1  0  0  0  0  0  0  0  0  0
    0.0203   -1.1345    0.4198 C   0  0  0  0  0  0  0  0  0  0  0  0
   -0.9539    1.1036    0.0655 C   0  0  0  0  0  0  0  0  0  0  0  0
   -1.1459   -0.2559    0.1749 C   0  0  0  0  0  0  0  0  0  0  0  0
    2.4528   -1.4146   -0.0497 C   0  0  0  0  0  0  0  0  0  0  0  0
   -2.5329   -0.5142    0.0703 C   0  0  0  0  0  0  0  0  0  0  0  0
    2.6904    1.5124   -0.1943 C   0  0  0  0  0  0  0  0  0  0  0  0
    0.3384    2.3727    1.8079 C   0  0  0  0  0  0  0  0  0  0  0  0
    3.8337    0.5710   -0.5137 C   0  0  0  0  0  0  0  0  0  0  0  0
   -3.1525    0.7148   -0.1787 C   0  0  0  0  0  0  0  0  0  0  0  0
   -3.3295   -1.6689    0.1772 C   0  0  0  0  0  0  0  0  0  0  0  0
   -0.7087    2.0961    2.7088 C   0  0  0  0  0  0  0  0  0  0  0  0
    1.4203    3.1578    2.2816 C   0  0  0  0  0  0  0  0  0  0  0  0
   -4.5367    0.8383   -0.3427 C   0  0  0  0  0  0  0  0  0  0  0  0
    4.8832   -1.6072    0.0052 C   0  0  0  0  0  0  0  0  0  0  0  0
   -0.6298    2.5832    3.9906 C   0  0  0  0  0  0  0  0  0  0  0  0
   -4.7144   -1.5605    0.0139 C   0  0  0  0  0  0  0  0  0  0  0  0
    1.4898    3.6192    3.5962 C   0  0  0  0  0  0  0  0  0  0  0  0
   -5.3054   -0.3260   -0.2481 C   0  0  0  0  0  0  0  0  0  0  0  0
    0.4417    3.3189    4.4252 C   0  0  0  0  0  0  0  0  0  0  0  0
   -0.9129    3.0306    6.0719 C   0  0  0  0  0  0  0  0  0  0  0  0
    1.0705   -0.4651   -1.3674 H   0  0  0  0  0  0  0  0  0  0  0  0
   -2.3409    2.6737   -0.2918 H   0  0  0  0  0  0  0  0  0  0  0  0
    0.4006    2.6899   -0.3290 H   0  0  0  0  0  0  0  0  0  0  0  0
   -0.1725   -2.1465    0.0485 H   0  0  0  0  0  0  0  0  0  0  0  0
    0.2083   -1.2079    1.4998 H   0  0  0  0  0  0  0  0  0  0  0  0
    4.7153    0.9901   -0.0119 H   0  0  0  0  0  0  0  0  0  0  0  0
    3.9854    0.5712   -1.5957 H   0  0  0  0  0  0  0  0  0  0  0  0
   -2.8772   -2.6331    0.3894 H   0  0  0  0  0  0  0  0  0  0  0  0
   -1.5794    1.5056    2.4454 H   0  0  0  0  0  0  0  0  0  0  0  0
    2.2471    3.4319    1.6381 H   0  0  0  0  0  0  0  0  0  0  0  0
   -5.0027    1.7980   -0.5401 H   0  0  0  0  0  0  0  0  0  0  0  0
    4.8697   -2.2011    0.9224 H   0  0  0  0  0  0  0  0  0  0  0  0
    4.8996   -2.2760   -0.8609 H   0  0  0  0  0  0  0  0  0  0  0  0
    5.7773   -0.9772   -0.0029 H   0  0  0  0  0  0  0  0  0  0  0  0
   -5.3327   -2.4513    0.0903 H   0  0  0  0  0  0  0  0  0  0  0  0
    2.3436    4.1915    3.9374 H   0  0  0  0  0  0  0  0  0  0  0  0
   -6.3831   -0.2659   -0.3810 H   0  0  0  0  0  0  0  0  0  0  0  0
   -1.5972    3.7672    6.5038 H   0  0  0  0  0  0  0  0  0  0  0  0
   -0.6893    2.2606    6.8178 H   0  0  0  0  0  0  0  0  0  0  0  0
  1 13  2  0  0  0  0
  2 15  2  0  0  0  0
  3 24  1  0  0  0  0
  3 29  1  0  0  0  0
  4 28  1  0  0  0  0
  4 29  1  0  0  0  0
  5  8  1  0  0  0  0
  5  9  1  0  0  0  0
  5 15  1  0  0  0  0
  6 11  1  0  0  0  0
  6 18  1  0  0  0  0
  6 31  1  0  0  0  0
  7 13  1  0  0  0  0
  7 17  1  0  0  0  0
  7 23  1  0  0  0  0
  8 10  1  0  0  0  0
  8 13  1  0  0  0  0
  8 30  1  6  0  0  0
  9 11  1  0  0  0  0
  9 16  1  0  0  0  0
  9 32  1  6  0  0  0
 10 12  1  0  0  0  0
 10 33  1  0  0  0  0
 10 34  1  0  0  0  0
 11 12  2  0  0  0  0
 12 14  1  0  0  0  0
 14 18  1  0  0  0  0
 14 19  2  0  0  0  0
 15 17  1  0  0  0  0
 16 20  2  0  0  0  0
 16 21  1  0  0  0  0
 17 35  1  0  0  0  0
 17 36  1  0  0  0  0
 18 22  2  0  0  0  0
 19 25  1  0  0  0  0
 19 37  1  0  0  0  0
 20 24  1  0  0  0  0
 20 38  1  0  0  0  0
 21 26  2  0  0  0  0
 21 39  1  0  0  0  0
 22 27  1  0  0  0  0
 22 40  1  0  0  0  0
 23 41  1  0  0  0  0
 23 42  1  0  0  0  0
 23 43  1  0  0  0  0
 24 28  2  0  0  0  0
 25 27  2  0  0  0  0
 25 44  1  0  0  0  0
 26 28  1  0  0  0  0
 26 45  1  0  0  0  0
 27 46  1  0  0  0  0
 29 47  1  0  0  0  0
 29 48  1  0  0  0  0
M  END
>  <DRUGBANK_ID>
DB00820

>  <SECONDARY_ACCESSION_NUMBERS>
APRD00071

>  <COMMON_NAME>
Tadalafil

>  <CAS_NUMBER>
171596-29-5

>  <UNII>
742SXX0ICT

>  <SYNONYMS>
(6R-trans)-6-(1,3-Benzodioxol-5-yl)-2,3,6,7,12,12a-hexahydro-2-methyl-pyrazino(1',2':1,6)pyrido(3,4-b)indole-1,4-dione; (6R,12aR)-2,3,6,7,12,12a-Hexahydro-2-methyl-6-(3,4-(methylenedioxy)phenyl) pyrazino(1',2':1,6)pyrido(3,4-b)indole-1,4-dione; Tadalafil; Tadalafilo

$$$$
