224
 OpenBabel10282417163D

 37 39  0  0  0  0  0  0  0  0999 V2000
   -1.2607    0.1846   -0.0527 C   0  0  0  0  0  0  0  0  0  0  0  0
   -0.4975   -0.9345   -0.2307 N   0  0  0  0  0  0  0  0  0  0  0  0
   -0.3729    1.2121    0.0251 C   0  0  0  0  0  0  0  0  0  0  0  0
    0.9153    0.7449    0.0618 N   0  0  0  0  0  0  0  0  0  0  0  0
    0.8004   -0.5523   -0.0257 C   0  0  0  0  0  0  0  0  0  0  0  0
   -1.0579   -2.2324   -0.4867 C   0  0  0  0  0  0  0  0  0  0  0  0
   -0.3032   -3.1632   -1.4343 C   0  0  0  0  0  0  0  0  0  0  0  0
   -0.7075   -2.7605   -2.7533 O   0  0  0  0  0  0  0  0  0  0  0  0
    1.1279   -3.1219   -1.3358 O   0  0  0  0  0  0  0  0  0  0  0  0
    1.5950   -2.5077   -2.5368 C   0  0  0  0  0  0  0  0  0  0  0  0
    0.4861   -2.7281   -3.5262 C   0  0  0  0  0  0  0  0  0  0  0  0
   -0.7105   -4.6263   -1.1355 C   0  0  0  0  0  0  0  0  0  0  0  0
   -0.1164   -5.2831    0.1704 C   0  0  0  0  0  0  0  0  0  0  0  0
   -0.3880   -4.6773    1.5489 C   0  0  0  0  0  0  0  0  0  0  0  0
   -1.1883   -5.3013    2.5084 C   0  0  0  0  0  0  0  0  0  0  0  0
    0.1347   -3.4238    1.8970 C   0  0  0  0  0  0  0  0  0  0  0  0
   -0.4885   -2.6367    2.8730 C   0  0  0  0  0  0  0  0  0  0  0  0
   -1.5706   -4.6101    3.6741 C   0  0  0  0  0  0  0  0  0  0  0  0
   -1.2934   -3.2520    3.8074 C   0  0  0  0  0  0  0  0  0  0  0  0
   -1.8453   -2.3513    5.1622 Cl  0  0  0  0  0  0  0  0  0  0  0  0
   -2.3466    0.1338   -0.0494 H   0  0  0  0  0  0  0  0  0  0  0  0
   -0.5883    2.2724    0.0725 H   0  0  0  0  0  0  0  0  0  0  0  0
    1.6465   -1.2391    0.0245 H   0  0  0  0  0  0  0  0  0  0  0  0
   -1.1892   -2.6948    0.4608 H   0  0  0  0  0  0  0  0  0  0  0  0
   -2.1145   -2.1243   -0.7616 H   0  0  0  0  0  0  0  0  0  0  0  0
    1.7749   -1.4452   -2.3463 H   0  0  0  0  0  0  0  0  0  0  0  0
    2.5411   -2.9568   -2.8505 H   0  0  0  0  0  0  0  0  0  0  0  0
    0.4380   -1.9479   -4.2914 H   0  0  0  0  0  0  0  0  0  0  0  0
    0.5716   -3.7064   -4.0014 H   0  0  0  0  0  0  0  0  0  0  0  0
   -1.8050   -4.7123   -1.1580 H   0  0  0  0  0  0  0  0  0  0  0  0
   -0.3645   -5.2382   -1.9841 H   0  0  0  0  0  0  0  0  0  0  0  0
   -0.4947   -6.3143    0.1758 H   0  0  0  0  0  0  0  0  0  0  0  0
    0.9698   -5.3666    0.0562 H   0  0  0  0  0  0  0  0  0  0  0  0
   -1.5011   -6.3344    2.3792 H   0  0  0  0  0  0  0  0  0  0  0  0
    0.8687   -2.9522    1.2544 H   0  0  0  0  0  0  0  0  0  0  0  0
   -0.3658   -1.5529    2.8656 H   0  0  0  0  0  0  0  0  0  0  0  0
   -2.1007   -5.1284    4.4663 H   0  0  0  0  0  0  0  0  0  0  0  0
  1  2  1  0  0  0  0
  1  3  2  0  0  0  0
  1 21  1  0  0  0  0
  2  5  1  0  0  0  0
  2  6  1  0  0  0  0
  3  4  1  0  0  0  0
  3 22  1  0  0  0  0
  4  5  2  0  0  0  0
  5 23  1  0  0  0  0
  6  7  1  0  0  0  0
  6 24  1  0  0  0  0
  6 25  1  0  0  0  0
  7  9  1  0  0  0  0
  7 12  1  0  0  0  0
  7  8  1  0  0  0  0
  8 11  1  0  0  0  0
  9 10  1  0  0  0  0
 10 11  1  0  0  0  0
 10 26  1  0  0  0  0
 10 27  1  0  0  0  0
 11 28  1  0  0  0  0
 11 29  1  0  0  0  0
 12 13  1  0  0  0  0
 12 30  1  0  0  0  0
 12 31  1  0  0  0  0
 13 14  1  0  0  0  0
 13 32  1  0  0  0  0
 13 33  1  0  0  0  0
 14 15  2  0  0  0  0
 14 16  1  0  0  0  0
 15 18  1  0  0  0  0
 15 34  1  0  0  0  0
 16 17  2  0  0  0  0
 16 35  1  0  0  0  0
 17 19  1  0  0  0  0
 17 36  1  0  0  0  0
 18 19  2  0  0  0  0
 18 37  1  0  0  0  0
 19 20  1  0  0  0  0
M  END
>  <DRUGBANK_ID>
DB06914

>  <COMMON_NAME>
1-({2-[2-(4-CHLOROPHENYL)ETHYL]-1,3-DIOXOLAN-2-YL}METHYL)-1H-IMIDAZOLE

$$$$
