
 OpenBabel10282417223D

 42 43  0  0  0  0  0  0  0  0999 V2000
    1.1573    0.8994   -0.1210 C   0  0  1  0  0  0  0  0  0  0  0  0
   -0.2300    0.1854    0.0368 C   0  0  2  0  0  0  0  0  0  0  0  0
   -0.1404   -1.2185   -0.4414 C   0  0  1  0  0  0  0  0  0  0  0  0
    1.3049   -1.4591   -0.2097 C   0  0  2  0  0  0  0  0  0  0  0  0
    1.9240   -0.2113   -0.6600 O   0  0  0  0  0  0  0  0  0  0  0  0
   -1.2570    3.5052    1.8357 C   0  0  2  0  0  0  0  0  0  0  0  0
    0.2156    3.8385    1.5802 C   0  0  1  0  0  0  0  0  0  0  0  0
    0.5990    4.2723    0.1512 C   0  0  2  0  0  0  0  0  0  0  0  0
    0.1280    3.1846   -0.8394 C   0  0  2  0  0  0  0  0  0  0  0  0
   -1.2942    2.9771   -0.6558 O   0  0  0  0  0  0  0  0  0  0  0  0
   -1.7225    2.6279    0.6828 C   0  0  2  0  0  0  0  0  0  0  0  0
    0.9861    2.0027   -1.0606 O   0  0  0  0  0  0  0  0  0  0  0  0
    1.9894    4.5636    0.0011 O   0  0  0  0  0  0  0  0  0  0  0  0
    0.8922    4.4712    2.6394 O   0  0  0  0  0  0  0  0  0  0  0  0
   -2.2594    4.9001    2.1657 Cl  0  0  0  0  0  0  0  0  0  0  0  0
   -3.0460    1.8228    0.7788 C   0  0  0  0  0  0  0  0  0  0  0  0
    2.0313    1.3679    1.1158 C   0  0  0  0  0  0  0  0  0  0  0  0
   -1.0602   -2.0882    0.2041 O   0  0  0  0  0  0  0  0  0  0  0  0
    1.7434   -2.5622   -1.1389 C   0  0  0  0  0  0  0  0  0  0  0  0
   -1.2671    0.5931   -0.8716 O   0  0  0  0  0  0  0  0  0  0  0  0
    2.2153   -4.0104   -0.2443 Cl  0  0  0  0  0  0  0  0  0  0  0  0
    3.6892    0.7284    1.3442 Cl  0  0  0  0  0  0  0  0  0  0  0  0
   -3.5564    1.7996    2.1030 O   0  0  0  0  0  0  0  0  0  0  0  0
   -0.5556    0.1652    1.0853 H   0  0  0  0  0  0  0  0  0  0  0  0
   -0.3720   -1.2461   -1.5169 H   0  0  0  0  0  0  0  0  0  0  0  0
    1.4836   -1.6471    0.8633 H   0  0  0  0  0  0  0  0  0  0  0  0
   -1.2713    2.8784    2.7444 H   0  0  0  0  0  0  0  0  0  0  0  0
    0.6143    2.8543    1.6750 H   0  0  0  0  0  0  0  0  0  0  0  0
    0.0549    5.1985   -0.0664 H   0  0  0  0  0  0  0  0  0  0  0  0
    0.2013    3.6478   -1.8342 H   0  0  0  0  0  0  0  0  0  0  0  0
   -1.0467    1.8538    0.9440 H   0  0  0  0  0  0  0  0  0  0  0  0
    2.3903    3.9581   -0.6524 H   0  0  0  0  0  0  0  0  0  0  0  0
    0.4104    5.3029    2.8617 H   0  0  0  0  0  0  0  0  0  0  0  0
   -3.7978    2.1397    0.0528 H   0  0  0  0  0  0  0  0  0  0  0  0
   -2.8850    0.7590    0.5475 H   0  0  0  0  0  0  0  0  0  0  0  0
    2.2834    2.4204    0.9900 H   0  0  0  0  0  0  0  0  0  0  0  0
    1.5237    1.2175    2.0727 H   0  0  0  0  0  0  0  0  0  0  0  0
   -1.3454   -1.7220    1.0584 H   0  0  0  0  0  0  0  0  0  0  0  0
    0.9383   -2.8500   -1.8251 H   0  0  0  0  0  0  0  0  0  0  0  0
    2.5805   -2.2099   -1.7423 H   0  0  0  0  0  0  0  0  0  0  0  0
   -0.9586    1.3271   -1.4412 H   0  0  0  0  0  0  0  0  0  0  0  0
   -2.9547    1.2644    2.6495 H   0  0  0  0  0  0  0  0  0  0  0  0
  1  2  1  0  0  0  0
  1 17  1  0  0  0  0
  1 12  1  6  0  0  0
  2  3  1  0  0  0  0
  2 20  1  0  0  0  0
  2 24  1  1  0  0  0
  3  4  1  0  0  0  0
  3 18  1  0  0  0  0
  3 25  1  6  0  0  0
  4  5  1  0  0  0  0
  4 26  1  1  0  0  0
  4 19  1  0  0  0  0
  5  1  1  0  0  0  0
  6  7  1  0  0  0  0
  6 27  1  1  0  0  0
  6 15  1  0  0  0  0
  7 14  1  0  0  0  0
  7  8  1  0  0  0  0
  7 28  1  1  0  0  0
  8  9  1  0  0  0  0
  8 29  1  6  0  0  0
  8 13  1  0  0  0  0
  9 12  1  0  0  0  0
  9 10  1  0  0  0  0
  9 30  1  6  0  0  0
 10 11  1  0  0  0  0
 11  6  1  0  0  0  0
 11 31  1  1  0  0  0
 11 16  1  0  0  0  0
 13 32  1  0  0  0  0
 14 33  1  0  0  0  0
 16 23  1  0  0  0  0
 16 34  1  0  0  0  0
 16 35  1  0  0  0  0
 17 22  1  0  0  0  0
 17 36  1  0  0  0  0
 17 37  1  0  0  0  0
 18 38  1  0  0  0  0
 19 21  1  0  0  0  0
 19 39  1  0  0  0  0
 19 40  1  0  0  0  0
 20 41  1  0  0  0  0
 23 42  1  0  0  0  0
M  END
>  <DRUGBANK_ID>
DB15049

>  <COMMON_NAME>
Sucralose

>  <CAS_NUMBER>
56038-13-2

>  <UNII>
96K6UQ3ZD4

>  <SYNONYMS>
Sucralose; Trichlorosucrose

$$$$
