C11
 OpenBabel10282417123D

 51 50  0  0  0  0  0  0  0  0999 V2000
    0.9624    0.0669   -0.0641 C   0  0  0  0  0  0  0  0  0  0  0  0
    0.3326   -1.4055   -0.2863 C   0  0  0  0  0  0  0  0  0  0  0  0
    0.9176   -2.4133    0.7321 C   0  0  0  0  0  0  0  0  0  0  0  0
    0.4128   -2.1734    2.1493 C   0  0  0  0  0  0  0  0  0  0  0  0
   -1.1110   -2.0351    2.1508 C   0  0  0  0  0  0  0  0  0  0  0  0
   -1.6829   -3.3973    1.7761 C   0  0  0  0  0  0  0  0  0  0  0  0
   -1.1875   -4.4126    2.8122 C   0  0  0  0  0  0  0  0  0  0  0  0
   -1.6200   -3.9634    4.2151 C   0  0  0  0  0  0  0  0  0  0  0  0
   -3.1469   -3.9183    4.3000 C   0  0  0  0  0  0  0  0  0  0  0  0
   -3.7449   -5.2824    3.9530 C   0  0  0  0  0  0  0  0  0  0  0  0
   -3.2233   -6.3409    4.9120 C   0  0  0  0  0  0  0  0  0  0  0  0
    0.3524    0.5761    1.5844 P   0  0  1  0  0  0  0  0  0  0  0  0
    1.7670    0.5434    2.1944 O   0  0  0  0  0  0  0  0  0  0  0  0
    0.2847    2.1489    0.9935 O   0  0  0  0  0  0  0  0  0  0  0  0
    0.7097    2.5689   -0.3343 C   0  0  0  0  0  0  0  0  0  0  0  0
    2.2181    2.3718   -0.8776 C   0  0  0  0  0  0  0  0  0  0  0  0
    3.0826    1.0472   -0.9712 C   0  0  0  0  0  0  0  0  0  0  0  0
    2.6783   -0.0620   -2.0399 C   0  0  0  0  0  0  0  0  0  0  0  0
   -0.1076    0.9600    2.8276 H   0  0  0  0  0  0  0  0  0  0  0  0
    0.5185    0.4967   -0.9432 H   0  0  0  0  0  0  0  0  0  0  0  0
    1.9293   -0.3604    0.0979 H   0  0  0  0  0  0  0  0  0  0  0  0
   -0.7571   -1.3510   -0.2858 H   0  0  0  0  0  0  0  0  0  0  0  0
    0.5757   -1.7891   -1.2858 H   0  0  0  0  0  0  0  0  0  0  0  0
    0.6586   -3.4357    0.4200 H   0  0  0  0  0  0  0  0  0  0  0  0
    2.0080   -2.3932    0.7196 H   0  0  0  0  0  0  0  0  0  0  0  0
    0.7966   -2.9479    2.8166 H   0  0  0  0  0  0  0  0  0  0  0  0
    0.8818   -1.3398    2.6532 H   0  0  0  0  0  0  0  0  0  0  0  0
   -1.4671   -1.6531    3.1083 H   0  0  0  0  0  0  0  0  0  0  0  0
   -1.5056   -1.2764    1.4639 H   0  0  0  0  0  0  0  0  0  0  0  0
   -2.7703   -3.3462    1.7146 H   0  0  0  0  0  0  0  0  0  0  0  0
   -1.3729   -3.7015    0.7717 H   0  0  0  0  0  0  0  0  0  0  0  0
   -1.5425   -5.4118    2.5485 H   0  0  0  0  0  0  0  0  0  0  0  0
   -0.1066   -4.5504    2.7850 H   0  0  0  0  0  0  0  0  0  0  0  0
   -1.1819   -4.6216    4.9691 H   0  0  0  0  0  0  0  0  0  0  0  0
   -1.2113   -2.9834    4.4905 H   0  0  0  0  0  0  0  0  0  0  0  0
   -3.4534   -3.6015    5.2993 H   0  0  0  0  0  0  0  0  0  0  0  0
   -3.5558   -3.1579    3.6201 H   0  0  0  0  0  0  0  0  0  0  0  0
   -4.8346   -5.2280    3.9914 H   0  0  0  0  0  0  0  0  0  0  0  0
   -3.5084   -5.5707    2.9220 H   0  0  0  0  0  0  0  0  0  0  0  0
   -3.4899   -6.0714    5.9374 H   0  0  0  0  0  0  0  0  0  0  0  0
   -3.6390   -7.3193    4.6708 H   0  0  0  0  0  0  0  0  0  0  0  0
   -2.1338   -6.4439    4.8658 H   0  0  0  0  0  0  0  0  0  0  0  0
   -0.0413    2.2194   -1.0645 H   0  0  0  0  0  0  0  0  0  0  0  0
    0.5269    3.6516   -0.3524 H   0  0  0  0  0  0  0  0  0  0  0  0
    2.2430    2.7947   -1.8731 H   0  0  0  0  0  0  0  0  0  0  0  0
    2.8118    3.0172   -0.2079 H   0  0  0  0  0  0  0  0  0  0  0  0
    4.1425    1.2492   -1.1865 H   0  0  0  0  0  0  0  0  0  0  0  0
    3.2225    0.7022    0.0537 H   0  0  0  0  0  0  0  0  0  0  0  0
    3.1225    0.0769   -2.9921 H   0  0  0  0  0  0  0  0  0  0  0  0
    2.9466   -1.0808   -1.6618 H   0  0  0  0  0  0  0  0  0  0  0  0
    1.6031   -0.1396   -2.2803 H   0  0  0  0  0  0  0  0  0  0  0  0
  1  2  1  0  0  0  0
  1 12  1  0  0  0  0
  1 20  1  0  0  0  0
  1 21  1  0  0  0  0
  2  3  1  0  0  0  0
  2 22  1  0  0  0  0
  2 23  1  0  0  0  0
  3  4  1  0  0  0  0
  3 24  1  0  0  0  0
  3 25  1  0  0  0  0
  4  5  1  0  0  0  0
  4 26  1  0  0  0  0
  4 27  1  0  0  0  0
  5  6  1  0  0  0  0
  5 28  1  0  0  0  0
  5 29  1  0  0  0  0
  6  7  1  0  0  0  0
  6 30  1  0  0  0  0
  6 31  1  0  0  0  0
  7  8  1  0  0  0  0
  7 32  1  0  0  0  0
  7 33  1  0  0  0  0
  8  9  1  0  0  0  0
  8 34  1  0  0  0  0
  8 35  1  0  0  0  0
  9 10  1  0  0  0  0
  9 36  1  0  0  0  0
  9 37  1  0  0  0  0
 10 11  1  0  0  0  0
 10 38  1  0  0  0  0
 10 39  1  0  0  0  0
 11 40  1  0  0  0  0
 11 41  1  0  0  0  0
 11 42  1  0  0  0  0
 12 13  2  0  0  0  0
 12 14  1  0  0  0  0
 12 19  1  1  0  0  0
 14 15  1  0  0  0  0
 15 16  1  0  0  0  0
 15 43  1  0  0  0  0
 15 44  1  0  0  0  0
 16 17  1  0  0  0  0
 16 45  1  0  0  0  0
 16 46  1  0  0  0  0
 17 18  1  0  0  0  0
 17 47  1  0  0  0  0
 17 48  1  0  0  0  0
 18 49  1  0  0  0  0
 18 50  1  0  0  0  0
 18 51  1  0  0  0  0
M  END
>  <DRUGBANK_ID>
DB02457

>  <SECONDARY_ACCESSION_NUMBERS>
EXPT00797

>  <COMMON_NAME>
Undecyl-Phosphinic Acid Butyl Ester

$$$$
