2RB
 OpenBabel10282417163D

 35 36  0  0  0  0  0  0  0  0999 V2000
    0.9227   -0.1055   -0.0388 C   0  0  0  0  0  0  0  0  0  0  0  0
    0.1952    0.9163    0.6577 O   0  0  0  0  0  0  0  0  0  0  0  0
    0.6371    1.2148    1.9149 C   0  0  0  0  0  0  0  0  0  0  0  0
    1.9579    1.1734    2.2464 C   0  0  0  0  0  0  0  0  0  0  0  0
    2.3448    1.7822    3.4330 C   0  0  0  0  0  0  0  0  0  0  0  0
   -0.2375    1.7685    2.8611 C   0  0  0  0  0  0  0  0  0  0  0  0
    0.2071    2.1752    4.1562 C   0  0  0  0  0  0  0  0  0  0  0  0
    1.5456    2.0949    4.5010 C   0  0  0  0  0  0  0  0  0  0  0  0
    2.0972    2.3048    5.8993 C   0  0  0  0  0  0  0  0  0  0  0  0
    1.2959    2.6974    6.7686 O   0  0  0  0  0  0  0  0  0  0  0  0
    3.4124    1.9933    6.3253 N   0  0  0  0  0  0  0  0  0  0  0  0
    4.5644    1.9008    5.5428 N   0  0  0  0  0  0  0  0  0  0  0  0
    4.5161    0.9398    4.6766 C   0  0  0  0  0  0  0  0  0  0  0  0
    5.4364    0.6917    3.5389 C   0  0  0  0  0  0  0  0  0  0  0  0
    6.1294   -0.4824    3.8016 C   0  0  0  0  0  0  0  0  0  0  0  0
    6.8830   -1.0844    2.8087 C   0  0  0  0  0  0  0  0  0  0  0  0
    7.8549   -2.6359    3.2714 Br  0  0  0  0  0  0  0  0  0  0  0  0
    6.8846   -0.5788    1.5095 C   0  0  0  0  0  0  0  0  0  0  0  0
    7.6783   -1.1364    0.5455 O   0  0  0  0  0  0  0  0  0  0  0  0
    6.0876    0.5179    1.1892 C   0  0  0  0  0  0  0  0  0  0  0  0
    5.8411    0.9826   -0.6540 Br  0  0  0  0  0  0  0  0  0  0  0  0
    5.4118    1.2139    2.2109 C   0  0  0  0  0  0  0  0  0  0  0  0
    4.7411    2.3237    1.7551 O   0  0  0  0  0  0  0  0  0  0  0  0
    0.5910   -0.1152   -1.0812 H   0  0  0  0  0  0  0  0  0  0  0  0
    0.6879   -1.0712    0.4159 H   0  0  0  0  0  0  0  0  0  0  0  0
    2.0107    0.0306   -0.0809 H   0  0  0  0  0  0  0  0  0  0  0  0
    2.7252    0.8067    1.5762 H   0  0  0  0  0  0  0  0  0  0  0  0
    3.3424    2.1212    3.4953 H   0  0  0  0  0  0  0  0  0  0  0  0
   -1.2840    1.8849    2.6007 H   0  0  0  0  0  0  0  0  0  0  0  0
   -0.4932    2.6065    4.8650 H   0  0  0  0  0  0  0  0  0  0  0  0
    3.5851    2.2554    7.2997 H   0  0  0  0  0  0  0  0  0  0  0  0
    3.6649    0.2310    4.7110 H   0  0  0  0  0  0  0  0  0  0  0  0
    6.0470   -0.9333    4.7889 H   0  0  0  0  0  0  0  0  0  0  0  0
    8.2977   -1.7441    0.9869 H   0  0  0  0  0  0  0  0  0  0  0  0
    4.4993    2.9812    2.4238 H   0  0  0  0  0  0  0  0  0  0  0  0
  1  2  1  0  0  0  0
  1 24  1  0  0  0  0
  1 25  1  0  0  0  0
  1 26  1  0  0  0  0
  2  3  1  0  0  0  0
  3  4  2  0  0  0  0
  3  6  1  0  0  0  0
  4  5  1  0  0  0  0
  4 27  1  0  0  0  0
  5  8  2  0  0  0  0
  5 28  1  0  0  0  0
  6  7  2  0  0  0  0
  6 29  1  0  0  0  0
  7  8  1  0  0  0  0
  7 30  1  0  0  0  0
  8  9  1  0  0  0  0
  9 10  2  0  0  0  0
  9 11  1  0  0  0  0
 11 12  1  0  0  0  0
 11 31  1  0  0  0  0
 12 13  2  0  0  0  0
 13 14  1  0  0  0  0
 13 32  1  0  0  0  0
 14 15  2  0  0  0  0
 14 22  1  0  0  0  0
 15 16  1  0  0  0  0
 15 33  1  0  0  0  0
 16 17  1  0  0  0  0
 16 18  2  0  0  0  0
 18 19  1  0  0  0  0
 18 20  1  0  0  0  0
 19 34  1  0  0  0  0
 20 21  1  0  0  0  0
 20 22  2  0  0  0  0
 22 23  1  0  0  0  0
 23 35  1  0  0  0  0
M  END
>  <DRUGBANK_ID>
DB06978

>  <COMMON_NAME>
N'-[(1E)-(3,5-dibromo-2,4-dihydroxyphenyl)methylidene]-4-methoxybenzohydrazide

$$$$
