
 OpenBabel10282417173D

 59 62  0  0  1  0  0  0  0  0999 V2000
    7.0926   -7.4018    1.0497 C   0  0  0  0  0  0  0  0  0  0  0  0
    6.2731   -7.6624    2.0727 N   0  0  0  0  0  0  0  0  0  0  0  0
    5.4454   -6.6789    2.4557 C   0  0  0  0  0  0  0  0  0  0  0  0
    5.4762   -5.4345    1.8150 C   0  0  0  0  0  0  0  0  0  0  0  0
    6.3597   -5.2603    0.7508 C   0  0  0  0  0  0  0  0  0  0  0  0
    7.1738   -6.2516    0.3609 N   0  0  0  0  0  0  0  0  0  0  0  0
    4.6379   -4.3844    2.1914 C   0  0  0  0  0  0  0  0  0  0  0  0
    4.6009   -3.1597    1.5477 C   0  0  0  0  0  0  0  0  0  0  0  0
    5.5285   -2.9348    0.5266 C   0  0  0  0  0  0  0  0  0  0  0  0
    6.3721   -4.0063    0.1236 C   0  0  0  0  0  0  0  0  0  0  0  0
    4.5471   -6.9260    3.5187 N   0  0  0  0  0  0  0  0  0  0  0  0
    3.6129   -2.2356    1.9470 N   0  0  0  0  0  0  0  0  0  0  0  0
    2.8414   -2.2421    3.0833 C   0  0  0  0  0  0  0  0  0  0  0  0
    2.0895   -0.9797    3.3123 C   0  0  0  0  0  0  0  0  0  0  0  0
    1.2414   -0.9424    4.3513 C   0  0  0  0  0  0  0  0  0  0  0  0
    4.4310   -8.1115    4.2526 C   0  0  0  0  0  0  0  0  0  0  0  0
    3.2300   -8.8323    4.2722 C   0  0  0  0  0  0  0  0  0  0  0  0
    3.1749  -10.0634    4.9290 C   0  0  0  0  0  0  0  0  0  0  0  0
    4.3024  -10.5529    5.5867 C   0  0  0  0  0  0  0  0  0  0  0  0
    5.4874   -9.8285    5.5967 C   0  0  0  0  0  0  0  0  0  0  0  0
    5.5500   -8.6150    4.9229 C   0  0  0  0  0  0  0  0  0  0  0  0
    4.2715  -11.7366    6.2156 F   0  0  0  0  0  0  0  0  0  0  0  0
    1.7191  -10.9840    4.8930 Cl  0  0  0  0  0  0  0  0  0  0  0  0
    2.7399   -3.1685    3.8934 O   0  0  0  0  0  0  0  0  0  0  0  0
    0.3688    0.2185    4.7003 C   0  0  0  0  0  0  0  0  0  0  0  0
   -1.0503   -0.1339    4.5660 N   0  0  0  0  0  0  0  0  0  0  0  0
   -1.8831    1.0021    4.9672 C   0  0  0  0  0  0  0  0  0  0  0  0
   -1.3806   -0.5163    3.1898 C   0  0  0  0  0  0  0  0  0  0  0  0
    5.8276   -1.7462   -0.0807 O   0  0  0  0  0  0  0  0  0  0  0  0
    4.9843   -0.5988   -0.0219 C   0  0  1  0  0  0  0  0  0  0  0  0
    4.9468    0.2170    1.2716 C   0  0  0  0  0  0  0  0  0  0  0  0
    4.5769    1.5962    0.7913 C   0  0  0  0  0  0  0  0  0  0  0  0
    5.1275    1.7382   -0.5126 O   0  0  0  0  0  0  0  0  0  0  0  0
    5.5780    0.4499   -0.9512 C   0  0  0  0  0  0  0  0  0  0  0  0
    7.7551   -8.2089    0.7574 H   0  0  0  0  0  0  0  0  0  0  0  0
    3.9645   -4.5534    3.0089 H   0  0  0  0  0  0  0  0  0  0  0  0
    7.0729   -3.8654   -0.7022 H   0  0  0  0  0  0  0  0  0  0  0  0
    3.8105   -6.2593    3.6982 H   0  0  0  0  0  0  0  0  0  0  0  0
    3.4098   -1.5070    1.2938 H   0  0  0  0  0  0  0  0  0  0  0  0
    2.2131   -0.1157    2.6730 H   0  0  0  0  0  0  0  0  0  0  0  0
    1.1160   -1.8273    4.9732 H   0  0  0  0  0  0  0  0  0  0  0  0
    2.3573   -8.4644    3.7379 H   0  0  0  0  0  0  0  0  0  0  0  0
    6.3609  -10.2144    6.1087 H   0  0  0  0  0  0  0  0  0  0  0  0
    6.4770   -8.0461    4.9107 H   0  0  0  0  0  0  0  0  0  0  0  0
    0.5874    0.4836    5.7429 H   0  0  0  0  0  0  0  0  0  0  0  0
    0.6144    1.0948    4.0874 H   0  0  0  0  0  0  0  0  0  0  0  0
   -1.7036    1.8794    4.3347 H   0  0  0  0  0  0  0  0  0  0  0  0
   -2.9456    0.7431    4.9004 H   0  0  0  0  0  0  0  0  0  0  0  0
   -1.6900    1.2816    6.0086 H   0  0  0  0  0  0  0  0  0  0  0  0
   -1.1626    0.2920    2.4831 H   0  0  0  0  0  0  0  0  0  0  0  0
   -0.8246   -1.4066    2.8758 H   0  0  0  0  0  0  0  0  0  0  0  0
   -2.4387   -0.7835    3.1053 H   0  0  0  0  0  0  0  0  0  0  0  0
    3.9849   -0.8525   -0.4023 H   0  0  0  0  0  0  0  0  0  0  0  0
    5.8916    0.1635    1.8177 H   0  0  0  0  0  0  0  0  0  0  0  0
    4.1920   -0.0211    2.0094 H   0  0  0  0  0  0  0  0  0  0  0  0
    3.4857    1.6943    0.7078 H   0  0  0  0  0  0  0  0  0  0  0  0
    4.9333    2.3735    1.4717 H   0  0  0  0  0  0  0  0  0  0  0  0
    6.6718    0.4312   -0.9060 H   0  0  0  0  0  0  0  0  0  0  0  0
    5.2744    0.2841   -1.9880 H   0  0  0  0  0  0  0  0  0  0  0  0
  1  2  1  0  0  0  0
  1  6  2  0  0  0  0
  1 35  1  0  0  0  0
  2  3  2  0  0  0  0
  3  4  1  0  0  0  0
  3 11  1  0  0  0  0
  4  5  1  0  0  0  0
  4  7  2  0  0  0  0
  5  6  1  0  0  0  0
  5 10  2  0  0  0  0
  7  8  1  0  0  0  0
  7 36  1  0  0  0  0
  8  9  2  0  0  0  0
  8 12  1  0  0  0  0
  9 10  1  0  0  0  0
  9 29  1  0  0  0  0
 10 37  1  0  0  0  0
 11 16  1  0  0  0  0
 11 38  1  0  0  0  0
 12 13  1  0  0  0  0
 12 39  1  0  0  0  0
 13 14  1  0  0  0  0
 13 24  2  0  0  0  0
 14 15  2  0  0  0  0
 14 40  1  0  0  0  0
 15 25  1  0  0  0  0
 15 41  1  0  0  0  0
 16 17  2  0  0  0  0
 16 21  1  0  0  0  0
 17 18  1  0  0  0  0
 17 42  1  0  0  0  0
 18 19  2  0  0  0  0
 18 23  1  0  0  0  0
 19 20  1  0  0  0  0
 19 22  1  0  0  0  0
 20 21  2  0  0  0  0
 20 43  1  0  0  0  0
 21 44  1  0  0  0  0
 25 26  1  0  0  0  0
 25 45  1  0  0  0  0
 25 46  1  0  0  0  0
 26 27  1  0  0  0  0
 26 28  1  0  0  0  0
 27 47  1  0  0  0  0
 27 48  1  0  0  0  0
 27 49  1  0  0  0  0
 28 50  1  0  0  0  0
 28 51  1  0  0  0  0
 28 52  1  0  0  0  0
 30 31  1  0  0  0  0
 30 34  1  0  0  0  0
 30 53  1  6  0  0  0
 30 29  1  0  0  0  0
 31 32  1  0  0  0  0
 31 54  1  0  0  0  0
 31 55  1  0  0  0  0
 32 33  1  0  0  0  0
 32 56  1  0  0  0  0
 32 57  1  0  0  0  0
 33 34  1  0  0  0  0
 34 58  1  0  0  0  0
 34 59  1  0  0  0  0
M  END
>  <DRUGBANK_ID>
DB08916

>  <COMMON_NAME>
Afatinib

>  <CAS_NUMBER>
850140-72-6

>  <UNII>
41UD74L59M

>  <SYNONYMS>
Afatinib; Afatinibum

$$$$
