9IP
 OpenBabel10282417163D

 41 43  0  0  0  0  0  0  0  0999 V2000
    0.9064   -0.0255    0.0632 C   0  0  0  0  0  0  0  0  0  0  0  0
    0.3646    1.1809    0.5907 O   0  0  0  0  0  0  0  0  0  0  0  0
    0.7866    1.5128    1.8448 C   0  0  0  0  0  0  0  0  0  0  0  0
   -0.1356    2.1301    2.6801 C   0  0  0  0  0  0  0  0  0  0  0  0
    0.1404    2.5839    3.9235 N   0  0  0  0  0  0  0  0  0  0  0  0
    1.4155    2.4224    4.3450 C   0  0  0  0  0  0  0  0  0  0  0  0
    2.4271    1.8160    3.5992 C   0  0  0  0  0  0  0  0  0  0  0  0
    2.0901    1.3613    2.3171 C   0  0  0  0  0  0  0  0  0  0  0  0
    3.7931    1.7296    4.1248 C   0  0  0  0  0  0  0  0  0  0  0  0
    4.0578    1.0875    5.3433 C   0  0  0  0  0  0  0  0  0  0  0  0
    5.3370    1.1153    5.9005 C   0  0  0  0  0  0  0  0  0  0  0  0
    6.3775    1.7492    5.2244 C   0  0  0  0  0  0  0  0  0  0  0  0
    6.1453    2.3910    4.0001 C   0  0  0  0  0  0  0  0  0  0  0  0
    7.2573    3.1096    3.2741 C   0  0  0  0  0  0  0  0  0  0  0  0
    7.7717    4.2016    4.0785 N   0  0  0  0  0  0  0  0  0  0  0  0
    9.0959    4.2069    4.5150 C   0  0  0  0  0  0  0  0  0  0  0  0
   10.1346    3.9056    3.6308 C   0  0  0  0  0  0  0  0  0  0  0  0
   11.4538    3.9258    4.0687 C   0  0  0  0  0  0  0  0  0  0  0  0
   11.6880    4.2008    5.4008 C   0  0  0  0  0  0  0  0  0  0  0  0
   10.7147    4.4437    6.3116 N   0  0  0  0  0  0  0  0  0  0  0  0
    9.4408    4.4523    5.8600 C   0  0  0  0  0  0  0  0  0  0  0  0
    8.4541    4.8383    6.7789 N   0  0  0  0  0  0  0  0  0  0  0  0
    4.8526    2.3608    3.4550 C   0  0  0  0  0  0  0  0  0  0  0  0
    0.5200   -0.1434   -0.9538 H   0  0  0  0  0  0  0  0  0  0  0  0
    0.5720   -0.8831    0.6558 H   0  0  0  0  0  0  0  0  0  0  0  0
    1.9972   -0.0043   -0.0098 H   0  0  0  0  0  0  0  0  0  0  0  0
   -1.1628    2.2796    2.3573 H   0  0  0  0  0  0  0  0  0  0  0  0
    1.6202    2.8369    5.3299 H   0  0  0  0  0  0  0  0  0  0  0  0
    2.8634    0.9261    1.6948 H   0  0  0  0  0  0  0  0  0  0  0  0
    3.2627    0.5667    5.8740 H   0  0  0  0  0  0  0  0  0  0  0  0
    5.5159    0.6562    6.8696 H   0  0  0  0  0  0  0  0  0  0  0  0
    7.3751    1.7502    5.6607 H   0  0  0  0  0  0  0  0  0  0  0  0
    8.0176    2.3687    2.9975 H   0  0  0  0  0  0  0  0  0  0  0  0
    6.8816    3.5398    2.3393 H   0  0  0  0  0  0  0  0  0  0  0  0
    7.1126    4.7486    4.6197 H   0  0  0  0  0  0  0  0  0  0  0  0
    9.9243    3.7139    2.5847 H   0  0  0  0  0  0  0  0  0  0  0  0
   12.2688    3.7479    3.3757 H   0  0  0  0  0  0  0  0  0  0  0  0
   12.7062    4.2490    5.7823 H   0  0  0  0  0  0  0  0  0  0  0  0
    8.8218    4.7866    7.7215 H   0  0  0  0  0  0  0  0  0  0  0  0
    7.5661    4.3769    6.6364 H   0  0  0  0  0  0  0  0  0  0  0  0
    4.6596    2.8672    2.5097 H   0  0  0  0  0  0  0  0  0  0  0  0
  1  2  1  0  0  0  0
  1 24  1  0  0  0  0
  1 25  1  0  0  0  0
  1 26  1  0  0  0  0
  2  3  1  0  0  0  0
  3  4  2  0  0  0  0
  3  8  1  0  0  0  0
  4  5  1  0  0  0  0
  4 27  1  0  0  0  0
  5  6  2  0  0  0  0
  6  7  1  0  0  0  0
  6 28  1  0  0  0  0
  7  8  2  0  0  0  0
  7  9  1  0  0  0  0
  8 29  1  0  0  0  0
  9 23  2  0  0  0  0
  9 10  1  0  0  0  0
 10 11  2  0  0  0  0
 10 30  1  0  0  0  0
 11 12  1  0  0  0  0
 11 31  1  0  0  0  0
 12 13  2  0  0  0  0
 12 32  1  0  0  0  0
 13 23  1  0  0  0  0
 13 14  1  0  0  0  0
 14 15  1  0  0  0  0
 14 33  1  0  0  0  0
 14 34  1  0  0  0  0
 15 16  1  0  0  0  0
 15 35  1  0  0  0  0
 16 21  1  0  0  0  0
 16 17  2  0  0  0  0
 17 18  1  0  0  0  0
 17 36  1  0  0  0  0
 18 19  2  0  0  0  0
 18 37  1  0  0  0  0
 19 20  1  0  0  0  0
 19 38  1  0  0  0  0
 20 21  2  0  0  0  0
 21 22  1  0  0  0  0
 22 39  1  0  0  0  0
 22 40  1  0  0  0  0
 23 41  1  0  0  0  0
M  END
>  <DRUGBANK_ID>
DB07303

>  <COMMON_NAME>
N~3~-[3-(5-METHOXYPYRIDIN-3-YL)BENZYL]PYRIDINE-2,3-DIAMINE

$$$$
