
 OpenBabel10282417153D

 38 38  0  0  0  0  0  0  0  0999 V2000
    0.9668    0.0043   -0.1306 C   0  0  0  0  0  0  0  0  0  0  0  0
    0.3967   -0.2288    1.2690 C   0  0  0  0  0  0  0  0  0  0  0  0
    1.0285    0.5607    2.3324 N   0  0  0  0  0  0  0  0  0  0  0  0
    0.4905    0.2606    3.6689 C   0  0  0  0  0  0  0  0  0  0  0  0
    0.7773   -1.1241    4.2521 C   0  0  0  0  0  0  0  0  0  0  0  0
    2.4919    0.6105    2.2942 C   0  0  0  0  0  0  0  0  0  0  0  0
    3.2749   -0.6854    2.5238 C   0  0  0  0  0  0  0  0  0  0  0  0
    2.8812   -1.8430    1.7225 N   0  0  0  0  0  0  0  0  0  0  0  0
    3.6705   -2.6221    0.9418 C   0  0  0  0  0  0  0  0  0  0  0  0
    3.1932   -3.4242    0.1360 O   0  0  0  0  0  0  0  0  0  0  0  0
    5.1151   -2.4823    1.1152 C   0  0  0  0  0  0  0  0  0  0  0  0
    5.6478   -2.4198    2.4116 C   0  0  0  0  0  0  0  0  0  0  0  0
    6.9876   -2.1243    2.5931 C   0  0  0  0  0  0  0  0  0  0  0  0
    7.8296   -2.0148    1.4861 C   0  0  0  0  0  0  0  0  0  0  0  0
    7.2751   -2.1174    0.1885 C   0  0  0  0  0  0  0  0  0  0  0  0
    5.9171   -2.3402   -0.0055 C   0  0  0  0  0  0  0  0  0  0  0  0
    8.2813   -1.9910   -1.2103 Cl  0  0  0  0  0  0  0  0  0  0  0  0
    9.1564   -1.6475    1.6952 N   0  0  0  0  0  0  0  0  0  0  0  0
    0.6977    0.9997   -0.4926 H   0  0  0  0  0  0  0  0  0  0  0  0
    0.5744   -0.7469   -0.8219 H   0  0  0  0  0  0  0  0  0  0  0  0
    2.0560   -0.0902   -0.1851 H   0  0  0  0  0  0  0  0  0  0  0  0
   -0.6782   -0.0199    1.2423 H   0  0  0  0  0  0  0  0  0  0  0  0
    0.4357   -1.2929    1.4876 H   0  0  0  0  0  0  0  0  0  0  0  0
    0.8605    1.0171    4.3737 H   0  0  0  0  0  0  0  0  0  0  0  0
   -0.5961    0.3976    3.6409 H   0  0  0  0  0  0  0  0  0  0  0  0
    1.7979   -1.2128    4.6172 H   0  0  0  0  0  0  0  0  0  0  0  0
    0.1701   -1.3117    5.1385 H   0  0  0  0  0  0  0  0  0  0  0  0
    0.5860   -1.9268    3.5357 H   0  0  0  0  0  0  0  0  0  0  0  0
    2.8313    1.0438    1.3446 H   0  0  0  0  0  0  0  0  0  0  0  0
    2.8438    1.3457    3.0314 H   0  0  0  0  0  0  0  0  0  0  0  0
    4.3122   -0.4172    2.3358 H   0  0  0  0  0  0  0  0  0  0  0  0
    3.2637   -1.0044    3.5611 H   0  0  0  0  0  0  0  0  0  0  0  0
    1.9315   -2.1815    1.7343 H   0  0  0  0  0  0  0  0  0  0  0  0
    5.0042   -2.5241    3.2828 H   0  0  0  0  0  0  0  0  0  0  0  0
    7.3627   -1.9878    3.6033 H   0  0  0  0  0  0  0  0  0  0  0  0
    5.4792   -2.3860   -0.9993 H   0  0  0  0  0  0  0  0  0  0  0  0
    9.7859   -1.7538    0.9057 H   0  0  0  0  0  0  0  0  0  0  0  0
    9.5527   -1.7314    2.6227 H   0  0  0  0  0  0  0  0  0  0  0  0
  1  2  1  0  0  0  0
  1 19  1  0  0  0  0
  1 20  1  0  0  0  0
  1 21  1  0  0  0  0
  2  3  1  0  0  0  0
  2 22  1  0  0  0  0
  2 23  1  0  0  0  0
  3  4  1  0  0  0  0
  3  6  1  0  0  0  0
  4  5  1  0  0  0  0
  4 24  1  0  0  0  0
  4 25  1  0  0  0  0
  5 26  1  0  0  0  0
  5 27  1  0  0  0  0
  5 28  1  0  0  0  0
  6  7  1  0  0  0  0
  6 29  1  0  0  0  0
  6 30  1  0  0  0  0
  7  8  1  0  0  0  0
  7 31  1  0  0  0  0
  7 32  1  0  0  0  0
  8  9  1  0  0  0  0
  8 33  1  0  0  0  0
  9 10  2  0  0  0  0
  9 11  1  0  0  0  0
 11 12  2  0  0  0  0
 11 16  1  0  0  0  0
 12 13  1  0  0  0  0
 12 34  1  0  0  0  0
 13 14  2  0  0  0  0
 13 35  1  0  0  0  0
 14 15  1  0  0  0  0
 14 18  1  0  0  0  0
 15 16  2  0  0  0  0
 15 17  1  0  0  0  0
 16 36  1  0  0  0  0
 18 37  1  0  0  0  0
 18 38  1  0  0  0  0
M  END
>  <DRUGBANK_ID>
DB06421

>  <COMMON_NAME>
Declopramide

>  <CAS_NUMBER>
891-60-1

>  <UNII>
916GJF577D

>  <SYNONYMS>
Declopramide

$$$$
