
 OpenBabel10282417173D

 48 52  0  0  0  0  0  0  0  0999 V2000
    6.1266    1.5578   -0.1967 N   0  0  0  0  0  0  0  0  0  0  0  0
    7.3217    0.8595   -0.5443 C   0  0  0  0  0  0  0  0  0  0  0  0
    7.3716   -0.5314   -0.3500 C   0  0  0  0  0  0  0  0  0  0  0  0
    5.1458    0.8854    0.5173 C   0  0  0  0  0  0  0  0  0  0  0  0
    8.4960    1.5284   -0.8845 C   0  0  0  0  0  0  0  0  0  0  0  0
    8.5995   -1.1868   -0.4742 C   0  0  0  0  0  0  0  0  0  0  0  0
    6.1201   -1.2646   -0.0939 C   0  0  0  0  0  0  0  0  0  0  0  0
    5.0119   -0.5706    0.2364 C   0  0  0  0  0  0  0  0  0  0  0  0
    9.7642   -0.4394   -0.4489 C   0  0  0  0  0  0  0  0  0  0  0  0
    9.7134    0.9306   -0.5810 C   0  0  0  0  0  0  0  0  0  0  0  0
    4.3349    1.4500    1.2315 O   0  0  0  0  0  0  0  0  0  0  0  0
    6.0302    3.0132   -0.1805 C   0  0  0  0  0  0  0  0  0  0  0  0
    6.5869    3.6198    1.1078 C   0  0  0  0  0  0  0  0  0  0  0  0
    8.0649    3.4560    1.1739 C   0  0  0  0  0  0  0  0  0  0  0  0
    8.7005    2.3584    2.0250 C   0  0  0  0  0  0  0  0  0  0  0  0
    8.8597    3.8032    2.3775 C   0  0  0  0  0  0  0  0  0  0  0  0
    3.4981    0.1895   -2.4078 S   0  0  0  0  0  0  0  0  0  0  0  0
    3.6832   -1.2414   -1.5793 N   0  0  0  0  0  0  0  0  0  0  0  0
    3.6613   -1.0064   -0.2954 C   0  0  0  0  0  0  0  0  0  0  0  0
    2.4191   -0.6478    0.2361 N   0  0  0  0  0  0  0  0  0  0  0  0
    2.0230    0.6901   -0.1389 C   0  0  0  0  0  0  0  0  0  0  0  0
    2.6156    1.3077   -1.2562 C   0  0  0  0  0  0  0  0  0  0  0  0
    2.7547    2.7088   -1.2446 C   0  0  0  0  0  0  0  0  0  0  0  0
    2.2316    3.4564   -0.1608 C   0  0  0  0  0  0  0  0  0  0  0  0
    1.4648    2.8305    0.8254 C   0  0  0  0  0  0  0  0  0  0  0  0
    1.2955    1.4459    0.7929 C   0  0  0  0  0  0  0  0  0  0  0  0
    2.6442   -0.0770   -3.5203 O   0  0  0  0  0  0  0  0  0  0  0  0
    4.8272    0.7733   -2.6146 O   0  0  0  0  0  0  0  0  0  0  0  0
   10.9492   -1.0394   -0.2961 F   0  0  0  0  0  0  0  0  0  0  0  0
    6.1809   -2.6085   -0.3961 O   0  0  0  0  0  0  0  0  0  0  0  0
    8.4986    2.5693   -1.1735 H   0  0  0  0  0  0  0  0  0  0  0  0
    8.6630   -2.2664   -0.5150 H   0  0  0  0  0  0  0  0  0  0  0  0
   10.5908    1.5365   -0.3653 H   0  0  0  0  0  0  0  0  0  0  0  0
    6.4360    3.4442   -1.1039 H   0  0  0  0  0  0  0  0  0  0  0  0
    4.9750    3.2934   -0.1947 H   0  0  0  0  0  0  0  0  0  0  0  0
    6.3529    4.6889    1.1104 H   0  0  0  0  0  0  0  0  0  0  0  0
    6.0917    3.1767    1.9801 H   0  0  0  0  0  0  0  0  0  0  0  0
    8.5107    3.8438    0.2680 H   0  0  0  0  0  0  0  0  0  0  0  0
    8.0432    1.6917    2.5749 H   0  0  0  0  0  0  0  0  0  0  0  0
    9.6301    1.8613    1.7690 H   0  0  0  0  0  0  0  0  0  0  0  0
    9.8166    4.2577    2.1404 H   0  0  0  0  0  0  0  0  0  0  0  0
    8.3372    4.1921    3.2316 H   0  0  0  0  0  0  0  0  0  0  0  0
    1.6606   -1.2460   -0.0982 H   0  0  0  0  0  0  0  0  0  0  0  0
    3.3860    3.2306   -1.9621 H   0  0  0  0  0  0  0  0  0  0  0  0
    2.4745    4.5140   -0.0298 H   0  0  0  0  0  0  0  0  0  0  0  0
    1.0999    3.3979    1.6829 H   0  0  0  0  0  0  0  0  0  0  0  0
    0.7661    0.9605    1.6063 H   0  0  0  0  0  0  0  0  0  0  0  0
    5.2927   -2.9984   -0.3681 H   0  0  0  0  0  0  0  0  0  0  0  0
  1  2  1  0  0  0  0
  1  4  1  0  0  0  0
  1 12  1  0  0  0  0
  2  3  2  0  0  0  0
  2  5  1  0  0  0  0
  3  6  1  0  0  0  0
  3  7  1  0  0  0  0
  4  8  1  0  0  0  0
  4 11  2  0  0  0  0
  5 10  2  0  0  0  0
  5 31  1  0  0  0  0
  6  9  2  0  0  0  0
  6 32  1  0  0  0  0
  7  8  2  0  0  0  0
  7 30  1  0  0  0  0
  8 19  1  0  0  0  0
  9 10  1  0  0  0  0
  9 29  1  0  0  0  0
 10 33  1  0  0  0  0
 12 13  1  0  0  0  0
 12 34  1  0  0  0  0
 12 35  1  0  0  0  0
 13 14  1  0  0  0  0
 13 36  1  0  0  0  0
 13 37  1  0  0  0  0
 14 15  1  0  0  0  0
 14 16  1  0  0  0  0
 14 38  1  0  0  0  0
 15 16  1  0  0  0  0
 15 39  1  0  0  0  0
 15 40  1  0  0  0  0
 16 41  1  0  0  0  0
 16 42  1  0  0  0  0
 17 18  1  0  0  0  0
 17 22  1  0  0  0  0
 17 27  2  0  0  0  0
 17 28  2  0  0  0  0
 18 19  2  0  0  0  0
 19 20  1  0  0  0  0
 20 21  1  0  0  0  0
 20 43  1  0  0  0  0
 21 22  2  0  0  0  0
 21 26  1  0  0  0  0
 22 23  1  0  0  0  0
 23 24  2  0  0  0  0
 23 44  1  0  0  0  0
 24 25  1  0  0  0  0
 24 45  1  0  0  0  0
 25 26  2  0  0  0  0
 25 46  1  0  0  0  0
 26 47  1  0  0  0  0
 30 48  1  0  0  0  0
M  END
>  <DRUGBANK_ID>
DB08278

>  <COMMON_NAME>
1-(2-cyclopropylethyl)-3-(1,1-dioxo-2H-1,2,4-benzothiadiazin-3-yl)-6-fluoro-4-hydroxy-2(1H)-quinolinone

>  <CAS_NUMBER>
477931-14-9

$$$$
