RDE
 OpenBabel10282417173D

 47 48  0  0  0  0  0  0  0  0999 V2000
    0.9042   -0.0354    0.0026 C   0  0  0  0  0  0  0  0  0  0  0  0
    0.4351   -0.8750    1.0430 O   0  0  0  0  0  0  0  0  0  0  0  0
    0.8679   -2.1738    1.0081 C   0  0  0  0  0  0  0  0  0  0  0  0
    2.1903   -2.5755    0.7264 C   0  0  0  0  0  0  0  0  0  0  0  0
    3.1434   -1.6287    0.4793 O   0  0  0  0  0  0  0  0  0  0  0  0
    4.4701   -2.0816    0.2427 C   0  0  0  0  0  0  0  0  0  0  0  0
    2.5198   -3.9212    0.7524 C   0  0  0  0  0  0  0  0  0  0  0  0
    1.6728   -4.8454    1.3350 C   0  0  0  0  0  0  0  0  0  0  0  0
    2.1161   -6.1843    1.1475 N   0  0  0  0  0  0  0  0  0  0  0  0
    0.3962   -4.3865    1.7895 C   0  0  0  0  0  0  0  0  0  0  0  0
   -0.5351   -4.9953    2.6320 O   0  0  0  0  0  0  0  0  0  0  0  0
   -0.5990   -6.3689    2.4942 C   0  0  0  0  0  0  0  0  0  0  0  0
   -0.0685   -3.1137    1.4485 C   0  0  0  0  0  0  0  0  0  0  0  0
   -1.5699   -2.8718    1.5194 C   0  0  0  0  0  0  0  0  0  0  0  0
   -2.3940   -3.6013    0.3951 C   0  0  0  0  0  0  0  0  0  0  0  0
   -2.3082   -5.1045    0.3163 O   0  0  0  0  0  0  0  0  0  0  0  0
   -1.2492   -5.7100   -0.3763 C   0  0  0  0  0  0  0  0  0  0  0  0
   -0.4490   -5.0879   -1.0198 O   0  0  0  0  0  0  0  0  0  0  0  0
   -1.1599   -7.3021   -0.2326 C   0  0  0  0  0  0  0  0  0  0  0  0
   -0.0777   -8.0709    0.3821 C   0  0  0  0  0  0  0  0  0  0  0  0
   -0.0452   -9.4215    0.6626 C   0  0  0  0  0  0  0  0  0  0  0  0
    1.1969  -10.0921    1.6791 Cl  0  0  0  0  0  0  0  0  0  0  0  0
   -1.0638  -10.1525    0.1527 C   0  0  0  0  0  0  0  0  0  0  0  0
   -0.9983  -11.5085    0.2663 O   0  0  0  0  0  0  0  0  0  0  0  0
   -2.1354   -9.4915   -0.4885 C   0  0  0  0  0  0  0  0  0  0  0  0
   -2.2157   -8.0780   -0.6337 C   0  0  0  0  0  0  0  0  0  0  0  0
   -3.3487   -7.5353   -1.1697 O   0  0  0  0  0  0  0  0  0  0  0  0
    0.4837    0.9562    0.1818 H   0  0  0  0  0  0  0  0  0  0  0  0
    0.5560   -0.3988   -0.9679 H   0  0  0  0  0  0  0  0  0  0  0  0
    1.9838    0.1055    0.0047 H   0  0  0  0  0  0  0  0  0  0  0  0
    4.8664   -2.6441    1.0974 H   0  0  0  0  0  0  0  0  0  0  0  0
    4.5136   -2.6768   -0.6764 H   0  0  0  0  0  0  0  0  0  0  0  0
    5.0958   -1.2000    0.1023 H   0  0  0  0  0  0  0  0  0  0  0  0
    3.4850   -4.2788    0.4111 H   0  0  0  0  0  0  0  0  0  0  0  0
    1.7395   -6.4977    0.2477 H   0  0  0  0  0  0  0  0  0  0  0  0
    3.1202   -6.2580    0.9801 H   0  0  0  0  0  0  0  0  0  0  0  0
   -0.1904   -6.4148    1.5359 H   0  0  0  0  0  0  0  0  0  0  0  0
    0.0471   -6.9260    3.1602 H   0  0  0  0  0  0  0  0  0  0  0  0
   -1.5971   -6.8172    2.3698 H   0  0  0  0  0  0  0  0  0  0  0  0
   -1.9493   -3.1719    2.5060 H   0  0  0  0  0  0  0  0  0  0  0  0
   -1.7757   -1.7931    1.4767 H   0  0  0  0  0  0  0  0  0  0  0  0
   -3.4543   -3.3540    0.5953 H   0  0  0  0  0  0  0  0  0  0  0  0
   -2.1786   -3.1620   -0.5859 H   0  0  0  0  0  0  0  0  0  0  0  0
    0.7454   -7.6867    0.9500 H   0  0  0  0  0  0  0  0  0  0  0  0
   -0.1440  -11.7060    0.7121 H   0  0  0  0  0  0  0  0  0  0  0  0
   -2.9369  -10.0960   -0.8875 H   0  0  0  0  0  0  0  0  0  0  0  0
   -3.3479   -6.5622   -1.0624 H   0  0  0  0  0  0  0  0  0  0  0  0
  1  2  1  0  0  0  0
  1 28  1  0  0  0  0
  1 29  1  0  0  0  0
  1 30  1  0  0  0  0
  2  3  1  0  0  0  0
  3  4  1  0  0  0  0
  3 13  2  0  0  0  0
  4  5  1  0  0  0  0
  4  7  2  0  0  0  0
  5  6  1  0  0  0  0
  6 31  1  0  0  0  0
  6 32  1  0  0  0  0
  6 33  1  0  0  0  0
  7  8  1  0  0  0  0
  7 34  1  0  0  0  0
  8  9  1  0  0  0  0
  8 10  2  0  0  0  0
  9 35  1  0  0  0  0
  9 36  1  0  0  0  0
 10 11  1  0  0  0  0
 10 13  1  0  0  0  0
 11 12  1  0  0  0  0
 12 37  1  0  0  0  0
 12 38  1  0  0  0  0
 12 39  1  0  0  0  0
 13 14  1  0  0  0  0
 14 15  1  0  0  0  0
 14 40  1  0  0  0  0
 14 41  1  0  0  0  0
 15 16  1  0  0  0  0
 15 42  1  0  0  0  0
 15 43  1  0  0  0  0
 16 17  1  0  0  0  0
 17 18  2  0  0  0  0
 17 19  1  0  0  0  0
 19 20  1  0  0  0  0
 19 26  2  0  0  0  0
 20 21  2  0  0  0  0
 20 44  1  0  0  0  0
 21 22  1  0  0  0  0
 21 23  1  0  0  0  0
 23 24  1  0  0  0  0
 23 25  2  0  0  0  0
 24 45  1  0  0  0  0
 25 26  1  0  0  0  0
 25 46  1  0  0  0  0
 26 27  1  0  0  0  0
 27 47  1  0  0  0  0
M  END
>  <DRUGBANK_ID>
DB08465

>  <COMMON_NAME>
2-(3-AMINO-2,5,6-TRIMETHOXYPHENYL)ETHYL 5-CHLORO-2,4-DIHYDROXYBENZOATE

$$$$
