
 OpenBabel10282417123D

 26 25  0  0  0  0  0  0  0  0999 V2000
    1.0067   -0.0998   -0.0011 O   0  0  0  0  0  0  0  0  0  0  0  0
    2.9668   -0.0998   -0.0011 V   0  0  0  0  0  0  0  0  0  0  0  0
    4.0618   -1.5808    1.1837 O   0  5  0  0  0  0  0  0  0  0  0  0
    4.0618    1.3812   -1.1859 O   0  3  3  0  0  0  0  0  0  0  0  0
    3.5327    3.3950   -0.5070 V   0  0  0  0  0  0  0  0  0  0  0  0
    4.9211    4.5911    0.1884 O   0  0  0  0  0  0  0  0  0  0  0  0
    1.4524    4.0723   -0.6050 O   0  0  0  0  0  0  0  0  0  0  0  0
    1.3154    6.1217    0.1548 V   0  0  0  0  0  0  0  0  0  0  0  0
    1.9318    6.1716    2.0147 O   0  0  0  0  0  0  0  0  0  0  0  0
    2.4383    7.2999   -0.9374 O   0  0  0  0  0  0  0  0  0  0  0  0
   -0.7649    6.7991    0.0567 O   0  0  0  0  0  0  0  0  0  0  0  0
   -0.9019    8.8485    0.8165 V   0  0  0  0  0  0  0  0  0  0  0  0
   -0.2856    8.8983    2.6764 O   0  0  0  0  0  0  0  0  0  0  0  0
    0.2209   10.0266   -0.2757 O   0  0  0  0  0  0  0  0  0  0  0  0
   -2.9822    9.5258    0.7184 O   0  3  3  0  0  0  0  0  0  0  0  0
   -4.2369    8.2094    1.9388 V   0  0  0  0  0  0  0  0  0  0  0  0
   -5.3742    9.0307    3.6205 O   0  5  0  0  0  0  0  0  0  0  0  0
   -4.3418    6.2963    1.5258 O   0  0  0  0  0  0  0  0  0  0  0  0
   -3.1193   11.5752    1.4782 V   0  0  0  0  0  0  0  0  0  0  0  0
   -2.5029   11.6251    3.3382 O   0  0  0  0  0  0  0  0  0  0  0  0
   -1.9964   12.7534    0.3860 O   0  0  0  0  0  0  0  0  0  0  0  0
   -4.9811   12.1814    1.3905 O   0  0  0  0  0  0  0  0  0  0  0  0
    6.2149    1.0687   -0.9359 V   0  0  0  0  0  0  0  0  0  0  0  0
    6.6884    1.2659    0.9559 O   0  0  0  0  0  0  0  0  0  0  0  0
    6.6884   -0.7336   -1.5435 O   0  0  0  0  0  0  0  0  0  0  0  0
    7.1949    2.3942   -1.9963 O   0  0  0  0  0  0  0  0  0  0  0  0
  1  2  2  0  0  0  0
  2  3  1  0  0  0  0
  2  4  1  0  0  0  0
  4  5  1  0  0  0  0
  4 23  1  0  0  0  0
  5  6  2  0  0  0  0
  5  7  1  0  0  0  0
  7  8  1  0  0  0  0
  8  9  2  0  0  0  0
  8 10  2  0  0  0  0
  8 11  1  0  0  0  0
 11 12  1  0  0  0  0
 12 13  2  0  0  0  0
 12 14  2  0  0  0  0
 12 15  1  0  0  0  0
 15 16  1  0  0  0  0
 15 19  1  0  0  0  0
 16 17  1  0  0  0  0
 16 18  2  0  0  0  0
 19 20  2  0  0  0  0
 19 21  2  0  0  0  0
 19 22  2  0  0  0  0
 23 24  2  0  0  0  0
 23 25  2  0  0  0  0
 23 26  2  0  0  0  0
M  CHG  4   3  -1   4   1  15   1  17  -1
M  END
>  <DRUGBANK_ID>
DB02681

>  <SECONDARY_ACCESSION_NUMBERS>
EXPT03214

>  <COMMON_NAME>
2,8-bis[oxido(oxo)vanadio]-1,1,1,3,5,5,7,7,9,9,9-undecaoxopentavanadoxane-2,8-diium

$$$$
