
 OpenBabel10282417223D

 78 78  0  0  0  0  0  0  0  0999 V2000
    1.0578   -0.0348    0.1183 C   0  0  0  0  0  0  0  0  0  0  0  0
    0.6003    1.4010    0.2422 C   0  0  0  0  0  0  0  0  0  0  0  0
    1.0005    2.1991   -0.9639 C   0  0  0  0  0  0  0  0  0  0  0  0
    0.1270    2.7693   -1.8012 C   0  0  0  0  0  0  0  0  0  0  0  0
   -1.3456    2.6488   -1.6379 C   0  0  0  0  0  0  0  0  0  0  0  0
   -1.9966    3.9844   -1.5281 C   0  0  0  0  0  0  0  0  0  0  0  0
   -2.9859    4.3627   -2.3397 C   0  0  0  0  0  0  0  0  0  0  0  0
   -3.4656    3.4947   -3.4451 C   0  0  0  0  0  0  0  0  0  0  0  0
   -4.9227    3.2236   -3.3344 C   0  0  0  0  0  0  0  0  0  0  0  0
   -5.7642    3.5073   -4.3281 C   0  0  0  0  0  0  0  0  0  0  0  0
   -5.2967    4.1590   -5.5767 C   0  0  0  0  0  0  0  0  0  0  0  0
   -5.6371    3.3463   -6.7717 C   0  0  0  0  0  0  0  0  0  0  0  0
   -6.3538    3.8541   -7.7720 C   0  0  0  0  0  0  0  0  0  0  0  0
   -6.8797    5.2379   -7.7138 C   0  0  0  0  0  0  0  0  0  0  0  0
   -6.4108    6.0262   -8.8756 C   0  0  0  0  0  0  0  0  0  0  0  0
   -7.2828    6.5492   -9.7313 C   0  0  0  0  0  0  0  0  0  0  0  0
   -8.7510    6.3523   -9.5752 C   0  0  0  0  0  0  0  0  0  0  0  0
   -9.3555    7.6827   -9.6238 C   0  0  0  0  0  0  0  0  0  0  0  0
  -10.1480    8.0011  -10.6432 C   0  0  0  0  0  0  0  0  0  0  0  0
  -10.8747    7.1570  -11.6082 C   0  0  0  0  0  0  0  0  0  0  0  0
  -12.3508    7.0250  -11.2256 C   0  0  0  0  0  0  0  0  0  0  0  0
  -13.1728    8.3146  -11.2258 C   0  0  0  0  0  0  0  0  0  0  0  0
  -13.9776    8.5390  -12.1325 O   0  0  0  0  0  0  0  0  0  0  0  0
  -13.0656    9.2449  -10.2297 N   0  0  0  0  0  0  0  0  0  0  0  0
  -12.2347    9.2411   -9.0429 C   0  0  0  0  0  0  0  0  0  0  0  0
  -11.1434   10.3143   -9.1078 C   0  0  0  0  0  0  0  0  0  0  0  0
  -11.5851   11.6552   -8.8764 N   0  0  0  0  0  0  0  0  0  0  0  0
  -11.0958   12.4856   -7.9093 C   0  0  0  0  0  0  0  0  0  0  0  0
  -11.6195   13.5902   -7.7344 O   0  0  0  0  0  0  0  0  0  0  0  0
   -9.9696   12.0163   -7.0566 C   0  0  0  0  0  0  0  0  0  0  0  0
   -8.7750   11.4761   -7.5725 C   0  0  0  0  0  0  0  0  0  0  0  0
   -8.4546   11.4389   -8.9046 O   0  0  0  0  0  0  0  0  0  0  0  0
   -7.8537   10.8591   -6.7290 C   0  0  0  0  0  0  0  0  0  0  0  0
   -8.0680   10.8582   -5.3538 C   0  0  0  0  0  0  0  0  0  0  0  0
   -9.2121   11.4588   -4.8253 C   0  0  0  0  0  0  0  0  0  0  0  0
  -10.1708   12.0220   -5.6729 C   0  0  0  0  0  0  0  0  0  0  0  0
    0.6667   -0.4987   -0.7952 H   0  0  0  0  0  0  0  0  0  0  0  0
    0.6850   -0.6091    0.9711 H   0  0  0  0  0  0  0  0  0  0  0  0
    2.1482   -0.0918    0.1019 H   0  0  0  0  0  0  0  0  0  0  0  0
   -0.4775    1.3633    0.4035 H   0  0  0  0  0  0  0  0  0  0  0  0
    1.0031    1.8825    1.1357 H   0  0  0  0  0  0  0  0  0  0  0  0
    2.0624    2.3066   -1.1708 H   0  0  0  0  0  0  0  0  0  0  0  0
    0.4837    3.3066   -2.6806 H   0  0  0  0  0  0  0  0  0  0  0  0
   -1.6607    2.0241   -2.4712 H   0  0  0  0  0  0  0  0  0  0  0  0
   -1.6904    2.0936   -0.7695 H   0  0  0  0  0  0  0  0  0  0  0  0
   -1.6718    4.6475   -0.7306 H   0  0  0  0  0  0  0  0  0  0  0  0
   -3.4356    5.3473   -2.2300 H   0  0  0  0  0  0  0  0  0  0  0  0
   -3.1179    3.9970   -4.3441 H   0  0  0  0  0  0  0  0  0  0  0  0
   -3.0176    2.5090   -3.5352 H   0  0  0  0  0  0  0  0  0  0  0  0
   -5.2906    2.7404   -2.4333 H   0  0  0  0  0  0  0  0  0  0  0  0
   -6.8260    3.2999   -4.2210 H   0  0  0  0  0  0  0  0  0  0  0  0
   -5.7061    5.1637   -5.5139 H   0  0  0  0  0  0  0  0  0  0  0  0
   -4.2322    4.3479   -5.6819 H   0  0  0  0  0  0  0  0  0  0  0  0
   -5.2506    2.3336   -6.8410 H   0  0  0  0  0  0  0  0  0  0  0  0
   -6.5947    3.2464   -8.6407 H   0  0  0  0  0  0  0  0  0  0  0  0
   -7.9504    5.1053   -7.5874 H   0  0  0  0  0  0  0  0  0  0  0  0
   -6.6251    5.8546   -6.8565 H   0  0  0  0  0  0  0  0  0  0  0  0
   -5.3457    6.2020   -9.0026 H   0  0  0  0  0  0  0  0  0  0  0  0
   -6.9296    7.1609  -10.5601 H   0  0  0  0  0  0  0  0  0  0  0  0
   -9.0597    5.6963  -10.3832 H   0  0  0  0  0  0  0  0  0  0  0  0
   -9.1251    5.8879   -8.6662 H   0  0  0  0  0  0  0  0  0  0  0  0
   -9.0322    8.3922   -8.8563 H   0  0  0  0  0  0  0  0  0  0  0  0
  -10.4086    9.0073  -10.8460 H   0  0  0  0  0  0  0  0  0  0  0  0
  -10.7635    7.6647  -12.5688 H   0  0  0  0  0  0  0  0  0  0  0  0
  -10.4303    6.1674  -11.7054 H   0  0  0  0  0  0  0  0  0  0  0  0
  -12.7943    6.3712  -11.9868 H   0  0  0  0  0  0  0  0  0  0  0  0
  -12.4912    6.5090  -10.2679 H   0  0  0  0  0  0  0  0  0  0  0  0
  -13.6536   10.0569  -10.3695 H   0  0  0  0  0  0  0  0  0  0  0  0
  -12.8487    9.4050   -8.1555 H   0  0  0  0  0  0  0  0  0  0  0  0
  -11.8175    8.2411   -8.9071 H   0  0  0  0  0  0  0  0  0  0  0  0
  -10.4042    9.9986   -8.3810 H   0  0  0  0  0  0  0  0  0  0  0  0
  -10.6410   10.4698  -10.0618 H   0  0  0  0  0  0  0  0  0  0  0  0
  -12.2481   12.0559   -9.5318 H   0  0  0  0  0  0  0  0  0  0  0  0
   -9.1431   11.9002   -9.4143 H   0  0  0  0  0  0  0  0  0  0  0  0
   -6.9764   10.3720   -7.1482 H   0  0  0  0  0  0  0  0  0  0  0  0
   -7.3359   10.3976   -4.6949 H   0  0  0  0  0  0  0  0  0  0  0  0
   -9.3615   11.4762   -3.7486 H   0  0  0  0  0  0  0  0  0  0  0  0
  -11.0808   12.4468   -5.2544 H   0  0  0  0  0  0  0  0  0  0  0  0
  1  2  1  0  0  0  0
  1 37  1  0  0  0  0
  1 38  1  0  0  0  0
  1 39  1  0  0  0  0
  2  3  1  0  0  0  0
  2 40  1  0  0  0  0
  2 41  1  0  0  0  0
  3  4  2  0  0  0  0
  3 42  1  0  0  0  0
  4  5  1  0  0  0  0
  4 43  1  0  0  0  0
  5  6  1  0  0  0  0
  5 44  1  0  0  0  0
  5 45  1  0  0  0  0
  6  7  2  0  0  0  0
  6 46  1  0  0  0  0
  7  8  1  0  0  0  0
  7 47  1  0  0  0  0
  8  9  1  0  0  0  0
  8 48  1  0  0  0  0
  8 49  1  0  0  0  0
  9 10  2  0  0  0  0
  9 50  1  0  0  0  0
 10 11  1  0  0  0  0
 10 51  1  0  0  0  0
 11 12  1  0  0  0  0
 11 52  1  0  0  0  0
 11 53  1  0  0  0  0
 12 13  2  0  0  0  0
 12 54  1  0  0  0  0
 13 14  1  0  0  0  0
 13 55  1  0  0  0  0
 14 15  1  0  0  0  0
 14 56  1  0  0  0  0
 14 57  1  0  0  0  0
 15 16  2  0  0  0  0
 15 58  1  0  0  0  0
 16 17  1  0  0  0  0
 16 59  1  0  0  0  0
 17 18  1  0  0  0  0
 17 60  1  0  0  0  0
 17 61  1  0  0  0  0
 18 19  2  0  0  0  0
 18 62  1  0  0  0  0
 19 20  1  0  0  0  0
 19 63  1  0  0  0  0
 20 21  1  0  0  0  0
 20 64  1  0  0  0  0
 20 65  1  0  0  0  0
 21 22  1  0  0  0  0
 21 66  1  0  0  0  0
 21 67  1  0  0  0  0
 22 23  2  0  0  0  0
 22 24  1  0  0  0  0
 24 25  1  0  0  0  0
 24 68  1  0  0  0  0
 25 26  1  0  0  0  0
 25 69  1  0  0  0  0
 25 70  1  0  0  0  0
 26 27  1  0  0  0  0
 26 71  1  0  0  0  0
 26 72  1  0  0  0  0
 27 28  1  0  0  0  0
 27 73  1  0  0  0  0
 28 29  2  0  0  0  0
 28 30  1  0  0  0  0
 30 31  2  0  0  0  0
 30 36  1  0  0  0  0
 31 32  1  0  0  0  0
 31 33  1  0  0  0  0
 32 74  1  0  0  0  0
 33 34  2  0  0  0  0
 33 75  1  0  0  0  0
 34 35  1  0  0  0  0
 34 76  1  0  0  0  0
 35 36  2  0  0  0  0
 35 77  1  0  0  0  0
 36 78  1  0  0  0  0
M  END
>  <DRUGBANK_ID>
DB15010

>  <COMMON_NAME>
Edasalonexent

>  <CAS_NUMBER>
1204317-86-1

>  <UNII>
AF3Z6434KS

>  <SYNONYMS>
Edasalonexent

$$$$
