
 OpenBabel10282417133D

 31 33  0  0  1  0  0  0  0  0999 V2000
    2.2303   -0.0981    0.0692 O   0  0  0  0  0  0  0  0  0  0  0  0
    0.9532   -0.1994    0.5569 C   0  0  0  0  0  0  0  0  0  0  0  0
    0.2228   -1.3895    0.5082 C   0  0  0  0  0  0  0  0  0  0  0  0
   -1.1804   -1.3353    0.7501 C   0  0  0  0  0  0  0  0  0  0  0  0
   -1.8533   -0.0391    0.8925 C   0  0  0  0  0  0  0  0  0  0  0  0
   -1.0585    1.0876    1.1904 C   0  0  0  0  0  0  0  0  0  0  0  0
    0.3318    1.0065    0.9264 C   0  0  0  0  0  0  0  0  0  0  0  0
   -2.8912    0.1546   -0.3452 C   0  0  2  0  0  0  0  0  0  0  0  0
   -1.8251    0.2089   -1.4434 C   0  0  0  0  0  0  0  0  0  0  0  0
   -1.3279    1.6035   -1.6357 C   0  0  0  0  0  0  0  0  0  0  0  0
   -0.1366    1.8944   -1.8894 O   0  0  0  0  0  0  0  0  0  0  0  0
   -2.2815    2.6584   -1.4833 C   0  0  0  0  0  0  0  0  0  0  0  0
   -1.9035    3.9888   -1.6257 C   0  0  0  0  0  0  0  0  0  0  0  0
   -2.8816    4.9000   -1.9581 C   0  0  0  0  0  0  0  0  0  0  0  0
   -4.1846    4.4312   -2.1557 C   0  0  0  0  0  0  0  0  0  0  0  0
   -5.1555    5.2653   -2.6210 O   0  0  0  0  0  0  0  0  0  0  0  0
   -4.5564    3.1160   -1.8475 C   0  0  0  0  0  0  0  0  0  0  0  0
   -3.5938    2.2503   -1.3634 C   0  0  0  0  0  0  0  0  0  0  0  0
   -3.9376    1.1009   -0.7009 O   0  0  0  0  0  0  0  0  0  0  0  0
    2.6329   -0.9725   -0.0487 H   0  0  0  0  0  0  0  0  0  0  0  0
    0.6566   -2.2721    0.0264 H   0  0  0  0  0  0  0  0  0  0  0  0
   -1.7563   -2.1770    0.3296 H   0  0  0  0  0  0  0  0  0  0  0  0
   -1.5026    2.0854    1.1628 H   0  0  0  0  0  0  0  0  0  0  0  0
    0.8856    1.9310    0.7347 H   0  0  0  0  0  0  0  0  0  0  0  0
   -3.4857   -0.7687   -0.2528 H   0  0  0  0  0  0  0  0  0  0  0  0
   -0.8834   -0.2107   -1.1411 H   0  0  0  0  0  0  0  0  0  0  0  0
   -2.0826   -0.4112   -2.2850 H   0  0  0  0  0  0  0  0  0  0  0  0
   -0.8599    4.2750   -1.5040 H   0  0  0  0  0  0  0  0  0  0  0  0
   -2.5966    5.9357   -2.1083 H   0  0  0  0  0  0  0  0  0  0  0  0
   -4.7488    6.1289   -2.8003 H   0  0  0  0  0  0  0  0  0  0  0  0
   -5.5826    2.7892   -1.9808 H   0  0  0  0  0  0  0  0  0  0  0  0
  1  2  1  0  0  0  0
  1 20  1  0  0  0  0
  2  3  2  0  0  0  0
  2  7  1  0  0  0  0
  3  4  1  0  0  0  0
  3 21  1  0  0  0  0
  4  5  2  0  0  0  0
  4 22  1  0  0  0  0
  5  6  1  0  0  0  0
  6  7  2  0  0  0  0
  6 23  1  0  0  0  0
  7 24  1  0  0  0  0
  8  5  1  0  0  0  0
  8  9  1  0  0  0  0
  8 19  1  0  0  0  0
  8 25  1  6  0  0  0
  9 10  1  0  0  0  0
  9 26  1  0  0  0  0
  9 27  1  0  0  0  0
 10 11  2  0  0  0  0
 10 12  1  0  0  0  0
 12 13  2  0  0  0  0
 12 18  1  0  0  0  0
 13 14  1  0  0  0  0
 13 28  1  0  0  0  0
 14 15  2  0  0  0  0
 14 29  1  0  0  0  0
 15 16  1  0  0  0  0
 15 17  1  0  0  0  0
 16 30  1  0  0  0  0
 17 18  2  0  0  0  0
 17 31  1  0  0  0  0
 18 19  1  0  0  0  0
M  END
>  <DRUGBANK_ID>
DB03601

>  <SECONDARY_ACCESSION_NUMBERS>
EXPT01172

>  <COMMON_NAME>
5-deoxyflavanone

>  <CAS_NUMBER>
578-86-9

>  <UNII>
T194LKP9W6

$$$$
