
 OpenBabel10282417213D

 27 28  0  0  0  0  0  0  0  0999 V2000
   -0.0288    0.0027    1.3881 C   0  0  0  0  0  0  0  0  0  0  0  0
   -0.0131    1.1111    0.3044 C   0  0  3  0  0  0  0  0  0  0  0  0
    0.0141   -1.1357    0.3373 C   0  0  3  0  0  0  0  0  0  0  0  0
   -0.0051   -2.5453    0.8817 C   0  0  0  0  0  0  0  0  0  0  0  0
   -1.1820   -0.7215   -0.5238 C   0  0  0  0  0  0  0  0  0  0  0  0
   -1.9614   -1.4786   -1.0849 O   0  0  0  0  0  0  0  0  0  0  0  0
   -1.2549    0.7965   -0.5694 C   0  0  0  0  0  0  0  0  0  0  0  0
    1.1760    0.0180    2.3437 C   0  0  0  0  0  0  0  0  0  0  0  0
   -1.2921    0.0037    2.2698 C   0  0  0  0  0  0  0  0  0  0  0  0
    1.2389    0.7615   -0.5347 C   0  0  0  0  0  0  0  0  0  0  0  0
    1.2441   -0.7843   -0.5326 C   0  0  0  0  0  0  0  0  0  0  0  0
   -0.0045    2.1340    0.6884 H   0  0  0  0  0  0  0  0  0  0  0  0
    0.8719   -2.7332    1.5110 H   0  0  0  0  0  0  0  0  0  0  0  0
   -0.8957   -2.7264    1.4922 H   0  0  0  0  0  0  0  0  0  0  0  0
   -0.0054   -3.2877    0.0785 H   0  0  0  0  0  0  0  0  0  0  0  0
   -1.1654    1.1733   -1.5902 H   0  0  0  0  0  0  0  0  0  0  0  0
   -2.1799    1.1532   -0.1104 H   0  0  0  0  0  0  0  0  0  0  0  0
    1.1490    0.9119    2.9750 H   0  0  0  0  0  0  0  0  0  0  0  0
    1.1495   -0.8577    3.0023 H   0  0  0  0  0  0  0  0  0  0  0  0
    2.1474    0.0058    1.8445 H   0  0  0  0  0  0  0  0  0  0  0  0
   -2.2298    0.0425    1.7103 H   0  0  0  0  0  0  0  0  0  0  0  0
   -1.3353   -0.9020    2.8830 H   0  0  0  0  0  0  0  0  0  0  0  0
   -1.2842    0.8691    2.9399 H   0  0  0  0  0  0  0  0  0  0  0  0
    1.1879    1.1699   -1.5496 H   0  0  0  0  0  0  0  0  0  0  0  0
    2.1505    1.1528   -0.0707 H   0  0  0  0  0  0  0  0  0  0  0  0
    1.1650   -1.1801   -1.5515 H   0  0  0  0  0  0  0  0  0  0  0  0
    2.1755   -1.1643   -0.0987 H   0  0  0  0  0  0  0  0  0  0  0  0
  2  1  1  0  0  0  0
  2 10  1  0  0  0  0
  2  7  1  0  0  0  0
  2 12  1  0  0  0  0
  3  1  1  0  0  0  0
  3  4  1  0  0  0  0
  3  5  1  0  0  0  0
  4 13  1  0  0  0  0
  4 14  1  0  0  0  0
  4 15  1  0  0  0  0
  5  6  2  0  0  0  0
  5  7  1  0  0  0  0
  7 16  1  0  0  0  0
  7 17  1  0  0  0  0
  8  1  1  0  0  0  0
  8 18  1  0  0  0  0
  8 19  1  0  0  0  0
  8 20  1  0  0  0  0
  9  1  1  0  0  0  0
  9 21  1  0  0  0  0
  9 22  1  0  0  0  0
  9 23  1  0  0  0  0
 10 11  1  0  0  0  0
 10 24  1  0  0  0  0
 10 25  1  0  0  0  0
 11  3  1  0  0  0  0
 11 26  1  0  0  0  0
 11 27  1  0  0  0  0
M  END
>  <DRUGBANK_ID>
DB14156

>  <COMMON_NAME>
Synthetic camphor

>  <CAS_NUMBER>
76-22-2

>  <UNII>
5TJD82A1ET

>  <SYNONYMS>
(+/-)-camphor; (1RS,4RS)-1,7,7-trimethylbicyclo(2.2.1)heptan-2-one; 1,7,7-trimethylbicyclo(2.2.1)heptan-2-one; 2-bornanone; 2-camphanone; Camphor (synthetic); Camphor, racemic; DL-camphor; Gum camphor

$$$$
