
 OpenBabel10282417183D

 62 64  0  0  1  0  0  0  0  0999 V2000
    0.9104   -0.0164   -0.0038 C   0  0  0  0  0  0  0  0  0  0  0  0
    0.3787    1.4233    0.0715 C   0  0  0  0  0  0  0  0  0  0  0  0
    0.9194    2.1995   -1.1276 C   0  0  0  0  0  0  0  0  0  0  0  0
   -1.1477    1.3730    0.0795 C   0  0  0  0  0  0  0  0  0  0  0  0
    0.8727    1.9958    1.2939 O   0  0  0  0  0  0  0  0  0  0  0  0
    0.5449    3.2718    1.6005 C   0  0  0  0  0  0  0  0  0  0  0  0
   -0.1606    4.0315    0.9507 O   0  0  0  0  0  0  0  0  0  0  0  0
    1.1182    3.6738    2.7556 N   0  0  0  0  0  0  0  0  0  0  0  0
    1.9719    2.8798    3.6340 C   0  0  0  0  0  0  0  0  0  0  0  0
    3.4063    3.4960    3.9276 C   0  0  0  0  0  0  0  0  0  0  0  0
    3.4689    4.6704    4.7655 N   0  0  0  0  0  0  0  0  0  0  0  0
    2.3661    4.8593    5.6017 C   0  0  0  0  0  0  0  0  0  0  0  0
    2.2983    6.4073    5.9907 C   0  0  2  0  0  0  0  0  0  0  0  0
    1.7803    7.8538    4.8793 C   0  0  0  0  0  0  0  0  0  0  0  0
    2.9161    8.4433    4.3152 N   0  0  0  0  0  0  0  0  0  0  0  0
    4.0991    8.0639    5.1491 C   0  0  0  0  0  0  0  0  0  0  0  0
    4.3907    6.7717    6.0270 C   0  0  2  0  0  0  0  0  0  0  0  0
    4.6195    5.3356    5.3529 C   0  0  0  0  0  0  0  0  0  0  0  0
    3.3175    6.7193    6.9028 O   0  0  0  0  0  0  0  0  0  0  0  0
    2.6754    7.8681    3.0008 C   0  0  0  0  0  0  0  0  0  0  0  0
    2.2237    6.3884    3.1947 C   0  0  0  0  0  0  0  0  0  0  0  0
    0.7238    5.9524    4.1393 O   0  0  0  0  0  0  0  0  0  0  0  0
   -0.0291    6.3088    5.6796 C   0  0  0  0  0  0  0  0  0  0  0  0
    0.2009    7.6617    6.5517 C   0  0  0  0  0  0  0  0  0  0  0  0
    0.3220    7.8317    7.9298 C   0  0  0  0  0  0  0  0  0  0  0  0
    0.3390    6.6688    8.6614 C   0  0  0  0  0  0  0  0  0  0  0  0
    0.1043    5.3746    8.0451 C   0  0  0  0  0  0  0  0  0  0  0  0
   -0.1621    5.1603    6.6048 C   0  0  0  0  0  0  0  0  0  0  0  0
   -0.0313    3.8643    6.2307 F   0  0  0  0  0  0  0  0  0  0  0  0
    0.6599    6.8848   10.0154 C   0  0  0  0  0  0  0  0  0  0  0  0
    0.8277    7.2808   11.1255 N   0  0  0  0  0  0  0  0  0  0  0  0
    0.5699   -0.5055   -0.9232 H   0  0  0  0  0  0  0  0  0  0  0  0
    0.5702   -0.6161    0.8484 H   0  0  0  0  0  0  0  0  0  0  0  0
    2.0062   -0.0418    0.0110 H   0  0  0  0  0  0  0  0  0  0  0  0
    0.5789    1.7527   -2.0643 H   0  0  0  0  0  0  0  0  0  0  0  0
    0.5902    3.2411   -1.1213 H   0  0  0  0  0  0  0  0  0  0  0  0
    2.0151    2.2195   -1.1131 H   0  0  0  0  0  0  0  0  0  0  0  0
   -1.5125    0.8083    0.9448 H   0  0  0  0  0  0  0  0  0  0  0  0
   -1.5891    2.3695    0.1501 H   0  0  0  0  0  0  0  0  0  0  0  0
   -1.5244    0.9116   -0.8365 H   0  0  0  0  0  0  0  0  0  0  0  0
    0.7693    4.5843    3.0491 H   0  0  0  0  0  0  0  0  0  0  0  0
    1.3960    2.7091    4.5523 H   0  0  0  0  0  0  0  0  0  0  0  0
    2.1014    1.8850    3.2188 H   0  0  0  0  0  0  0  0  0  0  0  0
    3.9866    2.7453    4.4504 H   0  0  0  0  0  0  0  0  0  0  0  0
    3.8512    3.7555    2.9606 H   0  0  0  0  0  0  0  0  0  0  0  0
    1.4864    4.5000    5.1010 H   0  0  0  0  0  0  0  0  0  0  0  0
    2.4224    4.1544    6.4411 H   0  0  0  0  0  0  0  0  0  0  0  0
    1.6887    6.2380    6.8127 H   0  0  0  0  0  0  0  0  0  0  0  0
    1.1195    8.7556    5.0182 H   0  0  0  0  0  0  0  0  0  0  0  0
    0.9083    7.7153    4.1411 H   0  0  0  0  0  0  0  0  0  0  0  0
    4.0968    8.8647    5.9166 H   0  0  0  0  0  0  0  0  0  0  0  0
    4.9545    8.1619    4.5138 H   0  0  0  0  0  0  0  0  0  0  0  0
    5.2150    6.9533    6.7180 H   0  0  0  0  0  0  0  0  0  0  0  0
    4.9208    4.6486    6.1485 H   0  0  0  0  0  0  0  0  0  0  0  0
    5.3735    5.5069    4.6007 H   0  0  0  0  0  0  0  0  0  0  0  0
    1.8323    8.3329    2.4790 H   0  0  0  0  0  0  0  0  0  0  0  0
    3.5916    8.0578    2.4436 H   0  0  0  0  0  0  0  0  0  0  0  0
    2.2710    5.8059    2.2672 H   0  0  0  0  0  0  0  0  0  0  0  0
    3.1858    6.1299    3.6229 H   0  0  0  0  0  0  0  0  0  0  0  0
    1.0320    8.4444    6.4835 H   0  0  0  0  0  0  0  0  0  0  0  0
    0.7714    8.7943    8.2846 H   0  0  0  0  0  0  0  0  0  0  0  0
    0.3756    4.4978    8.6528 H   0  0  0  0  0  0  0  0  0  0  0  0
  1  2  1  0  0  0  0
  1 32  1  0  0  0  0
  1 33  1  0  0  0  0
  1 34  1  0  0  0  0
  2  3  1  0  0  0  0
  2  4  1  0  0  0  0
  2  5  1  0  0  0  0
  3 35  1  0  0  0  0
  3 36  1  0  0  0  0
  3 37  1  0  0  0  0
  4 38  1  0  0  0  0
  4 39  1  0  0  0  0
  4 40  1  0  0  0  0
  5  6  1  0  0  0  0
  6  7  2  0  0  0  0
  6  8  1  0  0  0  0
  8  9  1  0  0  0  0
  8 41  1  0  0  0  0
  9 10  1  0  0  0  0
  9 42  1  0  0  0  0
  9 43  1  0  0  0  0
 10 11  1  0  0  0  0
 10 44  1  0  0  0  0
 10 45  1  0  0  0  0
 11 12  1  0  0  0  0
 11 18  1  0  0  0  0
 12 13  1  0  0  0  0
 12 46  1  0  0  0  0
 12 47  1  0  0  0  0
 13 14  1  0  0  0  0
 13 19  1  0  0  0  0
 13 48  1  1  0  0  0
 14 15  1  0  0  0  0
 14 49  1  0  0  0  0
 14 50  1  0  0  0  0
 15 16  1  0  0  0  0
 15 20  1  0  0  0  0
 16 17  1  0  0  0  0
 16 51  1  0  0  0  0
 16 52  1  0  0  0  0
 17 18  1  0  0  0  0
 17 19  1  0  0  0  0
 17 53  1  1  0  0  0
 18 54  1  0  0  0  0
 18 55  1  0  0  0  0
 20 21  1  0  0  0  0
 20 56  1  0  0  0  0
 20 57  1  0  0  0  0
 21 22  1  0  0  0  0
 21 58  1  0  0  0  0
 21 59  1  0  0  0  0
 22 23  1  0  0  0  0
 23 24  2  0  0  0  0
 23 28  1  0  0  0  0
 24 25  1  0  0  0  0
 24 60  1  0  0  0  0
 25 26  2  0  0  0  0
 25 61  1  0  0  0  0
 26 27  1  0  0  0  0
 26 30  1  0  0  0  0
 27 28  2  0  0  0  0
 27 62  1  0  0  0  0
 28 29  1  0  0  0  0
 30 31  3  0  0  0  0
M  END
>  <DRUGBANK_ID>
DB11766

>  <COMMON_NAME>
AZD-1305

>  <CAS_NUMBER>
872045-91-5

>  <UNII>
CZO834LXQM

$$$$
