
 OpenBabel10282417213D

  1  0  0  0  0  0  0  0  0  0999 V2000
    1.0441   -0.0515   -0.0735 Au  0  0  0  0  0  0  0  0  0  0  0  0
M  END
>  <DRUGBANK_ID>
DB14154

>  <COMMON_NAME>
Gold

>  <CAS_NUMBER>
7440-57-5

>  <UNII>
79Y1949PYO

>  <SYNONYMS>
Aurum metallicum; Colloidal gold; Gold flake; Gold leaf; Gold powder; Gold, colloidal; Gold, elemental

$$$$
