311
 OpenBabel10282417103D

 26 27  0  0  0  0  0  0  0  0999 V2000
    0.9275    0.0567   -0.0619 S   0  0  0  0  0  0  0  0  0  0  0  0
    3.5951    1.4656   -0.0682 S   0  0  0  0  0  0  0  0  0  0  0  0
    8.7214    0.4657   -0.1963 O   0  0  0  0  0  0  0  0  0  0  0  0
    0.5211   -0.4891   -1.3356 O   0  0  0  0  0  0  0  0  0  0  0  0
    0.4844   -0.5152    1.1933 O   0  0  0  0  0  0  0  0  0  0  0  0
    3.4043   -1.1058   -0.0531 N   0  0  0  0  0  0  0  0  0  0  0  0
    0.3696    1.6526   -0.0799 N   0  0  0  0  0  0  0  0  0  0  0  0
    5.0719    0.5600   -0.1130 C   0  0  0  0  0  0  0  0  0  0  0  0
    4.7415   -0.7987   -0.1035 C   0  0  0  0  0  0  0  0  0  0  0  0
    2.7040    0.0054   -0.0460 C   0  0  0  0  0  0  0  0  0  0  0  0
    6.4179    0.9888   -0.1543 C   0  0  0  0  0  0  0  0  0  0  0  0
    7.4258    0.0117   -0.2250 C   0  0  0  0  0  0  0  0  0  0  0  0
    5.7608   -1.7518   -0.1701 C   0  0  0  0  0  0  0  0  0  0  0  0
    7.0797   -1.3346   -0.2882 C   0  0  0  0  0  0  0  0  0  0  0  0
    9.7703   -0.5170   -0.2174 C   0  0  0  0  0  0  0  0  0  0  0  0
    9.8472   -1.3492    1.0632 C   0  0  0  0  0  0  0  0  0  0  0  0
    0.6765    2.1253   -0.9299 H   0  0  0  0  0  0  0  0  0  0  0  0
   -0.6505    1.6328   -0.0175 H   0  0  0  0  0  0  0  0  0  0  0  0
    6.6716    2.0460   -0.1406 H   0  0  0  0  0  0  0  0  0  0  0  0
    5.5200   -2.8088   -0.1496 H   0  0  0  0  0  0  0  0  0  0  0  0
    7.8152   -2.1208   -0.4042 H   0  0  0  0  0  0  0  0  0  0  0  0
    9.6949   -1.1372   -1.1200 H   0  0  0  0  0  0  0  0  0  0  0  0
   10.7155    0.0311   -0.3134 H   0  0  0  0  0  0  0  0  0  0  0  0
    8.9400   -1.9199    1.2741 H   0  0  0  0  0  0  0  0  0  0  0  0
   10.6631   -2.0742    1.0037 H   0  0  0  0  0  0  0  0  0  0  0  0
    9.9840   -0.7015    1.9320 H   0  0  0  0  0  0  0  0  0  0  0  0
  1  4  2  0  0  0  0
  1  5  2  0  0  0  0
  1  7  1  0  0  0  0
  1 10  1  0  0  0  0
  2  8  1  0  0  0  0
  2 10  1  0  0  0  0
  3 12  1  0  0  0  0
  3 15  1  0  0  0  0
  6  9  1  0  0  0  0
  6 10  2  0  0  0  0
  7 17  1  0  0  0  0
  7 18  1  0  0  0  0
  8  9  2  0  0  0  0
  8 11  1  0  0  0  0
  9 13  1  0  0  0  0
 11 12  2  0  0  0  0
 11 19  1  0  0  0  0
 12 14  1  0  0  0  0
 13 14  2  0  0  0  0
 13 20  1  0  0  0  0
 14 21  1  0  0  0  0
 15 16  1  0  0  0  0
 15 22  1  0  0  0  0
 15 23  1  0  0  0  0
 16 24  1  0  0  0  0
 16 25  1  0  0  0  0
 16 26  1  0  0  0  0
M  END
>  <DRUGBANK_ID>
DB00311

>  <SECONDARY_ACCESSION_NUMBERS>
APRD00732; DB07727

>  <COMMON_NAME>
Ethoxzolamide

>  <CAS_NUMBER>
452-35-7

>  <UNII>
Z52H4811WX

>  <SYNONYMS>
6-Ethoxy-1,3-benzothiazole-2-sulfonamide; Ethoxazolamide; Ethoxyzolamide

$$$$
