252
 OpenBabel10282417163D

 40 39  0  0  0  0  0  0  0  0999 V2000
    1.0605   -0.2379    0.1302 C   0  0  0  0  0  0  0  0  0  0  0  0
    0.7238    0.9699    0.9922 C   0  0  0  0  0  0  0  0  0  0  0  0
    1.3487    2.2450    0.4142 C   0  0  0  0  0  0  0  0  0  0  0  0
    0.8659    2.5114   -1.0048 C   0  0  0  0  0  0  0  0  0  0  0  0
   -0.6497    2.5884   -1.0291 C   0  0  0  0  0  0  0  0  0  0  0  0
   -1.1569    3.7620   -0.1812 C   0  0  0  0  0  0  0  0  0  0  0  0
   -0.9173    5.0881   -0.8975 C   0  0  0  0  0  0  0  0  0  0  0  0
   -1.5033    5.1639   -2.3235 C   0  0  0  0  0  0  0  0  0  0  0  0
   -3.0538    5.1320   -2.3279 C   0  0  0  0  0  0  0  0  0  0  0  0
   -3.6638    6.5305   -1.3176 P   0  0  0  0  0  0  0  0  0  0  0  0
   -5.1710    6.3309   -1.9590 O   0  0  0  0  0  0  0  0  0  0  0  0
   -4.2405    7.8527   -0.3624 O   0  0  0  0  0  0  0  0  0  0  0  0
   -2.9478    7.5229   -2.2421 O   0  0  0  0  0  0  0  0  0  0  0  0
   -3.6638    3.5577   -1.6219 P   0  0  0  0  0  0  0  0  0  0  0  0
   -4.2404    2.0695   -0.9544 O   0  0  0  0  0  0  0  0  0  0  0  0
   -3.2740    2.6148   -2.7222 O   0  0  0  0  0  0  0  0  0  0  0  0
   -4.6566    4.1200   -0.5328 O   0  0  0  0  0  0  0  0  0  0  0  0
   -3.5679    5.3045   -3.6760 O   0  0  0  0  0  0  0  0  0  0  0  0
    0.6149   -0.1703   -0.8691 H   0  0  0  0  0  0  0  0  0  0  0  0
    0.6812   -1.1548    0.5839 H   0  0  0  0  0  0  0  0  0  0  0  0
    2.1445   -0.3159    0.0099 H   0  0  0  0  0  0  0  0  0  0  0  0
   -0.3668    1.0567    1.0841 H   0  0  0  0  0  0  0  0  0  0  0  0
    1.0847    0.8265    2.0131 H   0  0  0  0  0  0  0  0  0  0  0  0
    1.1065    3.0937    1.0624 H   0  0  0  0  0  0  0  0  0  0  0  0
    2.4390    2.1831    0.4172 H   0  0  0  0  0  0  0  0  0  0  0  0
    1.2988    3.4362   -1.4018 H   0  0  0  0  0  0  0  0  0  0  0  0
    1.1977    1.7271   -1.6938 H   0  0  0  0  0  0  0  0  0  0  0  0
   -0.9137    2.6568   -2.0816 H   0  0  0  0  0  0  0  0  0  0  0  0
   -1.1269    1.6578   -0.7054 H   0  0  0  0  0  0  0  0  0  0  0  0
   -2.1991    3.6328    0.0993 H   0  0  0  0  0  0  0  0  0  0  0  0
   -0.7088    3.7952    0.8147 H   0  0  0  0  0  0  0  0  0  0  0  0
   -1.3107    5.8975   -0.2729 H   0  0  0  0  0  0  0  0  0  0  0  0
    0.1620    5.2655   -0.9494 H   0  0  0  0  0  0  0  0  0  0  0  0
   -1.1316    6.0825   -2.7915 H   0  0  0  0  0  0  0  0  0  0  0  0
   -1.1140    4.3796   -2.9776 H   0  0  0  0  0  0  0  0  0  0  0  0
   -5.1042    6.4613   -2.9312 H   0  0  0  0  0  0  0  0  0  0  0  0
   -4.4555    7.5817    0.5477 H   0  0  0  0  0  0  0  0  0  0  0  0
   -4.8921    1.6829   -1.5663 H   0  0  0  0  0  0  0  0  0  0  0  0
   -5.5741    4.4300   -0.8095 H   0  0  0  0  0  0  0  0  0  0  0  0
   -3.1018    6.1157   -4.0130 H   0  0  0  0  0  0  0  0  0  0  0  0
  1  2  1  0  0  0  0
  1 19  1  0  0  0  0
  1 20  1  0  0  0  0
  1 21  1  0  0  0  0
  2  3  1  0  0  0  0
  2 22  1  0  0  0  0
  2 23  1  0  0  0  0
  3  4  1  0  0  0  0
  3 24  1  0  0  0  0
  3 25  1  0  0  0  0
  4  5  1  0  0  0  0
  4 26  1  0  0  0  0
  4 27  1  0  0  0  0
  5  6  1  0  0  0  0
  5 28  1  0  0  0  0
  5 29  1  0  0  0  0
  6  7  1  0  0  0  0
  6 30  1  0  0  0  0
  6 31  1  0  0  0  0
  7  8  1  0  0  0  0
  7 32  1  0  0  0  0
  7 33  1  0  0  0  0
  8  9  1  0  0  0  0
  8 34  1  0  0  0  0
  8 35  1  0  0  0  0
  9 10  1  0  0  0  0
  9 18  1  0  0  0  0
  9 14  1  0  0  0  0
 10 13  2  0  0  0  0
 10 11  1  0  0  0  0
 10 12  1  0  0  0  0
 11 36  1  0  0  0  0
 12 37  1  0  0  0  0
 14 16  2  0  0  0  0
 14 17  1  0  0  0  0
 14 15  1  0  0  0  0
 15 38  1  0  0  0  0
 17 39  1  0  0  0  0
 18 40  1  0  0  0  0
M  END
>  <DRUGBANK_ID>
DB06931

>  <COMMON_NAME>
(1-HYDROXYNONANE-1,1-DIYL)BIS(PHOSPHONIC ACID)

$$$$
