
 OpenBabel10282417123D

 28 28  0  0  1  0  0  0  0  0999 V2000
   -0.1575    0.0097   -0.0671 C   0  0  0  0  0  0  0  0  0  0  0  0
   -0.4016    0.7001    1.2696 C   0  0  0  0  0  0  0  0  0  0  0  0
   -1.0053    1.7865    1.3247 O   0  0  0  0  0  0  0  0  0  0  0  0
    0.2818    0.3169    2.4220 N   0  0  0  0  0  0  0  0  0  0  0  0
    1.5895   -0.4269    2.7377 C   0  0  2  0  0  0  0  0  0  0  0  0
    2.8651    0.4283    2.4579 C   0  0  1  0  0  0  0  0  0  0  0  0
    4.0627   -0.0635    3.0468 O   0  0  0  0  0  0  0  0  0  0  0  0
    3.0195    0.6272    0.9490 C   0  0  2  0  0  0  0  0  0  0  0  0
    2.0422    1.5694    0.5687 O   0  0  0  0  0  0  0  0  0  0  0  0
    2.9108   -0.7343    0.2069 C   0  0  1  0  0  0  0  0  0  0  0  0
    4.3023   -1.3416    0.1899 C   0  0  0  0  0  0  0  0  0  0  0  0
    4.6283   -1.7884   -1.1127 O   0  0  0  0  0  0  0  0  0  0  0  0
    2.0007   -1.7303    0.7680 O   0  0  0  0  0  0  0  0  0  0  0  0
    1.8208   -1.7830    2.1052 C   0  0  0  0  0  0  0  0  0  0  0  0
    1.9288   -2.8400    2.7308 O   0  0  0  0  0  0  0  0  0  0  0  0
   -0.6336    0.4955   -0.9260 H   0  0  0  0  0  0  0  0  0  0  0  0
   -0.3341   -1.0589   -0.0124 H   0  0  0  0  0  0  0  0  0  0  0  0
    0.8614    0.1237   -0.3838 H   0  0  0  0  0  0  0  0  0  0  0  0
    0.0977    1.0172    3.1427 H   0  0  0  0  0  0  0  0  0  0  0  0
    1.5459   -0.6273    3.8227 H   0  0  0  0  0  0  0  0  0  0  0  0
    2.6909    1.4009    2.9347 H   0  0  0  0  0  0  0  0  0  0  0  0
    4.3984   -0.8492    2.5863 H   0  0  0  0  0  0  0  0  0  0  0  0
    3.9238    1.1518    0.6411 H   0  0  0  0  0  0  0  0  0  0  0  0
    1.3380    1.3969    1.2041 H   0  0  0  0  0  0  0  0  0  0  0  0
    2.5683   -0.6192   -0.8284 H   0  0  0  0  0  0  0  0  0  0  0  0
    5.0340   -0.5765    0.4542 H   0  0  0  0  0  0  0  0  0  0  0  0
    4.3879   -2.1769    0.8892 H   0  0  0  0  0  0  0  0  0  0  0  0
    3.9701   -2.4576   -1.3684 H   0  0  0  0  0  0  0  0  0  0  0  0
  1  2  1  0  0  0  0
  1 16  1  0  0  0  0
  1 17  1  0  0  0  0
  1 18  1  0  0  0  0
  2  3  2  0  0  0  0
  2  4  1  0  0  0  0
  4 19  1  0  0  0  0
  5  4  1  0  0  0  0
  5  6  1  0  0  0  0
  5 14  1  0  0  0  0
  5 20  1  1  0  0  0
  6  8  1  0  0  0  0
  6 21  1  1  0  0  0
  6  7  1  0  0  0  0
  7 22  1  0  0  0  0
  8  9  1  0  0  0  0
  8 10  1  0  0  0  0
  8 23  1  6  0  0  0
  9 24  1  0  0  0  0
 10 13  1  0  0  0  0
 10 25  1  6  0  0  0
 10 11  1  0  0  0  0
 11 12  1  0  0  0  0
 11 26  1  0  0  0  0
 11 27  1  0  0  0  0
 12 28  1  0  0  0  0
 13 14  1  0  0  0  0
 14 15  2  0  0  0  0
M  END
>  <DRUGBANK_ID>
DB02813

>  <SECONDARY_ACCESSION_NUMBERS>
EXPT01570

>  <COMMON_NAME>
2-Acetamido-2-Deoxy-D-Glucono-1,5-Lactone

>  <CAS_NUMBER>
19026-22-3

>  <UNII>
09ICI1V6AX

$$$$
