
 OpenBabel10282417123D

 51 54  0  0  0  0  0  0  0  0999 V2000
    0.8764    0.2626   -0.0641 S   0  0  0  0  0  0  0  0  0  0  0  0
    0.7952   -2.5194   -1.0979 O   0  0  0  0  0  0  0  0  0  0  0  0
   -0.0224   -5.3609   -0.3613 O   0  0  0  0  0  0  0  0  0  0  0  0
    2.3934   -5.6381   -1.4744 O   0  0  0  0  0  0  0  0  0  0  0  0
    0.3866   -0.7799    1.1025 O   0  0  0  0  0  0  0  0  0  0  0  0
    4.5068    0.9579    0.9123 O   0  0  0  0  0  0  0  0  0  0  0  0
    0.4234    1.5822    0.2843 O   0  0  0  0  0  0  0  0  0  0  0  0
    0.5424   -0.2225   -1.3896 O   0  0  0  0  0  0  0  0  0  0  0  0
    2.8614   -2.5035   -2.2572 N   0  0  0  0  0  0  0  0  0  0  0  0
    3.0567    0.7581    3.4721 N   0  0  0  0  0  0  0  0  0  0  0  0
    2.5117    0.2688    0.0455 N   0  0  0  0  0  0  0  0  0  0  0  0
    4.0949   -1.3149   -3.6929 N   0  0  0  0  0  0  0  0  0  0  0  0
    4.1182   -2.1063   -0.2170 N   0  0  0  0  0  0  0  0  0  0  0  0
    6.0037   -0.6309   -0.5953 N   0  0  0  0  0  0  0  0  0  0  0  0
    6.4323    0.4399   -2.6314 N   0  0  0  0  0  0  0  0  0  0  0  0
    0.9673   -4.4684    0.1798 C   0  0  1  0  0  0  0  0  0  0  0  0
    2.1549   -4.4160   -0.7836 C   0  0  2  0  0  0  0  0  0  0  0  0
    0.4237   -3.0442    0.1800 C   0  0  1  0  0  0  0  0  0  0  0  0
    1.7651   -3.3219   -1.7634 C   0  0  1  0  0  0  0  0  0  0  0  0
    0.9273   -2.1003    1.2763 C   0  0  0  0  0  0  0  0  0  0  0  0
    2.6312    1.4390    2.2298 C   0  0  1  0  0  0  0  0  0  0  0  0
    3.1677    2.8444    2.3452 C   0  0  0  0  0  0  0  0  0  0  0  0
    2.8025    3.1561    3.7628 C   0  0  0  0  0  0  0  0  0  0  0  0
    3.9095   -1.9954   -1.5384 C   0  0  0  0  0  0  0  0  0  0  0  0
    2.9062    1.8127    4.4903 C   0  0  0  0  0  0  0  0  0  0  0  0
    3.0626   -2.1243   -3.5609 C   0  0  0  0  0  0  0  0  0  0  0  0
    3.2863    0.8801    1.0194 C   0  0  0  0  0  0  0  0  0  0  0  0
    4.6345   -1.2193   -2.4314 C   0  0  0  0  0  0  0  0  0  0  0  0
    5.7030   -0.4726   -1.9014 C   0  0  0  0  0  0  0  0  0  0  0  0
    5.2078   -1.4117    0.1652 C   0  0  0  0  0  0  0  0  0  0  0  0
    4.0525    0.5309    3.3895 H   0  0  0  0  0  0  0  0  0  0  0  0
    3.0012   -0.1175   -0.7443 H   0  0  0  0  0  0  0  0  0  0  0  0
    6.3470    0.4290   -3.6369 H   0  0  0  0  0  0  0  0  0  0  0  0
    7.2047    0.8961   -2.1696 H   0  0  0  0  0  0  0  0  0  0  0  0
   -0.3888   -4.9698   -1.1745 H   0  0  0  0  0  0  0  0  0  0  0  0
    1.5396   -5.9426   -1.8333 H   0  0  0  0  0  0  0  0  0  0  0  0
    1.2347   -4.8301    1.1771 H   0  0  0  0  0  0  0  0  0  0  0  0
    3.0523   -4.1759   -0.2163 H   0  0  0  0  0  0  0  0  0  0  0  0
   -0.6734   -3.0305    0.2196 H   0  0  0  0  0  0  0  0  0  0  0  0
    1.2500   -3.7203   -2.6447 H   0  0  0  0  0  0  0  0  0  0  0  0
    2.0162   -2.0763    1.3654 H   0  0  0  0  0  0  0  0  0  0  0  0
    0.5550   -2.4674    2.2462 H   0  0  0  0  0  0  0  0  0  0  0  0
    1.5482    1.4092    2.1988 H   0  0  0  0  0  0  0  0  0  0  0  0
    4.2600    2.8931    2.2198 H   0  0  0  0  0  0  0  0  0  0  0  0
    2.7283    3.5050    1.5913 H   0  0  0  0  0  0  0  0  0  0  0  0
    3.4593    3.9217    4.1769 H   0  0  0  0  0  0  0  0  0  0  0  0
    1.7685    3.5156    3.7746 H   0  0  0  0  0  0  0  0  0  0  0  0
    3.7640    1.7932    5.1674 H   0  0  0  0  0  0  0  0  0  0  0  0
    1.9992    1.6299    5.0734 H   0  0  0  0  0  0  0  0  0  0  0  0
    2.4321   -2.4565   -4.3755 H   0  0  0  0  0  0  0  0  0  0  0  0
    5.3746   -1.3570    1.2406 H   0  0  0  0  0  0  0  0  0  0  0  0
  1  5  1  0  0  0  0
  1  7  2  0  0  0  0
  1  8  2  0  0  0  0
  1 11  1  0  0  0  0
  2 18  1  0  0  0  0
  2 19  1  0  0  0  0
  3 35  1  0  0  0  0
  4 36  1  0  0  0  0
  5 20  1  0  0  0  0
  6 27  2  0  0  0  0
  9 24  1  0  0  0  0
  9 26  1  0  0  0  0
 10 21  1  0  0  0  0
 10 25  1  0  0  0  0
 10 31  1  0  0  0  0
 11 27  1  0  0  0  0
 11 32  1  0  0  0  0
 12 26  2  0  0  0  0
 12 28  1  0  0  0  0
 13 24  2  0  0  0  0
 13 30  1  0  0  0  0
 14 29  1  0  0  0  0
 14 30  2  0  0  0  0
 15 29  1  0  0  0  0
 15 33  1  0  0  0  0
 15 34  1  0  0  0  0
 16  3  1  0  0  0  0
 16 17  1  0  0  0  0
 16 18  1  0  0  0  0
 16 37  1  1  0  0  0
 17  4  1  0  0  0  0
 17 19  1  0  0  0  0
 17 38  1  1  0  0  0
 18 20  1  0  0  0  0
 18 39  1  1  0  0  0
 19 40  1  6  0  0  0
 19  9  1  0  0  0  0
 20 41  1  0  0  0  0
 20 42  1  0  0  0  0
 21 22  1  0  0  0  0
 21 27  1  0  0  0  0
 21 43  1  6  0  0  0
 22 23  1  0  0  0  0
 22 44  1  0  0  0  0
 22 45  1  0  0  0  0
 23 25  1  0  0  0  0
 23 46  1  0  0  0  0
 23 47  1  0  0  0  0
 24 28  1  0  0  0  0
 25 48  1  0  0  0  0
 25 49  1  0  0  0  0
 26 50  1  0  0  0  0
 28 29  2  0  0  0  0
 30 51  1  0  0  0  0
M  END
>  <DRUGBANK_ID>
DB02510

>  <SECONDARY_ACCESSION_NUMBERS>
EXPT02481

>  <COMMON_NAME>
5'-O-(L-Prolylsulfamoyl)adenosine

$$$$
