
 OpenBabel10282417203D

 46 46  0  0  1  0  0  0  0  0999 V2000
    0.0929    6.2950   -0.6333 C   0  0  0  0  0  0  0  0  0  0  0  0
    0.7183    5.1704    0.1589 C   0  0  0  0  0  0  0  0  0  0  0  0
   -0.2592    4.4059    1.0655 C   0  0  0  0  0  0  0  0  0  0  0  0
   -1.4695    3.8172    0.3328 C   0  0  0  0  0  0  0  0  0  0  0  0
   -1.1497    2.7476   -0.7448 C   0  0  2  0  0  0  0  0  0  0  0  0
    0.3299    2.4904   -0.9817 C   0  0  0  0  0  0  0  0  0  0  0  0
    1.1278    2.7308   -2.0488 C   0  0  0  0  0  0  0  0  0  0  0  0
    0.5996    3.0821   -3.4152 C   0  0  0  0  0  0  0  0  0  0  0  0
    2.6061    2.8097   -1.9196 C   0  0  0  0  0  0  0  0  0  0  0  0
    3.3415    2.7611   -0.7858 C   0  0  0  0  0  0  0  0  0  0  0  0
    4.7919    2.8028   -0.7726 C   0  0  0  0  0  0  0  0  0  0  0  0
    5.5716    2.7444    0.3235 C   0  0  0  0  0  0  0  0  0  0  0  0
    7.0769    2.6891    0.3210 C   0  0  0  0  0  0  0  0  0  0  0  0
    7.6678    2.4401    1.3709 O   0  0  0  0  0  0  0  0  0  0  0  0
    7.7210    2.8588   -0.8870 N   0  0  0  0  0  0  0  0  0  0  0  0
    8.9465    2.1621   -1.2240 C   0  0  0  0  0  0  0  0  0  0  0  0
    9.5542    2.9628   -2.3628 C   0  0  0  0  0  0  0  0  0  0  0  0
    8.3690    3.6804   -2.9765 C   0  0  0  0  0  0  0  0  0  0  0  0
    7.4928    3.9031   -1.7838 C   0  0  0  0  0  0  0  0  0  0  0  0
    6.6834    4.8219   -1.6911 O   0  0  0  0  0  0  0  0  0  0  0  0
   -1.8393    3.1900   -1.9031 O   0  0  0  0  0  0  0  0  0  0  0  0
   -0.7743    5.9575   -1.2086 H   0  0  0  0  0  0  0  0  0  0  0  0
    0.8136    6.6650   -1.3699 H   0  0  0  0  0  0  0  0  0  0  0  0
   -0.2077    7.1012    0.0322 H   0  0  0  0  0  0  0  0  0  0  0  0
    1.1477    4.5522   -0.6060 H   0  0  0  0  0  0  0  0  0  0  0  0
    1.5988    5.4818    0.7264 H   0  0  0  0  0  0  0  0  0  0  0  0
    0.2549    3.5895    1.5885 H   0  0  0  0  0  0  0  0  0  0  0  0
   -0.6088    5.0881    1.8470 H   0  0  0  0  0  0  0  0  0  0  0  0
   -2.1621    3.3764    1.0620 H   0  0  0  0  0  0  0  0  0  0  0  0
   -2.0526    4.6431   -0.0998 H   0  0  0  0  0  0  0  0  0  0  0  0
   -1.5994    1.7943   -0.4519 H   0  0  0  0  0  0  0  0  0  0  0  0
    0.8254    2.2222   -0.0491 H   0  0  0  0  0  0  0  0  0  0  0  0
    0.8587    4.1088   -3.6928 H   0  0  0  0  0  0  0  0  0  0  0  0
    0.9776    2.3768   -4.1576 H   0  0  0  0  0  0  0  0  0  0  0  0
   -0.4791    2.9970   -3.5106 H   0  0  0  0  0  0  0  0  0  0  0  0
    3.1298    3.0108   -2.8575 H   0  0  0  0  0  0  0  0  0  0  0  0
    2.8761    2.6701    0.1898 H   0  0  0  0  0  0  0  0  0  0  0  0
    5.2383    2.8648   -1.7577 H   0  0  0  0  0  0  0  0  0  0  0  0
    5.1416    2.6424    1.3170 H   0  0  0  0  0  0  0  0  0  0  0  0
    8.6760    1.1519   -1.5538 H   0  0  0  0  0  0  0  0  0  0  0  0
    9.6245    2.0699   -0.3690 H   0  0  0  0  0  0  0  0  0  0  0  0
   10.0916    2.3444   -3.0877 H   0  0  0  0  0  0  0  0  0  0  0  0
   10.2576    3.7039   -1.9650 H   0  0  0  0  0  0  0  0  0  0  0  0
    7.8329    3.0523   -3.6968 H   0  0  0  0  0  0  0  0  0  0  0  0
    8.6456    4.6314   -3.4345 H   0  0  0  0  0  0  0  0  0  0  0  0
   -1.4664    4.0643   -2.1177 H   0  0  0  0  0  0  0  0  0  0  0  0
  1  2  1  0  0  0  0
  1 22  1  0  0  0  0
  1 23  1  0  0  0  0
  1 24  1  0  0  0  0
  2  3  1  0  0  0  0
  2 25  1  0  0  0  0
  2 26  1  0  0  0  0
  3  4  1  0  0  0  0
  3 27  1  0  0  0  0
  3 28  1  0  0  0  0
  4 29  1  0  0  0  0
  4 30  1  0  0  0  0
  5 21  1  0  0  0  0
  5 31  1  1  0  0  0
  5  6  1  0  0  0  0
  5  4  1  0  0  0  0
  6  7  2  0  0  0  0
  6 32  1  0  0  0  0
  7  8  1  0  0  0  0
  7  9  1  0  0  0  0
  8 33  1  0  0  0  0
  8 34  1  0  0  0  0
  8 35  1  0  0  0  0
  9 10  2  0  0  0  0
  9 36  1  0  0  0  0
 10 11  1  0  0  0  0
 10 37  1  0  0  0  0
 11 12  2  0  0  0  0
 11 38  1  0  0  0  0
 12 13  1  0  0  0  0
 12 39  1  0  0  0  0
 13 14  2  0  0  0  0
 13 15  1  0  0  0  0
 15 16  1  0  0  0  0
 15 19  1  0  0  0  0
 16 17  1  0  0  0  0
 16 40  1  0  0  0  0
 16 41  1  0  0  0  0
 17 18  1  0  0  0  0
 17 42  1  0  0  0  0
 17 43  1  0  0  0  0
 18 19  1  0  0  0  0
 18 44  1  0  0  0  0
 18 45  1  0  0  0  0
 19 20  2  0  0  0  0
 21 46  1  0  0  0  0
M  END
>  <DRUGBANK_ID>
DB13459

>  <COMMON_NAME>
Pecilocin

>  <CAS_NUMBER>
19504-77-9

>  <UNII>
TSA7W27MF8

>  <SYNONYMS>
Pecilocin

$$$$
