
 OpenBabel10282417203D

 50 51  0  0  0  0  0  0  0  0999 V2000
   -2.6383    0.9443   -0.0097 Cl  0  0  0  0  0  0  0  0  0  0  0  0
    2.7332    1.0418   -0.0090 Cl  0  0  0  0  0  0  0  0  0  0  0  0
   -0.7073   -4.6848   -0.4965 O   0  0  0  0  0  0  0  0  0  0  0  0
   -5.0192   -3.7068   -4.0421 C   0  0  0  0  0  0  0  0  0  0  0  0
   -3.9514   -3.9411   -2.9567 C   0  0  0  0  0  0  0  0  0  0  0  0
   -2.5489   -3.1824   -1.0937 C   0  0  0  0  0  0  0  0  0  0  0  0
   -3.6238   -2.9842   -1.9809 C   0  0  0  0  0  0  0  0  0  0  0  0
   -1.7308   -4.2960   -1.2959 C   0  0  0  0  0  0  0  0  0  0  0  0
   -1.1276   -1.3487    0.0310 C   0  0  0  0  0  0  0  0  0  0  0  0
   -4.4136   -3.4129   -5.4999 C   0  0  0  0  0  0  0  0  0  0  0  0
   -2.3768   -2.2115    0.0547 C   0  0  0  0  0  0  0  0  0  0  0  0
   -3.1937   -5.1247   -2.9612 C   0  0  0  0  0  0  0  0  0  0  0  0
   -1.9912   -5.2086   -2.2905 C   0  0  0  0  0  0  0  0  0  0  0  0
   -3.4558   -4.4274   -6.2238 C   0  0  0  0  0  0  0  0  0  0  0  0
   -1.1587    0.0460    0.0035 C   0  0  0  0  0  0  0  0  0  0  0  0
   -5.9936   -4.9019   -4.0082 C   0  0  0  0  0  0  0  0  0  0  0  0
   -5.9129   -2.4789   -3.6977 C   0  0  0  0  0  0  0  0  0  0  0  0
    0.1484   -1.9526    0.0744 C   0  0  0  0  0  0  0  0  0  0  0  0
    0.0318    0.7960   -0.0024 C   0  0  0  0  0  0  0  0  0  0  0  0
    1.2697    0.1440    0.0046 C   0  0  0  0  0  0  0  0  0  0  0  0
    1.3293   -1.2201    0.0352 C   0  0  0  0  0  0  0  0  0  0  0  0
   -4.1135   -5.8138   -6.3536 C   0  0  0  0  0  0  0  0  0  0  0  0
   -3.1177   -4.0029   -7.6683 C   0  0  0  0  0  0  0  0  0  0  0  0
   -2.0624   -4.4257   -5.5788 C   0  0  0  0  0  0  0  0  0  0  0  0
   -0.9617   -4.4284    0.4048 H   0  0  0  0  0  0  0  0  0  0  0  0
   -4.2250   -2.0850   -1.8731 H   0  0  0  0  0  0  0  0  0  0  0  0
   -5.2669   -3.2340   -6.1734 H   0  0  0  0  0  0  0  0  0  0  0  0
   -3.8868   -2.4460   -5.4578 H   0  0  0  0  0  0  0  0  0  0  0  0
   -2.4223   -2.7821    0.9901 H   0  0  0  0  0  0  0  0  0  0  0  0
   -3.2776   -1.5853    0.0970 H   0  0  0  0  0  0  0  0  0  0  0  0
   -3.3850   -5.9282   -3.6623 H   0  0  0  0  0  0  0  0  0  0  0  0
   -1.2541   -5.9633   -2.5428 H   0  0  0  0  0  0  0  0  0  0  0  0
   -6.5281   -4.9301   -3.0515 H   0  0  0  0  0  0  0  0  0  0  0  0
   -6.7251   -4.8429   -4.8183 H   0  0  0  0  0  0  0  0  0  0  0  0
   -5.5111   -5.8749   -4.0612 H   0  0  0  0  0  0  0  0  0  0  0  0
   -6.3610   -2.5880   -2.7014 H   0  0  0  0  0  0  0  0  0  0  0  0
   -5.3503   -1.5383   -3.7117 H   0  0  0  0  0  0  0  0  0  0  0  0
   -6.7378   -2.3741   -4.4114 H   0  0  0  0  0  0  0  0  0  0  0  0
    0.3084   -3.0055    0.1296 H   0  0  0  0  0  0  0  0  0  0  0  0
   -0.0043    1.8741   -0.0150 H   0  0  0  0  0  0  0  0  0  0  0  0
    2.2732   -1.7683    0.0317 H   0  0  0  0  0  0  0  0  0  0  0  0
   -5.0941   -5.7297   -6.8422 H   0  0  0  0  0  0  0  0  0  0  0  0
   -3.5064   -6.5079   -6.9407 H   0  0  0  0  0  0  0  0  0  0  0  0
   -4.2640   -6.3235   -5.4104 H   0  0  0  0  0  0  0  0  0  0  0  0
   -2.5749   -3.0515   -7.6865 H   0  0  0  0  0  0  0  0  0  0  0  0
   -2.4476   -4.7560   -8.1120 H   0  0  0  0  0  0  0  0  0  0  0  0
   -3.9986   -3.9199   -8.3050 H   0  0  0  0  0  0  0  0  0  0  0  0
   -1.4454   -3.5802   -5.8987 H   0  0  0  0  0  0  0  0  0  0  0  0
   -2.0926   -4.2140   -4.5351 H   0  0  0  0  0  0  0  0  0  0  0  0
   -1.5228   -5.3628   -5.7329 H   0  0  0  0  0  0  0  0  0  0  0  0
  1 15  1  0  0  0  0
  2 20  1  0  0  0  0
  3  8  1  0  0  0  0
  3 25  1  0  0  0  0
  4  5  1  0  0  0  0
  4 10  1  0  0  0  0
  4 16  1  0  0  0  0
  4 17  1  0  0  0  0
  5  7  1  0  0  0  0
  5 12  2  0  0  0  0
  6  7  2  0  0  0  0
  6  8  1  0  0  0  0
  6 11  1  0  0  0  0
  7 26  1  0  0  0  0
  8 13  2  0  0  0  0
  9 11  1  0  0  0  0
  9 15  2  0  0  0  0
  9 18  1  0  0  0  0
 10 14  1  0  0  0  0
 10 27  1  0  0  0  0
 10 28  1  0  0  0  0
 11 29  1  0  0  0  0
 11 30  1  0  0  0  0
 12 13  1  0  0  0  0
 12 31  1  0  0  0  0
 13 32  1  0  0  0  0
 14 22  1  0  0  0  0
 14 23  1  0  0  0  0
 14 24  1  0  0  0  0
 15 19  1  0  0  0  0
 16 33  1  0  0  0  0
 16 34  1  0  0  0  0
 16 35  1  0  0  0  0
 17 36  1  0  0  0  0
 17 37  1  0  0  0  0
 17 38  1  0  0  0  0
 18 21  2  0  0  0  0
 18 39  1  0  0  0  0
 19 20  2  0  0  0  0
 19 40  1  0  0  0  0
 20 21  1  0  0  0  0
 21 41  1  0  0  0  0
 22 42  1  0  0  0  0
 22 43  1  0  0  0  0
 22 44  1  0  0  0  0
 23 45  1  0  0  0  0
 23 46  1  0  0  0  0
 23 47  1  0  0  0  0
 24 48  1  0  0  0  0
 24 49  1  0  0  0  0
 24 50  1  0  0  0  0
M  END
>  <DRUGBANK_ID>
DB13237

>  <COMMON_NAME>
Clofoctol

>  <CAS_NUMBER>
37693-01-9

>  <UNII>
704083NI0R

>  <SYNONYMS>
Clofoctol; Clofoctolum; Octofene

$$$$
