
 OpenBabel10282417223D

 42 43  0  0  0  0  0  0  0  0999 V2000
    1.3571   -0.8526    0.1559 C   0  0  0  0  0  0  0  0  0  0  0  0
    0.5476   -0.9073    1.4465 C   0  0  0  0  0  0  0  0  0  0  0  0
    0.7564    0.1662    2.4749 C   0  0  0  0  0  0  0  0  0  0  0  0
   -0.1414    1.3050    2.0992 C   0  0  0  0  0  0  0  0  0  0  0  0
   -1.5451    1.5926    2.4693 C   0  0  0  0  0  0  0  0  0  0  0  0
   -1.5894    1.8262    3.9538 C   0  0  0  0  0  0  0  0  0  0  0  0
   -0.9628    3.1178    4.2776 O   0  0  0  0  0  0  0  0  0  0  0  0
    0.4222    3.2116    4.4058 C   0  0  0  0  0  0  0  0  0  0  0  0
    0.8597    3.0429    5.6438 N   0  0  0  0  0  0  0  0  0  0  0  0
    2.5197    3.2347    5.5460 S   0  0  0  0  0  0  0  0  0  0  0  0
    2.7492    3.5340    3.9178 N   0  0  0  0  0  0  0  0  0  0  0  0
    1.5130    3.5941    3.3486 C   0  0  0  0  0  0  0  0  0  0  0  0
    1.3819    3.6920    1.8309 C   0  0  0  0  0  0  0  0  0  0  0  0
    2.0337    2.8757    0.9678 C   0  0  0  0  0  0  0  0  0  0  0  0
    1.4662    2.5359   -0.4002 C   0  0  0  0  0  0  0  0  0  0  0  0
    0.2923    3.3149   -0.9572 C   0  0  0  0  0  0  0  0  0  0  0  0
   -0.4209    4.1667   -0.0179 N   0  0  0  0  0  0  0  0  0  0  0  0
   -1.8598    3.9207   -0.0886 C   0  0  0  0  0  0  0  0  0  0  0  0
    0.1603    4.4587    1.3184 C   0  0  0  0  0  0  0  0  0  0  0  0
    1.3036    0.0133   -0.4802 H   0  0  0  0  0  0  0  0  0  0  0  0
    0.9559   -1.6148   -0.5103 H   0  0  0  0  0  0  0  0  0  0  0  0
    2.4223   -0.9965    0.3413 H   0  0  0  0  0  0  0  0  0  0  0  0
   -0.5181   -0.9085    1.2017 H   0  0  0  0  0  0  0  0  0  0  0  0
    0.7947   -1.8468    1.9330 H   0  0  0  0  0  0  0  0  0  0  0  0
    0.5329   -0.1547    3.4973 H   0  0  0  0  0  0  0  0  0  0  0  0
    1.8127    0.4866    2.5150 H   0  0  0  0  0  0  0  0  0  0  0  0
    0.3540    2.0283    2.6585 H   0  0  0  0  0  0  0  0  0  0  0  0
   -0.1041    1.5758    1.0783 H   0  0  0  0  0  0  0  0  0  0  0  0
   -1.8110    2.5722    2.0646 H   0  0  0  0  0  0  0  0  0  0  0  0
   -2.2034    0.8757    1.9748 H   0  0  0  0  0  0  0  0  0  0  0  0
   -2.6597    1.9193    4.1782 H   0  0  0  0  0  0  0  0  0  0  0  0
   -1.2029    0.9576    4.4968 H   0  0  0  0  0  0  0  0  0  0  0  0
    2.7878    2.1624    1.3229 H   0  0  0  0  0  0  0  0  0  0  0  0
    0.9527    1.6063   -0.2582 H   0  0  0  0  0  0  0  0  0  0  0  0
    2.2053    2.2405   -1.1477 H   0  0  0  0  0  0  0  0  0  0  0  0
   -0.4122    2.5634   -1.3734 H   0  0  0  0  0  0  0  0  0  0  0  0
    0.6165    3.8726   -1.8374 H   0  0  0  0  0  0  0  0  0  0  0  0
   -2.1461    2.9141    0.2299 H   0  0  0  0  0  0  0  0  0  0  0  0
   -2.4331    4.6559    0.4802 H   0  0  0  0  0  0  0  0  0  0  0  0
   -2.2097    3.9731   -1.1273 H   0  0  0  0  0  0  0  0  0  0  0  0
    0.4776    5.5049    1.2852 H   0  0  0  0  0  0  0  0  0  0  0  0
   -0.6251    4.4069    2.0717 H   0  0  0  0  0  0  0  0  0  0  0  0
  1  2  1  0  0  0  0
  1 20  1  0  0  0  0
  1 21  1  0  0  0  0
  1 22  1  0  0  0  0
  2  3  1  0  0  0  0
  2 23  1  0  0  0  0
  2 24  1  0  0  0  0
  3  4  1  0  0  0  0
  3 25  1  0  0  0  0
  3 26  1  0  0  0  0
  4  5  1  0  0  0  0
  4 27  1  0  0  0  0
  4 28  1  0  0  0  0
  5  6  1  0  0  0  0
  5 29  1  0  0  0  0
  5 30  1  0  0  0  0
  6  7  1  0  0  0  0
  6 31  1  0  0  0  0
  6 32  1  0  0  0  0
  7  8  1  0  0  0  0
  8  9  2  0  0  0  0
  8 12  1  0  0  0  0
  9 10  1  0  0  0  0
 10 11  1  0  0  0  0
 11 12  2  0  0  0  0
 12 13  1  0  0  0  0
 13 14  2  0  0  0  0
 13 19  1  0  0  0  0
 14 15  1  0  0  0  0
 14 33  1  0  0  0  0
 15 16  1  0  0  0  0
 15 34  1  0  0  0  0
 15 35  1  0  0  0  0
 16 17  1  0  0  0  0
 16 36  1  0  0  0  0
 16 37  1  0  0  0  0
 17 18  1  0  0  0  0
 17 19  1  0  0  0  0
 18 38  1  0  0  0  0
 18 39  1  0  0  0  0
 18 40  1  0  0  0  0
 19 41  1  0  0  0  0
 19 42  1  0  0  0  0
M  END
>  <DRUGBANK_ID>
DB15357

>  <COMMON_NAME>
Xanomeline

>  <CAS_NUMBER>
131986-45-3

>  <UNII>
9ORI6L73CJ

>  <SYNONYMS>
Xanomeline

$$$$
