
 OpenBabel10282417203D

 62 64  0  0  0  0  0  0  0  0999 V2000
    0.2721    1.0046   -0.1268 C   0  0  0  0  0  0  0  0  0  0  0  0
   -1.3343   -0.9733    3.9097 C   0  0  0  0  0  0  0  0  0  0  0  0
   -4.4356    0.0967    6.7547 C   0  0  0  0  0  0  0  0  0  0  0  0
   -6.3105    0.1514    4.1460 C   0  0  0  0  0  0  0  0  0  0  0  0
   -0.7769   -2.3016    0.5264 C   0  0  0  0  0  0  0  0  0  0  0  0
   -3.2016   -0.2594    5.9238 C   0  0  0  0  0  0  0  0  0  0  0  0
   -0.8113   -2.3336    1.9010 N   0  0  0  0  0  0  0  0  0  0  0  0
   -5.2840   -0.8604    7.2505 N   0  0  0  0  0  0  0  0  0  0  0  0
   -2.2308    1.9591    0.8718 O   0  0  0  0  0  0  0  0  0  0  0  0
   -4.0748   -0.1641    2.1826 C   0  0  0  0  0  0  0  0  0  0  0  0
   -4.7016    1.1741    2.5742 C   0  0  0  0  0  0  0  0  0  0  0  0
   -3.4418   -0.1790    0.7546 C   0  0  2  0  0  0  0  0  0  0  0  0
   -0.9757    0.2695    0.1218 N   0  0  0  0  0  0  0  0  0  0  0  0
   -5.7346   -1.2221    3.8210 C   0  0  0  0  0  0  0  0  0  0  0  0
   -2.4253    0.7250    5.2811 C   0  0  0  0  0  0  0  0  0  0  0  0
   -5.9456    1.4819   -2.4241 O   0  0  0  0  0  0  0  0  0  0  0  0
   -5.3400    1.2914    3.9160 C   0  0  0  0  0  0  0  0  0  0  0  0
   -2.9845   -1.6020    5.5638 C   0  0  0  0  0  0  0  0  0  0  0  0
   -5.0568   -1.3199    2.4571 C   0  0  0  0  0  0  0  0  0  0  0  0
   -7.1167    2.2565   -0.6741 O   0  0  0  0  0  0  0  0  0  0  0  0
   -0.3580   -1.3228    2.8327 C   0  0  0  0  0  0  0  0  0  0  0  0
   -0.3704   -1.0157   -0.2261 C   0  0  1  0  0  0  0  0  0  0  0  0
   -6.0608    1.8089   -1.1304 C   0  0  0  0  0  0  0  0  0  0  0  0
   -2.0931   -1.9522    4.5466 C   0  0  0  0  0  0  0  0  0  0  0  0
   -1.0937   -3.3449   -0.0611 O   0  0  0  0  0  0  0  0  0  0  0  0
   -2.1707    0.7546    0.5896 C   0  0  0  0  0  0  0  0  0  0  0  0
    0.9901   -0.3326    0.1063 C   0  0  0  0  0  0  0  0  0  0  0  0
   -4.7929    1.5789   -0.3643 C   0  0  0  0  0  0  0  0  0  0  0  0
   -1.5306    0.3763    4.2601 C   0  0  0  0  0  0  0  0  0  0  0  0
   -4.8557    1.3103    6.9674 N   0  0  0  0  0  0  0  0  0  0  0  0
   -4.4980    0.1356   -0.2388 N   0  0  0  0  0  0  0  0  0  0  0  0
   -0.4591   -1.1790   -1.3110 H   0  0  0  0  0  0  0  0  0  0  0  0
    0.3544    1.3853   -1.1495 H   0  0  0  0  0  0  0  0  0  0  0  0
    0.5058    1.7926    0.5934 H   0  0  0  0  0  0  0  0  0  0  0  0
   -7.1839    0.3151    3.5115 H   0  0  0  0  0  0  0  0  0  0  0  0
   -6.6675    0.1829    5.1777 H   0  0  0  0  0  0  0  0  0  0  0  0
   -1.0242   -3.2590    2.2540 H   0  0  0  0  0  0  0  0  0  0  0  0
   -5.4004   -1.7177    6.7277 H   0  0  0  0  0  0  0  0  0  0  0  0
   -6.1932   -0.4512    7.4663 H   0  0  0  0  0  0  0  0  0  0  0  0
   -3.2520   -0.3336    2.8380 H   0  0  0  0  0  0  0  0  0  0  0  0
   -3.9719    1.9841    2.4736 H   0  0  0  0  0  0  0  0  0  0  0  0
   -5.5777    1.3218    1.9552 H   0  0  0  0  0  0  0  0  0  0  0  0
   -3.1174   -1.2058    0.5565 H   0  0  0  0  0  0  0  0  0  0  0  0
   -5.0116   -1.4825    4.5690 H   0  0  0  0  0  0  0  0  0  0  0  0
   -6.4981   -1.9968    3.9320 H   0  0  0  0  0  0  0  0  0  0  0  0
   -2.6064    1.7876    5.4272 H   0  0  0  0  0  0  0  0  0  0  0  0
   -6.8069    1.7240   -2.8111 H   0  0  0  0  0  0  0  0  0  0  0  0
   -5.8413    2.2608    4.0114 H   0  0  0  0  0  0  0  0  0  0  0  0
   -4.5480    1.3491    4.6263 H   0  0  0  0  0  0  0  0  0  0  0  0
   -3.6223   -2.3960    5.9401 H   0  0  0  0  0  0  0  0  0  0  0  0
   -4.5168   -2.2748    2.3919 H   0  0  0  0  0  0  0  0  0  0  0  0
   -5.8510   -1.3461    1.7111 H   0  0  0  0  0  0  0  0  0  0  0  0
    0.5592   -1.6832    3.3036 H   0  0  0  0  0  0  0  0  0  0  0  0
   -0.1352   -0.4027    2.3120 H   0  0  0  0  0  0  0  0  0  0  0  0
   -2.0928   -2.9754    4.1770 H   0  0  0  0  0  0  0  0  0  0  0  0
    1.8277   -0.5703   -0.5542 H   0  0  0  0  0  0  0  0  0  0  0  0
    1.3881   -0.4359    1.1228 H   0  0  0  0  0  0  0  0  0  0  0  0
   -4.9484    2.1437    0.5477 H   0  0  0  0  0  0  0  0  0  0  0  0
   -3.9791    2.1058   -0.8546 H   0  0  0  0  0  0  0  0  0  0  0  0
   -1.1254    1.1729    3.6268 H   0  0  0  0  0  0  0  0  0  0  0  0
   -4.2873    2.0242    6.5102 H   0  0  0  0  0  0  0  0  0  0  0  0
   -5.3507   -0.3474    0.0512 H   0  0  0  0  0  0  0  0  0  0  0  0
  1 27  1  0  0  0  0
  1 33  1  0  0  0  0
  1 34  1  0  0  0  0
  2 29  2  0  0  0  0
  2 21  1  0  0  0  0
  3 30  2  0  0  0  0
  3  8  1  0  0  0  0
  4 14  1  0  0  0  0
  4 35  1  0  0  0  0
  4 36  1  0  0  0  0
  5 25  2  0  0  0  0
  6  3  1  0  0  0  0
  6 18  1  0  0  0  0
  7  5  1  0  0  0  0
  7 37  1  0  0  0  0
  8 38  1  0  0  0  0
  8 39  1  0  0  0  0
 10 11  1  0  0  0  0
 10 40  1  0  0  0  0
 11 17  1  0  0  0  0
 11 41  1  0  0  0  0
 11 42  1  0  0  0  0
 12 43  1  6  0  0  0
 12 10  1  0  0  0  0
 12 31  1  0  0  0  0
 13  1  1  0  0  0  0
 13 26  1  0  0  0  0
 14 44  1  0  0  0  0
 14 45  1  0  0  0  0
 15  6  2  0  0  0  0
 15 46  1  0  0  0  0
 16 47  1  0  0  0  0
 17  4  1  0  0  0  0
 17 48  1  0  0  0  0
 17 49  1  0  0  0  0
 18 24  2  0  0  0  0
 18 50  1  0  0  0  0
 19 10  1  0  0  0  0
 19 14  1  0  0  0  0
 19 51  1  0  0  0  0
 19 52  1  0  0  0  0
 21  7  1  0  0  0  0
 21 53  1  0  0  0  0
 21 54  1  0  0  0  0
 22 13  1  0  0  0  0
 22  5  1  0  0  0  0
 22 32  1  6  0  0  0
 23 20  2  0  0  0  0
 23 16  1  0  0  0  0
 24  2  1  0  0  0  0
 24 55  1  0  0  0  0
 26 12  1  0  0  0  0
 26  9  2  0  0  0  0
 27 22  1  0  0  0  0
 27 56  1  0  0  0  0
 27 57  1  0  0  0  0
 28 23  1  0  0  0  0
 28 58  1  0  0  0  0
 28 59  1  0  0  0  0
 29 15  1  0  0  0  0
 29 60  1  0  0  0  0
 30 61  1  0  0  0  0
 31 28  1  0  0  0  0
 31 62  1  0  0  0  0
M  END
>  <DRUGBANK_ID>
DB13616

>  <COMMON_NAME>
Melagatran

>  <CAS_NUMBER>
159776-70-2

>  <UNII>
2A9QP32MD4

>  <SYNONYMS>
Melagatrán; Mélagatran; Melagatran; Melagatranum

$$$$
