
 OpenBabel10282417193D

 34 36  0  0  1  0  0  0  0  0999 V2000
    2.3329    0.0112    0.0606 C   0  0  0  0  0  0  0  0  0  0  0  0
    1.6111    1.1194    0.0297 N   0  0  0  0  0  0  0  0  0  0  0  0
    0.3073    0.6901    0.0360 C   0  0  0  0  0  0  0  0  0  0  0  0
   -0.9338    1.4372    0.0071 C   0  0  0  0  0  0  0  0  0  0  0  0
   -1.0384    2.6650   -0.0022 O   0  0  0  0  0  0  0  0  0  0  0  0
   -2.0499    0.6164   -0.0008 N   0  0  0  0  0  0  0  0  0  0  0  0
   -2.0090   -0.7639    0.0059 C   0  0  0  0  0  0  0  0  0  0  0  0
   -0.8956   -1.4517    0.0285 N   0  0  0  0  0  0  0  0  0  0  0  0
    0.2313   -0.6867    0.0605 C   0  0  0  0  0  0  0  0  0  0  0  0
    1.5461   -1.1150    0.1070 N   0  0  0  0  0  0  0  0  0  0  0  0
    1.9257   -2.5032   -0.0554 C   0  0  2  0  0  0  0  0  0  0  0  0
    2.9090   -3.1907    0.9498 C   0  0  0  0  0  0  0  0  0  0  0  0
    3.3987   -4.0350   -0.2866 C   0  0  1  0  0  0  0  0  0  0  0  0
    3.0779   -2.7422   -1.1093 C   0  0  1  0  0  0  0  0  0  0  0  0
    2.6400   -2.8991   -2.5517 C   0  0  0  0  0  0  0  0  0  0  0  0
    2.2748   -1.6227   -3.0605 O   0  0  0  0  0  0  0  0  0  0  0  0
    4.8019   -4.6174   -0.3409 C   0  0  0  0  0  0  0  0  0  0  0  0
    4.8997   -5.6930    0.5870 O   0  0  0  0  0  0  0  0  0  0  0  0
   -3.2127   -1.3846   -0.0134 N   0  0  0  0  0  0  0  0  0  0  0  0
    3.4139   -0.0089    0.0169 H   0  0  0  0  0  0  0  0  0  0  0  0
   -2.9333    1.0981   -0.0117 H   0  0  0  0  0  0  0  0  0  0  0  0
    1.0390   -3.1383   -0.1729 H   0  0  0  0  0  0  0  0  0  0  0  0
    3.6880   -2.5888    1.4308 H   0  0  0  0  0  0  0  0  0  0  0  0
    2.4236   -3.8071    1.7155 H   0  0  0  0  0  0  0  0  0  0  0  0
    2.6967   -4.8516   -0.5215 H   0  0  0  0  0  0  0  0  0  0  0  0
    3.9182   -2.0322   -1.0631 H   0  0  0  0  0  0  0  0  0  0  0  0
    3.4682   -3.2674   -3.1646 H   0  0  0  0  0  0  0  0  0  0  0  0
    1.7957   -3.5853   -2.6658 H   0  0  0  0  0  0  0  0  0  0  0  0
    1.4938   -1.3058   -2.5735 H   0  0  0  0  0  0  0  0  0  0  0  0
    5.0002   -5.0374   -1.3337 H   0  0  0  0  0  0  0  0  0  0  0  0
    5.5847   -3.8862   -0.1206 H   0  0  0  0  0  0  0  0  0  0  0  0
    4.7783   -5.3330    1.4815 H   0  0  0  0  0  0  0  0  0  0  0  0
   -3.2378   -2.3963    0.0176 H   0  0  0  0  0  0  0  0  0  0  0  0
   -4.0973   -0.8984    0.0139 H   0  0  0  0  0  0  0  0  0  0  0  0
  1  2  2  0  0  0  0
  1 10  1  0  0  0  0
  1 20  1  0  0  0  0
  2  3  1  0  0  0  0
  3  4  1  0  0  0  0
  3  9  2  0  0  0  0
  4  5  2  0  0  0  0
  4  6  1  0  0  0  0
  6  7  1  0  0  0  0
  6 21  1  0  0  0  0
  7  8  2  0  0  0  0
  7 19  1  0  0  0  0
  8  9  1  0  0  0  0
  9 10  1  0  0  0  0
 11 10  1  0  0  0  0
 11 12  1  0  0  0  0
 11 14  1  0  0  0  0
 11 22  1  6  0  0  0
 12 13  1  0  0  0  0
 12 23  1  0  0  0  0
 12 24  1  0  0  0  0
 13 14  1  0  0  0  0
 13 17  1  0  0  0  0
 13 25  1  6  0  0  0
 14 15  1  0  0  0  0
 14 26  1  1  0  0  0
 15 16  1  0  0  0  0
 15 27  1  0  0  0  0
 15 28  1  0  0  0  0
 16 29  1  0  0  0  0
 17 18  1  0  0  0  0
 17 30  1  0  0  0  0
 17 31  1  0  0  0  0
 18 32  1  0  0  0  0
 19 33  1  0  0  0  0
 19 34  1  0  0  0  0
M  END
>  <DRUGBANK_ID>
DB12531

>  <COMMON_NAME>
Lobucavir

>  <CAS_NUMBER>
127759-89-1

>  <UNII>
8U5PYQ1R2E

>  <SYNONYMS>
Lobucavir

$$$$
