
 OpenBabel10282417123D

 86 91  0  0  1  0  0  0  0  0999 V2000
    1.1681    0.3459   -0.1639 C   0  0  0  0  0  0  0  0  0  0  0  0
    2.8638    8.2470    4.7217 C   0  0  0  0  0  0  0  0  0  0  0  0
    5.2087    0.7625    1.9990 C   0  0  0  0  0  0  0  0  0  0  0  0
    0.2858    8.7383    0.1262 C   0  0  0  0  0  0  0  0  0  0  0  0
    3.1269    4.2746    0.6495 C   0  0  0  0  0  0  0  0  0  0  0  0
    0.6561   12.7327    1.8479 C   0  0  0  0  0  0  0  0  0  0  0  0
    0.2822    1.1529    0.8214 C   0  0  2  0  0  0  0  0  0  0  0  0
    3.3842    9.6700    4.3384 C   0  0  2  0  0  0  0  0  0  0  0  0
    4.8676    3.1673    1.3620 C   0  0  0  0  0  0  0  0  0  0  0  0
   -0.2733   11.3036    0.5665 C   0  0  0  0  0  0  0  0  0  0  0  0
   -0.4794    2.2292    0.1043 C   0  0  2  0  0  0  0  0  0  0  0  0
    3.0085   10.8269    5.2441 C   0  0  2  0  0  0  0  0  0  0  0  0
    0.5824    3.3028    0.0399 C   0  0  2  0  0  0  0  0  0  0  0  0
    2.0562   11.6988    4.4302 C   0  0  2  0  0  0  0  0  0  0  0  0
    6.2911    2.7294    1.6396 C   0  0  0  0  0  0  0  0  0  0  0  0
   -1.0572   10.5651   -0.3409 C   0  0  0  0  0  0  0  0  0  0  0  0
    3.7836    2.4565    1.6762 C   0  0  0  0  0  0  0  0  0  0  0  0
    0.7608   10.6333    1.2014 C   0  0  0  0  0  0  0  0  0  0  0  0
    1.2583    3.1424    1.4310 C   0  0  2  0  0  0  0  0  0  0  0  0
    2.4477   11.4179    2.9867 C   0  0  2  0  0  0  0  0  0  0  0  0
    7.5717    3.3769    1.5516 N   0  0  0  0  0  0  0  0  0  0  0  0
   -2.1222   11.1083   -1.0226 N   0  0  0  0  0  0  0  0  0  0  0  0
    6.3742    1.4159    1.8265 N   0  0  0  0  0  0  0  0  0  0  0  0
   -0.7597    9.2625   -0.5433 N   0  0  0  0  0  0  0  0  0  0  0  0
    3.8910    1.1359    1.9758 N   0  0  0  0  0  0  0  0  0  0  0  0
    1.0983    9.3565    1.0061 N   0  0  0  0  0  0  0  0  0  0  0  0
    4.2998    3.8960    0.3128 N   0  0  0  0  0  0  0  0  0  0  0  0
   -0.3209   12.6172    0.9754 N   0  0  0  0  0  0  0  0  0  0  0  0
    2.6705    3.2719    1.4102 N   0  0  0  0  0  0  0  0  0  0  0  0
    1.3326   11.5471    2.0464 N   0  0  0  0  0  0  0  0  0  0  0  0
   -1.6156    2.7099    0.8041 O   0  0  0  0  0  0  0  0  0  0  0  0
    4.2064   11.5896    5.4983 O   0  0  0  0  0  0  0  0  0  0  0  0
    0.1142    4.5948   -0.3082 O   0  0  0  0  0  0  0  0  0  0  0  0
    2.2089   13.0895    4.7262 O   0  0  0  0  0  0  0  0  0  0  0  0
    1.4695    0.8502   -3.9327 O   0  0  0  0  0  0  0  0  0  0  0  0
   -0.5698    1.8850   -2.8543 O   0  0  0  0  0  0  0  0  0  0  0  0
    2.8045    7.9967    2.2242 O   0  0  0  0  0  0  0  0  0  0  0  0
    3.5546    5.8557    2.6408 O   0  0  0  0  0  0  0  0  0  0  0  0
    3.5834    1.4808   -2.9348 O   0  0  0  0  0  0  0  0  0  0  0  0
    3.4719    3.7349   -4.1468 O   0  0  0  0  0  0  0  0  0  0  0  0
    4.3976    5.9051   -0.6813 O   0  0  0  0  0  0  0  0  0  0  0  0
    5.7997    5.6481    1.9646 O   0  0  0  0  0  0  0  0  0  0  0  0
    7.3663    3.3315   -1.7242 O   0  0  0  0  0  0  0  0  0  0  0  0
    5.8913    5.1733   -2.1069 O   0  0  0  0  0  0  0  0  0  0  0  0
    1.4465    0.7545   -1.5157 O   0  0  0  0  0  0  0  0  0  0  0  0
    3.8620    7.2436    4.3359 O   0  0  0  0  0  0  0  0  0  0  0  0
    1.0340    1.8168    1.8415 O   0  0  0  0  0  0  0  0  0  0  0  0
    3.0571   10.1132    2.9828 O   0  0  0  0  0  0  0  0  0  0  0  0
    1.7667    3.1308   -2.7178 O   0  0  0  0  0  0  0  0  0  0  0  0
    4.5100    7.2828    0.9373 O   0  0  0  0  0  0  0  0  0  0  0  0
    5.2258    3.0977   -2.7905 O   0  0  0  0  0  0  0  0  0  0  0  0
    6.4540    4.5451    0.1022 O   0  0  0  0  0  0  0  0  0  0  0  0
    0.9070    1.7214   -2.7083 P   0  0  3  0  0  0  0  0  0  0  0  0
    4.1860    7.2632    2.6366 P   0  0  3  0  0  0  0  0  0  0  0  0
    3.4963    3.1143   -2.7542 P   0  0  3  0  0  0  0  0  0  0  0  0
    5.4820    5.9140    0.5198 P   0  0  3  0  0  0  0  0  0  0  0  0
    5.8399    3.8214   -1.3441 P   0  0  3  0  0  0  0  0  0  0  0  0
   -0.3400    0.4947    1.4253 H   0  0  0  0  0  0  0  0  0  0  0  0
    4.4734    9.5633    4.3169 H   0  0  0  0  0  0  0  0  0  0  0  0
   -0.8660    1.8095   -0.8073 H   0  0  0  0  0  0  0  0  0  0  0  0
    2.5949   10.5170    6.2075 H   0  0  0  0  0  0  0  0  0  0  0  0
    1.3517    3.0710   -0.6818 H   0  0  0  0  0  0  0  0  0  0  0  0
    1.0162   11.4130    4.6175 H   0  0  0  0  0  0  0  0  0  0  0  0
    0.8506    3.8929    2.1168 H   0  0  0  0  0  0  0  0  0  0  0  0
    3.2102   12.1196    2.6245 H   0  0  0  0  0  0  0  0  0  0  0  0
    0.7604   -0.6772   -0.1514 H   0  0  0  0  0  0  0  0  0  0  0  0
    2.1720    0.2069    0.2600 H   0  0  0  0  0  0  0  0  0  0  0  0
    1.9049    7.9827    4.2525 H   0  0  0  0  0  0  0  0  0  0  0  0
    2.7219    8.1372    5.7996 H   0  0  0  0  0  0  0  0  0  0  0  0
    5.3778   -0.2850    2.2103 H   0  0  0  0  0  0  0  0  0  0  0  0
    0.4970    7.6881   -0.0645 H   0  0  0  0  0  0  0  0  0  0  0  0
    2.5477    5.1623    0.3067 H   0  0  0  0  0  0  0  0  0  0  0  0
    0.9121   13.6432    2.3762 H   0  0  0  0  0  0  0  0  0  0  0  0
    7.5269    4.3078    1.1149 H   0  0  0  0  0  0  0  0  0  0  0  0
    8.3375    2.8646    1.1317 H   0  0  0  0  0  0  0  0  0  0  0  0
   -2.3333   12.0874   -0.8972 H   0  0  0  0  0  0  0  0  0  0  0  0
   -2.6186   10.5294   -1.6811 H   0  0  0  0  0  0  0  0  0  0  0  0
   -1.3328    3.1486    1.6193 H   0  0  0  0  0  0  0  0  0  0  0  0
    4.7123   11.6773    4.6699 H   0  0  0  0  0  0  0  0  0  0  0  0
   -0.7908    4.7083    0.0363 H   0  0  0  0  0  0  0  0  0  0  0  0
    3.1660   13.2691    4.8240 H   0  0  0  0  0  0  0  0  0  0  0  0
    2.4175    0.6494   -3.7781 H   0  0  0  0  0  0  0  0  0  0  0  0
    2.8771    8.9470    2.0035 H   0  0  0  0  0  0  0  0  0  0  0  0
    3.7969    1.0072   -2.1067 H   0  0  0  0  0  0  0  0  0  0  0  0
    4.8186    6.2807   -1.5017 H   0  0  0  0  0  0  0  0  0  0  0  0
    7.6674    2.4452   -1.4933 H   0  0  0  0  0  0  0  0  0  0  0  0
  1 66  1  0  0  0  0
  1 67  1  0  0  0  0
  2 68  1  0  0  0  0
  2 69  1  0  0  0  0
  3 70  1  0  0  0  0
  4 71  1  0  0  0  0
  5 72  1  0  0  0  0
  6 73  1  0  0  0  0
  7  1  1  0  0  0  0
  7 58  1  1  0  0  0
  8  2  1  0  0  0  0
  8 59  1  1  0  0  0
 11  7  1  0  0  0  0
 11 31  1  0  0  0  0
 11 60  1  6  0  0  0
 12  8  1  0  0  0  0
 12 32  1  0  0  0  0
 12 61  1  1  0  0  0
 13 11  1  0  0  0  0
 13 33  1  0  0  0  0
 13 62  1  6  0  0  0
 14 12  1  0  0  0  0
 14 34  1  0  0  0  0
 14 63  1  1  0  0  0
 15  9  2  0  0  0  0
 16 10  2  0  0  0  0
 17  9  1  0  0  0  0
 18 10  1  0  0  0  0
 19 13  1  0  0  0  0
 19 64  1  1  0  0  0
 19 29  1  0  0  0  0
 20 14  1  0  0  0  0
 20 65  1  6  0  0  0
 20 30  1  0  0  0  0
 21 15  1  0  0  0  0
 21 74  1  0  0  0  0
 21 75  1  0  0  0  0
 22 16  1  0  0  0  0
 22 76  1  0  0  0  0
 22 77  1  0  0  0  0
 23  3  2  0  0  0  0
 23 15  1  0  0  0  0
 24  4  2  0  0  0  0
 24 16  1  0  0  0  0
 25  3  1  0  0  0  0
 25 17  2  0  0  0  0
 26  4  1  0  0  0  0
 26 18  2  0  0  0  0
 27  5  2  0  0  0  0
 27  9  1  0  0  0  0
 28  6  2  0  0  0  0
 28 10  1  0  0  0  0
 29  5  1  0  0  0  0
 29 17  1  0  0  0  0
 30  6  1  0  0  0  0
 30 18  1  0  0  0  0
 31 78  1  0  0  0  0
 32 79  1  0  0  0  0
 33 80  1  0  0  0  0
 34 81  1  0  0  0  0
 35 82  1  0  0  0  0
 37 83  1  0  0  0  0
 39 84  1  0  0  0  0
 41 85  1  0  0  0  0
 43 86  1  0  0  0  0
 45  1  1  0  0  0  0
 46  2  1  0  0  0  0
 47  7  1  0  0  0  0
 47 19  1  0  0  0  0
 48  8  1  0  0  0  0
 48 20  1  0  0  0  0
 53 35  1  0  0  0  0
 53 36  2  0  0  0  0
 53 45  1  0  0  0  0
 53 49  1  0  0  0  0
 54 37  1  0  0  0  0
 54 38  2  0  0  0  0
 54 46  1  0  0  0  0
 54 50  1  0  0  0  0
 55 39  1  0  0  0  0
 55 40  2  0  0  0  0
 55 49  1  0  0  0  0
 55 51  1  0  0  0  0
 56 41  1  0  0  0  0
 56 42  2  0  0  0  0
 56 50  1  0  0  0  0
 56 52  1  0  0  0  0
 57 43  1  0  0  0  0
 57 44  2  0  0  0  0
 57 51  1  0  0  0  0
 57 52  1  0  0  0  0
M  END
>  <DRUGBANK_ID>
DB01717

>  <SECONDARY_ACCESSION_NUMBERS>
EXPT00535

>  <COMMON_NAME>
Bis(Adenosine)-5'-Pentaphosphate

$$$$
