
 OpenBabel10282417123D

151153  0  0  0  0  0  0  0  0999 V2000
  -13.7742    1.3669   -9.0647 P   0  0  0  0  0  0  0  0  0  0  0  0
  -10.1903   -0.4042   -7.8348 O   0  0  0  0  0  0  0  0  0  0  0  0
   -8.9680    1.4632   -8.4163 O   0  0  0  0  0  0  0  0  0  0  0  0
  -12.2944    1.8451   -8.4789 O   0  0  0  0  0  0  0  0  0  0  0  0
  -11.8889   -1.9348   -9.9167 O   0  0  0  0  0  0  0  0  0  0  0  0
   -7.6753   -1.6909   -7.3950 O   0  0  0  0  0  0  0  0  0  0  0  0
  -14.7084    1.9044   -7.9681 O   0  0  0  0  0  0  0  0  0  0  0  0
  -13.7551   -0.0224   -8.0340 O   0  0  0  0  0  0  0  0  0  0  0  0
  -13.7933    2.7562  -10.0954 O   0  0  0  0  0  0  0  0  0  0  0  0
  -16.5954   -0.1850   -9.0673 O   0  0  0  0  0  0  0  0  0  0  0  0
  -16.6944    2.6829  -12.5776 O   0  0  0  0  0  0  0  0  0  0  0  0
   -3.8132   -1.1177  -14.3357 O   0  0  0  0  0  0  0  0  0  0  0  0
    1.2296   -2.5741  -13.6195 O   0  0  0  0  0  0  0  0  0  0  0  0
    2.2984   -5.9384  -14.3302 O   0  0  0  0  0  0  0  0  0  0  0  0
    0.8143   -4.1012  -16.1755 O   0  0  0  0  0  0  0  0  0  0  0  0
    3.4577   -7.7287  -11.7782 O   0  0  0  0  0  0  0  0  0  0  0  0
   -4.5551   -1.3592  -12.2084 N   0  0  0  0  0  0  0  0  0  0  0  0
   -0.4371   -4.4129  -14.3214 N   0  0  0  0  0  0  0  0  0  0  0  0
    3.2038   -3.9407  -11.1252 N   0  0  0  0  0  0  0  0  0  0  0  0
  -19.5186   11.0379   -4.7108 N   0  0  0  0  0  0  0  0  0  0  0  0
   -9.5630    0.7628   -7.3074 C   0  0  1  0  0  0  0  0  0  0  0  0
  -10.6500    1.6071   -6.6004 C   0  0  0  0  0  0  0  0  0  0  0  0
  -11.9080    1.1268   -7.3107 C   0  0  2  0  0  0  0  0  0  0  0  0
  -11.6163   -0.2908   -7.8732 C   0  0  1  0  0  0  0  0  0  0  0  0
   -8.5248    0.2941   -6.2853 C   0  0  0  0  0  0  0  0  0  0  0  0
   -7.8724    0.7597   -9.0396 C   0  0  2  0  0  0  0  0  0  0  0  0
  -12.3316   -0.6513   -9.5291 C   0  0  2  0  0  0  0  0  0  0  0  0
   -7.3389   -0.3989   -6.8991 C   0  0  2  0  0  0  0  0  0  0  0  0
  -10.7495    1.3220   -5.0600 C   0  0  0  0  0  0  0  0  0  0  0  0
  -10.4406    3.1125   -6.7328 C   0  0  0  0  0  0  0  0  0  0  0  0
   -6.7749    0.4795   -7.9962 C   0  0  2  0  0  0  0  0  0  0  0  0
  -14.1752   -0.8452   -9.9874 C   0  0  0  0  0  0  0  0  0  0  0  0
   -7.2978    1.5584  -10.2277 C   0  0  0  0  0  0  0  0  0  0  0  0
   -6.2305    1.7999   -7.4209 C   0  0  0  0  0  0  0  0  0  0  0  0
  -15.5661    0.2411   -9.9673 C   0  0  1  0  0  0  0  0  0  0  0  0
   -6.1722    0.8121  -10.8943 C   0  0  0  0  0  0  0  0  0  0  0  0
  -15.5131    1.0621  -11.3146 C   0  0  1  0  0  0  0  0  0  0  0  0
  -10.4860   -2.0369   -9.9164 C   0  0  0  0  0  0  0  0  0  0  0  0
   -6.1850    0.4474  -12.1805 C   0  0  0  0  0  0  0  0  0  0  0  0
  -16.3078    2.5122  -11.2208 C   0  0  1  0  0  0  0  0  0  0  0  0
   -5.1583   -0.2910  -12.8062 C   0  0  0  0  0  0  0  0  0  0  0  0
  -14.0313    1.2409  -12.0358 C   0  0  0  0  0  0  0  0  0  0  0  0
  -15.5487    3.9665  -10.7026 C   0  0  1  0  0  0  0  0  0  0  0  0
   -4.7035   -0.1215  -14.0845 C   0  0  0  0  0  0  0  0  0  0  0  0
   -3.8116   -1.8552  -13.1761 C   0  0  0  0  0  0  0  0  0  0  0  0
  -16.4185    5.1314  -10.7828 C   0  0  0  0  0  0  0  0  0  0  0  0
  -14.9662    4.1092   -9.2187 C   0  0  0  0  0  0  0  0  0  0  0  0
   -3.1236   -3.1716  -13.1969 C   0  0  2  0  0  0  0  0  0  0  0  0
  -16.6786    5.9684   -9.7470 C   0  0  0  0  0  0  0  0  0  0  0  0
  -17.5178    7.0842  -10.0185 C   0  0  0  0  0  0  0  0  0  0  0  0
   -1.7441   -3.0851  -12.5484 C   0  0  0  0  0  0  0  0  0  0  0  0
   -3.0892   -3.7487  -14.6017 C   0  0  0  0  0  0  0  0  0  0  0  0
  -16.1752    5.8569   -8.2747 C   0  0  0  0  0  0  0  0  0  0  0  0
   -0.8421   -4.2673  -12.8902 C   0  0  0  0  0  0  0  0  0  0  0  0
  -17.8014    7.8899   -8.9982 C   0  0  0  0  0  0  0  0  0  0  0  0
  -18.0219    7.2276  -11.4301 C   0  0  0  0  0  0  0  0  0  0  0  0
    1.8653   -3.7868  -14.0431 C   0  0  2  0  0  0  0  0  0  0  0  0
    0.7325   -4.0932  -14.9510 C   0  0  0  0  0  0  0  0  0  0  0  0
    2.0776   -5.0590  -13.1890 C   0  0  2  0  0  0  0  0  0  0  0  0
    3.2532   -5.0982  -12.0972 C   0  0  2  0  0  0  0  0  0  0  0  0
  -18.6433    8.9974   -9.1032 C   0  0  0  0  0  0  0  0  0  0  0  0
    3.2552   -6.4319  -11.1979 C   0  0  0  0  0  0  0  0  0  0  0  0
  -18.9101    9.7833   -8.0696 C   0  0  0  0  0  0  0  0  0  0  0  0
    4.3022   -3.8787  -10.1772 C   0  0  0  0  0  0  0  0  0  0  0  0
    3.2488   -2.6526  -11.7810 C   0  0  0  0  0  0  0  0  0  0  0  0
  -19.7735   10.9290   -8.2016 C   0  0  0  0  0  0  0  0  0  0  0  0
    2.3809   -8.1012  -12.5939 C   0  0  0  0  0  0  0  0  0  0  0  0
  -20.1634   11.6357   -7.1322 C   0  0  0  0  0  0  0  0  0  0  0  0
  -20.2504   11.3491   -9.5743 C   0  0  0  0  0  0  0  0  0  0  0  0
  -19.8068   11.3143   -5.7727 C   0  0  0  0  0  0  0  0  0  0  0  0
  -11.9578   -1.0603   -7.1616 H   0  0  0  0  0  0  0  0  0  0  0  0
   -8.4304   -1.5913   -8.0009 H   0  0  0  0  0  0  0  0  0  0  0  0
  -13.7818   -1.0000   -8.0417 H   0  0  0  0  0  0  0  0  0  0  0  0
  -14.6300    2.4915  -10.3877 H   0  0  0  0  0  0  0  0  0  0  0  0
  -16.4126    0.2352   -8.1678 H   0  0  0  0  0  0  0  0  0  0  0  0
  -15.9998    3.2080  -13.0086 H   0  0  0  0  0  0  0  0  0  0  0  0
    1.7691   -1.8460  -13.9628 H   0  0  0  0  0  0  0  0  0  0  0  0
    1.4213   -6.3361  -14.5473 H   0  0  0  0  0  0  0  0  0  0  0  0
   -1.1007   -4.5440  -15.0636 H   0  0  0  0  0  0  0  0  0  0  0  0
  -12.7219    1.1494   -6.5618 H   0  0  0  0  0  0  0  0  0  0  0  0
   -8.1625    1.1757   -5.7484 H   0  0  0  0  0  0  0  0  0  0  0  0
   -8.9738   -0.4012   -5.5701 H   0  0  0  0  0  0  0  0  0  0  0  0
   -8.2646   -0.1732   -9.4591 H   0  0  0  0  0  0  0  0  0  0  0  0
  -11.8795    0.1391  -10.1588 H   0  0  0  0  0  0  0  0  0  0  0  0
   -6.5876   -0.5643   -6.1225 H   0  0  0  0  0  0  0  0  0  0  0  0
   -9.8325    1.6336   -4.5383 H   0  0  0  0  0  0  0  0  0  0  0  0
  -11.5541    1.8932   -4.5841 H   0  0  0  0  0  0  0  0  0  0  0  0
  -10.9168    0.2635   -4.8319 H   0  0  0  0  0  0  0  0  0  0  0  0
  -10.3690    3.4142   -7.7796 H   0  0  0  0  0  0  0  0  0  0  0  0
  -11.2775    3.6591   -6.2823 H   0  0  0  0  0  0  0  0  0  0  0  0
   -9.5202    3.4165   -6.2227 H   0  0  0  0  0  0  0  0  0  0  0  0
   -5.9588   -0.0891   -8.4496 H   0  0  0  0  0  0  0  0  0  0  0  0
  -14.1273   -1.1300  -11.0288 H   0  0  0  0  0  0  0  0  0  0  0  0
  -14.5466   -1.7128   -9.4267 H   0  0  0  0  0  0  0  0  0  0  0  0
   -8.0996    1.7837  -10.9404 H   0  0  0  0  0  0  0  0  0  0  0  0
   -6.9231    2.5343   -9.9037 H   0  0  0  0  0  0  0  0  0  0  0  0
   -5.1850    1.9277   -7.7073 H   0  0  0  0  0  0  0  0  0  0  0  0
   -6.7857    2.6728   -7.7818 H   0  0  0  0  0  0  0  0  0  0  0  0
   -6.2738    1.8374   -6.3300 H   0  0  0  0  0  0  0  0  0  0  0  0
  -15.6982    1.1927   -9.4575 H   0  0  0  0  0  0  0  0  0  0  0  0
   -5.2968    0.5475  -10.3003 H   0  0  0  0  0  0  0  0  0  0  0  0
  -16.0371    0.3662  -11.9534 H   0  0  0  0  0  0  0  0  0  0  0  0
  -10.0235   -1.1863  -10.4301 H   0  0  0  0  0  0  0  0  0  0  0  0
  -10.1196   -2.1538   -8.9016 H   0  0  0  0  0  0  0  0  0  0  0  0
  -10.2435   -2.9696  -10.4029 H   0  0  0  0  0  0  0  0  0  0  0  0
   -7.0299    0.7292  -12.7985 H   0  0  0  0  0  0  0  0  0  0  0  0
  -17.1834    2.3805  -10.5766 H   0  0  0  0  0  0  0  0  0  0  0  0
  -13.2973    0.4634  -11.8069 H   0  0  0  0  0  0  0  0  0  0  0  0
  -14.1816    1.2990  -13.1030 H   0  0  0  0  0  0  0  0  0  0  0  0
  -13.4117    2.1430  -11.8803 H   0  0  0  0  0  0  0  0  0  0  0  0
  -14.7445    4.1687  -11.4425 H   0  0  0  0  0  0  0  0  0  0  0  0
   -4.9168    0.5738  -14.8809 H   0  0  0  0  0  0  0  0  0  0  0  0
  -16.7593    5.2660  -11.8092 H   0  0  0  0  0  0  0  0  0  0  0  0
  -14.1399    3.7226   -8.5806 H   0  0  0  0  0  0  0  0  0  0  0  0
  -14.2856    4.9677   -9.2696 H   0  0  0  0  0  0  0  0  0  0  0  0
  -15.7182    3.6562   -8.5759 H   0  0  0  0  0  0  0  0  0  0  0  0
   -3.7214   -3.8656  -12.5935 H   0  0  0  0  0  0  0  0  0  0  0  0
   -1.2338   -2.1423  -12.7801 H   0  0  0  0  0  0  0  0  0  0  0  0
   -1.8780   -3.0733  -11.4520 H   0  0  0  0  0  0  0  0  0  0  0  0
   -2.7853   -4.8006  -14.5421 H   0  0  0  0  0  0  0  0  0  0  0  0
   -4.0488   -3.7736  -15.1094 H   0  0  0  0  0  0  0  0  0  0  0  0
   -2.4044   -3.1552  -15.2255 H   0  0  0  0  0  0  0  0  0  0  0  0
  -16.5515    4.9317   -7.8297 H   0  0  0  0  0  0  0  0  0  0  0  0
  -15.0946    6.0377   -8.2147 H   0  0  0  0  0  0  0  0  0  0  0  0
  -16.4380    6.5157   -7.4704 H   0  0  0  0  0  0  0  0  0  0  0  0
    0.0148   -4.1188  -12.2304 H   0  0  0  0  0  0  0  0  0  0  0  0
   -1.3056   -5.2149  -12.5972 H   0  0  0  0  0  0  0  0  0  0  0  0
  -17.4259    7.7644   -7.9972 H   0  0  0  0  0  0  0  0  0  0  0  0
  -17.1811    7.3605  -12.1231 H   0  0  0  0  0  0  0  0  0  0  0  0
  -18.6005    6.3406  -11.7184 H   0  0  0  0  0  0  0  0  0  0  0  0
  -18.6754    8.0756  -11.5775 H   0  0  0  0  0  0  0  0  0  0  0  0
    2.7835   -3.5855  -14.6026 H   0  0  0  0  0  0  0  0  0  0  0  0
    1.2124   -5.4679  -12.6550 H   0  0  0  0  0  0  0  0  0  0  0  0
    4.1914   -5.0864  -12.6611 H   0  0  0  0  0  0  0  0  0  0  0  0
  -19.0605    9.1454  -10.0736 H   0  0  0  0  0  0  0  0  0  0  0  0
    4.0993   -6.3750  -10.5065 H   0  0  0  0  0  0  0  0  0  0  0  0
    2.3494   -6.4684  -10.5781 H   0  0  0  0  0  0  0  0  0  0  0  0
  -18.4636    9.5387   -7.1030 H   0  0  0  0  0  0  0  0  0  0  0  0
    5.2512   -3.8038  -10.7137 H   0  0  0  0  0  0  0  0  0  0  0  0
    4.1769   -2.9861   -9.5502 H   0  0  0  0  0  0  0  0  0  0  0  0
    4.3088   -4.7142   -9.4826 H   0  0  0  0  0  0  0  0  0  0  0  0
    4.0185   -2.5698  -12.5571 H   0  0  0  0  0  0  0  0  0  0  0  0
    2.2719   -2.5817  -12.1439 H   0  0  0  0  0  0  0  0  0  0  0  0
    3.2161   -1.7613  -11.1497 H   0  0  0  0  0  0  0  0  0  0  0  0
    1.3915   -7.9772  -12.1434 H   0  0  0  0  0  0  0  0  0  0  0  0
    2.4680   -7.3958  -13.3438 H   0  0  0  0  0  0  0  0  0  0  0  0
    2.5114   -8.9767  -13.2289 H   0  0  0  0  0  0  0  0  0  0  0  0
  -20.8026   12.4945   -7.2731 H   0  0  0  0  0  0  0  0  0  0  0  0
  -21.3406   11.2913   -9.6239 H   0  0  0  0  0  0  0  0  0  0  0  0
  -19.9139   12.3646   -9.7918 H   0  0  0  0  0  0  0  0  0  0  0  0
  -19.8859   10.7500  -10.4111 H   0  0  0  0  0  0  0  0  0  0  0  0
  1  4  1  0  0  0  0
  1  7  2  0  0  0  0
  1  8  1  0  0  0  0
  1  9  1  0  0  0  0
  2 24  1  0  0  0  0
  3 26  1  0  0  0  0
  5 38  1  0  0  0  0
  6 72  1  0  0  0  0
  8 73  1  0  0  0  0
  9 74  1  0  0  0  0
 10 75  1  0  0  0  0
 11 76  1  0  0  0  0
 12 44  1  0  0  0  0
 12 45  1  0  0  0  0
 13 77  1  0  0  0  0
 14 78  1  0  0  0  0
 15 58  2  0  0  0  0
 16 62  1  0  0  0  0
 16 67  1  0  0  0  0
 17 41  1  0  0  0  0
 17 45  2  0  0  0  0
 18 54  1  0  0  0  0
 18 58  1  0  0  0  0
 18 79  1  0  0  0  0
 19 60  1  0  0  0  0
 19 64  1  0  0  0  0
 19 65  1  0  0  0  0
 20 70  3  0  0  0  0
 21  2  1  6  0  0  0
 21  3  1  0  0  0  0
 21 22  1  0  0  0  0
 21 25  1  0  0  0  0
 22 23  1  0  0  0  0
 22 29  1  0  0  0  0
 22 30  1  0  0  0  0
 23 24  1  0  0  0  0
 23 80  1  1  0  0  0
 23  4  1  0  0  0  0
 24 27  1  0  0  0  0
 24 71  1  1  0  0  0
 25 28  1  0  0  0  0
 25 81  1  0  0  0  0
 25 82  1  0  0  0  0
 26 31  1  0  0  0  0
 26 33  1  0  0  0  0
 26 83  1  6  0  0  0
 27  5  1  0  0  0  0
 27 32  1  0  0  0  0
 27 84  1  6  0  0  0
 28  6  1  0  0  0  0
 28 31  1  0  0  0  0
 28 85  1  1  0  0  0
 29 86  1  0  0  0  0
 29 87  1  0  0  0  0
 29 88  1  0  0  0  0
 30 89  1  0  0  0  0
 30 90  1  0  0  0  0
 30 91  1  0  0  0  0
 31 92  1  6  0  0  0
 31 34  1  0  0  0  0
 32 93  1  0  0  0  0
 32 94  1  0  0  0  0
 33 36  1  0  0  0  0
 33 95  1  0  0  0  0
 33 96  1  0  0  0  0
 34 97  1  0  0  0  0
 34 98  1  0  0  0  0
 34 99  1  0  0  0  0
 35 37  1  0  0  0  0
 35100  1  1  0  0  0
 35 32  1  0  0  0  0
 35 10  1  0  0  0  0
 36 39  2  0  0  0  0
 36101  1  0  0  0  0
 37 42  1  0  0  0  0
 37102  1  6  0  0  0
 38103  1  0  0  0  0
 38104  1  0  0  0  0
 38105  1  0  0  0  0
 39 41  1  0  0  0  0
 39106  1  0  0  0  0
 40 43  1  0  0  0  0
 40107  1  1  0  0  0
 40 37  1  0  0  0  0
 40 11  1  0  0  0  0
 41 44  2  0  0  0  0
 42108  1  0  0  0  0
 42109  1  0  0  0  0
 42110  1  0  0  0  0
 43 46  1  0  0  0  0
 43 47  1  0  0  0  0
 43111  1  6  0  0  0
 44112  1  0  0  0  0
 46 49  2  0  0  0  0
 46113  1  0  0  0  0
 47114  1  0  0  0  0
 47115  1  0  0  0  0
 47116  1  0  0  0  0
 48 52  1  0  0  0  0
 48117  1  1  0  0  0
 48 51  1  0  0  0  0
 48 45  1  0  0  0  0
 49 50  1  0  0  0  0
 49 53  1  0  0  0  0
 50 55  2  0  0  0  0
 50 56  1  0  0  0  0
 51 54  1  0  0  0  0
 51118  1  0  0  0  0
 51119  1  0  0  0  0
 52120  1  0  0  0  0
 52121  1  0  0  0  0
 52122  1  0  0  0  0
 53123  1  0  0  0  0
 53124  1  0  0  0  0
 53125  1  0  0  0  0
 54126  1  0  0  0  0
 54127  1  0  0  0  0
 55 61  1  0  0  0  0
 55128  1  0  0  0  0
 56129  1  0  0  0  0
 56130  1  0  0  0  0
 56131  1  0  0  0  0
 57 13  1  0  0  0  0
 57 58  1  0  0  0  0
 57 59  1  0  0  0  0
 57132  1  6  0  0  0
 59 14  1  0  0  0  0
 59 60  1  0  0  0  0
 59133  1  1  0  0  0
 60 62  1  0  0  0  0
 60134  1  6  0  0  0
 61 63  2  0  0  0  0
 61135  1  0  0  0  0
 62136  1  0  0  0  0
 62137  1  0  0  0  0
 63 66  1  0  0  0  0
 63138  1  0  0  0  0
 64139  1  0  0  0  0
 64140  1  0  0  0  0
 64141  1  0  0  0  0
 65142  1  0  0  0  0
 65143  1  0  0  0  0
 65144  1  0  0  0  0
 66 68  2  0  0  0  0
 66 69  1  0  0  0  0
 67145  1  0  0  0  0
 67146  1  0  0  0  0
 67147  1  0  0  0  0
 68 70  1  0  0  0  0
 68148  1  0  0  0  0
 69149  1  0  0  0  0
 69150  1  0  0  0  0
 69151  1  0  0  0  0
M  END
>  <DRUGBANK_ID>
DB02860

>  <SECONDARY_ACCESSION_NUMBERS>
EXPT01080

>  <COMMON_NAME>
Calyculin A

>  <CAS_NUMBER>
101932-71-2

>  <UNII>
7D07U14TK3

>  <SYNONYMS>
(-)-calyculin A

$$$$
