I19
 OpenBabel10282417173D

 63 66  0  0  0  0  0  0  0  0999 V2000
    1.0640   -0.0636   -0.0491 C   0  0  0  0  0  0  0  0  0  0  0  0
    0.4735    0.9281    0.9617 C   0  0  0  0  0  0  0  0  0  0  0  0
    1.1828    2.2416    0.6621 C   0  0  0  0  0  0  0  0  0  0  0  0
   -0.9984    0.9945    0.9262 N   0  0  0  0  0  0  0  0  0  0  0  0
   -1.8371   -0.1230    0.9880 C   0  0  0  0  0  0  0  0  0  0  0  0
   -1.3980   -1.5479    1.0129 C   0  0  0  0  0  0  0  0  0  0  0  0
   -3.1025    0.2347    1.0076 N   0  0  0  0  0  0  0  0  0  0  0  0
   -3.1093    1.5946    0.9715 C   0  0  0  0  0  0  0  0  0  0  0  0
   -1.8320    2.1216    0.9165 C   0  0  0  0  0  0  0  0  0  0  0  0
   -1.4705    3.5454    0.9638 C   0  0  0  0  0  0  0  0  0  0  0  0
   -0.7799    4.0308   -0.1028 N   0  0  0  0  0  0  0  0  0  0  0  0
   -0.2409    5.2616    0.0156 C   0  0  0  0  0  0  0  0  0  0  0  0
    0.6113    5.7181   -0.9886 N   0  0  0  0  0  0  0  0  0  0  0  0
    1.2765    6.9492   -1.0399 C   0  0  0  0  0  0  0  0  0  0  0  0
    2.0836    7.3861    0.0121 C   0  0  0  0  0  0  0  0  0  0  0  0
    2.6863    8.6490   -0.0124 C   0  0  0  0  0  0  0  0  0  0  0  0
    2.5331    9.5072   -1.1058 C   0  0  0  0  0  0  0  0  0  0  0  0
    1.7389    9.0617   -2.1749 C   0  0  0  0  0  0  0  0  0  0  0  0
    1.0979    7.8083   -2.1276 C   0  0  0  0  0  0  0  0  0  0  0  0
    3.0307   10.9319   -1.0844 C   0  0  0  0  0  0  0  0  0  0  0  0
    2.6478   11.7193   -1.9555 O   0  0  0  0  0  0  0  0  0  0  0  0
    3.7438   11.3612    0.0162 N   0  0  0  0  0  0  0  0  0  0  0  0
    4.9955   10.8282    0.5127 C   0  0  0  0  0  0  0  0  0  0  0  0
    4.8519   10.9911    2.0151 C   0  0  0  0  0  0  0  0  0  0  0  0
    4.1097   12.3431    2.1590 C   0  0  1  0  0  0  0  0  0  0  0  0
    3.3251   12.4950    0.8219 C   0  0  0  0  0  0  0  0  0  0  0  0
    3.3329   12.4648    3.4126 N   0  0  0  0  0  0  0  0  0  0  0  0
    2.7646   13.8134    3.5333 C   0  0  0  0  0  0  0  0  0  0  0  0
    2.2537   11.4752    3.5132 C   0  0  0  0  0  0  0  0  0  0  0  0
   -0.4574    6.0545    1.0774 N   0  0  0  0  0  0  0  0  0  0  0  0
   -1.2298    5.5793    2.0681 C   0  0  0  0  0  0  0  0  0  0  0  0
   -1.7515    4.3152    2.0722 C   0  0  0  0  0  0  0  0  0  0  0  0
   -2.4446    3.8646    3.1239 F   0  0  0  0  0  0  0  0  0  0  0  0
    4.8946   13.1149    2.1805 H   0  0  0  0  0  0  0  0  0  0  0  0
    0.6479    0.1123   -1.0472 H   0  0  0  0  0  0  0  0  0  0  0  0
    0.8937   -1.1006    0.2289 H   0  0  0  0  0  0  0  0  0  0  0  0
    2.1535    0.0266   -0.1041 H   0  0  0  0  0  0  0  0  0  0  0  0
    0.7350    0.6196    1.9832 H   0  0  0  0  0  0  0  0  0  0  0  0
    0.9172    2.5535   -0.3538 H   0  0  0  0  0  0  0  0  0  0  0  0
    0.9306    3.0000    1.4048 H   0  0  0  0  0  0  0  0  0  0  0  0
    2.2712    2.1633    0.6735 H   0  0  0  0  0  0  0  0  0  0  0  0
   -0.9350   -1.8275    0.0628 H   0  0  0  0  0  0  0  0  0  0  0  0
   -0.7069   -1.7380    1.8403 H   0  0  0  0  0  0  0  0  0  0  0  0
   -2.2503   -2.2250    1.1239 H   0  0  0  0  0  0  0  0  0  0  0  0
   -4.0418    2.1436    0.9980 H   0  0  0  0  0  0  0  0  0  0  0  0
    0.7720    5.0569   -1.7323 H   0  0  0  0  0  0  0  0  0  0  0  0
    2.2292    6.7557    0.8863 H   0  0  0  0  0  0  0  0  0  0  0  0
    3.2427    8.9420    0.8654 H   0  0  0  0  0  0  0  0  0  0  0  0
    1.5729    9.7034   -3.0387 H   0  0  0  0  0  0  0  0  0  0  0  0
    0.3969    7.5374   -2.9150 H   0  0  0  0  0  0  0  0  0  0  0  0
    5.8030   11.4654    0.1344 H   0  0  0  0  0  0  0  0  0  0  0  0
    5.1809    9.8063    0.1801 H   0  0  0  0  0  0  0  0  0  0  0  0
    4.2635   10.1528    2.3944 H   0  0  0  0  0  0  0  0  0  0  0  0
    5.8093   10.9686    2.5435 H   0  0  0  0  0  0  0  0  0  0  0  0
    2.2380   12.4616    0.9356 H   0  0  0  0  0  0  0  0  0  0  0  0
    3.5729   13.4419    0.3296 H   0  0  0  0  0  0  0  0  0  0  0  0
    2.0772   14.0473    2.7129 H   0  0  0  0  0  0  0  0  0  0  0  0
    2.2122   13.9209    4.4738 H   0  0  0  0  0  0  0  0  0  0  0  0
    3.5559   14.5711    3.5451 H   0  0  0  0  0  0  0  0  0  0  0  0
    1.5293   11.5565    2.6979 H   0  0  0  0  0  0  0  0  0  0  0  0
    2.6381   10.4524    3.5231 H   0  0  0  0  0  0  0  0  0  0  0  0
    1.7080   11.5889    4.4554 H   0  0  0  0  0  0  0  0  0  0  0  0
   -1.3953    6.2642    2.8907 H   0  0  0  0  0  0  0  0  0  0  0  0
  1  2  1  0  0  0  0
  1 35  1  0  0  0  0
  1 36  1  0  0  0  0
  1 37  1  0  0  0  0
  2  3  1  0  0  0  0
  2  4  1  0  0  0  0
  2 38  1  0  0  0  0
  3 39  1  0  0  0  0
  3 40  1  0  0  0  0
  3 41  1  0  0  0  0
  4  5  1  0  0  0  0
  4  9  1  0  0  0  0
  5  6  1  0  0  0  0
  5  7  2  0  0  0  0
  6 42  1  0  0  0  0
  6 43  1  0  0  0  0
  6 44  1  0  0  0  0
  7  8  1  0  0  0  0
  8  9  2  0  0  0  0
  8 45  1  0  0  0  0
  9 10  1  0  0  0  0
 10 11  1  0  0  0  0
 10 32  2  0  0  0  0
 11 12  2  0  0  0  0
 12 13  1  0  0  0  0
 12 30  1  0  0  0  0
 13 14  1  0  0  0  0
 13 46  1  0  0  0  0
 14 15  1  0  0  0  0
 14 19  2  0  0  0  0
 15 16  2  0  0  0  0
 15 47  1  0  0  0  0
 16 17  1  0  0  0  0
 16 48  1  0  0  0  0
 17 18  2  0  0  0  0
 17 20  1  0  0  0  0
 18 19  1  0  0  0  0
 18 49  1  0  0  0  0
 19 50  1  0  0  0  0
 20 21  2  0  0  0  0
 20 22  1  0  0  0  0
 22 23  1  0  0  0  0
 22 26  1  0  0  0  0
 23 24  1  0  0  0  0
 23 51  1  0  0  0  0
 23 52  1  0  0  0  0
 24 25  1  0  0  0  0
 24 53  1  0  0  0  0
 24 54  1  0  0  0  0
 25 26  1  0  0  0  0
 25 27  1  0  0  0  0
 25 34  1  1  0  0  0
 26 55  1  0  0  0  0
 26 56  1  0  0  0  0
 27 28  1  0  0  0  0
 27 29  1  0  0  0  0
 28 57  1  0  0  0  0
 28 58  1  0  0  0  0
 28 59  1  0  0  0  0
 29 60  1  0  0  0  0
 29 61  1  0  0  0  0
 29 62  1  0  0  0  0
 30 31  2  0  0  0  0
 31 32  1  0  0  0  0
 31 63  1  0  0  0  0
 32 33  1  0  0  0  0
M  END
>  <DRUGBANK_ID>
DB07936

>  <COMMON_NAME>
N-(4-{[(3S)-3-(dimethylamino)pyrrolidin-1-yl]carbonyl}phenyl)-5-fluoro-4-[2-methyl-1-(1-methylethyl)-1H-imidazol-5-yl]pyrimidin-2-amine

$$$$
