
 OpenBabel10282417123D

 13 12  0  0  0  0  0  0  0  0999 V2000
    0.8921    0.0670   -0.0068 O   0  0  0  0  0  0  0  0  0  0  0  0
    0.4749    1.0530    0.9261 C   0  0  0  0  0  0  0  0  0  0  0  0
    1.0342    0.7728    2.3163 C   0  0  0  0  0  0  0  0  0  0  0  0
    2.5575    0.7877    2.3756 C   0  0  0  0  0  0  0  0  0  0  0  0
    3.0758    2.0601    2.0167 O   0  0  0  0  0  0  0  0  0  0  0  0
    1.8598    0.1118   -0.1002 H   0  0  0  0  0  0  0  0  0  0  0  0
    0.7711    2.0402    0.5578 H   0  0  0  0  0  0  0  0  0  0  0  0
   -0.6192    1.0329    0.9571 H   0  0  0  0  0  0  0  0  0  0  0  0
    0.6390    1.5275    3.0062 H   0  0  0  0  0  0  0  0  0  0  0  0
    0.6849   -0.2098    2.6543 H   0  0  0  0  0  0  0  0  0  0  0  0
    2.8896    0.5745    3.3968 H   0  0  0  0  0  0  0  0  0  0  0  0
    2.9992    0.0264    1.7250 H   0  0  0  0  0  0  0  0  0  0  0  0
    2.8484    2.2419    1.0881 H   0  0  0  0  0  0  0  0  0  0  0  0
  1  2  1  0  0  0  0
  1  6  1  0  0  0  0
  2  3  1  0  0  0  0
  2  7  1  0  0  0  0
  2  8  1  0  0  0  0
  3  4  1  0  0  0  0
  3  9  1  0  0  0  0
  3 10  1  0  0  0  0
  4  5  1  0  0  0  0
  4 11  1  0  0  0  0
  4 12  1  0  0  0  0
  5 13  1  0  0  0  0
M  END
>  <DRUGBANK_ID>
DB02774

>  <SECONDARY_ACCESSION_NUMBERS>
EXPT02534

>  <COMMON_NAME>
1,3-Propanediol

>  <CAS_NUMBER>
504-63-2

>  <UNII>
5965N8W85T

>  <SYNONYMS>
1,3-Dihydroxypropane; 1,3-propylene glycol; 2-(hydroxymethyl)ethanol; beta-Propylene glycol; Propane-1,3-diol; Trimethylene glycol; Î²-propylene glycol

$$$$
