
 OpenBabel10282417213D

176177  0  0  0  0  0  0  0  0999 V2000
    0.3192   -1.5925    0.6698 C   0  0  0  0  0  0  0  0  0  0  0  0
    1.0448   -3.9220    1.0071 N   0  0  0  0  0  0  0  0  0  0  0  0
    2.1212   -6.4325    1.4875 C   0  0  2  0  0  0  0  0  0  0  0  0
    2.8144   -9.3477    1.6615 C   0  0  0  0  0  0  0  0  0  0  0  0
    3.2410  -12.0597    1.6429 N   0  0  0  0  0  0  0  0  0  0  0  0
    3.5859  -14.6216    2.1201 C   0  0  1  0  0  0  0  0  0  0  0  0
    2.4911  -16.6641    2.7246 C   0  0  0  0  0  0  0  0  0  0  0  0
    1.2697  -15.9880    2.8008 N   0  0  0  0  0  0  0  0  0  0  0  0
   -0.1053  -16.2957    3.1314 C   0  0  1  0  0  0  0  0  0  0  0  0
   -0.7670  -15.6405    4.3035 C   0  0  0  0  0  0  0  0  0  0  0  0
    2.0189   -3.7317    2.0028 C   0  0  3  0  0  0  0  0  0  0  0  0
    3.6209  -11.0423    1.5613 O   0  0  0  0  0  0  0  0  0  0  0  0
    4.6185  -16.5360    3.2964 C   0  0  0  0  0  0  0  0  0  0  0  0
    6.1846  -16.5283    3.2037 C   0  0  0  0  0  0  0  0  0  0  0  0
    4.4559  -16.3588    4.9644 C   0  0  0  0  0  0  0  0  0  0  0  0
    2.2993  -17.6757    3.7841 O   0  0  0  0  0  0  0  0  0  0  0  0
   -1.0005  -15.8286    2.0004 C   0  0  0  0  0  0  0  0  0  0  0  0
    0.2044  -15.6003    5.4341 C   0  0  0  0  0  0  0  0  0  0  0  0
    1.4331  -14.8148    5.0419 C   0  0  0  0  0  0  0  0  0  0  0  0
    1.0892  -13.4176    4.6960 C   0  0  0  0  0  0  0  0  0  0  0  0
    0.4351  -12.7379    5.7805 N   0  0  0  0  0  0  0  0  0  0  0  0
   -1.9706  -14.8080    2.1903 N   0  0  0  0  0  0  0  0  0  0  0  0
   -2.8112  -14.3188    1.1572 C   0  0  2  0  0  0  0  0  0  0  0  0
   -1.4075  -16.7840    1.3426 O   0  0  0  0  0  0  0  0  0  0  0  0
    0.2994    0.9133    0.4972 C   0  0  1  0  0  0  0  0  0  0  0  0
   -0.8934   -0.2342    0.3930 O   0  0  0  0  0  0  0  0  0  0  0  0
    0.2774    2.6405   -0.7843 N   0  0  0  0  0  0  0  0  0  0  0  0
   -0.0625    2.7965    1.5778 C   0  0  3  0  0  0  0  0  0  0  0  0
   -0.0762    2.1747    2.9029 C   0  0  0  0  0  0  0  0  0  0  0  0
    0.9544    4.0998    1.6937 C   0  0  0  0  0  0  0  0  0  0  0  0
    0.6132    5.2934    1.6378 O   0  0  0  0  0  0  0  0  0  0  0  0
    2.2817    3.7941    1.8931 O   0  0  0  0  0  0  0  0  0  0  0  0
   -0.0551    4.1522   -0.8386 C   0  0  0  0  0  0  0  0  0  0  0  0
   -0.0564    4.9493   -2.1325 C   0  0  0  0  0  0  0  0  0  0  0  0
   -0.3712    6.2655   -2.1682 C   0  0  0  0  0  0  0  0  0  0  0  0
    0.8222   12.3382   -2.8385 C   0  0  0  0  0  0  0  0  0  0  0  0
   -0.3894    7.0517   -3.4316 C   0  0  0  0  0  0  0  0  0  0  0  0
   -0.7067    8.3572   -3.4496 C   0  0  0  0  0  0  0  0  0  0  0  0
   -1.0449    9.0835   -2.1729 C   0  0  0  0  0  0  0  0  0  0  0  0
   -0.0773   10.2162   -1.9308 C   0  0  0  0  0  0  0  0  0  0  0  0
   -0.1540   11.2152   -3.0684 C   0  0  0  0  0  0  0  0  0  0  0  0
   -1.5575   11.7672   -3.1656 C   0  0  0  0  0  0  0  0  0  0  0  0
    1.6067   -1.6297    3.1438 C   0  0  0  0  0  0  0  0  0  0  0  0
    2.8548   -1.5934    2.0156 N   0  0  0  0  0  0  0  0  0  0  0  0
    3.8714   -1.5434    3.0238 C   0  0  0  0  0  0  0  0  0  0  0  0
    5.3385   -1.4903    3.1048 C   0  0  1  0  0  0  0  0  0  0  0  0
    3.4732   -2.6762    2.8777 O   0  0  0  0  0  0  0  0  0  0  0  0
    5.6149   -2.6442    2.3274 N   0  0  0  0  0  0  0  0  0  0  0  0
    5.2966   -4.1060    2.3843 C   0  0  0  0  0  0  0  0  0  0  0  0
    6.0345   -5.2608    1.6790 C   0  0  1  0  0  0  0  0  0  0  0  0
    4.1586   -4.1642    1.9566 O   0  0  0  0  0  0  0  0  0  0  0  0
    5.1403   -5.8647    0.6292 N   0  0  0  0  0  0  0  0  0  0  0  0
    7.4463   -4.8387    1.7107 C   0  0  0  0  0  0  0  0  0  0  0  0
    7.2448   -3.5947    1.6342 C   0  0  0  0  0  0  0  0  0  0  0  0
    8.0719   -4.9496    3.0516 C   0  0  0  0  0  0  0  0  0  0  0  0
    7.1412   -1.8574    1.4578 C   0  0  0  0  0  0  0  0  0  0  0  0
    7.3591   -0.6580    1.9265 C   0  0  1  0  0  0  0  0  0  0  0  0
    5.9512   -0.3484    2.2798 C   0  0  0  0  0  0  0  0  0  0  0  0
    8.8074   -0.4082    2.0411 C   0  0  0  0  0  0  0  0  0  0  0  0
    4.6467   -7.1866    0.7738 C   0  0  0  0  0  0  0  0  0  0  0  0
    3.7361   -7.8108   -0.2935 C   0  0  2  0  0  0  0  0  0  0  0  0
    4.2360   -7.4404    1.9233 O   0  0  0  0  0  0  0  0  0  0  0  0
    2.4576   -8.3156    0.3049 N   0  0  0  0  0  0  0  0  0  0  0  0
    4.2870   -8.6684   -1.3876 C   0  0  3  0  0  0  0  0  0  0  0  0
    4.5018   -7.8208   -2.6184 C   0  0  0  0  0  0  0  0  0  0  0  0
    5.5681   -9.4053   -1.0009 C   0  0  0  0  0  0  0  0  0  0  0  0
    5.6125  -10.6288   -0.9932 O   0  0  0  0  0  0  0  0  0  0  0  0
    6.6807   -8.6248   -0.6881 O   0  0  0  0  0  0  0  0  0  0  0  0
    1.9855   -9.6908    0.1190 C   0  0  0  0  0  0  0  0  0  0  0  0
    0.9304  -10.2875    1.0443 C   0  0  0  0  0  0  0  0  0  0  0  0
    3.0475  -10.2985   -0.0640 O   0  0  0  0  0  0  0  0  0  0  0  0
    1.3133  -11.3179    1.9871 N   0  0  0  0  0  0  0  0  0  0  0  0
    0.7975  -12.6079    1.7904 C   0  0  0  0  0  0  0  0  0  0  0  0
    0.1491  -12.8709    2.7618 O   0  0  0  0  0  0  0  0  0  0  0  0
   -0.1418  -12.9892    0.6756 C   0  0  2  0  0  0  0  0  0  0  0  0
    0.1571  -12.5839   -0.7084 C   0  0  0  0  0  0  0  0  0  0  0  0
   -1.4026  -12.2086    0.9198 N   0  0  0  0  0  0  0  0  0  0  0  0
   -2.6602  -12.7860    1.0028 C   0  0  0  0  0  0  0  0  0  0  0  0
   -3.4296  -12.2801    0.1391 O   0  0  0  0  0  0  0  0  0  0  0  0
    1.4198  -13.2239   -1.2391 C   0  0  0  0  0  0  0  0  0  0  0  0
    1.3236  -14.0610   -2.3396 O   0  0  0  0  0  0  0  0  0  0  0  0
    2.4946  -13.0060   -0.7029 O   0  0  0  0  0  0  0  0  0  0  0  0
   -3.5272  -15.5513    0.5849 C   0  0  3  0  0  0  0  0  0  0  0  0
   -4.6995  -14.8421   -0.0805 C   0  0  0  0  0  0  0  0  0  0  0  0
   -4.9869  -15.1412   -1.3908 O   0  0  0  0  0  0  0  0  0  0  0  0
   -5.2819  -13.9500    0.5489 O   0  0  0  0  0  0  0  0  0  0  0  0
   -2.9531  -16.4991   -0.3265 O   0  0  0  0  0  0  0  0  0  0  0  0
   -0.4337    4.7688    0.1331 O   0  0  0  0  0  0  0  0  0  0  0  0
    0.0480   -2.6279    0.7031 H   0  0  0  0  0  0  0  0  0  0  0  0
    2.2409   -4.8923    0.8113 H   0  0  0  0  0  0  0  0  0  0  0  0
    3.5588  -13.7943    1.1639 H   0  0  0  0  0  0  0  0  0  0  0  0
    3.6986  -15.3472    2.9571 H   0  0  0  0  0  0  0  0  0  0  0  0
    1.5629  -14.9888    2.8236 H   0  0  0  0  0  0  0  0  0  0  0  0
   -0.3113  -17.2216    3.6694 H   0  0  0  0  0  0  0  0  0  0  0  0
   -1.0548  -14.6452    4.0447 H   0  0  0  0  0  0  0  0  0  0  0  0
   -1.6732  -16.1895    4.5895 H   0  0  0  0  0  0  0  0  0  0  0  0
    1.3692   -2.0411    1.9401 H   0  0  0  0  0  0  0  0  0  0  0  0
    4.8006  -18.0485    3.7276 H   0  0  0  0  0  0  0  0  0  0  0  0
    6.1924  -15.4648    3.0986 H   0  0  0  0  0  0  0  0  0  0  0  0
    6.9212  -16.8146    3.9611 H   0  0  0  0  0  0  0  0  0  0  0  0
    6.4517  -16.9985    2.2718 H   0  0  0  0  0  0  0  0  0  0  0  0
    3.4888  -16.7087    5.3018 H   0  0  0  0  0  0  0  0  0  0  0  0
    5.1919  -16.6465    5.7229 H   0  0  0  0  0  0  0  0  0  0  0  0
    4.4447  -15.2946    4.8795 H   0  0  0  0  0  0  0  0  0  0  0  0
   -0.2532  -15.1197    6.2826 H   0  0  0  0  0  0  0  0  0  0  0  0
    0.4816  -16.6077    5.7095 H   0  0  0  0  0  0  0  0  0  0  0  0
    2.1486  -14.8005    5.8229 H   0  0  0  0  0  0  0  0  0  0  0  0
    1.9360  -15.2889    4.2528 H   0  0  0  0  0  0  0  0  0  0  0  0
    1.9277  -12.8681    4.3081 H   0  0  0  0  0  0  0  0  0  0  0  0
    0.3535  -13.5850    4.0281 H   0  0  0  0  0  0  0  0  0  0  0  0
    0.1628  -11.7981    5.5042 H   0  0  0  0  0  0  0  0  0  0  0  0
   -0.4012  -13.2521    6.0549 H   0  0  0  0  0  0  0  0  0  0  0  0
   -2.2384  -14.5328    3.1486 H   0  0  0  0  0  0  0  0  0  0  0  0
   -3.1514  -13.9377    0.2033 H   0  0  0  0  0  0  0  0  0  0  0  0
    1.3058    1.5639    0.6268 H   0  0  0  0  0  0  0  0  0  0  0  0
    0.5232    2.2903   -1.6920 H   0  0  0  0  0  0  0  0  0  0  0  0
   -1.0677    3.3191    1.4171 H   0  0  0  0  0  0  0  0  0  0  0  0
    0.9117    1.7722    3.0799 H   0  0  0  0  0  0  0  0  0  0  0  0
   -0.3445    2.8332    3.7100 H   0  0  0  0  0  0  0  0  0  0  0  0
   -0.7859    1.3616    2.8482 H   0  0  0  0  0  0  0  0  0  0  0  0
    2.9255    4.5560    1.9429 H   0  0  0  0  0  0  0  0  0  0  0  0
    0.1870    4.4536   -3.0510 H   0  0  0  0  0  0  0  0  0  0  0  0
   -0.6206    6.7627   -1.2258 H   0  0  0  0  0  0  0  0  0  0  0  0
    1.8298   11.9497   -2.7735 H   0  0  0  0  0  0  0  0  0  0  0  0
    0.7706   13.0480   -3.6536 H   0  0  0  0  0  0  0  0  0  0  0  0
    0.5822   12.8482   -1.9135 H   0  0  0  0  0  0  0  0  0  0  0  0
   -0.1407    6.5534   -4.3688 H   0  0  0  0  0  0  0  0  0  0  0  0
   -0.7130    8.9149   -4.3862 H   0  0  0  0  0  0  0  0  0  0  0  0
   -2.0563    9.4678   -2.2194 H   0  0  0  0  0  0  0  0  0  0  0  0
   -1.0028    8.4031   -1.3387 H   0  0  0  0  0  0  0  0  0  0  0  0
   -0.3184   10.7171   -0.9977 H   0  0  0  0  0  0  0  0  0  0  0  0
    0.9305    9.8224   -1.8574 H   0  0  0  0  0  0  0  0  0  0  0  0
    0.0961   10.7142   -3.9986 H   0  0  0  0  0  0  0  0  0  0  0  0
   -1.8165   12.2687   -2.2413 H   0  0  0  0  0  0  0  0  0  0  0  0
   -1.6260   12.4695   -3.9817 H   0  0  0  0  0  0  0  0  0  0  0  0
   -2.2664   10.9685   -3.3384 H   0  0  0  0  0  0  0  0  0  0  0  0
    2.2988   -0.3643    4.0754 H   0  0  0  0  0  0  0  0  0  0  0  0
    0.6779   -0.3706    3.8955 H   0  0  0  0  0  0  0  0  0  0  0  0
    1.4244   -1.8172    4.1128 H   0  0  0  0  0  0  0  0  0  0  0  0
    3.4678   -0.1516    1.6654 H   0  0  0  0  0  0  0  0  0  0  0  0
    5.6866   -1.4849    4.1141 H   0  0  0  0  0  0  0  0  0  0  0  0
    6.8789   -5.8876    1.8230 H   0  0  0  0  0  0  0  0  0  0  0  0
    4.6954   -5.2299   -0.0515 H   0  0  0  0  0  0  0  0  0  0  0  0
    8.0452   -5.0772    0.8841 H   0  0  0  0  0  0  0  0  0  0  0  0
    7.0642   -3.0048    2.5344 H   0  0  0  0  0  0  0  0  0  0  0  0
    8.5224   -2.6966    1.9233 H   0  0  0  0  0  0  0  0  0  0  0  0
    6.6955   -3.5450    0.3600 H   0  0  0  0  0  0  0  0  0  0  0  0
    8.1392   -6.0106    3.1907 H   0  0  0  0  0  0  0  0  0  0  0  0
    9.0458   -4.5031    3.0731 H   0  0  0  0  0  0  0  0  0  0  0  0
    7.4522   -4.5209    3.8323 H   0  0  0  0  0  0  0  0  0  0  0  0
    8.1234   -2.8207    0.7390 H   0  0  0  0  0  0  0  0  0  0  0  0
    6.9670   -2.0444    0.5634 H   0  0  0  0  0  0  0  0  0  0  0  0
    7.4995    0.1643    1.3629 H   0  0  0  0  0  0  0  0  0  0  0  0
    6.2577    0.6855    2.2998 H   0  0  0  0  0  0  0  0  0  0  0  0
    4.9809   -0.1697    1.8562 H   0  0  0  0  0  0  0  0  0  0  0  0
    9.3845   -1.3082    1.9518 H   0  0  0  0  0  0  0  0  0  0  0  0
    9.1267    0.2442    1.2120 H   0  0  0  0  0  0  0  0  0  0  0  0
    9.0180    0.0685    2.9670 H   0  0  0  0  0  0  0  0  0  0  0  0
    3.3873   -6.9744   -0.8681 H   0  0  0  0  0  0  0  0  0  0  0  0
    1.9101   -7.8390    0.9661 H   0  0  0  0  0  0  0  0  0  0  0  0
    3.5108   -9.4004   -1.6323 H   0  0  0  0  0  0  0  0  0  0  0  0
    5.2614   -7.0781   -2.4098 H   0  0  0  0  0  0  0  0  0  0  0  0
    4.8233   -8.4358   -3.4436 H   0  0  0  0  0  0  0  0  0  0  0  0
    3.5845   -7.3100   -2.8978 H   0  0  0  0  0  0  0  0  0  0  0  0
    7.5273   -9.0983   -0.4357 H   0  0  0  0  0  0  0  0  0  0  0  0
    0.0476  -10.7865    0.9842 H   0  0  0  0  0  0  0  0  0  0  0  0
    0.6201   -9.2544    0.9547 H   0  0  0  0  0  0  0  0  0  0  0  0
    2.0034  -11.1446    2.7397 H   0  0  0  0  0  0  0  0  0  0  0  0
   -0.1155  -14.0189    0.3512 H   0  0  0  0  0  0  0  0  0  0  0  0
   -0.7052  -12.8885   -1.2957 H   0  0  0  0  0  0  0  0  0  0  0  0
    0.2294  -11.5111   -0.7498 H   0  0  0  0  0  0  0  0  0  0  0  0
   -1.3331  -11.1793    0.8488 H   0  0  0  0  0  0  0  0  0  0  0  0
    0.4654  -14.2502   -2.7874 H   0  0  0  0  0  0  0  0  0  0  0  0
   -3.8646  -16.0830    1.4707 H   0  0  0  0  0  0  0  0  0  0  0  0
   -4.5037  -15.8447   -1.8865 H   0  0  0  0  0  0  0  0  0  0  0  0
   -2.6037  -16.0479   -1.1064 H   0  0  0  0  0  0  0  0  0  0  0  0
  1  2  1  0  0  0  0
  1 25  1  0  0  0  0
  1 26  2  0  0  0  0
  2 89  1  0  0  0  0
  3  4  1  0  0  0  0
  3 11  1  0  0  0  0
  3 90  1  6  0  0  0
  3  2  1  0  0  0  0
  4  5  1  0  0  0  0
  4 12  2  0  0  0  0
  5  6  1  0  0  0  0
  5 91  1  0  0  0  0
  6  7  1  0  0  0  0
  6 13  1  0  0  0  0
  6 92  1  1  0  0  0
  7  8  1  0  0  0  0
  7 16  2  0  0  0  0
  8  9  1  0  0  0  0
  8 93  1  0  0  0  0
  9 17  1  0  0  0  0
  9 94  1  1  0  0  0
  9 10  1  0  0  0  0
 10 18  1  0  0  0  0
 10 95  1  0  0  0  0
 10 96  1  0  0  0  0
 11 44  1  0  0  0  0
 11 43  1  0  0  0  0
 11 97  1  0  0  0  0
 13 14  1  0  0  0  0
 13 15  1  0  0  0  0
 13 98  1  0  0  0  0
 14 99  1  0  0  0  0
 14100  1  0  0  0  0
 14101  1  0  0  0  0
 15102  1  0  0  0  0
 15103  1  0  0  0  0
 15104  1  0  0  0  0
 17 22  1  0  0  0  0
 17 24  2  0  0  0  0
 18 19  1  0  0  0  0
 18105  1  0  0  0  0
 18106  1  0  0  0  0
 19 20  1  0  0  0  0
 19107  1  0  0  0  0
 19108  1  0  0  0  0
 20 21  1  0  0  0  0
 20109  1  0  0  0  0
 20110  1  0  0  0  0
 21111  1  0  0  0  0
 21112  1  0  0  0  0
 22113  1  0  0  0  0
 23 22  1  0  0  0  0
 23 83  1  0  0  0  0
 23114  1  6  0  0  0
 25 27  1  0  0  0  0
 25 28  1  0  0  0  0
 25115  1  1  0  0  0
 27 33  1  0  0  0  0
 27116  1  0  0  0  0
 28 29  1  0  0  0  0
 28 30  1  0  0  0  0
 28117  1  0  0  0  0
 29118  1  0  0  0  0
 29119  1  0  0  0  0
 29120  1  0  0  0  0
 30 31  2  0  0  0  0
 30 32  1  0  0  0  0
 32121  1  0  0  0  0
 33 34  1  0  0  0  0
 33 88  2  0  0  0  0
 34 35  2  0  0  0  0
 34122  1  0  0  0  0
 35 37  1  0  0  0  0
 35123  1  0  0  0  0
 36124  1  0  0  0  0
 36125  1  0  0  0  0
 36126  1  0  0  0  0
 37 38  2  0  0  0  0
 37127  1  0  0  0  0
 38 39  1  0  0  0  0
 38128  1  0  0  0  0
 39 40  1  0  0  0  0
 39129  1  0  0  0  0
 39130  1  0  0  0  0
 40 41  1  0  0  0  0
 40131  1  0  0  0  0
 40132  1  0  0  0  0
 41 42  1  0  0  0  0
 41 36  1  0  0  0  0
 41133  1  0  0  0  0
 42134  1  0  0  0  0
 42135  1  0  0  0  0
 42136  1  0  0  0  0
 43137  1  0  0  0  0
 43138  1  0  0  0  0
 43139  1  0  0  0  0
 44 45  1  0  0  0  0
 44140  1  0  0  0  0
 45 46  1  0  0  0  0
 45 47  2  0  0  0  0
 46 48  1  0  0  0  0
 46 58  1  0  0  0  0
 46141  1  1  0  0  0
 48 49  1  0  0  0  0
 49 50  1  0  0  0  0
 49 51  2  0  0  0  0
 50 52  1  0  0  0  0
 50142  1  1  0  0  0
 50 53  1  0  0  0  0
 52 60  1  0  0  0  0
 52143  1  0  0  0  0
 53 54  1  0  0  0  0
 53 55  1  0  0  0  0
 53144  1  0  0  0  0
 54145  1  0  0  0  0
 54146  1  0  0  0  0
 54147  1  0  0  0  0
 55148  1  0  0  0  0
 55149  1  0  0  0  0
 55150  1  0  0  0  0
 56 57  1  0  0  0  0
 56 48  1  0  0  0  0
 56151  1  0  0  0  0
 56152  1  0  0  0  0
 57 58  1  0  0  0  0
 57 59  1  0  0  0  0
 57153  1  6  0  0  0
 58154  1  0  0  0  0
 58155  1  0  0  0  0
 59156  1  0  0  0  0
 59157  1  0  0  0  0
 59158  1  0  0  0  0
 60 61  1  0  0  0  0
 60 62  2  0  0  0  0
 61 63  1  0  0  0  0
 61 64  1  0  0  0  0
 61159  1  6  0  0  0
 63 69  1  0  0  0  0
 63160  1  0  0  0  0
 64 65  1  0  0  0  0
 64 66  1  0  0  0  0
 64161  1  0  0  0  0
 65162  1  0  0  0  0
 65163  1  0  0  0  0
 65164  1  0  0  0  0
 66 67  2  0  0  0  0
 66 68  1  0  0  0  0
 68165  1  0  0  0  0
 69 70  1  0  0  0  0
 69 71  2  0  0  0  0
 70 72  1  0  0  0  0
 70166  1  0  0  0  0
 70167  1  0  0  0  0
 72 73  1  0  0  0  0
 72168  1  0  0  0  0
 73 75  1  0  0  0  0
 73 74  2  0  0  0  0
 75 77  1  0  0  0  0
 75169  1  1  0  0  0
 75 76  1  0  0  0  0
 76 80  1  0  0  0  0
 76170  1  0  0  0  0
 76171  1  0  0  0  0
 77 78  1  0  0  0  0
 77172  1  0  0  0  0
 78 23  1  0  0  0  0
 78 79  2  0  0  0  0
 80 81  1  0  0  0  0
 80 82  2  0  0  0  0
 81173  1  0  0  0  0
 83 84  1  0  0  0  0
 83 87  1  0  0  0  0
 83174  1  0  0  0  0
 84 85  1  0  0  0  0
 84 86  2  0  0  0  0
 85175  1  0  0  0  0
 87176  1  0  0  0  0
M  END
>  <DRUGBANK_ID>
DB14051

>  <COMMON_NAME>
Malacidin A

$$$$
