
 OpenBabel10282417103D

 20 19  0  0  0  0  0  0  0  0999 V2000
    0.8219   -0.0185   -0.0241 O   0  0  0  0  0  0  0  0  0  0  0  0
    2.0441   -0.1150   -0.1112 C   0  0  0  0  0  0  0  0  0  0  0  0
    2.7802   -0.4013    0.9866 O   0  0  0  0  0  0  0  0  0  0  0  0
    2.8333    0.1267   -1.4130 C   0  0  1  0  0  0  0  0  0  0  0  0
    2.5110   -0.8780   -2.4376 N   0  0  0  0  0  0  0  0  0  0  0  0
    2.6313    1.5588   -1.9078 C   0  0  0  0  0  0  0  0  0  0  0  0
    3.1020    2.6049   -0.8903 C   0  0  0  0  0  0  0  0  0  0  0  0
    4.9389    2.7293   -0.6930 S   0  0  0  0  0  0  0  0  0  0  0  0
    5.4443    1.2041    0.1599 C   0  0  0  0  0  0  0  0  0  0  0  0
    3.7349   -0.5478    0.8792 H   0  0  0  0  0  0  0  0  0  0  0  0
    3.8812   -0.0439   -1.2626 H   0  0  0  0  0  0  0  0  0  0  0  0
    3.0786   -0.6960   -3.2666 H   0  0  0  0  0  0  0  0  0  0  0  0
    2.8067   -1.7936   -2.0968 H   0  0  0  0  0  0  0  0  0  0  0  0
    3.1513    1.7257   -2.8610 H   0  0  0  0  0  0  0  0  0  0  0  0
    1.5641    1.7231   -2.1185 H   0  0  0  0  0  0  0  0  0  0  0  0
    2.7903    3.5885   -1.2695 H   0  0  0  0  0  0  0  0  0  0  0  0
    2.5996    2.4962    0.0773 H   0  0  0  0  0  0  0  0  0  0  0  0
    4.8777    1.0626    1.0806 H   0  0  0  0  0  0  0  0  0  0  0  0
    5.4104    0.3109   -0.4645 H   0  0  0  0  0  0  0  0  0  0  0  0
    6.5012    1.2609    0.4240 H   0  0  0  0  0  0  0  0  0  0  0  0
  2  1  2  0  0  0  0
  3  2  1  0  0  0  0
  3 10  1  0  0  0  0
  4  2  1  0  0  0  0
  4  5  1  0  0  0  0
  4 11  1  1  0  0  0
  5 12  1  0  0  0  0
  5 13  1  0  0  0  0
  6  4  1  0  0  0  0
  6 14  1  0  0  0  0
  6 15  1  0  0  0  0
  7  6  1  0  0  0  0
  7 16  1  0  0  0  0
  7 17  1  0  0  0  0
  8  7  1  0  0  0  0
  9  8  1  0  0  0  0
  9 18  1  0  0  0  0
  9 19  1  0  0  0  0
  9 20  1  0  0  0  0
M  END
>  <DRUGBANK_ID>
DB00134

>  <SECONDARY_ACCESSION_NUMBERS>
NUTR00038

>  <COMMON_NAME>
Methionine

>  <CAS_NUMBER>
63-68-3

>  <UNII>
AE28F7PNPL

>  <SYNONYMS>
(2S)-2-amino-4-(methylsulfanyl)butanoic acid; (S)-2-amino-4-(methylthio)butanoic acid; (S)-2-amino-4-(methylthio)butyric acid; (S)-methionine; L-(−)-methionine; L-a-Amino-g-methylthiobutyric acid; L-Methionin; L-Methionine; L-α-amino-γ-methylmercaptobutyric acid; M; Met; Methionine

$$$$
