BGU
 OpenBabel10282417163D

 24 26  0  0  0  0  0  0  0  0999 V2000
    2.8767   -0.9728   -0.1223 N   0  0  0  0  0  0  0  0  0  0  0  0
    1.5226   -0.7094    0.0311 C   0  0  0  0  0  0  0  0  0  0  0  0
    0.3385   -1.4845    0.0822 C   0  0  0  0  0  0  0  0  0  0  0  0
   -0.8930   -0.7643    0.0758 C   0  0  0  0  0  0  0  0  0  0  0  0
   -0.9322    0.6301    0.1694 C   0  0  0  0  0  0  0  0  0  0  0  0
    0.2634    1.3384    0.2823 C   0  0  0  0  0  0  0  0  0  0  0  0
    1.4872    0.6795    0.1298 C   0  0  0  0  0  0  0  0  0  0  0  0
    2.7343    1.2314    0.0303 N   0  0  0  0  0  0  0  0  0  0  0  0
    3.5478    0.2311   -0.1663 C   0  0  0  0  0  0  0  0  0  0  0  0
    4.8610    0.3465   -0.3867 N   0  0  0  0  0  0  0  0  0  0  0  0
   -2.1168    1.3870    0.1024 N   0  0  0  0  0  0  0  0  0  0  0  0
   -3.2406    0.7819   -0.0898 C   0  0  0  0  0  0  0  0  0  0  0  0
   -4.3847    1.4953   -0.2071 N   0  0  0  0  0  0  0  0  0  0  0  0
   -3.3133   -0.5776   -0.1792 N   0  0  0  0  0  0  0  0  0  0  0  0
   -2.2199   -1.4181   -0.0809 C   0  0  0  0  0  0  0  0  0  0  0  0
   -2.3435   -2.6413   -0.1439 O   0  0  0  0  0  0  0  0  0  0  0  0
    3.3159   -1.8719   -0.2476 H   0  0  0  0  0  0  0  0  0  0  0  0
    0.3596   -2.5714    0.0766 H   0  0  0  0  0  0  0  0  0  0  0  0
    0.2523    2.4119    0.4154 H   0  0  0  0  0  0  0  0  0  0  0  0
    5.2462    1.2888   -0.4159 H   0  0  0  0  0  0  0  0  0  0  0  0
    5.5304   -0.3965   -0.5273 H   0  0  0  0  0  0  0  0  0  0  0  0
   -4.3125    2.5061   -0.1601 H   0  0  0  0  0  0  0  0  0  0  0  0
   -5.3013    1.1020   -0.3507 H   0  0  0  0  0  0  0  0  0  0  0  0
   -4.2102   -1.0152   -0.3134 H   0  0  0  0  0  0  0  0  0  0  0  0
  1  2  1  0  0  0  0
  1 17  1  0  0  0  0
  2  3  1  0  0  0  0
  3  4  2  0  0  0  0
  3 18  1  0  0  0  0
  4 15  1  0  0  0  0
  5  4  1  0  0  0  0
  5 11  1  0  0  0  0
  6  5  2  0  0  0  0
  6 19  1  0  0  0  0
  7  2  2  0  0  0  0
  7  6  1  0  0  0  0
  8  7  1  0  0  0  0
  9  8  2  0  0  0  0
  9  1  1  0  0  0  0
 10  9  1  0  0  0  0
 10 20  1  0  0  0  0
 10 21  1  0  0  0  0
 11 12  2  0  0  0  0
 12 14  1  0  0  0  0
 12 13  1  0  0  0  0
 13 22  1  0  0  0  0
 13 23  1  0  0  0  0
 14 24  1  0  0  0  0
 15 16  2  0  0  0  0
 15 14  1  0  0  0  0
M  END
>  <DRUGBANK_ID>
DB07452

>  <COMMON_NAME>
2,6-diamino-1,7-dihydro-8H-imidazo[4,5-g]quinazolin-8-one

$$$$
