
 OpenBabel10282417113D

 56 59  0  0  0  0  0  0  0  0999 V2000
    0.8596    1.5024    0.6850 C   0  0  0  0  0  0  0  0  0  0  0  0
    2.2332    1.4731    1.6303 C   0  0  2  0  0  0  0  0  0  0  0  0
   -0.3779   -0.9865    1.8289 C   0  0  0  0  0  0  0  0  0  0  0  0
   -0.4831    0.6357    1.2849 C   0  0  0  0  0  0  0  0  0  0  0  0
    2.1780    0.1035    2.3800 C   0  0  1  0  0  0  0  0  0  0  0  0
    0.8954   -0.8215    2.7581 C   0  0  1  0  0  0  0  0  0  0  0  0
    1.4291   -3.4382    2.5973 C   0  0  0  0  0  0  0  0  0  0  0  0
    0.6524   -3.6444    1.3370 C   0  0  0  0  0  0  0  0  0  0  0  0
   -0.6979   -2.3990    1.3395 C   0  0  0  0  0  0  0  0  0  0  0  0
    1.4124   -2.1236    2.2464 C   0  0  0  0  0  0  0  0  0  0  0  0
    4.7098   -0.4210    2.3232 C   0  0  0  0  0  0  0  0  0  0  0  0
    3.4848   -0.3315    3.2511 C   0  0  2  0  0  0  0  0  0  0  0  0
    3.9773    0.6288   -0.4989 C   0  0  0  0  0  0  0  0  0  0  0  0
    5.3140    0.6201   -1.1726 C   0  0  2  0  0  0  0  0  0  0  0  0
    6.0547    0.9042    0.4772 C   0  0  1  0  0  0  0  0  0  0  0  0
    1.2857   -4.0597    0.2931 O   0  0  0  0  0  0  0  0  0  0  0  0
    2.3791   -0.5994    0.7467 Cl  0  0  0  0  0  0  0  0  0  0  0  0
    2.2757    2.3837    2.2655 H   0  0  0  0  0  0  0  0  0  0  0  0
    4.9599    0.9581    1.6265 C   0  0  1  0  0  0  0  0  0  0  0  0
    5.0848    2.0492    2.7227 C   0  0  0  0  0  0  0  0  0  0  0  0
    3.7759    1.5011    0.7675 C   0  0  2  0  0  0  0  0  0  0  0  0
    3.9289    2.5118    0.3695 H   0  0  0  0  0  0  0  0  0  0  0  0
    0.5094   -0.5142    4.2218 C   0  0  0  0  0  0  0  0  0  0  0  0
    3.3861   -1.6079    3.8931 O   0  0  0  0  0  0  0  0  0  0  0  0
    4.3838   -0.3408   -2.3672 C   0  0  0  0  0  0  0  0  0  0  0  0
    7.5831    0.6107    0.8481 C   0  0  0  0  0  0  0  0  0  0  0  0
    8.1300    0.8419    2.2900 C   0  0  0  0  0  0  0  0  0  0  0  0
    9.4905   -0.2592    2.6356 Cl  0  0  0  0  0  0  0  0  0  0  0  0
    8.4102    0.6458   -0.0824 O   0  0  0  0  0  0  0  0  0  0  0  0
    6.3833    2.3716    0.3957 O   0  0  0  0  0  0  0  0  0  0  0  0
    0.7358    2.5239    0.2757 H   0  0  0  0  0  0  0  0  0  0  0  0
    1.0130    0.9855   -0.2690 H   0  0  0  0  0  0  0  0  0  0  0  0
   -0.7418    1.2161    2.1879 H   0  0  0  0  0  0  0  0  0  0  0  0
   -1.3211    0.7657    0.5917 H   0  0  0  0  0  0  0  0  0  0  0  0
    1.1452   -3.5157    3.6073 H   0  0  0  0  0  0  0  0  0  0  0  0
   -0.9896   -3.1920    2.1117 H   0  0  0  0  0  0  0  0  0  0  0  0
    1.3116   -2.0524    1.1083 H   0  0  0  0  0  0  0  0  0  0  0  0
    5.5763   -0.8194    2.8634 H   0  0  0  0  0  0  0  0  0  0  0  0
    4.5330   -1.2528    1.6226 H   0  0  0  0  0  0  0  0  0  0  0  0
    3.7051    0.2700    4.1442 H   0  0  0  0  0  0  0  0  0  0  0  0
    4.0402   -0.4792   -0.3177 H   0  0  0  0  0  0  0  0  0  0  0  0
    3.0843    0.8691   -1.1017 H   0  0  0  0  0  0  0  0  0  0  0  0
    6.0160   -0.2243   -1.2943 H   0  0  0  0  0  0  0  0  0  0  0  0
    6.0639    2.1296    3.1763 H   0  0  0  0  0  0  0  0  0  0  0  0
    4.8126    3.0305    2.3275 H   0  0  0  0  0  0  0  0  0  0  0  0
    4.3818    1.9096    3.5468 H   0  0  0  0  0  0  0  0  0  0  0  0
   -0.1519    0.3583    4.3404 H   0  0  0  0  0  0  0  0  0  0  0  0
    0.0569   -1.3801    4.7054 H   0  0  0  0  0  0  0  0  0  0  0  0
    1.3893   -0.2363    4.8147 H   0  0  0  0  0  0  0  0  0  0  0  0
    2.4489   -1.8224    3.9375 H   0  0  0  0  0  0  0  0  0  0  0  0
    4.3634    0.2390   -3.2926 H   0  0  0  0  0  0  0  0  0  0  0  0
    4.7302   -1.3696   -2.5249 H   0  0  0  0  0  0  0  0  0  0  0  0
    3.2778   -0.5302   -2.2185 H   0  0  0  0  0  0  0  0  0  0  0  0
    8.5317    1.8646    2.3843 H   0  0  0  0  0  0  0  0  0  0  0  0
    7.4172    0.6937    3.0948 H   0  0  0  0  0  0  0  0  0  0  0  0
    7.3139    2.4696    0.1093 H   0  0  0  0  0  0  0  0  0  0  0  0
  1 31  1  0  0  0  0
  1 32  1  0  0  0  0
  2  1  1  0  0  0  0
  2  5  1  0  0  0  0
  2 18  1  6  0  0  0
  3  4  1  0  0  0  0
  4  1  1  0  0  0  0
  4 33  1  0  0  0  0
  4 34  1  0  0  0  0
  5 12  1  0  0  0  0
  5  6  1  0  0  0  0
  5 17  1  1  0  0  0
  6  3  1  0  0  0  0
  6 10  1  0  0  0  0
  6 23  1  6  0  0  0
  7  8  1  0  0  0  0
  7 10  2  0  0  0  0
  7 35  1  0  0  0  0
  8  9  1  0  0  0  0
  8 16  2  0  0  0  0
  9  3  2  0  0  0  0
  9 36  1  0  0  0  0
 10 37  1  0  0  0  0
 11 12  1  0  0  0  0
 11 38  1  0  0  0  0
 11 39  1  0  0  0  0
 12 40  1  1  0  0  0
 12 24  1  0  0  0  0
 13 14  1  0  0  0  0
 13 41  1  0  0  0  0
 13 42  1  0  0  0  0
 14 43  1  1  0  0  0
 14 25  1  0  0  0  0
 15 14  1  0  0  0  0
 15 26  1  1  0  0  0
 15 30  1  0  0  0  0
 19 11  1  0  0  0  0
 19 15  1  0  0  0  0
 19 20  1  6  0  0  0
 20 44  1  0  0  0  0
 20 45  1  0  0  0  0
 20 46  1  0  0  0  0
 21  2  1  0  0  0  0
 21 13  1  0  0  0  0
 21 19  1  0  0  0  0
 21 22  1  6  0  0  0
 23 47  1  0  0  0  0
 23 48  1  0  0  0  0
 23 49  1  0  0  0  0
 24 50  1  0  0  0  0
 25 51  1  0  0  0  0
 25 52  1  0  0  0  0
 25 53  1  0  0  0  0
 26 27  1  0  0  0  0
 26 29  2  0  0  0  0
 27 28  1  0  0  0  0
 27 54  1  0  0  0  0
 27 55  1  0  0  0  0
 30 56  1  0  0  0  0
M  END
>  <DRUGBANK_ID>
DB00764

>  <SECONDARY_ACCESSION_NUMBERS>
APRD00289

>  <COMMON_NAME>
Mometasone

>  <CAS_NUMBER>
105102-22-5

>  <UNII>
8HR4QJ6DW8

>  <SYNONYMS>
(+)-Mometasone; Mometason; Mometasona; Mom√©tasone; Mometasone; Mometasonum

$$$$
