
 OpenBabel10282417193D

134141  0  0  0  0  0  0  0  0999 V2000
    1.4299    0.1916    0.6137 C   0  0  0  0  0  0  0  0  0  0  0  0
    0.7213    1.5323    0.7088 C   0  0  0  0  0  0  0  0  0  0  0  0
    1.2322    2.5759   -0.2773 C   0  0  0  0  0  0  0  0  0  0  0  0
    0.9138    2.3210   -1.6867 C   0  0  0  0  0  0  0  0  0  0  0  0
    0.9707    1.0144   -2.2917 C   0  0  0  0  0  0  0  0  0  0  0  0
    0.3093    1.2061   -3.4146 C   0  0  0  0  0  0  0  0  0  0  0  0
   -0.1439   -0.1840   -4.5141 C   0  0  0  0  0  0  0  0  0  0  0  0
   -0.3506   -0.2517   -5.7520 O   0  0  0  0  0  0  0  0  0  0  0  0
   -0.0479   -1.3813   -3.8348 N   0  0  0  0  0  0  0  0  0  0  0  0
    0.7329   -1.4200   -2.6688 C   0  0  0  0  0  0  0  0  0  0  0  0
    1.3459   -0.3771   -2.0792 N   0  0  0  0  0  0  0  0  0  0  0  0
    0.9179   -2.7729   -1.9038 C   0  0  0  0  0  0  0  0  0  0  0  0
    2.2301   -3.1940   -1.8116 C   0  0  0  0  0  0  0  0  0  0  0  0
    3.0723   -4.1783   -1.1776 C   0  0  0  0  0  0  0  0  0  0  0  0
    2.1958   -5.0174   -0.6274 C   0  0  0  0  0  0  0  0  0  0  0  0
    0.9993   -4.4093   -0.2087 C   0  0  0  0  0  0  0  0  0  0  0  0
    0.3252   -3.2883   -0.8386 C   0  0  0  0  0  0  0  0  0  0  0  0
   -0.7848   -2.7526   -0.2803 O   0  0  0  0  0  0  0  0  0  0  0  0
   -1.5878   -1.8142   -1.0535 C   0  0  0  0  0  0  0  0  0  0  0  0
   -1.0611   -0.4586   -0.9398 C   0  0  0  0  0  0  0  0  0  0  0  0
    4.6730   -5.2916   -2.0116 S   0  0  0  0  0  0  0  0  0  0  0  0
    5.9879   -4.9735   -1.5441 O   0  0  0  0  0  0  0  0  0  0  0  0
    4.1167   -6.6363   -1.8404 O   0  0  0  0  0  0  0  0  0  0  0  0
    4.6036   -4.5298   -4.0646 N   0  0  0  0  0  0  0  0  0  0  0  0
    5.3569   -3.3490   -3.8718 C   0  0  0  0  0  0  0  0  0  0  0  0
    3.8680   -2.3494   -3.7803 C   0  0  0  0  0  0  0  0  0  0  0  0
    2.3243   -2.1793   -4.9917 N   0  0  0  0  0  0  0  0  0  0  0  0
    1.5226   -3.7616   -5.5618 C   0  0  0  0  0  0  0  0  0  0  0  0
    3.3255   -4.7725   -5.6587 C   0  0  0  0  0  0  0  0  0  0  0  0
    2.5343   -1.4832   -6.5132 C   0  0  0  0  0  0  0  0  0  0  0  0
    3.6921   -2.0274   -7.6535 C   0  0  0  0  0  0  0  0  0  0  0  0
    3.3790   -3.5065   -8.5532 O   0  0  0  0  0  0  0  0  0  0  0  0
    2.3638   -4.3448   -7.9203 C   0  0  0  0  0  0  0  0  0  0  0  0
    2.1852   -3.4234   -7.1870 O   0  0  0  0  0  0  0  0  0  0  0  0
    2.2857   -5.9281   -7.3340 O   0  0  0  0  0  0  0  0  0  0  0  0
    2.1809   -7.0743   -5.8593 C   0  0  0  0  0  0  0  0  0  0  0  0
    3.5832   -7.5578   -4.9004 C   0  0  0  0  0  0  0  0  0  0  0  0
    4.2010   -6.5430   -4.1367 N   0  0  0  0  0  0  0  0  0  0  0  0
    2.8813   -5.5234   -3.6612 C   0  0  0  0  0  0  0  0  0  0  0  0
    2.8392   -4.0653   -4.2088 C   0  0  0  0  0  0  0  0  0  0  0  0
    4.2059   -3.2665   -5.5107 N   0  0  0  0  0  0  0  0  0  0  0  0
    5.4826   -4.7371   -6.0641 C   0  0  0  0  0  0  0  0  0  0  0  0
    5.7207   -5.9341   -4.8860 C   0  0  0  0  0  0  0  0  0  0  0  0
    5.4057   -1.2933   -5.1384 S   0  0  0  0  0  0  0  0  0  0  0  0
    6.0252   -1.2200   -3.8057 O   0  0  0  0  0  0  0  0  0  0  0  0
    6.2309   -1.0413   -6.2672 O   0  0  0  0  0  0  0  0  0  0  0  0
    4.2421   -0.0292   -4.8754 C   0  0  0  0  0  0  0  0  0  0  0  0
    3.2714   -0.0237   -3.9764 C   0  0  0  0  0  0  0  0  0  0  0  0
    2.1681    0.5608   -4.4274 C   0  0  0  0  0  0  0  0  0  0  0  0
    1.6929    1.5229   -5.2023 C   0  0  0  0  0  0  0  0  0  0  0  0
    2.8886    1.7607   -5.7480 C   0  0  0  0  0  0  0  0  0  0  0  0
    4.1333    0.9851   -5.7274 C   0  0  0  0  0  0  0  0  0  0  0  0
    3.2134    3.0828   -5.7369 C   0  0  0  0  0  0  0  0  0  0  0  0
    3.5624    3.7198   -4.5746 N   0  0  0  0  0  0  0  0  0  0  0  0
    3.8505    5.0483   -4.6555 C   0  0  0  0  0  0  0  0  0  0  0  0
    4.0561    5.7396   -3.6677 O   0  0  0  0  0  0  0  0  0  0  0  0
    3.8755    5.4773   -6.0178 C   0  0  0  0  0  0  0  0  0  0  0  0
    3.5539    4.6961   -7.0705 C   0  0  0  0  0  0  0  0  0  0  0  0
    3.1102    3.4520   -6.9414 N   0  0  0  0  0  0  0  0  0  0  0  0
    3.8243    5.2961   -8.2712 C   0  0  0  0  0  0  0  0  0  0  0  0
    4.1600    6.5652   -8.0079 N   0  0  0  0  0  0  0  0  0  0  0  0
    4.1588    6.6353   -6.6383 N   0  0  0  0  0  0  0  0  0  0  0  0
    4.4191    7.8744   -5.9720 C   0  0  0  0  0  0  0  0  0  0  0  0
    3.7566    4.6587   -9.6265 C   0  0  0  0  0  0  0  0  0  0  0  0
    4.7930    3.5347   -9.8468 C   0  0  0  0  0  0  0  0  0  0  0  0
    4.6156    2.3558   -8.9113 C   0  0  0  0  0  0  0  0  0  0  0  0
    0.0936    1.8194   -5.3571 O   0  0  0  0  0  0  0  0  0  0  0  0
   -1.4026    1.9814   -4.1198 C   0  0  0  0  0  0  0  0  0  0  0  0
   -2.2913    0.8993   -4.3922 C   0  0  0  0  0  0  0  0  0  0  0  0
    0.4321    2.9543   -3.7072 N   0  0  0  0  0  0  0  0  0  0  0  0
    0.4904    3.4035   -2.4212 N   0  0  0  0  0  0  0  0  0  0  0  0
   -0.3952    3.8054   -5.0842 C   0  0  0  0  0  0  0  0  0  0  0  0
    1.1594   -0.0400   -0.3387 H   0  0  0  0  0  0  0  0  0  0  0  0
    0.9578   -0.6891    1.0609 H   0  0  0  0  0  0  0  0  0  0  0  0
    2.4943    0.1359    0.3748 H   0  0  0  0  0  0  0  0  0  0  0  0
   -0.3753    1.4932    0.5874 H   0  0  0  0  0  0  0  0  0  0  0  0
    0.9123    1.8421    1.7176 H   0  0  0  0  0  0  0  0  0  0  0  0
    0.7937    3.5442   -0.0079 H   0  0  0  0  0  0  0  0  0  0  0  0
    2.3164    2.6019   -0.2780 H   0  0  0  0  0  0  0  0  0  0  0  0
    0.0228   -2.1132   -4.5479 H   0  0  0  0  0  0  0  0  0  0  0  0
    2.3834   -2.7504   -2.7138 H   0  0  0  0  0  0  0  0  0  0  0  0
    2.4802   -6.0479   -0.4758 H   0  0  0  0  0  0  0  0  0  0  0  0
    0.8343   -4.6380    0.8234 H   0  0  0  0  0  0  0  0  0  0  0  0
   -1.6982   -2.0769   -2.1140 H   0  0  0  0  0  0  0  0  0  0  0  0
   -2.4824   -1.6384   -0.4992 H   0  0  0  0  0  0  0  0  0  0  0  0
   -0.1013   -0.8011   -1.0414 H   0  0  0  0  0  0  0  0  0  0  0  0
   -1.2576    0.3236   -1.6641 H   0  0  0  0  0  0  0  0  0  0  0  0
   -0.9204   -0.1237    0.0553 H   0  0  0  0  0  0  0  0  0  0  0  0
    6.1655   -3.2967   -3.1579 H   0  0  0  0  0  0  0  0  0  0  0  0
    6.0494   -3.2720   -4.7646 H   0  0  0  0  0  0  0  0  0  0  0  0
    3.8171   -2.6171   -2.7443 H   0  0  0  0  0  0  0  0  0  0  0  0
    4.1322   -1.5074   -3.1356 H   0  0  0  0  0  0  0  0  0  0  0  0
    0.6562   -4.1527   -4.8022 H   0  0  0  0  0  0  0  0  0  0  0  0
    0.6786   -3.6647   -6.3610 H   0  0  0  0  0  0  0  0  0  0  0  0
    3.7731   -4.5966   -6.6848 H   0  0  0  0  0  0  0  0  0  0  0  0
    3.4202   -5.8237   -5.7938 H   0  0  0  0  0  0  0  0  0  0  0  0
    1.5361   -1.5136   -6.9953 H   0  0  0  0  0  0  0  0  0  0  0  0
    2.5604   -0.4135   -6.4672 H   0  0  0  0  0  0  0  0  0  0  0  0
    4.0960   -1.1934   -8.2386 H   0  0  0  0  0  0  0  0  0  0  0  0
    4.6237   -2.2880   -7.1797 H   0  0  0  0  0  0  0  0  0  0  0  0
    1.4495   -6.7390   -5.0806 H   0  0  0  0  0  0  0  0  0  0  0  0
    1.9076   -8.0358   -6.2423 H   0  0  0  0  0  0  0  0  0  0  0  0
    3.2914   -8.1623   -4.0206 H   0  0  0  0  0  0  0  0  0  0  0  0
    4.4605   -7.9213   -5.4131 H   0  0  0  0  0  0  0  0  0  0  0  0
    1.9662   -5.8605   -3.1314 H   0  0  0  0  0  0  0  0  0  0  0  0
    3.1103   -4.7842   -2.9723 H   0  0  0  0  0  0  0  0  0  0  0  0
    2.0330   -5.0136   -4.6240 H   0  0  0  0  0  0  0  0  0  0  0  0
    1.8560   -3.5551   -3.8595 H   0  0  0  0  0  0  0  0  0  0  0  0
    5.0446   -5.5683   -6.7475 H   0  0  0  0  0  0  0  0  0  0  0  0
    6.1580   -4.3201   -6.7982 H   0  0  0  0  0  0  0  0  0  0  0  0
    6.3853   -5.3996   -4.1500 H   0  0  0  0  0  0  0  0  0  0  0  0
    6.3734   -6.7812   -5.0537 H   0  0  0  0  0  0  0  0  0  0  0  0
    2.7914   -0.8565   -3.4223 H   0  0  0  0  0  0  0  0  0  0  0  0
    1.5383   -0.1536   -4.0834 H   0  0  0  0  0  0  0  0  0  0  0  0
    4.6222    0.7593   -6.6576 H   0  0  0  0  0  0  0  0  0  0  0  0
    3.4812    3.2911   -3.6532 H   0  0  0  0  0  0  0  0  0  0  0  0
    3.5387    8.1313   -5.3782 H   0  0  0  0  0  0  0  0  0  0  0  0
    5.2935    7.7398   -5.3336 H   0  0  0  0  0  0  0  0  0  0  0  0
    4.6039    8.6298   -6.7311 H   0  0  0  0  0  0  0  0  0  0  0  0
    2.7514    4.2438   -9.7950 H   0  0  0  0  0  0  0  0  0  0  0  0
    3.9153    5.4277  -10.3860 H   0  0  0  0  0  0  0  0  0  0  0  0
    4.7186    3.1539  -10.8707 H   0  0  0  0  0  0  0  0  0  0  0  0
    5.8006    3.9376   -9.7037 H   0  0  0  0  0  0  0  0  0  0  0  0
    3.5889    1.9671   -8.9587 H   0  0  0  0  0  0  0  0  0  0  0  0
    5.3208    1.5440   -9.0714 H   0  0  0  0  0  0  0  0  0  0  0  0
    4.8761    2.6811   -7.9089 H   0  0  0  0  0  0  0  0  0  0  0  0
   -1.2986    1.9081   -2.9457 H   0  0  0  0  0  0  0  0  0  0  0  0
   -1.7703    3.0219   -3.8509 H   0  0  0  0  0  0  0  0  0  0  0  0
   -1.8976    0.0152   -3.9147 H   0  0  0  0  0  0  0  0  0  0  0  0
   -3.1099    1.0049   -3.7241 H   0  0  0  0  0  0  0  0  0  0  0  0
   -2.1989    0.9991   -5.4641 H   0  0  0  0  0  0  0  0  0  0  0  0
    0.1466    3.6061   -6.0308 H   0  0  0  0  0  0  0  0  0  0  0  0
   -1.3932    3.3089   -5.4384 H   0  0  0  0  0  0  0  0  0  0  0  0
   -0.7050    4.7677   -4.7418 H   0  0  0  0  0  0  0  0  0  0  0  0
  1  2  1  0  0  0  0
  1 73  1  0  0  0  0
  1 74  1  0  0  0  0
  1 75  1  0  0  0  0
  2  3  1  0  0  0  0
  2 76  1  0  0  0  0
  2 77  1  0  0  0  0
  3  4  1  0  0  0  0
  3 78  1  0  0  0  0
  3 79  1  0  0  0  0
  4  5  1  0  0  0  0
  4 71  2  0  0  0  0
  5  6  2  0  0  0  0
  5 11  1  0  0  0  0
  6  7  1  0  0  0  0
  6 70  1  0  0  0  0
  7  8  2  0  0  0  0
  7  9  1  0  0  0  0
  9 10  1  0  0  0  0
  9 80  1  0  0  0  0
 10 11  2  0  0  0  0
 10 12  1  0  0  0  0
 12 13  2  0  0  0  0
 12 17  1  0  0  0  0
 13 14  1  0  0  0  0
 13 81  1  0  0  0  0
 14 15  2  0  0  0  0
 14 21  1  0  0  0  0
 15 16  1  0  0  0  0
 15 82  1  0  0  0  0
 16 17  2  0  0  0  0
 16 83  1  0  0  0  0
 17 18  1  0  0  0  0
 18 19  1  0  0  0  0
 19 20  1  0  0  0  0
 19 84  1  0  0  0  0
 19 85  1  0  0  0  0
 20 86  1  0  0  0  0
 20 87  1  0  0  0  0
 20 88  1  0  0  0  0
 21 22  2  0  0  0  0
 21 23  2  0  0  0  0
 21 24  1  0  0  0  0
 24 25  1  0  0  0  0
 24 29  1  0  0  0  0
 25 26  1  0  0  0  0
 25 89  1  0  0  0  0
 25 90  1  0  0  0  0
 26 27  1  0  0  0  0
 26 91  1  0  0  0  0
 26 92  1  0  0  0  0
 27 28  1  0  0  0  0
 27 30  1  0  0  0  0
 28 29  1  0  0  0  0
 28 93  1  0  0  0  0
 28 94  1  0  0  0  0
 29 95  1  0  0  0  0
 29 96  1  0  0  0  0
 30 31  1  0  0  0  0
 30 97  1  0  0  0  0
 30 98  1  0  0  0  0
 31 32  1  0  0  0  0
 31 99  1  0  0  0  0
 31100  1  0  0  0  0
 32 33  1  0  0  0  0
 33 34  2  0  0  0  0
 33 35  1  0  0  0  0
 35 36  1  0  0  0  0
 36 37  1  0  0  0  0
 36101  1  0  0  0  0
 36102  1  0  0  0  0
 37 38  1  0  0  0  0
 37103  1  0  0  0  0
 37104  1  0  0  0  0
 38 39  1  0  0  0  0
 38 43  1  0  0  0  0
 39 40  1  0  0  0  0
 39105  1  0  0  0  0
 39106  1  0  0  0  0
 40 41  1  0  0  0  0
 40107  1  0  0  0  0
 40108  1  0  0  0  0
 41 42  1  0  0  0  0
 41 44  1  0  0  0  0
 42 43  1  0  0  0  0
 42109  1  0  0  0  0
 42110  1  0  0  0  0
 43111  1  0  0  0  0
 43112  1  0  0  0  0
 44 45  2  0  0  0  0
 44 46  2  0  0  0  0
 44 47  1  0  0  0  0
 47 48  2  0  0  0  0
 47 52  1  0  0  0  0
 48 49  1  0  0  0  0
 48113  1  0  0  0  0
 49 50  2  0  0  0  0
 49114  1  0  0  0  0
 50 51  1  0  0  0  0
 50 67  1  0  0  0  0
 51 52  2  0  0  0  0
 51 53  1  0  0  0  0
 52115  1  0  0  0  0
 53 54  1  0  0  0  0
 53 59  2  0  0  0  0
 54 55  1  0  0  0  0
 54116  1  0  0  0  0
 55 56  2  0  0  0  0
 55 57  1  0  0  0  0
 57 58  2  0  0  0  0
 57 62  1  0  0  0  0
 58 59  1  0  0  0  0
 58 60  1  0  0  0  0
 60 61  2  0  0  0  0
 60 64  1  0  0  0  0
 61 62  1  0  0  0  0
 62 63  1  0  0  0  0
 63117  1  0  0  0  0
 63118  1  0  0  0  0
 63119  1  0  0  0  0
 64 65  1  0  0  0  0
 64120  1  0  0  0  0
 64121  1  0  0  0  0
 65 66  1  0  0  0  0
 65122  1  0  0  0  0
 65123  1  0  0  0  0
 66124  1  0  0  0  0
 66125  1  0  0  0  0
 66126  1  0  0  0  0
 67 68  1  0  0  0  0
 68 69  1  0  0  0  0
 68127  1  0  0  0  0
 68128  1  0  0  0  0
 69129  1  0  0  0  0
 69130  1  0  0  0  0
 69131  1  0  0  0  0
 70 71  1  0  0  0  0
 70 72  1  0  0  0  0
 72132  1  0  0  0  0
 72133  1  0  0  0  0
 72134  1  0  0  0  0
M  END
>  <DRUGBANK_ID>
DB11927

>  <COMMON_NAME>
Lodenafil carbonate

>  <CAS_NUMBER>
398507-55-6

>  <UNII>
29X84F932D

>  <SYNONYMS>
Lodenafil carbonate

$$$$
