792
 OpenBabel10282417113D

 40 41  0  0  1  0  0  0  0  0999 V2000
    1.0981   -0.0067   -0.0948 N   0  0  0  0  0  0  0  0  0  0  0  0
   -2.0074   -0.5223    1.3979 N   0  0  0  0  0  0  0  0  0  0  0  0
    3.1111   -1.2820   -0.0177 N   0  0  0  0  0  0  0  0  0  0  0  0
    0.2010   -1.2176   -0.0267 C   0  0  0  0  0  0  0  0  0  0  0  0
   -0.7802   -1.4060    1.2442 C   0  0  0  0  0  0  0  0  0  0  0  0
    0.5877    1.3661   -0.2174 C   0  0  0  0  0  0  0  0  0  0  0  0
    2.4885   -0.0872   -0.0959 C   0  0  0  0  0  0  0  0  0  0  0  0
    0.8683    2.1919    1.1156 C   0  0  0  0  0  0  0  0  0  0  0  0
   -2.7751   -0.7823    2.6136 C   0  0  0  0  0  0  0  0  0  0  0  0
   -1.5962    0.8322    1.6664 C   0  0  0  0  0  0  0  0  0  0  0  0
    0.6676    3.5681    1.1147 C   0  0  0  0  0  0  0  0  0  0  0  0
    1.1119    1.5579    2.3809 C   0  0  0  0  0  0  0  0  0  0  0  0
    3.2796    1.0840   -0.1262 C   0  0  0  0  0  0  0  0  0  0  0  0
    0.6481    4.2719    2.3255 C   0  0  0  0  0  0  0  0  0  0  0  0
    0.9364    2.2409    3.5856 C   0  0  0  0  0  0  0  0  0  0  0  0
    4.6465    1.0782   -0.0391 C   0  0  0  0  0  0  0  0  0  0  0  0
    0.7363    3.6107    3.5547 C   0  0  0  0  0  0  0  0  0  0  0  0
    4.4633   -1.2779    0.0173 C   0  0  0  0  0  0  0  0  0  0  0  0
    5.2725   -0.1497    0.0115 C   0  0  0  0  0  0  0  0  0  0  0  0
   -0.4018   -1.2877   -0.9416 H   0  0  0  0  0  0  0  0  0  0  0  0
    0.8244   -2.1259   -0.0371 H   0  0  0  0  0  0  0  0  0  0  0  0
   -1.1629   -2.4349    1.1800 H   0  0  0  0  0  0  0  0  0  0  0  0
   -0.1619   -1.3694    2.1510 H   0  0  0  0  0  0  0  0  0  0  0  0
    1.0045    1.8867   -1.0904 H   0  0  0  0  0  0  0  0  0  0  0  0
   -0.4812    1.3519   -0.4799 H   0  0  0  0  0  0  0  0  0  0  0  0
   -2.1348   -0.7295    3.5063 H   0  0  0  0  0  0  0  0  0  0  0  0
   -3.5237    0.0229    2.7150 H   0  0  0  0  0  0  0  0  0  0  0  0
   -3.3033   -1.7265    2.5830 H   0  0  0  0  0  0  0  0  0  0  0  0
   -1.4249    1.1014    2.7148 H   0  0  0  0  0  0  0  0  0  0  0  0
   -0.6309    0.7489    1.3047 H   0  0  0  0  0  0  0  0  0  0  0  0
   -2.1035    1.6346    1.1313 H   0  0  0  0  0  0  0  0  0  0  0  0
    0.4892    4.0877    0.1798 H   0  0  0  0  0  0  0  0  0  0  0  0
    1.2414    0.4748    2.4460 H   0  0  0  0  0  0  0  0  0  0  0  0
    2.8491    2.0810   -0.1817 H   0  0  0  0  0  0  0  0  0  0  0  0
    0.5067    5.3478    2.3137 H   0  0  0  0  0  0  0  0  0  0  0  0
    0.8791    1.6944    4.5267 H   0  0  0  0  0  0  0  0  0  0  0  0
    5.1854    2.0184   -0.0169 H   0  0  0  0  0  0  0  0  0  0  0  0
    0.6295    4.1597    4.4865 H   0  0  0  0  0  0  0  0  0  0  0  0
    4.9184   -2.2657    0.0518 H   0  0  0  0  0  0  0  0  0  0  0  0
    6.3456   -0.2066    0.0365 H   0  0  0  0  0  0  0  0  0  0  0  0
  1  4  1  0  0  0  0
  1  6  1  0  0  0  0
  1  7  1  0  0  0  0
  2  5  1  0  0  0  0
  2  9  1  0  0  0  0
  2 10  1  0  0  0  0
  3  7  1  0  0  0  0
  3 18  2  0  0  0  0
  4  5  1  0  0  0  0
  4 20  1  0  0  0  0
  4 21  1  0  0  0  0
  5 22  1  0  0  0  0
  5 23  1  0  0  0  0
  6  8  1  0  0  0  0
  6 24  1  0  0  0  0
  6 25  1  0  0  0  0
  7 13  2  0  0  0  0
  8 11  2  0  0  0  0
  8 12  1  0  0  0  0
  9 26  1  0  0  0  0
  9 27  1  0  0  0  0
  9 28  1  0  0  0  0
 10 29  1  0  0  0  0
 10 30  1  0  0  0  0
 10 31  1  0  0  0  0
 11 14  1  0  0  0  0
 11 32  1  0  0  0  0
 12 15  2  0  0  0  0
 12 33  1  0  0  0  0
 13 16  1  0  0  0  0
 13 34  1  0  0  0  0
 14 17  2  0  0  0  0
 14 35  1  0  0  0  0
 15 17  1  0  0  0  0
 15 36  1  0  0  0  0
 16 19  2  0  0  0  0
 16 37  1  0  0  0  0
 17 38  1  0  0  0  0
 18 19  1  0  0  0  0
 18 39  1  0  0  0  0
 19 40  1  0  0  0  0
M  END
>  <DRUGBANK_ID>
DB00792

>  <SECONDARY_ACCESSION_NUMBERS>
APRD00689

>  <COMMON_NAME>
Tripelennamine

>  <CAS_NUMBER>
91-81-6

>  <UNII>
3C5ORO99TY

>  <SYNONYMS>
Tripelennamin; Tripelennamina; Tripelennamine; TripÃ©lennamine; Tripelennaminum

$$$$
