
 OpenBabel10282417213D

 37 41  0  0  1  0  0  0  0  0999 V2000
    1.8076    0.1646    0.2208 C   0  0  0  0  0  0  0  0  0  0  0  0
    0.4326    0.4188    1.0145 C   0  0  2  0  0  0  0  0  0  0  0  0
   -0.1227   -0.2954   -0.4471 C   0  0  0  0  0  0  0  0  0  0  0  0
   -1.5526    0.0285   -0.7689 C   0  0  0  0  0  0  0  0  0  0  0  0
   -1.9818    0.4997    0.5697 C   0  0  0  0  0  0  0  0  0  0  0  0
   -0.8198    1.2960    1.0114 N   0  0  3  0  0  0  0  0  0  0  0  0
   -0.7144    2.5724    0.2210 C   0  0  0  0  0  0  0  0  0  0  0  0
    0.2616    3.5620    0.8472 C   0  0  0  0  0  0  0  0  0  0  0  0
    0.2342    4.8375    0.5467 N   0  0  0  0  0  0  0  0  0  0  0  0
    0.9578    5.7510    1.3160 N   0  0  0  0  0  0  0  0  0  0  0  0
    2.1951    6.0474    1.8967 C   0  0  0  0  0  0  0  0  0  0  0  0
    2.5520    7.1781    2.1234 O   0  0  0  0  0  0  0  0  0  0  0  0
    2.8710    4.8840    2.5864 C   0  0  0  0  0  0  0  0  0  0  0  0
    2.3678    3.5543    2.4197 C   0  0  0  0  0  0  0  0  0  0  0  0
    3.0290    2.5034    3.0518 C   0  0  0  0  0  0  0  0  0  0  0  0
    2.3437    1.3330    2.7255 N   0  0  0  0  0  0  0  0  0  0  0  0
    1.3087    1.5767    1.8048 C   0  0  0  0  0  0  0  0  0  0  0  0
    1.2688    2.9658    1.6936 C   0  0  0  0  0  0  0  0  0  0  0  0
    4.1789    2.7309    3.8406 C   0  0  0  0  0  0  0  0  0  0  0  0
    4.6173    4.0536    4.0186 C   0  0  0  0  0  0  0  0  0  0  0  0
    5.6993    4.2858    4.7780 F   0  0  0  0  0  0  0  0  0  0  0  0
    3.9734    5.1292    3.4249 C   0  0  0  0  0  0  0  0  0  0  0  0
    1.8112    0.8237   -0.6588 H   0  0  0  0  0  0  0  0  0  0  0  0
    1.8893   -0.9198    0.0617 H   0  0  0  0  0  0  0  0  0  0  0  0
    2.7909    0.3660    0.6459 H   0  0  0  0  0  0  0  0  0  0  0  0
   -0.0308   -1.4032   -0.4126 H   0  0  0  0  0  0  0  0  0  0  0  0
    0.3784   -0.0103   -1.3871 H   0  0  0  0  0  0  0  0  0  0  0  0
   -2.1240   -0.8026   -1.1944 H   0  0  0  0  0  0  0  0  0  0  0  0
   -1.5495    0.8193   -1.5306 H   0  0  0  0  0  0  0  0  0  0  0  0
   -2.1361   -0.3573    1.2391 H   0  0  0  0  0  0  0  0  0  0  0  0
   -2.9226    1.0540    0.5172 H   0  0  0  0  0  0  0  0  0  0  0  0
   -0.3305    2.3960   -0.7835 H   0  0  0  0  0  0  0  0  0  0  0  0
   -1.7018    3.0502    0.1490 H   0  0  0  0  0  0  0  0  0  0  0  0
    0.8256    5.1750    2.1202 H   0  0  0  0  0  0  0  0  0  0  0  0
    2.6617    0.4151    3.0071 H   0  0  0  0  0  0  0  0  0  0  0  0
    4.7304    1.9260    4.3177 H   0  0  0  0  0  0  0  0  0  0  0  0
    4.3404    6.1393    3.6047 H   0  0  0  0  0  0  0  0  0  0  0  0
  1 23  1  0  0  0  0
  1 24  1  0  0  0  0
  1 25  1  0  0  0  0
  2  1  1  6  0  0  0
  2  3  1  0  0  0  0
  2  6  1  0  0  0  0
  2 17  1  0  0  0  0
  3  4  1  0  0  0  0
  3 26  1  0  0  0  0
  3 27  1  0  0  0  0
  4  5  1  0  0  0  0
  4 28  1  0  0  0  0
  4 29  1  0  0  0  0
  5  6  1  0  0  0  0
  5 30  1  0  0  0  0
  5 31  1  0  0  0  0
  6  7  1  0  0  0  0
  7  8  1  0  0  0  0
  7 32  1  0  0  0  0
  7 33  1  0  0  0  0
  8  9  2  0  0  0  0
  8 18  1  0  0  0  0
  9 10  1  0  0  0  0
 10 11  1  0  0  0  0
 10 34  1  0  0  0  0
 11 12  2  0  0  0  0
 11 13  1  0  0  0  0
 13 14  2  0  0  0  0
 13 22  1  0  0  0  0
 14 15  1  0  0  0  0
 14 18  1  0  0  0  0
 15 16  1  0  0  0  0
 15 19  2  0  0  0  0
 16 17  1  0  0  0  0
 16 35  1  0  0  0  0
 17 18  2  0  0  0  0
 19 20  1  0  0  0  0
 19 36  1  0  0  0  0
 20 21  1  0  0  0  0
 20 22  2  0  0  0  0
 22 37  1  0  0  0  0
M  END
>  <DRUGBANK_ID>
DB14769

>  <COMMON_NAME>
Pamiparib

>  <CAS_NUMBER>
1446261-44-4

>  <UNII>
8375F9S90C

>  <SYNONYMS>
Pamiparib

$$$$
