7CS
 OpenBabel10282417163D

 40 43  0  0  0  0  0  0  0  0999 V2000
    1.6483   -1.2201   -0.0124 C   0  0  0  0  0  0  0  0  0  0  0  0
    3.5043   -2.6861    0.0030 O   0  0  0  0  0  0  0  0  0  0  0  0
    0.6123   -8.3158    0.0143 C   0  0  0  0  0  0  0  0  0  0  0  0
    2.2849   -2.5446   -0.0307 C   0  0  0  0  0  0  0  0  0  0  0  0
    2.3751   -0.0332    0.0209 C   0  0  0  0  0  0  0  0  0  0  0  0
    1.4097   -3.5882   -0.0952 O   0  0  0  0  0  0  0  0  0  0  0  0
   -1.0130   -5.1064   -0.6412 C   0  0  0  0  0  0  0  0  0  0  0  0
   -0.8913   -5.0913    0.8958 C   0  0  0  0  0  0  0  0  0  0  0  0
   -0.1613   -7.0935    0.0828 N   0  0  0  0  0  0  0  0  0  0  0  0
    0.1186   -6.1992    1.2093 C   0  0  1  0  0  0  0  0  0  0  0  0
    1.5666   -5.6592    1.2011 C   0  0  0  0  0  0  0  0  0  0  0  0
   -0.0707   -6.2221   -1.0899 C   0  0  2  0  0  0  0  0  0  0  0  0
    1.3620   -5.6953   -1.3260 C   0  0  0  0  0  0  0  0  0  0  0  0
    1.9392   -4.9469   -0.1113 C   0  0  1  0  0  0  0  0  0  0  0  0
   -2.0282    0.6846    0.0026 C   0  0  0  0  0  0  0  0  0  0  0  0
   -0.8623    1.3692   -0.0112 N   0  0  0  0  0  0  0  0  0  0  0  0
    0.2240    0.5713   -0.0086 C   0  0  0  0  0  0  0  0  0  0  0  0
    0.2654   -0.8213   -0.0077 C   0  0  0  0  0  0  0  0  0  0  0  0
   -0.9847   -1.4583    0.0077 C   0  0  0  0  0  0  0  0  0  0  0  0
   -2.1475   -0.6927    0.0190 C   0  0  0  0  0  0  0  0  0  0  0  0
    1.5092    1.0276    0.0070 N   0  0  0  0  0  0  0  0  0  0  0  0
   -0.1035   -6.6677    2.1745 H   0  0  0  0  0  0  0  0  0  0  0  0
   -0.4503   -6.7074   -1.9953 H   0  0  0  0  0  0  0  0  0  0  0  0
    3.0303   -4.9247   -0.2055 H   0  0  0  0  0  0  0  0  0  0  0  0
    1.6898   -8.1547   -0.0679 H   0  0  0  0  0  0  0  0  0  0  0  0
    0.4288   -8.9315    0.9008 H   0  0  0  0  0  0  0  0  0  0  0  0
    0.2943   -8.9060   -0.8525 H   0  0  0  0  0  0  0  0  0  0  0  0
    3.4446    0.1318    0.0512 H   0  0  0  0  0  0  0  0  0  0  0  0
   -0.7462   -4.1620   -1.1188 H   0  0  0  0  0  0  0  0  0  0  0  0
   -2.0499   -5.3189   -0.9239 H   0  0  0  0  0  0  0  0  0  0  0  0
   -1.8707   -5.3056    1.3389 H   0  0  0  0  0  0  0  0  0  0  0  0
   -0.5673   -4.1301    1.3026 H   0  0  0  0  0  0  0  0  0  0  0  0
    2.2560   -6.4977    1.3614 H   0  0  0  0  0  0  0  0  0  0  0  0
    1.7004   -4.9729    2.0454 H   0  0  0  0  0  0  0  0  0  0  0  0
    2.0153   -6.5431   -1.5673 H   0  0  0  0  0  0  0  0  0  0  0  0
    1.3640   -5.0366   -2.2017 H   0  0  0  0  0  0  0  0  0  0  0  0
   -2.9232    1.3029    0.0048 H   0  0  0  0  0  0  0  0  0  0  0  0
   -1.0611   -2.5283    0.0275 H   0  0  0  0  0  0  0  0  0  0  0  0
   -3.1204   -1.1714    0.0445 H   0  0  0  0  0  0  0  0  0  0  0  0
    1.7530    2.0075    0.0211 H   0  0  0  0  0  0  0  0  0  0  0  0
  1 18  1  0  0  0  0
  1  5  2  0  0  0  0
  1  4  1  0  0  0  0
  2  4  2  0  0  0  0
  3  9  1  0  0  0  0
  3 25  1  0  0  0  0
  3 26  1  0  0  0  0
  3 27  1  0  0  0  0
  4  6  1  0  0  0  0
  5 21  1  0  0  0  0
  5 28  1  0  0  0  0
  7  8  1  0  0  0  0
  7 12  1  0  0  0  0
  7 29  1  0  0  0  0
  7 30  1  0  0  0  0
  8 10  1  0  0  0  0
  8 31  1  0  0  0  0
  8 32  1  0  0  0  0
  9 10  1  0  0  0  0
  9 12  1  0  0  0  0
 10 11  1  0  0  0  0
 10 22  1  1  0  0  0
 11 14  1  0  0  0  0
 11 33  1  0  0  0  0
 11 34  1  0  0  0  0
 12 13  1  0  0  0  0
 12 23  1  6  0  0  0
 13 14  1  0  0  0  0
 13 35  1  0  0  0  0
 13 36  1  0  0  0  0
 14  6  1  0  0  0  0
 14 24  1  6  0  0  0
 15 16  2  0  0  0  0
 15 20  1  0  0  0  0
 15 37  1  0  0  0  0
 16 17  1  0  0  0  0
 17 21  1  0  0  0  0
 17 18  2  0  0  0  0
 18 19  1  0  0  0  0
 19 20  2  0  0  0  0
 19 38  1  0  0  0  0
 20 39  1  0  0  0  0
 21 40  1  0  0  0  0
M  END
>  <DRUGBANK_ID>
DB07243

>  <COMMON_NAME>
(3-ENDO)-8-METHYL-8-AZABICYCLO[3.2.1]OCT-3-YL 1H-PYRROLO[2,3-B]PYRIDINE-3-CARBOXYLATE

$$$$
