OX3
 OpenBabel10282417173D

 35 36  0  0  0  0  0  0  0  0999 V2000
    0.8870   -0.0477    0.0099 C   0  0  0  0  0  0  0  0  0  0  0  0
    2.2487   -0.0159    0.0069 O   0  0  0  0  0  0  0  0  0  0  0  0
    0.2351    1.1708    0.0158 C   0  0  0  0  0  0  0  0  0  0  0  0
   -1.1592    1.2031    0.0167 C   0  0  0  0  0  0  0  0  0  0  0  0
   -1.9256    0.0287    0.0094 C   0  0  0  0  0  0  0  0  0  0  0  0
   -1.2535   -1.1973    0.0017 C   0  0  0  0  0  0  0  0  0  0  0  0
    0.1561   -1.2343    0.0079 C   0  0  0  0  0  0  0  0  0  0  0  0
   -3.4255    0.0896   -0.0035 C   0  0  0  0  0  0  0  0  0  0  0  0
   -4.0251    1.2343    0.0822 N   0  0  0  0  0  0  0  0  0  0  0  0
   -5.4154    1.1841   -0.0531 O   0  0  0  0  0  0  0  0  0  0  0  0
   -6.0342    2.4227   -0.1143 C   0  0  0  0  0  0  0  0  0  0  0  0
   -7.2741    2.4628   -0.1124 O   0  0  0  0  0  0  0  0  0  0  0  0
   -5.2308    3.7546   -0.1199 C   0  0  0  0  0  0  0  0  0  0  0  0
   -6.0204    4.8761   -0.8442 C   0  0  0  0  0  0  0  0  0  0  0  0
   -5.2356    6.1924   -0.9606 C   0  0  0  0  0  0  0  0  0  0  0  0
   -3.8843    5.9972   -1.6364 C   0  0  0  0  0  0  0  0  0  0  0  0
   -3.0823    4.9650   -0.8890 C   0  0  0  0  0  0  0  0  0  0  0  0
   -3.8551    3.6742   -0.7659 C   0  0  0  0  0  0  0  0  0  0  0  0
    2.5984   -0.9202   -0.0199 H   0  0  0  0  0  0  0  0  0  0  0  0
    0.8016    2.0986    0.0229 H   0  0  0  0  0  0  0  0  0  0  0  0
   -1.6150    2.1789    0.0244 H   0  0  0  0  0  0  0  0  0  0  0  0
   -1.8064   -2.1324   -0.0031 H   0  0  0  0  0  0  0  0  0  0  0  0
    0.6649   -2.1936    0.0146 H   0  0  0  0  0  0  0  0  0  0  0  0
   -3.9838   -0.8583   -0.0960 H   0  0  0  0  0  0  0  0  0  0  0  0
   -5.1173    4.0498    0.9331 H   0  0  0  0  0  0  0  0  0  0  0  0
   -6.2864    4.5357   -1.8537 H   0  0  0  0  0  0  0  0  0  0  0  0
   -6.9661    5.0775   -0.3263 H   0  0  0  0  0  0  0  0  0  0  0  0
   -5.8154    6.9237   -1.5335 H   0  0  0  0  0  0  0  0  0  0  0  0
   -5.0825    6.6148    0.0405 H   0  0  0  0  0  0  0  0  0  0  0  0
   -4.0267    5.6667   -2.6721 H   0  0  0  0  0  0  0  0  0  0  0  0
   -3.3228    6.9362   -1.6642 H   0  0  0  0  0  0  0  0  0  0  0  0
   -2.1342    4.7583   -1.3991 H   0  0  0  0  0  0  0  0  0  0  0  0
   -2.8295    5.3263    0.1161 H   0  0  0  0  0  0  0  0  0  0  0  0
   -3.2223    3.1140   -0.1016 H   0  0  0  0  0  0  0  0  0  0  0  0
   -3.9278    3.1694   -1.7371 H   0  0  0  0  0  0  0  0  0  0  0  0
  1  7  1  0  0  0  0
  1  2  1  0  0  0  0
  1  3  2  0  0  0  0
  2 19  1  0  0  0  0
  3  4  1  0  0  0  0
  3 20  1  0  0  0  0
  4  5  2  0  0  0  0
  4 21  1  0  0  0  0
  5  6  1  0  0  0  0
  5  8  1  0  0  0  0
  6  7  2  0  0  0  0
  6 22  1  0  0  0  0
  7 23  1  0  0  0  0
  8  9  2  0  0  0  0
  8 24  1  0  0  0  0
  9 10  1  0  0  0  0
 10 11  1  0  0  0  0
 11 13  1  0  0  0  0
 11 12  2  0  0  0  0
 13 14  1  0  0  0  0
 13 18  1  0  0  0  0
 13 25  1  0  0  0  0
 14 15  1  0  0  0  0
 14 26  1  0  0  0  0
 14 27  1  0  0  0  0
 15 16  1  0  0  0  0
 15 28  1  0  0  0  0
 15 29  1  0  0  0  0
 16 17  1  0  0  0  0
 16 30  1  0  0  0  0
 16 31  1  0  0  0  0
 17 18  1  0  0  0  0
 17 32  1  0  0  0  0
 17 33  1  0  0  0  0
 18 34  1  0  0  0  0
 18 35  1  0  0  0  0
M  END
>  <DRUGBANK_ID>
DB08333

>  <COMMON_NAME>
4-HYDROXYBENZALDEHYDE O-(CYCLOHEXYLCARBONYL)OXIME

$$$$
