497
 OpenBabel10282417123D

 52 55  0  0  0  0  0  0  0  0999 V2000
   -0.2133    2.2043   -2.2342 C   0  0  0  0  0  0  0  0  0  0  0  0
    1.1605    2.2028   -1.5877 C   0  0  0  0  0  0  0  0  0  0  0  0
    1.1062    2.5464   -0.0971 C   0  0  1  0  0  0  0  0  0  0  0  0
    2.4845    2.9492    0.4494 C   0  0  0  0  0  0  0  0  0  0  0  0
    2.9664    4.2660   -0.0056 N   0  0  0  0  0  0  0  0  0  0  0  0
    1.9083    5.1808   -0.4892 C   0  0  0  0  0  0  0  0  0  0  0  0
    0.5666    4.9773    0.1609 C   0  0  0  0  0  0  0  0  0  0  0  0
    0.1463    3.6633    0.2364 C   0  0  0  0  0  0  0  0  0  0  0  0
   -1.1771    3.4030    0.5414 C   0  0  0  0  0  0  0  0  0  0  0  0
   -2.0272    4.3335    1.1066 C   0  0  0  0  0  0  0  0  0  0  0  0
   -3.2502    3.9342    1.7008 N   0  0  0  0  0  0  0  0  0  0  0  0
   -3.7570    2.6543    1.9835 C   0  0  0  0  0  0  0  0  0  0  0  0
   -4.9086    2.5254    2.3733 O   0  0  0  0  0  0  0  0  0  0  0  0
   -2.9269    1.4133    1.8357 C   0  0  0  0  0  0  0  0  0  0  0  0
   -1.6402    1.3533    2.3845 C   0  0  0  0  0  0  0  0  0  0  0  0
   -0.7520    0.3571    1.9712 C   0  0  0  0  0  0  0  0  0  0  0  0
   -1.1721   -0.6871    1.1446 C   0  0  0  0  0  0  0  0  0  0  0  0
   -0.2692   -1.7048    0.7946 C   0  0  0  0  0  0  0  0  0  0  0  0
   -0.6998   -2.8370    0.1013 C   0  0  0  0  0  0  0  0  0  0  0  0
   -2.0390   -2.9050   -0.3013 C   0  0  0  0  0  0  0  0  0  0  0  0
   -2.9253   -1.8461   -0.0396 C   0  0  0  0  0  0  0  0  0  0  0  0
   -2.5131   -0.7236    0.7005 C   0  0  0  0  0  0  0  0  0  0  0  0
   -3.3744    0.3578    1.0206 C   0  0  0  0  0  0  0  0  0  0  0  0
    0.2313   -3.9851   -0.1712 C   0  0  0  0  0  0  0  0  0  0  0  0
    1.5409   -3.9493    0.2023 N   0  0  0  0  0  0  0  0  0  0  0  0
   -0.2284   -5.0350   -0.7722 N   0  0  0  0  0  0  0  0  0  0  0  0
   -1.6128    5.6652    1.0469 C   0  0  0  0  0  0  0  0  0  0  0  0
   -0.3391    5.9872    0.5143 C   0  0  0  0  0  0  0  0  0  0  0  0
    0.8088    1.6399    0.4327 H   0  0  0  0  0  0  0  0  0  0  0  0
   -0.8628    1.4610   -1.7615 H   0  0  0  0  0  0  0  0  0  0  0  0
   -0.1354    1.9875   -3.2987 H   0  0  0  0  0  0  0  0  0  0  0  0
   -0.6878    3.1879   -2.1460 H   0  0  0  0  0  0  0  0  0  0  0  0
    1.6224    1.2142   -1.7016 H   0  0  0  0  0  0  0  0  0  0  0  0
    1.8080    2.8987   -2.1272 H   0  0  0  0  0  0  0  0  0  0  0  0
    3.2200    2.1768    0.1892 H   0  0  0  0  0  0  0  0  0  0  0  0
    2.4508    2.9604    1.5491 H   0  0  0  0  0  0  0  0  0  0  0  0
    3.6201    4.1171   -0.7729 H   0  0  0  0  0  0  0  0  0  0  0  0
    2.2436    6.2131   -0.3819 H   0  0  0  0  0  0  0  0  0  0  0  0
    1.7633    5.0153   -1.5674 H   0  0  0  0  0  0  0  0  0  0  0  0
   -1.5231    2.4153    0.2956 H   0  0  0  0  0  0  0  0  0  0  0  0
   -3.8895    4.6700    1.9843 H   0  0  0  0  0  0  0  0  0  0  0  0
   -1.2534    2.1852    2.9705 H   0  0  0  0  0  0  0  0  0  0  0  0
    0.2966    0.4475    2.2497 H   0  0  0  0  0  0  0  0  0  0  0  0
    0.7602   -1.6176    1.1215 H   0  0  0  0  0  0  0  0  0  0  0  0
   -2.4064   -3.7944   -0.8107 H   0  0  0  0  0  0  0  0  0  0  0  0
   -3.9545   -1.9321   -0.3823 H   0  0  0  0  0  0  0  0  0  0  0  0
   -4.3816    0.3924    0.6080 H   0  0  0  0  0  0  0  0  0  0  0  0
    2.1583   -4.7308    0.0331 H   0  0  0  0  0  0  0  0  0  0  0  0
    1.9493   -3.1715    0.6985 H   0  0  0  0  0  0  0  0  0  0  0  0
    0.5105   -5.7306   -0.8825 H   0  0  0  0  0  0  0  0  0  0  0  0
   -2.2622    6.4738    1.3745 H   0  0  0  0  0  0  0  0  0  0  0  0
   -0.0584    7.0289    0.3810 H   0  0  0  0  0  0  0  0  0  0  0  0
  1  2  1  0  0  0  0
  1 30  1  0  0  0  0
  1 31  1  0  0  0  0
  1 32  1  0  0  0  0
  2 33  1  0  0  0  0
  2 34  1  0  0  0  0
  3  4  1  0  0  0  0
  3  8  1  0  0  0  0
  3 29  1  1  0  0  0
  3  2  1  0  0  0  0
  4  5  1  0  0  0  0
  4 35  1  0  0  0  0
  4 36  1  0  0  0  0
  5  6  1  0  0  0  0
  5 37  1  0  0  0  0
  6  7  1  0  0  0  0
  6 38  1  0  0  0  0
  6 39  1  0  0  0  0
  7  8  2  0  0  0  0
  7 28  1  0  0  0  0
  8  9  1  0  0  0  0
  9 10  2  0  0  0  0
  9 40  1  0  0  0  0
 10 11  1  0  0  0  0
 10 27  1  0  0  0  0
 11 12  1  0  0  0  0
 11 41  1  0  0  0  0
 12 13  2  0  0  0  0
 12 14  1  0  0  0  0
 14 15  2  0  0  0  0
 14 23  1  0  0  0  0
 15 16  1  0  0  0  0
 15 42  1  0  0  0  0
 16 17  2  0  0  0  0
 16 43  1  0  0  0  0
 17 18  1  0  0  0  0
 17 22  1  0  0  0  0
 18 19  2  0  0  0  0
 18 44  1  0  0  0  0
 19 20  1  0  0  0  0
 19 24  1  0  0  0  0
 20 21  2  0  0  0  0
 20 45  1  0  0  0  0
 21 22  1  0  0  0  0
 21 46  1  0  0  0  0
 22 23  2  0  0  0  0
 23 47  1  0  0  0  0
 24 25  1  0  0  0  0
 24 26  2  0  0  0  0
 25 48  1  0  0  0  0
 25 49  1  0  0  0  0
 26 50  1  0  0  0  0
 27 28  2  0  0  0  0
 27 51  1  0  0  0  0
 28 52  1  0  0  0  0
M  END
>  <DRUGBANK_ID>
DB02551

>  <SECONDARY_ACCESSION_NUMBERS>
EXPT00201

>  <COMMON_NAME>
6-[N-(4-Ethyl-1,2,3,4-Tetrahydro-6-Isoquinolinyl)Carbamyl]-2-Naphthalenecarboxamidine

$$$$
