PUX
 OpenBabel10282417143D

 43 46  0  0  0  0  0  0  0  0999 V2000
    1.4421   -0.0065   -0.4632 C   0  0  0  0  0  0  0  0  0  0  0  0
    0.8064   -1.2847   -1.0016 C   0  0  0  0  0  0  0  0  0  0  0  0
    1.0403   -2.5795   -0.2293 C   0  0  0  0  0  0  0  0  0  0  0  0
    0.2650   -2.8372    1.0901 C   0  0  0  0  0  0  0  0  0  0  0  0
   -1.1927   -2.7114    1.1226 N   0  0  0  0  0  0  0  0  0  0  0  0
   -2.0661   -3.7194    1.5722 C   0  0  0  0  0  0  0  0  0  0  0  0
   -1.8080   -4.9449    2.0970 N   0  0  0  0  0  0  0  0  0  0  0  0
   -2.9691   -5.6044    2.3956 C   0  0  0  0  0  0  0  0  0  0  0  0
   -4.2495   -5.2068    2.2289 N   0  0  0  0  0  0  0  0  0  0  0  0
   -3.3300   -3.2178    1.3707 C   0  0  0  0  0  0  0  0  0  0  0  0
   -4.4511   -3.9876    1.7020 C   0  0  0  0  0  0  0  0  0  0  0  0
   -5.7255   -3.5109    1.5007 N   0  0  0  0  0  0  0  0  0  0  0  0
   -3.2921   -1.9662    0.8595 N   0  0  0  0  0  0  0  0  0  0  0  0
   -2.0232   -1.6154    0.8238 C   0  0  0  0  0  0  0  0  0  0  0  0
   -1.7538   -0.1769    0.4852 C   0  0  0  0  0  0  0  0  0  0  0  0
   -1.1917    0.7049    1.5746 C   0  0  0  0  0  0  0  0  0  0  0  0
   -0.0791    0.3828    2.3640 C   0  0  0  0  0  0  0  0  0  0  0  0
    0.5014    1.3252    3.1768 C   0  0  0  0  0  0  0  0  0  0  0  0
   -1.7610    1.9808    1.7448 C   0  0  0  0  0  0  0  0  0  0  0  0
    1.6332    1.1826    3.9191 O   0  0  0  0  0  0  0  0  0  0  0  0
   -1.2018    2.9036    2.6306 C   0  0  0  0  0  0  0  0  0  0  0  0
   -0.0381    2.5763    3.2802 C   0  0  0  0  0  0  0  0  0  0  0  0
    0.7096    3.3946    4.0634 O   0  0  0  0  0  0  0  0  0  0  0  0
    1.8672    2.5611    4.2811 C   0  0  0  0  0  0  0  0  0  0  0  0
   -2.8341   -6.8377    2.9251 F   0  0  0  0  0  0  0  0  0  0  0  0
    1.3366    0.1463    0.5976 H   0  0  0  0  0  0  0  0  0  0  0  0
    1.0154    0.8784   -0.9527 H   0  0  0  0  0  0  0  0  0  0  0  0
    2.5219   -0.0057   -0.6192 H   0  0  0  0  0  0  0  0  0  0  0  0
   -0.2611   -1.2268   -1.1608 H   0  0  0  0  0  0  0  0  0  0  0  0
    1.1771   -1.3850   -2.0249 H   0  0  0  0  0  0  0  0  0  0  0  0
    0.7706   -3.3934   -0.9122 H   0  0  0  0  0  0  0  0  0  0  0  0
    2.1196   -2.6757   -0.0503 H   0  0  0  0  0  0  0  0  0  0  0  0
    0.5046   -3.8692    1.3890 H   0  0  0  0  0  0  0  0  0  0  0  0
    0.6961   -2.2715    1.9107 H   0  0  0  0  0  0  0  0  0  0  0  0
   -5.8203   -2.5736    1.1226 H   0  0  0  0  0  0  0  0  0  0  0  0
   -6.5255   -4.0638    1.7559 H   0  0  0  0  0  0  0  0  0  0  0  0
   -1.3034    0.0291   -0.4837 H   0  0  0  0  0  0  0  0  0  0  0  0
   -2.7613    0.2177    0.2620 H   0  0  0  0  0  0  0  0  0  0  0  0
    0.4309   -0.5541    2.2838 H   0  0  0  0  0  0  0  0  0  0  0  0
   -2.6496    2.2560    1.1805 H   0  0  0  0  0  0  0  0  0  0  0  0
   -1.6706    3.8635    2.8001 H   0  0  0  0  0  0  0  0  0  0  0  0
    2.6952    2.9316    3.6619 H   0  0  0  0  0  0  0  0  0  0  0  0
    2.1637    2.6423    5.3328 H   0  0  0  0  0  0  0  0  0  0  0  0
  1  2  1  0  0  0  0
  1 26  1  0  0  0  0
  1 27  1  0  0  0  0
  1 28  1  0  0  0  0
  2  3  1  0  0  0  0
  2 29  1  0  0  0  0
  2 30  1  0  0  0  0
  3  4  1  0  0  0  0
  3 31  1  0  0  0  0
  3 32  1  0  0  0  0
  4  5  1  0  0  0  0
  4 33  1  0  0  0  0
  4 34  1  0  0  0  0
  5  6  1  0  0  0  0
  5 14  1  0  0  0  0
  6  7  2  0  0  0  0
  6 10  1  0  0  0  0
  7  8  1  0  0  0  0
  8  9  2  0  0  0  0
  8 25  1  0  0  0  0
  9 11  1  0  0  0  0
 10 11  2  0  0  0  0
 10 13  1  0  0  0  0
 11 12  1  0  0  0  0
 12 35  1  0  0  0  0
 12 36  1  0  0  0  0
 13 14  2  0  0  0  0
 14 15  1  0  0  0  0
 15 16  1  0  0  0  0
 15 37  1  0  0  0  0
 15 38  1  0  0  0  0
 16 17  2  0  0  0  0
 16 19  1  0  0  0  0
 17 18  1  0  0  0  0
 17 39  1  0  0  0  0
 18 20  1  0  0  0  0
 18 22  2  0  0  0  0
 19 21  2  0  0  0  0
 19 40  1  0  0  0  0
 20 24  1  0  0  0  0
 21 22  1  0  0  0  0
 21 41  1  0  0  0  0
 22 23  1  0  0  0  0
 23 24  1  0  0  0  0
 24 42  1  0  0  0  0
 24 43  1  0  0  0  0
M  END
>  <DRUGBANK_ID>
DB04254

>  <SECONDARY_ACCESSION_NUMBERS>
EXPT02703

>  <COMMON_NAME>
8-Benzo[1,3]Dioxol-,5-Ylmethyl-9-Butyl-2-Fluoro-9h-Purin-6-Ylamine

$$$$
