1043
 OpenBabel10282417113D

 34 36  0  0  1  0  0  0  0  0999 V2000
    1.5802    0.2356   -0.0983 N   0  0  0  0  0  0  0  0  0  0  0  0
   -0.9043    2.9917    0.9855 C   0  0  3  0  0  0  0  0  0  0  0  0
   -2.0650    1.0598   -0.1962 C   0  0  3  0  0  0  0  0  0  0  0  0
    0.4653    1.1786   -0.1734 C   0  0  3  0  0  0  0  0  0  0  0  0
   -0.8693    2.8428   -1.5385 C   0  0  3  0  0  0  0  0  0  0  0  0
   -2.1025    2.0098    1.0183 C   0  0  0  0  0  0  0  0  0  0  0  0
    0.4192    2.1684    1.0186 C   0  0  0  0  0  0  0  0  0  0  0  0
   -0.7635    0.2631   -0.1359 C   0  0  0  0  0  0  0  0  0  0  0  0
   -0.9699    3.7933   -0.3345 C   0  0  0  0  0  0  0  0  0  0  0  0
   -2.0706    1.8785   -1.5057 C   0  0  0  0  0  0  0  0  0  0  0  0
    0.4458    2.0302   -1.4651 C   0  0  0  0  0  0  0  0  0  0  0  0
   -0.9986    3.9493    2.1791 C   0  0  0  0  0  0  0  0  0  0  0  0
   -3.2119    0.0497   -0.1539 C   0  0  0  0  0  0  0  0  0  0  0  0
    1.4720   -0.4812   -0.8157 H   0  0  0  0  0  0  0  0  0  0  0  0
    2.4908    0.6666   -0.2371 H   0  0  0  0  0  0  0  0  0  0  0  0
   -0.8925    3.4284   -2.4651 H   0  0  0  0  0  0  0  0  0  0  0  0
   -2.0706    1.4291    1.9504 H   0  0  0  0  0  0  0  0  0  0  0  0
   -3.0492    2.5653    1.0293 H   0  0  0  0  0  0  0  0  0  0  0  0
    1.2810    2.8507    0.9743 H   0  0  0  0  0  0  0  0  0  0  0  0
    0.4998    1.6282    1.9703 H   0  0  0  0  0  0  0  0  0  0  0  0
   -0.7365   -0.4407   -0.9802 H   0  0  0  0  0  0  0  0  0  0  0  0
   -0.7466   -0.3443    0.7802 H   0  0  0  0  0  0  0  0  0  0  0  0
   -1.9138    4.3543   -0.3874 H   0  0  0  0  0  0  0  0  0  0  0  0
   -0.1652    4.5383   -0.3752 H   0  0  0  0  0  0  0  0  0  0  0  0
   -2.0177    1.2090   -2.3738 H   0  0  0  0  0  0  0  0  0  0  0  0
   -3.0075    2.4421   -1.5981 H   0  0  0  0  0  0  0  0  0  0  0  0
    1.3013    2.7205   -1.4811 H   0  0  0  0  0  0  0  0  0  0  0  0
    0.5365    1.3992   -2.3575 H   0  0  0  0  0  0  0  0  0  0  0  0
   -0.1953    4.6933    2.1633 H   0  0  0  0  0  0  0  0  0  0  0  0
   -1.9518    4.4924    2.1691 H   0  0  0  0  0  0  0  0  0  0  0  0
   -0.9399    3.4062    3.1283 H   0  0  0  0  0  0  0  0  0  0  0  0
   -4.1890    0.5362   -0.1879 H   0  0  0  0  0  0  0  0  0  0  0  0
   -3.1428   -0.6455   -0.9994 H   0  0  0  0  0  0  0  0  0  0  0  0
   -3.1589   -0.5522    0.7617 H   0  0  0  0  0  0  0  0  0  0  0  0
  1  4  1  0  0  0  0
  1 14  1  0  0  0  0
  1 15  1  0  0  0  0
  2  6  1  0  0  0  0
  2  7  1  0  0  0  0
  2  9  1  0  0  0  0
  2 12  1  0  0  0  0
  3  6  1  0  0  0  0
  3  8  1  0  0  0  0
  3 10  1  0  0  0  0
  3 13  1  0  0  0  0
  4  7  1  0  0  0  0
  4  8  1  0  0  0  0
  4 11  1  0  0  0  0
  5  9  1  0  0  0  0
  5 10  1  0  0  0  0
  5 11  1  0  0  0  0
  5 16  1  0  0  0  0
  6 17  1  0  0  0  0
  6 18  1  0  0  0  0
  7 19  1  0  0  0  0
  7 20  1  0  0  0  0
  8 21  1  0  0  0  0
  8 22  1  0  0  0  0
  9 23  1  0  0  0  0
  9 24  1  0  0  0  0
 10 25  1  0  0  0  0
 10 26  1  0  0  0  0
 11 27  1  0  0  0  0
 11 28  1  0  0  0  0
 12 29  1  0  0  0  0
 12 30  1  0  0  0  0
 12 31  1  0  0  0  0
 13 32  1  0  0  0  0
 13 33  1  0  0  0  0
 13 34  1  0  0  0  0
M  END
>  <DRUGBANK_ID>
DB01043

>  <SECONDARY_ACCESSION_NUMBERS>
APRD00221

>  <COMMON_NAME>
Memantine

>  <CAS_NUMBER>
19982-08-2

>  <UNII>
W8O17SJF3T

>  <SYNONYMS>
1-Amino-3,5-dimethyladamantane; 1,3-Dimethyl-5-adamantanamine; 3,5-Dimethyl-1-adamantanamine; 3,5-Dimethyl-1-aminoadamantane; 3,5-Dimethyltricyclo(3.3.1.1(3,7))decan-1-amine; Memantina; Memantine; Memantinum

$$$$
