
 OpenBabel10282417203D

 36 36  0  0  0  0  0  0  0  0999 V2000
   -0.2254   -0.1383   -0.3722 C   0  0  0  0  0  0  0  0  0  0  0  0
    0.0020   -0.4434    1.0593 O   0  0  0  0  0  0  0  0  0  0  0  0
    0.5067   -1.5577    1.7687 C   0  0  0  0  0  0  0  0  0  0  0  0
    1.8966   -2.0173    1.8917 C   0  0  0  0  0  0  0  0  0  0  0  0
    2.3228   -3.1165    2.6294 C   0  0  0  0  0  0  0  0  0  0  0  0
    1.3082   -3.7107    3.3224 C   0  0  0  0  0  0  0  0  0  0  0  0
    0.0415   -3.2299    3.4064 N   0  0  0  0  0  0  0  0  0  0  0  0
   -0.3285   -2.1620    2.6542 N   0  3  0  0  0  0  0  0  0  0  0  0
   -1.6732   -1.6874    2.7281 C   0  0  0  0  0  0  0  0  0  0  0  0
   -2.2083   -1.3361    3.9569 C   0  0  0  0  0  0  0  0  0  0  0  0
   -3.5500   -0.9660    3.9913 C   0  0  0  0  0  0  0  0  0  0  0  0
   -4.2778   -0.8216    2.8017 C   0  0  0  0  0  0  0  0  0  0  0  0
   -3.6719   -1.0239    1.5675 C   0  0  0  0  0  0  0  0  0  0  0  0
   -2.3946   -1.5471    1.5363 C   0  0  0  0  0  0  0  0  0  0  0  0
    3.5792   -3.6964    2.4286 N   0  0  0  0  0  0  0  0  0  0  0  0
    2.4043    0.3674    0.1719 C   0  0  0  0  0  0  0  0  0  0  0  0
    1.5684    1.4328    0.5914 O   0  0  0  0  0  0  0  0  0  0  0  0
    1.5418    2.0305    2.1172 S   0  0  0  0  0  0  0  0  0  0  0  0
    0.9044    1.0174    2.9657 O   0  0  0  0  0  0  0  0  0  0  0  0
    2.9874    2.1744    2.3851 O   0  0  0  0  0  0  0  0  0  0  0  0
    0.7930    3.2487    1.9880 O   0  5  0  0  0  0  0  0  0  0  0  0
   -0.8752    0.7555   -0.4798 H   0  0  0  0  0  0  0  0  0  0  0  0
   -0.4548   -1.0201   -0.9548 H   0  0  0  0  0  0  0  0  0  0  0  0
    0.5843    0.2908   -0.9705 H   0  0  0  0  0  0  0  0  0  0  0  0
    2.7587   -1.5383    1.4492 H   0  0  0  0  0  0  0  0  0  0  0  0
    1.5027   -4.6367    3.8606 H   0  0  0  0  0  0  0  0  0  0  0  0
   -1.5900   -1.2801    4.8485 H   0  0  0  0  0  0  0  0  0  0  0  0
   -4.0297   -0.7519    4.9423 H   0  0  0  0  0  0  0  0  0  0  0  0
   -5.3219   -0.5237    2.8351 H   0  0  0  0  0  0  0  0  0  0  0  0
   -4.1830   -0.7785    0.6403 H   0  0  0  0  0  0  0  0  0  0  0  0
   -1.9523   -1.7890    0.5776 H   0  0  0  0  0  0  0  0  0  0  0  0
    3.9224   -4.3971    3.0829 H   0  0  0  0  0  0  0  0  0  0  0  0
    4.3442   -3.1169    2.0789 H   0  0  0  0  0  0  0  0  0  0  0  0
    2.4503    0.2054   -0.9115 H   0  0  0  0  0  0  0  0  0  0  0  0
    1.9040   -0.5703    0.3103 H   0  0  0  0  0  0  0  0  0  0  0  0
    3.3738    0.3214    0.6357 H   0  0  0  0  0  0  0  0  0  0  0  0
  1  2  1  0  0  0  0
  1 22  1  0  0  0  0
  1 23  1  0  0  0  0
  1 24  1  0  0  0  0
  2  3  1  0  0  0  0
  3  4  2  0  0  0  0
  3  8  1  0  0  0  0
  4  5  1  0  0  0  0
  4 25  1  0  0  0  0
  5  6  2  0  0  0  0
  5 15  1  0  0  0  0
  6  7  1  0  0  0  0
  6 26  1  0  0  0  0
  7  8  2  0  0  0  0
  8  9  1  0  0  0  0
  9 10  2  0  0  0  0
  9 14  1  0  0  0  0
 10 11  1  0  0  0  0
 10 27  1  0  0  0  0
 11 12  2  0  0  0  0
 11 28  1  0  0  0  0
 12 13  1  0  0  0  0
 12 29  1  0  0  0  0
 13 14  2  0  0  0  0
 13 30  1  0  0  0  0
 14 31  1  0  0  0  0
 15 32  1  0  0  0  0
 15 33  1  0  0  0  0
 16 17  1  0  0  0  0
 16 34  1  0  0  0  0
 16 35  1  0  0  0  0
 16 36  1  0  0  0  0
 17 18  1  0  0  0  0
 18 19  2  0  0  0  0
 18 20  2  0  0  0  0
 18 21  1  0  0  0  0
M  CHG  2   8   1  21  -1
M  END
>  <DRUGBANK_ID>
DB13330

>  <COMMON_NAME>
Amezinium metilsulfate

>  <CAS_NUMBER>
30578-37-1

>  <UNII>
03NR868ICX

>  <SYNONYMS>
Amezinium metilsulfate

$$$$
