
 OpenBabel10282417203D

 21 22  0  0  0  0  0  0  0  0999 V2000
    1.0286   -0.1354    0.0302 C   0  0  0  0  0  0  0  0  0  0  0  0
    0.5385   -0.1732    1.4563 C   0  0  0  0  0  0  0  0  0  0  0  0
    0.3023   -1.4210    2.0437 C   0  0  0  0  0  0  0  0  0  0  0  0
   -0.1620   -1.5000    3.3540 C   0  0  0  0  0  0  0  0  0  0  0  0
   -0.3829   -0.3361    4.0946 C   0  0  0  0  0  0  0  0  0  0  0  0
   -0.1721    0.9338    3.5441 C   0  0  0  0  0  0  0  0  0  0  0  0
    0.3003    1.0053    2.2038 C   0  0  0  0  0  0  0  0  0  0  0  0
    0.4392    2.2833    1.6417 C   0  0  0  0  0  0  0  0  0  0  0  0
   -0.0269    3.4017    2.3063 C   0  0  0  0  0  0  0  0  0  0  0  0
   -0.4110    3.2461    3.6190 C   0  0  0  0  0  0  0  0  0  0  0  0
   -0.4531    2.0538    4.2461 N   0  0  0  0  0  0  0  0  0  0  0  0
   -0.8592   -0.4220    5.3887 O   0  0  0  0  0  0  0  0  0  0  0  0
   -0.5174   -3.2132    4.0865 Br  0  0  0  0  0  0  0  0  0  0  0  0
    0.6330    0.7246   -0.5180 H   0  0  0  0  0  0  0  0  0  0  0  0
    0.6873   -1.0151   -0.5237 H   0  0  0  0  0  0  0  0  0  0  0  0
    2.1217   -0.1001    0.0127 H   0  0  0  0  0  0  0  0  0  0  0  0
    0.4563   -2.3287    1.4652 H   0  0  0  0  0  0  0  0  0  0  0  0
    0.8674    2.4262    0.6530 H   0  0  0  0  0  0  0  0  0  0  0  0
   -0.0932    4.3594    1.8062 H   0  0  0  0  0  0  0  0  0  0  0  0
   -0.7069    4.1003    4.2173 H   0  0  0  0  0  0  0  0  0  0  0  0
   -0.9811   -1.3613    5.6070 H   0  0  0  0  0  0  0  0  0  0  0  0
  1  2  1  0  0  0  0
  1 14  1  0  0  0  0
  1 15  1  0  0  0  0
  1 16  1  0  0  0  0
  2  3  1  0  0  0  0
  2  7  2  0  0  0  0
  3  4  2  0  0  0  0
  3 17  1  0  0  0  0
  4  5  1  0  0  0  0
  4 13  1  0  0  0  0
  5  6  2  0  0  0  0
  5 12  1  0  0  0  0
  6  7  1  0  0  0  0
  6 11  1  0  0  0  0
  7  8  1  0  0  0  0
  8  9  2  0  0  0  0
  8 18  1  0  0  0  0
  9 10  1  0  0  0  0
  9 19  1  0  0  0  0
 10 11  2  0  0  0  0
 10 20  1  0  0  0  0
 12 21  1  0  0  0  0
M  END
>  <DRUGBANK_ID>
DB13222

>  <COMMON_NAME>
Tilbroquinol

>  <CAS_NUMBER>
7175-09-9

>  <UNII>
P6SB125NHA

>  <SYNONYMS>
Tilbroquinol

$$$$
