P40
 OpenBabel10282417173D

 61 65  0  0  0  0  0  0  0  0999 V2000
    0.5649   -0.1042   -0.2254 C   0  0  0  0  0  0  0  0  0  0  0  0
    0.4618   -0.7755    1.1577 C   0  0  0  0  0  0  0  0  0  0  0  0
    1.8930    2.1131    1.3958 C   0  0  0  0  0  0  0  0  0  0  0  0
    0.9084    1.3598    2.3615 C   0  0  0  0  0  0  0  0  0  0  0  0
   -2.9158    3.2413   -4.1963 C   0  0  0  0  0  0  0  0  0  0  0  0
   -3.8723    2.3705   -4.7557 C   0  0  0  0  0  0  0  0  0  0  0  0
   -4.0983    1.1174   -4.1440 C   0  0  0  0  0  0  0  0  0  0  0  0
   -3.3003    0.6872   -3.1194 C   0  0  0  0  0  0  0  0  0  0  0  0
   -4.6247    2.7753   -5.9521 C   0  0  0  0  0  0  0  0  0  0  0  0
   -5.9982    2.7008   -5.9255 C   0  0  0  0  0  0  0  0  0  0  0  0
   -6.9429    3.2813   -6.7285 C   0  0  0  0  0  0  0  0  0  0  0  0
   -6.4209    3.6901   -7.9390 C   0  0  0  0  0  0  0  0  0  0  0  0
   -8.3897    3.3639   -6.2930 C   0  0  0  0  0  0  0  0  0  0  0  0
   -8.2970    2.8017   -3.6826 C   0  0  0  0  0  0  0  0  0  0  0  0
   -6.8659    3.0275   -3.3335 C   0  0  0  0  0  0  0  0  0  0  0  0
   -7.4298    1.5945   -3.5831 C   0  0  0  0  0  0  0  0  0  0  0  0
   -0.2690    2.9124   -1.6500 N   0  0  0  0  0  0  0  0  0  0  0  0
   -1.0117    3.4607   -2.6168 C   0  0  0  0  0  0  0  0  0  0  0  0
    1.0721   -0.1087    2.3367 N   0  0  0  0  0  0  0  0  0  0  0  0
    2.5102   -0.3950    2.4889 C   0  0  0  0  0  0  0  0  0  0  0  0
    3.4011    0.3162    1.4664 C   0  0  0  0  0  0  0  0  0  0  0  0
    3.2538    1.7413    1.6036 O   0  0  0  0  0  0  0  0  0  0  0  0
   -5.0158    3.5843   -8.1639 C   0  0  0  0  0  0  0  0  0  0  0  0
   -4.1085    3.1696   -7.1547 C   0  0  0  0  0  0  0  0  0  0  0  0
   -2.6424    2.9961   -7.3912 C   0  0  0  0  0  0  0  0  0  0  0  0
   -9.2250    3.6760   -7.1489 O   0  0  0  0  0  0  0  0  0  0  0  0
   -2.0761    2.7805   -3.1978 C   0  0  0  0  0  0  0  0  0  0  0  0
   -2.2610    1.4701   -2.7341 C   0  0  0  0  0  0  0  0  0  0  0  0
   -1.4762    0.8754   -1.9291 N   0  0  0  0  0  0  0  0  0  0  0  0
   -0.5536    1.6259   -1.3743 C   0  0  0  0  0  0  0  0  0  0  0  0
   -0.2319    1.1080   -0.1816 N   0  0  0  0  0  0  0  0  0  0  0  0
   -8.8692    3.1461   -4.9822 N   0  0  0  0  0  0  0  0  0  0  0  0
    0.2067   -0.8033   -0.9918 H   0  0  0  0  0  0  0  0  0  0  0  0
    1.5917    0.0942   -0.5376 H   0  0  0  0  0  0  0  0  0  0  0  0
   -0.6152   -0.8752    1.3605 H   0  0  0  0  0  0  0  0  0  0  0  0
    0.8273   -1.8076    1.0889 H   0  0  0  0  0  0  0  0  0  0  0  0
    1.7767    1.9244    0.3327 H   0  0  0  0  0  0  0  0  0  0  0  0
    1.7266    3.1933    1.4621 H   0  0  0  0  0  0  0  0  0  0  0  0
    1.1068    1.7138    3.3800 H   0  0  0  0  0  0  0  0  0  0  0  0
   -0.1546    1.6099    2.2217 H   0  0  0  0  0  0  0  0  0  0  0  0
   -2.7710    4.2416   -4.5991 H   0  0  0  0  0  0  0  0  0  0  0  0
   -4.8720    0.4341   -4.4780 H   0  0  0  0  0  0  0  0  0  0  0  0
   -3.4264   -0.2851   -2.6422 H   0  0  0  0  0  0  0  0  0  0  0  0
   -6.3134    2.0532   -5.1799 H   0  0  0  0  0  0  0  0  0  0  0  0
   -7.0861    4.0269   -8.7298 H   0  0  0  0  0  0  0  0  0  0  0  0
   -8.9914    2.9591   -2.8643 H   0  0  0  0  0  0  0  0  0  0  0  0
   -6.4362    3.8000   -3.9699 H   0  0  0  0  0  0  0  0  0  0  0  0
   -6.3657    3.1082   -2.3775 H   0  0  0  0  0  0  0  0  0  0  0  0
   -7.2695    0.9207   -2.7554 H   0  0  0  0  0  0  0  0  0  0  0  0
   -7.4731    0.9817   -4.4899 H   0  0  0  0  0  0  0  0  0  0  0  0
   -0.7441    4.4758   -2.9054 H   0  0  0  0  0  0  0  0  0  0  0  0
    2.8057   -0.0272    3.4797 H   0  0  0  0  0  0  0  0  0  0  0  0
    2.6837   -1.4740    2.4855 H   0  0  0  0  0  0  0  0  0  0  0  0
    4.4536    0.0862    1.6297 H   0  0  0  0  0  0  0  0  0  0  0  0
    3.1994   -0.0330    0.4490 H   0  0  0  0  0  0  0  0  0  0  0  0
   -4.6266    3.8104   -9.1512 H   0  0  0  0  0  0  0  0  0  0  0  0
   -2.4896    2.2229   -8.1444 H   0  0  0  0  0  0  0  0  0  0  0  0
   -2.1990    3.9514   -7.6629 H   0  0  0  0  0  0  0  0  0  0  0  0
   -2.1023    2.6377   -6.5064 H   0  0  0  0  0  0  0  0  0  0  0  0
    0.0010    1.9115    0.3652 H   0  0  0  0  0  0  0  0  0  0  0  0
   -9.8832    3.2391   -4.9646 H   0  0  0  0  0  0  0  0  0  0  0  0
  1  2  1  0  0  0  0
  1 31  1  0  0  0  0
  1 33  1  0  0  0  0
  1 34  1  0  0  0  0
  2 19  1  0  0  0  0
  2 35  1  0  0  0  0
  2 36  1  0  0  0  0
  3  4  1  0  0  0  0
  3 22  1  0  0  0  0
  3 37  1  0  0  0  0
  3 38  1  0  0  0  0
  4 19  1  0  0  0  0
  4 39  1  0  0  0  0
  4 40  1  0  0  0  0
  5  6  2  0  0  0  0
  5 27  1  0  0  0  0
  5 41  1  0  0  0  0
  6  7  1  0  0  0  0
  6  9  1  0  0  0  0
  7  8  2  0  0  0  0
  7 42  1  0  0  0  0
  8 28  1  0  0  0  0
  8 43  1  0  0  0  0
  9 10  2  0  0  0  0
  9 24  1  0  0  0  0
 10 11  1  0  0  0  0
 10 44  1  0  0  0  0
 11 12  2  0  0  0  0
 11 13  1  0  0  0  0
 12 23  1  0  0  0  0
 12 45  1  0  0  0  0
 13 26  2  0  0  0  0
 13 32  1  0  0  0  0
 14 15  1  0  0  0  0
 14 16  1  0  0  0  0
 14 32  1  0  0  0  0
 14 46  1  0  0  0  0
 15 16  1  0  0  0  0
 15 47  1  0  0  0  0
 15 48  1  0  0  0  0
 16 49  1  0  0  0  0
 16 50  1  0  0  0  0
 17 18  2  0  0  0  0
 17 30  1  0  0  0  0
 18 27  1  0  0  0  0
 18 51  1  0  0  0  0
 19 20  1  0  0  0  0
 20 21  1  0  0  0  0
 20 52  1  0  0  0  0
 20 53  1  0  0  0  0
 21 22  1  0  0  0  0
 21 54  1  0  0  0  0
 21 55  1  0  0  0  0
 23 24  2  0  0  0  0
 23 56  1  0  0  0  0
 24 25  1  0  0  0  0
 25 57  1  0  0  0  0
 25 58  1  0  0  0  0
 25 59  1  0  0  0  0
 27 28  2  0  0  0  0
 28 29  1  0  0  0  0
 29 30  2  0  0  0  0
 30 31  1  0  0  0  0
 31 60  1  0  0  0  0
 32 61  1  0  0  0  0
M  END
>  <DRUGBANK_ID>
DB08351

>  <COMMON_NAME>
N-cyclopropyl-4-methyl-3-{2-[(2-morpholin-4-ylethyl)amino]quinazolin-6-yl}benzamide

$$$$
