
 OpenBabel10282417213D

 22 18  0  0  0  0  0  0  0  0999 V2000
    1.0642   -0.0670    0.0372 C   0  0  0  0  0  0  0  0  0  0  0  0
    1.0107   -0.0764   -0.0636 C   0  0  0  0  0  0  0  0  0  0  0  0
    0.9236   -0.0383   -0.0519 C   0  0  0  0  0  0  0  0  0  0  0  0
    0.3542   -0.0821    1.2669 O   0  5  0  0  0  0  0  0  0  0  0  0
    0.2136   -0.0839    1.1770 O   0  5  0  0  0  0  0  0  0  0  0  0
    0.3007    1.1520   -0.0050 O   0  5  0  0  0  0  0  0  0  0  0  0
    0.4288   -0.0535   -1.0634 O   0  0  0  0  0  0  0  0  0  0  0  0
    0.3752   -1.1758   -0.1161 O   0  0  0  0  0  0  0  0  0  0  0  0
    0.2881    0.0024   -1.1518 O   0  0  0  0  0  0  0  0  0  0  0  0
    0.9393   -0.0468    0.0642 Al  0  1  0  0  0  0  0  0  0  0  0  0
    2.5842   -0.0670    0.0372 C   0  0  0  0  0  0  0  0  0  0  0  0
    2.4436   -0.0383   -0.0519 C   0  0  0  0  0  0  0  0  0  0  0  0
    2.5307   -0.0764   -0.0636 C   0  0  0  0  0  0  0  0  0  0  0  0
    2.9409   -0.0794    1.0459 H   0  0  0  0  0  0  0  0  0  0  0  0
    2.9409   -0.9344   -0.4779 H   0  0  0  0  0  0  0  0  0  0  0  0
    2.9409    0.8127   -0.4565 H   0  0  0  0  0  0  0  0  0  0  0  0
    2.8003   -0.0757    0.9562 H   0  0  0  0  0  0  0  0  0  0  0  0
    2.8003   -0.8927   -0.5883 H   0  0  0  0  0  0  0  0  0  0  0  0
    2.8003    0.8534   -0.5236 H   0  0  0  0  0  0  0  0  0  0  0  0
    2.8874    0.9313   -0.0155 H   0  0  0  0  0  0  0  0  0  0  0  0
    2.8874   -0.6219    0.7850 H   0  0  0  0  0  0  0  0  0  0  0  0
    2.8873   -0.5386   -0.9604 H   0  0  0  0  0  0  0  0  0  0  0  0
  4  1  1  0  0  0  0
  5  3  1  0  0  0  0
  6  2  1  0  0  0  0
  7  1  2  0  0  0  0
  8  2  2  0  0  0  0
  9  3  2  0  0  0  0
 11  1  1  0  0  0  0
 11 14  1  0  0  0  0
 11 15  1  0  0  0  0
 11 16  1  0  0  0  0
 12  3  1  0  0  0  0
 12 17  1  0  0  0  0
 12 18  1  0  0  0  0
 12 19  1  0  0  0  0
 13  2  1  0  0  0  0
 13 20  1  0  0  0  0
 13 21  1  0  0  0  0
 13 22  1  0  0  0  0
M  CHG  4   4  -1   5  -1   6  -1  10   3
M  END
>  <DRUGBANK_ID>
DB14518

>  <SECONDARY_ACCESSION_NUMBERS>
DBSALT001466

>  <COMMON_NAME>
Aluminum acetate

>  <CAS_NUMBER>
139-12-8

>  <UNII>
80EHD8I43D

>  <SYNONYMS>
Aluminum acetate

$$$$
