
 OpenBabel10282417243D

365365  0  0  0  0  0  0  0  0999 V2000
    0.9604   -0.0915   -0.0081 Ca  0  2  0  0  0  0  0  0  0  0  0  0
    1.0427   -0.0623   -0.0655 Ca  0  2  0  0  0  0  0  0  0  0  0  0
    0.9846    0.0950   -0.0271 Ca  0  2  0  0  0  0  0  0  0  0  0  0
    0.9386    0.0466    0.0637 Ca  0  2  0  0  0  0  0  0  0  0  0  0
    1.0679    0.0710   -0.0186 Mn  0  2  0  0  0  0  0  0  0  0  0  0
   -1.5480   -1.7530    0.0190 C   0  0  0  0  0  0  0  0  0  0  0  0
   -0.4080   -0.7750    0.0030 C   0  0  0  0  0  0  0  0  0  0  0  0
    0.8270   -1.2900   -0.0130 N   0  0  0  0  0  0  0  0  0  0  0  0
    1.8820   -0.4720   -0.0110 C   0  0  0  0  0  0  0  0  0  0  0  0
    1.7670    0.9240    0.0220 C   0  0  0  0  0  0  0  0  0  0  0  0
    2.9961    1.8166    0.0753 C   0  0  0  0  0  0  0  0  0  0  0  0
    3.7437    1.5233    1.2464 O   0  0  0  0  0  0  0  0  0  0  0  0
    2.7632    1.8082    2.6429 P   0  0  3  0  0  0  0  0  0  0  0  0
    3.1208    0.2165    3.2187 O   0  0  0  0  0  0  0  0  0  0  0  0
    3.7792    3.1367    3.0853 O   0  5  0  0  0  0  0  0  0  0  0  0
    1.8856    2.0631    3.8928 O   0  0  0  0  0  0  0  0  0  0  0  0
    0.4770    1.4640    0.0040 C   0  0  0  0  0  0  0  0  0  0  0  0
    0.2739    2.9704    0.0041 C   0  0  0  0  0  0  0  0  0  0  0  0
    0.8774    3.5461    1.2145 N   0  0  0  0  0  0  0  0  0  0  0  0
    0.6810    5.0029    1.2146 C   0  0  0  0  0  0  0  0  0  0  0  0
   -0.8068    5.3136    1.1932 C   0  0  0  0  0  0  0  0  0  0  0  0
   -1.4457    4.7330    2.3829 N   0  0  0  0  0  0  0  0  0  0  0  0
   -2.8846    5.0335    2.3622 C   0  0  0  0  0  0  0  0  0  0  0  0
   -3.5085    4.4382    1.1106 C   0  0  0  0  0  0  0  0  0  0  0  0
   -4.5455    3.4746    1.2236 O   0  0  0  0  0  0  0  0  0  0  0  0
   -3.1022    4.8028   -0.0371 O   0  0  0  0  0  0  0  0  0  0  0  0
   -1.2494    3.2762    2.3829 C   0  0  0  0  0  0  0  0  0  0  0  0
   -1.8733    2.6809    1.1312 C   0  0  0  0  0  0  0  0  0  0  0  0
   -1.7463    1.3058    0.9095 C   0  0  0  0  0  0  0  0  0  0  0  0
   -1.1495    0.3877    1.9637 C   0  0  0  0  0  0  0  0  0  0  0  0
   -2.1075   -0.5925    2.3348 O   0  0  0  0  0  0  0  0  0  0  0  0
   -3.5114    0.1876    2.9776 P   0  0  3  0  0  0  0  0  0  0  0  0
   -2.7226    1.7211    2.8395 O   0  0  0  0  0  0  0  0  0  0  0  0
   -4.4532   -0.4223    1.6608 O   0  5  0  0  0  0  0  0  0  0  0  0
   -4.7680    0.8858    3.5529 O   0  0  0  0  0  0  0  0  0  0  0  0
   -2.1907    0.8077   -0.3224 C   0  0  0  0  0  0  0  0  0  0  0  0
   -2.7608    1.5740   -1.2551 N   0  0  0  0  0  0  0  0  0  0  0  0
   -2.9129    2.8845   -1.0308 C   0  0  0  0  0  0  0  0  0  0  0  0
   -3.5791    3.6829   -2.1147 C   0  0  0  0  0  0  0  0  0  0  0  0
   -2.4556    3.4785    0.1462 C   0  0  0  0  0  0  0  0  0  0  0  0
   -2.6028    4.8241    0.3754 O   0  0  0  0  0  0  0  0  0  0  0  0
    0.2384    2.9655    2.4043 C   0  0  0  0  0  0  0  0  0  0  0  0
   -1.2494    3.2762    2.3829 C   0  0  0  0  0  0  0  0  0  0  0  0
   -2.1956    2.2175    2.3667 O   0  0  0  0  0  0  0  0  0  0  0  0
   -1.6464    4.4835    2.3795 O   0  0  0  0  0  0  0  0  0  0  0  0
   -0.6210    0.6040   -0.0140 C   0  0  0  0  0  0  0  0  0  0  0  0
   -1.8870    1.1350   -0.0060 O   0  0  0  0  0  0  0  0  0  0  0  0
   -1.5480   -1.7530    0.0190 C   0  0  0  0  0  0  0  0  0  0  0  0
   -0.4080   -0.7750    0.0030 C   0  0  0  0  0  0  0  0  0  0  0  0
    0.8270   -1.2900   -0.0130 N   0  0  0  0  0  0  0  0  0  0  0  0
    1.8820   -0.4720   -0.0110 C   0  0  0  0  0  0  0  0  0  0  0  0
    1.7670    0.9240    0.0220 C   0  0  0  0  0  0  0  0  0  0  0  0
    2.9961    1.8166    0.0753 C   0  0  0  0  0  0  0  0  0  0  0  0
    3.7437    1.5233    1.2464 O   0  0  0  0  0  0  0  0  0  0  0  0
    2.7632    1.8082    2.6429 P   0  0  3  0  0  0  0  0  0  0  0  0
    2.6010    3.4700    2.1901 O   0  0  0  0  0  0  0  0  0  0  0  0
    1.6180    0.6416    2.0768 O   0  5  0  0  0  0  0  0  0  0  0  0
    1.8856    2.0631    3.8928 O   0  0  0  0  0  0  0  0  0  0  0  0
    0.4770    1.4640    0.0040 C   0  0  0  0  0  0  0  0  0  0  0  0
    0.2739    2.9704    0.0041 C   0  0  0  0  0  0  0  0  0  0  0  0
    0.8774    3.5461    1.2145 N   0  0  0  0  0  0  0  0  0  0  0  0
    0.6810    5.0029    1.2146 C   0  0  0  0  0  0  0  0  0  0  0  0
   -0.8068    5.3136    1.1932 C   0  0  0  0  0  0  0  0  0  0  0  0
   -1.4457    4.7330    2.3829 N   0  0  0  0  0  0  0  0  0  0  0  0
   -2.8846    5.0335    2.3622 C   0  0  0  0  0  0  0  0  0  0  0  0
   -3.5085    4.4382    1.1106 C   0  0  0  0  0  0  0  0  0  0  0  0
   -4.5455    3.4746    1.2236 O   0  0  0  0  0  0  0  0  0  0  0  0
   -3.1022    4.8028   -0.0371 O   0  0  0  0  0  0  0  0  0  0  0  0
   -1.2494    3.2762    2.3829 C   0  0  0  0  0  0  0  0  0  0  0  0
   -1.8733    2.6809    1.1312 C   0  0  0  0  0  0  0  0  0  0  0  0
   -1.7463    1.3058    0.9095 C   0  0  0  0  0  0  0  0  0  0  0  0
   -1.1495    0.3877    1.9637 C   0  0  0  0  0  0  0  0  0  0  0  0
   -2.1075   -0.5925    2.3348 O   0  0  0  0  0  0  0  0  0  0  0  0
   -3.5114    0.1876    2.9776 P   0  0  3  0  0  0  0  0  0  0  0  0
   -3.0532   -0.3018    4.5724 O   0  0  0  0  0  0  0  0  0  0  0  0
   -2.9603    1.7006    2.3452 O   0  5  0  0  0  0  0  0  0  0  0  0
   -4.7680    0.8858    3.5529 O   0  0  0  0  0  0  0  0  0  0  0  0
   -2.1907    0.8077   -0.3224 C   0  0  0  0  0  0  0  0  0  0  0  0
   -2.7608    1.5740   -1.2551 N   0  0  0  0  0  0  0  0  0  0  0  0
   -2.9129    2.8845   -1.0308 C   0  0  0  0  0  0  0  0  0  0  0  0
   -3.5791    3.6829   -2.1147 C   0  0  0  0  0  0  0  0  0  0  0  0
   -2.4556    3.4785    0.1462 C   0  0  0  0  0  0  0  0  0  0  0  0
   -2.6028    4.8241    0.3754 O   0  0  0  0  0  0  0  0  0  0  0  0
    0.2384    2.9655    2.4043 C   0  0  0  0  0  0  0  0  0  0  0  0
   -1.2494    3.2762    2.3829 C   0  0  0  0  0  0  0  0  0  0  0  0
   -2.1956    2.2175    2.3667 O   0  0  0  0  0  0  0  0  0  0  0  0
   -1.6464    4.4835    2.3795 O   0  0  0  0  0  0  0  0  0  0  0  0
   -0.6210    0.6040   -0.0140 C   0  0  0  0  0  0  0  0  0  0  0  0
   -1.8870    1.1350   -0.0060 O   0  0  0  0  0  0  0  0  0  0  0  0
   -1.5480   -1.7530    0.0190 C   0  0  0  0  0  0  0  0  0  0  0  0
   -0.4080   -0.7750    0.0030 C   0  0  0  0  0  0  0  0  0  0  0  0
    0.8270   -1.2900   -0.0130 N   0  0  0  0  0  0  0  0  0  0  0  0
    1.8820   -0.4720   -0.0110 C   0  0  0  0  0  0  0  0  0  0  0  0
    1.7670    0.9240    0.0220 C   0  0  0  0  0  0  0  0  0  0  0  0
    2.9961    1.8166    0.0753 C   0  0  0  0  0  0  0  0  0  0  0  0
    3.7437    1.5233    1.2464 O   0  0  0  0  0  0  0  0  0  0  0  0
    2.7632    1.8082    2.6429 P   0  0  3  0  0  0  0  0  0  0  0  0
    1.6292    2.6792    1.6691 O   0  0  0  0  0  0  0  0  0  0  0  0
    2.5824    0.1019    2.8640 O   0  5  0  0  0  0  0  0  0  0  0  0
    1.8856    2.0631    3.8928 O   0  0  0  0  0  0  0  0  0  0  0  0
    0.4770    1.4640    0.0040 C   0  0  0  0  0  0  0  0  0  0  0  0
    0.2739    2.9704    0.0041 C   0  0  0  0  0  0  0  0  0  0  0  0
    0.8774    3.5461    1.2145 N   0  0  0  0  0  0  0  0  0  0  0  0
    0.6810    5.0029    1.2146 C   0  0  0  0  0  0  0  0  0  0  0  0
   -0.8068    5.3136    1.1932 C   0  0  0  0  0  0  0  0  0  0  0  0
   -1.4457    4.7330    2.3829 N   0  0  0  0  0  0  0  0  0  0  0  0
   -2.8846    5.0335    2.3622 C   0  0  0  0  0  0  0  0  0  0  0  0
   -3.5085    4.4382    1.1106 C   0  0  0  0  0  0  0  0  0  0  0  0
   -4.5455    3.4746    1.2236 O   0  0  0  0  0  0  0  0  0  0  0  0
   -3.1022    4.8028   -0.0371 O   0  0  0  0  0  0  0  0  0  0  0  0
   -1.2494    3.2762    2.3829 C   0  0  0  0  0  0  0  0  0  0  0  0
   -1.8733    2.6809    1.1312 C   0  0  0  0  0  0  0  0  0  0  0  0
   -1.7463    1.3058    0.9095 C   0  0  0  0  0  0  0  0  0  0  0  0
   -1.1495    0.3877    1.9637 C   0  0  0  0  0  0  0  0  0  0  0  0
   -2.1075   -0.5925    2.3348 O   0  0  0  0  0  0  0  0  0  0  0  0
   -3.5114    0.1876    2.9776 P   0  0  3  0  0  0  0  0  0  0  0  0
   -4.5061   -1.0746    2.3369 O   0  0  0  0  0  0  0  0  0  0  0  0
   -2.8582    0.0483    4.5735 O   0  5  0  0  0  0  0  0  0  0  0  0
   -4.7680    0.8858    3.5529 O   0  0  0  0  0  0  0  0  0  0  0  0
   -2.1907    0.8077   -0.3224 C   0  0  0  0  0  0  0  0  0  0  0  0
   -2.7608    1.5740   -1.2551 N   0  0  0  0  0  0  0  0  0  0  0  0
   -2.9129    2.8845   -1.0308 C   0  0  0  0  0  0  0  0  0  0  0  0
   -3.5791    3.6829   -2.1147 C   0  0  0  0  0  0  0  0  0  0  0  0
   -2.4556    3.4785    0.1462 C   0  0  0  0  0  0  0  0  0  0  0  0
   -2.6028    4.8241    0.3754 O   0  0  0  0  0  0  0  0  0  0  0  0
    0.2384    2.9655    2.4043 C   0  0  0  0  0  0  0  0  0  0  0  0
   -1.2494    3.2762    2.3829 C   0  0  0  0  0  0  0  0  0  0  0  0
   -2.1956    2.2175    2.3667 O   0  0  0  0  0  0  0  0  0  0  0  0
   -1.6464    4.4835    2.3795 O   0  0  0  0  0  0  0  0  0  0  0  0
   -0.6210    0.6040   -0.0140 C   0  0  0  0  0  0  0  0  0  0  0  0
   -1.8870    1.1350   -0.0060 O   0  0  0  0  0  0  0  0  0  0  0  0
   -1.5480   -1.7530    0.0190 C   0  0  0  0  0  0  0  0  0  0  0  0
   -0.4080   -0.7750    0.0030 C   0  0  0  0  0  0  0  0  0  0  0  0
    0.8270   -1.2900   -0.0130 N   0  0  0  0  0  0  0  0  0  0  0  0
    1.8820   -0.4720   -0.0110 C   0  0  0  0  0  0  0  0  0  0  0  0
    1.7670    0.9240    0.0220 C   0  0  0  0  0  0  0  0  0  0  0  0
    2.9961    1.8166    0.0753 C   0  0  0  0  0  0  0  0  0  0  0  0
    3.7437    1.5233    1.2464 O   0  0  0  0  0  0  0  0  0  0  0  0
    2.7632    1.8082    2.6429 P   0  0  3  0  0  0  0  0  0  0  0  0
    4.1773    1.7909    3.6393 O   0  0  0  0  0  0  0  0  0  0  0  0
    2.2103    3.2945    1.9515 O   0  5  0  0  0  0  0  0  0  0  0  0
    1.8856    2.0631    3.8928 O   0  0  0  0  0  0  0  0  0  0  0  0
    0.4770    1.4640    0.0040 C   0  0  0  0  0  0  0  0  0  0  0  0
    0.2739    2.9704    0.0041 C   0  0  0  0  0  0  0  0  0  0  0  0
    0.8774    3.5461    1.2145 N   0  0  0  0  0  0  0  0  0  0  0  0
    0.6810    5.0029    1.2146 C   0  0  0  0  0  0  0  0  0  0  0  0
   -0.8068    5.3136    1.1932 C   0  0  0  0  0  0  0  0  0  0  0  0
   -1.4457    4.7330    2.3829 N   0  0  0  0  0  0  0  0  0  0  0  0
   -2.8846    5.0335    2.3622 C   0  0  0  0  0  0  0  0  0  0  0  0
   -3.5085    4.4382    1.1106 C   0  0  0  0  0  0  0  0  0  0  0  0
   -4.5455    3.4746    1.2236 O   0  0  0  0  0  0  0  0  0  0  0  0
   -3.1022    4.8028   -0.0371 O   0  0  0  0  0  0  0  0  0  0  0  0
   -1.2494    3.2762    2.3829 C   0  0  0  0  0  0  0  0  0  0  0  0
   -1.8733    2.6809    1.1312 C   0  0  0  0  0  0  0  0  0  0  0  0
   -1.7463    1.3058    0.9095 C   0  0  0  0  0  0  0  0  0  0  0  0
   -1.1495    0.3877    1.9637 C   0  0  0  0  0  0  0  0  0  0  0  0
   -2.1075   -0.5925    2.3348 O   0  0  0  0  0  0  0  0  0  0  0  0
   -3.5114    0.1876    2.9776 P   0  0  3  0  0  0  0  0  0  0  0  0
   -3.2470   -0.5907    4.4998 O   0  0  0  0  0  0  0  0  0  0  0  0
   -2.7987    1.7317    2.6602 O   0  5  0  0  0  0  0  0  0  0  0  0
   -4.7680    0.8858    3.5529 O   0  0  0  0  0  0  0  0  0  0  0  0
   -2.1907    0.8077   -0.3224 C   0  0  0  0  0  0  0  0  0  0  0  0
   -2.7608    1.5740   -1.2551 N   0  0  0  0  0  0  0  0  0  0  0  0
   -2.9129    2.8845   -1.0308 C   0  0  0  0  0  0  0  0  0  0  0  0
   -3.5791    3.6829   -2.1147 C   0  0  0  0  0  0  0  0  0  0  0  0
   -2.4556    3.4785    0.1462 C   0  0  0  0  0  0  0  0  0  0  0  0
   -2.6028    4.8241    0.3754 O   0  0  0  0  0  0  0  0  0  0  0  0
    0.2384    2.9655    2.4043 C   0  0  0  0  0  0  0  0  0  0  0  0
   -1.2494    3.2762    2.3829 C   0  0  0  0  0  0  0  0  0  0  0  0
   -2.1956    2.2175    2.3667 O   0  0  0  0  0  0  0  0  0  0  0  0
   -1.6464    4.4835    2.3795 O   0  0  0  0  0  0  0  0  0  0  0  0
   -0.6210    0.6040   -0.0140 C   0  0  0  0  0  0  0  0  0  0  0  0
   -1.8870    1.1350   -0.0060 O   0  0  0  0  0  0  0  0  0  0  0  0
   -1.5480   -1.7530    0.0190 C   0  0  0  0  0  0  0  0  0  0  0  0
   -0.4080   -0.7750    0.0030 C   0  0  0  0  0  0  0  0  0  0  0  0
    0.8270   -1.2900   -0.0130 N   0  0  0  0  0  0  0  0  0  0  0  0
    1.8820   -0.4720   -0.0110 C   0  0  0  0  0  0  0  0  0  0  0  0
    1.7670    0.9240    0.0220 C   0  0  0  0  0  0  0  0  0  0  0  0
    2.9961    1.8166    0.0753 C   0  0  0  0  0  0  0  0  0  0  0  0
    3.7437    1.5233    1.2464 O   0  0  0  0  0  0  0  0  0  0  0  0
    2.7632    1.8082    2.6429 P   0  0  3  0  0  0  0  0  0  0  0  0
    4.0535    2.7056    3.3658 O   0  0  0  0  0  0  0  0  0  0  0  0
    1.5938    2.6164    1.6569 O   0  5  0  0  0  0  0  0  0  0  0  0
    1.8856    2.0631    3.8928 O   0  0  0  0  0  0  0  0  0  0  0  0
    0.4770    1.4640    0.0040 C   0  0  0  0  0  0  0  0  0  0  0  0
    0.2739    2.9704    0.0041 C   0  0  0  0  0  0  0  0  0  0  0  0
    0.8774    3.5461    1.2145 N   0  0  0  0  0  0  0  0  0  0  0  0
    0.6810    5.0029    1.2146 C   0  0  0  0  0  0  0  0  0  0  0  0
   -0.8068    5.3136    1.1932 C   0  0  0  0  0  0  0  0  0  0  0  0
   -1.4457    4.7330    2.3829 N   0  0  0  0  0  0  0  0  0  0  0  0
   -2.8846    5.0335    2.3622 C   0  0  0  0  0  0  0  0  0  0  0  0
   -3.5085    4.4382    1.1106 C   0  0  0  0  0  0  0  0  0  0  0  0
   -4.5455    3.4746    1.2236 O   0  0  0  0  0  0  0  0  0  0  0  0
   -3.1022    4.8028   -0.0371 O   0  0  0  0  0  0  0  0  0  0  0  0
   -1.2494    3.2762    2.3829 C   0  0  0  0  0  0  0  0  0  0  0  0
   -1.8733    2.6809    1.1312 C   0  0  0  0  0  0  0  0  0  0  0  0
   -1.7463    1.3058    0.9095 C   0  0  0  0  0  0  0  0  0  0  0  0
   -1.1495    0.3877    1.9637 C   0  0  0  0  0  0  0  0  0  0  0  0
   -2.1075   -0.5925    2.3348 O   0  0  0  0  0  0  0  0  0  0  0  0
   -3.5114    0.1876    2.9776 P   0  0  3  0  0  0  0  0  0  0  0  0
   -2.5204    1.0332    4.1159 O   0  0  0  0  0  0  0  0  0  0  0  0
   -3.8345    0.8837    1.4271 O   0  5  0  0  0  0  0  0  0  0  0  0
   -4.7680    0.8858    3.5529 O   0  0  0  0  0  0  0  0  0  0  0  0
   -2.1907    0.8077   -0.3224 C   0  0  0  0  0  0  0  0  0  0  0  0
   -2.7608    1.5740   -1.2551 N   0  0  0  0  0  0  0  0  0  0  0  0
   -2.9129    2.8845   -1.0308 C   0  0  0  0  0  0  0  0  0  0  0  0
   -3.5791    3.6829   -2.1147 C   0  0  0  0  0  0  0  0  0  0  0  0
   -2.4556    3.4785    0.1462 C   0  0  0  0  0  0  0  0  0  0  0  0
   -2.6028    4.8241    0.3754 O   0  0  0  0  0  0  0  0  0  0  0  0
    0.2384    2.9655    2.4043 C   0  0  0  0  0  0  0  0  0  0  0  0
   -1.2494    3.2762    2.3829 C   0  0  0  0  0  0  0  0  0  0  0  0
   -2.1956    2.2175    2.3667 O   0  0  0  0  0  0  0  0  0  0  0  0
   -1.6464    4.4835    2.3795 O   0  0  0  0  0  0  0  0  0  0  0  0
   -0.6210    0.6040   -0.0140 C   0  0  0  0  0  0  0  0  0  0  0  0
   -1.8870    1.1350   -0.0060 O   0  0  0  0  0  0  0  0  0  0  0  0
   -1.5019   -2.3688   -0.8548 H   0  0  0  0  0  0  0  0  0  0  0  0
   -1.4787   -2.3673    0.8923 H   0  0  0  0  0  0  0  0  0  0  0  0
   -2.4755   -1.2195    0.0309 H   0  0  0  0  0  0  0  0  0  0  0  0
    2.8612   -0.9026   -0.0358 H   0  0  0  0  0  0  0  0  0  0  0  0
    3.6026    1.6404   -0.7885 H   0  0  0  0  0  0  0  0  0  0  0  0
    2.6916    2.8422    0.0941 H   0  0  0  0  0  0  0  0  0  0  0  0
    2.4378   -0.4254    2.8701 H   0  0  0  0  0  0  0  0  0  0  0  0
    0.7390    3.3930   -0.8620 H   0  0  0  0  0  0  0  0  0  0  0  0
   -0.7734    3.1891   -0.0110 H   0  0  0  0  0  0  0  0  0  0  0  0
    1.1202    5.4220    2.0957 H   0  0  0  0  0  0  0  0  0  0  0  0
    1.1461    5.4256    0.3486 H   0  0  0  0  0  0  0  0  0  0  0  0
   -0.9497    6.3740    1.1932 H   0  0  0  0  0  0  0  0  0  0  0  0
   -1.2460    4.8946    0.3121 H   0  0  0  0  0  0  0  0  0  0  0  0
   -3.3497    4.6109    3.2283 H   0  0  0  0  0  0  0  0  0  0  0  0
   -3.0275    6.0939    2.3623 H   0  0  0  0  0  0  0  0  0  0  0  0
   -4.8652    3.1877    2.1266 H   0  0  0  0  0  0  0  0  0  0  0  0
   -0.2021    3.0575    2.3980 H   0  0  0  0  0  0  0  0  0  0  0  0
   -1.7145    2.8536    3.2489 H   0  0  0  0  0  0  0  0  0  0  0  0
   -0.2811   -0.0948    1.5661 H   0  0  0  0  0  0  0  0  0  0  0  0
   -0.8758    0.9626    2.8237 H   0  0  0  0  0  0  0  0  0  0  0  0
   -2.2261    1.9179    3.6850 H   0  0  0  0  0  0  0  0  0  0  0  0
   -2.0673   -0.2356   -0.5250 H   0  0  0  0  0  0  0  0  0  0  0  0
   -3.0074    3.6074   -3.0160 H   0  0  0  0  0  0  0  0  0  0  0  0
   -4.5644    3.3015   -2.2843 H   0  0  0  0  0  0  0  0  0  0  0  0
   -3.6403    4.7085   -1.8159 H   0  0  0  0  0  0  0  0  0  0  0  0
   -2.2665    5.2260    1.2271 H   0  0  0  0  0  0  0  0  0  0  0  0
    0.3814    1.9051    2.4042 H   0  0  0  0  0  0  0  0  0  0  0  0
    0.6776    3.3846    3.2854 H   0  0  0  0  0  0  0  0  0  0  0  0
   -1.8832    1.2676    2.3694 H   0  0  0  0  0  0  0  0  0  0  0  0
   -2.0132    2.1269   -0.0186 H   0  0  0  0  0  0  0  0  0  0  0  0
   -1.5019   -2.3688   -0.8548 H   0  0  0  0  0  0  0  0  0  0  0  0
   -1.4787   -2.3673    0.8923 H   0  0  0  0  0  0  0  0  0  0  0  0
   -2.4755   -1.2195    0.0309 H   0  0  0  0  0  0  0  0  0  0  0  0
    2.8612   -0.9026   -0.0358 H   0  0  0  0  0  0  0  0  0  0  0  0
    3.6026    1.6404   -0.7885 H   0  0  0  0  0  0  0  0  0  0  0  0
    2.6916    2.8422    0.0941 H   0  0  0  0  0  0  0  0  0  0  0  0
    3.3415    4.0014    2.6016 H   0  0  0  0  0  0  0  0  0  0  0  0
    0.7390    3.3930   -0.8620 H   0  0  0  0  0  0  0  0  0  0  0  0
   -0.7734    3.1891   -0.0110 H   0  0  0  0  0  0  0  0  0  0  0  0
    1.1202    5.4220    2.0957 H   0  0  0  0  0  0  0  0  0  0  0  0
    1.1461    5.4256    0.3486 H   0  0  0  0  0  0  0  0  0  0  0  0
   -0.9497    6.3740    1.1932 H   0  0  0  0  0  0  0  0  0  0  0  0
   -1.2460    4.8946    0.3121 H   0  0  0  0  0  0  0  0  0  0  0  0
   -3.3497    4.6109    3.2283 H   0  0  0  0  0  0  0  0  0  0  0  0
   -3.0275    6.0939    2.3623 H   0  0  0  0  0  0  0  0  0  0  0  0
   -4.8652    3.1877    2.1266 H   0  0  0  0  0  0  0  0  0  0  0  0
   -0.2021    3.0575    2.3980 H   0  0  0  0  0  0  0  0  0  0  0  0
   -1.7145    2.8536    3.2489 H   0  0  0  0  0  0  0  0  0  0  0  0
   -0.2811   -0.0948    1.5661 H   0  0  0  0  0  0  0  0  0  0  0  0
   -0.8758    0.9626    2.8237 H   0  0  0  0  0  0  0  0  0  0  0  0
   -3.4559   -1.1942    4.7759 H   0  0  0  0  0  0  0  0  0  0  0  0
   -2.0673   -0.2356   -0.5250 H   0  0  0  0  0  0  0  0  0  0  0  0
   -3.0074    3.6074   -3.0160 H   0  0  0  0  0  0  0  0  0  0  0  0
   -4.5644    3.3015   -2.2843 H   0  0  0  0  0  0  0  0  0  0  0  0
   -3.6403    4.7085   -1.8159 H   0  0  0  0  0  0  0  0  0  0  0  0
   -2.2665    5.2260    1.2271 H   0  0  0  0  0  0  0  0  0  0  0  0
    0.3814    1.9051    2.4042 H   0  0  0  0  0  0  0  0  0  0  0  0
    0.6776    3.3846    3.2854 H   0  0  0  0  0  0  0  0  0  0  0  0
   -1.8832    1.2676    2.3694 H   0  0  0  0  0  0  0  0  0  0  0  0
   -2.0132    2.1269   -0.0186 H   0  0  0  0  0  0  0  0  0  0  0  0
   -1.5019   -2.3688   -0.8548 H   0  0  0  0  0  0  0  0  0  0  0  0
   -1.4787   -2.3673    0.8923 H   0  0  0  0  0  0  0  0  0  0  0  0
   -2.4755   -1.2195    0.0309 H   0  0  0  0  0  0  0  0  0  0  0  0
    2.8612   -0.9026   -0.0358 H   0  0  0  0  0  0  0  0  0  0  0  0
    3.6026    1.6404   -0.7885 H   0  0  0  0  0  0  0  0  0  0  0  0
    2.6916    2.8422    0.0941 H   0  0  0  0  0  0  0  0  0  0  0  0
    1.8813    3.6467    1.6487 H   0  0  0  0  0  0  0  0  0  0  0  0
    0.7390    3.3930   -0.8620 H   0  0  0  0  0  0  0  0  0  0  0  0
   -0.7734    3.1891   -0.0110 H   0  0  0  0  0  0  0  0  0  0  0  0
    1.1202    5.4220    2.0957 H   0  0  0  0  0  0  0  0  0  0  0  0
    1.1461    5.4256    0.3486 H   0  0  0  0  0  0  0  0  0  0  0  0
   -0.9497    6.3740    1.1932 H   0  0  0  0  0  0  0  0  0  0  0  0
   -1.2460    4.8946    0.3121 H   0  0  0  0  0  0  0  0  0  0  0  0
   -3.3497    4.6109    3.2283 H   0  0  0  0  0  0  0  0  0  0  0  0
   -3.0275    6.0939    2.3623 H   0  0  0  0  0  0  0  0  0  0  0  0
   -4.8652    3.1877    2.1266 H   0  0  0  0  0  0  0  0  0  0  0  0
   -0.2021    3.0575    2.3980 H   0  0  0  0  0  0  0  0  0  0  0  0
   -1.7145    2.8536    3.2489 H   0  0  0  0  0  0  0  0  0  0  0  0
   -0.2811   -0.0948    1.5661 H   0  0  0  0  0  0  0  0  0  0  0  0
   -0.8758    0.9626    2.8237 H   0  0  0  0  0  0  0  0  0  0  0  0
   -4.7959   -0.8330    1.4108 H   0  0  0  0  0  0  0  0  0  0  0  0
   -2.0673   -0.2356   -0.5250 H   0  0  0  0  0  0  0  0  0  0  0  0
   -3.0074    3.6074   -3.0160 H   0  0  0  0  0  0  0  0  0  0  0  0
   -4.5644    3.3015   -2.2843 H   0  0  0  0  0  0  0  0  0  0  0  0
   -3.6403    4.7085   -1.8159 H   0  0  0  0  0  0  0  0  0  0  0  0
   -2.2665    5.2260    1.2271 H   0  0  0  0  0  0  0  0  0  0  0  0
    0.3814    1.9051    2.4042 H   0  0  0  0  0  0  0  0  0  0  0  0
    0.6776    3.3846    3.2854 H   0  0  0  0  0  0  0  0  0  0  0  0
   -1.8832    1.2676    2.3694 H   0  0  0  0  0  0  0  0  0  0  0  0
   -2.0132    2.1269   -0.0186 H   0  0  0  0  0  0  0  0  0  0  0  0
   -1.5019   -2.3688   -0.8548 H   0  0  0  0  0  0  0  0  0  0  0  0
   -1.4787   -2.3673    0.8923 H   0  0  0  0  0  0  0  0  0  0  0  0
   -2.4755   -1.2195    0.0309 H   0  0  0  0  0  0  0  0  0  0  0  0
    2.8612   -0.9026   -0.0358 H   0  0  0  0  0  0  0  0  0  0  0  0
    3.6026    1.6404   -0.7885 H   0  0  0  0  0  0  0  0  0  0  0  0
    2.6916    2.8422    0.0941 H   0  0  0  0  0  0  0  0  0  0  0  0
    4.3528    0.8577    3.9529 H   0  0  0  0  0  0  0  0  0  0  0  0
    0.7390    3.3930   -0.8620 H   0  0  0  0  0  0  0  0  0  0  0  0
   -0.7734    3.1891   -0.0110 H   0  0  0  0  0  0  0  0  0  0  0  0
    1.1202    5.4220    2.0957 H   0  0  0  0  0  0  0  0  0  0  0  0
    1.1461    5.4256    0.3486 H   0  0  0  0  0  0  0  0  0  0  0  0
   -0.9497    6.3740    1.1932 H   0  0  0  0  0  0  0  0  0  0  0  0
   -1.2460    4.8946    0.3121 H   0  0  0  0  0  0  0  0  0  0  0  0
   -3.3497    4.6109    3.2283 H   0  0  0  0  0  0  0  0  0  0  0  0
   -3.0275    6.0939    2.3623 H   0  0  0  0  0  0  0  0  0  0  0  0
   -4.8652    3.1877    2.1266 H   0  0  0  0  0  0  0  0  0  0  0  0
   -0.2021    3.0575    2.3980 H   0  0  0  0  0  0  0  0  0  0  0  0
   -1.7145    2.8536    3.2489 H   0  0  0  0  0  0  0  0  0  0  0  0
   -0.2811   -0.0948    1.5661 H   0  0  0  0  0  0  0  0  0  0  0  0
   -0.8758    0.9626    2.8237 H   0  0  0  0  0  0  0  0  0  0  0  0
   -3.7277   -1.4675    4.5139 H   0  0  0  0  0  0  0  0  0  0  0  0
   -2.0673   -0.2356   -0.5250 H   0  0  0  0  0  0  0  0  0  0  0  0
   -3.0074    3.6074   -3.0160 H   0  0  0  0  0  0  0  0  0  0  0  0
   -4.5644    3.3015   -2.2843 H   0  0  0  0  0  0  0  0  0  0  0  0
   -3.6403    4.7085   -1.8159 H   0  0  0  0  0  0  0  0  0  0  0  0
   -2.2665    5.2260    1.2271 H   0  0  0  0  0  0  0  0  0  0  0  0
    0.3814    1.9051    2.4042 H   0  0  0  0  0  0  0  0  0  0  0  0
    0.6776    3.3846    3.2854 H   0  0  0  0  0  0  0  0  0  0  0  0
   -1.8832    1.2676    2.3694 H   0  0  0  0  0  0  0  0  0  0  0  0
   -2.0132    2.1269   -0.0186 H   0  0  0  0  0  0  0  0  0  0  0  0
   -1.5019   -2.3688   -0.8548 H   0  0  0  0  0  0  0  0  0  0  0  0
   -1.4787   -2.3673    0.8923 H   0  0  0  0  0  0  0  0  0  0  0  0
   -2.4755   -1.2195    0.0309 H   0  0  0  0  0  0  0  0  0  0  0  0
    2.8612   -0.9026   -0.0358 H   0  0  0  0  0  0  0  0  0  0  0  0
    3.6026    1.6404   -0.7885 H   0  0  0  0  0  0  0  0  0  0  0  0
    2.6916    2.8422    0.0941 H   0  0  0  0  0  0  0  0  0  0  0  0
    4.6321    2.0875    3.8981 H   0  0  0  0  0  0  0  0  0  0  0  0
    0.7390    3.3930   -0.8620 H   0  0  0  0  0  0  0  0  0  0  0  0
   -0.7734    3.1891   -0.0110 H   0  0  0  0  0  0  0  0  0  0  0  0
    1.1202    5.4220    2.0957 H   0  0  0  0  0  0  0  0  0  0  0  0
    1.1461    5.4256    0.3486 H   0  0  0  0  0  0  0  0  0  0  0  0
   -0.9497    6.3740    1.1932 H   0  0  0  0  0  0  0  0  0  0  0  0
   -1.2460    4.8946    0.3121 H   0  0  0  0  0  0  0  0  0  0  0  0
   -3.3497    4.6109    3.2283 H   0  0  0  0  0  0  0  0  0  0  0  0
   -3.0275    6.0939    2.3623 H   0  0  0  0  0  0  0  0  0  0  0  0
   -4.8652    3.1877    2.1266 H   0  0  0  0  0  0  0  0  0  0  0  0
   -0.2021    3.0575    2.3980 H   0  0  0  0  0  0  0  0  0  0  0  0
   -1.7145    2.8536    3.2489 H   0  0  0  0  0  0  0  0  0  0  0  0
   -0.2811   -0.0948    1.5661 H   0  0  0  0  0  0  0  0  0  0  0  0
   -0.8758    0.9626    2.8237 H   0  0  0  0  0  0  0  0  0  0  0  0
   -2.4380    0.4920    4.9528 H   0  0  0  0  0  0  0  0  0  0  0  0
   -2.0673   -0.2356   -0.5250 H   0  0  0  0  0  0  0  0  0  0  0  0
   -3.0074    3.6074   -3.0160 H   0  0  0  0  0  0  0  0  0  0  0  0
   -4.5644    3.3015   -2.2843 H   0  0  0  0  0  0  0  0  0  0  0  0
   -3.6403    4.7085   -1.8159 H   0  0  0  0  0  0  0  0  0  0  0  0
   -2.2665    5.2260    1.2271 H   0  0  0  0  0  0  0  0  0  0  0  0
    0.3814    1.9051    2.4042 H   0  0  0  0  0  0  0  0  0  0  0  0
    0.6776    3.3846    3.2854 H   0  0  0  0  0  0  0  0  0  0  0  0
   -1.8832    1.2676    2.3694 H   0  0  0  0  0  0  0  0  0  0  0  0
   -2.0132    2.1269   -0.0186 H   0  0  0  0  0  0  0  0  0  0  0  0
  6  7  1  0  0  0  0
  6216  1  0  0  0  0
  6217  1  0  0  0  0
  6218  1  0  0  0  0
  7  8  2  0  0  0  0
  7 46  1  0  0  0  0
  8  9  1  0  0  0  0
  9 10  2  0  0  0  0
  9219  1  0  0  0  0
 10 11  1  0  0  0  0
 10 17  1  0  0  0  0
 11 12  1  0  0  0  0
 11220  1  0  0  0  0
 11221  1  0  0  0  0
 12 13  1  0  0  0  0
 13 14  1  0  0  0  0
 13 15  1  0  0  0  0
 13 16  2  0  0  0  0
 14222  1  0  0  0  0
 17 18  1  0  0  0  0
 17 46  2  0  0  0  0
 18 19  1  0  0  0  0
 18223  1  0  0  0  0
 18224  1  0  0  0  0
 19 20  1  0  0  0  0
 19 42  1  0  0  0  0
 20 21  1  0  0  0  0
 20225  1  0  0  0  0
 20226  1  0  0  0  0
 21 22  1  0  0  0  0
 21227  1  0  0  0  0
 21228  1  0  0  0  0
 22 23  1  0  0  0  0
 22 27  1  0  0  0  0
 23 24  1  0  0  0  0
 23229  1  0  0  0  0
 23230  1  0  0  0  0
 24 25  1  0  0  0  0
 24 26  2  0  0  0  0
 25231  1  0  0  0  0
 27 28  1  0  0  0  0
 27232  1  0  0  0  0
 27233  1  0  0  0  0
 28 29  2  0  0  0  0
 28 40  1  0  0  0  0
 29 30  1  0  0  0  0
 29 36  1  0  0  0  0
 30 31  1  0  0  0  0
 30234  1  0  0  0  0
 30235  1  0  0  0  0
 31 32  1  0  0  0  0
 32 33  1  0  0  0  0
 32 34  1  0  0  0  0
 32 35  2  0  0  0  0
 33236  1  0  0  0  0
 36 37  2  0  0  0  0
 36237  1  0  0  0  0
 37 38  1  0  0  0  0
 38 39  1  0  0  0  0
 38 40  2  0  0  0  0
 39238  1  0  0  0  0
 39239  1  0  0  0  0
 39240  1  0  0  0  0
 40 41  1  0  0  0  0
 41241  1  0  0  0  0
 42 43  1  0  0  0  0
 42242  1  0  0  0  0
 42243  1  0  0  0  0
 43 44  1  0  0  0  0
 43 45  2  0  0  0  0
 44244  1  0  0  0  0
 46 47  1  0  0  0  0
 47245  1  0  0  0  0
 48 49  1  0  0  0  0
 48246  1  0  0  0  0
 48247  1  0  0  0  0
 48248  1  0  0  0  0
 49 50  2  0  0  0  0
 49 88  1  0  0  0  0
 50 51  1  0  0  0  0
 51 52  2  0  0  0  0
 51249  1  0  0  0  0
 52 53  1  0  0  0  0
 52 59  1  0  0  0  0
 53 54  1  0  0  0  0
 53250  1  0  0  0  0
 53251  1  0  0  0  0
 54 55  1  0  0  0  0
 55 56  1  0  0  0  0
 55 57  1  0  0  0  0
 55 58  2  0  0  0  0
 56252  1  0  0  0  0
 59 60  1  0  0  0  0
 59 88  2  0  0  0  0
 60 61  1  0  0  0  0
 60253  1  0  0  0  0
 60254  1  0  0  0  0
 61 62  1  0  0  0  0
 61 84  1  0  0  0  0
 62 63  1  0  0  0  0
 62255  1  0  0  0  0
 62256  1  0  0  0  0
 63 64  1  0  0  0  0
 63257  1  0  0  0  0
 63258  1  0  0  0  0
 64 65  1  0  0  0  0
 64 69  1  0  0  0  0
 65 66  1  0  0  0  0
 65259  1  0  0  0  0
 65260  1  0  0  0  0
 66 67  1  0  0  0  0
 66 68  2  0  0  0  0
 67261  1  0  0  0  0
 69 70  1  0  0  0  0
 69262  1  0  0  0  0
 69263  1  0  0  0  0
 70 71  2  0  0  0  0
 70 82  1  0  0  0  0
 71 72  1  0  0  0  0
 71 78  1  0  0  0  0
 72 73  1  0  0  0  0
 72264  1  0  0  0  0
 72265  1  0  0  0  0
 73 74  1  0  0  0  0
 74 75  1  0  0  0  0
 74 76  1  0  0  0  0
 74 77  2  0  0  0  0
 75266  1  0  0  0  0
 78 79  2  0  0  0  0
 78267  1  0  0  0  0
 79 80  1  0  0  0  0
 80 81  1  0  0  0  0
 80 82  2  0  0  0  0
 81268  1  0  0  0  0
 81269  1  0  0  0  0
 81270  1  0  0  0  0
 82 83  1  0  0  0  0
 83271  1  0  0  0  0
 84 85  1  0  0  0  0
 84272  1  0  0  0  0
 84273  1  0  0  0  0
 85 86  1  0  0  0  0
 85 87  2  0  0  0  0
 86274  1  0  0  0  0
 88 89  1  0  0  0  0
 89275  1  0  0  0  0
 90 91  1  0  0  0  0
 90276  1  0  0  0  0
 90277  1  0  0  0  0
 90278  1  0  0  0  0
 91 92  2  0  0  0  0
 91130  1  0  0  0  0
 92 93  1  0  0  0  0
 93 94  2  0  0  0  0
 93279  1  0  0  0  0
 94 95  1  0  0  0  0
 94101  1  0  0  0  0
 95 96  1  0  0  0  0
 95280  1  0  0  0  0
 95281  1  0  0  0  0
 96 97  1  0  0  0  0
 97 98  1  0  0  0  0
 97 99  1  0  0  0  0
 97100  2  0  0  0  0
 98282  1  0  0  0  0
101102  1  0  0  0  0
101130  2  0  0  0  0
102103  1  0  0  0  0
102283  1  0  0  0  0
102284  1  0  0  0  0
103104  1  0  0  0  0
103126  1  0  0  0  0
104105  1  0  0  0  0
104285  1  0  0  0  0
104286  1  0  0  0  0
105106  1  0  0  0  0
105287  1  0  0  0  0
105288  1  0  0  0  0
106107  1  0  0  0  0
106111  1  0  0  0  0
107108  1  0  0  0  0
107289  1  0  0  0  0
107290  1  0  0  0  0
108109  1  0  0  0  0
108110  2  0  0  0  0
109291  1  0  0  0  0
111112  1  0  0  0  0
111292  1  0  0  0  0
111293  1  0  0  0  0
112113  2  0  0  0  0
112124  1  0  0  0  0
113114  1  0  0  0  0
113120  1  0  0  0  0
114115  1  0  0  0  0
114294  1  0  0  0  0
114295  1  0  0  0  0
115116  1  0  0  0  0
116117  1  0  0  0  0
116118  1  0  0  0  0
116119  2  0  0  0  0
117296  1  0  0  0  0
120121  2  0  0  0  0
120297  1  0  0  0  0
121122  1  0  0  0  0
122123  1  0  0  0  0
122124  2  0  0  0  0
123298  1  0  0  0  0
123299  1  0  0  0  0
123300  1  0  0  0  0
124125  1  0  0  0  0
125301  1  0  0  0  0
126127  1  0  0  0  0
126302  1  0  0  0  0
126303  1  0  0  0  0
127128  1  0  0  0  0
127129  2  0  0  0  0
128304  1  0  0  0  0
130131  1  0  0  0  0
131305  1  0  0  0  0
132133  1  0  0  0  0
132306  1  0  0  0  0
132307  1  0  0  0  0
132308  1  0  0  0  0
133134  2  0  0  0  0
133172  1  0  0  0  0
134135  1  0  0  0  0
135136  2  0  0  0  0
135309  1  0  0  0  0
136137  1  0  0  0  0
136143  1  0  0  0  0
137138  1  0  0  0  0
137310  1  0  0  0  0
137311  1  0  0  0  0
138139  1  0  0  0  0
139140  1  0  0  0  0
139141  1  0  0  0  0
139142  2  0  0  0  0
140312  1  0  0  0  0
143144  1  0  0  0  0
143172  2  0  0  0  0
144145  1  0  0  0  0
144313  1  0  0  0  0
144314  1  0  0  0  0
145146  1  0  0  0  0
145168  1  0  0  0  0
146147  1  0  0  0  0
146315  1  0  0  0  0
146316  1  0  0  0  0
147148  1  0  0  0  0
147317  1  0  0  0  0
147318  1  0  0  0  0
148149  1  0  0  0  0
148153  1  0  0  0  0
149150  1  0  0  0  0
149319  1  0  0  0  0
149320  1  0  0  0  0
150151  1  0  0  0  0
150152  2  0  0  0  0
151321  1  0  0  0  0
153154  1  0  0  0  0
153322  1  0  0  0  0
153323  1  0  0  0  0
154155  2  0  0  0  0
154166  1  0  0  0  0
155156  1  0  0  0  0
155162  1  0  0  0  0
156157  1  0  0  0  0
156324  1  0  0  0  0
156325  1  0  0  0  0
157158  1  0  0  0  0
158159  1  0  0  0  0
158160  1  0  0  0  0
158161  2  0  0  0  0
159326  1  0  0  0  0
162163  2  0  0  0  0
162327  1  0  0  0  0
163164  1  0  0  0  0
164165  1  0  0  0  0
164166  2  0  0  0  0
165328  1  0  0  0  0
165329  1  0  0  0  0
165330  1  0  0  0  0
166167  1  0  0  0  0
167331  1  0  0  0  0
168169  1  0  0  0  0
168332  1  0  0  0  0
168333  1  0  0  0  0
169170  1  0  0  0  0
169171  2  0  0  0  0
170334  1  0  0  0  0
172173  1  0  0  0  0
173335  1  0  0  0  0
174175  1  0  0  0  0
174336  1  0  0  0  0
174337  1  0  0  0  0
174338  1  0  0  0  0
175176  2  0  0  0  0
175214  1  0  0  0  0
176177  1  0  0  0  0
177178  2  0  0  0  0
177339  1  0  0  0  0
178179  1  0  0  0  0
178185  1  0  0  0  0
179180  1  0  0  0  0
179340  1  0  0  0  0
179341  1  0  0  0  0
180181  1  0  0  0  0
181182  1  0  0  0  0
181183  1  0  0  0  0
181184  2  0  0  0  0
182342  1  0  0  0  0
185186  1  0  0  0  0
185214  2  0  0  0  0
186187  1  0  0  0  0
186343  1  0  0  0  0
186344  1  0  0  0  0
187188  1  0  0  0  0
187210  1  0  0  0  0
188189  1  0  0  0  0
188345  1  0  0  0  0
188346  1  0  0  0  0
189190  1  0  0  0  0
189347  1  0  0  0  0
189348  1  0  0  0  0
190191  1  0  0  0  0
190195  1  0  0  0  0
191192  1  0  0  0  0
191349  1  0  0  0  0
191350  1  0  0  0  0
192193  1  0  0  0  0
192194  2  0  0  0  0
193351  1  0  0  0  0
195196  1  0  0  0  0
195352  1  0  0  0  0
195353  1  0  0  0  0
196197  2  0  0  0  0
196208  1  0  0  0  0
197198  1  0  0  0  0
197204  1  0  0  0  0
198199  1  0  0  0  0
198354  1  0  0  0  0
198355  1  0  0  0  0
199200  1  0  0  0  0
200201  1  0  0  0  0
200202  1  0  0  0  0
200203  2  0  0  0  0
201356  1  0  0  0  0
204205  2  0  0  0  0
204357  1  0  0  0  0
205206  1  0  0  0  0
206207  1  0  0  0  0
206208  2  0  0  0  0
207358  1  0  0  0  0
207359  1  0  0  0  0
207360  1  0  0  0  0
208209  1  0  0  0  0
209361  1  0  0  0  0
210211  1  0  0  0  0
210362  1  0  0  0  0
210363  1  0  0  0  0
211212  1  0  0  0  0
211213  2  0  0  0  0
212364  1  0  0  0  0
214215  1  0  0  0  0
215365  1  0  0  0  0
M  CHG  8   1   2   2   2   3   2   4   2   5   2  15  -1  34  -1  57  -1
M  CHG  7  76  -1  99  -1 118  -1 141  -1 160  -1 183  -1 202  -1
M  END
>  <DRUGBANK_ID>
DB18398

>  <COMMON_NAME>
Calmangafodipir

>  <CAS_NUMBER>
1401243-67-1

>  <UNII>
N0JZU0WGU5

>  <SYNONYMS>
Calcium,n,n'-1,2-ethanediylbis(n-((3-hydroxy-2-methyl-5-((phosphonooxy)methyl)-4-pyridinyl)methyl)glycine) manganese complexes trisodium trihydrogen manganate; Calmangafodipir (ca4mn(dpdp)5); Pledox; Tetracalcium monomanganese penta(dipyridoxyl diphosphate)

$$$$
