
 OpenBabel10282417193D

 51 54  0  0  0  0  0  0  0  0999 V2000
    0.9502   -0.1582    0.3876 C   0  0  0  0  0  0  0  0  0  0  0  0
    0.4502    0.5348    1.6987 C   0  0  0  0  0  0  0  0  0  0  0  0
    0.7479    1.9462    2.1330 N   0  0  0  0  0  0  0  0  0  0  0  0
    0.0168    3.1153    1.7084 C   0  0  0  0  0  0  0  0  0  0  0  0
    0.7769    4.1864    1.9683 N   0  0  0  0  0  0  0  0  0  0  0  0
    2.0157    3.6707    2.3097 C   0  0  0  0  0  0  0  0  0  0  0  0
    2.0406    2.3337    2.4621 N   0  0  0  0  0  0  0  0  0  0  0  0
   -1.2131    3.0973    0.6950 C   0  0  0  0  0  0  0  0  0  0  0  0
   -1.1440    2.4191   -0.9439 O   0  0  0  0  0  0  0  0  0  0  0  0
   -0.2908    2.6256   -2.3844 C   0  0  0  0  0  0  0  0  0  0  0  0
    1.5797    3.0664   -2.3417 C   0  0  0  0  0  0  0  0  0  0  0  0
    2.2123    3.4598   -3.3954 C   0  0  0  0  0  0  0  0  0  0  0  0
    1.4561    3.3081   -4.5250 C   0  0  0  0  0  0  0  0  0  0  0  0
    1.8486    3.5450   -5.7391 N   0  0  0  0  0  0  0  0  0  0  0  0
    0.7806    3.3011   -6.5388 N   0  0  0  0  0  0  0  0  0  0  0  0
   -0.2457    2.9066   -5.8125 C   0  0  0  0  0  0  0  0  0  0  0  0
    0.1065    2.8695   -4.5071 N   0  0  0  0  0  0  0  0  0  0  0  0
   -0.8285    2.5128   -3.5349 N   0  0  0  0  0  0  0  0  0  0  0  0
   -1.5672    2.5371   -6.2805 C   0  0  0  0  0  0  0  0  0  0  0  0
   -2.7402    3.1897   -5.8614 C   0  0  0  0  0  0  0  0  0  0  0  0
   -3.9720    2.8713   -6.4498 C   0  0  0  0  0  0  0  0  0  0  0  0
   -4.0475    1.8856   -7.4324 C   0  0  0  0  0  0  0  0  0  0  0  0
   -2.8930    1.2073   -7.8122 C   0  0  0  0  0  0  0  0  0  0  0  0
   -1.6701    1.5323   -7.2346 C   0  0  0  0  0  0  0  0  0  0  0  0
   -0.5782    0.8588   -7.6247 F   0  0  0  0  0  0  0  0  0  0  0  0
    0.8661    2.6436   -1.3340 C   0  0  0  0  0  0  0  0  0  0  0  0
    0.1348    4.4205   -1.5204 C   0  0  0  0  0  0  0  0  0  0  0  0
    1.0731    0.9964   -2.2321 C   0  0  0  0  0  0  0  0  0  0  0  0
    1.6499    2.5328   -0.1934 C   0  0  0  0  0  0  0  0  0  0  0  0
    0.3830    0.3284   -0.3810 H   0  0  0  0  0  0  0  0  0  0  0  0
    0.6142   -1.1773    0.1630 H   0  0  0  0  0  0  0  0  0  0  0  0
    2.0274   -0.1146    0.1706 H   0  0  0  0  0  0  0  0  0  0  0  0
   -0.6356    0.5516    1.5605 H   0  0  0  0  0  0  0  0  0  0  0  0
    0.7742   -0.1073    2.5028 H   0  0  0  0  0  0  0  0  0  0  0  0
    2.9324    4.2768    2.2588 H   0  0  0  0  0  0  0  0  0  0  0  0
   -1.9855    2.5115    1.2127 H   0  0  0  0  0  0  0  0  0  0  0  0
   -1.5975    4.1174    0.5541 H   0  0  0  0  0  0  0  0  0  0  0  0
    3.2753    3.7515   -3.3302 H   0  0  0  0  0  0  0  0  0  0  0  0
   -2.7126    3.9692   -5.1011 H   0  0  0  0  0  0  0  0  0  0  0  0
   -4.8742    3.4035   -6.1564 H   0  0  0  0  0  0  0  0  0  0  0  0
   -4.9989    1.6448   -7.9015 H   0  0  0  0  0  0  0  0  0  0  0  0
   -2.9284    0.4330   -8.5693 H   0  0  0  0  0  0  0  0  0  0  0  0
    0.1927    4.7871   -2.5828 H   0  0  0  0  0  0  0  0  0  0  0  0
   -0.9770    4.4571   -1.4182 H   0  0  0  0  0  0  0  0  0  0  0  0
    0.5849    5.1503   -0.8699 H   0  0  0  0  0  0  0  0  0  0  0  0
    1.9457    0.4434   -1.8774 H   0  0  0  0  0  0  0  0  0  0  0  0
    0.1395    0.4002   -2.1829 H   0  0  0  0  0  0  0  0  0  0  0  0
    1.2526    1.0452   -3.3240 H   0  0  0  0  0  0  0  0  0  0  0  0
    2.4303    1.8134   -0.0532 H   0  0  0  0  0  0  0  0  0  0  0  0
    1.8333    3.5399    0.1052 H   0  0  0  0  0  0  0  0  0  0  0  0
    0.7674    2.0620    0.1724 H   0  0  0  0  0  0  0  0  0  0  0  0
  1  2  1  0  0  0  0
  1 30  1  0  0  0  0
  1 31  1  0  0  0  0
  1 32  1  0  0  0  0
  2  3  1  0  0  0  0
  2 33  1  0  0  0  0
  2 34  1  0  0  0  0
  3  4  1  0  0  0  0
  3  7  1  0  0  0  0
  4  5  2  0  0  0  0
  4  8  1  0  0  0  0
  5  6  1  0  0  0  0
  6  7  2  0  0  0  0
  6 35  1  0  0  0  0
  8  9  1  0  0  0  0
  8 36  1  0  0  0  0
  8 37  1  0  0  0  0
  9 10  1  0  0  0  0
 10 11  1  0  0  0  0
 10 18  2  0  0  0  0
 11 12  2  0  0  0  0
 11 26  1  0  0  0  0
 12 13  1  0  0  0  0
 12 38  1  0  0  0  0
 13 14  2  0  0  0  0
 13 17  1  0  0  0  0
 14 15  1  0  0  0  0
 15 16  2  0  0  0  0
 16 17  1  0  0  0  0
 16 19  1  0  0  0  0
 17 18  1  0  0  0  0
 19 20  2  0  0  0  0
 19 24  1  0  0  0  0
 20 21  1  0  0  0  0
 20 39  1  0  0  0  0
 21 22  2  0  0  0  0
 21 40  1  0  0  0  0
 22 23  1  0  0  0  0
 22 41  1  0  0  0  0
 23 24  2  0  0  0  0
 23 42  1  0  0  0  0
 24 25  1  0  0  0  0
 26 27  1  0  0  0  0
 26 28  1  0  0  0  0
 26 29  1  0  0  0  0
 27 43  1  0  0  0  0
 27 44  1  0  0  0  0
 27 45  1  0  0  0  0
 28 46  1  0  0  0  0
 28 47  1  0  0  0  0
 28 48  1  0  0  0  0
 29 49  1  0  0  0  0
 29 50  1  0  0  0  0
 29 51  1  0  0  0  0
M  END
>  <DRUGBANK_ID>
DB12238

>  <COMMON_NAME>
MK-0777

>  <CAS_NUMBER>
252977-51-8

>  <UNII>
1FI3KTC550

$$$$
