
 OpenBabel10282417113D

 67 71  0  0  0  0  0  0  0  0999 V2000
    0.1097    1.5694    0.6838 C   0  0  1  0  0  0  0  0  0  0  0  0
   -0.7554    3.2388    0.1560 C   0  0  2  0  0  0  0  0  0  0  0  0
   -1.1701    0.8855    0.0819 C   0  0  1  0  0  0  0  0  0  0  0  0
    0.7353    0.1331   -0.1625 O   0  0  0  0  0  0  0  0  0  0  0  0
    1.7846    1.2367    1.1410 C   0  0  0  0  0  0  0  0  0  0  0  0
   -0.6070    2.9317   -1.3277 C   0  0  1  0  0  0  0  0  0  0  0  0
   -0.5731    4.9011    0.0216 C   0  0  0  0  0  0  0  0  0  0  0  0
   -2.3134    3.4875    0.6264 C   0  0  0  0  0  0  0  0  0  0  0  0
   -1.1394    1.4782   -1.3883 C   0  0  0  0  0  0  0  0  0  0  0  0
   -1.3563   -0.5428    0.0704 O   0  0  0  0  0  0  0  0  0  0  0  0
   -0.0715   -1.1077    0.2098 C   0  0  0  0  0  0  0  0  0  0  0  0
    0.8777    3.3591   -1.4945 C   0  0  1  0  0  0  0  0  0  0  0  0
    0.8240    5.3778   -0.0346 C   0  0  1  0  0  0  0  0  0  0  0  0
   -0.0182   -1.7976    1.6031 C   0  0  0  0  0  0  0  0  0  0  0  0
    0.0820   -2.5990   -0.5729 C   0  0  0  0  0  0  0  0  0  0  0  0
    1.2393    4.8912   -1.4625 C   0  0  2  0  0  0  0  0  0  0  0  0
    1.5020    2.7659   -2.6890 C   0  0  0  0  0  0  0  0  0  0  0  0
    0.8512    6.7705    0.2974 O   0  0  0  0  0  0  0  0  0  0  0  0
    2.6570    5.2737   -1.9613 C   0  0  2  0  0  0  0  0  0  0  0  0
    0.4161    5.4818   -2.3924 F   0  0  0  0  0  0  0  0  0  0  0  0
    2.9763    2.8275   -2.3000 C   0  0  1  0  0  0  0  0  0  0  0  0
    3.7019    4.2712   -1.6158 C   0  0  0  0  0  0  0  0  0  0  0  0
    2.9310    6.7205   -1.5663 C   0  0  0  0  0  0  0  0  0  0  0  0
    3.0043    5.0403   -3.5439 C   0  0  0  0  0  0  0  0  0  0  0  0
    2.7582    1.7540   -1.4880 F   0  0  0  0  0  0  0  0  0  0  0  0
    4.9644    4.8643   -1.8160 C   0  0  0  0  0  0  0  0  0  0  0  0
    4.0938    7.3376   -1.7483 C   0  0  0  0  0  0  0  0  0  0  0  0
    5.0523    6.3999   -2.3167 C   0  0  0  0  0  0  0  0  0  0  0  0
    5.6441    6.7382   -3.3496 O   0  0  0  0  0  0  0  0  0  0  0  0
   -1.1702    3.5221   -2.0583 H   0  0  0  0  0  0  0  0  0  0  0  0
    1.9774    0.3337    1.9885 O   0  0  0  0  0  0  0  0  0  0  0  0
    3.2643    1.9600    0.6453 C   0  0  0  0  0  0  0  0  0  0  0  0
    4.3646    1.6918   -0.3857 O   0  0  0  0  0  0  0  0  0  0  0  0
    4.4804    0.5053   -1.0827 C   0  0  0  0  0  0  0  0  0  0  0  0
    4.3593   -0.6080   -0.4774 O   0  0  0  0  0  0  0  0  0  0  0  0
    4.5949    0.5250   -2.6576 C   0  0  0  0  0  0  0  0  0  0  0  0
    1.3811    2.9903   -0.5999 H   0  0  0  0  0  0  0  0  0  0  0  0
   -2.0209    1.2296    0.6619 H   0  0  0  0  0  0  0  0  0  0  0  0
   -1.1785    5.6550    0.5653 H   0  0  0  0  0  0  0  0  0  0  0  0
   -1.0944    5.1519   -0.9423 H   0  0  0  0  0  0  0  0  0  0  0  0
   -2.6274    2.9834    1.5374 H   0  0  0  0  0  0  0  0  0  0  0  0
   -2.5101    4.5321    0.9516 H   0  0  0  0  0  0  0  0  0  0  0  0
   -3.0306    3.4178   -0.2036 H   0  0  0  0  0  0  0  0  0  0  0  0
   -2.1425    1.5207   -1.8303 H   0  0  0  0  0  0  0  0  0  0  0  0
   -0.5833    0.8188   -2.0603 H   0  0  0  0  0  0  0  0  0  0  0  0
    1.3271    4.8965    0.8063 H   0  0  0  0  0  0  0  0  0  0  0  0
   -0.8996   -2.4777    1.6258 H   0  0  0  0  0  0  0  0  0  0  0  0
    0.8729   -2.4486    1.6656 H   0  0  0  0  0  0  0  0  0  0  0  0
   -0.1030   -1.2580    2.5363 H   0  0  0  0  0  0  0  0  0  0  0  0
   -0.0937   -3.4679    0.1309 H   0  0  0  0  0  0  0  0  0  0  0  0
   -0.7173   -2.8601   -1.2768 H   0  0  0  0  0  0  0  0  0  0  0  0
    1.0964   -2.8748   -0.8912 H   0  0  0  0  0  0  0  0  0  0  0  0
    1.1678    3.1758   -3.6268 H   0  0  0  0  0  0  0  0  0  0  0  0
    1.1785    1.7157   -2.7292 H   0  0  0  0  0  0  0  0  0  0  0  0
    0.3866    7.3113   -0.3666 H   0  0  0  0  0  0  0  0  0  0  0  0
    3.5719    2.5337   -3.1472 H   0  0  0  0  0  0  0  0  0  0  0  0
    2.1292    7.3853   -1.2884 H   0  0  0  0  0  0  0  0  0  0  0  0
    2.2938    4.4780   -4.1183 H   0  0  0  0  0  0  0  0  0  0  0  0
    3.3189    5.9306   -4.0570 H   0  0  0  0  0  0  0  0  0  0  0  0
    3.9109    4.3911   -3.7266 H   0  0  0  0  0  0  0  0  0  0  0  0
    5.7630    4.3702   -2.3688 H   0  0  0  0  0  0  0  0  0  0  0  0
    4.1662    8.4234   -1.7638 H   0  0  0  0  0  0  0  0  0  0  0  0
    3.0430    3.0397    0.6068 H   0  0  0  0  0  0  0  0  0  0  0  0
    3.8796    1.9167    1.5515 H   0  0  0  0  0  0  0  0  0  0  0  0
    3.6137    0.5825   -3.1708 H   0  0  0  0  0  0  0  0  0  0  0  0
    5.2410    1.3164   -3.0645 H   0  0  0  0  0  0  0  0  0  0  0  0
    4.9805   -0.4222   -3.0464 H   0  0  0  0  0  0  0  0  0  0  0  0
  1  2  1  0  0  0  0
  1  3  1  0  0  0  0
  1  4  1  0  0  0  0
  1  5  1  1  0  0  0
  2  6  1  0  0  0  0
  2  7  1  0  0  0  0
  2  8  1  1  0  0  0
  3  9  1  0  0  0  0
  3 10  1  0  0  0  0
  3 38  1  1  0  0  0
  4 11  1  0  0  0  0
  5 31  2  0  0  0  0
  5 32  1  0  0  0  0
  6 12  1  0  0  0  0
  6  9  1  0  0  0  0
  6 30  1  1  0  0  0
  7 13  1  0  0  0  0
  7 39  1  0  0  0  0
  7 40  1  0  0  0  0
  8 41  1  0  0  0  0
  8 42  1  0  0  0  0
  8 43  1  0  0  0  0
  9 44  1  0  0  0  0
  9 45  1  0  0  0  0
 10 11  1  0  0  0  0
 11 14  1  0  0  0  0
 11 15  1  0  0  0  0
 12 16  1  0  0  0  0
 12 17  1  0  0  0  0
 12 37  1  6  0  0  0
 13 16  1  0  0  0  0
 13 18  1  0  0  0  0
 13 46  1  1  0  0  0
 14 47  1  0  0  0  0
 14 48  1  0  0  0  0
 14 49  1  0  0  0  0
 15 50  1  0  0  0  0
 15 51  1  0  0  0  0
 15 52  1  0  0  0  0
 16 19  1  0  0  0  0
 16 20  1  1  0  0  0
 17 21  1  0  0  0  0
 17 53  1  0  0  0  0
 17 54  1  0  0  0  0
 18 55  1  0  0  0  0
 19 22  1  0  0  0  0
 19 23  1  0  0  0  0
 19 24  1  6  0  0  0
 21 22  1  0  0  0  0
 21 56  1  6  0  0  0
 21 25  1  0  0  0  0
 22 26  2  0  0  0  0
 23 27  2  0  0  0  0
 23 57  1  0  0  0  0
 24 58  1  0  0  0  0
 24 59  1  0  0  0  0
 24 60  1  0  0  0  0
 26 28  1  0  0  0  0
 26 61  1  0  0  0  0
 27 28  1  0  0  0  0
 27 62  1  0  0  0  0
 28 29  2  0  0  0  0
 32 33  1  0  0  0  0
 32 63  1  0  0  0  0
 32 64  1  0  0  0  0
 33 34  1  0  0  0  0
 34 35  2  0  0  0  0
 34 36  1  0  0  0  0
 36 65  1  0  0  0  0
 36 66  1  0  0  0  0
 36 67  1  0  0  0  0
M  END
>  <DRUGBANK_ID>
DB01047

>  <SECONDARY_ACCESSION_NUMBERS>
APRD00978

>  <COMMON_NAME>
Fluocinonide

>  <CAS_NUMBER>
356-12-7

>  <UNII>
2W4A77YPAN

>  <SYNONYMS>
Fluocinonida; Fluocinonide; Fluocinonido; Fluocinonidum

$$$$
