
 OpenBabel10282417113D

140148  0  0  1  0  0  0  0  0999 V2000
   -4.0409    0.6892    5.3229 C   0  0  1  0  0  0  0  0  0  0  0  0
   -3.7366   -0.5079    5.8781 C   0  0  0  0  0  0  0  0  0  0  0  0
   -2.9047   -0.5510    7.9404 C   0  0  1  0  0  0  0  0  0  0  0  0
   -1.6876    0.8052    8.8082 C   0  0  1  0  0  0  0  0  0  0  0  0
   -2.4646    2.2707    7.7767 C   0  0  2  0  0  0  0  0  0  0  0  0
   -3.2431    1.8521    5.9562 O   0  0  0  0  0  0  0  0  0  0  0  0
   -3.5562   -1.7036    8.7005 O   0  0  0  0  0  0  0  0  0  0  0  0
   -2.1112    1.1435   10.7315 O   0  0  0  0  0  0  0  0  0  0  0  0
   -1.5881    3.9787    8.4544 C   0  0  0  0  0  0  0  0  0  0  0  0
   -0.0591    0.2862    5.5332 C   0  0  2  0  0  0  0  0  0  0  0  0
   -0.7077   -0.8679    4.9886 O   0  0  0  0  0  0  0  0  0  0  0  0
   -1.3334   -0.7632    3.6425 C   0  0  1  0  0  0  0  0  0  0  0  0
   -1.9751    1.0342    2.8889 C   0  0  2  0  0  0  0  0  0  0  0  0
   -0.8598    1.9922    3.6360 C   0  0  2  0  0  0  0  0  0  0  0  0
   -0.4334    1.6254    4.9462 C   0  0  0  0  0  0  0  0  0  0  0  0
   -2.1262    3.2563    5.5186 C   0  0  2  0  0  0  0  0  0  0  0  0
   -2.4276    2.6778    4.0401 C   0  0  1  0  0  0  0  0  0  0  0  0
   -3.7002    3.5419    5.3181 C   0  0  1  0  0  0  0  0  0  0  0  0
   -1.6673    2.7470    2.0906 C   0  0  1  0  0  0  0  0  0  0  0  0
   -2.6843    0.6768    4.0503 C   0  0  0  0  0  0  0  0  0  0  0  0
   -3.8575    4.5724    4.3265 C   0  0  1  0  0  0  0  0  0  0  0  0
   -5.0007    2.3086    4.5141 C   0  0  0  0  0  0  0  0  0  0  0  0
   -0.4651    0.8657    1.6851 C   0  0  2  0  0  0  0  0  0  0  0  0
   -3.3010    3.8120    2.6713 C   0  0  0  0  0  0  0  0  0  0  0  0
   -3.0121    0.4090    1.8664 C   0  0  0  0  0  0  0  0  0  0  0  0
   -1.4569    0.7721    0.8107 C   0  0  2  0  0  0  0  0  0  0  0  0
    1.1830   -0.0625    1.3468 C   0  0  0  0  0  0  0  0  0  0  0  0
   -0.8863   -1.0510    1.2411 C   0  0  0  0  0  0  0  0  0  0  0  0
   -0.7742    1.2401   -0.3674 C   0  0  0  0  0  0  0  0  0  0  0  0
    1.4362   -0.0942   -0.0496 C   0  0  0  0  0  0  0  0  0  0  0  0
    0.8433    1.2008   -0.4374 C   0  0  2  0  0  0  0  0  0  0  0  0
   -5.2633    4.7071    4.5224 O   0  0  0  0  0  0  0  0  0  0  0  0
   -1.6064    1.6045    6.4505 C   0  0  0  0  0  0  0  0  0  0  0  0
   -0.8599    2.5759    7.0302 C   0  0  0  0  0  0  0  0  0  0  0  0
   -2.7122    3.7730    6.9321 C   0  0  2  0  0  0  0  0  0  0  0  0
   -3.7114    3.0715    8.7176 C   0  0  0  0  0  0  0  0  0  0  0  0
   -3.0035    2.1530    9.6376 C   0  0  0  0  0  0  0  0  0  0  0  0
   -2.9540    0.0420    9.9123 C   0  0  0  0  0  0  0  0  0  0  0  0
   -3.6266    0.5472    8.9935 O   0  0  0  0  0  0  0  0  0  0  0  0
   -4.6699    1.2412    8.8126 C   0  0  0  0  0  0  0  0  0  0  0  0
   -2.4529   -0.8788   10.5130 O   0  0  0  0  0  0  0  0  0  0  0  0
    1.7230    2.2530    0.0942 O   0  0  0  0  0  0  0  0  0  0  0  0
    1.9139    2.4750    1.4985 C   0  0  1  0  0  0  0  0  0  0  0  0
    0.7263    3.0932    1.9223 C   0  0  0  0  0  0  0  0  0  0  0  0
    0.9793    2.9461    3.4170 C   0  0  1  0  0  0  0  0  0  0  0  0
    1.4004    1.5058    4.2432 C   0  0  1  0  0  0  0  0  0  0  0  0
    2.5604    1.1601    3.6268 C   0  0  2  0  0  0  0  0  0  0  0  0
    2.7762    1.6637    2.3207 O   0  0  0  0  0  0  0  0  0  0  0  0
    1.2261    3.9151    4.3427 O   0  0  0  0  0  0  0  0  0  0  0  0
    1.2315    0.9641    5.5811 O   0  0  0  0  0  0  0  0  0  0  0  0
    2.8246   -0.2646    4.1385 C   0  0  0  0  0  0  0  0  0  0  0  0
    0.0100   -0.9658    3.2904 C   0  0  0  0  0  0  0  0  0  0  0  0
   -3.9628    0.6203    3.3131 O   0  0  0  0  0  0  0  0  0  0  0  0
   -1.2401    3.9666    3.4085 O   0  0  0  0  0  0  0  0  0  0  0  0
   -4.1917    0.9482   10.7672 C   0  0  2  0  0  0  0  0  0  0  0  0
   -5.0186   -0.5138    9.5714 O   0  0  0  0  0  0  0  0  0  0  0  0
   -4.9550   -0.8671    7.5464 C   0  0  1  0  0  0  0  0  0  0  0  0
   -6.2031    0.8636    7.0655 C   0  0  2  0  0  0  0  0  0  0  0  0
   -5.4970    2.5050    7.9521 C   0  0  1  0  0  0  0  0  0  0  0  0
   -5.0974    2.5917   10.0361 C   0  0  1  0  0  0  0  0  0  0  0  0
   -4.0211    1.4482    7.2746 O   0  0  0  0  0  0  0  0  0  0  0  0
   -3.0632   -1.7884    6.7834 C   0  0  0  0  0  0  0  0  0  0  0  0
   -6.3608    2.4452   10.4210 O   0  0  0  0  0  0  0  0  0  0  0  0
   -7.4207    0.9887    7.7050 O   0  0  0  0  0  0  0  0  0  0  0  0
   -2.0076   -2.6316    7.4155 O   0  0  0  0  0  0  0  0  0  0  0  0
   -1.1229    4.4893    5.8517 O   0  0  0  0  0  0  0  0  0  0  0  0
   -4.9609    0.8492    5.6710 H   0  0  0  0  0  0  0  0  0  0  0  0
   -4.0384   -1.4472    5.2160 H   0  0  0  0  0  0  0  0  0  0  0  0
   -2.7771   -0.7878    5.2401 H   0  0  0  0  0  0  0  0  0  0  0  0
   -1.9150   -0.9235    8.2249 H   0  0  0  0  0  0  0  0  0  0  0  0
   -0.6417    0.4351    8.6766 H   0  0  0  0  0  0  0  0  0  0  0  0
   -3.7243    2.7743    7.1812 H   0  0  0  0  0  0  0  0  0  0  0  0
   -4.1553   -0.9842    8.9404 H   0  0  0  0  0  0  0  0  0  0  0  0
   -2.2350    4.8612    8.1564 H   0  0  0  0  0  0  0  0  0  0  0  0
   -1.5903    4.0282    9.4962 H   0  0  0  0  0  0  0  0  0  0  0  0
   -0.5745    3.9278    8.1142 H   0  0  0  0  0  0  0  0  0  0  0  0
   -0.3832    0.0164    6.5019 H   0  0  0  0  0  0  0  0  0  0  0  0
   -2.2185   -1.4092    3.4886 H   0  0  0  0  0  0  0  0  0  0  0  0
   -2.9144    1.8342    2.6643 H   0  0  0  0  0  0  0  0  0  0  0  0
   -0.1169    1.4963    3.2384 H   0  0  0  0  0  0  0  0  0  0  0  0
   -1.3984    1.7190    4.9615 H   0  0  0  0  0  0  0  0  0  0  0  0
   -0.0309    2.5258    5.4434 H   0  0  0  0  0  0  0  0  0  0  0  0
   -1.2254    3.1707    4.6766 H   0  0  0  0  0  0  0  0  0  0  0  0
   -1.5258    3.7118    1.5488 H   0  0  0  0  0  0  0  0  0  0  0  0
   -3.2039    1.6444    4.2370 H   0  0  0  0  0  0  0  0  0  0  0  0
   -1.8295    0.4449    4.5238 H   0  0  0  0  0  0  0  0  0  0  0  0
   -3.2636    5.3181    4.8802 H   0  0  0  0  0  0  0  0  0  0  0  0
   -5.3820    0.9264    4.2863 H   0  0  0  0  0  0  0  0  0  0  0  0
   -5.9913    2.5347    4.6947 H   0  0  0  0  0  0  0  0  0  0  0  0
   -4.6797    2.3185    3.5252 H   0  0  0  0  0  0  0  0  0  0  0  0
   -3.3460    4.8499    2.3244 H   0  0  0  0  0  0  0  0  0  0  0  0
   -4.1157    3.1951    2.4005 H   0  0  0  0  0  0  0  0  0  0  0  0
   -3.1171    1.5974    1.1819 H   0  0  0  0  0  0  0  0  0  0  0  0
   -3.3700   -0.4815    1.4145 H   0  0  0  0  0  0  0  0  0  0  0  0
   -0.8747    1.4850    1.4118 H   0  0  0  0  0  0  0  0  0  0  0  0
    2.0525    0.2282    1.8118 H   0  0  0  0  0  0  0  0  0  0  0  0
    1.5607   -1.0872    1.8262 H   0  0  0  0  0  0  0  0  0  0  0  0
   -0.8475   -1.3187    0.2189 H   0  0  0  0  0  0  0  0  0  0  0  0
   -0.3089   -1.9805    1.7268 H   0  0  0  0  0  0  0  0  0  0  0  0
   -1.8313   -1.3750    1.6603 H   0  0  0  0  0  0  0  0  0  0  0  0
   -1.2081    0.3795   -0.8031 H   0  0  0  0  0  0  0  0  0  0  0  0
   -1.1267    2.2516   -0.4225 H   0  0  0  0  0  0  0  0  0  0  0  0
    0.8988   -0.9631   -0.3714 H   0  0  0  0  0  0  0  0  0  0  0  0
    2.5125   -0.1539   -0.1819 H   0  0  0  0  0  0  0  0  0  0  0  0
    0.9654    1.2244   -1.4948 H   0  0  0  0  0  0  0  0  0  0  0  0
   -5.5082    5.4079    3.9335 H   0  0  0  0  0  0  0  0  0  0  0  0
   -1.3253    1.1202    7.2498 H   0  0  0  0  0  0  0  0  0  0  0  0
   -1.9203    0.7568    5.9661 H   0  0  0  0  0  0  0  0  0  0  0  0
   -0.0358    1.5022    7.5947 H   0  0  0  0  0  0  0  0  0  0  0  0
    0.2315    2.0021    6.8228 H   0  0  0  0  0  0  0  0  0  0  0  0
   -3.9605    4.0664    6.6154 H   0  0  0  0  0  0  0  0  0  0  0  0
   -1.9824    2.5097    9.7231 H   0  0  0  0  0  0  0  0  0  0  0  0
   -4.9135    0.5825    7.7040 H   0  0  0  0  0  0  0  0  0  0  0  0
   -5.6914    0.9204    8.9241 H   0  0  0  0  0  0  0  0  0  0  0  0
    2.3671    3.4000    1.7585 H   0  0  0  0  0  0  0  0  0  0  0  0
    0.1945    3.9514    1.4807 H   0  0  0  0  0  0  0  0  0  0  0  0
    0.0620    2.6839    1.1905 H   0  0  0  0  0  0  0  0  0  0  0  0
    0.1653    3.4838    3.4604 H   0  0  0  0  0  0  0  0  0  0  0  0
    0.8986    0.6273    4.0880 H   0  0  0  0  0  0  0  0  0  0  0  0
    2.9345    1.9296    4.2336 H   0  0  0  0  0  0  0  0  0  0  0  0
    2.1101    3.7681    4.0807 H   0  0  0  0  0  0  0  0  0  0  0  0
    2.7557   -0.3139    5.2391 H   0  0  0  0  0  0  0  0  0  0  0  0
    2.1891   -1.1172    3.8584 H   0  0  0  0  0  0  0  0  0  0  0  0
    3.7799   -0.4596    3.7546 H   0  0  0  0  0  0  0  0  0  0  0  0
    0.4711   -1.7424    3.7895 H   0  0  0  0  0  0  0  0  0  0  0  0
   -0.6871   -0.4114    2.8223 H   0  0  0  0  0  0  0  0  0  0  0  0
    0.6392   -0.1999    3.0270 H   0  0  0  0  0  0  0  0  0  0  0  0
   -1.9963    4.3422    3.9790 H   0  0  0  0  0  0  0  0  0  0  0  0
   -3.7572    0.6744   11.7327 H   0  0  0  0  0  0  0  0  0  0  0  0
   -5.5817   -1.6821    7.2650 H   0  0  0  0  0  0  0  0  0  0  0  0
   -5.9721    1.7708    6.3733 H   0  0  0  0  0  0  0  0  0  0  0  0
   -5.2895    3.5445    7.5545 H   0  0  0  0  0  0  0  0  0  0  0  0
   -4.2568    3.4610   10.4445 H   0  0  0  0  0  0  0  0  0  0  0  0
   -3.3259    1.0240    7.8383 H   0  0  0  0  0  0  0  0  0  0  0  0
   -2.4571   -0.3542    6.5969 H   0  0  0  0  0  0  0  0  0  0  0  0
   -1.8494   -0.9641    6.6673 H   0  0  0  0  0  0  0  0  0  0  0  0
   -6.4193    1.5751   10.0143 H   0  0  0  0  0  0  0  0  0  0  0  0
   -7.1863    0.6425    8.5657 H   0  0  0  0  0  0  0  0  0  0  0  0
   -2.1041   -2.4329    8.3797 H   0  0  0  0  0  0  0  0  0  0  0  0
   -0.2973    4.1207    6.2774 H   0  0  0  0  0  0  0  0  0  0  0  0
  1  2  1  0  0  0  0
  1  6  1  0  0  0  0
  1 53  1  0  0  0  0
  1 67  1  1  0  0  0
  2  3  1  0  0  0  0
  2 68  1  0  0  0  0
  2 69  1  0  0  0  0
  3  4  1  0  0  0  0
  3  7  1  0  0  0  0
  3 70  1  6  0  0  0
  4  5  1  0  0  0  0
  4  8  1  0  0  0  0
  4 71  1  6  0  0  0
  5  6  1  0  0  0  0
  5 72  1  1  0  0  0
  5  9  1  0  0  0  0
  7 73  1  0  0  0  0
  9 74  1  0  0  0  0
  9 75  1  0  0  0  0
  9 76  1  0  0  0  0
 10 11  1  0  0  0  0
 10 15  1  0  0  0  0
 10 77  1  1  0  0  0
 10 50  1  0  0  0  0
 11 12  1  0  0  0  0
 12 13  1  0  0  0  0
 12 52  1  0  0  0  0
 12 78  1  6  0  0  0
 13 14  1  0  0  0  0
 13 53  1  0  0  0  0
 13 79  1  6  0  0  0
 14 15  1  0  0  0  0
 14 80  1  6  0  0  0
 14 54  1  0  0  0  0
 15 81  1  0  0  0  0
 15 82  1  0  0  0  0
 16 17  1  0  0  0  0
 16 18  1  0  0  0  0
 16 33  1  0  0  0  0
 16 66  1  6  0  0  0
 17 19  1  0  0  0  0
 17 20  1  0  0  0  0
 17 83  1  6  0  0  0
 18 21  1  0  0  0  0
 18 22  1  6  0  0  0
 18 35  1  0  0  0  0
 19 23  1  0  0  0  0
 19 24  1  0  0  0  0
 19 84  1  1  0  0  0
 20 25  1  0  0  0  0
 20 85  1  0  0  0  0
 20 86  1  0  0  0  0
 21 24  1  0  0  0  0
 21 87  1  1  0  0  0
 21 32  1  0  0  0  0
 22 88  1  0  0  0  0
 22 89  1  0  0  0  0
 22 90  1  0  0  0  0
 23 26  1  0  0  0  0
 23 27  1  0  0  0  0
 23 28  1  6  0  0  0
 24 91  1  0  0  0  0
 24 92  1  0  0  0  0
 25 26  1  0  0  0  0
 25 93  1  0  0  0  0
 25 94  1  0  0  0  0
 26 29  1  0  0  0  0
 26 95  1  1  0  0  0
 27 30  1  0  0  0  0
 27 96  1  0  0  0  0
 27 97  1  0  0  0  0
 28 98  1  0  0  0  0
 28 99  1  0  0  0  0
 28100  1  0  0  0  0
 29 31  1  0  0  0  0
 29101  1  0  0  0  0
 29102  1  0  0  0  0
 30 31  1  0  0  0  0
 30103  1  0  0  0  0
 30104  1  0  0  0  0
 31 42  1  0  0  0  0
 31105  1  6  0  0  0
 32106  1  0  0  0  0
 33 34  1  0  0  0  0
 33107  1  0  0  0  0
 33108  1  0  0  0  0
 34 35  1  0  0  0  0
 34109  1  0  0  0  0
 34110  1  0  0  0  0
 35111  1  1  0  0  0
 35 36  1  0  0  0  0
 36 37  2  0  0  0  0
 36 40  1  0  0  0  0
 37 38  1  0  0  0  0
 37112  1  0  0  0  0
 38 39  1  0  0  0  0
 38 41  2  0  0  0  0
 39 40  1  0  0  0  0
 40113  1  0  0  0  0
 40114  1  0  0  0  0
 43 42  1  0  0  0  0
 43 44  1  0  0  0  0
 43 48  1  0  0  0  0
 43115  1  6  0  0  0
 44 45  1  0  0  0  0
 44116  1  0  0  0  0
 44117  1  0  0  0  0
 45 46  1  0  0  0  0
 45 49  1  0  0  0  0
 45118  1  1  0  0  0
 46 47  1  0  0  0  0
 46119  1  6  0  0  0
 46 50  1  0  0  0  0
 47 48  1  0  0  0  0
 47120  1  1  0  0  0
 47 51  1  0  0  0  0
 49121  1  0  0  0  0
 51122  1  0  0  0  0
 51123  1  0  0  0  0
 51124  1  0  0  0  0
 52125  1  0  0  0  0
 52126  1  0  0  0  0
 52127  1  0  0  0  0
 54128  1  0  0  0  0
 55  8  1  0  0  0  0
 55 56  1  0  0  0  0
 55 60  1  0  0  0  0
 55129  1  1  0  0  0
 56 57  1  0  0  0  0
 57 58  1  0  0  0  0
 57 62  1  0  0  0  0
 57130  1  6  0  0  0
 58 59  1  0  0  0  0
 58131  1  6  0  0  0
 58 64  1  0  0  0  0
 59 60  1  0  0  0  0
 59 61  1  0  0  0  0
 59132  1  6  0  0  0
 60 63  1  0  0  0  0
 60133  1  1  0  0  0
 61134  1  0  0  0  0
 62 65  1  0  0  0  0
 62135  1  0  0  0  0
 62136  1  0  0  0  0
 63137  1  0  0  0  0
 64138  1  0  0  0  0
 65139  1  0  0  0  0
 66140  1  0  0  0  0
M  END
>  <DRUGBANK_ID>
DB01078

>  <SECONDARY_ACCESSION_NUMBERS>
APRD00909

>  <COMMON_NAME>
Deslanoside

>  <CAS_NUMBER>
17598-65-1

>  <UNII>
YGY317RK75

>  <SYNONYMS>
(3β,5β,12β)-3-{[β-D-glucopyranosyl-(1→4)-2,6-dideoxy-β-D-ribo-hexopyranosyl-(1→4)-2,6-dideoxy-β-D-ribo-hexopyranosyl-(1→4)-2,6-dideoxy-β-D-ribo-hexopyranosyl]oxy}-12,14-dihydroxycard-20(22)-enolide; 3-[(O-β-D-glucopyranosyl-(1→4)-O-2,6-dideoxy-β-D-ribo-hexopyranosyl-(1→4)-O-2,6-dideoxy-β-D-ribo-hexopyranosyl-(1→4)-O-2,6-dideoxy-β-D-ribo-hexopyranosyl)oxy]-12,14-dihydroxy-3β,5β,12β-card-20(22)-enolide; Deacetyllanatoside C; Desacetyllanatoside C; Deslanoside; Deslanosido; Deslanosidum; Glucodigoxin

$$$$
