
 OpenBabel10282417213D

 54 56  0  0  0  0  0  0  0  0999 V2000
   -0.2292   -0.0293   -0.5264 C   0  0  0  0  0  0  0  0  0  0  0  0
   -0.4792    1.6669   -0.4308 C   0  0  0  0  0  0  0  0  0  0  0  0
    0.6847    2.7485   -1.2630 C   0  0  0  0  0  0  0  0  0  0  0  0
    0.2129    3.5483   -2.0612 O   0  0  0  0  0  0  0  0  0  0  0  0
    2.1665    2.8754   -1.1167 N   0  0  0  0  0  0  0  0  0  0  0  0
    3.4516    2.2526   -0.1807 S   0  0  0  0  0  0  0  0  0  0  0  0
    4.2616    1.7156   -1.3259 O   0  0  0  0  0  0  0  0  0  0  0  0
    4.2435    3.4299    0.2832 O   0  0  0  0  0  0  0  0  0  0  0  0
    2.8243    0.6484    1.6545 C   0  0  0  0  0  0  0  0  0  0  0  0
    1.9346    0.8875    2.8560 C   0  0  0  0  0  0  0  0  0  0  0  0
    1.3813   -0.0184    3.6964 C   0  0  0  0  0  0  0  0  0  0  0  0
    0.0136    0.5428    4.5900 Cl  0  0  0  0  0  0  0  0  0  0  0  0
    1.8688   -1.2881    3.6243 C   0  0  0  0  0  0  0  0  0  0  0  0
    1.0462   -2.2716    4.1231 N   0  0  0  0  0  0  0  0  0  0  0  0
    1.1701   -3.6128    3.9485 C   0  0  0  0  0  0  0  0  0  0  0  0
    0.6221   -4.3491    4.7673 O   0  0  0  0  0  0  0  0  0  0  0  0
    2.0189   -4.1903    2.8132 C   0  0  0  0  0  0  0  0  0  0  0  0
    1.5659   -3.8903    1.3473 C   0  0  0  0  0  0  0  0  0  0  0  0
    1.1784   -4.8865    0.4952 C   0  0  0  0  0  0  0  0  0  0  0  0
    0.7347   -4.5550   -0.8141 C   0  0  0  0  0  0  0  0  0  0  0  0
    0.9176   -3.2617   -1.3872 C   0  0  0  0  0  0  0  0  0  0  0  0
    0.1319   -2.8564   -3.0655 Br  0  0  0  0  0  0  0  0  0  0  0  0
    1.5919   -2.3054   -0.6467 C   0  0  0  0  0  0  0  0  0  0  0  0
    2.1522   -1.0730   -1.1823 O   0  0  0  0  0  0  0  0  0  0  0  0
    2.5802    0.1126   -0.3812 C   0  0  0  0  0  0  0  0  0  0  0  0
    4.2593    0.2690    0.2011 C   0  0  0  0  0  0  0  0  0  0  0  0
    4.5554    1.5157    1.5509 C   0  0  0  0  0  0  0  0  0  0  0  0
    3.2685    2.7152    2.1109 C   0  0  0  0  0  0  0  0  0  0  0  0
    1.7405    2.7327    1.4050 C   0  0  0  0  0  0  0  0  0  0  0  0
    0.3571    3.6502    2.1336 Cl  0  0  0  0  0  0  0  0  0  0  0  0
    1.4577    1.3076    0.4202 C   0  0  0  0  0  0  0  0  0  0  0  0
    5.6408    1.3149    2.4257 C   0  0  0  0  0  0  0  0  0  0  0  0
    6.6028    1.1682    2.9776 N   0  0  0  0  0  0  0  0  0  0  0  0
    1.5442   -2.6249    0.7167 C   0  0  0  0  0  0  0  0  0  0  0  0
    1.0701   -1.6430    1.4689 F   0  0  0  0  0  0  0  0  0  0  0  0
    2.9821   -1.5834    2.8517 C   0  0  0  0  0  0  0  0  0  0  0  0
    3.3190   -0.7694    1.8336 C   0  0  0  0  0  0  0  0  0  0  0  0
    0.0481   -0.2885   -1.5459 H   0  0  0  0  0  0  0  0  0  0  0  0
   -0.5841   -0.7077    0.2758 H   0  0  0  0  0  0  0  0  0  0  0  0
    0.6874   -0.3997   -0.0526 H   0  0  0  0  0  0  0  0  0  0  0  0
   -1.5064    2.0063   -0.4082 H   0  0  0  0  0  0  0  0  0  0  0  0
   -0.5008    1.9487    0.6489 H   0  0  0  0  0  0  0  0  0  0  0  0
    2.6731    3.3785   -1.8591 H   0  0  0  0  0  0  0  0  0  0  0  0
    1.4858    1.8174    3.1393 H   0  0  0  0  0  0  0  0  0  0  0  0
    0.2991   -1.9252    4.7203 H   0  0  0  0  0  0  0  0  0  0  0  0
    3.0782   -3.9886    3.0634 H   0  0  0  0  0  0  0  0  0  0  0  0
    2.1293   -5.2649    2.9552 H   0  0  0  0  0  0  0  0  0  0  0  0
    1.1736   -5.9030    0.8701 H   0  0  0  0  0  0  0  0  0  0  0  0
    0.3144   -5.3574   -1.4121 H   0  0  0  0  0  0  0  0  0  0  0  0
    4.8545   -0.5337   -0.2190 H   0  0  0  0  0  0  0  0  0  0  0  0
    3.2121    3.2604    3.0561 H   0  0  0  0  0  0  0  0  0  0  0  0
    0.6424    0.8001    1.1025 H   0  0  0  0  0  0  0  0  0  0  0  0
    3.2937   -2.5277    2.4585 H   0  0  0  0  0  0  0  0  0  0  0  0
    3.7560   -1.4440    1.0360 H   0  0  0  0  0  0  0  0  0  0  0  0
  1  2  1  0  0  0  0
  1 38  1  0  0  0  0
  1 39  1  0  0  0  0
  1 40  1  0  0  0  0
  2  3  1  0  0  0  0
  2 41  1  0  0  0  0
  2 42  1  0  0  0  0
  3  4  2  0  0  0  0
  3  5  1  0  0  0  0
  5  6  1  0  0  0  0
  5 43  1  0  0  0  0
  6  7  2  0  0  0  0
  6  8  2  0  0  0  0
  6  9  1  0  0  0  0
  9 10  2  0  0  0  0
  9 37  1  0  0  0  0
 10 11  1  0  0  0  0
 10 44  1  0  0  0  0
 11 12  1  0  0  0  0
 11 13  2  0  0  0  0
 13 14  1  0  0  0  0
 13 36  1  0  0  0  0
 14 15  1  0  0  0  0
 14 45  1  0  0  0  0
 15 16  2  0  0  0  0
 15 17  1  0  0  0  0
 17 18  1  0  0  0  0
 17 46  1  0  0  0  0
 17 47  1  0  0  0  0
 18 19  2  0  0  0  0
 18 34  1  0  0  0  0
 19 20  1  0  0  0  0
 19 48  1  0  0  0  0
 20 21  2  0  0  0  0
 20 49  1  0  0  0  0
 21 22  1  0  0  0  0
 21 23  1  0  0  0  0
 23 24  1  0  0  0  0
 23 34  2  0  0  0  0
 24 25  1  0  0  0  0
 25 26  2  0  0  0  0
 25 31  1  0  0  0  0
 26 27  1  0  0  0  0
 26 50  1  0  0  0  0
 27 28  2  0  0  0  0
 27 32  1  0  0  0  0
 28 29  1  0  0  0  0
 28 51  1  0  0  0  0
 29 30  1  0  0  0  0
 29 31  2  0  0  0  0
 31 52  1  0  0  0  0
 32 33  3  0  0  0  0
 34 35  1  0  0  0  0
 36 37  2  0  0  0  0
 36 53  1  0  0  0  0
 37 54  1  0  0  0  0
M  END
>  <DRUGBANK_ID>
DB14929

>  <COMMON_NAME>
Elsulfavirine

>  <CAS_NUMBER>
868046-19-9

>  <UNII>
ZC4CGO0RUG

>  <SYNONYMS>
Elsulfavirine

$$$$
