Carotene-beta
 OpenBabel10282417103D

 51 51  0  0  0  0  0  0  0  0999 V2000
    0.1505   -1.0947    0.1388 C   0  0  0  0  0  0  0  0  0  0  0  0
    0.0729   -2.5488    0.3933 C   0  0  0  0  0  0  0  0  0  0  0  0
    1.5045    1.0396   -0.1348 C   0  0  0  0  0  0  0  0  0  0  0  0
   -0.9265    1.1511   -0.5449 C   0  0  0  0  0  0  0  0  0  0  0  0
   -1.0104   -3.3176    0.6191 C   0  0  0  0  0  0  0  0  0  0  0  0
    0.2389    1.8323    0.1374 C   0  0  0  0  0  0  0  0  0  0  0  0
   -1.0424   -4.7661    0.8069 C   0  0  0  0  0  0  0  0  0  0  0  0
   -2.2388   -5.3986    0.8835 C   0  0  0  0  0  0  0  0  0  0  0  0
    0.2979   -5.4497    0.9103 C   0  0  0  0  0  0  0  0  0  0  0  0
   -2.3864   -6.8179    1.1064 C   0  0  0  0  0  0  0  0  0  0  0  0
   -3.5258   -7.5238    1.2174 C   0  0  0  0  0  0  0  0  0  0  0  0
   -3.5343   -8.9723    1.4717 C   0  0  0  0  0  0  0  0  0  0  0  0
   -4.7029   -9.6371    1.5828 C   0  0  0  0  0  0  0  0  0  0  0  0
   -2.1964   -9.6683    1.6043 C   0  0  0  0  0  0  0  0  0  0  0  0
   -4.8728  -11.1049    1.8248 C   0  0  0  0  0  0  0  0  0  0  0  0
    1.3583   -0.4682    0.0243 C   0  0  0  0  0  0  0  0  0  0  0  0
    2.7238   -1.1260    0.0192 C   0  0  0  0  0  0  0  0  0  0  0  0
   -2.1317   -0.8996   -1.0763 C   0  0  0  0  0  0  0  0  0  0  0  0
   -1.1735   -0.2933   -0.0141 C   0  0  0  0  0  0  0  0  0  0  0  0
   -1.8624   -0.1790    1.3663 C   0  0  0  0  0  0  0  0  0  0  0  0
   -5.5770  -11.2798    3.0424 O   0  0  0  0  0  0  0  0  0  0  0  0
    1.0248   -3.0619    0.4083 H   0  0  0  0  0  0  0  0  0  0  0  0
    2.2845    1.4145    0.5404 H   0  0  0  0  0  0  0  0  0  0  0  0
    1.8472    1.2479   -1.1570 H   0  0  0  0  0  0  0  0  0  0  0  0
   -0.7194    1.1236   -1.6246 H   0  0  0  0  0  0  0  0  0  0  0  0
   -1.8315    1.7598   -0.4249 H   0  0  0  0  0  0  0  0  0  0  0  0
   -1.9929   -2.8733    0.6803 H   0  0  0  0  0  0  0  0  0  0  0  0
    0.3506    2.8542   -0.2438 H   0  0  0  0  0  0  0  0  0  0  0  0
    0.0670    1.9199    1.2156 H   0  0  0  0  0  0  0  0  0  0  0  0
   -3.1649   -4.8329    0.7801 H   0  0  0  0  0  0  0  0  0  0  0  0
    0.8615   -5.3232   -0.0201 H   0  0  0  0  0  0  0  0  0  0  0  0
    0.8676   -5.0297    1.7454 H   0  0  0  0  0  0  0  0  0  0  0  0
    0.2512   -6.5227    1.0884 H   0  0  0  0  0  0  0  0  0  0  0  0
   -1.4611   -7.3613    1.2077 H   0  0  0  0  0  0  0  0  0  0  0  0
   -4.4830   -7.0151    1.1228 H   0  0  0  0  0  0  0  0  0  0  0  0
   -5.6416   -9.0943    1.4799 H   0  0  0  0  0  0  0  0  0  0  0  0
   -1.6151   -9.5599    0.6821 H   0  0  0  0  0  0  0  0  0  0  0  0
   -1.6315   -9.2543    2.4468 H   0  0  0  0  0  0  0  0  0  0  0  0
   -2.2587  -10.7393    1.7902 H   0  0  0  0  0  0  0  0  0  0  0  0
   -5.4454  -11.5561    1.0103 H   0  0  0  0  0  0  0  0  0  0  0  0
   -3.9427  -11.6672    1.9038 H   0  0  0  0  0  0  0  0  0  0  0  0
    3.2213   -0.9221   -0.9361 H   0  0  0  0  0  0  0  0  0  0  0  0
    3.3456   -0.7195    0.8239 H   0  0  0  0  0  0  0  0  0  0  0  0
    2.7236   -2.2079    0.1387 H   0  0  0  0  0  0  0  0  0  0  0  0
   -2.4928   -1.9046   -0.8728 H   0  0  0  0  0  0  0  0  0  0  0  0
   -3.0345   -0.2875   -1.1756 H   0  0  0  0  0  0  0  0  0  0  0  0
   -1.6417   -0.9502   -2.0562 H   0  0  0  0  0  0  0  0  0  0  0  0
   -2.7961    0.3877    1.2955 H   0  0  0  0  0  0  0  0  0  0  0  0
   -2.1143   -1.1455    1.8073 H   0  0  0  0  0  0  0  0  0  0  0  0
   -1.2186    0.3253    2.0962 H   0  0  0  0  0  0  0  0  0  0  0  0
   -5.0231  -10.8841    3.7377 H   0  0  0  0  0  0  0  0  0  0  0  0
  1 16  2  0  0  0  0
  1 19  1  0  0  0  0
  1  2  1  0  0  0  0
  2  5  2  0  0  0  0
  2 22  1  0  0  0  0
  3  6  1  0  0  0  0
  3 23  1  0  0  0  0
  3 24  1  0  0  0  0
  4  6  1  0  0  0  0
  4 25  1  0  0  0  0
  4 26  1  0  0  0  0
  5  7  1  0  0  0  0
  5 27  1  0  0  0  0
  6 28  1  0  0  0  0
  6 29  1  0  0  0  0
  7  8  2  0  0  0  0
  7  9  1  0  0  0  0
  8 10  1  0  0  0  0
  8 30  1  0  0  0  0
  9 31  1  0  0  0  0
  9 32  1  0  0  0  0
  9 33  1  0  0  0  0
 10 11  2  0  0  0  0
 10 34  1  0  0  0  0
 11 12  1  0  0  0  0
 11 35  1  0  0  0  0
 12 13  2  0  0  0  0
 12 14  1  0  0  0  0
 13 15  1  0  0  0  0
 13 36  1  0  0  0  0
 14 37  1  0  0  0  0
 14 38  1  0  0  0  0
 14 39  1  0  0  0  0
 15 21  1  0  0  0  0
 15 40  1  0  0  0  0
 15 41  1  0  0  0  0
 16  3  1  0  0  0  0
 16 17  1  0  0  0  0
 17 42  1  0  0  0  0
 17 43  1  0  0  0  0
 17 44  1  0  0  0  0
 18 45  1  0  0  0  0
 18 46  1  0  0  0  0
 18 47  1  0  0  0  0
 19  4  1  0  0  0  0
 19 18  1  0  0  0  0
 19 20  1  0  0  0  0
 20 48  1  0  0  0  0
 20 49  1  0  0  0  0
 20 50  1  0  0  0  0
 21 51  1  0  0  0  0
M  END
>  <DRUGBANK_ID>
DB00162

>  <SECONDARY_ACCESSION_NUMBERS>
NUTR00007; APRD00486

>  <COMMON_NAME>
Vitamin A

>  <CAS_NUMBER>
68-26-8

>  <UNII>
G2SH0XKK91

>  <SYNONYMS>
(2E,4E,6E,8E)-3,7-dimethyl-9-(2,6,6-trimethylcyclohex-1-en-1-yl)nona-2,4,6,8-tetraen-1-ol; all-trans-retinol; all-trans-retinyl alcohol; all-trans-vitamin A alcohol; Retinol; Retinolum; Vitamin A1

$$$$
