
 OpenBabel10282417123D

 29 29  0  0  1  0  0  0  0  0999 V2000
    0.2311    0.0406   -0.0842 C   0  0  0  0  0  0  0  0  0  0  0  0
    0.0028    1.1201    0.9721 C   0  0  0  0  0  0  0  0  0  0  0  0
   -0.6990    2.0763    0.6607 O   0  0  0  0  0  0  0  0  0  0  0  0
    0.6716    1.0765    2.4163 C   0  0  1  0  0  0  0  0  0  0  0  0
    0.2347   -0.1627    3.0927 N   0  0  0  0  0  0  0  0  0  0  0  0
    2.1870    1.3385    2.7073 C   0  0  0  0  0  0  0  0  0  0  0  0
    2.7739    2.4406    2.0285 O   0  0  0  0  0  0  0  0  0  0  0  0
    2.7511    2.3369    0.6106 C   0  0  0  0  0  0  0  0  0  0  0  0
    3.4251    1.0866    0.0627 C   0  0  0  0  0  0  0  0  0  0  0  0
    4.4040    1.2020   -0.9096 C   0  0  0  0  0  0  0  0  0  0  0  0
    4.9090    0.0485   -1.5235 C   0  0  0  0  0  0  0  0  0  0  0  0
    4.3747   -1.2189   -1.2655 C   0  0  0  0  0  0  0  0  0  0  0  0
    3.4245   -1.3634   -0.2890 C   0  0  0  0  0  0  0  0  0  0  0  0
    3.0381   -0.2324    0.4053 C   0  0  0  0  0  0  0  0  0  0  0  0
   -0.4704    0.1171   -0.9189 H   0  0  0  0  0  0  0  0  0  0  0  0
    0.2045   -0.9729    0.3206 H   0  0  0  0  0  0  0  0  0  0  0  0
    1.1533    0.2405   -0.6112 H   0  0  0  0  0  0  0  0  0  0  0  0
    0.1790    1.9152    2.9266 H   0  0  0  0  0  0  0  0  0  0  0  0
    0.4971   -0.1024    4.0789 H   0  0  0  0  0  0  0  0  0  0  0  0
   -0.7866   -0.1799    3.0903 H   0  0  0  0  0  0  0  0  0  0  0  0
    2.3161    1.5380    3.7796 H   0  0  0  0  0  0  0  0  0  0  0  0
    2.8427    0.4666    2.6263 H   0  0  0  0  0  0  0  0  0  0  0  0
    1.7250    2.4353    0.2545 H   0  0  0  0  0  0  0  0  0  0  0  0
    3.2056    3.2511    0.2079 H   0  0  0  0  0  0  0  0  0  0  0  0
    4.7755    2.1828   -1.1952 H   0  0  0  0  0  0  0  0  0  0  0  0
    5.7285    0.1398   -2.2249 H   0  0  0  0  0  0  0  0  0  0  0  0
    4.7004   -2.0966   -1.8095 H   0  0  0  0  0  0  0  0  0  0  0  0
    2.9419   -2.3115   -0.0617 H   0  0  0  0  0  0  0  0  0  0  0  0
    2.2797   -0.4621    1.1409 H   0  0  0  0  0  0  0  0  0  0  0  0
  1  2  1  0  0  0  0
  1 15  1  0  0  0  0
  1 16  1  0  0  0  0
  1 17  1  0  0  0  0
  2  3  2  0  0  0  0
  2  4  1  0  0  0  0
  4  5  1  0  0  0  0
  4  6  1  0  0  0  0
  4 18  1  1  0  0  0
  5 19  1  0  0  0  0
  5 20  1  0  0  0  0
  6  7  1  0  0  0  0
  6 21  1  0  0  0  0
  6 22  1  0  0  0  0
  7  8  1  0  0  0  0
  8  9  1  0  0  0  0
  8 23  1  0  0  0  0
  8 24  1  0  0  0  0
  9 10  2  0  0  0  0
  9 14  1  0  0  0  0
 10 11  1  0  0  0  0
 10 25  1  0  0  0  0
 11 12  2  0  0  0  0
 11 26  1  0  0  0  0
 12 13  1  0  0  0  0
 12 27  1  0  0  0  0
 13 14  2  0  0  0  0
 13 28  1  0  0  0  0
 14 29  1  0  0  0  0
M  END
>  <DRUGBANK_ID>
DB02148

>  <SECONDARY_ACCESSION_NUMBERS>
EXPT02881

>  <COMMON_NAME>
3-Amino-4-Oxybenzyl-2-Butanone

$$$$
