
 OpenBabel10282417133D

 55 55  0  0  1  0  0  0  0  0999 V2000
    0.9349    0.0180   -0.1289 C   0  0  0  0  0  0  0  0  0  0  0  0
   -1.1005   -6.3999    4.2174 C   0  0  0  0  0  0  0  0  0  0  0  0
    2.2253   -3.9312    3.9404 C   0  0  0  0  0  0  0  0  0  0  0  0
    1.2342   -3.8459    2.8494 C   0  0  0  0  0  0  0  0  0  0  0  0
    2.0698   -2.9798    5.1920 C   0  0  0  0  0  0  0  0  0  0  0  0
    1.2011   -2.4731    2.3826 C   0  0  0  0  0  0  0  0  0  0  0  0
    1.1879   -3.2941    6.4222 C   0  0  0  0  0  0  0  0  0  0  0  0
   -1.2167   -2.7137    4.4221 C   0  0  0  0  0  0  0  0  0  0  0  0
   -1.6503   -2.8477    0.6244 C   0  0  0  0  0  0  0  0  0  0  0  0
   -0.7352   -0.8210    2.7264 C   0  0  0  0  0  0  0  0  0  0  0  0
    0.6011   -1.4706    0.0674 C   0  0  1  0  0  0  0  0  0  0  0  0
   -1.5505   -4.9730    3.8725 C   0  0  0  0  0  0  0  0  0  0  0  0
   -1.3102   -2.2708    3.0942 C   0  0  0  0  0  0  0  0  0  0  0  0
   -1.6946   -3.2277    2.1095 C   0  0  0  0  0  0  0  0  0  0  0  0
    1.6769   -1.8686    1.1672 C   0  0  0  0  0  0  0  0  0  0  0  0
    1.3076   -4.6940    6.9517 C   0  0  0  0  0  0  0  0  0  0  0  0
   -1.7671   -4.6008    2.5219 C   0  0  0  0  0  0  0  0  0  0  0  0
   -1.3731   -4.0103    4.8320 N   0  0  0  0  0  0  0  0  0  0  0  0
   -0.9080   -1.6418    0.2293 N   0  0  0  0  0  0  0  0  0  0  0  0
    2.8703   -1.5828    1.1427 O   0  0  0  0  0  0  0  0  0  0  0  0
    1.4176   -5.0075    8.0950 O   0  0  0  0  0  0  0  0  0  0  0  0
    1.1547   -5.6117    5.9769 O   0  0  0  0  0  0  0  0  0  0  0  0
   -1.7401   -5.6208    1.6029 O   0  0  0  0  0  0  0  0  0  0  0  0
   -3.0939   -0.2664    5.0113 O   0  0  0  0  0  0  0  0  0  0  0  0
   -3.3274    0.9040    2.8446 O   0  0  0  0  0  0  0  0  0  0  0  0
   -4.4476   -1.1053    3.2792 O   0  0  0  0  0  0  0  0  0  0  0  0
   -1.3666   -0.0213    3.5616 O   0  0  0  0  0  0  0  0  0  0  0  0
   -2.9924   -0.5933    3.4126 P   0  0  0  0  0  0  0  0  0  0  0  0
    0.8746   -2.0874   -0.7824 H   0  0  0  0  0  0  0  0  0  0  0  0
    0.5774    0.6565    0.6929 H   0  0  0  0  0  0  0  0  0  0  0  0
    0.5435    0.4005   -1.0679 H   0  0  0  0  0  0  0  0  0  0  0  0
    2.0218    0.1636   -0.1315 H   0  0  0  0  0  0  0  0  0  0  0  0
   -0.0065   -6.5287    4.2667 H   0  0  0  0  0  0  0  0  0  0  0  0
   -1.5070   -6.6956    5.1871 H   0  0  0  0  0  0  0  0  0  0  0  0
   -1.4093   -7.1366    3.4704 H   0  0  0  0  0  0  0  0  0  0  0  0
    2.2210   -4.9764    4.2104 H   0  0  0  0  0  0  0  0  0  0  0  0
    3.1477   -3.6794    3.4249 H   0  0  0  0  0  0  0  0  0  0  0  0
    0.3553   -4.0219    3.4044 H   0  0  0  0  0  0  0  0  0  0  0  0
    1.1643   -4.5607    2.0280 H   0  0  0  0  0  0  0  0  0  0  0  0
    3.0879   -2.9540    5.5795 H   0  0  0  0  0  0  0  0  0  0  0  0
    1.8790   -1.9281    4.9328 H   0  0  0  0  0  0  0  0  0  0  0  0
    1.2339   -1.7935    3.2217 H   0  0  0  0  0  0  0  0  0  0  0  0
    0.2619   -2.5169    1.9421 H   0  0  0  0  0  0  0  0  0  0  0  0
    1.4699   -2.5863    7.2127 H   0  0  0  0  0  0  0  0  0  0  0  0
    0.1195   -3.1167    6.3699 H   0  0  0  0  0  0  0  0  0  0  0  0
   -0.7883   -2.0139    5.1476 H   0  0  0  0  0  0  0  0  0  0  0  0
   -2.7106   -2.7357    0.3462 H   0  0  0  0  0  0  0  0  0  0  0  0
   -1.2361   -3.6567    0.0308 H   0  0  0  0  0  0  0  0  0  0  0  0
    0.2719   -0.4644    2.9275 H   0  0  0  0  0  0  0  0  0  0  0  0
   -1.0202   -0.3273    1.8172 H   0  0  0  0  0  0  0  0  0  0  0  0
   -1.4915   -0.8030    0.2241 H   0  0  0  0  0  0  0  0  0  0  0  0
    1.1374   -6.4886    6.3970 H   0  0  0  0  0  0  0  0  0  0  0  0
   -1.8792   -5.2987    0.7026 H   0  0  0  0  0  0  0  0  0  0  0  0
   -3.1084   -1.0998    5.5167 H   0  0  0  0  0  0  0  0  0  0  0  0
   -2.5441    1.3624    2.5022 H   0  0  0  0  0  0  0  0  0  0  0  0
  1 30  1  0  0  0  0
  1 31  1  0  0  0  0
  1 32  1  0  0  0  0
  2 33  1  0  0  0  0
  2 34  1  0  0  0  0
  2 35  1  0  0  0  0
  3 36  1  0  0  0  0
  3 37  1  0  0  0  0
  4  3  1  0  0  0  0
  4 38  1  0  0  0  0
  4 39  1  0  0  0  0
  5  3  1  0  0  0  0
  5 40  1  0  0  0  0
  5 41  1  0  0  0  0
  6  4  1  0  0  0  0
  6 42  1  0  0  0  0
  6 43  1  0  0  0  0
  7  5  1  0  0  0  0
  7 44  1  0  0  0  0
  7 45  1  0  0  0  0
  8 46  1  0  0  0  0
  9 47  1  0  0  0  0
  9 48  1  0  0  0  0
 10 49  1  0  0  0  0
 10 50  1  0  0  0  0
 11  1  1  0  0  0  0
 11 29  1  6  0  0  0
 12  2  1  0  0  0  0
 13  8  1  0  0  0  0
 13 10  1  0  0  0  0
 14  9  1  0  0  0  0
 14 13  2  0  0  0  0
 15  6  1  0  0  0  0
 15 11  1  0  0  0  0
 16  7  1  0  0  0  0
 17 12  2  0  0  0  0
 17 14  1  0  0  0  0
 18  8  2  0  0  0  0
 18 12  1  0  0  0  0
 19  9  1  0  0  0  0
 19 11  1  0  0  0  0
 19 51  1  0  0  0  0
 20 15  2  0  0  0  0
 21 16  2  0  0  0  0
 22 16  1  0  0  0  0
 22 52  1  0  0  0  0
 23 17  1  0  0  0  0
 23 53  1  0  0  0  0
 24 54  1  0  0  0  0
 25 55  1  0  0  0  0
 27 10  1  0  0  0  0
 28 24  1  0  0  0  0
 28 25  1  0  0  0  0
 28 26  2  0  0  0  0
 28 27  1  0  0  0  0
M  END
>  <DRUGBANK_ID>
DB03160

>  <SECONDARY_ACCESSION_NUMBERS>
EXPT01960

>  <COMMON_NAME>
N-Pyridoxyl-7-Keto-8-Aminopelargonic Acid-5'-Monophosphate

$$$$
