
 OpenBabel10282417123D

 22 22  0  0  1  0  0  0  0  0999 V2000
    1.0244   -0.0413   -0.0641 C   0  0  0  0  0  0  0  0  0  0  0  0
   -0.7185   -3.1185    1.5540 C   0  0  0  0  0  0  0  0  0  0  0  0
    0.3674   -1.4184    0.0324 C   0  0  2  0  0  0  0  0  0  0  0  0
   -0.1153   -1.7199    1.4672 C   0  0  2  0  0  0  0  0  0  0  0  0
    0.2503   -4.1562    0.9923 C   0  0  2  0  0  0  0  0  0  0  0  0
    0.6907   -3.7492   -0.4342 C   0  0  1  0  0  0  0  0  0  0  0  0
    0.9298   -1.5758    2.4294 O   0  0  0  0  0  0  0  0  0  0  0  0
   -0.3513   -5.4478    1.0708 O   0  0  0  0  0  0  0  0  0  0  0  0
   -0.3674   -3.8719   -1.3782 O   0  0  0  0  0  0  0  0  0  0  0  0
    1.2582   -2.4354   -0.4555 O   0  0  0  0  0  0  0  0  0  0  0  0
   -0.5032   -1.3957   -0.6330 H   0  0  0  0  0  0  0  0  0  0  0  0
   -0.8793   -0.9846    1.7396 H   0  0  0  0  0  0  0  0  0  0  0  0
    1.1414   -4.1901    1.6281 H   0  0  0  0  0  0  0  0  0  0  0  0
    1.4601   -4.4509   -0.7760 H   0  0  0  0  0  0  0  0  0  0  0  0
    0.6652    0.6281    0.7255 H   0  0  0  0  0  0  0  0  0  0  0  0
    0.7456    0.4311   -1.0140 H   0  0  0  0  0  0  0  0  0  0  0  0
    2.1165   -0.0839   -0.0327 H   0  0  0  0  0  0  0  0  0  0  0  0
   -0.9766   -3.3713    2.5880 H   0  0  0  0  0  0  0  0  0  0  0  0
   -1.6588   -3.1498    0.9887 H   0  0  0  0  0  0  0  0  0  0  0  0
    1.5680   -2.3029    2.3368 H   0  0  0  0  0  0  0  0  0  0  0  0
   -0.6912   -5.6870    0.1902 H   0  0  0  0  0  0  0  0  0  0  0  0
   -1.1133   -3.3273   -1.0734 H   0  0  0  0  0  0  0  0  0  0  0  0
  1 15  1  0  0  0  0
  1 16  1  0  0  0  0
  1 17  1  0  0  0  0
  2 18  1  0  0  0  0
  2 19  1  0  0  0  0
  3  1  1  0  0  0  0
  3 11  1  6  0  0  0
  4  2  1  0  0  0  0
  4  3  1  0  0  0  0
  4 12  1  1  0  0  0
  4  7  1  0  0  0  0
  5  2  1  0  0  0  0
  5 13  1  1  0  0  0
  5  8  1  0  0  0  0
  6  5  1  0  0  0  0
  6  9  1  0  0  0  0
  6 14  1  6  0  0  0
  7 20  1  0  0  0  0
  8 21  1  0  0  0  0
  9 22  1  0  0  0  0
 10  3  1  0  0  0  0
 10  6  1  0  0  0  0
M  END
>  <DRUGBANK_ID>
DB02590

>  <SECONDARY_ACCESSION_NUMBERS>
EXPT00394

>  <COMMON_NAME>
Abequose

>  <CAS_NUMBER>
56816-60-5

>  <UNII>
2PVB5DNX65

>  <SYNONYMS>
3,6-dideoxy-α-D-xylo-hexopyranose; alpha-abequopyranose; α-abequopyranose

$$$$
