
 OpenBabel10282417233D

 54 57  0  0  0  0  0  0  0  0999 V2000
   -4.9095   -0.7606   -0.2737 C   0  0  1  0  0  0  0  0  0  0  0  0
   -4.7698   -0.2539   -1.7550 C   0  0  2  0  0  0  0  0  0  0  0  0
   -3.8007   -1.7352    0.1887 C   0  0  2  0  0  0  0  0  0  0  0  0
   -6.2388   -1.4596    0.1622 C   0  0  0  0  0  0  0  0  0  0  0  0
   -6.1158    0.5331   -2.2230 C   0  0  1  0  0  0  0  0  0  0  0  0
   -3.2846    0.3038   -1.6891 C   0  0  0  0  0  0  0  0  0  0  0  0
   -2.2961   -1.9965   -0.0968 C   0  0  0  0  0  0  0  0  0  0  0  0
   -3.7776   -1.5161    1.8223 C   0  0  0  0  0  0  0  0  0  0  0  0
   -4.1572   -2.9080   -0.8373 C   0  0  0  0  0  0  0  0  0  0  0  0
   -7.3518   -0.5398   -0.1234 C   0  0  0  0  0  0  0  0  0  0  0  0
   -7.3607   -0.1851   -1.6156 C   0  0  2  0  0  0  0  0  0  0  0  0
   -6.7578    1.2222   -3.6749 C   0  0  0  0  0  0  0  0  0  0  0  0
   -2.0578   -0.8682   -1.2265 C   0  0  0  0  0  0  0  0  0  0  0  0
   -1.5507   -3.1480    0.4351 C   0  0  0  0  0  0  0  0  0  0  0  0
   -2.6649   -2.3007    2.4162 C   0  0  0  0  0  0  0  0  0  0  0  0
   -8.4826    0.8075   -1.8684 C   0  0  2  0  0  0  0  0  0  0  0  0
   -7.4804   -1.5024   -2.4595 C   0  0  0  0  0  0  0  0  0  0  0  0
   -8.3058    1.0455   -3.3721 C   0  0  0  0  0  0  0  0  0  0  0  0
   -2.7324   -3.3823    1.4177 C   0  0  0  0  0  0  0  0  0  0  0  0
   -1.1172   -4.7186    1.5534 Cl  0  0  0  0  0  0  0  0  0  0  0  0
   -8.4479    1.9605   -0.9187 O   0  0  0  0  0  0  0  0  0  0  0  0
   -3.6682   -4.1992    1.2466 O   0  0  0  0  0  0  0  0  0  0  0  0
   -7.3690    2.4124   -0.2224 C   0  0  0  0  0  0  0  0  0  0  0  0
   -6.3901    3.1852   -1.0048 C   0  0  0  0  0  0  0  0  0  0  0  0
   -7.2307    2.3123    1.0491 O   0  0  0  0  0  0  0  0  0  0  0  0
   -4.8620    0.1559    0.3576 H   0  0  0  0  0  0  0  0  0  0  0  0
   -4.7279   -1.0082   -2.5210 H   0  0  0  0  0  0  0  0  0  0  0  0
   -5.7863    1.4114   -1.7661 H   0  0  0  0  0  0  0  0  0  0  0  0
   -6.6516   -2.4761    0.0567 H   0  0  0  0  0  0  0  0  0  0  0  0
   -6.0351   -1.6411    1.1991 H   0  0  0  0  0  0  0  0  0  0  0  0
   -3.0924    0.7161   -2.6859 H   0  0  0  0  0  0  0  0  0  0  0  0
   -3.1657    1.1768   -1.0179 H   0  0  0  0  0  0  0  0  0  0  0  0
   -4.6752   -1.8114    2.3641 H   0  0  0  0  0  0  0  0  0  0  0  0
   -3.5857   -0.4599    2.0888 H   0  0  0  0  0  0  0  0  0  0  0  0
   -4.3698   -2.5347   -1.8353 H   0  0  0  0  0  0  0  0  0  0  0  0
   -3.3375   -3.5614   -1.1686 H   0  0  0  0  0  0  0  0  0  0  0  0
   -5.0082   -3.4954   -0.5398 H   0  0  0  0  0  0  0  0  0  0  0  0
   -8.3225   -0.9497    0.1725 H   0  0  0  0  0  0  0  0  0  0  0  0
   -7.1660    0.2485    0.5888 H   0  0  0  0  0  0  0  0  0  0  0  0
   -7.1998    2.2376   -3.9191 H   0  0  0  0  0  0  0  0  0  0  0  0
   -5.9509    1.9755   -3.7793 H   0  0  0  0  0  0  0  0  0  0  0  0
   -1.8849   -1.4112   -2.1567 H   0  0  0  0  0  0  0  0  0  0  0  0
   -1.1716   -0.2870   -0.9373 H   0  0  0  0  0  0  0  0  0  0  0  0
   -2.6411   -2.6298    3.4469 H   0  0  0  0  0  0  0  0  0  0  0  0
   -1.7380   -1.7166    2.2737 H   0  0  0  0  0  0  0  0  0  0  0  0
   -9.4861    0.3847   -1.7250 H   0  0  0  0  0  0  0  0  0  0  0  0
   -8.3837   -2.0675   -2.2266 H   0  0  0  0  0  0  0  0  0  0  0  0
   -7.4429   -1.3408   -3.5429 H   0  0  0  0  0  0  0  0  0  0  0  0
   -6.6197   -2.1529   -2.2929 H   0  0  0  0  0  0  0  0  0  0  0  0
   -9.0685    1.7253   -3.7988 H   0  0  0  0  0  0  0  0  0  0  0  0
   -8.5678    0.1533   -3.9575 H   0  0  0  0  0  0  0  0  0  0  0  0
   -6.4673    4.2475   -0.8572 H   0  0  0  0  0  0  0  0  0  0  0  0
   -5.3610    2.8467   -0.7850 H   0  0  0  0  0  0  0  0  0  0  0  0
   -6.6438    3.0284   -2.0472 H   0  0  0  0  0  0  0  0  0  0  0  0
  1  2  1  0  0  0  0
  1  3  1  0  0  0  0
  1  4  1  0  0  0  0
  1 26  1  6  0  0  0
  2  5  1  0  0  0  0
  2  6  1  0  0  0  0
  2 27  1  1  0  0  0
  3  7  1  0  0  0  0
  3  8  1  0  0  0  0
  3  9  1  1  0  0  0
  4 10  1  0  0  0  0
  4 29  1  0  0  0  0
  4 30  1  0  0  0  0
  5 11  1  0  0  0  0
  5 12  1  0  0  0  0
  5 28  1  6  0  0  0
  6 13  1  0  0  0  0
  6 31  1  0  0  0  0
  6 32  1  0  0  0  0
  7 14  2  0  0  0  0
  7 13  1  0  0  0  0
  8 15  1  0  0  0  0
  8 33  1  0  0  0  0
  8 34  1  0  0  0  0
  9 35  1  0  0  0  0
  9 36  1  0  0  0  0
  9 37  1  0  0  0  0
 10 11  1  0  0  0  0
 10 38  1  0  0  0  0
 10 39  1  0  0  0  0
 11 16  1  0  0  0  0
 11 17  1  1  0  0  0
 12 18  1  0  0  0  0
 12 40  1  0  0  0  0
 12 41  1  0  0  0  0
 13 42  1  0  0  0  0
 13 43  1  0  0  0  0
 14 19  1  0  0  0  0
 14 20  1  0  0  0  0
 15 19  1  0  0  0  0
 15 44  1  0  0  0  0
 15 45  1  0  0  0  0
 16 18  1  0  0  0  0
 16 46  1  1  0  0  0
 16 21  1  0  0  0  0
 17 47  1  0  0  0  0
 17 48  1  0  0  0  0
 17 49  1  0  0  0  0
 18 50  1  0  0  0  0
 18 51  1  0  0  0  0
 19 22  2  0  0  0  0
 21 23  1  0  0  0  0
 23 24  1  0  0  0  0
 23 25  2  0  0  0  0
 24 52  1  0  0  0  0
 24 53  1  0  0  0  0
 24 54  1  0  0  0  0
M  END
>  <DRUGBANK_ID>
DB15984

>  <COMMON_NAME>
Clostebol acetate

>  <CAS_NUMBER>
855-19-6

>  <UNII>
780ZZX4P14

>  <SYNONYMS>
4-Chlorotestosterone acetate; Chlorotestosterone acetate; Clostebol acetate

$$$$
