
 OpenBabel10282417183D

 35 36  0  0  0  0  0  0  0  0999 V2000
    5.4545   -1.6160    0.3283 C   0  0  0  0  0  0  0  0  0  0  0  0
    4.3746   -0.7611    0.2397 O   0  0  0  0  0  0  0  0  0  0  0  0
    3.0920   -1.3491   -0.2034 C   0  0  1  0  0  0  0  0  0  0  0  0
    3.3192   -2.6983   -0.9258 C   0  0  2  0  0  0  0  0  0  0  0  0
    4.1343   -2.6187   -2.0960 O   0  0  0  0  0  0  0  0  0  0  0  0
    6.5674   -1.4611   -0.5253 C   0  0  0  0  0  0  0  0  0  0  0  0
    2.1015   -1.4947    0.8557 O   0  0  0  0  0  0  0  0  0  0  0  0
    0.8621   -2.0663    0.3397 C   0  0  1  0  0  0  0  0  0  0  0  0
    2.1188   -3.5555   -1.2313 C   0  0  2  0  0  0  0  0  0  0  0  0
    1.1017   -3.5123   -0.1053 C   0  0  2  0  0  0  0  0  0  0  0  0
    2.5617   -4.9242   -1.3798 O   0  0  0  0  0  0  0  0  0  0  0  0
    5.4238   -2.7117    1.1956 C   0  0  0  0  0  0  0  0  0  0  0  0
   -0.1053   -4.1416   -0.5378 O   0  0  0  0  0  0  0  0  0  0  0  0
    7.6133   -2.3915   -0.4821 C   0  0  0  0  0  0  0  0  0  0  0  0
    6.4005   -3.6961    1.1490 C   0  0  0  0  0  0  0  0  0  0  0  0
    7.5334   -3.5017    0.3522 C   0  0  0  0  0  0  0  0  0  0  0  0
    8.5673   -4.3775    0.3957 O   0  0  0  0  0  0  0  0  0  0  0  0
   -0.2747   -2.0733    1.3809 C   0  0  0  0  0  0  0  0  0  0  0  0
   -0.6795   -0.7479    1.7014 O   0  0  0  0  0  0  0  0  0  0  0  0
    2.6880   -0.5908   -0.8887 H   0  0  0  0  0  0  0  0  0  0  0  0
    3.8334   -3.3341   -0.2199 H   0  0  0  0  0  0  0  0  0  0  0  0
    4.2912   -1.6871   -2.3196 H   0  0  0  0  0  0  0  0  0  0  0  0
    6.6096   -0.6583   -1.2559 H   0  0  0  0  0  0  0  0  0  0  0  0
    0.5277   -1.4451   -0.5012 H   0  0  0  0  0  0  0  0  0  0  0  0
    1.6837   -3.2784   -2.1956 H   0  0  0  0  0  0  0  0  0  0  0  0
    1.4777   -4.0942    0.7479 H   0  0  0  0  0  0  0  0  0  0  0  0
    3.1690   -5.1285   -0.6421 H   0  0  0  0  0  0  0  0  0  0  0  0
    4.5443   -2.8686    1.8247 H   0  0  0  0  0  0  0  0  0  0  0  0
   -0.2317   -3.9496   -1.4845 H   0  0  0  0  0  0  0  0  0  0  0  0
    8.4961   -2.2715   -1.1157 H   0  0  0  0  0  0  0  0  0  0  0  0
    6.2702   -4.6154    1.7082 H   0  0  0  0  0  0  0  0  0  0  0  0
    8.4122   -5.0017    1.1315 H   0  0  0  0  0  0  0  0  0  0  0  0
   -1.1609   -2.5808    0.9794 H   0  0  0  0  0  0  0  0  0  0  0  0
    0.0166   -2.5850    2.3036 H   0  0  0  0  0  0  0  0  0  0  0  0
    0.0955   -0.3138    2.0967 H   0  0  0  0  0  0  0  0  0  0  0  0
  1 12  1  0  0  0  0
  1  6  2  0  0  0  0
  2  1  1  0  0  0  0
  3  7  1  0  0  0  0
  3  4  1  0  0  0  0
  3 20  1  6  0  0  0
  3  2  1  0  0  0  0
  4  9  1  0  0  0  0
  4  5  1  0  0  0  0
  4 21  1  1  0  0  0
  5 22  1  0  0  0  0
  6 14  1  0  0  0  0
  6 23  1  0  0  0  0
  7  8  1  0  0  0  0
  8 10  1  0  0  0  0
  8 18  1  0  0  0  0
  8 24  1  6  0  0  0
  9 11  1  0  0  0  0
  9 10  1  0  0  0  0
  9 25  1  6  0  0  0
 10 13  1  0  0  0  0
 10 26  1  1  0  0  0
 11 27  1  0  0  0  0
 12 15  2  0  0  0  0
 12 28  1  0  0  0  0
 13 29  1  0  0  0  0
 14 16  2  0  0  0  0
 14 30  1  0  0  0  0
 15 16  1  0  0  0  0
 15 31  1  0  0  0  0
 16 17  1  0  0  0  0
 17 32  1  0  0  0  0
 18 19  1  0  0  0  0
 18 33  1  0  0  0  0
 18 34  1  0  0  0  0
 19 35  1  0  0  0  0
M  END
>  <DRUGBANK_ID>
DB11217

>  <COMMON_NAME>
Arbutin

>  <CAS_NUMBER>
497-76-7

>  <UNII>
C5INA23HXF

>  <SYNONYMS>
4-Hydroxyphenyl-beta-D-glucopyranoside; beta-Arbutin; hydroquinone O-β-D-glucopyranoside; Hydroquinone-O-beta-D-glucopyranoside; p-hydroxyphenyl β-D-glucopyranoside; p-hydroxyphenyl β-D-glucoside

$$$$
