
 OpenBabel10282417103D

194199  0  0  0  0  0  0  0  0999 V2000
    6.6147  -14.4685    2.6890 C   0  0  0  0  0  0  0  0  0  0  0  0
    5.2732  -14.9205    2.5963 C   0  0  0  0  0  0  0  0  0  0  0  0
    7.4211  -15.0078    3.6925 C   0  0  0  0  0  0  0  0  0  0  0  0
    4.7717  -15.8865    3.4693 C   0  0  0  0  0  0  0  0  0  0  0  0
    6.9051  -15.9521    4.5844 C   0  0  0  0  0  0  0  0  0  0  0  0
    5.5868  -16.3922    4.4721 C   0  0  0  0  0  0  0  0  0  0  0  0
    7.0963  -13.4765    1.8064 C   0  0  0  0  0  0  0  0  0  0  0  0
    6.2451  -12.9027    0.8679 C   0  0  0  0  0  0  0  0  0  0  0  0
    4.4384  -14.3675    1.6504 C   0  0  0  0  0  0  0  0  0  0  0  0
    4.9365  -13.3614    0.8452 C   0  0  0  0  0  0  0  0  0  0  0  0
    5.8552  -11.5356   -1.3177 C   0  0  2  0  0  0  0  0  0  0  0  0
    4.7102  -10.6286   -1.0666 N   0  0  0  0  0  0  0  0  0  0  0  0
    6.6343  -11.7094    0.0212 C   0  0  0  0  0  0  0  0  0  0  0  0
    8.0254  -11.2503   -2.5673 N   0  0  0  0  0  0  0  0  0  0  0  0
    6.6774  -10.9574   -2.5097 C   0  0  0  0  0  0  0  0  0  0  0  0
    8.8722  -10.6929   -3.6309 C   0  0  1  0  0  0  0  0  0  0  0  0
    9.3172   -9.3103   -3.2058 C   0  0  0  0  0  0  0  0  0  0  0  0
    9.7845   -9.1554   -2.0800 O   0  0  0  0  0  0  0  0  0  0  0  0
   10.1405  -11.5616   -3.8469 C   0  0  0  0  0  0  0  0  0  0  0  0
   11.2794  -11.4055   -2.8375 C   0  0  0  0  0  0  0  0  0  0  0  0
    9.3127   -8.2887   -4.1191 N   0  0  0  0  0  0  0  0  0  0  0  0
   12.0136  -10.2015   -2.7588 C   0  0  0  0  0  0  0  0  0  0  0  0
   11.5717  -12.4093   -1.9116 C   0  0  0  0  0  0  0  0  0  0  0  0
   12.5104  -12.1777   -0.8964 C   0  0  0  0  0  0  0  0  0  0  0  0
   12.8441   -9.9228   -1.6742 C   0  0  0  0  0  0  0  0  0  0  0  0
   13.1097  -10.9249   -0.7574 C   0  0  0  0  0  0  0  0  0  0  0  0
    9.7804   -6.9754   -3.6462 C   0  0  2  0  0  0  0  0  0  0  0  0
    8.6212   -6.2995   -2.9176 C   0  0  0  0  0  0  0  0  0  0  0  0
   10.5396   -6.2123   -4.8573 C   0  0  0  0  0  0  0  0  0  0  0  0
   10.1191   -4.9869   -5.3835 N   0  0  0  0  0  0  0  0  0  0  0  0
    7.5805   -7.0506   -1.8565 C   0  0  0  0  0  0  0  0  0  0  0  0
    8.1436   -7.6703   -0.8166 C   0  0  0  0  0  0  0  0  0  0  0  0
    6.0923   -6.9873   -1.6222 C   0  0  0  0  0  0  0  0  0  0  0  0
    5.2619   -7.3737   -0.6615 N   0  0  0  0  0  0  0  0  0  0  0  0
    7.3104   -8.1936    0.1734 C   0  0  0  0  0  0  0  0  0  0  0  0
    5.9442   -7.9192    0.2891 C   0  0  0  0  0  0  0  0  0  0  0  0
   10.8616   -4.2497   -6.4537 C   0  0  2  0  0  0  0  0  0  0  0  0
   10.3817   -2.7690   -6.8278 C   0  0  0  0  0  0  0  0  0  0  0  0
   10.6185   -2.2911   -7.9400 O   0  0  0  0  0  0  0  0  0  0  0  0
    9.7653   -1.9603   -5.9060 N   0  0  0  0  0  0  0  0  0  0  0  0
    9.1155   -0.6233   -6.2965 C   0  0  1  0  0  0  0  0  0  0  0  0
    8.1502   -0.5836   -7.7150 C   0  0  0  0  0  0  0  0  0  0  0  0
    8.4411   -0.0725   -4.9421 C   0  0  0  0  0  0  0  0  0  0  0  0
    8.9839   -0.2877   -3.6912 N   0  0  0  0  0  0  0  0  0  0  0  0
    7.2814    0.6088   -7.9678 C   0  0  0  0  0  0  0  0  0  0  0  0
    6.1334  -10.3635   -3.4463 O   0  0  0  0  0  0  0  0  0  0  0  0
   14.2045  -10.6224    0.5330 Cl  0  0  0  0  0  0  0  0  0  0  0  0
   11.5265   -6.7659   -5.3542 O   0  0  0  0  0  0  0  0  0  0  0  0
   10.8808   -5.0400   -7.7944 C   0  0  0  0  0  0  0  0  0  0  0  0
   11.7156   -4.4358   -8.7820 O   0  0  0  0  0  0  0  0  0  0  0  0
    7.4048    0.5802   -4.9369 O   0  0  0  0  0  0  0  0  0  0  0  0
    5.6391    2.3062   -7.3864 C   0  0  0  0  0  0  0  0  0  0  0  0
    5.8615    2.8446   -8.6347 C   0  0  0  0  0  0  0  0  0  0  0  0
    6.2692    1.1141   -7.1186 C   0  0  0  0  0  0  0  0  0  0  0  0
    6.6059    2.1720   -9.6012 C   0  0  0  0  0  0  0  0  0  0  0  0
    7.2955    1.0314   -9.2737 C   0  0  0  0  0  0  0  0  0  0  0  0
    5.3297    4.0454   -8.9734 O   0  0  0  0  0  0  0  0  0  0  0  0
    8.3529    0.3656   -2.5042 C   0  0  1  0  0  0  0  0  0  0  0  0
    7.6929   -0.3970   -1.3972 C   0  0  0  0  0  0  0  0  0  0  0  0
    6.5406   -0.7359   -1.6636 O   0  0  0  0  0  0  0  0  0  0  0  0
    8.3340   -0.6636   -0.2272 N   0  0  0  0  0  0  0  0  0  0  0  0
    7.9450   -1.6967    0.7687 C   0  0  1  0  0  0  0  0  0  0  0  0
    7.8824   -1.0524    2.1771 C   0  0  0  0  0  0  0  0  0  0  0  0
    6.6943   -2.6724    0.5971 C   0  0  0  0  0  0  0  0  0  0  0  0
    5.9694   -2.6159   -0.5607 N   0  0  0  0  0  0  0  0  0  0  0  0
    5.3009   -3.7711   -1.1108 C   0  0  2  0  0  0  0  0  0  0  0  0
    6.4814   -4.5905   -1.6838 C   0  0  0  0  0  0  0  0  0  0  0  0
    7.4453   -4.7875   -0.9305 O   0  0  0  0  0  0  0  0  0  0  0  0
    6.3072   -5.0707   -3.1739 N   0  0  0  0  0  0  0  0  0  0  0  0
    7.8793   -2.6164   -2.7577 O   0  0  0  0  0  0  0  0  0  0  0  0
    7.0667   -2.8817   -3.6406 C   0  0  0  0  0  0  0  0  0  0  0  0
    7.7151   -2.0625    3.3324 C   0  0  0  0  0  0  0  0  0  0  0  0
    9.1608    1.5010   -1.9668 C   0  0  0  0  0  0  0  0  0  0  0  0
    9.2818    2.5550   -3.0492 C   0  0  0  0  0  0  0  0  0  0  0  0
    7.9364    3.1449   -3.4793 C   0  0  0  0  0  0  0  0  0  0  0  0
    7.2909    3.8281   -2.3868 N   0  0  0  0  0  0  0  0  0  0  0  0
    6.9729    5.1329   -2.3098 C   0  0  0  0  0  0  0  0  0  0  0  0
    6.4199    5.5914   -1.3194 O   0  0  0  0  0  0  0  0  0  0  0  0
    7.3044    5.9029   -3.3610 N   0  0  0  0  0  0  0  0  0  0  0  0
    6.4029   -3.5329    1.4272 O   0  0  0  0  0  0  0  0  0  0  0  0
    4.3186   -3.4461   -2.2178 C   0  0  0  0  0  0  0  0  0  0  0  0
    3.3434   -4.5706   -2.5220 C   0  0  0  0  0  0  0  0  0  0  0  0
    2.5567   -4.9153   -1.2902 C   0  0  0  0  0  0  0  0  0  0  0  0
    1.7321   -3.7779   -0.9848 N   0  0  0  0  0  0  0  0  0  0  0  0
    0.3954   -3.7187   -1.0581 C   0  0  0  0  0  0  0  0  0  0  0  0
   -0.2721   -2.6456   -0.8307 N   0  0  0  0  0  0  0  0  0  0  0  0
   -0.2408   -4.8366   -1.4309 N   0  0  0  0  0  0  0  0  0  0  0  0
    6.9914   -4.3009   -4.1269 C   0  0  2  0  0  0  0  0  0  0  0  0
    6.0405   -6.6048   -3.9837 C   0  0  0  0  0  0  0  0  0  0  0  0
    6.3821   -4.9435   -5.3916 C   0  0  0  0  0  0  0  0  0  0  0  0
    6.3414   -6.4100   -5.4100 C   0  0  0  0  0  0  0  0  0  0  0  0
    6.1865   -2.0091   -4.1862 N   0  0  0  0  0  0  0  0  0  0  0  0
    5.7925   -2.2608   -5.5322 C   0  0  1  0  0  0  0  0  0  0  0  0
    4.5122   -1.8060   -6.1550 C   0  0  0  0  0  0  0  0  0  0  0  0
    6.9782   -2.3377   -6.3404 C   0  0  0  0  0  0  0  0  0  0  0  0
    4.4046   -1.2304   -7.1732 O   0  0  0  0  0  0  0  0  0  0  0  0
    3.4885   -2.4567   -5.4912 N   0  0  0  0  0  0  0  0  0  0  0  0
    8.8813   -3.0480    3.3961 C   0  0  0  0  0  0  0  0  0  0  0  0
    7.4895   -1.3760    4.6656 C   0  0  0  0  0  0  0  0  0  0  0  0
    3.3666  -10.8236   -1.0590 C   0  0  0  0  0  0  0  0  0  0  0  0
    2.6369   -9.9280   -0.6326 O   0  0  0  0  0  0  0  0  0  0  0  0
    2.7899  -12.1102   -1.5877 C   0  0  0  0  0  0  0  0  0  0  0  0
    8.4521  -14.6826    3.7982 H   0  0  0  0  0  0  0  0  0  0  0  0
    3.7446  -16.2353    3.3819 H   0  0  0  0  0  0  0  0  0  0  0  0
    7.5376  -16.3447    5.3741 H   0  0  0  0  0  0  0  0  0  0  0  0
    5.1893  -17.1253    5.1673 H   0  0  0  0  0  0  0  0  0  0  0  0
    8.1208  -13.1222    1.8928 H   0  0  0  0  0  0  0  0  0  0  0  0
    3.3922  -14.6477    1.5582 H   0  0  0  0  0  0  0  0  0  0  0  0
    4.2451  -12.8616    0.2183 H   0  0  0  0  0  0  0  0  0  0  0  0
    5.4618  -12.4910   -1.6850 H   0  0  0  0  0  0  0  0  0  0  0  0
    4.9432   -9.6818   -0.7890 H   0  0  0  0  0  0  0  0  0  0  0  0
    6.4203  -10.8378    0.6487 H   0  0  0  0  0  0  0  0  0  0  0  0
    7.7177  -11.7199   -0.0983 H   0  0  0  0  0  0  0  0  0  0  0  0
    8.5314  -11.5139   -1.7326 H   0  0  0  0  0  0  0  0  0  0  0  0
    8.2800  -10.6310   -4.5479 H   0  0  0  0  0  0  0  0  0  0  0  0
    9.8191  -12.6102   -3.8599 H   0  0  0  0  0  0  0  0  0  0  0  0
   10.5496  -11.3383   -4.8368 H   0  0  0  0  0  0  0  0  0  0  0  0
    8.6293   -8.3403   -4.8671 H   0  0  0  0  0  0  0  0  0  0  0  0
   11.8274   -9.3857   -3.4565 H   0  0  0  0  0  0  0  0  0  0  0  0
   11.0784  -13.3761   -1.9684 H   0  0  0  0  0  0  0  0  0  0  0  0
   12.7608  -12.9748   -0.2033 H   0  0  0  0  0  0  0  0  0  0  0  0
   13.2419   -8.9186   -1.5482 H   0  0  0  0  0  0  0  0  0  0  0  0
   10.5599   -7.0843   -2.8893 H   0  0  0  0  0  0  0  0  0  0  0  0
    8.9713   -5.3142   -2.5598 H   0  0  0  0  0  0  0  0  0  0  0  0
    8.1372   -6.1284   -3.8541 H   0  0  0  0  0  0  0  0  0  0  0  0
    9.1620   -4.7332   -5.3429 H   0  0  0  0  0  0  0  0  0  0  0  0
    9.2174   -7.7089   -0.7676 H   0  0  0  0  0  0  0  0  0  0  0  0
    5.3418   -6.3880   -2.1239 H   0  0  0  0  0  0  0  0  0  0  0  0
    7.7568   -8.8424    0.8892 H   0  0  0  0  0  0  0  0  0  0  0  0
    5.3155   -8.1676    1.1222 H   0  0  0  0  0  0  0  0  0  0  0  0
   11.8884   -4.1519   -6.0865 H   0  0  0  0  0  0  0  0  0  0  0  0
    9.5066   -2.3721   -5.0137 H   0  0  0  0  0  0  0  0  0  0  0  0
    9.9267    0.0608   -6.5467 H   0  0  0  0  0  0  0  0  0  0  0  0
    8.6826   -1.0611   -8.5467 H   0  0  0  0  0  0  0  0  0  0  0  0
    7.2688   -1.2023   -7.9203 H   0  0  0  0  0  0  0  0  0  0  0  0
    9.7748   -0.8957   -3.5513 H   0  0  0  0  0  0  0  0  0  0  0  0
   11.2574   -6.0555   -7.6574 H   0  0  0  0  0  0  0  0  0  0  0  0
    9.8699   -5.1266   -8.2119 H   0  0  0  0  0  0  0  0  0  0  0  0
   11.3938   -3.5152   -8.9114 H   0  0  0  0  0  0  0  0  0  0  0  0
    4.9976    2.7489   -6.6279 H   0  0  0  0  0  0  0  0  0  0  0  0
    5.8912    0.6028   -6.2351 H   0  0  0  0  0  0  0  0  0  0  0  0
    6.6854    2.5378  -10.6116 H   0  0  0  0  0  0  0  0  0  0  0  0
    7.8247    0.4371  -10.0134 H   0  0  0  0  0  0  0  0  0  0  0  0
    4.8579    4.3716   -8.1913 H   0  0  0  0  0  0  0  0  0  0  0  0
    7.4176    0.8180   -2.8545 H   0  0  0  0  0  0  0  0  0  0  0  0
    9.0858   -0.0449    0.0589 H   0  0  0  0  0  0  0  0  0  0  0  0
    8.8313   -2.3500    0.7379 H   0  0  0  0  0  0  0  0  0  0  0  0
    8.7870   -0.4544    2.3664 H   0  0  0  0  0  0  0  0  0  0  0  0
    7.0457   -0.3433    2.1807 H   0  0  0  0  0  0  0  0  0  0  0  0
    6.4566   -2.1089   -1.2807 H   0  0  0  0  0  0  0  0  0  0  0  0
    4.8423   -4.2469   -0.2464 H   0  0  0  0  0  0  0  0  0  0  0  0
    6.7892   -2.6212    3.2157 H   0  0  0  0  0  0  0  0  0  0  0  0
    8.6687    1.9178   -1.0778 H   0  0  0  0  0  0  0  0  0  0  0  0
   10.1336    1.1129   -1.6572 H   0  0  0  0  0  0  0  0  0  0  0  0
    9.9410    3.3372   -2.6737 H   0  0  0  0  0  0  0  0  0  0  0  0
    9.7668    2.1151   -3.9277 H   0  0  0  0  0  0  0  0  0  0  0  0
    8.1226    3.7854   -4.3370 H   0  0  0  0  0  0  0  0  0  0  0  0
    7.1893    2.4392   -3.8333 H   0  0  0  0  0  0  0  0  0  0  0  0
    6.9465    3.2904   -1.5982 H   0  0  0  0  0  0  0  0  0  0  0  0
    7.7046    5.5539   -4.2136 H   0  0  0  0  0  0  0  0  0  0  0  0
    7.0617    6.8790   -3.3217 H   0  0  0  0  0  0  0  0  0  0  0  0
    3.8251   -2.4869   -2.0587 H   0  0  0  0  0  0  0  0  0  0  0  0
    4.8275   -3.3150   -3.1472 H   0  0  0  0  0  0  0  0  0  0  0  0
    2.6982   -4.2681   -3.3522 H   0  0  0  0  0  0  0  0  0  0  0  0
    3.8151   -5.4743   -2.8999 H   0  0  0  0  0  0  0  0  0  0  0  0
    2.0207   -5.8378   -1.5007 H   0  0  0  0  0  0  0  0  0  0  0  0
    3.1781   -5.1575   -0.4280 H   0  0  0  0  0  0  0  0  0  0  0  0
    2.2262   -2.9177   -0.7689 H   0  0  0  0  0  0  0  0  0  0  0  0
    0.3694   -1.8840   -0.6043 H   0  0  0  0  0  0  0  0  0  0  0  0
    0.2019   -5.7397   -1.4107 H   0  0  0  0  0  0  0  0  0  0  0  0
   -1.2369   -4.8358   -1.2760 H   0  0  0  0  0  0  0  0  0  0  0  0
    8.0575   -4.4078   -4.1667 H   0  0  0  0  0  0  0  0  0  0  0  0
    5.0273   -6.9763   -3.8244 H   0  0  0  0  0  0  0  0  0  0  0  0
    6.7076   -7.4489   -3.7546 H   0  0  0  0  0  0  0  0  0  0  0  0
    5.2911   -4.7773   -5.3524 H   0  0  0  0  0  0  0  0  0  0  0  0
    6.8890   -4.6642   -6.3023 H   0  0  0  0  0  0  0  0  0  0  0  0
    5.5252   -6.8237   -6.0060 H   0  0  0  0  0  0  0  0  0  0  0  0
    7.2860   -6.8356   -5.7507 H   0  0  0  0  0  0  0  0  0  0  0  0
    6.2993   -1.0459   -3.8664 H   0  0  0  0  0  0  0  0  0  0  0  0
    5.5632   -3.2513   -5.7121 H   0  0  0  0  0  0  0  0  0  0  0  0
    7.8360   -2.8537   -5.9319 H   0  0  0  0  0  0  0  0  0  0  0  0
    6.8481   -2.7609   -7.3373 H   0  0  0  0  0  0  0  0  0  0  0  0
    7.0948   -1.2951   -6.2164 H   0  0  0  0  0  0  0  0  0  0  0  0
    3.6815   -3.1572   -4.7918 H   0  0  0  0  0  0  0  0  0  0  0  0
    2.5700   -2.3733   -5.8799 H   0  0  0  0  0  0  0  0  0  0  0  0
    9.8131   -2.5259    3.6316 H   0  0  0  0  0  0  0  0  0  0  0  0
    8.7026   -3.8103    4.1599 H   0  0  0  0  0  0  0  0  0  0  0  0
    9.0260   -3.5838    2.4522 H   0  0  0  0  0  0  0  0  0  0  0  0
    6.6116   -0.7234    4.6041 H   0  0  0  0  0  0  0  0  0  0  0  0
    7.2815   -2.1319    5.4316 H   0  0  0  0  0  0  0  0  0  0  0  0
    8.3576   -0.7893    4.9659 H   0  0  0  0  0  0  0  0  0  0  0  0
    3.1694  -12.2961   -2.5904 H   0  0  0  0  0  0  0  0  0  0  0  0
    2.9878  -12.9872   -0.9825 H   0  0  0  0  0  0  0  0  0  0  0  0
    1.7011  -12.0327   -1.5893 H   0  0  0  0  0  0  0  0  0  0  0  0
  2  1  1  0  0  0  0
  3  1  2  0  0  0  0
  3103  1  0  0  0  0
  4  2  2  0  0  0  0
  4104  1  0  0  0  0
  5  3  1  0  0  0  0
  5105  1  0  0  0  0
  6  4  1  0  0  0  0
  6  5  2  0  0  0  0
  6106  1  0  0  0  0
  7  1  1  0  0  0  0
  7107  1  0  0  0  0
  8  7  2  0  0  0  0
  9  2  1  0  0  0  0
  9108  1  0  0  0  0
 10  8  1  0  0  0  0
 10  9  2  0  0  0  0
 10109  1  0  0  0  0
 11 12  1  0  0  0  0
 11110  1  6  0  0  0
 11 15  1  0  0  0  0
 11 13  1  0  0  0  0
 12111  1  0  0  0  0
 13  8  1  0  0  0  0
 13112  1  0  0  0  0
 13113  1  0  0  0  0
 14114  1  0  0  0  0
 15 14  1  0  0  0  0
 16115  1  6  0  0  0
 16 19  1  0  0  0  0
 16 14  1  0  0  0  0
 17 16  1  0  0  0  0
 18 17  2  0  0  0  0
 19116  1  0  0  0  0
 19117  1  0  0  0  0
 20 19  1  0  0  0  0
 21 17  1  0  0  0  0
 21118  1  0  0  0  0
 22 20  1  0  0  0  0
 22119  1  0  0  0  0
 23 20  2  0  0  0  0
 23120  1  0  0  0  0
 24 23  1  0  0  0  0
 24121  1  0  0  0  0
 25 22  2  0  0  0  0
 25122  1  0  0  0  0
 26 24  2  0  0  0  0
 26 25  1  0  0  0  0
 27 21  1  0  0  0  0
 27 28  1  0  0  0  0
 27123  1  1  0  0  0
 28124  1  0  0  0  0
 28125  1  0  0  0  0
 29 27  1  0  0  0  0
 30 29  1  0  0  0  0
 30126  1  0  0  0  0
 31 28  1  0  0  0  0
 32 31  1  0  0  0  0
 32127  1  0  0  0  0
 33 31  2  0  0  0  0
 33128  1  0  0  0  0
 34 33  1  0  0  0  0
 35 32  2  0  0  0  0
 35129  1  0  0  0  0
 36 34  2  0  0  0  0
 36 35  1  0  0  0  0
 36130  1  0  0  0  0
 37 49  1  0  0  0  0
 37131  1  1  0  0  0
 37 38  1  0  0  0  0
 37 30  1  0  0  0  0
 39 38  2  0  0  0  0
 40 38  1  0  0  0  0
 40132  1  0  0  0  0
 41 42  1  0  0  0  0
 41133  1  6  0  0  0
 41 43  1  0  0  0  0
 41 40  1  0  0  0  0
 42134  1  0  0  0  0
 42135  1  0  0  0  0
 44 43  1  0  0  0  0
 44136  1  0  0  0  0
 45 42  1  0  0  0  0
 46 15  2  0  0  0  0
 47 26  1  0  0  0  0
 48 29  2  0  0  0  0
 49137  1  0  0  0  0
 49138  1  0  0  0  0
 50 49  1  0  0  0  0
 50139  1  0  0  0  0
 51 43  2  0  0  0  0
 52140  1  0  0  0  0
 53 52  1  0  0  0  0
 54 45  1  0  0  0  0
 54 52  2  0  0  0  0
 54141  1  0  0  0  0
 55 53  2  0  0  0  0
 55142  1  0  0  0  0
 56 45  2  0  0  0  0
 56 55  1  0  0  0  0
 56143  1  0  0  0  0
 57 53  1  0  0  0  0
 57144  1  0  0  0  0
 58 44  1  0  0  0  0
 58 73  1  0  0  0  0
 58145  1  6  0  0  0
 59 58  1  0  0  0  0
 60 59  2  0  0  0  0
 61 59  1  0  0  0  0
 61146  1  0  0  0  0
 62 63  1  0  0  0  0
 62147  1  1  0  0  0
 62 64  1  0  0  0  0
 62 61  1  0  0  0  0
 63148  1  0  0  0  0
 63149  1  0  0  0  0
 65 64  1  0  0  0  0
 65150  1  0  0  0  0
 66 81  1  0  0  0  0
 66151  1  1  0  0  0
 66 67  1  0  0  0  0
 66 65  1  0  0  0  0
 68 67  2  0  0  0  0
 69 67  1  0  0  0  0
 71 70  2  0  0  0  0
 72 63  1  0  0  0  0
 72 99  1  0  0  0  0
 72152  1  0  0  0  0
 73153  1  0  0  0  0
 73154  1  0  0  0  0
 74 73  1  0  0  0  0
 74155  1  0  0  0  0
 74156  1  0  0  0  0
 75 74  1  0  0  0  0
 75157  1  0  0  0  0
 75158  1  0  0  0  0
 76 75  1  0  0  0  0
 76159  1  0  0  0  0
 77 76  1  0  0  0  0
 78 77  2  0  0  0  0
 79 77  1  0  0  0  0
 79160  1  0  0  0  0
 79161  1  0  0  0  0
 80 64  2  0  0  0  0
 81162  1  0  0  0  0
 81163  1  0  0  0  0
 82 81  1  0  0  0  0
 82164  1  0  0  0  0
 82165  1  0  0  0  0
 83 82  1  0  0  0  0
 83166  1  0  0  0  0
 83167  1  0  0  0  0
 84 83  1  0  0  0  0
 84168  1  0  0  0  0
 85 84  1  0  0  0  0
 86 85  2  0  0  0  0
 86169  1  0  0  0  0
 87 85  1  0  0  0  0
 87170  1  0  0  0  0
 87171  1  0  0  0  0
 88 69  1  0  0  0  0
 88172  1  1  0  0  0
 88 71  1  0  0  0  0
 89 69  1  0  0  0  0
 89173  1  0  0  0  0
 89174  1  0  0  0  0
 90 88  1  0  0  0  0
 90175  1  0  0  0  0
 90176  1  0  0  0  0
 91 89  1  0  0  0  0
 91 90  1  0  0  0  0
 91177  1  0  0  0  0
 91178  1  0  0  0  0
 92 71  1  0  0  0  0
 92179  1  0  0  0  0
 93 92  1  0  0  0  0
 93 95  1  0  0  0  0
 93180  1  1  0  0  0
 94 93  1  0  0  0  0
 95181  1  0  0  0  0
 95182  1  0  0  0  0
 95183  1  0  0  0  0
 96 94  2  0  0  0  0
 97 94  1  0  0  0  0
 97184  1  0  0  0  0
 97185  1  0  0  0  0
 98 72  1  0  0  0  0
 98186  1  0  0  0  0
 98187  1  0  0  0  0
 98188  1  0  0  0  0
 99189  1  0  0  0  0
 99190  1  0  0  0  0
 99191  1  0  0  0  0
100 12  1  0  0  0  0
101100  2  0  0  0  0
102100  1  0  0  0  0
102192  1  0  0  0  0
102193  1  0  0  0  0
102194  1  0  0  0  0
M  END
>  <DRUGBANK_ID>
DB00050

>  <SECONDARY_ACCESSION_NUMBERS>
BTD00115; APRD00686; BIOD00115

>  <COMMON_NAME>
Cetrorelix

>  <CAS_NUMBER>
120287-85-6

>  <UNII>
OON1HFZ4BA

>  <SYNONYMS>
Cetrorelix; Cetrorelixum

$$$$
