
 OpenBabel10282417153D

 41 43  0  0  0  0  0  0  0  0999 V2000
    0.2439    6.9627    0.4853 N   0  0  0  0  0  0  0  0  0  0  0  0
    0.9869    7.4582   -0.4916 N   0  0  0  0  0  0  0  0  0  0  0  0
    0.2178    5.6472    0.2590 N   0  0  0  0  0  0  0  0  0  0  0  0
    1.0388    5.3253   -0.7881 C   0  0  0  0  0  0  0  0  0  0  0  0
    1.4892    6.4554   -1.2885 N   0  0  0  0  0  0  0  0  0  0  0  0
    5.5867    3.3987    2.3401 N   0  0  0  0  0  0  0  0  0  0  0  0
    4.9937    4.7512    2.1972 C   0  0  2  0  0  0  0  0  0  0  0  0
    2.8503    3.9162    3.2623 C   0  0  2  0  0  0  0  0  0  0  0  0
    6.0618    5.8325    2.2509 C   0  0  0  0  0  0  0  0  0  0  0  0
    3.9458    4.9919    3.2960 C   0  0  0  0  0  0  0  0  0  0  0  0
    3.4383    2.5093    3.2921 C   0  0  2  0  0  0  0  0  0  0  0  0
    4.5606    2.3576    2.2439 C   0  0  0  0  0  0  0  0  0  0  0  0
    1.9827    4.1597    2.0414 C   0  0  0  0  0  0  0  0  0  0  0  0
    6.3039    6.6560    1.3703 O   0  0  0  0  0  0  0  0  0  0  0  0
    2.2928    1.5043    3.0997 C   0  0  0  0  0  0  0  0  0  0  0  0
    1.3591    3.9383   -1.2198 C   0  0  0  0  0  0  0  0  0  0  0  0
    6.7503    5.8576    3.4088 O   0  0  0  0  0  0  0  0  0  0  0  0
    1.5350    2.9753    1.1566 C   0  0  2  0  0  0  0  0  0  0  0  0
    1.7561    1.5519    1.6847 C   0  0  0  0  0  0  0  0  0  0  0  0
    2.2046    3.1412   -0.2335 C   0  0  0  0  0  0  0  0  0  0  0  0
    3.8695    2.3440    4.2872 H   0  0  0  0  0  0  0  0  0  0  0  0
    4.5585    4.8420    1.1946 H   0  0  0  0  0  0  0  0  0  0  0  0
    0.4474    3.0598    1.0351 H   0  0  0  0  0  0  0  0  0  0  0  0
    2.2087    4.0512    4.1451 H   0  0  0  0  0  0  0  0  0  0  0  0
   -0.2463    5.0477    0.9288 H   0  0  0  0  0  0  0  0  0  0  0  0
    6.0334    3.3492    3.2553 H   0  0  0  0  0  0  0  0  0  0  0  0
    4.4161    4.9928    4.2861 H   0  0  0  0  0  0  0  0  0  0  0  0
    3.4967    5.9881    3.1727 H   0  0  0  0  0  0  0  0  0  0  0  0
    4.1793    2.3745    1.2233 H   0  0  0  0  0  0  0  0  0  0  0  0
    5.0174    1.3685    2.3454 H   0  0  0  0  0  0  0  0  0  0  0  0
    2.4933    4.8865    1.4017 H   0  0  0  0  0  0  0  0  0  0  0  0
    1.1135    4.7150    2.4058 H   0  0  0  0  0  0  0  0  0  0  0  0
    2.6327    0.4863    3.3171 H   0  0  0  0  0  0  0  0  0  0  0  0
    1.4726    1.7192    3.7986 H   0  0  0  0  0  0  0  0  0  0  0  0
    0.4400    3.3802   -1.4190 H   0  0  0  0  0  0  0  0  0  0  0  0
    1.9260    3.9844   -2.1569 H   0  0  0  0  0  0  0  0  0  0  0  0
    7.3728    6.6046    3.2873 H   0  0  0  0  0  0  0  0  0  0  0  0
    2.4474    0.9945    1.0415 H   0  0  0  0  0  0  0  0  0  0  0  0
    0.8150    0.9899    1.6129 H   0  0  0  0  0  0  0  0  0  0  0  0
    2.4262    2.1646   -0.6805 H   0  0  0  0  0  0  0  0  0  0  0  0
    3.1824    3.6306   -0.1394 H   0  0  0  0  0  0  0  0  0  0  0  0
  2  1  2  0  0  0  0
  3  1  1  0  0  0  0
  3 25  1  0  0  0  0
  4  3  1  0  0  0  0
  5  2  1  0  0  0  0
  5  4  2  0  0  0  0
  6 12  1  0  0  0  0
  6  7  1  0  0  0  0
  6 26  1  0  0  0  0
  7 10  1  0  0  0  0
  7  9  1  0  0  0  0
  7 22  1  6  0  0  0
  8 13  1  0  0  0  0
  8 24  1  1  0  0  0
 10  8  1  0  0  0  0
 10 27  1  0  0  0  0
 10 28  1  0  0  0  0
 11 15  1  0  0  0  0
 11 21  1  1  0  0  0
 11  8  1  0  0  0  0
 12 11  1  0  0  0  0
 12 29  1  0  0  0  0
 12 30  1  0  0  0  0
 13 18  1  0  0  0  0
 13 31  1  0  0  0  0
 13 32  1  0  0  0  0
 14  9  2  0  0  0  0
 15 19  1  0  0  0  0
 15 33  1  0  0  0  0
 15 34  1  0  0  0  0
 16  4  1  0  0  0  0
 16 35  1  0  0  0  0
 16 36  1  0  0  0  0
 17  9  1  0  0  0  0
 17 37  1  0  0  0  0
 18 23  1  6  0  0  0
 18 20  1  0  0  0  0
 19 18  1  0  0  0  0
 19 38  1  0  0  0  0
 19 39  1  0  0  0  0
 20 16  1  0  0  0  0
 20 40  1  0  0  0  0
 20 41  1  0  0  0  0
M  END
>  <DRUGBANK_ID>
DB06354

>  <COMMON_NAME>
Tezampanel

>  <CAS_NUMBER>
154652-83-2

>  <UNII>
GA36S2O9C2

>  <SYNONYMS>
Tezampanel; Tezampanel (anhydrous); Tezampanel, anhydrous

$$$$
