
 OpenBabel10282417153D

 43 46  0  0  0  0  0  0  0  0999 V2000
   -2.6643    0.9611   -0.0618 Cl  0  0  0  0  0  0  0  0  0  0  0  0
   -1.1811    0.1004    0.0084 C   0  0  0  0  0  0  0  0  0  0  0  0
   -1.2164   -1.2580    0.2214 C   0  0  0  0  0  0  0  0  0  0  0  0
   -0.0212   -1.9440    0.4197 C   0  0  0  0  0  0  0  0  0  0  0  0
    1.2210   -1.3761    0.1657 C   0  0  0  0  0  0  0  0  0  0  0  0
    1.2553    0.0092   -0.0121 C   0  0  0  0  0  0  0  0  0  0  0  0
    2.7214    0.9165   -0.0675 Cl  0  0  0  0  0  0  0  0  0  0  0  0
    0.0503    0.7477   -0.0434 C   0  0  0  0  0  0  0  0  0  0  0  0
    2.6980   -2.3786    0.0623 S   0  0  0  0  0  0  0  0  0  0  0  0
    3.3030   -2.1245   -1.2369 O   0  0  0  0  0  0  0  0  0  0  0  0
    3.4303   -2.1439    1.2810 O   0  0  0  0  0  0  0  0  0  0  0  0
    2.3770   -4.0531    0.0717 N   0  0  0  0  0  0  0  0  0  0  0  0
    1.1409   -4.7046   -0.1720 C   0  0  0  0  0  0  0  0  0  0  0  0
    0.3032   -4.2871   -1.1888 C   0  0  0  0  0  0  0  0  0  0  0  0
   -1.0705   -4.5777   -1.1411 C   0  0  0  0  0  0  0  0  0  0  0  0
   -1.9602   -3.4510   -2.1233 Cl  0  0  0  0  0  0  0  0  0  0  0  0
   -1.5934   -5.5055   -0.2147 C   0  0  0  0  0  0  0  0  0  0  0  0
   -2.9188   -5.8932   -0.0448 O   0  0  0  0  0  0  0  0  0  0  0  0
   -3.9015   -5.4361   -0.8841 C   0  0  0  0  0  0  0  0  0  0  0  0
   -3.8679   -5.5950   -2.2608 C   0  0  0  0  0  0  0  0  0  0  0  0
   -4.7062   -4.9620   -3.1184 N   0  0  0  0  0  0  0  0  0  0  0  0
   -5.6912   -4.2104   -2.5977 C   0  0  0  0  0  0  0  0  0  0  0  0
   -6.5430   -3.5158   -3.4488 C   0  0  0  0  0  0  0  0  0  0  0  0
   -7.6485   -2.8108   -2.9662 C   0  0  0  0  0  0  0  0  0  0  0  0
   -7.8965   -2.7716   -1.5993 C   0  0  0  0  0  0  0  0  0  0  0  0
   -7.0188   -3.4051   -0.7185 C   0  0  0  0  0  0  0  0  0  0  0  0
   -5.9076   -4.1193   -1.2047 C   0  0  0  0  0  0  0  0  0  0  0  0
   -4.9857   -4.7495   -0.3463 C   0  0  0  0  0  0  0  0  0  0  0  0
   -0.6672   -6.0709    0.6996 C   0  0  0  0  0  0  0  0  0  0  0  0
   -1.1533   -7.2421    1.8846 Cl  0  0  0  0  0  0  0  0  0  0  0  0
    0.6813   -5.6558    0.7385 C   0  0  0  0  0  0  0  0  0  0  0  0
   -2.1600   -1.7983    0.2610 H   0  0  0  0  0  0  0  0  0  0  0  0
   -0.1094   -2.9508    0.7814 H   0  0  0  0  0  0  0  0  0  0  0  0
    0.0687    1.8332   -0.0884 H   0  0  0  0  0  0  0  0  0  0  0  0
    3.2257   -4.6200    0.1184 H   0  0  0  0  0  0  0  0  0  0  0  0
    0.6486   -3.5275   -1.8872 H   0  0  0  0  0  0  0  0  0  0  0  0
   -3.0532   -6.1262   -2.7450 H   0  0  0  0  0  0  0  0  0  0  0  0
   -6.3518   -3.5387   -4.5195 H   0  0  0  0  0  0  0  0  0  0  0  0
   -8.3200   -2.3122   -3.6611 H   0  0  0  0  0  0  0  0  0  0  0  0
   -8.7706   -2.2481   -1.2198 H   0  0  0  0  0  0  0  0  0  0  0  0
   -7.2167   -3.3522    0.3494 H   0  0  0  0  0  0  0  0  0  0  0  0
   -5.0977   -4.6706    0.7318 H   0  0  0  0  0  0  0  0  0  0  0  0
    1.3413   -6.0185    1.5269 H   0  0  0  0  0  0  0  0  0  0  0  0
  1  2  1  0  0  0  0
  2  3  2  0  0  0  0
  2  8  1  0  0  0  0
  3  4  1  0  0  0  0
  3 32  1  0  0  0  0
  4  5  2  0  0  0  0
  4 33  1  0  0  0  0
  5  6  1  0  0  0  0
  5  9  1  0  0  0  0
  6  7  1  0  0  0  0
  6  8  2  0  0  0  0
  8 34  1  0  0  0  0
  9 10  2  0  0  0  0
  9 11  2  0  0  0  0
  9 12  1  0  0  0  0
 12 13  1  0  0  0  0
 12 35  1  0  0  0  0
 13 14  2  0  0  0  0
 13 31  1  0  0  0  0
 14 15  1  0  0  0  0
 14 36  1  0  0  0  0
 15 16  1  0  0  0  0
 15 17  2  0  0  0  0
 17 18  1  0  0  0  0
 17 29  1  0  0  0  0
 18 19  1  0  0  0  0
 19 20  2  0  0  0  0
 19 28  1  0  0  0  0
 20 21  1  0  0  0  0
 20 37  1  0  0  0  0
 21 22  2  0  0  0  0
 22 23  1  0  0  0  0
 22 27  1  0  0  0  0
 23 24  2  0  0  0  0
 23 38  1  0  0  0  0
 24 25  1  0  0  0  0
 24 39  1  0  0  0  0
 25 26  2  0  0  0  0
 25 40  1  0  0  0  0
 26 27  1  0  0  0  0
 26 41  1  0  0  0  0
 27 28  2  0  0  0  0
 28 42  1  0  0  0  0
 29 30  1  0  0  0  0
 29 31  2  0  0  0  0
 31 43  1  0  0  0  0
M  END
>  <DRUGBANK_ID>
DB05490

>  <COMMON_NAME>
AMG-131

>  <CAS_NUMBER>
315224-26-1

>  <UNII>
E7ILQ6U50J

$$$$
