
 OpenBabel10282417163D

 52 51  0  0  0  0  0  0  0  0999 V2000
    0.8372   -0.0727   -0.0348 N   0  3  0  0  0  0  0  0  0  0  0  0
    0.1189   -1.1842    0.6881 C   0  0  0  0  0  0  0  0  0  0  0  0
    0.3445    1.3363    0.4913 C   0  0  0  0  0  0  0  0  0  0  0  0
    0.8287    2.5941   -0.2975 C   0  0  0  0  0  0  0  0  0  0  0  0
   -0.0758    3.1831   -0.9303 O   0  5  0  0  0  0  0  0  0  0  0  0
    2.0863    2.7737   -0.2930 O   0  0  0  0  0  0  0  0  0  0  0  0
    0.4233   -0.1871   -1.4911 C   0  0  0  0  0  0  0  0  0  0  0  0
    2.3780   -0.0704    0.0375 C   0  0  0  0  0  0  0  0  0  0  0  0
    2.9052    0.1397    1.4634 C   0  0  0  0  0  0  0  0  0  0  0  0
    2.5516   -1.0022    2.4098 C   0  0  0  0  0  0  0  0  0  0  0  0
    2.9755   -2.3386    1.7930 C   0  0  0  0  0  0  0  0  0  0  0  0
    4.4976   -2.3645    1.7551 C   0  0  0  0  0  0  0  0  0  0  0  0
    5.0192   -2.2065    3.1851 C   0  0  0  0  0  0  0  0  0  0  0  0
    4.4634   -3.3423    4.0527 C   0  0  0  0  0  0  0  0  0  0  0  0
    4.9459   -4.6795    3.4873 C   0  0  0  0  0  0  0  0  0  0  0  0
    6.4782   -4.7034    3.4709 C   0  0  0  0  0  0  0  0  0  0  0  0
    7.0321   -4.5467    4.8916 C   0  0  0  0  0  0  0  0  0  0  0  0
    6.5316   -5.6670    5.8034 C   0  0  0  0  0  0  0  0  0  0  0  0
    6.9735   -7.0185    5.2667 C   0  0  0  0  0  0  0  0  0  0  0  0
    0.1056   -0.9975    1.7527 H   0  0  0  0  0  0  0  0  0  0  0  0
   -0.9346   -1.1879    0.4056 H   0  0  0  0  0  0  0  0  0  0  0  0
    0.5742   -2.1412    0.4212 H   0  0  0  0  0  0  0  0  0  0  0  0
   -0.7475    1.2831    0.4879 H   0  0  0  0  0  0  0  0  0  0  0  0
    0.6451    1.4125    1.5415 H   0  0  0  0  0  0  0  0  0  0  0  0
    0.8491    0.6331   -2.0671 H   0  0  0  0  0  0  0  0  0  0  0  0
    0.7872   -1.1513   -1.8628 H   0  0  0  0  0  0  0  0  0  0  0  0
   -0.6703   -0.1673   -1.5257 H   0  0  0  0  0  0  0  0  0  0  0  0
    2.7274   -1.0042   -0.4149 H   0  0  0  0  0  0  0  0  0  0  0  0
    2.7734    0.6877   -0.6420 H   0  0  0  0  0  0  0  0  0  0  0  0
    3.9967    0.2455    1.4134 H   0  0  0  0  0  0  0  0  0  0  0  0
    2.5907    1.0883    1.9024 H   0  0  0  0  0  0  0  0  0  0  0  0
    3.0037   -0.8072    3.3822 H   0  0  0  0  0  0  0  0  0  0  0  0
    1.5231   -1.0213    2.7386 H   0  0  0  0  0  0  0  0  0  0  0  0
    2.5355   -3.1728    2.3476 H   0  0  0  0  0  0  0  0  0  0  0  0
    2.6020   -2.5172    0.7841 H   0  0  0  0  0  0  0  0  0  0  0  0
    4.8422   -3.2839    1.2735 H   0  0  0  0  0  0  0  0  0  0  0  0
    4.8993   -1.5744    1.1150 H   0  0  0  0  0  0  0  0  0  0  0  0
    6.1080   -2.1585    3.1777 H   0  0  0  0  0  0  0  0  0  0  0  0
    4.7649   -1.2435    3.6319 H   0  0  0  0  0  0  0  0  0  0  0  0
    4.7607   -3.1930    5.0930 H   0  0  0  0  0  0  0  0  0  0  0  0
    3.3696   -3.3404    4.1119 H   0  0  0  0  0  0  0  0  0  0  0  0
    4.5208   -5.5032    4.0657 H   0  0  0  0  0  0  0  0  0  0  0  0
    4.5634   -4.8595    2.4770 H   0  0  0  0  0  0  0  0  0  0  0  0
    6.8292   -5.6203    2.9940 H   0  0  0  0  0  0  0  0  0  0  0  0
    6.8910   -3.9176    2.8298 H   0  0  0  0  0  0  0  0  0  0  0  0
    8.1251   -4.5355    4.8595 H   0  0  0  0  0  0  0  0  0  0  0  0
    6.7515   -3.5763    5.3206 H   0  0  0  0  0  0  0  0  0  0  0  0
    6.9127   -5.5146    6.8164 H   0  0  0  0  0  0  0  0  0  0  0  0
    5.4390   -5.6462    5.8966 H   0  0  0  0  0  0  0  0  0  0  0  0
    8.0650   -7.0521    5.2049 H   0  0  0  0  0  0  0  0  0  0  0  0
    6.6205   -7.8249    5.9094 H   0  0  0  0  0  0  0  0  0  0  0  0
    6.5745   -7.2160    4.2662 H   0  0  0  0  0  0  0  0  0  0  0  0
  2  1  1  0  0  0  0
  2 20  1  0  0  0  0
  2 21  1  0  0  0  0
  2 22  1  0  0  0  0
  3  1  1  0  0  0  0
  3  4  1  0  0  0  0
  3 23  1  0  0  0  0
  3 24  1  0  0  0  0
  4  5  1  0  0  0  0
  4  6  2  0  0  0  0
  7  1  1  0  0  0  0
  7 25  1  0  0  0  0
  7 26  1  0  0  0  0
  7 27  1  0  0  0  0
  8  1  1  0  0  0  0
  8 28  1  0  0  0  0
  8 29  1  0  0  0  0
  9  8  1  0  0  0  0
  9 30  1  0  0  0  0
  9 31  1  0  0  0  0
 10  9  1  0  0  0  0
 10 32  1  0  0  0  0
 10 33  1  0  0  0  0
 11 10  1  0  0  0  0
 11 34  1  0  0  0  0
 11 35  1  0  0  0  0
 12 11  1  0  0  0  0
 12 36  1  0  0  0  0
 12 37  1  0  0  0  0
 13 12  1  0  0  0  0
 13 38  1  0  0  0  0
 13 39  1  0  0  0  0
 14 13  1  0  0  0  0
 14 40  1  0  0  0  0
 14 41  1  0  0  0  0
 15 14  1  0  0  0  0
 15 42  1  0  0  0  0
 15 43  1  0  0  0  0
 16 15  1  0  0  0  0
 16 44  1  0  0  0  0
 16 45  1  0  0  0  0
 17 16  1  0  0  0  0
 17 46  1  0  0  0  0
 17 47  1  0  0  0  0
 18 17  1  0  0  0  0
 18 48  1  0  0  0  0
 18 49  1  0  0  0  0
 19 18  1  0  0  0  0
 19 50  1  0  0  0  0
 19 51  1  0  0  0  0
 19 52  1  0  0  0  0
M  CHG  2   1   1   5  -1
M  END
>  <DRUGBANK_ID>
DB07631

>  <COMMON_NAME>
Lauryldimethylbetaine

>  <CAS_NUMBER>
683-10-3

>  <UNII>
Y4P927Q133

>  <SYNONYMS>
Dodecylbetaine; Lauryl dimethyl glycine; Lauryl-N-betaine; Laurylbetain

$$$$
