
 OpenBabel10282417123D

 24 24  0  0  0  0  0  0  0  0999 V2000
    1.0668    0.0881   -0.0971 N   0  0  0  0  0  0  0  0  0  0  0  0
    0.6119   -0.0777   -1.4776 C   0  0  0  0  0  0  0  0  0  0  0  0
    1.1211   -1.3804   -2.0323 C   0  0  0  0  0  0  0  0  0  0  0  0
    2.2973   -1.5143   -2.7886 C   0  0  0  0  0  0  0  0  0  0  0  0
    2.7316   -2.7916   -3.2061 C   0  0  0  0  0  0  0  0  0  0  0  0
    2.0581   -3.9173   -2.7326 C   0  0  0  0  0  0  0  0  0  0  0  0
    2.2199   -5.2103   -3.2420 N   0  0  0  0  0  0  0  0  0  0  0  0
    1.4432   -6.3695   -3.0907 C   0  0  0  0  0  0  0  0  0  0  0  0
    1.8710   -7.3826   -3.6499 O   0  0  0  0  0  0  0  0  0  0  0  0
    0.0766   -6.5430   -2.2865 C   0  0  0  0  0  0  0  0  0  0  0  0
   -0.7738   -5.5349   -2.0438 O   0  0  0  0  0  0  0  0  0  0  0  0
   -0.2397   -7.6563   -1.9167 O   0  0  0  0  0  0  0  0  0  0  0  0
    1.1678   -3.7248   -1.7116 C   0  0  0  0  0  0  0  0  0  0  0  0
    0.5018   -2.5298   -1.5779 C   0  0  0  0  0  0  0  0  0  0  0  0
    0.7427   -0.7010    0.4647 H   0  0  0  0  0  0  0  0  0  0  0  0
    2.0841    0.0234   -0.0776 H   0  0  0  0  0  0  0  0  0  0  0  0
   -0.4864   -0.0739   -1.4873 H   0  0  0  0  0  0  0  0  0  0  0  0
    0.9409    0.7642   -2.0895 H   0  0  0  0  0  0  0  0  0  0  0  0
    2.8703   -0.6277   -3.0533 H   0  0  0  0  0  0  0  0  0  0  0  0
    3.6073   -2.8703   -3.8485 H   0  0  0  0  0  0  0  0  0  0  0  0
    2.9769   -5.3662   -3.9040 H   0  0  0  0  0  0  0  0  0  0  0  0
   -0.6175   -4.6631   -2.4379 H   0  0  0  0  0  0  0  0  0  0  0  0
    0.9403   -4.5387   -1.0384 H   0  0  0  0  0  0  0  0  0  0  0  0
   -0.4283   -2.4910   -1.0180 H   0  0  0  0  0  0  0  0  0  0  0  0
  1  2  1  0  0  0  0
  1 15  1  0  0  0  0
  1 16  1  0  0  0  0
  2  3  1  0  0  0  0
  2 17  1  0  0  0  0
  2 18  1  0  0  0  0
  3  4  2  0  0  0  0
  3 14  1  0  0  0  0
  4  5  1  0  0  0  0
  4 19  1  0  0  0  0
  5  6  2  0  0  0  0
  5 20  1  0  0  0  0
  6  7  1  0  0  0  0
  6 13  1  0  0  0  0
  7  8  1  0  0  0  0
  7 21  1  0  0  0  0
  8  9  2  0  0  0  0
  8 10  1  0  0  0  0
 10 11  1  0  0  0  0
 10 12  2  0  0  0  0
 11 22  1  0  0  0  0
 13 14  2  0  0  0  0
 13 23  1  0  0  0  0
 14 24  1  0  0  0  0
M  END
>  <DRUGBANK_ID>
DB02420

>  <SECONDARY_ACCESSION_NUMBERS>
EXPT02051

>  <COMMON_NAME>
[[4-(Aminomethyl)Phenyl]Amino]Oxo-Acetic Acid,

$$$$
