
 OpenBabel10282417233D

114123  0  0  1  0  0  0  0  0999 V2000
    0.9037    0.1126   -0.1517 C   0  0  0  0  0  0  0  0  0  0  0  0
    0.5045   -1.2973   -0.4874 C   0  0  0  0  0  0  0  0  0  0  0  0
    0.9843   -2.3888    0.4460 C   0  0  0  0  0  0  0  0  0  0  0  0
    0.6489   -3.6915    0.1443 C   0  0  0  0  0  0  0  0  0  0  0  0
   -0.0824   -4.4004   -0.9995 C   0  0  0  0  0  0  0  0  0  0  0  0
   -0.0274   -5.9432   -0.4695 N   0  0  0  0  0  0  0  0  0  0  0  0
    0.5542   -5.9036    0.7337 C   0  0  0  0  0  0  0  0  0  0  0  0
    0.6428   -6.9536    1.5134 C   0  0  0  0  0  0  0  0  0  0  0  0
   -0.0044   -8.2204    1.2592 C   0  0  0  0  0  0  0  0  0  0  0  0
    0.5164   -8.5954    0.2692 C   0  0  0  0  0  0  0  0  0  0  0  0
    1.0372   -9.6261    1.8748 C   0  0  0  0  0  0  0  0  0  0  0  0
    2.0451  -10.4793    1.6188 O   0  0  0  0  0  0  0  0  0  0  0  0
    1.3962  -10.4922    0.4305 C   0  0  0  0  0  0  0  0  0  0  0  0
    2.1463  -10.3752   -0.5515 O   0  0  0  0  0  0  0  0  0  0  0  0
   -0.4330   -9.7729    0.7035 C   0  0  1  0  0  0  0  0  0  0  0  0
   -1.4099   -9.8044    1.8387 O   0  0  0  0  0  0  0  0  0  0  0  0
   -0.9695  -10.6934   -0.3999 C   0  0  0  0  0  0  0  0  0  0  0  0
   -2.3698  -10.2627   -0.6084 C   0  0  0  0  0  0  0  0  0  0  0  0
   -0.2989   -7.2751   -0.8407 C   0  0  0  0  0  0  0  0  0  0  0  0
   -0.9650   -7.4533   -1.8631 O   0  0  0  0  0  0  0  0  0  0  0  0
    1.0131   -4.6150    1.0949 C   0  0  0  0  0  0  0  0  0  0  0  0
    1.6365   -4.4637    2.2716 N   0  0  0  0  0  0  0  0  0  0  0  0
    1.9960   -3.2322    2.5623 C   0  0  0  0  0  0  0  0  0  0  0  0
    2.6698   -2.9762    3.7604 C   0  0  0  0  0  0  0  0  0  0  0  0
    3.0854   -1.6797    4.1340 C   0  0  0  0  0  0  0  0  0  0  0  0
    2.8346   -0.6375    3.2832 C   0  0  0  0  0  0  0  0  0  0  0  0
    3.2249    0.7156    3.4995 O   0  0  0  0  0  0  0  0  0  0  0  0
    2.8681    1.8239    2.6579 C   0  0  0  0  0  0  0  0  0  0  0  0
    2.2112    1.8207    1.6249 O   0  0  0  0  0  0  0  0  0  0  0  0
    3.2812    3.0212    3.1421 N   0  0  0  0  0  0  0  0  0  0  0  0
    2.3944    4.1705    3.1271 C   0  0  0  0  0  0  0  0  0  0  0  0
    2.8229    5.2975    2.1964 C   0  0  0  0  0  0  0  0  0  0  0  0
    4.3148    5.4854    2.2577 C   0  0  3  0  0  0  0  0  0  0  0  0
    4.8635    6.7069    1.4908 C   0  0  0  0  0  0  0  0  0  0  0  0
    4.1047    8.0312    2.0610 C   0  0  0  0  0  0  0  0  0  0  0  0
    4.3860    8.1814    3.5809 N   0  0  0  0  0  0  0  0  0  0  0  0
    5.7016    7.6964    3.8209 C   0  0  0  0  0  0  0  0  0  0  0  0
    5.5691    6.5229    4.5264 C   0  0  0  0  0  0  0  0  0  0  0  0
    4.3562    6.6076    5.1777 C   0  0  0  0  0  0  0  0  0  0  0  0
    3.7620    5.6456    5.9514 C   0  0  0  0  0  0  0  0  0  0  0  0
    2.6890    6.0481    6.6697 C   0  0  0  0  0  0  0  0  0  0  0  0
    2.3020    7.3892    6.6312 C   0  0  0  0  0  0  0  0  0  0  0  0
    2.8455    8.3049    5.6951 C   0  0  0  0  0  0  0  0  0  0  0  0
    3.6979    7.7619    4.7371 C   0  0  0  0  0  0  0  0  0  0  0  0
    2.1767    5.1060    7.5338 N   0  0  0  0  0  0  0  0  0  0  0  0
    2.9607    4.3841    8.4143 C   0  0  0  0  0  0  0  0  0  0  0  0
    4.1763    4.3367    8.5263 O   0  0  0  0  0  0  0  0  0  0  0  0
    2.0449    3.7383    9.2314 N   0  0  0  0  0  0  0  0  0  0  0  0
    0.7493    4.0440    8.8638 N   0  0  0  0  0  0  0  0  0  0  0  0
    0.8857    4.8296    7.8293 C   0  0  0  0  0  0  0  0  0  0  0  0
   -0.2184    5.4284    7.0509 C   0  0  0  0  0  0  0  0  0  0  0  0
   -0.3412    5.2377    5.6595 C   0  0  0  0  0  0  0  0  0  0  0  0
   -1.2271    6.0374    4.9039 C   0  0  0  0  0  0  0  0  0  0  0  0
   -1.2065    6.0197    3.3825 C   0  0  0  0  0  0  0  0  0  0  0  0
   -2.5584    5.5855    2.8149 C   0  0  0  0  0  0  0  0  0  0  0  0
   -0.8199    7.3980    2.8286 C   0  0  0  0  0  0  0  0  0  0  0  0
   -2.1152    6.8766    5.5892 C   0  0  0  0  0  0  0  0  0  0  0  0
   -2.9696    7.6526    4.8552 O   0  0  0  0  0  0  0  0  0  0  0  0
   -2.1183    6.9222    6.9770 C   0  0  0  0  0  0  0  0  0  0  0  0
   -1.1090    6.2797    7.6991 C   0  0  0  0  0  0  0  0  0  0  0  0
   -1.0158    6.5758    9.0332 O   0  0  0  0  0  0  0  0  0  0  0  0
    5.2604    4.2800    2.4356 C   0  0  0  0  0  0  0  0  0  0  0  0
    4.6729    3.2296    3.4018 C   0  0  0  0  0  0  0  0  0  0  0  0
    2.1887   -0.9561    2.1231 C   0  0  0  0  0  0  0  0  0  0  0  0
    1.7078   -2.1822    1.6864 C   0  0  0  0  0  0  0  0  0  0  0  0
    0.4786    0.3501    0.8384 H   0  0  0  0  0  0  0  0  0  0  0  0
    0.5491    0.9012   -0.8005 H   0  0  0  0  0  0  0  0  0  0  0  0
    2.0034    0.1654   -0.2163 H   0  0  0  0  0  0  0  0  0  0  0  0
   -0.5885   -1.3202   -0.4801 H   0  0  0  0  0  0  0  0  0  0  0  0
    0.8765   -1.5062   -1.4926 H   0  0  0  0  0  0  0  0  0  0  0  0
    0.4738   -4.2183   -1.9359 H   0  0  0  0  0  0  0  0  0  0  0  0
   -1.0962   -3.9693   -1.0830 H   0  0  0  0  0  0  0  0  0  0  0  0
    1.2330   -6.9423    2.4067 H   0  0  0  0  0  0  0  0  0  0  0  0
    0.3025  -10.6052    2.2188 H   0  0  0  0  0  0  0  0  0  0  0  0
    0.8864   -9.4158    2.9951 H   0  0  0  0  0  0  0  0  0  0  0  0
   -1.1163   -9.1692    2.5486 H   0  0  0  0  0  0  0  0  0  0  0  0
   -0.3615  -10.6776   -1.3231 H   0  0  0  0  0  0  0  0  0  0  0  0
   -0.8679  -11.7288   -0.0070 H   0  0  0  0  0  0  0  0  0  0  0  0
   -2.3653   -9.2239   -0.9369 H   0  0  0  0  0  0  0  0  0  0  0  0
   -2.8654  -10.8950   -1.3294 H   0  0  0  0  0  0  0  0  0  0  0  0
   -2.8992  -10.2959    0.3462 H   0  0  0  0  0  0  0  0  0  0  0  0
    2.8758   -3.8161    4.4190 H   0  0  0  0  0  0  0  0  0  0  0  0
    3.6039   -1.5183    5.0653 H   0  0  0  0  0  0  0  0  0  0  0  0
    2.3762    4.4896    4.1755 H   0  0  0  0  0  0  0  0  0  0  0  0
    1.3637    3.9121    2.8859 H   0  0  0  0  0  0  0  0  0  0  0  0
    2.3055    6.2051    2.5768 H   0  0  0  0  0  0  0  0  0  0  0  0
    2.5802    5.1653    1.1542 H   0  0  0  0  0  0  0  0  0  0  0  0
    4.1707    5.7752    3.2510 H   0  0  0  0  0  0  0  0  0  0  0  0
    5.9590    6.8096    1.6181 H   0  0  0  0  0  0  0  0  0  0  0  0
    4.8583    6.5127    0.4127 H   0  0  0  0  0  0  0  0  0  0  0  0
    4.5254    8.9453    1.5973 H   0  0  0  0  0  0  0  0  0  0  0  0
    3.0235    8.0160    1.8709 H   0  0  0  0  0  0  0  0  0  0  0  0
    6.3331    7.9663    3.0021 H   0  0  0  0  0  0  0  0  0  0  0  0
    5.9312    5.5089    4.4018 H   0  0  0  0  0  0  0  0  0  0  0  0
    4.1776    4.6465    6.0063 H   0  0  0  0  0  0  0  0  0  0  0  0
    1.6310    7.7480    7.4009 H   0  0  0  0  0  0  0  0  0  0  0  0
    2.7175    9.3730    5.8104 H   0  0  0  0  0  0  0  0  0  0  0  0
    2.2934    3.1449   10.0109 H   0  0  0  0  0  0  0  0  0  0  0  0
    0.2526    4.4791    5.1568 H   0  0  0  0  0  0  0  0  0  0  0  0
   -0.4528    5.3030    3.0365 H   0  0  0  0  0  0  0  0  0  0  0  0
   -3.3633    6.2733    3.0875 H   0  0  0  0  0  0  0  0  0  0  0  0
   -2.5329    5.5599    1.7224 H   0  0  0  0  0  0  0  0  0  0  0  0
   -2.8349    4.5968    3.1919 H   0  0  0  0  0  0  0  0  0  0  0  0
    0.1547    7.7155    3.2127 H   0  0  0  0  0  0  0  0  0  0  0  0
   -0.7835    7.3852    1.7356 H   0  0  0  0  0  0  0  0  0  0  0  0
   -1.5414    8.1732    3.1037 H   0  0  0  0  0  0  0  0  0  0  0  0
   -3.5121    8.2487    5.3910 H   0  0  0  0  0  0  0  0  0  0  0  0
   -2.8954    7.4650    7.4983 H   0  0  0  0  0  0  0  0  0  0  0  0
   -0.2722    6.0897    9.4417 H   0  0  0  0  0  0  0  0  0  0  0  0
    5.4780    3.9037    1.4409 H   0  0  0  0  0  0  0  0  0  0  0  0
    6.2573    4.5360    2.8329 H   0  0  0  0  0  0  0  0  0  0  0  0
    5.2489    2.3022    3.3355 H   0  0  0  0  0  0  0  0  0  0  0  0
    4.6999    3.5064    4.4548 H   0  0  0  0  0  0  0  0  0  0  0  0
    2.1147   -0.1267    1.5062 H   0  0  0  0  0  0  0  0  0  0  0  0
  1  2  1  0  0  0  0
  1 66  1  0  0  0  0
  1 67  1  0  0  0  0
  1 68  1  0  0  0  0
  2  3  1  0  0  0  0
  2 69  1  0  0  0  0
  2 70  1  0  0  0  0
  3  4  2  0  0  0  0
  3 65  1  0  0  0  0
  4  5  1  0  0  0  0
  4 21  1  0  0  0  0
  5  6  1  0  0  0  0
  5 71  1  0  0  0  0
  5 72  1  0  0  0  0
  6  7  1  0  0  0  0
  6 19  1  0  0  0  0
  7  8  2  0  0  0  0
  7 21  1  0  0  0  0
  8  9  1  0  0  0  0
  8 73  1  0  0  0  0
  9 10  2  0  0  0  0
 10 11  1  0  0  0  0
 10 19  1  0  0  0  0
 11 12  1  0  0  0  0
 11 74  1  0  0  0  0
 11 75  1  0  0  0  0
 12 13  1  0  0  0  0
 13 14  2  0  0  0  0
 15 13  1  0  0  0  0
 15  9  1  0  0  0  0
 15 16  1  1  0  0  0
 15 17  1  0  0  0  0
 16 76  1  0  0  0  0
 17 18  1  0  0  0  0
 17 77  1  0  0  0  0
 17 78  1  0  0  0  0
 18 79  1  0  0  0  0
 18 80  1  0  0  0  0
 18 81  1  0  0  0  0
 19 20  2  0  0  0  0
 21 22  2  0  0  0  0
 22 23  1  0  0  0  0
 23 24  2  0  0  0  0
 23 65  1  0  0  0  0
 24 25  1  0  0  0  0
 24 82  1  0  0  0  0
 25 26  2  0  0  0  0
 25 83  1  0  0  0  0
 26 27  1  0  0  0  0
 26 64  1  0  0  0  0
 27 28  1  0  0  0  0
 28 29  2  0  0  0  0
 28 30  1  0  0  0  0
 30 31  1  0  0  0  0
 30 63  1  0  0  0  0
 31 32  1  0  0  0  0
 31 84  1  0  0  0  0
 31 85  1  0  0  0  0
 32 33  1  0  0  0  0
 32 86  1  0  0  0  0
 32 87  1  0  0  0  0
 33 34  1  0  0  0  0
 33 62  1  0  0  0  0
 33 88  1  0  0  0  0
 34 35  1  0  0  0  0
 34 89  1  0  0  0  0
 34 90  1  0  0  0  0
 35 36  1  0  0  0  0
 35 91  1  0  0  0  0
 35 92  1  0  0  0  0
 36 37  1  0  0  0  0
 36 44  1  0  0  0  0
 37 38  2  0  0  0  0
 37 93  1  0  0  0  0
 38 39  1  0  0  0  0
 38 94  1  0  0  0  0
 39 40  2  0  0  0  0
 39 44  1  0  0  0  0
 40 41  1  0  0  0  0
 40 95  1  0  0  0  0
 41 42  2  0  0  0  0
 41 45  1  0  0  0  0
 42 43  1  0  0  0  0
 42 96  1  0  0  0  0
 43 44  2  0  0  0  0
 43 97  1  0  0  0  0
 45 46  1  0  0  0  0
 45 50  1  0  0  0  0
 46 47  2  0  0  0  0
 46 48  1  0  0  0  0
 48 49  1  0  0  0  0
 48 98  1  0  0  0  0
 49 50  2  0  0  0  0
 50 51  1  0  0  0  0
 51 52  2  0  0  0  0
 51 60  1  0  0  0  0
 52 53  1  0  0  0  0
 52 99  1  0  0  0  0
 53 54  1  0  0  0  0
 53 57  2  0  0  0  0
 54 55  1  0  0  0  0
 54 56  1  0  0  0  0
 54100  1  0  0  0  0
 55101  1  0  0  0  0
 55102  1  0  0  0  0
 55103  1  0  0  0  0
 56104  1  0  0  0  0
 56105  1  0  0  0  0
 56106  1  0  0  0  0
 57 58  1  0  0  0  0
 57 59  1  0  0  0  0
 58107  1  0  0  0  0
 59 60  2  0  0  0  0
 59108  1  0  0  0  0
 60 61  1  0  0  0  0
 61109  1  0  0  0  0
 62 63  1  0  0  0  0
 62110  1  0  0  0  0
 62111  1  0  0  0  0
 63112  1  0  0  0  0
 63113  1  0  0  0  0
 64 65  2  0  0  0  0
 64114  1  0  0  0  0
M  END
>  <DRUGBANK_ID>
DB16186

>  <COMMON_NAME>
PEN-866

>  <CAS_NUMBER>
1472614-83-7

>  <UNII>
56DL1J49LR

>  <SYNONYMS>
Hsp90-targeted sn-38 conjugate pen-866

$$$$
