
 OpenBabel10282417213D

 47 50  0  0  1  0  0  0  0  0999 V2000
    1.1525   -0.0373   -0.0557 C   0  0  0  0  0  0  0  0  0  0  0  0
   -1.8718    2.2916   -4.3384 C   0  0  0  0  0  0  0  0  0  0  0  0
   -3.9932    4.8833    0.1656 C   0  0  0  0  0  0  0  0  0  0  0  0
   -6.6771    1.8746    1.8011 C   0  0  0  0  0  0  0  0  0  0  0  0
   -3.6529    4.9494   -1.3232 C   0  0  0  0  0  0  0  0  0  0  0  0
   -5.1059    1.5210    1.4032 C   0  0  0  0  0  0  0  0  0  0  0  0
   -0.5363    4.3837   -3.3698 C   0  0  0  0  0  0  0  0  0  0  0  0
    0.6019    3.1231   -3.8946 C   0  0  0  0  0  0  0  0  0  0  0  0
   -2.8758    1.1091   -1.2726 C   0  0  0  0  0  0  0  0  0  0  0  0
   -1.9317    1.0920   -2.2156 C   0  0  0  0  0  0  0  0  0  0  0  0
   -6.3185    3.8427    0.4740 C   0  0  0  0  0  0  0  0  0  0  0  0
    0.8218    0.3314   -1.4636 C   0  0  0  0  0  0  0  0  0  0  0  0
   -4.9853    3.7660    0.3093 C   0  0  0  0  0  0  0  0  0  0  0  0
   -6.9937    2.5030    0.5347 C   0  0  0  0  0  0  0  0  0  0  0  0
   -4.3879    2.4540    0.2192 C   0  0  0  0  0  0  0  0  0  0  0  0
   -3.4963    2.3438   -0.8312 C   0  0  0  0  0  0  0  0  0  0  0  0
   -3.0855    3.6216   -1.8463 C   0  0  2  0  0  0  0  0  0  0  0  0
   -1.5336    3.6344   -2.2170 C   0  0  1  0  0  0  0  0  0  0  0  0
    0.2798    2.3053   -2.6929 C   0  0  1  0  0  0  0  0  0  0  0  0
   -1.2751    2.2649   -2.8229 C   0  0  2  0  0  0  0  0  0  0  0  0
    0.4470   -0.4756   -2.3205 O   0  0  0  0  0  0  0  0  0  0  0  0
   -7.4269    1.8422   -0.4321 O   0  0  0  0  0  0  0  0  0  0  0  0
    1.0210    1.6259   -1.6916 O   0  0  0  0  0  0  0  0  0  0  0  0
   -3.6269    3.4415   -2.7830 H   0  0  0  0  0  0  0  0  0  0  0  0
   -1.0304    3.7914   -1.2431 H   0  0  0  0  0  0  0  0  0  0  0  0
    0.6008    3.1915   -2.1060 H   0  0  0  0  0  0  0  0  0  0  0  0
    0.7583   -1.0406    0.1237 H   0  0  0  0  0  0  0  0  0  0  0  0
    0.6911    0.6305    0.6831 H   0  0  0  0  0  0  0  0  0  0  0  0
    2.2373   -0.0388    0.0562 H   0  0  0  0  0  0  0  0  0  0  0  0
   -1.5950    3.1439   -4.9820 H   0  0  0  0  0  0  0  0  0  0  0  0
   -1.5420    1.4175   -4.9023 H   0  0  0  0  0  0  0  0  0  0  0  0
   -2.9620    2.3488   -4.3569 H   0  0  0  0  0  0  0  0  0  0  0  0
   -4.4142    5.8262    0.5163 H   0  0  0  0  0  0  0  0  0  0  0  0
   -3.0786    4.6904    0.7466 H   0  0  0  0  0  0  0  0  0  0  0  0
   -7.3480    1.0690    2.1452 H   0  0  0  0  0  0  0  0  0  0  0  0
   -6.9822    2.7249    2.4660 H   0  0  0  0  0  0  0  0  0  0  0  0
   -4.5957    5.1329   -1.8631 H   0  0  0  0  0  0  0  0  0  0  0  0
   -2.9976    5.7911   -1.5560 H   0  0  0  0  0  0  0  0  0  0  0  0
   -4.9271    0.4729    1.1234 H   0  0  0  0  0  0  0  0  0  0  0  0
   -4.5986    1.6221    2.3674 H   0  0  0  0  0  0  0  0  0  0  0  0
    0.0603    5.1898   -2.9309 H   0  0  0  0  0  0  0  0  0  0  0  0
   -1.1500    4.8172   -4.1636 H   0  0  0  0  0  0  0  0  0  0  0  0
    0.3228    2.6031   -4.8306 H   0  0  0  0  0  0  0  0  0  0  0  0
    1.6957    3.1805   -3.9359 H   0  0  0  0  0  0  0  0  0  0  0  0
   -3.2184    0.1463   -0.9160 H   0  0  0  0  0  0  0  0  0  0  0  0
   -1.6261    0.1529   -2.6671 H   0  0  0  0  0  0  0  0  0  0  0  0
   -6.7509    4.7143    0.9415 H   0  0  0  0  0  0  0  0  0  0  0  0
  1 27  1  0  0  0  0
  1 28  1  0  0  0  0
  1 29  1  0  0  0  0
  2 30  1  0  0  0  0
  2 31  1  0  0  0  0
  2 32  1  0  0  0  0
  3 33  1  0  0  0  0
  3 34  1  0  0  0  0
  4 35  1  0  0  0  0
  4 36  1  0  0  0  0
  5  3  1  0  0  0  0
  5 37  1  0  0  0  0
  5 38  1  0  0  0  0
  6  4  1  0  0  0  0
  6 39  1  0  0  0  0
  6 40  1  0  0  0  0
  7 41  1  0  0  0  0
  7 42  1  0  0  0  0
  8  7  1  0  0  0  0
  8 43  1  0  0  0  0
  8 44  1  0  0  0  0
  9 45  1  0  0  0  0
 10  9  2  0  0  0  0
 10 46  1  0  0  0  0
 11 47  1  0  0  0  0
 12  1  1  0  0  0  0
 13  3  1  0  0  0  0
 13 11  2  0  0  0  0
 14  4  1  0  0  0  0
 14 11  1  0  0  0  0
 15  6  1  0  0  0  0
 15 13  1  0  0  0  0
 16  9  1  0  0  0  0
 16 15  2  0  0  0  0
 17  5  1  0  0  0  0
 17 16  1  0  0  0  0
 17 24  1  6  0  0  0
 18  7  1  0  0  0  0
 18 17  1  0  0  0  0
 18 25  1  1  0  0  0
 19  8  1  0  0  0  0
 19 23  1  0  0  0  0
 19 26  1  1  0  0  0
 20  2  1  6  0  0  0
 20 10  1  0  0  0  0
 20 18  1  0  0  0  0
 20 19  1  0  0  0  0
 21 12  2  0  0  0  0
 22 14  2  0  0  0  0
 23 12  1  0  0  0  0
M  END
>  <DRUGBANK_ID>
DB14660

>  <SECONDARY_ACCESSION_NUMBERS>
DBSALT001706

>  <COMMON_NAME>
Trenbolone acetate

>  <CAS_NUMBER>
10161-34-9

>  <UNII>
RUD5Y4SV0S

>  <SYNONYMS>
Trenbolone acetate

$$$$
