
 OpenBabel10282417193D

 72 75  0  0  0  0  0  0  0  0999 V2000
    0.9013   -0.0948    0.3281 C   0  0  0  0  0  0  0  0  0  0  0  0
    0.5191    1.3679    0.3207 C   0  0  0  0  0  0  0  0  0  0  0  0
    1.0333    2.2466   -0.8096 C   0  0  0  0  0  0  0  0  0  0  0  0
    0.5948    3.5974   -0.7485 C   0  0  0  0  0  0  0  0  0  0  0  0
    0.9705    4.5576   -1.7024 C   0  0  0  0  0  0  0  0  0  0  0  0
    1.8700    4.1918   -2.6891 C   0  0  0  0  0  0  0  0  0  0  0  0
    2.4034    2.9117   -2.6869 C   0  0  0  0  0  0  0  0  0  0  0  0
    1.9014    1.8841   -1.8620 C   0  0  0  0  0  0  0  0  0  0  0  0
    2.2320    0.4748   -2.3354 C   0  0  0  0  0  0  0  0  0  0  0  0
    1.5574   -0.0137   -3.5471 N   0  0  0  0  0  0  0  0  0  0  0  0
    2.0592    0.5695   -4.8024 C   0  0  0  0  0  0  0  0  0  0  0  0
    0.6068    0.5630   -5.3146 C   0  0  3  0  0  0  0  0  0  0  0  0
    0.2189    0.5665   -3.8170 C   0  0  0  0  0  0  0  0  0  0  0  0
    0.1244    1.6912   -6.2276 C   0  0  0  0  0  0  0  0  0  0  0  0
   -0.3826    1.5592   -7.3436 O   0  0  0  0  0  0  0  0  0  0  0  0
    0.2735    2.9482   -5.7478 O   0  0  0  0  0  0  0  0  0  0  0  0
    0.5102    5.9840   -1.6485 C   0  0  0  0  0  0  0  0  0  0  0  0
    0.8658    6.8055   -2.5973 N   0  0  0  0  0  0  0  0  0  0  0  0
    0.4334    8.1217   -2.3510 O   0  0  0  0  0  0  0  0  0  0  0  0
    0.9072    9.0092   -3.3772 C   0  0  0  0  0  0  0  0  0  0  0  0
    2.4138    9.1147   -3.4104 C   0  0  0  0  0  0  0  0  0  0  0  0
    3.1371    9.1876   -2.2215 C   0  0  0  0  0  0  0  0  0  0  0  0
    4.5257    9.1976   -2.2497 C   0  0  0  0  0  0  0  0  0  0  0  0
    5.2351    9.1235   -3.4656 C   0  0  0  0  0  0  0  0  0  0  0  0
    4.5172    8.9663   -4.6662 C   0  0  0  0  0  0  0  0  0  0  0  0
    3.1102    9.0711   -4.6265 C   0  0  0  0  0  0  0  0  0  0  0  0
    5.1377    8.5713   -5.9945 C   0  0  0  0  0  0  0  0  0  0  0  0
    4.5412    7.4523   -6.5042 F   0  0  0  0  0  0  0  0  0  0  0  0
    4.9959    9.5329   -6.9471 F   0  0  0  0  0  0  0  0  0  0  0  0
    6.4620    8.2578   -5.9796 F   0  0  0  0  0  0  0  0  0  0  0  0
    6.7430    9.2427   -3.4322 C   0  0  0  0  0  0  0  0  0  0  0  0
    7.3761    8.0565   -2.6994 C   0  0  0  0  0  0  0  0  0  0  0  0
    8.8919    8.1907   -2.6609 C   0  0  0  0  0  0  0  0  0  0  0  0
    9.3075    9.5338   -2.0657 C   0  0  0  0  0  0  0  0  0  0  0  0
    8.6962   10.7055   -2.8289 C   0  0  0  0  0  0  0  0  0  0  0  0
    7.1765   10.6024   -2.8674 C   0  0  0  0  0  0  0  0  0  0  0  0
   -0.3316    6.3843   -0.4575 C   0  0  0  0  0  0  0  0  0  0  0  0
    0.4318   -0.5938   -0.5269 H   0  0  0  0  0  0  0  0  0  0  0  0
    0.5555   -0.6212    1.2181 H   0  0  0  0  0  0  0  0  0  0  0  0
    1.9926   -0.1979    0.3096 H   0  0  0  0  0  0  0  0  0  0  0  0
   -0.5765    1.4274    0.3378 H   0  0  0  0  0  0  0  0  0  0  0  0
    0.8803    1.8005    1.2643 H   0  0  0  0  0  0  0  0  0  0  0  0
   -0.0731    3.8750    0.0643 H   0  0  0  0  0  0  0  0  0  0  0  0
    2.1664    4.8813   -3.4753 H   0  0  0  0  0  0  0  0  0  0  0  0
    3.1837    2.6983   -3.4104 H   0  0  0  0  0  0  0  0  0  0  0  0
    3.3214    0.3636   -2.4116 H   0  0  0  0  0  0  0  0  0  0  0  0
    1.9926   -0.2947   -1.6218 H   0  0  0  0  0  0  0  0  0  0  0  0
    2.5026    1.5613   -4.7795 H   0  0  0  0  0  0  0  0  0  0  0  0
    2.7638   -0.0761   -5.3325 H   0  0  0  0  0  0  0  0  0  0  0  0
    0.3793   -0.4067   -5.7791 H   0  0  0  0  0  0  0  0  0  0  0  0
   -0.6214   -0.0873   -3.5603 H   0  0  0  0  0  0  0  0  0  0  0  0
   -0.0102    1.5588   -3.4148 H   0  0  0  0  0  0  0  0  0  0  0  0
   -0.0966    3.5200   -6.4555 H   0  0  0  0  0  0  0  0  0  0  0  0
    0.5068    8.6767   -4.3414 H   0  0  0  0  0  0  0  0  0  0  0  0
    0.4917    9.9999   -3.1644 H   0  0  0  0  0  0  0  0  0  0  0  0
    2.6196    9.2083   -1.2650 H   0  0  0  0  0  0  0  0  0  0  0  0
    5.0556    9.2341   -1.2992 H   0  0  0  0  0  0  0  0  0  0  0  0
    2.5524    9.0519   -5.5633 H   0  0  0  0  0  0  0  0  0  0  0  0
    7.1526    9.2564   -4.4407 H   0  0  0  0  0  0  0  0  0  0  0  0
    7.0005    7.9901   -1.6713 H   0  0  0  0  0  0  0  0  0  0  0  0
    7.0997    7.1166   -3.1947 H   0  0  0  0  0  0  0  0  0  0  0  0
    9.3136    7.3716   -2.0691 H   0  0  0  0  0  0  0  0  0  0  0  0
    9.2929    8.0955   -3.6777 H   0  0  0  0  0  0  0  0  0  0  0  0
    8.9848    9.5799   -1.0184 H   0  0  0  0  0  0  0  0  0  0  0  0
   10.3984    9.6174   -2.0758 H   0  0  0  0  0  0  0  0  0  0  0  0
    8.9836   11.6524   -2.3610 H   0  0  0  0  0  0  0  0  0  0  0  0
    9.0887   10.7201   -3.8538 H   0  0  0  0  0  0  0  0  0  0  0  0
    6.7733   11.4059   -3.4989 H   0  0  0  0  0  0  0  0  0  0  0  0
    6.7744   10.7614   -1.8609 H   0  0  0  0  0  0  0  0  0  0  0  0
   -1.2636    5.8117   -0.4717 H   0  0  0  0  0  0  0  0  0  0  0  0
    0.2183    6.1720    0.4645 H   0  0  0  0  0  0  0  0  0  0  0  0
   -0.5894    7.4429   -0.4539 H   0  0  0  0  0  0  0  0  0  0  0  0
  1  2  1  0  0  0  0
  1 38  1  0  0  0  0
  1 39  1  0  0  0  0
  1 40  1  0  0  0  0
  2  3  1  0  0  0  0
  2 41  1  0  0  0  0
  2 42  1  0  0  0  0
  3  4  2  0  0  0  0
  3  8  1  0  0  0  0
  4  5  1  0  0  0  0
  4 43  1  0  0  0  0
  5  6  2  0  0  0  0
  5 17  1  0  0  0  0
  6  7  1  0  0  0  0
  6 44  1  0  0  0  0
  7  8  2  0  0  0  0
  7 45  1  0  0  0  0
  8  9  1  0  0  0  0
  9 10  1  0  0  0  0
  9 46  1  0  0  0  0
  9 47  1  0  0  0  0
 10 11  1  0  0  0  0
 10 13  1  0  0  0  0
 11 12  1  0  0  0  0
 11 48  1  0  0  0  0
 11 49  1  0  0  0  0
 12 13  1  0  0  0  0
 12 14  1  0  0  0  0
 12 50  1  0  0  0  0
 13 51  1  0  0  0  0
 13 52  1  0  0  0  0
 14 15  2  0  0  0  0
 14 16  1  0  0  0  0
 16 53  1  0  0  0  0
 17 18  2  0  0  0  0
 17 37  1  0  0  0  0
 18 19  1  0  0  0  0
 19 20  1  0  0  0  0
 20 21  1  0  0  0  0
 20 54  1  0  0  0  0
 20 55  1  0  0  0  0
 21 22  2  0  0  0  0
 21 26  1  0  0  0  0
 22 23  1  0  0  0  0
 22 56  1  0  0  0  0
 23 24  2  0  0  0  0
 23 57  1  0  0  0  0
 24 25  1  0  0  0  0
 24 31  1  0  0  0  0
 25 26  2  0  0  0  0
 25 27  1  0  0  0  0
 26 58  1  0  0  0  0
 27 28  1  0  0  0  0
 27 29  1  0  0  0  0
 27 30  1  0  0  0  0
 31 32  1  0  0  0  0
 31 36  1  0  0  0  0
 31 59  1  0  0  0  0
 32 33  1  0  0  0  0
 32 60  1  0  0  0  0
 32 61  1  0  0  0  0
 33 34  1  0  0  0  0
 33 62  1  0  0  0  0
 33 63  1  0  0  0  0
 34 35  1  0  0  0  0
 34 64  1  0  0  0  0
 34 65  1  0  0  0  0
 35 36  1  0  0  0  0
 35 66  1  0  0  0  0
 35 67  1  0  0  0  0
 36 68  1  0  0  0  0
 36 69  1  0  0  0  0
 37 70  1  0  0  0  0
 37 71  1  0  0  0  0
 37 72  1  0  0  0  0
M  END
>  <DRUGBANK_ID>
DB12371

>  <COMMON_NAME>
Siponimod

>  <CAS_NUMBER>
1230487-00-9

>  <UNII>
RR6P8L282I

>  <SYNONYMS>
Siponimod

$$$$
