
 OpenBabel10282417113D

 43 44  0  0  0  0  0  0  0  0999 V2000
    0.9274    0.0826   -0.0174 C   0  0  0  0  0  0  0  0  0  0  0  0
    0.4031   -1.3043    0.3469 C   0  0  0  0  0  0  0  0  0  0  0  0
    0.8673   -1.7629    1.7582 C   0  0  1  0  0  0  0  0  0  0  0  0
    0.4208   -0.6951    2.7248 N   0  0  0  0  0  0  0  0  0  0  0  0
    0.9487   -0.8514    4.0730 C   0  0  0  0  0  0  0  0  0  0  0  0
    2.5164   -0.6708    4.1068 C   0  0  0  0  0  0  0  0  0  0  0  0
    0.3628   -0.0355    5.2054 C   0  0  0  0  0  0  0  0  0  0  0  0
    0.4431   -3.3100    2.0109 C   0  0  1  0  0  0  0  0  0  0  0  0
    0.9953   -4.0933    0.9411 O   0  0  0  0  0  0  0  0  0  0  0  0
    0.8607   -3.9930    3.3201 C   0  0  0  0  0  0  0  0  0  0  0  0
    1.8008   -3.4049    4.1233 C   0  0  0  0  0  0  0  0  0  0  0  0
    1.9155   -3.5236    5.5080 C   0  0  0  0  0  0  0  0  0  0  0  0
    1.5393   -4.7127    6.0211 C   0  0  0  0  0  0  0  0  0  0  0  0
    1.9005   -5.0361    7.2936 O   0  0  0  0  0  0  0  0  0  0  0  0
    0.9718   -5.6075    5.1163 C   0  0  0  0  0  0  0  0  0  0  0  0
    0.9395   -6.9530    5.4501 N   0  0  0  0  0  0  0  0  0  0  0  0
    0.7387   -7.9117    4.5141 C   0  0  0  0  0  0  0  0  0  0  0  0
    0.7186   -9.1231    4.8061 O   0  0  0  0  0  0  0  0  0  0  0  0
    0.4880   -7.4986    3.1150 C   0  0  0  0  0  0  0  0  0  0  0  0
    0.1374   -6.2389    2.8432 C   0  0  0  0  0  0  0  0  0  0  0  0
    0.5517   -5.2339    3.8006 C   0  0  0  0  0  0  0  0  0  0  0  0
    0.5576    0.8560    0.6597 H   0  0  0  0  0  0  0  0  0  0  0  0
    0.6002    0.3660   -1.0191 H   0  0  0  0  0  0  0  0  0  0  0  0
    2.0224    0.0933    0.0146 H   0  0  0  0  0  0  0  0  0  0  0  0
   -0.6910   -1.3252    0.2876 H   0  0  0  0  0  0  0  0  0  0  0  0
    0.7799   -1.9863   -0.4243 H   0  0  0  0  0  0  0  0  0  0  0  0
    1.9617   -1.7527    1.6801 H   0  0  0  0  0  0  0  0  0  0  0  0
    0.7649    0.2078    2.4099 H   0  0  0  0  0  0  0  0  0  0  0  0
    0.4779   -1.7839    4.3658 H   0  0  0  0  0  0  0  0  0  0  0  0
    2.8227    0.3545    3.9310 H   0  0  0  0  0  0  0  0  0  0  0  0
    2.9378   -1.0074    5.0625 H   0  0  0  0  0  0  0  0  0  0  0  0
    3.1031   -1.2007    3.3374 H   0  0  0  0  0  0  0  0  0  0  0  0
   -0.7287   -0.1150    5.2334 H   0  0  0  0  0  0  0  0  0  0  0  0
    0.7242   -0.4727    6.1507 H   0  0  0  0  0  0  0  0  0  0  0  0
    0.6782    1.0007    5.1433 H   0  0  0  0  0  0  0  0  0  0  0  0
   -0.6528   -3.3580    1.9465 H   0  0  0  0  0  0  0  0  0  0  0  0
    0.5015   -3.8798    0.1318 H   0  0  0  0  0  0  0  0  0  0  0  0
    2.3631   -2.7075    3.5750 H   0  0  0  0  0  0  0  0  0  0  0  0
    2.3519   -2.7375    6.1147 H   0  0  0  0  0  0  0  0  0  0  0  0
    2.3441   -4.2642    7.6967 H   0  0  0  0  0  0  0  0  0  0  0  0
    1.1837   -7.2034    6.4000 H   0  0  0  0  0  0  0  0  0  0  0  0
    0.5074   -8.2471    2.3393 H   0  0  0  0  0  0  0  0  0  0  0  0
   -0.1873   -5.9303    1.8588 H   0  0  0  0  0  0  0  0  0  0  0  0
  1  2  1  0  0  0  0
  1 22  1  0  0  0  0
  1 23  1  0  0  0  0
  1 24  1  0  0  0  0
  2  3  1  0  0  0  0
  2 25  1  0  0  0  0
  2 26  1  0  0  0  0
  3  4  1  0  0  0  0
  3  8  1  0  0  0  0
  3 27  1  6  0  0  0
  4 28  1  0  0  0  0
  5  4  1  0  0  0  0
  5 29  1  0  0  0  0
  6  5  1  0  0  0  0
  6 30  1  0  0  0  0
  6 31  1  0  0  0  0
  6 32  1  0  0  0  0
  7  5  1  0  0  0  0
  7 33  1  0  0  0  0
  7 34  1  0  0  0  0
  7 35  1  0  0  0  0
  8  9  1  0  0  0  0
  8 10  1  0  0  0  0
  8 36  1  6  0  0  0
  9 37  1  0  0  0  0
 10 21  1  0  0  0  0
 11 10  2  0  0  0  0
 11 38  1  0  0  0  0
 12 11  1  0  0  0  0
 12 13  2  0  0  0  0
 12 39  1  0  0  0  0
 13 15  1  0  0  0  0
 14 13  1  0  0  0  0
 14 40  1  0  0  0  0
 15 21  2  0  0  0  0
 16 15  1  0  0  0  0
 16 41  1  0  0  0  0
 17 16  1  0  0  0  0
 17 19  1  0  0  0  0
 18 17  2  0  0  0  0
 19 20  2  0  0  0  0
 19 42  1  0  0  0  0
 20 21  1  0  0  0  0
 20 43  1  0  0  0  0
M  END
>  <DRUGBANK_ID>
DB01366

>  <COMMON_NAME>
Procaterol

>  <CAS_NUMBER>
72332-33-3

>  <UNII>
X7I3EMM5K0

>  <SYNONYMS>
Procaterol; Procaterolo; Procaterolum

$$$$
