
 OpenBabel10282417123D

 34 34  0  0  1  0  0  0  0  0999 V2000
    0.7153    1.1488   -0.1998 C   0  0  1  0  0  0  0  0  0  0  0  0
    1.5105   -0.0811    0.2331 C   0  0  1  0  0  0  0  0  0  0  0  0
   -0.5799    1.0078    0.3720 O   0  0  0  0  0  0  0  0  0  0  0  0
    0.7780   -1.3514   -0.2410 C   0  0  2  0  0  0  0  0  0  0  0  0
   -1.3430   -0.0267   -0.2618 C   0  0  1  0  0  0  0  0  0  0  0  0
   -0.7087   -1.3406    0.2013 C   0  0  2  0  0  0  0  0  0  0  0  0
    1.3114    2.3477    0.2666 O   0  0  0  0  0  0  0  0  0  0  0  0
    2.8993   -0.0367   -0.2120 N   0  0  0  0  0  0  0  0  0  0  0  0
    1.4520   -2.4940    0.2917 O   0  0  0  0  0  0  0  0  0  0  0  0
   -0.8045   -1.4365    1.6336 O   0  0  0  0  0  0  0  0  0  0  0  0
   -2.7974    0.1323    0.1962 C   0  0  0  0  0  0  0  0  0  0  0  0
   -3.3660    1.3504   -0.2858 O   0  0  0  0  0  0  0  0  0  0  0  0
    3.9938   -0.0147    0.6027 C   0  0  0  0  0  0  0  0  0  0  0  0
    5.1197    0.0057    0.1124 O   0  0  0  0  0  0  0  0  0  0  0  0
    3.7615   -0.0086    2.0925 C   0  0  0  0  0  0  0  0  0  0  0  0
   -2.8512    2.8036    0.2622 S   0  0  0  0  0  0  0  0  0  0  0  0
   -2.7143    2.5670    1.8551 O   0  0  0  0  0  0  0  0  0  0  0  0
   -1.5544    3.1167   -0.3009 O   0  0  0  0  0  0  0  0  0  0  0  0
   -3.9329    3.7367    0.1011 O   0  0  0  0  0  0  0  0  0  0  0  0
    0.6492    1.2376   -1.2919 H   0  0  0  0  0  0  0  0  0  0  0  0
    1.4977   -0.0900    1.3254 H   0  0  0  0  0  0  0  0  0  0  0  0
    0.8274   -1.4034   -1.3377 H   0  0  0  0  0  0  0  0  0  0  0  0
   -1.2993    0.0887   -1.3535 H   0  0  0  0  0  0  0  0  0  0  0  0
   -1.2346   -2.2122   -0.1990 H   0  0  0  0  0  0  0  0  0  0  0  0
    1.2910    2.3144    1.2345 H   0  0  0  0  0  0  0  0  0  0  0  0
    3.1127    0.0057   -1.2013 H   0  0  0  0  0  0  0  0  0  0  0  0
    1.4659   -3.1880   -0.3862 H   0  0  0  0  0  0  0  0  0  0  0  0
   -1.1402   -0.5924    1.9878 H   0  0  0  0  0  0  0  0  0  0  0  0
   -3.3922   -0.6986   -0.2046 H   0  0  0  0  0  0  0  0  0  0  0  0
   -2.9121    0.0936    1.2849 H   0  0  0  0  0  0  0  0  0  0  0  0
    3.2069    0.8899    2.3829 H   0  0  0  0  0  0  0  0  0  0  0  0
    3.2101   -0.9045    2.3935 H   0  0  0  0  0  0  0  0  0  0  0  0
    4.7192   -0.0041    2.6162 H   0  0  0  0  0  0  0  0  0  0  0  0
   -3.6140    2.6386    2.2370 H   0  0  0  0  0  0  0  0  0  0  0  0
  1  2  1  0  0  0  0
  1  3  1  0  0  0  0
  1  7  1  0  0  0  0
  1 20  1  6  0  0  0
  2  4  1  0  0  0  0
  2  8  1  0  0  0  0
  2 21  1  1  0  0  0
  3  5  1  0  0  0  0
  4  6  1  0  0  0  0
  4 22  1  6  0  0  0
  4  9  1  0  0  0  0
  5  6  1  0  0  0  0
  5 23  1  6  0  0  0
  5 11  1  0  0  0  0
  6 24  1  6  0  0  0
  6 10  1  0  0  0  0
  7 25  1  0  0  0  0
  8 13  1  0  0  0  0
  8 26  1  0  0  0  0
  9 27  1  0  0  0  0
 10 28  1  0  0  0  0
 11 29  1  0  0  0  0
 11 30  1  0  0  0  0
 12 11  1  0  0  0  0
 12 16  1  0  0  0  0
 14 13  2  0  0  0  0
 15 13  1  0  0  0  0
 15 31  1  0  0  0  0
 15 32  1  0  0  0  0
 15 33  1  0  0  0  0
 16 17  1  0  0  0  0
 17 34  1  0  0  0  0
 18 16  2  0  0  0  0
 19 16  2  0  0  0  0
M  END
>  <DRUGBANK_ID>
DB02186

>  <SECONDARY_ACCESSION_NUMBERS>
EXPT02335

>  <COMMON_NAME>
N-acetyl-beta-D-galactosamine 6-sulfate

>  <CAS_NUMBER>
157296-99-6

>  <SYNONYMS>
2-(acetylamino)-2-deoxy-6-O-sulfo-β-D-galactopyranose; N-Acetyl-D-galactosamine 6-sulfate; N-acetyl-β-D-galactosamine 6-sulfate; β-D-GalpNAc6S

$$$$
