
 OpenBabel10282417143D

 60 63  0  0  0  0  0  0  0  0999 V2000
    2.5967   -0.1613   -0.1480 C   0  0  0  0  0  0  0  0  0  0  0  0
   -0.8399    0.4690    2.1568 C   0  0  0  0  0  0  0  0  0  0  0  0
   -0.1869    1.8344    2.2126 C   0  0  0  0  0  0  0  0  0  0  0  0
   -1.6343   -4.0185    1.7508 C   0  0  0  0  0  0  0  0  0  0  0  0
   -3.7013   -2.9478    2.3365 C   0  0  0  0  0  0  0  0  0  0  0  0
   -2.2811   -4.7796    0.7707 C   0  0  0  0  0  0  0  0  0  0  0  0
   -4.3589   -3.7073    1.3441 C   0  0  0  0  0  0  0  0  0  0  0  0
   -0.0509   -1.1117    4.6999 C   0  0  0  0  0  0  0  0  0  0  0  0
   -0.2389   -1.9997    3.6153 C   0  0  0  0  0  0  0  0  0  0  0  0
   -2.0931    0.1815    1.3667 C   0  0  0  0  0  0  0  0  0  0  0  0
   -1.1011    2.9026    2.6511 C   0  0  0  0  0  0  0  0  0  0  0  0
    0.4847   -1.3570   -0.1595 C   0  0  0  0  0  0  0  0  0  0  0  0
    0.5701    1.0069   -0.3878 C   0  0  0  0  0  0  0  0  0  0  0  0
   -1.0636   -1.2440   -0.3775 C   0  0  0  0  0  0  0  0  0  0  0  0
   -0.9904    1.1399   -0.5617 C   0  0  0  0  0  0  0  0  0  0  0  0
   -1.5312   -0.4666    6.6808 C   0  0  0  0  0  0  0  0  0  0  0  0
   -1.3132    3.2145    6.2885 C   0  0  0  0  0  0  0  0  0  0  0  0
   -2.3362   -3.1499    2.6135 C   0  0  0  0  0  0  0  0  0  0  0  0
   -3.6519   -4.6496    0.5986 C   0  0  0  0  0  0  0  0  0  0  0  0
   -1.1943   -1.1807    5.4647 C   0  0  0  0  0  0  0  0  0  0  0  0
   -1.5538   -2.4276    3.6423 C   0  0  0  0  0  0  0  0  0  0  0  0
   -1.1993    3.7892    4.8881 C   0  0  0  0  0  0  0  0  0  0  0  0
   -1.7721    1.6971    4.7062 C   0  0  0  0  0  0  0  0  0  0  0  0
   -4.4643   -5.6682   -0.5254 Cl  0  0  0  0  0  0  0  0  0  0  0  0
   -1.5220    0.8195    6.9711 N   0  0  0  0  0  0  0  0  0  0  0  0
    1.2455   -0.2349   -0.7650 N   0  0  0  0  0  0  0  0  0  0  0  0
   -1.7778    0.0145   -0.0523 N   0  0  0  0  0  0  0  0  0  0  0  0
   -1.2467    2.7502    4.0408 N   0  0  0  0  0  0  0  0  0  0  0  0
   -1.3103    1.7845    6.0093 N   0  0  0  0  0  0  0  0  0  0  0  0
   -1.1766    4.9625    4.5527 O   0  0  0  0  0  0  0  0  0  0  0  0
   -2.5960    0.8817    4.2741 O   0  0  0  0  0  0  0  0  0  0  0  0
   -2.1175   -2.0154    4.8338 O   0  0  0  0  0  0  0  0  0  0  0  0
    3.0971    0.7622   -0.4670 H   0  0  0  0  0  0  0  0  0  0  0  0
    2.5860   -0.1306    0.9579 H   0  0  0  0  0  0  0  0  0  0  0  0
    3.1979   -1.0148   -0.4513 H   0  0  0  0  0  0  0  0  0  0  0  0
   -1.0254    0.1793    3.1556 H   0  0  0  0  0  0  0  0  0  0  0  0
   -0.0870   -0.2344    1.8798 H   0  0  0  0  0  0  0  0  0  0  0  0
    0.7569    1.7276    2.7723 H   0  0  0  0  0  0  0  0  0  0  0  0
    0.0947    2.2933    1.2817 H   0  0  0  0  0  0  0  0  0  0  0  0
   -0.5508   -4.0904    1.8118 H   0  0  0  0  0  0  0  0  0  0  0  0
   -4.2644   -2.1612    2.8383 H   0  0  0  0  0  0  0  0  0  0  0  0
   -1.7066   -5.4730    0.1620 H   0  0  0  0  0  0  0  0  0  0  0  0
   -5.4240   -3.5697    1.1645 H   0  0  0  0  0  0  0  0  0  0  0  0
    0.7254   -0.3639    4.8060 H   0  0  0  0  0  0  0  0  0  0  0  0
    0.3975   -2.0846    2.7522 H   0  0  0  0  0  0  0  0  0  0  0  0
   -2.8669    0.9360    1.5655 H   0  0  0  0  0  0  0  0  0  0  0  0
   -2.5741   -0.7239    1.7376 H   0  0  0  0  0  0  0  0  0  0  0  0
   -0.5967    3.8416    2.3910 H   0  0  0  0  0  0  0  0  0  0  0  0
   -2.0548    2.8484    2.1320 H   0  0  0  0  0  0  0  0  0  0  0  0
    0.8426   -2.3125   -0.5483 H   0  0  0  0  0  0  0  0  0  0  0  0
    0.7385   -1.4486    0.8967 H   0  0  0  0  0  0  0  0  0  0  0  0
    0.8655    0.9587    0.6456 H   0  0  0  0  0  0  0  0  0  0  0  0
    1.0480    1.9415   -0.7021 H   0  0  0  0  0  0  0  0  0  0  0  0
   -1.2213   -1.3991   -1.4472 H   0  0  0  0  0  0  0  0  0  0  0  0
   -1.5713   -2.0745    0.1070 H   0  0  0  0  0  0  0  0  0  0  0  0
   -1.2105    1.2662   -1.6193 H   0  0  0  0  0  0  0  0  0  0  0  0
   -1.3960    2.0562   -0.1006 H   0  0  0  0  0  0  0  0  0  0  0  0
   -1.7526   -1.1420    7.5245 H   0  0  0  0  0  0  0  0  0  0  0  0
   -2.2961    3.5066    6.6638 H   0  0  0  0  0  0  0  0  0  0  0  0
   -0.4590    3.5313    6.8777 H   0  0  0  0  0  0  0  0  0  0  0  0
  1 33  1  0  0  0  0
  1 34  1  0  0  0  0
  1 35  1  0  0  0  0
  2 36  1  0  0  0  0
  2 37  1  0  0  0  0
  3  2  1  0  0  0  0
  3 38  1  0  0  0  0
  3 39  1  0  0  0  0
  4 40  1  0  0  0  0
  5 41  1  0  0  0  0
  6  4  1  0  0  0  0
  6 42  1  0  0  0  0
  7  5  2  0  0  0  0
  7 43  1  0  0  0  0
  8 44  1  0  0  0  0
  9  8  1  0  0  0  0
  9 45  1  0  0  0  0
 10  2  1  0  0  0  0
 10 46  1  0  0  0  0
 10 47  1  0  0  0  0
 11  3  1  0  0  0  0
 11 48  1  0  0  0  0
 11 49  1  0  0  0  0
 12 50  1  0  0  0  0
 12 51  1  0  0  0  0
 13 52  1  0  0  0  0
 13 53  1  0  0  0  0
 14 12  1  0  0  0  0
 14 54  1  0  0  0  0
 14 55  1  0  0  0  0
 15 13  1  0  0  0  0
 15 56  1  0  0  0  0
 15 57  1  0  0  0  0
 16 58  1  0  0  0  0
 17 59  1  0  0  0  0
 17 60  1  0  0  0  0
 18  4  2  0  0  0  0
 18  5  1  0  0  0  0
 19  6  2  0  0  0  0
 19  7  1  0  0  0  0
 20  8  2  0  0  0  0
 20 16  1  0  0  0  0
 21  9  2  0  0  0  0
 21 18  1  0  0  0  0
 22 17  1  0  0  0  0
 24 19  1  0  0  0  0
 25 16  2  3  0  0  0
 25 29  1  0  0  0  0
 26  1  1  0  0  0  0
 26 12  1  0  0  0  0
 26 13  1  0  0  0  0
 27 10  1  0  0  0  0
 27 14  1  0  0  0  0
 27 15  1  0  0  0  0
 28 11  1  0  0  0  0
 28 22  1  0  0  0  0
 28 23  1  0  0  0  0
 29 17  1  0  0  0  0
 29 23  1  0  0  0  0
 30 22  2  0  0  0  0
 31 23  2  0  0  0  0
 32 20  1  0  0  0  0
 32 21  1  0  0  0  0
M  END
>  <DRUGBANK_ID>
DB04957

>  <COMMON_NAME>
Azimilide

>  <CAS_NUMBER>
149908-53-2

>  <UNII>
74QU6P2934

>  <SYNONYMS>
Azimilide

$$$$
