
 OpenBabel10282417133D

 78 85  0  0  1  0  0  0  0  0999 V2000
    3.0486   -1.1237   -2.8440 C   0  0  0  0  0  0  0  0  0  0  0  0
    3.4217   -0.5438   -1.4894 C   0  0  0  0  0  0  0  0  0  0  0  0
    2.8479    0.4717   -0.9059 C   0  0  0  0  0  0  0  0  0  0  0  0
    1.7365    1.3514   -1.2963 C   0  0  0  0  0  0  0  0  0  0  0  0
    1.3725    2.3318   -0.4530 C   0  0  0  0  0  0  0  0  0  0  0  0
   -0.1158    4.2056   -0.0283 C   0  0  1  0  0  0  0  0  0  0  0  0
   -1.4071    4.9382   -0.3543 C   0  0  0  0  0  0  0  0  0  0  0  0
   -2.6589    4.3831    0.0217 O   0  0  0  0  0  0  0  0  0  0  0  0
   -1.3605    6.1302   -1.0082 C   0  0  0  0  0  0  0  0  0  0  0  0
    0.6022    4.4055    1.2964 C   0  0  0  0  0  0  0  0  0  0  0  0
    0.1768    5.5272    2.2298 C   0  0  0  0  0  0  0  0  0  0  0  0
    1.6257    3.5805    1.6466 C   0  0  0  0  0  0  0  0  0  0  0  0
    1.5351    3.8165   -4.4874 C   0  0  0  0  0  0  0  0  0  0  0  0
    2.2000    3.6720   -3.3094 C   0  0  0  0  0  0  0  0  0  0  0  0
    3.4383    4.1764   -2.9357 N   0  0  0  0  0  0  0  0  0  0  0  0
    3.8838    3.8678   -1.6751 C   0  0  0  0  0  0  0  0  0  0  0  0
    5.0310    4.3754   -1.1489 C   0  0  0  0  0  0  0  0  0  0  0  0
    5.4598    3.9864    0.2565 C   0  0  0  0  0  0  0  0  0  0  0  0
    6.5806    4.3860    0.9717 C   0  0  0  0  0  0  0  0  0  0  0  0
    7.5948    5.3527    0.3823 C   0  0  0  0  0  0  0  0  0  0  0  0
    8.3228    4.6822   -0.7713 C   0  0  0  0  0  0  0  0  0  0  0  0
    7.3192    4.2861   -1.8420 C   0  0  0  0  0  0  0  0  0  0  0  0
    7.4340    4.8172   -3.1540 O   0  0  0  0  0  0  0  0  0  0  0  0
    6.3775    3.4796   -1.5631 O   0  0  0  0  0  0  0  0  0  0  0  0
    6.7326    3.8699    2.2340 C   0  0  0  0  0  0  0  0  0  0  0  0
    7.9388    4.2467    3.0788 C   0  0  0  0  0  0  0  0  0  0  0  0
    5.7911    3.0170    2.7204 C   0  0  0  0  0  0  0  0  0  0  0  0
    5.2927   -0.3470    1.5149 C   0  0  0  0  0  0  0  0  0  0  0  0
    4.4503   -0.2272    0.4535 C   0  0  0  0  0  0  0  0  0  0  0  0
    4.4435   -1.0067   -0.6475 C   0  0  2  0  0  0  0  0  0  0  0  0
    5.8142   -0.8663   -1.2894 C   0  0  0  0  0  0  0  0  0  0  0  0
    6.3490   -1.9060   -1.9849 C   0  0  0  0  0  0  0  0  0  0  0  0
    3.4737    0.6913    0.3147 N   0  0  0  0  0  0  0  0  0  0  0  0
    3.0497    1.6924    1.1084 Fe  0  0  2  0  0  0  0  0  0  0  0  0
    2.0371    2.4958    0.7440 N   0  0  0  0  0  0  0  0  0  0  0  0
    4.6541    2.8973    1.4171 N   0  0  0  0  0  0  0  0  0  0  0  0
    3.1019    3.1069   -0.8624 C   0  0  0  0  0  0  0  0  0  0  0  0
    3.3824    2.6497    0.5598 C   0  0  0  0  0  0  0  0  0  0  0  0
    3.3959    1.1306    0.6108 C   0  0  0  0  0  0  0  0  0  0  0  0
    4.4801    0.6022   -0.3141 C   0  0  0  0  0  0  0  0  0  0  0  0
    5.5374   -0.1878    0.2098 O   0  0  0  0  0  0  0  0  0  0  0  0
    4.4404    0.8673   -1.5564 O   0  0  0  0  0  0  0  0  0  0  0  0
    1.7081    2.7851   -1.8418 C   0  0  0  0  0  0  0  0  0  0  0  0
    0.4488    1.9887   -1.5413 C   0  0  0  0  0  0  0  0  0  0  0  0
    1.9840   -1.1226   -2.9514 H   0  0  0  0  0  0  0  0  0  0  0  0
    3.4132   -2.1271   -2.9151 H   0  0  0  0  0  0  0  0  0  0  0  0
    3.4859   -0.5295   -3.6190 H   0  0  0  0  0  0  0  0  0  0  0  0
    1.2301    1.2142   -2.2288 H   0  0  0  0  0  0  0  0  0  0  0  0
   -0.5659    4.5069   -0.9511 H   0  0  0  0  0  0  0  0  0  0  0  0
   -2.6932    3.5069    0.5024 H   0  0  0  0  0  0  0  0  0  0  0  0
   -0.4172    6.5484   -1.2915 H   0  0  0  0  0  0  0  0  0  0  0  0
   -2.2670    6.6495   -1.2393 H   0  0  0  0  0  0  0  0  0  0  0  0
   -0.4842    6.1907    1.7123 H   0  0  0  0  0  0  0  0  0  0  0  0
   -0.3260    5.1132    3.0787 H   0  0  0  0  0  0  0  0  0  0  0  0
    1.0411    6.0672    2.5556 H   0  0  0  0  0  0  0  0  0  0  0  0
    1.2570    3.8964   -5.5175 H   0  0  0  0  0  0  0  0  0  0  0  0
    5.6315    5.0485   -1.7245 H   0  0  0  0  0  0  0  0  0  0  0  0
    7.0900    6.2262    0.0259 H   0  0  0  0  0  0  0  0  0  0  0  0
    8.3012    5.6315    1.1360 H   0  0  0  0  0  0  0  0  0  0  0  0
    9.0369    5.3625   -1.1860 H   0  0  0  0  0  0  0  0  0  0  0  0
    8.8276    3.8086   -0.4150 H   0  0  0  0  0  0  0  0  0  0  0  0
    8.1750    5.4517   -3.3735 H   0  0  0  0  0  0  0  0  0  0  0  0
    8.3557    3.3648    3.5185 H   0  0  0  0  0  0  0  0  0  0  0  0
    8.6736    4.7187    2.4607 H   0  0  0  0  0  0  0  0  0  0  0  0
    7.6361    4.9218    3.8518 H   0  0  0  0  0  0  0  0  0  0  0  0
    5.7171   -1.2470    1.9084 H   0  0  0  0  0  0  0  0  0  0  0  0
    4.3858   -2.0633   -0.4889 H   0  0  0  0  0  0  0  0  0  0  0  0
    6.3576    0.0507   -1.1959 H   0  0  0  0  0  0  0  0  0  0  0  0
    7.3130   -1.8068   -2.4384 H   0  0  0  0  0  0  0  0  0  0  0  0
    5.8056   -2.8229   -2.0784 H   0  0  0  0  0  0  0  0  0  0  0  0
    4.3337    3.0256    0.8740 H   0  0  0  0  0  0  0  0  0  0  0  0
    2.6192    3.0217    1.2109 H   0  0  0  0  0  0  0  0  0  0  0  0
    3.5933    0.8092    1.6121 H   0  0  0  0  0  0  0  0  0  0  0  0
    2.4446    0.7548    0.2966 H   0  0  0  0  0  0  0  0  0  0  0  0
    5.5687   -0.3964    1.1873 H   0  0  0  0  0  0  0  0  0  0  0  0
   -0.3792    2.4209   -2.0634 H   0  0  0  0  0  0  0  0  0  0  0  0
    0.5822    0.9761   -1.8602 H   0  0  0  0  0  0  0  0  0  0  0  0
    0.2566    2.0089   -0.4889 H   0  0  0  0  0  0  0  0  0  0  0  0
  1 45  1  0  0  0  0
  1 46  1  0  0  0  0
  1 47  1  0  0  0  0
  1  2  1  0  0  0  0
  2  3  2  0  0  0  0
  2 30  1  0  0  0  0
  3  4  1  0  0  0  0
  3 33  1  0  0  0  0
  4  5  2  0  0  0  0
  4 48  1  0  0  0  0
  5  6  1  0  0  0  0
  6 10  1  0  0  0  0
  6  7  1  0  0  0  0
  6 49  1  6  0  0  0
  7  8  1  0  0  0  0
  7  9  2  0  0  0  0
  8 50  1  0  0  0  0
  9 51  1  0  0  0  0
  9 52  1  0  0  0  0
 10 12  2  0  0  0  0
 10 11  1  0  0  0  0
 11 53  1  0  0  0  0
 11 54  1  0  0  0  0
 11 55  1  0  0  0  0
 12 13  1  0  0  0  0
 12 35  1  0  0  0  0
 13 14  2  0  0  0  0
 13 56  1  0  0  0  0
 14 15  1  0  0  0  0
 14 43  1  0  0  0  0
 15 16  1  0  0  0  0
 16 17  2  0  0  0  0
 16 37  1  0  0  0  0
 17 18  1  0  0  0  0
 17 57  1  0  0  0  0
 18 19  2  0  0  0  0
 18 36  1  0  0  0  0
 19 25  1  0  0  0  0
 19 20  1  0  0  0  0
 20 21  1  0  0  0  0
 20 58  1  0  0  0  0
 20 59  1  0  0  0  0
 21 22  1  0  0  0  0
 21 60  1  0  0  0  0
 21 61  1  0  0  0  0
 22 23  1  0  0  0  0
 22 24  2  0  0  0  0
 23 62  1  0  0  0  0
 25 27  2  0  0  0  0
 25 26  1  0  0  0  0
 26 63  1  0  0  0  0
 26 64  1  0  0  0  0
 26 65  1  0  0  0  0
 27 28  1  0  0  0  0
 27 36  1  0  0  0  0
 28 29  2  0  0  0  0
 28 66  1  0  0  0  0
 29 30  1  0  0  0  0
 30 67  1  1  0  0  0
 30 31  1  0  0  0  0
 31 32  2  0  0  0  0
 31 68  1  0  0  0  0
 32 69  1  0  0  0  0
 32 70  1  0  0  0  0
 33 29  1  0  0  0  0
 34 33  1  1  0  0  0
 34 15  1  0  0  0  0
 34 35  1  0  0  0  0
 34 36  1  0  0  0  0
 35  5  1  0  0  0  0
 37 43  2  0  0  0  0
 37 38  1  0  0  0  0
 38 39  1  0  0  0  0
 38 71  1  0  0  0  0
 38 72  1  0  0  0  0
 39 40  1  0  0  0  0
 39 73  1  0  0  0  0
 39 74  1  0  0  0  0
 40 41  1  0  0  0  0
 40 42  2  0  0  0  0
 41 75  1  0  0  0  0
 43 44  1  0  0  0  0
 44 76  1  0  0  0  0
 44 77  1  0  0  0  0
 44 78  1  0  0  0  0
M  END
>  <DRUGBANK_ID>
DB02949

>  <SECONDARY_ACCESSION_NUMBERS>
EXPT01709

>  <COMMON_NAME>
2-Acetyl-Protoporphyrin Ix

$$$$
