
 OpenBabel10282417123D

 69 73  0  0  0  0  0  0  0  0999 V2000
    1.0420    0.0874   -0.0244 O   0  0  0  0  0  0  0  0  0  0  0  0
    0.4653   -1.2427    0.9196 P   0  0  0  0  0  0  0  0  0  0  0  0
    1.4928   -0.6654    2.0719 O   0  0  0  0  0  0  0  0  0  0  0  0
   -0.9014   -0.5514    0.8712 O   0  0  0  0  0  0  0  0  0  0  0  0
   -0.1447   -2.6497    1.9182 C   0  0  0  0  0  0  0  0  0  0  0  0
   -1.1509   -3.1654    1.1623 F   0  0  0  0  0  0  0  0  0  0  0  0
    0.9153   -3.5007    1.7696 F   0  0  0  0  0  0  0  0  0  0  0  0
   -0.4971   -2.3309    3.2914 C   0  0  0  0  0  0  0  0  0  0  0  0
   -0.3914   -3.3201    4.2338 C   0  0  0  0  0  0  0  0  0  0  0  0
   -0.3425   -2.8991    5.5342 C   0  0  0  0  0  0  0  0  0  0  0  0
   -0.3275   -1.5256    5.7925 C   0  0  0  0  0  0  0  0  0  0  0  0
   -0.3955   -1.1090    7.2009 C   0  0  0  0  0  0  0  0  0  0  0  0
    0.6288   -0.0652    7.7923 C   0  0  0  0  0  0  0  0  0  0  0  0
    0.7498    1.3220    6.9588 C   0  0  0  0  0  0  0  0  0  0  0  0
   -0.4756    2.1989    6.8449 C   0  0  0  0  0  0  0  0  0  0  0  0
   -1.6982    1.6006    6.7359 C   0  0  0  0  0  0  0  0  0  0  0  0
   -2.8412    2.2470    7.0512 C   0  0  0  0  0  0  0  0  0  0  0  0
   -2.8837    3.5872    7.3622 C   0  0  0  0  0  0  0  0  0  0  0  0
   -1.6790    4.2860    7.2421 C   0  0  0  0  0  0  0  0  0  0  0  0
   -0.4785    3.5921    6.9454 C   0  0  0  0  0  0  0  0  0  0  0  0
   -4.2325    4.1374    7.7397 C   0  0  0  0  0  0  0  0  0  0  0  0
   -4.2446    4.9568    8.8327 F   0  0  0  0  0  0  0  0  0  0  0  0
   -4.7611    4.8854    6.7250 F   0  0  0  0  0  0  0  0  0  0  0  0
   -5.6124    2.9587    7.9750 P   0  0  0  0  0  0  0  0  0  0  0  0
   -4.7658    1.8505    8.7547 O   0  0  0  0  0  0  0  0  0  0  0  0
   -6.1801    3.8589    9.2529 O   0  0  0  0  0  0  0  0  0  0  0  0
   -6.7799    1.9613    8.1740 O   0  0  0  0  0  0  0  0  0  0  0  0
    0.1426    0.0932    9.2301 N   0  0  0  0  0  0  0  0  0  0  0  0
   -0.5148   -1.0297    9.6976 N   0  0  0  0  0  0  0  0  0  0  0  0
   -1.8084   -0.7306    9.6333 N   0  0  0  0  0  0  0  0  0  0  0  0
   -1.8672    0.5911    9.8884 C   0  0  0  0  0  0  0  0  0  0  0  0
   -0.5906    1.1465    9.8025 C   0  0  0  0  0  0  0  0  0  0  0  0
   -0.3264    2.3833   10.4039 C   0  0  0  0  0  0  0  0  0  0  0  0
   -1.4438    3.1224   10.8597 C   0  0  0  0  0  0  0  0  0  0  0  0
   -2.7465    2.6601   10.7095 C   0  0  0  0  0  0  0  0  0  0  0  0
   -2.9425    1.3407   10.3307 C   0  0  0  0  0  0  0  0  0  0  0  0
    2.0260   -0.7952    7.7684 C   0  0  0  0  0  0  0  0  0  0  0  0
    3.2441   -0.1033    7.6739 C   0  0  0  0  0  0  0  0  0  0  0  0
    4.4615   -0.7959    7.5715 C   0  0  0  0  0  0  0  0  0  0  0  0
    4.4896   -2.1862    7.5687 C   0  0  0  0  0  0  0  0  0  0  0  0
    5.6538   -2.8345    7.4529 F   0  0  0  0  0  0  0  0  0  0  0  0
    3.3176   -2.8933    7.6783 C   0  0  0  0  0  0  0  0  0  0  0  0
    3.3033   -4.2326    7.7074 F   0  0  0  0  0  0  0  0  0  0  0  0
    2.1167   -2.2121    7.7647 C   0  0  0  0  0  0  0  0  0  0  0  0
   -0.4937   -0.5705    4.8366 C   0  0  0  0  0  0  0  0  0  0  0  0
   -0.7165   -0.9918    3.5722 C   0  0  0  0  0  0  0  0  0  0  0  0
    2.0078    0.0771   -0.1129 H   0  0  0  0  0  0  0  0  0  0  0  0
    2.3236   -1.1728    2.1579 H   0  0  0  0  0  0  0  0  0  0  0  0
   -0.2999   -4.3658    3.9794 H   0  0  0  0  0  0  0  0  0  0  0  0
   -0.3083   -3.6356    6.3222 H   0  0  0  0  0  0  0  0  0  0  0  0
   -1.4431   -0.8714    7.3481 H   0  0  0  0  0  0  0  0  0  0  0  0
   -0.3764   -2.0409    7.7671 H   0  0  0  0  0  0  0  0  0  0  0  0
    1.5209    1.9566    7.4053 H   0  0  0  0  0  0  0  0  0  0  0  0
    1.1339    1.1171    5.9476 H   0  0  0  0  0  0  0  0  0  0  0  0
   -1.8966    0.5739    6.5245 H   0  0  0  0  0  0  0  0  0  0  0  0
   -3.6427    1.5354    7.1545 H   0  0  0  0  0  0  0  0  0  0  0  0
   -1.6390    5.3563    7.4284 H   0  0  0  0  0  0  0  0  0  0  0  0
    0.4522    4.1426    6.8381 H   0  0  0  0  0  0  0  0  0  0  0  0
   -5.2548    1.0161    8.5538 H   0  0  0  0  0  0  0  0  0  0  0  0
   -5.7372    4.7256    9.3749 H   0  0  0  0  0  0  0  0  0  0  0  0
    0.6804    2.7288   10.5972 H   0  0  0  0  0  0  0  0  0  0  0  0
   -1.3044    4.0621   11.3885 H   0  0  0  0  0  0  0  0  0  0  0  0
   -3.6121    3.2795   10.9374 H   0  0  0  0  0  0  0  0  0  0  0  0
   -3.9139    0.8645   10.3578 H   0  0  0  0  0  0  0  0  0  0  0  0
    3.2938    0.9816    7.6532 H   0  0  0  0  0  0  0  0  0  0  0  0
    5.3957   -0.2500    7.4973 H   0  0  0  0  0  0  0  0  0  0  0  0
    1.2638   -2.8764    7.7946 H   0  0  0  0  0  0  0  0  0  0  0  0
   -0.5280    0.4951    4.9434 H   0  0  0  0  0  0  0  0  0  0  0  0
   -0.8535   -0.1778    2.8781 H   0  0  0  0  0  0  0  0  0  0  0  0
  1  2  1  0  0  0  0
  1 47  1  0  0  0  0
  2  3  1  0  0  0  0
  2  4  2  0  0  0  0
  2  5  1  0  0  0  0
  3 48  1  0  0  0  0
  5  6  1  0  0  0  0
  5  7  1  0  0  0  0
  5  8  1  0  0  0  0
  8  9  2  0  0  0  0
  8 46  1  0  0  0  0
  9 10  1  0  0  0  0
  9 49  1  0  0  0  0
 10 11  2  0  0  0  0
 10 50  1  0  0  0  0
 11 12  1  0  0  0  0
 11 45  1  0  0  0  0
 12 13  1  0  0  0  0
 12 51  1  0  0  0  0
 12 52  1  0  0  0  0
 13 14  1  0  0  0  0
 13 28  1  0  0  0  0
 13 37  1  0  0  0  0
 14 15  1  0  0  0  0
 14 53  1  0  0  0  0
 14 54  1  0  0  0  0
 15 16  2  0  0  0  0
 15 20  1  0  0  0  0
 16 17  1  0  0  0  0
 16 55  1  0  0  0  0
 17 18  2  0  0  0  0
 17 56  1  0  0  0  0
 18 19  1  0  0  0  0
 18 21  1  0  0  0  0
 19 20  2  0  0  0  0
 19 57  1  0  0  0  0
 20 58  1  0  0  0  0
 21 22  1  0  0  0  0
 21 23  1  0  0  0  0
 21 24  1  0  0  0  0
 24 25  1  0  0  0  0
 24 26  1  0  0  0  0
 24 27  2  0  0  0  0
 25 59  1  0  0  0  0
 26 60  1  0  0  0  0
 28 29  1  0  0  0  0
 28 32  1  0  0  0  0
 29 30  2  0  0  0  0
 30 31  1  0  0  0  0
 31 32  2  0  0  0  0
 31 36  1  0  0  0  0
 32 33  1  0  0  0  0
 33 34  2  0  0  0  0
 33 61  1  0  0  0  0
 34 35  1  0  0  0  0
 34 62  1  0  0  0  0
 35 36  2  0  0  0  0
 35 63  1  0  0  0  0
 36 64  1  0  0  0  0
 37 38  2  0  0  0  0
 37 44  1  0  0  0  0
 38 39  1  0  0  0  0
 38 65  1  0  0  0  0
 39 40  2  0  0  0  0
 39 66  1  0  0  0  0
 40 41  1  0  0  0  0
 40 42  1  0  0  0  0
 42 43  1  0  0  0  0
 42 44  2  0  0  0  0
 44 67  1  0  0  0  0
 45 46  2  0  0  0  0
 45 68  1  0  0  0  0
 46 69  1  0  0  0  0
M  END
>  <DRUGBANK_ID>
DB02651

>  <SECONDARY_ACCESSION_NUMBERS>
EXPT02473

>  <COMMON_NAME>
{[2-(1h-1,2,3-Benzotriazol-1-Yl)-2-(3,4-Difluorophenyl)Propane-1,3-Diyl]Bis[4,1-Phenylene(Difluoromethylene)]}Bis(Phosphonic Acid)

$$$$
