
 OpenBabel10282417133D

 74 77  0  0  0  0  0  0  0  0999 V2000
    1.8558    0.2539   -1.2697 O   0  0  0  0  0  0  0  0  0  0  0  0
    3.1745    2.6776    2.0811 O   0  0  0  0  0  0  0  0  0  0  0  0
   -1.4073    0.8857    4.5203 O   0  0  0  0  0  0  0  0  0  0  0  0
    6.6879   -3.5357   -1.0941 O   0  0  0  0  0  0  0  0  0  0  0  0
    6.7207    0.8612   -1.4096 O   0  0  0  0  0  0  0  0  0  0  0  0
    7.0476   -1.5578   -1.9923 O   0  0  0  0  0  0  0  0  0  0  0  0
    0.4120   -1.2828   -0.3180 N   0  0  0  0  0  0  0  0  0  0  0  0
    1.3224    2.1832    0.8848 N   0  0  0  0  0  0  0  0  0  0  0  0
    0.7111    0.9823    3.7875 N   0  0  0  0  0  0  0  0  0  0  0  0
    0.3383    1.2031    0.3922 C   0  0  1  0  0  0  0  0  0  0  0  0
   -0.8452    1.7364   -0.3776 C   0  0  0  0  0  0  0  0  0  0  0  0
   -2.0706    0.8388   -0.1364 C   0  0  0  0  0  0  0  0  0  0  0  0
   -1.9914   -0.5939   -0.6483 C   0  0  0  0  0  0  0  0  0  0  0  0
   -0.9872   -1.5256   -0.0428 C   0  0  0  0  0  0  0  0  0  0  0  0
    0.9316    0.0212   -0.4876 C   0  0  0  0  0  0  0  0  0  0  0  0
    1.2093   -2.4825   -0.7301 C   0  0  0  0  0  0  0  0  0  0  0  0
    1.9317    0.7913    2.9695 C   0  0  2  0  0  0  0  0  0  0  0  0
    2.1571    1.9825    1.9785 C   0  0  0  0  0  0  0  0  0  0  0  0
    1.2332   -3.6868    0.2447 C   0  0  0  0  0  0  0  0  0  0  0  0
    2.0447   -0.5376    2.2680 C   0  0  0  0  0  0  0  0  0  0  0  0
    0.1055   -4.1746    0.9048 C   0  0  0  0  0  0  0  0  0  0  0  0
    2.4051   -4.4280    0.4796 C   0  0  0  0  0  0  0  0  0  0  0  0
    3.2744   -0.8051    1.4594 C   0  0  0  0  0  0  0  0  0  0  0  0
    0.1647   -5.1894    1.8521 C   0  0  0  0  0  0  0  0  0  0  0  0
    2.5159   -5.3524    1.5286 C   0  0  0  0  0  0  0  0  0  0  0  0
    1.3815   -5.7323    2.2291 C   0  0  0  0  0  0  0  0  0  0  0  0
    3.9101    0.0584    0.5756 C   0  0  0  0  0  0  0  0  0  0  0  0
    3.7518   -2.0856    1.5111 C   0  0  0  0  0  0  0  0  0  0  0  0
   -0.4988    0.3574    3.8825 C   0  0  0  0  0  0  0  0  0  0  0  0
    4.9968   -0.3250   -0.2287 C   0  0  0  0  0  0  0  0  0  0  0  0
    1.4435   -6.8010    3.2008 C   0  0  0  0  0  0  0  0  0  0  0  0
    4.8134   -2.4995    0.7075 C   0  0  0  0  0  0  0  0  0  0  0  0
    5.4282   -1.6516   -0.2203 C   0  0  0  0  0  0  0  0  0  0  0  0
   -0.7814   -0.8826    3.1133 C   0  0  0  0  0  0  0  0  0  0  0  0
    0.8202   -8.0121    2.8779 C   0  0  0  0  0  0  0  0  0  0  0  0
    2.1795   -6.6816    4.3845 C   0  0  0  0  0  0  0  0  0  0  0  0
    5.6088    0.8375   -0.9143 C   0  0  0  0  0  0  0  0  0  0  0  0
    6.4647   -2.1932   -1.1703 C   0  0  0  0  0  0  0  0  0  0  0  0
    0.9444   -9.1052    3.7163 C   0  0  0  0  0  0  0  0  0  0  0  0
    2.3498   -7.7964    5.1970 C   0  0  0  0  0  0  0  0  0  0  0  0
    1.7103   -8.9955    4.8747 C   0  0  0  0  0  0  0  0  0  0  0  0
    6.1423   -4.1153   -0.5506 H   0  0  0  0  0  0  0  0  0  0  0  0
    1.6562    2.9054    0.2515 H   0  0  0  0  0  0  0  0  0  0  0  0
    0.7035    1.8569    4.2985 H   0  0  0  0  0  0  0  0  0  0  0  0
   -0.0747    0.9005    1.3292 H   0  0  0  0  0  0  0  0  0  0  0  0
   -1.0864    2.7544   -0.0559 H   0  0  0  0  0  0  0  0  0  0  0  0
   -0.6063    1.7629   -1.4447 H   0  0  0  0  0  0  0  0  0  0  0  0
   -2.3209    0.8285    0.9335 H   0  0  0  0  0  0  0  0  0  0  0  0
   -2.9184    1.2959   -0.6509 H   0  0  0  0  0  0  0  0  0  0  0  0
   -2.9621   -1.0657   -0.4461 H   0  0  0  0  0  0  0  0  0  0  0  0
   -1.8268   -0.6180   -1.7272 H   0  0  0  0  0  0  0  0  0  0  0  0
   -1.1819   -1.7420    0.9988 H   0  0  0  0  0  0  0  0  0  0  0  0
   -1.2249   -2.4751   -0.5192 H   0  0  0  0  0  0  0  0  0  0  0  0
    0.7890   -2.8182   -1.6791 H   0  0  0  0  0  0  0  0  0  0  0  0
    2.2352   -2.1551   -0.9336 H   0  0  0  0  0  0  0  0  0  0  0  0
    2.7597    0.8000    3.6906 H   0  0  0  0  0  0  0  0  0  0  0  0
    1.8852   -1.3547    2.9773 H   0  0  0  0  0  0  0  0  0  0  0  0
    1.2048   -0.6578    1.6246 H   0  0  0  0  0  0  0  0  0  0  0  0
   -0.8950   -3.8311    0.7187 H   0  0  0  0  0  0  0  0  0  0  0  0
    3.3071   -4.2367   -0.0844 H   0  0  0  0  0  0  0  0  0  0  0  0
   -0.7652   -5.5582    2.2769 H   0  0  0  0  0  0  0  0  0  0  0  0
    3.4799   -5.7935    1.7866 H   0  0  0  0  0  0  0  0  0  0  0  0
    3.5441    1.0619    0.4089 H   0  0  0  0  0  0  0  0  0  0  0  0
    3.1917   -2.7971    2.1144 H   0  0  0  0  0  0  0  0  0  0  0  0
    5.0921   -3.5356    0.8255 H   0  0  0  0  0  0  0  0  0  0  0  0
   -0.7246   -0.5073    2.1171 H   0  0  0  0  0  0  0  0  0  0  0  0
   -0.0952   -1.7175    3.2388 H   0  0  0  0  0  0  0  0  0  0  0  0
   -1.8080   -1.2422    3.1946 H   0  0  0  0  0  0  0  0  0  0  0  0
    0.2625   -8.0989    1.9465 H   0  0  0  0  0  0  0  0  0  0  0  0
    2.6348   -5.7325    4.6613 H   0  0  0  0  0  0  0  0  0  0  0  0
    5.0333    1.7796   -0.8534 H   0  0  0  0  0  0  0  0  0  0  0  0
    0.4673  -10.0406    3.4434 H   0  0  0  0  0  0  0  0  0  0  0  0
    2.9939   -7.7367    6.0697 H   0  0  0  0  0  0  0  0  0  0  0  0
    1.8113   -9.8538    5.5302 H   0  0  0  0  0  0  0  0  0  0  0  0
  1 15  2  0  0  0  0
  2 18  2  0  0  0  0
  3 29  2  0  0  0  0
  4 38  1  0  0  0  0
  4 42  1  0  0  0  0
  5 37  2  0  0  0  0
  6 38  2  0  0  0  0
  7 14  1  0  0  0  0
  7 15  1  0  0  0  0
  7 16  1  0  0  0  0
  8 18  1  0  0  0  0
  8 43  1  0  0  0  0
  9 29  1  0  0  0  0
  9 44  1  0  0  0  0
 10 11  1  0  0  0  0
 10 15  1  0  0  0  0
 10 45  1  1  0  0  0
 10  8  1  0  0  0  0
 11 12  1  0  0  0  0
 11 46  1  0  0  0  0
 11 47  1  0  0  0  0
 12 13  1  0  0  0  0
 12 48  1  0  0  0  0
 12 49  1  0  0  0  0
 13 14  1  0  0  0  0
 13 50  1  0  0  0  0
 13 51  1  0  0  0  0
 14 52  1  0  0  0  0
 14 53  1  0  0  0  0
 16 19  1  0  0  0  0
 16 54  1  0  0  0  0
 16 55  1  0  0  0  0
 17  9  1  0  0  0  0
 17 18  1  0  0  0  0
 17 20  1  0  0  0  0
 17 56  1  1  0  0  0
 19 21  2  0  0  0  0
 19 22  1  0  0  0  0
 20 23  1  0  0  0  0
 20 57  1  0  0  0  0
 20 58  1  0  0  0  0
 21 24  1  0  0  0  0
 21 59  1  0  0  0  0
 22 25  2  0  0  0  0
 22 60  1  0  0  0  0
 23 27  2  0  0  0  0
 23 28  1  0  0  0  0
 24 26  2  0  0  0  0
 24 61  1  0  0  0  0
 25 26  1  0  0  0  0
 25 62  1  0  0  0  0
 26 31  1  0  0  0  0
 27 30  1  0  0  0  0
 27 63  1  0  0  0  0
 28 32  2  0  0  0  0
 28 64  1  0  0  0  0
 29 34  1  0  0  0  0
 30 33  2  0  0  0  0
 30 37  1  0  0  0  0
 31 35  2  0  0  0  0
 31 36  1  0  0  0  0
 32 33  1  0  0  0  0
 32 65  1  0  0  0  0
 33 38  1  0  0  0  0
 34 66  1  0  0  0  0
 34 67  1  0  0  0  0
 34 68  1  0  0  0  0
 35 39  1  0  0  0  0
 35 69  1  0  0  0  0
 36 40  2  0  0  0  0
 36 70  1  0  0  0  0
 37 71  1  0  0  0  0
 39 41  2  0  0  0  0
 39 72  1  0  0  0  0
 40 41  1  0  0  0  0
 40 73  1  0  0  0  0
 41 74  1  0  0  0  0
M  END
>  <DRUGBANK_ID>
DB03268

>  <SECONDARY_ACCESSION_NUMBERS>
EXPT00063

>  <COMMON_NAME>
RU82197

>  <SYNONYMS>
4-[2-Acetylamino-2-(1-biphenyl-4-ylmethyl-2-oxo-azepan-3-ylcarbamoyl)-ethyl]-2-formyl-benzoic acid

$$$$
