1429
 OpenBabel10282417113D

 54 56  0  0  1  0  0  0  0  0999 V2000
    1.1375   -0.3019    0.3480 N   0  0  0  0  0  0  0  0  0  0  0  0
    2.3971    3.3291    0.0331 N   0  0  0  0  0  0  0  0  0  0  0  0
    0.2589   -1.4600    0.1926 C   0  0  0  0  0  0  0  0  0  0  0  0
    0.4392   -2.2964    1.4568 C   0  0  0  0  0  0  0  0  0  0  0  0
    0.4264   -2.3247   -1.0807 C   0  0  0  0  0  0  0  0  0  0  0  0
    0.1683   -3.6394    0.9181 C   0  0  0  0  0  0  0  0  0  0  0  0
    0.1439   -3.6745   -0.4858 C   0  0  0  0  0  0  0  0  0  0  0  0
    0.2923    0.9836    0.3478 C   0  0  0  0  0  0  0  0  0  0  0  0
    0.5177    2.0795    1.3772 C   0  0  0  0  0  0  0  0  0  0  0  0
    2.5226   -0.5666    0.4840 C   0  0  0  0  0  0  0  0  0  0  0  0
    0.0088   -4.7561    1.7022 C   0  0  0  0  0  0  0  0  0  0  0  0
   -0.1106   -4.8628   -1.1339 C   0  0  0  0  0  0  0  0  0  0  0  0
    1.8724    2.7777    1.3394 C   0  0  0  0  0  0  0  0  0  0  0  0
   -0.2683   -5.9459    1.0569 C   0  0  0  0  0  0  0  0  0  0  0  0
   -0.3404   -5.9971   -0.3469 C   0  0  0  0  0  0  0  0  0  0  0  0
    3.4607    0.3467    0.8370 C   0  0  0  0  0  0  0  0  0  0  0  0
    3.2189   -1.7640    0.2245 C   0  0  0  0  0  0  0  0  0  0  0  0
    3.7309    3.9687    0.1082 C   0  0  0  0  0  0  0  0  0  0  0  0
    2.1527    2.7571   -1.3382 C   0  0  0  0  0  0  0  0  0  0  0  0
    4.8509    0.2414    1.0426 C   0  0  0  0  0  0  0  0  0  0  0  0
    4.6507   -1.8821    0.2411 C   0  0  0  0  0  0  0  0  0  0  0  0
    4.8771    2.9995    0.0758 C   0  0  0  0  0  0  0  0  0  0  0  0
    2.6202    1.3745   -1.8758 C   0  0  0  0  0  0  0  0  0  0  0  0
    5.4814   -0.8459    0.5168 C   0  0  0  0  0  0  0  0  0  0  0  0
   -0.8035   -1.1645    0.1562 H   0  0  0  0  0  0  0  0  0  0  0  0
    1.4477   -2.2778    1.8770 H   0  0  0  0  0  0  0  0  0  0  0  0
   -0.2354   -1.9535    2.2433 H   0  0  0  0  0  0  0  0  0  0  0  0
   -0.3059   -2.0589   -1.8536 H   0  0  0  0  0  0  0  0  0  0  0  0
    1.4080   -2.2671   -1.5593 H   0  0  0  0  0  0  0  0  0  0  0  0
    0.1939    1.3817   -0.6619 H   0  0  0  0  0  0  0  0  0  0  0  0
   -0.7684    0.7179    0.5173 H   0  0  0  0  0  0  0  0  0  0  0  0
   -0.2532    2.8615    1.2936 H   0  0  0  0  0  0  0  0  0  0  0  0
    0.3448    1.6276    2.3673 H   0  0  0  0  0  0  0  0  0  0  0  0
    0.0934   -4.6808    2.7812 H   0  0  0  0  0  0  0  0  0  0  0  0
   -0.1498   -4.9186   -2.2165 H   0  0  0  0  0  0  0  0  0  0  0  0
    1.8968    3.5711    2.0988 H   0  0  0  0  0  0  0  0  0  0  0  0
    2.4998    2.0842    1.9124 H   0  0  0  0  0  0  0  0  0  0  0  0
   -0.4363   -6.8364    1.6521 H   0  0  0  0  0  0  0  0  0  0  0  0
   -0.5802   -6.9413   -0.8250 H   0  0  0  0  0  0  0  0  0  0  0  0
    3.1841    1.3379    0.5778 H   0  0  0  0  0  0  0  0  0  0  0  0
    2.7183   -2.6708   -0.0476 H   0  0  0  0  0  0  0  0  0  0  0  0
    3.8661    4.6709   -0.7155 H   0  0  0  0  0  0  0  0  0  0  0  0
    3.8283    4.5316    1.0427 H   0  0  0  0  0  0  0  0  0  0  0  0
    1.0790    2.8178   -1.5202 H   0  0  0  0  0  0  0  0  0  0  0  0
    2.5472    3.4767   -2.0643 H   0  0  0  0  0  0  0  0  0  0  0  0
    5.4816    1.0207    1.4174 H   0  0  0  0  0  0  0  0  0  0  0  0
    5.1158   -2.8532    0.0915 H   0  0  0  0  0  0  0  0  0  0  0  0
    4.7979    2.2697   -0.7293 H   0  0  0  0  0  0  0  0  0  0  0  0
    5.8985    3.3718    0.0301 H   0  0  0  0  0  0  0  0  0  0  0  0
    4.7882    2.5787    1.0649 H   0  0  0  0  0  0  0  0  0  0  0  0
    2.0709    0.6105   -1.3780 H   0  0  0  0  0  0  0  0  0  0  0  0
    2.3353    1.1377   -2.9063 H   0  0  0  0  0  0  0  0  0  0  0  0
    3.6812    1.1314   -1.7870 H   0  0  0  0  0  0  0  0  0  0  0  0
    6.5560   -0.8076    0.4095 H   0  0  0  0  0  0  0  0  0  0  0  0
  1  3  1  0  0  0  0
  1  8  1  0  0  0  0
  1 10  1  0  0  0  0
  2 13  1  0  0  0  0
  2 18  1  0  0  0  0
  2 19  1  0  0  0  0
  3  4  1  0  0  0  0
  3  5  1  0  0  0  0
  3 25  1  0  0  0  0
  4  6  1  0  0  0  0
  4 26  1  0  0  0  0
  4 27  1  0  0  0  0
  5  7  1  0  0  0  0
  5 28  1  0  0  0  0
  5 29  1  0  0  0  0
  6  7  1  0  0  0  0
  6 11  2  0  0  0  0
  7 12  2  0  0  0  0
  8  9  1  0  0  0  0
  8 30  1  0  0  0  0
  8 31  1  0  0  0  0
  9 13  1  0  0  0  0
  9 32  1  0  0  0  0
  9 33  1  0  0  0  0
 10 16  2  0  0  0  0
 10 17  1  0  0  0  0
 11 14  1  0  0  0  0
 11 34  1  0  0  0  0
 12 15  1  0  0  0  0
 12 35  1  0  0  0  0
 13 36  1  0  0  0  0
 13 37  1  0  0  0  0
 14 15  2  0  0  0  0
 14 38  1  0  0  0  0
 15 39  1  0  0  0  0
 16 20  1  0  0  0  0
 16 40  1  0  0  0  0
 17 21  2  0  0  0  0
 17 41  1  0  0  0  0
 18 22  1  0  0  0  0
 18 42  1  0  0  0  0
 18 43  1  0  0  0  0
 19 23  1  0  0  0  0
 19 44  1  0  0  0  0
 19 45  1  0  0  0  0
 20 24  2  0  0  0  0
 20 46  1  0  0  0  0
 21 24  1  0  0  0  0
 21 47  1  0  0  0  0
 22 48  1  0  0  0  0
 22 49  1  0  0  0  0
 22 50  1  0  0  0  0
 23 51  1  0  0  0  0
 23 52  1  0  0  0  0
 23 53  1  0  0  0  0
 24 54  1  0  0  0  0
M  END
>  <DRUGBANK_ID>
DB01429

>  <COMMON_NAME>
Aprindine

>  <CAS_NUMBER>
37640-71-4

>  <UNII>
5Y48085P9Q

>  <SYNONYMS>
Aprindina; Aprindine; Aprindinum

$$$$
