GG5
 OpenBabel10282417163D

 28 30  0  0  0  0  0  0  0  0999 V2000
   -0.6043   -1.1651    0.0169 C   0  0  0  0  0  0  0  0  0  0  0  0
   -1.3484   -0.0390    0.0146 N   0  0  0  0  0  0  0  0  0  0  0  0
   -0.6795    1.1343    0.0230 C   0  0  0  0  0  0  0  0  0  0  0  0
    0.7016    1.2369    0.0406 C   0  0  0  0  0  0  0  0  0  0  0  0
    1.4428    0.0582    0.0403 C   0  0  0  0  0  0  0  0  0  0  0  0
    0.7788   -1.1689    0.0260 C   0  0  0  0  0  0  0  0  0  0  0  0
    2.8889    0.0945   -0.0263 C   0  0  0  0  0  0  0  0  0  0  0  0
    3.7097    0.6697    0.9107 C   0  0  0  0  0  0  0  0  0  0  0  0
    4.9840    0.4450    0.4763 N   0  0  0  0  0  0  0  0  0  0  0  0
    5.0495   -0.2498   -0.6754 N   0  0  0  0  0  0  0  0  0  0  0  0
    3.7676   -0.4502   -1.0103 C   0  0  0  0  0  0  0  0  0  0  0  0
    3.3575   -1.1342   -2.2302 C   0  0  0  0  0  0  0  0  0  0  0  0
    2.5423   -0.4567   -3.1513 C   0  0  0  0  0  0  0  0  0  0  0  0
    1.9767   -1.1401   -4.2262 C   0  0  0  0  0  0  0  0  0  0  0  0
    2.2399   -2.4947   -4.3849 C   0  0  0  0  0  0  0  0  0  0  0  0
    3.0718   -3.1746   -3.4997 C   0  0  0  0  0  0  0  0  0  0  0  0
    3.6389   -2.4929   -2.4192 C   0  0  0  0  0  0  0  0  0  0  0  0
    1.6706   -3.1593   -5.3989 F   0  0  0  0  0  0  0  0  0  0  0  0
   -1.1653   -2.0949    0.0043 H   0  0  0  0  0  0  0  0  0  0  0  0
   -1.3053    2.0217    0.0041 H   0  0  0  0  0  0  0  0  0  0  0  0
    1.1783    2.2100    0.0240 H   0  0  0  0  0  0  0  0  0  0  0  0
    1.3192   -2.1097    0.0095 H   0  0  0  0  0  0  0  0  0  0  0  0
    3.5107    1.1933    1.8369 H   0  0  0  0  0  0  0  0  0  0  0  0
    5.8516    0.7287    0.9161 H   0  0  0  0  0  0  0  0  0  0  0  0
    2.3184    0.5988   -3.0120 H   0  0  0  0  0  0  0  0  0  0  0  0
    1.3179   -0.6297   -4.9209 H   0  0  0  0  0  0  0  0  0  0  0  0
    3.2540   -4.2345   -3.6450 H   0  0  0  0  0  0  0  0  0  0  0  0
    4.2630   -3.0284   -1.7077 H   0  0  0  0  0  0  0  0  0  0  0  0
  1  6  2  0  0  0  0
  1  2  1  0  0  0  0
  1 19  1  0  0  0  0
  2  3  2  0  0  0  0
  3  4  1  0  0  0  0
  3 20  1  0  0  0  0
  4  5  2  0  0  0  0
  4 21  1  0  0  0  0
  5  6  1  0  0  0  0
  5  7  1  0  0  0  0
  6 22  1  0  0  0  0
  7 11  1  0  0  0  0
  7  8  2  0  0  0  0
  8  9  1  0  0  0  0
  8 23  1  0  0  0  0
  9 10  1  0  0  0  0
  9 24  1  0  0  0  0
 10 11  2  0  0  0  0
 11 12  1  0  0  0  0
 12 13  2  0  0  0  0
 12 17  1  0  0  0  0
 13 14  1  0  0  0  0
 13 25  1  0  0  0  0
 14 15  2  0  0  0  0
 14 26  1  0  0  0  0
 15 18  1  0  0  0  0
 15 16  1  0  0  0  0
 16 17  2  0  0  0  0
 16 27  1  0  0  0  0
 17 28  1  0  0  0  0
M  END
>  <DRUGBANK_ID>
DB07829

>  <COMMON_NAME>
4-[3-(4-FLUOROPHENYL)-1H-PYRAZOL-4-YL]PYRIDINE

$$$$
