
 OpenBabel10282417123D

 24 24  0  0  1  0  0  0  0  0999 V2000
    1.8526    0.0756   -0.6775 C   0  0  0  0  0  0  0  0  0  0  0  0
   -0.0106   -1.1830    0.5283 C   0  0  0  0  0  0  0  0  0  0  0  0
    0.9080    0.0399    0.5304 C   0  0  2  0  0  0  0  0  0  0  0  0
   -1.1001   -0.8065   -0.4678 C   0  0  1  0  0  0  0  0  0  0  0  0
   -0.1023    1.1878    0.4678 C   0  0  2  0  0  0  0  0  0  0  0  0
   -0.4978    1.7054    1.8606 C   0  0  0  0  0  0  0  0  0  0  0  0
   -1.2939    0.6710   -0.2648 N   0  0  0  0  0  0  0  0  0  0  0  0
   -0.3387    2.8492    2.2620 O   0  0  0  0  0  0  0  0  0  0  0  0
   -1.0520    0.7793    2.6723 O   0  0  0  0  0  0  0  0  0  0  0  0
   -1.8929   -2.2756   -2.5393 O   0  0  0  0  0  0  0  0  0  0  0  0
   -0.6977   -0.1695   -3.0733 O   0  0  0  0  0  0  0  0  0  0  0  0
    0.5241   -2.2081   -2.2016 O   0  0  0  0  0  0  0  0  0  0  0  0
   -0.6289   -1.3283   -2.2137 S   0  0  0  0  0  0  0  0  0  0  0  0
    1.5177    0.0567    1.4405 H   0  0  0  0  0  0  0  0  0  0  0  0
   -2.0384   -1.3309   -0.2560 H   0  0  0  0  0  0  0  0  0  0  0  0
    0.3120    2.0495   -0.0687 H   0  0  0  0  0  0  0  0  0  0  0  0
    2.4257   -0.8534   -0.7572 H   0  0  0  0  0  0  0  0  0  0  0  0
    1.3260    0.2351   -1.6185 H   0  0  0  0  0  0  0  0  0  0  0  0
    2.5493    0.9141   -0.6111 H   0  0  0  0  0  0  0  0  0  0  0  0
    0.5024   -2.1244    0.3199 H   0  0  0  0  0  0  0  0  0  0  0  0
   -0.4614   -1.2955    1.5243 H   0  0  0  0  0  0  0  0  0  0  0  0
   -1.2959    1.0910   -1.2034 H   0  0  0  0  0  0  0  0  0  0  0  0
   -1.2718    1.2679    3.4930 H   0  0  0  0  0  0  0  0  0  0  0  0
   -1.7048   -3.1810   -2.2161 H   0  0  0  0  0  0  0  0  0  0  0  0
  1 17  1  0  0  0  0
  1 18  1  0  0  0  0
  1 19  1  0  0  0  0
  2 20  1  0  0  0  0
  2 21  1  0  0  0  0
  3  1  1  0  0  0  0
  3  2  1  0  0  0  0
  3 14  1  1  0  0  0
  4  2  1  0  0  0  0
  4 15  1  1  0  0  0
  4 13  1  0  0  0  0
  5  3  1  0  0  0  0
  5  6  1  0  0  0  0
  5 16  1  6  0  0  0
  7  4  1  0  0  0  0
  7  5  1  0  0  0  0
  7 22  1  0  0  0  0
  8  6  2  0  0  0  0
  9  6  1  0  0  0  0
  9 23  1  0  0  0  0
 10 24  1  0  0  0  0
 13 10  1  0  0  0  0
 13 11  2  0  0  0  0
 13 12  2  0  0  0  0
M  END
>  <DRUGBANK_ID>
DB02248

>  <SECONDARY_ACCESSION_NUMBERS>
EXPT00681

>  <COMMON_NAME>
3-Methyl-5-Sulfo-Pyrrolidine-2-Carboxylic Acid

$$$$
