
 OpenBabel10282417233D

 55 57  0  0  0  0  0  0  0  0999 V2000
    0.7465   -0.2354    0.0329 C   0  0  0  0  0  0  0  0  0  0  0  0
    0.3818   -0.0740   -1.4620 C   0  0  0  0  0  0  0  0  0  0  0  0
   -1.1004   -0.4605   -1.5575 C   0  0  0  0  0  0  0  0  0  0  0  0
    1.2506   -1.0134   -2.3337 C   0  0  0  0  0  0  0  0  0  0  0  0
    2.7141   -0.5520   -2.4106 C   0  0  0  0  0  0  0  0  0  0  0  0
    2.8061    0.8702   -2.9577 C   0  0  0  0  0  0  0  0  0  0  0  0
    2.0066    1.8506   -2.0681 C   0  0  0  0  0  0  0  0  0  0  0  0
    2.6124    1.9491   -0.6619 C   0  0  0  0  0  0  0  0  0  0  0  0
    2.0721    3.2606   -2.6619 C   0  0  0  0  0  0  0  0  0  0  0  0
    0.5399    1.3736   -1.9999 C   0  0  0  0  0  0  0  0  0  0  0  0
    3.7910   -1.2763   -1.9944 C   0  0  0  0  0  0  0  0  0  0  0  0
    5.1753   -0.7020   -2.0634 C   0  0  0  0  0  0  0  0  0  0  0  0
    5.5656    0.4086   -1.3001 C   0  0  0  0  0  0  0  0  0  0  0  0
    6.8410    0.9681   -1.4000 C   0  0  0  0  0  0  0  0  0  0  0  0
    7.7770    0.3514   -2.2121 C   0  0  0  0  0  0  0  0  0  0  0  0
    9.0533    0.8174   -2.3119 O   0  0  0  0  0  0  0  0  0  0  0  0
    7.4393   -0.7855   -2.9380 C   0  0  0  0  0  0  0  0  0  0  0  0
    6.1420   -1.3073   -2.8715 C   0  0  0  0  0  0  0  0  0  0  0  0
    3.6145   -2.6672   -1.4934 C   0  0  0  0  0  0  0  0  0  0  0  0
    3.0555   -3.6625   -2.3022 C   0  0  0  0  0  0  0  0  0  0  0  0
    3.0260   -4.9922   -1.8731 C   0  0  0  0  0  0  0  0  0  0  0  0
    3.5931   -5.3603   -0.6424 C   0  0  0  0  0  0  0  0  0  0  0  0
    4.1918   -4.3702    0.1442 C   0  0  0  0  0  0  0  0  0  0  0  0
    4.1463   -3.0285   -0.2505 C   0  0  0  0  0  0  0  0  0  0  0  0
    3.4816   -6.7950   -0.2334 C   0  0  0  0  0  0  0  0  0  0  0  0
    4.0099   -7.1251    0.9660 O   0  0  0  0  0  0  0  0  0  0  0  0
    2.9182   -7.6198   -0.9266 O   0  0  0  0  0  0  0  0  0  0  0  0
    0.2044   -1.0603    0.5036 H   0  0  0  0  0  0  0  0  0  0  0  0
    0.5100    0.6747    0.5944 H   0  0  0  0  0  0  0  0  0  0  0  0
    1.7926   -0.5009    0.1962 H   0  0  0  0  0  0  0  0  0  0  0  0
   -1.2594   -1.4736   -1.1717 H   0  0  0  0  0  0  0  0  0  0  0  0
   -1.7065    0.2246   -0.9519 H   0  0  0  0  0  0  0  0  0  0  0  0
   -1.4674   -0.4264   -2.5861 H   0  0  0  0  0  0  0  0  0  0  0  0
    1.1377   -2.0236   -1.9359 H   0  0  0  0  0  0  0  0  0  0  0  0
    0.8557   -1.0480   -3.3594 H   0  0  0  0  0  0  0  0  0  0  0  0
    3.8333    1.2309   -3.0543 H   0  0  0  0  0  0  0  0  0  0  0  0
    2.4127    0.8748   -3.9848 H   0  0  0  0  0  0  0  0  0  0  0  0
    3.5563    2.4958   -0.6625 H   0  0  0  0  0  0  0  0  0  0  0  0
    1.9339    2.4393    0.0410 H   0  0  0  0  0  0  0  0  0  0  0  0
    2.8541    0.9722   -0.2567 H   0  0  0  0  0  0  0  0  0  0  0  0
    1.6515    3.2978   -3.6702 H   0  0  0  0  0  0  0  0  0  0  0  0
    1.5214    3.9663   -2.0300 H   0  0  0  0  0  0  0  0  0  0  0  0
    3.1126    3.6025   -2.7137 H   0  0  0  0  0  0  0  0  0  0  0  0
    0.1180    1.4153   -3.0186 H   0  0  0  0  0  0  0  0  0  0  0  0
   -0.0612    2.0736   -1.4068 H   0  0  0  0  0  0  0  0  0  0  0  0
    4.8752    0.8617   -0.6080 H   0  0  0  0  0  0  0  0  0  0  0  0
    7.0703    1.8655   -0.8337 H   0  0  0  0  0  0  0  0  0  0  0  0
    9.1539    1.5914   -1.7336 H   0  0  0  0  0  0  0  0  0  0  0  0
    8.1872   -1.2669   -3.5598 H   0  0  0  0  0  0  0  0  0  0  0  0
    5.8964   -2.1944   -3.4496 H   0  0  0  0  0  0  0  0  0  0  0  0
    2.6302   -3.4037   -3.2700 H   0  0  0  0  0  0  0  0  0  0  0  0
    2.5712   -5.7401   -2.5215 H   0  0  0  0  0  0  0  0  0  0  0  0
    4.7228   -4.5926    1.0607 H   0  0  0  0  0  0  0  0  0  0  0  0
    4.5526   -2.2675    0.4137 H   0  0  0  0  0  0  0  0  0  0  0  0
    4.4248   -6.4301    1.4986 H   0  0  0  0  0  0  0  0  0  0  0  0
  1  2  1  0  0  0  0
  1 28  1  0  0  0  0
  1 29  1  0  0  0  0
  1 30  1  0  0  0  0
  2  3  1  0  0  0  0
  2  4  1  0  0  0  0
  2 10  1  0  0  0  0
  3 31  1  0  0  0  0
  3 32  1  0  0  0  0
  3 33  1  0  0  0  0
  4  5  1  0  0  0  0
  4 34  1  0  0  0  0
  4 35  1  0  0  0  0
  5  6  1  0  0  0  0
  5 11  2  0  0  0  0
  6  7  1  0  0  0  0
  6 36  1  0  0  0  0
  6 37  1  0  0  0  0
  7  8  1  0  0  0  0
  7  9  1  0  0  0  0
  7 10  1  0  0  0  0
  8 38  1  0  0  0  0
  8 39  1  0  0  0  0
  8 40  1  0  0  0  0
  9 41  1  0  0  0  0
  9 42  1  0  0  0  0
  9 43  1  0  0  0  0
 10 44  1  0  0  0  0
 10 45  1  0  0  0  0
 11 12  1  0  0  0  0
 11 19  1  0  0  0  0
 12 13  2  0  0  0  0
 12 18  1  0  0  0  0
 13 14  1  0  0  0  0
 13 46  1  0  0  0  0
 14 15  2  0  0  0  0
 14 47  1  0  0  0  0
 15 16  1  0  0  0  0
 15 17  1  0  0  0  0
 16 48  1  0  0  0  0
 17 18  2  0  0  0  0
 17 49  1  0  0  0  0
 18 50  1  0  0  0  0
 19 20  2  0  0  0  0
 19 24  1  0  0  0  0
 20 21  1  0  0  0  0
 20 51  1  0  0  0  0
 21 22  2  0  0  0  0
 21 52  1  0  0  0  0
 22 23  1  0  0  0  0
 22 25  1  0  0  0  0
 23 24  2  0  0  0  0
 23 53  1  0  0  0  0
 24 54  1  0  0  0  0
 25 26  1  0  0  0  0
 25 27  2  0  0  0  0
 26 55  1  0  0  0  0
M  END
>  <DRUGBANK_ID>
DB16110

>  <COMMON_NAME>
GSK232802

>  <CAS_NUMBER>
843661-24-5

>  <UNII>
AG92SGO434

$$$$
