
 OpenBabel10282417223D

 18 17  0  0  0  0  0  0  0  0999 V2000
    1.0475   -0.1011    0.0268 C   0  0  0  0  0  0  0  0  0  0  0  0
    0.5631    1.3490    0.0736 C   0  0  0  0  0  0  0  0  0  0  0  0
    1.0748    2.1011   -1.1588 C   0  0  0  0  0  0  0  0  0  0  0  0
   -0.8593    1.3975    0.0054 O   0  0  0  0  0  0  0  0  0  0  0  0
    1.0400    2.0352    1.3644 C   0  0  0  0  0  0  0  0  0  0  0  0
    0.5121    1.3443    2.6075 C   0  0  0  0  0  0  0  0  0  0  0  0
    1.4692    0.8392    3.4198 O   0  0  0  0  0  0  0  0  0  0  0  0
   -0.6724    1.2284    2.8906 O   0  0  0  0  0  0  0  0  0  0  0  0
    0.6851   -0.6115   -0.8712 H   0  0  0  0  0  0  0  0  0  0  0  0
    0.6734   -0.6757    0.8804 H   0  0  0  0  0  0  0  0  0  0  0  0
    2.1423   -0.1449    0.0356 H   0  0  0  0  0  0  0  0  0  0  0  0
    0.7065    1.6292   -2.0785 H   0  0  0  0  0  0  0  0  0  0  0  0
    0.6992    3.1308   -1.1731 H   0  0  0  0  0  0  0  0  0  0  0  0
    2.1676    2.1240   -1.1966 H   0  0  0  0  0  0  0  0  0  0  0  0
   -1.1654    0.8773   -0.7562 H   0  0  0  0  0  0  0  0  0  0  0  0
    2.1366    2.0657    1.3886 H   0  0  0  0  0  0  0  0  0  0  0  0
    0.6941    3.0750    1.4082 H   0  0  0  0  0  0  0  0  0  0  0  0
    2.3920    0.9813    3.1447 H   0  0  0  0  0  0  0  0  0  0  0  0
  1  2  1  0  0  0  0
  1  9  1  0  0  0  0
  1 10  1  0  0  0  0
  1 11  1  0  0  0  0
  2  3  1  0  0  0  0
  2  4  1  0  0  0  0
  2  5  1  0  0  0  0
  3 12  1  0  0  0  0
  3 13  1  0  0  0  0
  3 14  1  0  0  0  0
  4 15  1  0  0  0  0
  5  6  1  0  0  0  0
  5 16  1  0  0  0  0
  5 17  1  0  0  0  0
  6  7  1  0  0  0  0
  6  8  2  0  0  0  0
  7 18  1  0  0  0  0
M  END
>  <DRUGBANK_ID>
DB15344

>  <COMMON_NAME>
beta-Hydroxyisovaleric acid

>  <CAS_NUMBER>
625-08-1

>  <UNII>
3F752311CD

>  <SYNONYMS>
beta-Hydroxy-methylbutyrate

$$$$
