
 OpenBabel10282417183D

 44 47  0  0  1  0  0  0  0  0999 V2000
    1.7335   -0.1774    0.8406 C   0  0  0  0  0  0  0  0  0  0  0  0
   -1.6590   -4.6726    0.7182 C   0  0  0  0  0  0  0  0  0  0  0  0
   -1.0547    2.1617    3.6332 C   0  0  0  0  0  0  0  0  0  0  0  0
   -0.5415   -0.9724    3.0268 C   0  0  0  0  0  0  0  0  0  0  0  0
    0.4767   -2.4207    4.0017 C   0  0  0  0  0  0  0  0  0  0  0  0
    0.5384   -2.1972    2.1750 C   0  0  0  0  0  0  0  0  0  0  0  0
    1.1401   -0.4632    3.2069 C   0  0  0  0  0  0  0  0  0  0  0  0
   -0.0426    0.2318    1.3391 C   0  0  2  0  0  0  0  0  0  0  0  0
   -0.3358   -4.5786    1.6462 C   0  0  2  0  0  0  0  0  0  0  0  0
   -1.2024   -1.3785    1.8666 C   0  0  1  0  0  0  0  0  0  0  0  0
   -0.6503   -3.6779    3.2687 C   0  0  1  0  0  0  0  0  0  0  0  0
    0.9404   -3.6644    0.4507 C   0  0  1  0  0  0  0  0  0  0  0  0
   -1.1131   -1.4475    1.2033 C   0  0  2  0  0  0  0  0  0  0  0  0
   -0.5809    0.7553    3.6881 C   0  0  2  0  0  0  0  0  0  0  0  0
   -1.6326   -2.4968    2.9307 C   0  0  2  0  0  0  0  0  0  0  0  0
    1.1491   -4.9634   -0.0759 O   0  0  0  0  0  0  0  0  0  0  0  0
   -0.1019   -2.1821   -0.1554 O   0  0  0  0  0  0  0  0  0  0  0  0
   -1.7356    0.3759    2.0984 O   0  0  0  0  0  0  0  0  0  0  0  0
   -1.0502   -0.1039    4.9690 O   0  0  0  0  0  0  0  0  0  0  0  0
   -1.5275   -1.8133    4.6246 O   0  0  0  0  0  0  0  0  0  0  0  0
   -0.5621    0.2655    0.2903 H   0  0  0  0  0  0  0  0  0  0  0  0
   -0.3385   -5.6123    2.0276 H   0  0  0  0  0  0  0  0  0  0  0  0
   -2.5653   -1.8349    1.5324 H   0  0  0  0  0  0  0  0  0  0  0  0
   -1.0141   -4.3212    4.0718 H   0  0  0  0  0  0  0  0  0  0  0  0
    1.2154   -3.3747   -0.5539 H   0  0  0  0  0  0  0  0  0  0  0  0
    0.3272   -1.2128    1.1163 H   0  0  0  0  0  0  0  0  0  0  0  0
    1.8657   -1.1248    0.2849 H   0  0  0  0  0  0  0  0  0  0  0  0
    2.4621   -0.4852    1.6314 H   0  0  0  0  0  0  0  0  0  0  0  0
    2.0295    0.7927    0.4896 H   0  0  0  0  0  0  0  0  0  0  0  0
   -2.6262   -4.7089    1.2434 H   0  0  0  0  0  0  0  0  0  0  0  0
   -1.7911   -3.8969   -0.0530 H   0  0  0  0  0  0  0  0  0  0  0  0
   -1.4795   -5.5914    0.1525 H   0  0  0  0  0  0  0  0  0  0  0  0
   -0.5368    2.8282    4.3106 H   0  0  0  0  0  0  0  0  0  0  0  0
   -1.1319    2.6038    2.6211 H   0  0  0  0  0  0  0  0  0  0  0  0
   -2.1149    2.0834    3.9482 H   0  0  0  0  0  0  0  0  0  0  0  0
   -1.8397   -0.5823    3.4792 H   0  0  0  0  0  0  0  0  0  0  0  0
    0.0363    0.2887    2.3146 H   0  0  0  0  0  0  0  0  0  0  0  0
    0.8738   -3.4727    4.2623 H   0  0  0  0  0  0  0  0  0  0  0  0
    1.6095   -2.6690    3.4683 H   0  0  0  0  0  0  0  0  0  0  0  0
   -0.4957   -2.9204    1.7324 H   0  0  0  0  0  0  0  0  0  0  0  0
   -0.0072   -2.7800    1.3071 H   0  0  0  0  0  0  0  0  0  0  0  0
    1.4810   -0.3573    4.2178 H   0  0  0  0  0  0  0  0  0  0  0  0
    1.7055    0.3803    2.7662 H   0  0  0  0  0  0  0  0  0  0  0  0
    1.3647   -5.4056    0.7709 H   0  0  0  0  0  0  0  0  0  0  0  0
  1 27  1  0  0  0  0
  1 28  1  0  0  0  0
  1 29  1  0  0  0  0
  2 30  1  0  0  0  0
  2 31  1  0  0  0  0
  2 32  1  0  0  0  0
  3 33  1  0  0  0  0
  3 34  1  0  0  0  0
  3 35  1  0  0  0  0
  4  5  1  0  0  0  0
  4 36  1  0  0  0  0
  4 37  1  0  0  0  0
  5 38  1  0  0  0  0
  5 39  1  0  0  0  0
  6  7  1  0  0  0  0
  6 40  1  0  0  0  0
  6 41  1  0  0  0  0
  7 42  1  0  0  0  0
  7 43  1  0  0  0  0
  8  4  1  0  0  0  0
  8  1  1  0  0  0  0
  8 21  1  6  0  0  0
  9 12  1  0  0  0  0
  9 22  1  1  0  0  0
  9  2  1  0  0  0  0
 10  6  1  0  0  0  0
 10  8  1  0  0  0  0
 10 23  1  1  0  0  0
 11  5  1  0  0  0  0
 11  9  1  0  0  0  0
 11 24  1  6  0  0  0
 12 17  1  0  0  0  0
 12 16  1  0  0  0  0
 12 25  1  1  0  0  0
 13 17  1  0  0  0  0
 13 18  1  0  0  0  0
 13 26  1  6  0  0  0
 14  7  1  0  0  0  0
 14 18  1  0  0  0  0
 14 19  1  0  0  0  0
 14  3  1  1  0  0  0
 15 10  1  0  0  0  0
 15 11  1  0  0  0  0
 15 13  1  0  0  0  0
 15 20  1  1  0  0  0
 16 44  1  0  0  0  0
 19 20  1  0  0  0  0
M  END
>  <DRUGBANK_ID>
DB11638

>  <COMMON_NAME>
Artenimol

>  <CAS_NUMBER>
71939-50-9

>  <UNII>
6A9O50735X

>  <SYNONYMS>
Artenimol; beta-Dihydroartemisinin; Dihydroartemisinin

$$$$
