
 OpenBabel10282417213D

 34 35  0  0  0  0  0  0  0  0999 V2000
    2.2745   -0.6454    0.0290 C   0  0  0  0  0  0  0  0  0  0  0  0
    2.2401    0.7520    0.0184 C   0  0  0  0  0  0  0  0  0  0  0  0
    1.0360    1.4532    0.0228 C   0  0  0  0  0  0  0  0  0  0  0  0
    1.0902   -1.3906    0.0448 C   0  0  0  0  0  0  0  0  0  0  0  0
   -1.4124    1.0911   -0.2543 N   0  0  0  0  0  0  0  0  0  0  0  0
   -0.1295   -0.7099   -0.0952 C   0  0  0  0  0  0  0  0  0  0  0  0
   -0.1138    0.6813   -0.0967 C   0  0  0  0  0  0  0  0  0  0  0  0
   -1.4848   -1.1261   -0.2782 C   0  0  0  0  0  0  0  0  0  0  0  0
   -2.1122    0.0193   -0.7630 C   0  0  0  0  0  0  0  0  0  0  0  0
    3.4145   -1.4055   -0.0112 O   0  0  0  0  0  0  0  0  0  0  0  0
    4.6287   -0.6739   -0.0958 C   0  0  0  0  0  0  0  0  0  0  0  0
   -2.0760   -2.5165   -0.1017 C   0  0  0  0  0  0  0  0  0  0  0  0
   -2.9585   -2.7888    1.1827 C   0  0  0  0  0  0  0  0  0  0  0  0
   -4.2310   -2.0295    1.3209 N   0  0  0  0  0  0  0  0  0  0  0  0
   -5.0636   -2.4525    2.4443 C   0  0  0  0  0  0  0  0  0  0  0  0
   -3.9671   -0.6265    1.5817 C   0  0  0  0  0  0  0  0  0  0  0  0
    3.1450    1.3476   -0.0204 H   0  0  0  0  0  0  0  0  0  0  0  0
    1.0069    2.5352    0.0146 H   0  0  0  0  0  0  0  0  0  0  0  0
    1.1190   -2.4740    0.0405 H   0  0  0  0  0  0  0  0  0  0  0  0
   -1.7512    2.0280   -0.1414 H   0  0  0  0  0  0  0  0  0  0  0  0
   -3.1262    0.1836   -1.1143 H   0  0  0  0  0  0  0  0  0  0  0  0
    4.6675   -0.0778   -1.0149 H   0  0  0  0  0  0  0  0  0  0  0  0
    4.7585   -0.0442    0.7905 H   0  0  0  0  0  0  0  0  0  0  0  0
    5.4529   -1.3894   -0.1247 H   0  0  0  0  0  0  0  0  0  0  0  0
   -2.6465   -2.7828   -0.9985 H   0  0  0  0  0  0  0  0  0  0  0  0
   -1.2405   -3.2310   -0.0545 H   0  0  0  0  0  0  0  0  0  0  0  0
   -3.2179   -3.8591    1.1418 H   0  0  0  0  0  0  0  0  0  0  0  0
   -2.3414   -2.6658    2.0829 H   0  0  0  0  0  0  0  0  0  0  0  0
   -4.5593   -2.2878    3.4042 H   0  0  0  0  0  0  0  0  0  0  0  0
   -5.9779   -1.8409    2.4457 H   0  0  0  0  0  0  0  0  0  0  0  0
   -5.3788   -3.4936    2.3681 H   0  0  0  0  0  0  0  0  0  0  0  0
   -3.4077   -0.4210    2.4983 H   0  0  0  0  0  0  0  0  0  0  0  0
   -3.3547   -0.2862    0.8088 H   0  0  0  0  0  0  0  0  0  0  0  0
   -4.8420    0.0162    1.4654 H   0  0  0  0  0  0  0  0  0  0  0  0
  1 10  1  0  0  0  0
  1  2  2  0  0  0  0
  2  3  1  0  0  0  0
  2 17  1  0  0  0  0
  3  7  2  0  0  0  0
  3 18  1  0  0  0  0
  4  1  1  0  0  0  0
  4 19  1  0  0  0  0
  5  9  1  0  0  0  0
  5 20  1  0  0  0  0
  6  7  1  0  0  0  0
  6  4  2  0  0  0  0
  7  5  1  0  0  0  0
  8 12  1  0  0  0  0
  8  6  1  0  0  0  0
  8  9  2  0  0  0  0
  9 21  1  0  0  0  0
 10 11  1  0  0  0  0
 11 22  1  0  0  0  0
 11 23  1  0  0  0  0
 11 24  1  0  0  0  0
 12 13  1  0  0  0  0
 12 25  1  0  0  0  0
 12 26  1  0  0  0  0
 13 14  1  0  0  0  0
 13 27  1  0  0  0  0
 13 28  1  0  0  0  0
 14 15  1  0  0  0  0
 14 16  1  0  0  0  0
 15 29  1  0  0  0  0
 15 30  1  0  0  0  0
 15 31  1  0  0  0  0
 16 32  1  0  0  0  0
 16 33  1  0  0  0  0
 16 34  1  0  0  0  0
M  END
>  <DRUGBANK_ID>
DB14010

>  <COMMON_NAME>
5-methoxy-N,N-dimethyltryptamine

>  <CAS_NUMBER>
1019-45-0

>  <UNII>
X0MKX3GWU9

>  <SYNONYMS>
3-(2-dimethylaminoethyl)-5-methoxyindole; 3-[2-(N,N-Dimethylamino)ethyl]-5-methoxy-indole; 5-MeO-DMT; 5-methoxy-N,N-dimethyl-1H-indole-3-ethanamine; MeODMT; Methoxybufotenin; N,N-dimethyl-5-methoxytryptamine; O-methylbufotenine

$$$$
