
 OpenBabel10282417163D

102103  0  0  0  0  0  0  0  0999 V2000
   -3.1524   -0.1390    0.0637 C   0  0  2  0  0  0  0  0  0  0  0  0
   -4.9834   -0.3256   -0.3738 C   0  0  1  0  0  0  0  0  0  0  0  0
   -6.0707   -0.8335   -2.7190 C   0  0  1  0  0  0  0  0  0  0  0  0
   -6.1466   -2.1094   -5.6426 C   0  0  2  0  0  0  0  0  0  0  0  0
   -6.3185   -3.5650   -8.5036 C   0  0  2  0  0  0  0  0  0  0  0  0
   -6.7990   -4.4522  -11.1577 C   0  0  0  0  0  0  0  0  0  0  0  0
   -7.8291   -5.4995  -12.4249 C   0  0  0  0  0  0  0  0  0  0  0  0
   -7.8782   -4.0536  -12.0289 C   0  0  0  0  0  0  0  0  0  0  0  0
   -7.8511   -3.6877  -10.4262 C   0  0  0  0  0  0  0  0  0  0  0  0
   -7.7212   -2.5073  -10.1260 C   0  0  0  0  0  0  0  0  0  0  0  0
   -8.5840   -2.9170   -8.9761 C   0  0  1  0  0  0  0  0  0  0  0  0
   -7.9881   -3.8462   -7.9496 C   0  0  1  0  0  0  0  0  0  0  0  0
   -6.5947   -2.9731   -7.2757 C   0  0  1  0  0  0  0  0  0  0  0  0
   -7.0944   -1.6249   -7.5855 C   0  0  0  0  0  0  0  0  0  0  0  0
   -6.6260   -2.2757   -6.8163 C   0  0  0  0  0  0  0  0  0  0  0  0
   -6.8719   -0.5688   -5.4985 C   0  0  0  0  0  0  0  0  0  0  0  0
   -6.1792   -0.0671   -4.0007 C   0  0  0  0  0  0  0  0  0  0  0  0
   -6.7569    1.1259   -3.0068 C   0  0  0  0  0  0  0  0  0  0  0  0
   -6.3670   -0.5921   -3.9063 O   0  0  0  0  0  0  0  0  0  0  0  0
   -7.3460    2.0907   -3.5635 O   0  0  0  0  0  0  0  0  0  0  0  0
   -4.9834   -1.5880   -2.8099 O   0  0  0  0  0  0  0  0  0  0  0  0
   -5.3948   -2.4727   -3.3864 C   0  0  0  0  0  0  0  0  0  0  0  0
   -5.5897   -3.1823   -4.8975 C   0  0  0  0  0  0  0  0  0  0  0  0
   -5.8108   -4.1983   -6.7291 C   0  0  0  0  0  0  0  0  0  0  0  0
   -8.6468   -4.0898   -6.8572 O   0  0  0  0  0  0  0  0  0  0  0  0
   -8.9566   -1.6314   -8.3225 C   0  0  0  0  0  0  0  0  0  0  0  0
   -6.6468   -5.4190   -9.5965 C   0  0  0  0  0  0  0  0  0  0  0  0
   -5.9465   -4.9602  -10.8051 O   0  0  0  0  0  0  0  0  0  0  0  0
   -5.7081   -6.6744  -12.5505 C   0  0  0  0  0  0  0  0  0  0  0  0
   -6.3522    0.2235   -0.2475 C   0  0  0  0  0  0  0  0  0  0  0  0
   -4.9531   -1.3878    1.0943 O   0  0  0  0  0  0  0  0  0  0  0  0
   -3.5390   -0.5803   -1.2644 C   0  0  0  0  0  0  0  0  0  0  0  0
   -1.3399   -0.6910    1.8103 C   0  0  0  0  0  0  0  0  0  0  0  0
   -2.2659   -1.2305    0.7223 C   0  0  1  0  0  0  0  0  0  0  0  0
   -3.1309   -2.2878    1.3215 O   0  0  0  0  0  0  0  0  0  0  0  0
   -2.4049   -3.3584    1.9623 C   0  0  1  0  0  0  0  0  0  0  0  0
   -1.5215   -2.8031    2.9940 C   0  0  2  0  0  0  0  0  0  0  0  0
   -0.5734   -1.8266    2.4440 C   0  0  2  0  0  0  0  0  0  0  0  0
   -3.3203   -4.3771    2.6309 C   0  0  0  0  0  0  0  0  0  0  0  0
   -4.2281   -4.9770    1.5935 C   0  0  0  0  0  0  0  0  0  0  0  0
   -2.5382   -5.4967    3.2694 C   0  0  0  0  0  0  0  0  0  0  0  0
   -0.7143   -3.8833    3.6359 C   0  0  0  0  0  0  0  0  0  0  0  0
    0.2418   -1.3582    3.5141 O   0  0  0  0  0  0  0  0  0  0  0  0
   -1.4409   -1.7760   -0.3242 O   0  0  0  0  0  0  0  0  0  0  0  0
   -2.7109    0.8635    0.0480 H   0  0  0  0  0  0  0  0  0  0  0  0
   -4.2726    0.1218    1.4122 H   0  0  0  0  0  0  0  0  0  0  0  0
   -5.5492    0.4252   -1.3338 H   0  0  0  0  0  0  0  0  0  0  0  0
   -6.5496   -1.5160   -4.0146 H   0  0  0  0  0  0  0  0  0  0  0  0
   -6.3587   -4.2534  -10.4022 H   0  0  0  0  0  0  0  0  0  0  0  0
   -7.5525   -4.7693  -13.0563 H   0  0  0  0  0  0  0  0  0  0  0  0
   -7.4248   -5.9442  -11.7422 H   0  0  0  0  0  0  0  0  0  0  0  0
   -8.2722   -3.3948  -12.7223 H   0  0  0  0  0  0  0  0  0  0  0  0
   -8.2012   -2.0110  -10.8784 H   0  0  0  0  0  0  0  0  0  0  0  0
   -6.7596   -2.1833   -9.8903 H   0  0  0  0  0  0  0  0  0  0  0  0
   -9.4815   -3.4088   -9.2827 H   0  0  0  0  0  0  0  0  0  0  0  0
   -7.7080   -4.7431   -8.3400 H   0  0  0  0  0  0  0  0  0  0  0  0
   -5.6093   -2.6379   -8.2244 H   0  0  0  0  0  0  0  0  0  0  0  0
   -7.4006   -0.8256   -7.3336 H   0  0  0  0  0  0  0  0  0  0  0  0
   -7.3285    0.4257   -5.4767 H   0  0  0  0  0  0  0  0  0  0  0  0
   -6.5775   -2.3786   -3.1360 H   0  0  0  0  0  0  0  0  0  0  0  0
   -4.8809   -1.3791   -3.8357 H   0  0  0  0  0  0  0  0  0  0  0  0
   -4.8986   -3.0856   -2.8262 H   0  0  0  0  0  0  0  0  0  0  0  0
   -4.5493   -3.2888   -5.0692 H   0  0  0  0  0  0  0  0  0  0  0  0
   -6.1469   -3.9705   -4.4805 H   0  0  0  0  0  0  0  0  0  0  0  0
   -5.4450   -3.7225   -5.3981 H   0  0  0  0  0  0  0  0  0  0  0  0
   -6.5520   -4.2630   -5.8441 H   0  0  0  0  0  0  0  0  0  0  0  0
   -5.7148   -5.1363   -6.9979 H   0  0  0  0  0  0  0  0  0  0  0  0
   -4.7647   -3.7688   -6.4985 H   0  0  0  0  0  0  0  0  0  0  0  0
   -7.8957   -3.5986   -6.5561 H   0  0  0  0  0  0  0  0  0  0  0  0
   -8.2429   -0.7988   -8.3874 H   0  0  0  0  0  0  0  0  0  0  0  0
   -9.7644   -1.2386   -8.8026 H   0  0  0  0  0  0  0  0  0  0  0  0
   -9.1609   -1.8865   -7.2814 H   0  0  0  0  0  0  0  0  0  0  0  0
   -5.5059   -4.8050   -9.6428 H   0  0  0  0  0  0  0  0  0  0  0  0
   -7.3093   -5.5426   -9.2122 H   0  0  0  0  0  0  0  0  0  0  0  0
   -6.6317   -6.2366  -10.3265 H   0  0  0  0  0  0  0  0  0  0  0  0
   -5.0007   -7.2816  -14.2499 H   0  0  0  0  0  0  0  0  0  0  0  0
   -5.5025   -6.2062  -13.3023 H   0  0  0  0  0  0  0  0  0  0  0  0
   -5.0366   -8.0072  -12.8154 H   0  0  0  0  0  0  0  0  0  0  0  0
   -6.2008    0.8985    1.6154 H   0  0  0  0  0  0  0  0  0  0  0  0
   -7.1800    1.4020    0.9115 H   0  0  0  0  0  0  0  0  0  0  0  0
   -6.9198   -0.1368    1.3955 H   0  0  0  0  0  0  0  0  0  0  0  0
   -5.1808   -1.7707    0.2800 H   0  0  0  0  0  0  0  0  0  0  0  0
   -4.2581    0.1133   -1.6744 H   0  0  0  0  0  0  0  0  0  0  0  0
   -2.7446   -0.5933   -1.9376 H   0  0  0  0  0  0  0  0  0  0  0  0
   -3.9860   -1.5802   -1.1854 H   0  0  0  0  0  0  0  0  0  0  0  0
   -0.6327    0.0121    1.3918 H   0  0  0  0  0  0  0  0  0  0  0  0
   -1.9224   -0.1793    2.5685 H   0  0  0  0  0  0  0  0  0  0  0  0
   -1.7928   -3.8657    1.2277 H   0  0  0  0  0  0  0  0  0  0  0  0
   -2.1541   -2.2654    3.6747 H   0  0  0  0  0  0  0  0  0  0  0  0
    0.0400   -2.3301    1.7120 H   0  0  0  0  0  0  0  0  0  0  0  0
   -3.9129   -3.8775    3.3894 H   0  0  0  0  0  0  0  0  0  0  0  0
   -3.6380   -5.4788    0.8374 H   0  0  0  0  0  0  0  0  0  0  0  0
   -4.8927   -5.6937    2.0525 H   0  0  0  0  0  0  0  0  0  0  0  0
   -4.8141   -4.2021    1.1239 H   0  0  0  0  0  0  0  0  0  0  0  0
   -1.9425   -5.1570    4.0236 H   0  0  0  0  0  0  0  0  0  0  0  0
   -3.1614   -6.1947    3.7604 H   0  0  0  0  0  0  0  0  0  0  0  0
   -1.9054   -5.9814    2.5436 H   0  0  0  0  0  0  0  0  0  0  0  0
    0.2162   -3.4968    3.9048 H   0  0  0  0  0  0  0  0  0  0  0  0
   -1.1462   -4.2216    4.5824 H   0  0  0  0  0  0  0  0  0  0  0  0
   -0.5722   -4.7177    2.9373 H   0  0  0  0  0  0  0  0  0  0  0  0
    1.0204   -0.8530    3.2138 H   0  0  0  0  0  0  0  0  0  0  0  0
   -0.8853   -1.2039   -0.9019 H   0  0  0  0  0  0  0  0  0  0  0  0
  1  2  1  0  0  0  0
  1 32  1  0  0  0  0
  1 45  1  1  0  0  0
  2  3  1  0  0  0  0
  2 31  1  0  0  0  0
  2 46  1  1  0  0  0
  3 30  1  0  0  0  0
  3 47  1  6  0  0  0
  4  5  1  0  0  0  0
  4 19  1  0  0  0  0
  4 48  1  1  0  0  0
  4  3  1  0  0  0  0
  5  6  1  0  0  0  0
  5 49  1  6  0  0  0
  5 28  1  0  0  0  0
  6  7  2  0  0  0  0
  6 50  1  0  0  0  0
  7  8  1  0  0  0  0
  7 51  1  0  0  0  0
  8  9  2  0  0  0  0
  8 52  1  0  0  0  0
  9 10  1  0  0  0  0
  9 27  1  0  0  0  0
 10 11  1  0  0  0  0
 10 53  1  0  0  0  0
 10 54  1  0  0  0  0
 11 12  1  0  0  0  0
 11 55  1  6  0  0  0
 11 26  1  0  0  0  0
 12 56  1  6  0  0  0
 12 25  1  0  0  0  0
 13 12  1  0  0  0  0
 13 57  1  6  0  0  0
 13 24  1  0  0  0  0
 14 13  1  0  0  0  0
 14 58  1  0  0  0  0
 15 14  2  0  0  0  0
 15 23  1  0  0  0  0
 16 15  1  0  0  0  0
 16 59  1  0  0  0  0
 17 16  2  0  0  0  0
 17 21  1  0  0  0  0
 18 17  1  0  0  0  0
 18 20  2  0  0  0  0
 19 18  1  0  0  0  0
 21 22  1  0  0  0  0
 22 60  1  0  0  0  0
 22 61  1  0  0  0  0
 22 62  1  0  0  0  0
 23 63  1  0  0  0  0
 23 64  1  0  0  0  0
 23 65  1  0  0  0  0
 24 66  1  0  0  0  0
 24 67  1  0  0  0  0
 24 68  1  0  0  0  0
 25 69  1  0  0  0  0
 26 70  1  0  0  0  0
 26 71  1  0  0  0  0
 26 72  1  0  0  0  0
 27 73  1  0  0  0  0
 27 74  1  0  0  0  0
 27 75  1  0  0  0  0
 28 29  1  0  0  0  0
 29 76  1  0  0  0  0
 29 77  1  0  0  0  0
 29 78  1  0  0  0  0
 30 79  1  0  0  0  0
 30 80  1  0  0  0  0
 30 81  1  0  0  0  0
 31 82  1  0  0  0  0
 32 83  1  0  0  0  0
 32 84  1  0  0  0  0
 32 85  1  0  0  0  0
 33 34  1  0  0  0  0
 33 38  1  0  0  0  0
 33 86  1  0  0  0  0
 33 87  1  0  0  0  0
 34 35  1  0  0  0  0
 34 44  1  6  0  0  0
 34  1  1  0  0  0  0
 35 36  1  0  0  0  0
 36 37  1  0  0  0  0
 36 39  1  0  0  0  0
 36 88  1  6  0  0  0
 37 38  1  0  0  0  0
 37 89  1  1  0  0  0
 37 42  1  0  0  0  0
 38 90  1  6  0  0  0
 38 43  1  0  0  0  0
 39 40  1  0  0  0  0
 39 41  1  0  0  0  0
 39 91  1  0  0  0  0
 40 92  1  0  0  0  0
 40 93  1  0  0  0  0
 40 94  1  0  0  0  0
 41 95  1  0  0  0  0
 41 96  1  0  0  0  0
 41 97  1  0  0  0  0
 42 98  1  0  0  0  0
 42 99  1  0  0  0  0
 42100  1  0  0  0  0
 43101  1  0  0  0  0
 44102  1  0  0  0  0
M  END
>  <DRUGBANK_ID>
DB06733

>  <COMMON_NAME>
Bafilomycin A1

>  <CAS_NUMBER>
88899-55-2

$$$$
