
 OpenBabel10282417243D

324333  0  0  1  0  0  0  0  0999 V2000
    2.1189    3.0286  -17.9275 H   0  0  0  0  0  0  0  0  0  0  0  0
    1.3285    3.6029  -18.1187 C   0  0  1  0  0  0  0  0  0  0  0  0
    0.9771    4.1328  -19.5334 C   0  0  0  0  0  0  0  0  0  0  0  0
    0.0239    5.6546  -19.6159 S   0  0  0  0  0  0  0  0  0  0  0  0
    1.1114    6.0788  -18.3325 C   0  0  1  0  0  0  0  0  0  0  0  0
    0.4237    7.3682  -18.4230 C   0  0  0  0  0  0  0  0  0  0  0  0
    1.6295    7.8127  -17.1667 C   0  0  0  0  0  0  0  0  0  0  0  0
    2.8700    8.3709  -17.0492 C   0  0  0  0  0  0  0  0  0  0  0  0
    2.2178    9.5562  -17.4783 C   0  0  0  0  0  0  0  0  0  0  0  0
    1.4664   10.6406  -16.6629 C   0  0  0  0  0  0  0  0  0  0  0  0
    2.0452   11.6147  -16.2558 O   0  0  0  0  0  0  0  0  0  0  0  0
    0.1347   10.6439  -16.4753 N   0  0  0  0  0  0  0  0  0  0  0  0
   -0.5275    9.6391  -17.0338 C   0  0  0  0  0  0  0  0  0  0  0  0
   -0.7720    9.5171  -15.6681 C   0  0  0  0  0  0  0  0  0  0  0  0
   -2.1860   10.6878  -14.3858 C   0  0  0  0  0  0  0  0  0  0  0  0
   -3.9989   10.4668  -15.1560 C   0  0  0  0  0  0  0  0  0  0  0  0
   -4.2635    7.9783  -14.7443 C   0  0  2  0  0  0  0  0  0  0  0  0
   -4.8757    7.3624  -13.4485 N   0  0  0  0  0  0  0  0  0  0  0  0
   -5.9156    6.6247  -13.4136 C   0  0  0  0  0  0  0  0  0  0  0  0
   -6.2285    6.1822  -12.3432 O   0  0  0  0  0  0  0  0  0  0  0  0
   -6.6939    6.3830  -14.6616 C   0  0  0  0  0  0  0  0  0  0  0  0
   -7.2026    7.6456  -14.8195 C   0  0  0  0  0  0  0  0  0  0  0  0
   -6.4021    9.4858  -15.8843 C   0  0  0  0  0  0  0  0  0  0  0  0
   -5.4697    9.2287  -17.1894 N   0  0  0  0  0  0  0  0  0  0  0  0
   -5.1347    9.5196  -18.6107 C   0  0  0  0  0  0  0  0  0  0  0  0
   -4.5183    8.7579  -19.4181 O   0  0  0  0  0  0  0  0  0  0  0  0
   -5.8569   10.5879  -18.3164 C   0  0  0  0  0  0  0  0  0  0  0  0
   -7.2876   10.2805  -17.9426 C   0  0  2  0  0  0  0  0  0  0  0  0
   -7.8922    8.7904  -18.1471 N   0  0  0  0  0  0  0  0  0  0  0  0
   -6.6323    7.5752  -18.5964 S   0  0  0  0  0  0  0  0  0  0  0  0
   -6.6197    6.1798  -18.4076 O   0  0  0  0  0  0  0  0  0  0  0  0
   -5.9659    7.9172  -19.7596 O   0  0  0  0  0  0  0  0  0  0  0  0
   -5.6512    7.5469  -17.5446 C   0  0  0  0  0  0  0  0  0  0  0  0
   -3.8579    8.5869  -17.7920 C   0  0  0  0  0  0  0  0  0  0  0  0
   -2.7845    8.1887  -18.6769 C   0  0  0  0  0  0  0  0  0  0  0  0
   -3.8521    9.4923  -16.4733 C   0  0  0  0  0  0  0  0  0  0  0  0
   -4.9595    9.4162  -14.5372 C   0  0  0  0  0  0  0  0  0  0  0  0
   -3.7066    8.6826  -13.0502 O   0  0  0  0  0  0  0  0  0  0  0  0
   -1.9903    9.0611  -12.1632 C   0  0  0  0  0  0  0  0  0  0  0  0
   -5.9998    8.8369  -14.2488 C   0  0  0  0  0  0  0  0  0  0  0  0
   -6.4530    8.7682  -12.8004 C   0  0  0  0  0  0  0  0  0  0  0  0
   -6.2501    7.8697  -16.0695 C   0  0  0  0  0  0  0  0  0  0  0  0
   -8.2943    8.4704  -15.7464 C   0  0  0  0  0  0  0  0  0  0  0  0
   -8.0394   11.3484  -18.6081 C   0  0  0  0  0  0  0  0  0  0  0  0
   -8.6103   12.1894  -17.9135 O   0  0  0  0  0  0  0  0  0  0  0  0
   -8.0229   11.3932  -20.0003 N   0  0  0  0  0  0  0  0  0  0  0  0
   -7.9641   10.3245  -20.9970 C   0  0  2  0  0  0  0  0  0  0  0  0
   -7.2354    9.2121  -20.6160 C   0  0  0  0  0  0  0  0  0  0  0  0
   -7.5341    7.8268  -21.0943 C   0  0  0  0  0  0  0  0  0  0  0  0
   -7.2934    7.6467  -22.3782 C   0  0  0  0  0  0  0  0  0  0  0  0
   -7.2893    6.3870  -22.8992 C   0  0  0  0  0  0  0  0  0  0  0  0
   -7.4269    5.2529  -22.1199 C   0  0  0  0  0  0  0  0  0  0  0  0
   -7.4759    5.4281  -20.7841 C   0  0  0  0  0  0  0  0  0  0  0  0
   -7.8187    6.6734  -20.3495 C   0  0  0  0  0  0  0  0  0  0  0  0
   -7.5945    3.8687  -22.7011 C   0  0  0  0  0  0  0  0  0  0  0  0
   -7.7648    2.7717  -21.8730 N   0  0  0  0  0  0  0  0  0  0  0  0
   -7.5968    3.7802  -23.9945 N   0  0  0  0  0  0  0  0  0  0  0  0
   -7.2805   10.7411  -22.3003 C   0  0  0  0  0  0  0  0  0  0  0  0
   -7.9523   10.6140  -23.3277 O   0  0  0  0  0  0  0  0  0  0  0  0
   -5.9658   11.2750  -22.2681 N   0  0  0  0  0  0  0  0  0  0  0  0
   -5.5566   12.4010  -23.0826 C   0  0  0  0  0  0  0  0  0  0  0  0
   -4.5148   12.0096  -24.1114 C   0  0  0  0  0  0  0  0  0  0  0  0
   -3.3075   11.3502  -23.4700 C   0  0  0  0  0  0  0  0  0  0  0  0
   -3.7379   10.2317  -22.5614 C   0  0  0  0  0  0  0  0  0  0  0  0
   -4.7822   10.7385  -21.6128 C   0  0  0  0  0  0  0  0  0  0  0  0
   -3.2100    7.2445  -16.7208 C   0  0  0  0  0  0  0  0  0  0  0  0
   -3.9184    6.6089  -17.6238 O   0  0  0  0  0  0  0  0  0  0  0  0
   -1.8290    7.6039  -16.9188 N   0  0  0  0  0  0  0  0  0  0  0  0
   -0.8988    7.6033  -14.7674 C   0  0  0  0  0  0  0  0  0  0  0  0
   -0.8831    6.2474  -13.7286 C   0  0  0  0  0  0  0  0  0  0  0  0
    0.6736    5.4035  -15.2215 O   0  0  0  0  0  0  0  0  0  0  0  0
   -0.6536    4.5974  -16.6872 C   0  0  0  0  0  0  0  0  0  0  0  0
   -1.8452    4.1102  -16.3778 C   0  0  0  0  0  0  0  0  0  0  0  0
   -3.5489    4.8187  -15.0706 O   0  0  0  0  0  0  0  0  0  0  0  0
   -3.1962    4.4417  -13.5230 C   0  0  0  0  0  0  0  0  0  0  0  0
   -1.8394    3.0513  -13.0387 C   0  0  0  0  0  0  0  0  0  0  0  0
   -0.6156    2.6634  -13.5893 O   0  0  0  0  0  0  0  0  0  0  0  0
   -1.0382    1.6872  -14.3819 C   0  0  0  0  0  0  0  0  0  0  0  0
   -2.8961    1.4756  -14.5340 C   0  0  0  0  0  0  0  0  0  0  0  0
   -4.2103    2.1347  -14.1872 O   0  0  0  0  0  0  0  0  0  0  0  0
   -4.5945    3.4493  -14.3865 C   0  0  2  0  0  0  0  0  0  0  0  0
   -2.9431    3.6672  -14.7597 C   0  0  1  0  0  0  0  0  0  0  0  0
   -2.9211    5.4855  -16.1582 C   0  0  0  0  0  0  0  0  0  0  0  0
   -2.1230    5.5958  -17.0796 O   0  0  0  0  0  0  0  0  0  0  0  0
   -0.8770    6.1255  -15.2364 S   0  0  0  0  0  0  0  0  0  0  0  0
   -2.1402    8.1287  -14.4280 O   0  0  0  0  0  0  0  0  0  0  0  0
   -0.3805    4.7060  -13.8241 O   0  0  0  0  0  0  0  0  0  0  0  0
    0.3333    7.2304  -15.3766 O   0  0  0  0  0  0  0  0  0  0  0  0
   -2.4957    5.8300  -14.7038 O   0  0  0  0  0  0  0  0  0  0  0  0
   -3.1236    6.5969  -12.6669 C   0  0  2  0  0  0  0  0  0  0  0  0
   -1.7020    7.1845  -11.0486 O   0  0  0  0  0  0  0  0  0  0  0  0
   -0.4865    5.5046  -10.4141 C   0  0  1  0  0  0  0  0  0  0  0  0
   -1.7541    5.0205   -9.5964 H   0  0  0  0  0  0  0  0  0  0  0  0
    0.3773    4.1488  -12.0162 C   0  0  2  0  0  0  0  0  0  0  0  0
   -0.3223    2.2272  -11.9044 O   0  0  0  0  0  0  0  0  0  0  0  0
    0.7277    2.4433  -10.2071 C   0  0  0  0  0  0  0  0  0  0  0  0
    1.7063    4.2575  -12.2059 C   0  0  1  0  0  0  0  0  0  0  0  0
    1.7912    5.2227  -13.2048 O   0  0  0  0  0  0  0  0  0  0  0  0
    0.4052    6.9887  -12.8192 C   0  0  0  0  0  0  0  0  0  0  0  0
    2.0008    5.0678  -10.9948 C   0  0  2  0  0  0  0  0  0  0  0  0
    2.3431    4.4119   -9.9848 O   0  0  0  0  0  0  0  0  0  0  0  0
    1.0228    4.2431   -9.4735 C   0  0  2  0  0  0  0  0  0  0  0  0
    1.2726    3.2790   -8.7973 H   0  0  0  0  0  0  0  0  0  0  0  0
   -0.4174    3.4573  -10.8396 C   0  0  1  0  0  0  0  0  0  0  0  0
   -1.3577    2.4262  -10.4720 C   0  0  0  0  0  0  0  0  0  0  0  0
   -1.1411    1.2816   -9.7785 O   0  0  0  0  0  0  0  0  0  0  0  0
   -0.4036    0.2110  -10.7546 S   0  0  0  0  0  0  0  0  0  0  0  0
   -1.4709   -0.1428  -11.9435 O   0  0  0  0  0  0  0  0  0  0  0  0
    0.8219    0.7347  -11.3475 O   0  0  0  0  0  0  0  0  0  0  0  0
   -0.1326   -0.8744   -9.8828 O   0  0  0  0  0  0  0  0  0  0  0  0
   -1.4633    4.1836  -10.9108 O   0  0  0  0  0  0  0  0  0  0  0  0
   -2.2498    5.3076  -10.7742 C   0  0  2  0  0  0  0  0  0  0  0  0
   -2.6809    6.3031  -11.3299 O   0  0  0  0  0  0  0  0  0  0  0  0
   -1.0467    7.3851  -12.4663 C   0  0  1  0  0  0  0  0  0  0  0  0
   -0.5601    7.7431  -11.5573 H   0  0  0  0  0  0  0  0  0  0  0  0
    0.5729    6.0301  -13.8395 C   0  0  2  0  0  0  0  0  0  0  0  0
    1.6553    6.9637  -13.5770 O   0  0  0  0  0  0  0  0  0  0  0  0
    1.9117    7.9204  -13.9750 C   0  0  0  0  0  0  0  0  0  0  0  0
   -0.5042    4.5713  -15.2360 C   0  0  1  0  0  0  0  0  0  0  0  0
   -1.4849    3.8656  -14.9934 O   0  0  0  0  0  0  0  0  0  0  0  0
   -3.2361    3.4858  -16.3667 C   0  0  0  0  0  0  0  0  0  0  0  0
   -0.6940    6.4622  -16.7241 C   0  0  2  0  0  0  0  0  0  0  0  0
    0.5228    6.7924  -16.7256 O   0  0  0  0  0  0  0  0  0  0  0  0
    1.7167    8.0511  -15.4783 C   0  0  2  0  0  0  0  0  0  0  0  0
    1.9613    9.1449  -15.5673 H   0  0  0  0  0  0  0  0  0  0  0  0
    2.7734    6.3443  -14.2329 C   0  0  1  0  0  0  0  0  0  0  0  0
    3.3809    7.1558  -12.7114 C   0  0  0  0  0  0  0  0  0  0  0  0
    3.7447    8.3802  -13.2835 O   0  0  0  0  0  0  0  0  0  0  0  0
    4.4558    8.0510  -14.7381 S   0  0  0  0  0  0  0  0  0  0  0  0
    5.3687    6.9262  -14.3192 O   0  0  0  0  0  0  0  0  0  0  0  0
    3.7926    7.0905  -15.6223 O   0  0  0  0  0  0  0  0  0  0  0  0
    4.7512    9.3548  -15.2203 O   0  0  0  0  0  0  0  0  0  0  0  0
    1.8336    6.3190  -12.2263 O   0  0  0  0  0  0  0  0  0  0  0  0
    0.1577    6.5355  -11.5085 C   0  0  2  0  0  0  0  0  0  0  0  0
   -0.6908    5.2918  -11.9024 O   0  0  0  0  0  0  0  0  0  0  0  0
   -2.0313    5.1055  -12.4932 C   0  0  0  0  0  0  0  0  0  0  0  0
   -0.2231    8.5505  -12.7477 C   0  0  2  0  0  0  0  0  0  0  0  0
   -2.0525    7.3827  -13.3434 O   0  0  0  0  0  0  0  0  0  0  0  0
   -3.1613    9.1051  -14.7847 S   0  0  0  0  0  0  0  0  0  0  0  0
   -4.4027   10.0734  -13.0795 O   0  0  0  0  0  0  0  0  0  0  0  0
   -2.2288   10.2823  -15.9149 O   0  0  0  0  0  0  0  0  0  0  0  0
   -4.2681    8.0870  -16.1065 O   0  0  0  0  0  0  0  0  0  0  0  0
    1.0275    9.7012  -14.0910 C   0  0  1  0  0  0  0  0  0  0  0  0
    1.1465   10.0930  -12.8061 O   0  0  0  0  0  0  0  0  0  0  0  0
    1.6129    9.1736  -12.0196 C   0  0  0  0  0  0  0  0  0  0  0  0
   -2.0613    7.7618  -15.5592 O   0  0  0  0  0  0  0  0  0  0  0  0
   -1.4552    9.2002  -13.8068 C   0  0  1  0  0  0  0  0  0  0  0  0
   -2.7692   10.4688  -12.3494 C   0  0  0  0  0  0  0  0  0  0  0  0
   -1.6775   11.4270  -12.3661 O   0  0  0  0  0  0  0  0  0  0  0  0
   -3.4066    9.3127  -11.3664 O   0  0  0  0  0  0  0  0  0  0  0  0
   -1.5676    6.5624   -9.4481 C   0  0  2  0  0  0  0  0  0  0  0  0
   -0.2033    7.6603  -10.0690 O   0  0  0  0  0  0  0  0  0  0  0  0
    0.7489    8.6144   -9.3605 S   0  0  0  0  0  0  0  0  0  0  0  0
   -0.5334    9.3983   -9.8013 O   0  0  0  0  0  0  0  0  0  0  0  0
    0.8770    7.9238   -8.1447 O   0  0  0  0  0  0  0  0  0  0  0  0
    1.9847    8.8805  -10.0057 O   0  0  0  0  0  0  0  0  0  0  0  0
   -0.7877    5.3658   -8.6559 C   0  0  1  0  0  0  0  0  0  0  0  0
   -2.0663    4.4652   -8.2090 O   0  0  0  0  0  0  0  0  0  0  0  0
   -3.2627    3.6425   -9.1868 S   0  0  0  0  0  0  0  0  0  0  0  0
   -3.9438    5.0034   -9.8686 O   0  0  0  0  0  0  0  0  0  0  0  0
   -3.0919    2.2674   -9.8013 O   0  0  0  0  0  0  0  0  0  0  0  0
   -4.3449    3.0793   -8.5850 O   0  0  0  0  0  0  0  0  0  0  0  0
    1.6791    6.1704  -10.1690 O   0  0  0  0  0  0  0  0  0  0  0  0
    0.5714    5.8575   -9.5029 C   0  0  2  0  0  0  0  0  0  0  0  0
    0.1336    4.2148   -7.9703 C   0  0  0  0  0  0  0  0  0  0  0  0
   -0.1975    5.0405   -6.8971 O   0  0  0  0  0  0  0  0  0  0  0  0
   -0.6095    3.1699   -8.2531 O   0  0  0  0  0  0  0  0  0  0  0  0
   -4.5419    5.4211  -12.0801 C   0  0  2  0  0  0  0  0  0  0  0  0
   -4.3183    4.1842  -11.5574 O   0  0  0  0  0  0  0  0  0  0  0  0
   -3.9676    3.0089  -12.1475 C   0  0  0  0  0  0  0  0  0  0  0  0
   -5.1027    4.6180  -13.4887 C   0  0  1  0  0  0  0  0  0  0  0  0
   -5.3956    5.1062  -14.6024 O   0  0  0  0  0  0  0  0  0  0  0  0
   -4.7092    6.0812  -15.0076 C   0  0  0  0  0  0  0  0  0  0  0  0
    1.6772    4.9128  -17.4094 C   0  0  1  0  0  0  0  0  0  0  0  0
    2.1139    4.9358  -16.3649 H   0  0  0  0  0  0  0  0  0  0  0  0
    0.5540    4.3598  -17.6378 N   0  0  0  0  0  0  0  0  0  0  0  0
   -0.4340    2.7720  -17.0706 C   0  0  0  0  0  0  0  0  0  0  0  0
   -1.2890    1.8553  -17.1132 O   0  0  0  0  0  0  0  0  0  0  0  0
    0.3184    2.5555  -17.9949 N   0  0  0  0  0  0  0  0  0  0  0  0
    1.9489    4.3879  -19.8013 H   0  0  0  0  0  0  0  0  0  0  0  0
    0.4149    3.4030  -20.0109 H   0  0  0  0  0  0  0  0  0  0  0  0
    2.0249    6.4718  -18.3720 H   0  0  0  0  0  0  0  0  0  0  0  0
    0.1415    8.3235  -18.3574 H   0  0  0  0  0  0  0  0  0  0  0  0
   -0.6125    7.4364  -18.0512 H   0  0  0  0  0  0  0  0  0  0  0  0
    0.8309    8.8434  -16.3364 H   0  0  0  0  0  0  0  0  0  0  0  0
    1.8058    6.4792  -16.2216 H   0  0  0  0  0  0  0  0  0  0  0  0
    3.1812    8.7323  -15.9993 H   0  0  0  0  0  0  0  0  0  0  0  0
    2.9160    7.3061  -17.1784 H   0  0  0  0  0  0  0  0  0  0  0  0
    3.2171    9.7873  -17.5733 H   0  0  0  0  0  0  0  0  0  0  0  0
    1.6427    9.1820  -18.2644 H   0  0  0  0  0  0  0  0  0  0  0  0
   -0.3898   11.1262  -15.7127 H   0  0  0  0  0  0  0  0  0  0  0  0
   -1.4494    9.3636  -17.2328 H   0  0  0  0  0  0  0  0  0  0  0  0
   -0.1595    8.6662  -17.0839 H   0  0  0  0  0  0  0  0  0  0  0  0
   -0.8410    8.4321  -16.0602 H   0  0  0  0  0  0  0  0  0  0  0  0
    0.3290    8.8773  -15.0133 H   0  0  0  0  0  0  0  0  0  0  0  0
   -2.7073    9.7353  -13.5107 H   0  0  0  0  0  0  0  0  0  0  0  0
   -1.3084   11.0467  -14.3575 H   0  0  0  0  0  0  0  0  0  0  0  0
   -3.9724   10.9394  -14.3079 H   0  0  0  0  0  0  0  0  0  0  0  0
   -3.5398   10.9634  -16.2391 H   0  0  0  0  0  0  0  0  0  0  0  0
   -5.1609    7.8152  -15.0318 H   0  0  0  0  0  0  0  0  0  0  0  0
   -4.2230    7.6992  -12.6911 H   0  0  0  0  0  0  0  0  0  0  0  0
   -6.2796    5.9952  -15.7796 H   0  0  0  0  0  0  0  0  0  0  0  0
   -7.3589    5.6968  -14.4209 H   0  0  0  0  0  0  0  0  0  0  0  0
   -7.5529    7.4047  -16.4341 H   0  0  0  0  0  0  0  0  0  0  0  0
   -7.5232    8.2509  -14.0512 H   0  0  0  0  0  0  0  0  0  0  0  0
   -6.5094   10.4136  -15.9178 H   0  0  0  0  0  0  0  0  0  0  0  0
   -5.4205    9.7997  -15.8891 H   0  0  0  0  0  0  0  0  0  0  0  0
   -4.6298    7.9222  -16.9650 H   0  0  0  0  0  0  0  0  0  0  0  0
   -5.2481   11.0758  -17.5545 H   0  0  0  0  0  0  0  0  0  0  0  0
   -5.6578   10.8200  -19.2802 H   0  0  0  0  0  0  0  0  0  0  0  0
   -7.4886   10.4765  -16.9161 H   0  0  0  0  0  0  0  0  0  0  0  0
   -8.4676    8.7931  -18.9759 H   0  0  0  0  0  0  0  0  0  0  0  0
   -3.0813    7.1925  -18.8866 H   0  0  0  0  0  0  0  0  0  0  0  0
   -2.9719    9.1526  -18.9018 H   0  0  0  0  0  0  0  0  0  0  0  0
   -1.9405    8.3493  -18.2043 H   0  0  0  0  0  0  0  0  0  0  0  0
   -2.6939    9.0174  -16.5231 H   0  0  0  0  0  0  0  0  0  0  0  0
   -2.2990    8.3324  -12.4978 H   0  0  0  0  0  0  0  0  0  0  0  0
   -1.1359    9.9682  -12.5407 H   0  0  0  0  0  0  0  0  0  0  0  0
   -1.8051    9.5048  -11.3201 H   0  0  0  0  0  0  0  0  0  0  0  0
   -6.9529    9.5967  -13.0907 H   0  0  0  0  0  0  0  0  0  0  0  0
   -6.9023    7.8278  -12.6944 H   0  0  0  0  0  0  0  0  0  0  0  0
   -5.7747    8.8428  -12.0089 H   0  0  0  0  0  0  0  0  0  0  0  0
   -8.2421    9.0956  -16.4660 H   0  0  0  0  0  0  0  0  0  0  0  0
   -8.4666    6.9801  -15.7283 H   0  0  0  0  0  0  0  0  0  0  0  0
   -8.7197    8.3622  -14.7224 H   0  0  0  0  0  0  0  0  0  0  0  0
   -8.5158   12.1408  -20.4527 H   0  0  0  0  0  0  0  0  0  0  0  0
   -8.9409    9.8810  -21.1228 H   0  0  0  0  0  0  0  0  0  0  0  0
   -6.2384    9.4831  -20.6114 H   0  0  0  0  0  0  0  0  0  0  0  0
   -7.1954    9.3054  -19.6128 H   0  0  0  0  0  0  0  0  0  0  0  0
   -7.2152    8.5162  -22.9745 H   0  0  0  0  0  0  0  0  0  0  0  0
   -7.1509    6.3017  -23.9506 H   0  0  0  0  0  0  0  0  0  0  0  0
   -7.3301    4.6034  -20.1205 H   0  0  0  0  0  0  0  0  0  0  0  0
   -8.1420    6.7541  -19.2897 H   0  0  0  0  0  0  0  0  0  0  0  0
   -7.8782    1.8345  -22.2456 H   0  0  0  0  0  0  0  0  0  0  0  0
   -7.7732    2.8425  -20.8531 H   0  0  0  0  0  0  0  0  0  0  0  0
   -7.7125    2.8444  -24.3856 H   0  0  0  0  0  0  0  0  0  0  0  0
   -5.0952   13.1409  -22.4063 H   0  0  0  0  0  0  0  0  0  0  0  0
   -6.4103   12.8542  -23.5620 H   0  0  0  0  0  0  0  0  0  0  0  0
   -4.1895   12.8985  -24.6520 H   0  0  0  0  0  0  0  0  0  0  0  0
   -4.9718   11.3113  -24.8118 H   0  0  0  0  0  0  0  0  0  0  0  0
   -2.6506   10.9556  -24.2431 H   0  0  0  0  0  0  0  0  0  0  0  0
   -2.7534   12.0928  -22.8896 H   0  0  0  0  0  0  0  0  0  0  0  0
   -4.1549    9.4140  -23.1532 H   0  0  0  0  0  0  0  0  0  0  0  0
   -2.8838    9.8485  -21.9957 H   0  0  0  0  0  0  0  0  0  0  0  0
   -4.9436    9.8941  -21.0440 H   0  0  0  0  0  0  0  0  0  0  0  0
   -4.3763   11.4808  -20.9340 H   0  0  0  0  0  0  0  0  0  0  0  0
   -1.8387    6.5763  -17.7417 H   0  0  0  0  0  0  0  0  0  0  0  0
   -0.6037    8.3225  -14.7112 H   0  0  0  0  0  0  0  0  0  0  0  0
   -0.5795    8.1124  -14.1522 H   0  0  0  0  0  0  0  0  0  0  0  0
   -0.5733    5.9337  -13.0776 H   0  0  0  0  0  0  0  0  0  0  0  0
   -1.5983    5.8646  -13.6597 H   0  0  0  0  0  0  0  0  0  0  0  0
   -0.7523    5.1548  -17.4365 H   0  0  0  0  0  0  0  0  0  0  0  0
    0.3485    3.8086  -16.2975 H   0  0  0  0  0  0  0  0  0  0  0  0
   -2.2444    3.8467  -17.7183 H   0  0  0  0  0  0  0  0  0  0  0  0
   -1.7235    2.6165  -15.8687 H   0  0  0  0  0  0  0  0  0  0  0  0
   -2.1222    4.7344  -14.0612 H   0  0  0  0  0  0  0  0  0  0  0  0
   -3.6551    5.1452  -13.1666 H   0  0  0  0  0  0  0  0  0  0  0  0
   -1.8450    3.4708  -12.1527 H   0  0  0  0  0  0  0  0  0  0  0  0
   -2.3261    3.1161  -12.1575 H   0  0  0  0  0  0  0  0  0  0  0  0
   -1.2975    2.5562  -14.5012 H   0  0  0  0  0  0  0  0  0  0  0  0
   -0.4988    1.9171  -15.2822 H   0  0  0  0  0  0  0  0  0  0  0  0
   -3.2169    1.4953  -15.5254 H   0  0  0  0  0  0  0  0  0  0  0  0
   -2.5626    0.8561  -13.8316 H   0  0  0  0  0  0  0  0  0  0  0  0
   -5.0353    3.6489  -15.3138 H   0  0  0  0  0  0  0  0  0  0  0  0
   -2.6076    2.9463  -15.0861 H   0  0  0  0  0  0  0  0  0  0  0  0
   -3.7168    5.3571  -16.9110 H   0  0  0  0  0  0  0  0  0  0  0  0
   -3.2988    6.3069  -15.7373 H   0  0  0  0  0  0  0  0  0  0  0  0
   -1.8334    8.6453  -15.1989 H   0  0  0  0  0  0  0  0  0  0  0  0
   -3.3879    7.1495  -13.3837 H   0  0  0  0  0  0  0  0  0  0  0  0
   -0.4029    3.9239  -12.5806 H   0  0  0  0  0  0  0  0  0  0  0  0
    1.3807    3.1661  -10.6596 H   0  0  0  0  0  0  0  0  0  0  0  0
   -0.2149    3.6975   -9.5752 H   0  0  0  0  0  0  0  0  0  0  0  0
    0.2859    2.0756   -9.4011 H   0  0  0  0  0  0  0  0  0  0  0  0
    1.4336    3.7568  -13.0712 H   0  0  0  0  0  0  0  0  0  0  0  0
   -1.2898    6.2830  -12.3031 H   0  0  0  0  0  0  0  0  0  0  0  0
    0.8992    7.6692  -12.3819 H   0  0  0  0  0  0  0  0  0  0  0  0
    0.3204    7.4901  -13.6865 H   0  0  0  0  0  0  0  0  0  0  0  0
    2.7870    5.5638  -11.3904 H   0  0  0  0  0  0  0  0  0  0  0  0
    0.8508    2.7460  -11.7487 H   0  0  0  0  0  0  0  0  0  0  0  0
   -1.7089    3.1481   -9.9069 H   0  0  0  0  0  0  0  0  0  0  0  0
   -2.0066    2.0714  -11.3038 H   0  0  0  0  0  0  0  0  0  0  0  0
   -2.2974   -0.5312  -11.6067 H   0  0  0  0  0  0  0  0  0  0  0  0
   -2.6435    4.3193  -10.8635 H   0  0  0  0  0  0  0  0  0  0  0  0
    0.5336    5.4326  -12.9817 H   0  0  0  0  0  0  0  0  0  0  0  0
    1.5474    6.8583  -14.8430 H   0  0  0  0  0  0  0  0  0  0  0  0
    1.2571    8.4040  -13.7324 H   0  0  0  0  0  0  0  0  0  0  0  0
    2.6957    8.0157  -14.3849 H   0  0  0  0  0  0  0  0  0  0  0  0
    0.2667    3.8629  -15.0490 H   0  0  0  0  0  0  0  0  0  0  0  0
   -3.2056    4.2483  -16.9185 H   0  0  0  0  0  0  0  0  0  0  0  0
   -2.7112    2.8174  -16.7803 H   0  0  0  0  0  0  0  0  0  0  0  0
   -3.9581    3.0987  -15.9698 H   0  0  0  0  0  0  0  0  0  0  0  0
   -1.7113    6.4443  -16.2277 H   0  0  0  0  0  0  0  0  0  0  0  0
    2.4049    5.4180  -14.7536 H   0  0  0  0  0  0  0  0  0  0  0  0
    2.5564    7.3876  -11.7236 H   0  0  0  0  0  0  0  0  0  0  0  0
    3.6456    6.1810  -12.5874 H   0  0  0  0  0  0  0  0  0  0  0  0
    5.8034    7.3157  -13.5996 H   0  0  0  0  0  0  0  0  0  0  0  0
    0.8406    6.9876  -11.1424 H   0  0  0  0  0  0  0  0  0  0  0  0
   -2.8623    5.8465  -13.5946 H   0  0  0  0  0  0  0  0  0  0  0  0
   -1.6065    4.5410  -12.9955 H   0  0  0  0  0  0  0  0  0  0  0  0
   -2.8274    4.7265  -12.1046 H   0  0  0  0  0  0  0  0  0  0  0  0
   -0.4961    8.9309  -11.8784 H   0  0  0  0  0  0  0  0  0  0  0  0
   -4.6484    8.9051  -12.6229 H   0  0  0  0  0  0  0  0  0  0  0  0
    0.3080   10.2243  -14.6931 H   0  0  0  0  0  0  0  0  0  0  0  0
    0.9829    8.5873  -11.4209 H   0  0  0  0  0  0  0  0  0  0  0  0
    2.0679    8.4741  -12.5259 H   0  0  0  0  0  0  0  0  0  0  0  0
    2.4922    9.1205  -11.6292 H   0  0  0  0  0  0  0  0  0  0  0  0
   -0.5188    9.5403  -13.8847 H   0  0  0  0  0  0  0  0  0  0  0  0
   -0.7969   11.2218  -13.0083 H   0  0  0  0  0  0  0  0  0  0  0  0
   -2.2288    7.1620   -9.1366 H   0  0  0  0  0  0  0  0  0  0  0  0
   -0.5493    9.4838  -10.7331 H   0  0  0  0  0  0  0  0  0  0  0  0
    0.6203    5.6903   -8.1223 H   0  0  0  0  0  0  0  0  0  0  0  0
   -3.5873    5.9072  -10.2139 H   0  0  0  0  0  0  0  0  0  0  0  0
   -0.1325    6.8277   -8.8387 H   0  0  0  0  0  0  0  0  0  0  0  0
   -0.1444    6.0470   -7.1766 H   0  0  0  0  0  0  0  0  0  0  0  0
   -4.4942    6.4335  -11.7076 H   0  0  0  0  0  0  0  0  0  0  0  0
   -4.7514    2.8980  -12.6735 H   0  0  0  0  0  0  0  0  0  0  0  0
   -3.2679    2.7367  -13.1344 H   0  0  0  0  0  0  0  0  0  0  0  0
   -3.5613    2.3515  -11.5227 H   0  0  0  0  0  0  0  0  0  0  0  0
   -5.8812    4.2722  -13.1020 H   0  0  0  0  0  0  0  0  0  0  0  0
   -3.8036    6.5585  -14.5763 H   0  0  0  0  0  0  0  0  0  0  0  0
   -4.6585    5.4823  -15.8023 H   0  0  0  0  0  0  0  0  0  0  0  0
   -4.8547    6.5042  -15.8778 H   0  0  0  0  0  0  0  0  0  0  0  0
    0.6507    5.2815  -16.5518 H   0  0  0  0  0  0  0  0  0  0  0  0
   -0.2027    1.7208  -18.0091 H   0  0  0  0  0  0  0  0  0  0  0  0
  2  1  1  6  0  0  0
  2  3  1  0  0  0  0
  2179  1  0  0  0  0
  3  4  1  0  0  0  0
  3180  1  0  0  0  0
  3181  1  0  0  0  0
  5  4  1  0  0  0  0
  5  6  1  0  0  0  0
  5182  1  6  0  0  0
  6  7  1  0  0  0  0
  6183  1  0  0  0  0
  6184  1  0  0  0  0
  7  8  1  0  0  0  0
  7185  1  0  0  0  0
  7186  1  0  0  0  0
  8  9  1  0  0  0  0
  8187  1  0  0  0  0
  8188  1  0  0  0  0
  9 10  1  0  0  0  0
  9189  1  0  0  0  0
  9190  1  0  0  0  0
 10 11  2  0  0  0  0
 10 12  1  0  0  0  0
 12 13  1  0  0  0  0
 12191  1  0  0  0  0
 13 14  1  0  0  0  0
 13192  1  0  0  0  0
 13193  1  0  0  0  0
 14 15  1  0  0  0  0
 14194  1  0  0  0  0
 14195  1  0  0  0  0
 15 16  1  0  0  0  0
 15196  1  0  0  0  0
 15197  1  0  0  0  0
 16198  1  0  0  0  0
 16199  1  0  0  0  0
 17 66  1  0  0  0  0
 17200  1  6  0  0  0
 17 18  1  0  0  0  0
 17 16  1  0  0  0  0
 18 19  1  0  0  0  0
 18201  1  0  0  0  0
 19 20  2  0  0  0  0
 19 21  1  0  0  0  0
 21 22  1  0  0  0  0
 21202  1  0  0  0  0
 21203  1  0  0  0  0
 22 23  1  0  0  0  0
 22204  1  0  0  0  0
 22205  1  0  0  0  0
 23 24  1  0  0  0  0
 23206  1  0  0  0  0
 23207  1  0  0  0  0
 24 25  1  0  0  0  0
 24208  1  0  0  0  0
 25 26  2  0  0  0  0
 25 27  1  0  0  0  0
 27209  1  0  0  0  0
 27210  1  0  0  0  0
 28 44  1  0  0  0  0
 28211  1  1  0  0  0
 28 29  1  0  0  0  0
 28 27  1  0  0  0  0
 29 30  1  0  0  0  0
 29212  1  0  0  0  0
 30 31  2  0  0  0  0
 30 32  2  0  0  0  0
 30 33  1  0  0  0  0
 33 34  2  0  0  0  0
 33 42  1  0  0  0  0
 34 35  1  0  0  0  0
 34 36  1  0  0  0  0
 35213  1  0  0  0  0
 35214  1  0  0  0  0
 35215  1  0  0  0  0
 36 37  2  0  0  0  0
 36216  1  0  0  0  0
 37 38  1  0  0  0  0
 37 40  1  0  0  0  0
 38 39  1  0  0  0  0
 39217  1  0  0  0  0
 39218  1  0  0  0  0
 39219  1  0  0  0  0
 40 41  1  0  0  0  0
 40 42  2  0  0  0  0
 41220  1  0  0  0  0
 41221  1  0  0  0  0
 41222  1  0  0  0  0
 42 43  1  0  0  0  0
 43223  1  0  0  0  0
 43224  1  0  0  0  0
 43225  1  0  0  0  0
 44 45  2  0  0  0  0
 44 46  1  0  0  0  0
 46226  1  0  0  0  0
 47 58  1  0  0  0  0
 47227  1  6  0  0  0
 47 48  1  0  0  0  0
 47 46  1  0  0  0  0
 48 49  1  0  0  0  0
 48228  1  0  0  0  0
 48229  1  0  0  0  0
 49 50  2  0  0  0  0
 49 54  1  0  0  0  0
 50 51  1  0  0  0  0
 50230  1  0  0  0  0
 51 52  2  0  0  0  0
 51231  1  0  0  0  0
 52 53  1  0  0  0  0
 52 55  1  0  0  0  0
 53 54  2  0  0  0  0
 53232  1  0  0  0  0
 54233  1  0  0  0  0
 55 56  1  0  0  0  0
 55 57  2  0  0  0  0
 56234  1  0  0  0  0
 56235  1  0  0  0  0
 57236  1  0  0  0  0
 58 59  2  0  0  0  0
 58 60  1  0  0  0  0
 60 61  1  0  0  0  0
 60 65  1  0  0  0  0
 61 62  1  0  0  0  0
 61237  1  0  0  0  0
 61238  1  0  0  0  0
 62 63  1  0  0  0  0
 62239  1  0  0  0  0
 62240  1  0  0  0  0
 63 64  1  0  0  0  0
 63241  1  0  0  0  0
 63242  1  0  0  0  0
 64 65  1  0  0  0  0
 64243  1  0  0  0  0
 64244  1  0  0  0  0
 65245  1  0  0  0  0
 65246  1  0  0  0  0
 66 67  2  0  0  0  0
 66 68  1  0  0  0  0
 68 69  1  0  0  0  0
 68247  1  0  0  0  0
 69 70  1  0  0  0  0
 69248  1  0  0  0  0
 69249  1  0  0  0  0
 70 71  1  0  0  0  0
 70250  1  0  0  0  0
 70251  1  0  0  0  0
 71 72  1  0  0  0  0
 72 73  1  0  0  0  0
 72252  1  0  0  0  0
 72253  1  0  0  0  0
 73 74  1  0  0  0  0
 73254  1  0  0  0  0
 73255  1  0  0  0  0
 74 75  1  0  0  0  0
 75 76  1  0  0  0  0
 75256  1  0  0  0  0
 75257  1  0  0  0  0
 76 77  1  0  0  0  0
 76258  1  0  0  0  0
 76259  1  0  0  0  0
 77 78  1  0  0  0  0
 78 79  1  0  0  0  0
 78260  1  0  0  0  0
 78261  1  0  0  0  0
 79 80  1  0  0  0  0
 79262  1  0  0  0  0
 79263  1  0  0  0  0
 81 82  1  0  0  0  0
 81171  1  0  0  0  0
 81264  1  6  0  0  0
 81 80  1  0  0  0  0
 82 89  1  0  0  0  0
 82265  1  1  0  0  0
 82 83  1  0  0  0  0
 83 84  1  0  0  0  0
 83266  1  0  0  0  0
 83267  1  0  0  0  0
 84 85  1  0  0  0  0
 85 86  1  0  0  0  0
 85 87  2  0  0  0  0
 85 88  2  0  0  0  0
 86268  1  0  0  0  0
 90 89  1  0  0  0  0
 90269  1  6  0  0  0
 90 91  1  0  0  0  0
 92 94  1  0  0  0  0
 92164  1  0  0  0  0
 92 93  1  1  0  0  0
 92 91  1  0  0  0  0
 94 95  1  0  0  0  0
 94 97  1  0  0  0  0
 94270  1  6  0  0  0
 95 96  1  0  0  0  0
 96271  1  0  0  0  0
 96272  1  0  0  0  0
 96273  1  0  0  0  0
 97100  1  0  0  0  0
 97274  1  6  0  0  0
 97 98  1  0  0  0  0
 98 99  1  0  0  0  0
 99275  1  0  0  0  0
 99276  1  0  0  0  0
 99277  1  0  0  0  0
100101  1  0  0  0  0
100163  1  0  0  0  0
100278  1  6  0  0  0
102104  1  0  0  0  0
102157  1  0  0  0  0
102103  1  1  0  0  0
102101  1  0  0  0  0
104111  1  0  0  0  0
104279  1  6  0  0  0
104105  1  0  0  0  0
105106  1  0  0  0  0
105280  1  0  0  0  0
105281  1  0  0  0  0
106107  1  0  0  0  0
107108  1  0  0  0  0
107109  2  0  0  0  0
107110  2  0  0  0  0
108282  1  0  0  0  0
112111  1  0  0  0  0
112283  1  1  0  0  0
112113  1  0  0  0  0
114116  1  0  0  0  0
114147  1  0  0  0  0
114115  1  1  0  0  0
114113  1  0  0  0  0
116117  1  0  0  0  0
116119  1  0  0  0  0
116284  1  1  0  0  0
117118  1  0  0  0  0
118285  1  0  0  0  0
118286  1  0  0  0  0
118287  1  0  0  0  0
119122  1  0  0  0  0
119288  1  6  0  0  0
119120  1  0  0  0  0
120121  1  0  0  0  0
121289  1  0  0  0  0
121290  1  0  0  0  0
121291  1  0  0  0  0
122123  1  0  0  0  0
122146  1  0  0  0  0
122292  1  6  0  0  0
124126  1  0  0  0  0
124143  1  0  0  0  0
124125  1  6  0  0  0
124123  1  0  0  0  0
126133  1  0  0  0  0
126293  1  6  0  0  0
126127  1  0  0  0  0
127128  1  0  0  0  0
127294  1  0  0  0  0
127295  1  0  0  0  0
128129  1  0  0  0  0
129130  1  0  0  0  0
129131  2  0  0  0  0
129132  2  0  0  0  0
130296  1  0  0  0  0
134133  1  0  0  0  0
134297  1  1  0  0  0
134135  1  0  0  0  0
135136  1  0  0  0  0
136298  1  0  0  0  0
136299  1  0  0  0  0
136300  1  0  0  0  0
137134  1  0  0  0  0
137301  1  1  0  0  0
137138  1  0  0  0  0
138139  1  0  0  0  0
139140  1  0  0  0  0
139141  2  0  0  0  0
139142  2  0  0  0  0
140302  1  0  0  0  0
143137  1  0  0  0  0
143144  1  0  0  0  0
143303  1  6  0  0  0
144145  1  0  0  0  0
145304  1  0  0  0  0
145305  1  0  0  0  0
145306  1  0  0  0  0
147146  1  0  0  0  0
147148  1  0  0  0  0
147307  1  6  0  0  0
148149  1  0  0  0  0
148150  2  0  0  0  0
149308  1  0  0  0  0
151112  1  0  0  0  0
151309  1  1  0  0  0
151152  1  0  0  0  0
152153  1  0  0  0  0
153154  1  0  0  0  0
153155  2  0  0  0  0
153156  2  0  0  0  0
154310  1  0  0  0  0
157151  1  0  0  0  0
157158  1  0  0  0  0
157311  1  1  0  0  0
158159  1  0  0  0  0
159160  1  0  0  0  0
159161  2  0  0  0  0
159162  2  0  0  0  0
160312  1  0  0  0  0
164163  1  0  0  0  0
164313  1  1  0  0  0
164165  1  0  0  0  0
165166  1  0  0  0  0
165167  2  0  0  0  0
166314  1  0  0  0  0
168 90  1  0  0  0  0
168315  1  1  0  0  0
168169  1  0  0  0  0
169170  1  0  0  0  0
170316  1  0  0  0  0
170317  1  0  0  0  0
170318  1  0  0  0  0
171168  1  0  0  0  0
171172  1  0  0  0  0
171319  1  1  0  0  0
172173  1  0  0  0  0
173320  1  0  0  0  0
173321  1  0  0  0  0
173322  1  0  0  0  0
174  5  1  0  0  0  0
174  2  1  0  0  0  0
174175  1  1  0  0  0
174176  1  0  0  0  0
176177  1  0  0  0  0
176323  1  0  0  0  0
177178  2  0  0  0  0
177179  1  0  0  0  0
179324  1  0  0  0  0
M  END
>  <DRUGBANK_ID>
DB18393

>  <COMMON_NAME>
EP-217609

>  <CAS_NUMBER>
894494-99-6

>  <UNII>
R6464792NG

>  <SYNONYMS>
EP217609

$$$$
