
 OpenBabel10282417193D

 43 46  0  0  0  0  0  0  0  0999 V2000
    0.9569   -0.0936    0.0094 C   0  0  0  0  0  0  0  0  0  0  0  0
    0.5837    0.5608    1.2170 O   0  0  0  0  0  0  0  0  0  0  0  0
    0.8656   -0.0369    2.4213 C   0  0  0  0  0  0  0  0  0  0  0  0
   -0.0014   -0.0395    3.4465 C   0  0  0  0  0  0  0  0  0  0  0  0
    0.8345   -0.5237    4.5496 C   0  0  0  0  0  0  0  0  0  0  0  0
    0.3669   -0.6320    5.9091 C   0  0  0  0  0  0  0  0  0  0  0  0
    0.8789   -0.0074    7.0352 C   0  0  0  0  0  0  0  0  0  0  0  0
    0.1050   -0.3866    8.1653 C   0  0  0  0  0  0  0  0  0  0  0  0
    0.1351   -0.0402    9.5314 C   0  0  0  0  0  0  0  0  0  0  0  0
   -0.8144   -0.5837   10.4030 C   0  0  0  0  0  0  0  0  0  0  0  0
   -1.7671   -1.4841    9.9334 C   0  0  0  0  0  0  0  0  0  0  0  0
   -1.7989   -1.8664    8.5842 C   0  0  0  0  0  0  0  0  0  0  0  0
   -0.8598   -1.2859    7.7156 C   0  0  0  0  0  0  0  0  0  0  0  0
   -0.6683   -1.4308    6.3535 N   0  0  0  0  0  0  0  0  0  0  0  0
    2.0608   -0.8105    4.2175 N   0  0  0  0  0  0  0  0  0  0  0  0
    2.1632   -0.5400    2.8642 C   0  0  0  0  0  0  0  0  0  0  0  0
    3.2941   -0.7179    2.1577 C   0  0  0  0  0  0  0  0  0  0  0  0
    4.5064   -1.1905    2.7185 C   0  0  0  0  0  0  0  0  0  0  0  0
    4.5477   -2.4164    3.3362 N   0  0  0  0  0  0  0  0  0  0  0  0
    5.8194   -2.6658    3.7954 C   0  0  0  0  0  0  0  0  0  0  0  0
    6.1637   -3.8934    4.5535 C   0  0  0  0  0  0  0  0  0  0  0  0
    6.6025   -1.5875    3.4365 C   0  0  0  0  0  0  0  0  0  0  0  0
    5.7841   -0.6609    2.7333 C   0  0  0  0  0  0  0  0  0  0  0  0
    6.2130    0.6434    2.1683 C   0  0  0  0  0  0  0  0  0  0  0  0
    0.4989    0.4482   -0.8260 H   0  0  0  0  0  0  0  0  0  0  0  0
    0.6099   -1.1301   -0.0217 H   0  0  0  0  0  0  0  0  0  0  0  0
    2.0281   -0.0317   -0.1730 H   0  0  0  0  0  0  0  0  0  0  0  0
   -1.0050    0.3318    3.4988 H   0  0  0  0  0  0  0  0  0  0  0  0
    1.7131    0.6827    7.0401 H   0  0  0  0  0  0  0  0  0  0  0  0
    0.8799    0.6567    9.9038 H   0  0  0  0  0  0  0  0  0  0  0  0
   -0.8066   -0.2962   11.4522 H   0  0  0  0  0  0  0  0  0  0  0  0
   -2.4993   -1.8919   10.6282 H   0  0  0  0  0  0  0  0  0  0  0  0
   -2.5421   -2.5762    8.2353 H   0  0  0  0  0  0  0  0  0  0  0  0
   -1.2022   -2.0601    5.7717 H   0  0  0  0  0  0  0  0  0  0  0  0
    3.3683   -0.4409    1.1205 H   0  0  0  0  0  0  0  0  0  0  0  0
    3.7504   -3.0275    3.4543 H   0  0  0  0  0  0  0  0  0  0  0  0
    6.9696   -4.4397    4.0527 H   0  0  0  0  0  0  0  0  0  0  0  0
    6.5027   -3.6328    5.5614 H   0  0  0  0  0  0  0  0  0  0  0  0
    5.3057   -4.5665    4.6483 H   0  0  0  0  0  0  0  0  0  0  0  0
    7.6536   -1.4698    3.6672 H   0  0  0  0  0  0  0  0  0  0  0  0
    6.5954    1.2930    2.9612 H   0  0  0  0  0  0  0  0  0  0  0  0
    6.9993    0.4948    1.4224 H   0  0  0  0  0  0  0  0  0  0  0  0
    5.3824    1.1641    1.6804 H   0  0  0  0  0  0  0  0  0  0  0  0
  1  2  1  0  0  0  0
  1 25  1  0  0  0  0
  1 26  1  0  0  0  0
  1 27  1  0  0  0  0
  2  3  1  0  0  0  0
  3  4  2  0  0  0  0
  3 16  1  0  0  0  0
  4  5  1  0  0  0  0
  4 28  1  0  0  0  0
  5  6  1  0  0  0  0
  5 15  2  0  0  0  0
  6  7  2  0  0  0  0
  6 14  1  0  0  0  0
  7  8  1  0  0  0  0
  7 29  1  0  0  0  0
  8  9  2  0  0  0  0
  8 13  1  0  0  0  0
  9 10  1  0  0  0  0
  9 30  1  0  0  0  0
 10 11  2  0  0  0  0
 10 31  1  0  0  0  0
 11 12  1  0  0  0  0
 11 32  1  0  0  0  0
 12 13  2  0  0  0  0
 12 33  1  0  0  0  0
 13 14  1  0  0  0  0
 14 34  1  0  0  0  0
 15 16  1  0  0  0  0
 16 17  2  0  0  0  0
 17 18  1  0  0  0  0
 17 35  1  0  0  0  0
 18 19  1  0  0  0  0
 18 23  2  0  0  0  0
 19 20  1  0  0  0  0
 19 36  1  0  0  0  0
 20 21  1  0  0  0  0
 20 22  2  0  0  0  0
 21 37  1  0  0  0  0
 21 38  1  0  0  0  0
 21 39  1  0  0  0  0
 22 23  1  0  0  0  0
 22 40  1  0  0  0  0
 23 24  1  0  0  0  0
 24 41  1  0  0  0  0
 24 42  1  0  0  0  0
 24 43  1  0  0  0  0
M  END
>  <DRUGBANK_ID>
DB12191

>  <SECONDARY_ACCESSION_NUMBERS>
DB05567

>  <COMMON_NAME>
Obatoclax

>  <CAS_NUMBER>
803712-67-6

>  <UNII>
QN4128B52A

>  <SYNONYMS>
Obatoclax

$$$$
