
 OpenBabel10282417213D

 48 51  0  0  1  0  0  0  0  0999 V2000
   -2.2788   -0.2112    0.0024 C   0  0  0  0  0  0  0  0  0  0  0  0
   -0.7903   -0.2587   -0.0015 C   0  0  0  0  0  0  0  0  0  0  0  0
   -0.0690   -1.3601    0.0035 N   0  0  0  0  0  0  0  0  0  0  0  0
    1.2902   -1.0955    0.0124 N   0  0  0  0  0  0  0  0  0  0  0  0
    1.5598    0.1901    0.0096 C   0  0  0  0  0  0  0  0  0  0  0  0
    0.1490    1.1814   -0.0066 S   0  0  0  0  0  0  0  0  0  0  0  0
    3.1692    0.8856    0.0873 S   0  0  0  0  0  0  0  0  0  0  0  0
    4.3411   -0.4959    0.0623 C   0  0  0  0  0  0  0  0  0  0  0  0
    4.1596   -1.4676    1.2114 C   0  0  0  0  0  0  0  0  0  0  0  0
    3.6688   -2.7338    1.0940 C   0  0  0  0  0  0  0  0  0  0  0  0
    3.5270   -3.5137    2.2173 N   0  0  0  0  0  0  0  0  0  0  0  0
    3.7194   -3.0715    3.5856 C   0  0  1  0  0  0  0  0  0  0  0  0
    3.6995   -4.5824    3.9715 C   0  0  1  0  0  0  0  0  0  0  0  0
    3.8182   -4.8247    2.4564 C   0  0  0  0  0  0  0  0  0  0  0  0
    4.0971   -5.7685    1.7701 O   0  0  0  0  0  0  0  0  0  0  0  0
    4.7212   -5.1496    4.9156 N   0  0  0  0  0  0  0  0  0  0  0  0
    4.4251   -5.8550    6.0769 C   0  0  0  0  0  0  0  0  0  0  0  0
    5.3287   -6.2406    6.8191 O   0  0  0  0  0  0  0  0  0  0  0  0
    2.9408   -6.0782    6.4309 C   0  0  0  0  0  0  0  0  0  0  0  0
    2.1910   -4.8025    6.6829 N   0  0  0  0  0  0  0  0  0  0  0  0
    2.7932   -3.5441    6.6597 C   0  0  0  0  0  0  0  0  0  0  0  0
    2.1571   -2.3711    6.7396 C   0  0  0  0  0  0  0  0  0  0  0  0
    0.6904   -2.3802    6.9678 C   0  0  0  0  0  0  0  0  0  0  0  0
    0.0507   -1.3370    7.0559 O   0  0  0  0  0  0  0  0  0  0  0  0
    0.0557   -3.7309    7.0846 C   0  0  0  0  0  0  0  0  0  0  0  0
    0.8156   -4.8275    6.9241 C   0  0  0  0  0  0  0  0  0  0  0  0
   -1.6218   -3.8143    7.4311 Cl  0  0  0  0  0  0  0  0  0  0  0  0
    2.9768   -0.8791    6.5186 Cl  0  0  0  0  0  0  0  0  0  0  0  0
    5.2781   -2.1663    3.6842 S   0  0  0  0  0  0  0  0  0  0  0  0
    4.6789   -0.8893    2.5257 C   0  0  0  0  0  0  0  0  0  0  0  0
    3.1870   -3.3658   -0.2038 C   0  0  0  0  0  0  0  0  0  0  0  0
    2.6295   -4.4447   -0.3103 O   0  0  0  0  0  0  0  0  0  0  0  0
    3.3864   -2.6177   -1.3023 O   0  0  0  0  0  0  0  0  0  0  0  0
   -2.6567    0.2985    0.8951 H   0  0  0  0  0  0  0  0  0  0  0  0
   -2.6621    0.3070   -0.8829 H   0  0  0  0  0  0  0  0  0  0  0  0
   -2.6951   -1.2245   -0.0008 H   0  0  0  0  0  0  0  0  0  0  0  0
    4.3748   -0.9166   -0.9349 H   0  0  0  0  0  0  0  0  0  0  0  0
    5.3582   -0.0854    0.1335 H   0  0  0  0  0  0  0  0  0  0  0  0
    2.8630   -2.5152    3.9819 H   0  0  0  0  0  0  0  0  0  0  0  0
    2.6955   -4.8990    4.2667 H   0  0  0  0  0  0  0  0  0  0  0  0
    5.7135   -4.9488    4.8020 H   0  0  0  0  0  0  0  0  0  0  0  0
    2.4816   -6.6477    5.6098 H   0  0  0  0  0  0  0  0  0  0  0  0
    2.8759   -6.7121    7.3238 H   0  0  0  0  0  0  0  0  0  0  0  0
    3.8654   -3.5302    6.4989 H   0  0  0  0  0  0  0  0  0  0  0  0
    0.3822   -5.8238    6.9943 H   0  0  0  0  0  0  0  0  0  0  0  0
    3.8959   -0.2871    3.0029 H   0  0  0  0  0  0  0  0  0  0  0  0
    5.5337   -0.2287    2.3456 H   0  0  0  0  0  0  0  0  0  0  0  0
    2.9547   -3.0744   -2.0510 H   0  0  0  0  0  0  0  0  0  0  0  0
  1  2  1  0  0  0  0
  1 34  1  0  0  0  0
  1 35  1  0  0  0  0
  1 36  1  0  0  0  0
  2  3  2  0  0  0  0
  2  6  1  0  0  0  0
  3  4  1  0  0  0  0
  4  5  2  0  0  0  0
  5  6  1  0  0  0  0
  5  7  1  0  0  0  0
  7  8  1  0  0  0  0
  8  9  1  0  0  0  0
  8 37  1  0  0  0  0
  8 38  1  0  0  0  0
  9 10  2  0  0  0  0
  9 30  1  0  0  0  0
 10 11  1  0  0  0  0
 10 31  1  0  0  0  0
 11 14  1  0  0  0  0
 12 11  1  0  0  0  0
 12 13  1  0  0  0  0
 12 29  1  0  0  0  0
 12 39  1  1  0  0  0
 13 14  1  0  0  0  0
 13 16  1  0  0  0  0
 13 40  1  1  0  0  0
 14 15  2  0  0  0  0
 16 17  1  0  0  0  0
 16 41  1  0  0  0  0
 17 18  2  0  0  0  0
 17 19  1  0  0  0  0
 19 20  1  0  0  0  0
 19 42  1  0  0  0  0
 19 43  1  0  0  0  0
 20 21  1  0  0  0  0
 20 26  1  0  0  0  0
 21 22  2  0  0  0  0
 21 44  1  0  0  0  0
 22 23  1  0  0  0  0
 22 28  1  0  0  0  0
 23 24  2  0  0  0  0
 23 25  1  0  0  0  0
 25 26  2  0  0  0  0
 25 27  1  0  0  0  0
 26 45  1  0  0  0  0
 29 30  1  0  0  0  0
 30 46  1  0  0  0  0
 30 47  1  0  0  0  0
 31 32  2  0  0  0  0
 31 33  1  0  0  0  0
 33 48  1  0  0  0  0
M  END
>  <DRUGBANK_ID>
DB13778

>  <COMMON_NAME>
Cefazedone

>  <CAS_NUMBER>
56187-47-4

>  <UNII>
7Y86X0D799

>  <SYNONYMS>
cefazedona; Cefazedone

$$$$
