BPD
 OpenBabel10282417123D

 42 45  0  0  0  0  0  0  0  0999 V2000
    0.9402    0.1264   -0.1435 F   0  0  0  0  0  0  0  0  0  0  0  0
    2.7288   -0.1726   -1.3402 F   0  0  0  0  0  0  0  0  0  0  0  0
    2.7184    1.3168    0.2496 F   0  0  0  0  0  0  0  0  0  0  0  0
    1.9294   -7.4643    1.2471 O   0  0  0  0  0  0  0  0  0  0  0  0
    0.6128   -9.6892    2.1427 O   0  0  0  0  0  0  0  0  0  0  0  0
   -1.2170   -9.3120    3.3039 O   0  0  0  0  0  0  0  0  0  0  0  0
    3.0114   -9.8956   -1.9167 O   0  0  0  0  0  0  0  0  0  0  0  0
    2.3249   -9.6794    0.1929 O   0  0  0  0  0  0  0  0  0  0  0  0
    2.1963   -4.6972    1.1879 N   0  0  0  0  0  0  0  0  0  0  0  0
    2.3000    0.0648   -0.0699 C   0  0  0  0  0  0  0  0  0  0  0  0
    2.7328   -0.9922    0.9082 C   0  0  0  0  0  0  0  0  0  0  0  0
    3.1365   -0.6815    2.2076 C   0  0  0  0  0  0  0  0  0  0  0  0
    3.3217   -1.7014    3.1389 C   0  0  0  0  0  0  0  0  0  0  0  0
    3.0882   -3.0340    2.7779 C   0  0  0  0  0  0  0  0  0  0  0  0
    2.6489   -3.3680    1.4842 C   0  0  0  0  0  0  0  0  0  0  0  0
    2.5339   -2.3321    0.5533 C   0  0  0  0  0  0  0  0  0  0  0  0
    1.1370   -5.3099    1.9564 C   0  0  0  0  0  0  0  0  0  0  0  0
    0.1514   -4.5597    2.6131 C   0  0  0  0  0  0  0  0  0  0  0  0
   -0.9039   -5.1985    3.2687 C   0  0  0  0  0  0  0  0  0  0  0  0
   -0.9832   -6.5940    3.2919 C   0  0  0  0  0  0  0  0  0  0  0  0
   -0.0241   -7.3737    2.6307 C   0  0  0  0  0  0  0  0  0  0  0  0
    1.0145   -6.7161    1.9471 C   0  0  0  0  0  0  0  0  0  0  0  0
   -0.1346   -8.8640    2.6392 C   0  0  0  0  0  0  0  0  0  0  0  0
    2.6450   -5.4779    0.0680 C   0  0  0  0  0  0  0  0  0  0  0  0
    3.1952   -4.9311   -1.0983 C   0  0  0  0  0  0  0  0  0  0  0  0
    3.5319   -5.7268   -2.1870 C   0  0  0  0  0  0  0  0  0  0  0  0
    3.3832   -7.1040   -2.1080 C   0  0  0  0  0  0  0  0  0  0  0  0
    2.8683   -7.6990   -0.9490 C   0  0  0  0  0  0  0  0  0  0  0  0
    2.4736   -6.8796    0.1225 C   0  0  0  0  0  0  0  0  0  0  0  0
    2.7512   -9.1803   -0.9656 C   0  0  0  0  0  0  0  0  0  0  0  0
   -1.1281  -10.2871    3.2169 H   0  0  0  0  0  0  0  0  0  0  0  0
    2.1501  -10.6362    0.1231 H   0  0  0  0  0  0  0  0  0  0  0  0
    3.2626    0.3577    2.5058 H   0  0  0  0  0  0  0  0  0  0  0  0
    3.5953   -1.4541    4.1623 H   0  0  0  0  0  0  0  0  0  0  0  0
    3.2252   -3.8149    3.5239 H   0  0  0  0  0  0  0  0  0  0  0  0
    2.1769   -2.5247   -0.4532 H   0  0  0  0  0  0  0  0  0  0  0  0
    0.1613   -3.4728    2.5736 H   0  0  0  0  0  0  0  0  0  0  0  0
   -1.6770   -4.6054    3.7521 H   0  0  0  0  0  0  0  0  0  0  0  0
   -1.8101   -7.0647    3.8197 H   0  0  0  0  0  0  0  0  0  0  0  0
    3.3523   -3.8726   -1.2353 H   0  0  0  0  0  0  0  0  0  0  0  0
    3.9112   -5.2565   -3.0905 H   0  0  0  0  0  0  0  0  0  0  0  0
    3.6737   -7.7142   -2.9593 H   0  0  0  0  0  0  0  0  0  0  0  0
  1 10  1  0  0  0  0
  2 10  1  0  0  0  0
  3 10  1  0  0  0  0
  4 22  1  0  0  0  0
  4 29  1  0  0  0  0
  5 23  2  0  0  0  0
  6 23  1  0  0  0  0
  6 31  1  0  0  0  0
  7 30  2  0  0  0  0
  8 30  1  0  0  0  0
  8 32  1  0  0  0  0
  9 15  1  0  0  0  0
  9 17  1  0  0  0  0
  9 24  1  0  0  0  0
 10 11  1  0  0  0  0
 11 12  2  0  0  0  0
 11 16  1  0  0  0  0
 12 13  1  0  0  0  0
 12 33  1  0  0  0  0
 13 14  2  0  0  0  0
 13 34  1  0  0  0  0
 14 15  1  0  0  0  0
 14 35  1  0  0  0  0
 15 16  2  0  0  0  0
 16 36  1  0  0  0  0
 17 18  1  0  0  0  0
 17 22  2  0  0  0  0
 18 19  2  0  0  0  0
 18 37  1  0  0  0  0
 19 20  1  0  0  0  0
 19 38  1  0  0  0  0
 20 21  2  0  0  0  0
 20 39  1  0  0  0  0
 21 22  1  0  0  0  0
 21 23  1  0  0  0  0
 24 25  1  0  0  0  0
 24 29  2  0  0  0  0
 25 26  2  0  0  0  0
 25 40  1  0  0  0  0
 26 27  1  0  0  0  0
 26 41  1  0  0  0  0
 27 28  2  0  0  0  0
 27 42  1  0  0  0  0
 28 29  1  0  0  0  0
 28 30  1  0  0  0  0
M  END
>  <DRUGBANK_ID>
DB02698

>  <SECONDARY_ACCESSION_NUMBERS>
EXPT00744

>  <COMMON_NAME>
N-(M-Trifluoromethylphenyl) Phenoxazine-4,6-Dicarboxylic Acid

$$$$
