
 OpenBabel10282417133D

 40 39  0  0  1  0  0  0  0  0999 V2000
    1.1187    1.5237   -2.4974 C   0  0  0  0  0  0  0  0  0  0  0  0
    2.9241   -1.3529    1.8120 C   0  0  0  0  0  0  0  0  0  0  0  0
    0.1690   -0.9432   -2.5364 C   0  0  0  0  0  0  0  0  0  0  0  0
    0.8164    1.9455   -1.0237 C   0  0  2  0  0  0  0  0  0  0  0  0
    1.4431   -1.3133    2.0327 C   0  0  2  0  0  0  0  0  0  0  0  0
    1.3791    0.6312   -0.1711 C   0  0  2  0  0  0  0  0  0  0  0  0
    0.7653    0.0107    1.4447 C   0  0  2  0  0  0  0  0  0  0  0  0
    0.1905    0.4870   -3.0776 N   0  0  0  0  0  0  0  0  0  0  0  0
   -0.5464    2.4729   -1.1117 O   0  0  0  0  0  0  0  0  0  0  0  0
    1.1450   -1.3721    3.4426 O   0  0  0  0  0  0  0  0  0  0  0  0
    2.8678    0.4792   -0.3667 O   0  0  0  0  0  0  0  0  0  0  0  0
    0.4394    1.0724    2.3780 O   0  0  0  0  0  0  0  0  0  0  0  0
    0.7585   -2.0072   -0.5229 O   0  0  0  0  0  0  0  0  0  0  0  0
   -1.0371    0.4321   -0.8953 O   0  0  0  0  0  0  0  0  0  0  0  0
   -0.9553   -1.0200    0.6484 O   0  0  0  0  0  0  0  0  0  0  0  0
    2.2991    1.6137    3.3342 O   0  0  0  0  0  0  0  0  0  0  0  0
    4.1210    1.9693    1.8472 O   0  0  0  0  0  0  0  0  0  0  0  0
    1.9575    2.5687    1.1663 O   0  0  0  0  0  0  0  0  0  0  0  0
    3.3802   -0.1388    2.3466 O   0  0  0  0  0  0  0  0  0  0  0  0
   -0.4400   -0.9848   -0.8113 P   0  0  0  0  0  0  0  0  0  0  0  0
    2.6294    1.2899    1.7237 P   0  0  0  0  0  0  0  0  0  0  0  0
    1.3422    2.8552   -0.7647 H   0  0  0  0  0  0  0  0  0  0  0  0
    1.0267   -2.2418    1.6305 H   0  0  0  0  0  0  0  0  0  0  0  0
    1.3802   -0.1774   -0.8406 H   0  0  0  0  0  0  0  0  0  0  0  0
   -0.2068   -0.1938    1.7850 H   0  0  0  0  0  0  0  0  0  0  0  0
    2.1565    1.1915   -2.5884 H   0  0  0  0  0  0  0  0  0  0  0  0
    1.0243    2.4331   -3.1015 H   0  0  0  0  0  0  0  0  0  0  0  0
    3.4008   -2.1736    2.3591 H   0  0  0  0  0  0  0  0  0  0  0  0
    3.2106   -1.4659    0.7643 H   0  0  0  0  0  0  0  0  0  0  0  0
   -0.4927   -1.5382   -3.1730 H   0  0  0  0  0  0  0  0  0  0  0  0
    1.1859   -1.3319   -2.6656 H   0  0  0  0  0  0  0  0  0  0  0  0
   -0.7089    0.8707   -3.3892 H   0  0  0  0  0  0  0  0  0  0  0  0
   -1.1655    1.9506   -0.5398 H   0  0  0  0  0  0  0  0  0  0  0  0
    1.7469   -0.7544    3.8985 H   0  0  0  0  0  0  0  0  0  0  0  0
    3.3096    1.3386   -0.5230 H   0  0  0  0  0  0  0  0  0  0  0  0
    0.5274    0.5873    3.2273 H   0  0  0  0  0  0  0  0  0  0  0  0
    0.3611   -2.8978   -0.3458 H   0  0  0  0  0  0  0  0  0  0  0  0
   -0.8286    0.8737   -1.7749 H   0  0  0  0  0  0  0  0  0  0  0  0
    1.4310    2.0910    3.2903 H   0  0  0  0  0  0  0  0  0  0  0  0
    4.6256    1.4475    2.5012 H   0  0  0  0  0  0  0  0  0  0  0  0
  1 26  1  0  0  0  0
  1 27  1  0  0  0  0
  2 28  1  0  0  0  0
  2 29  1  0  0  0  0
  3 30  1  0  0  0  0
  3 31  1  0  0  0  0
  4  9  1  0  0  0  0
  4 22  1  1  0  0  0
  4  6  1  0  0  0  0
  4  1  1  0  0  0  0
  5  2  1  0  0  0  0
  5 10  1  0  0  0  0
  5 23  1  6  0  0  0
  6 24  1  6  0  0  0
  6 11  1  0  0  0  0
  6  7  1  0  0  0  0
  7  5  1  0  0  0  0
  7 12  1  0  0  0  0
  7 25  1  6  0  0  0
  8  1  1  0  0  0  0
  8  3  1  0  0  0  0
  8 32  1  0  0  0  0
  9 33  1  0  0  0  0
 10 34  1  0  0  0  0
 11 35  1  0  0  0  0
 12 36  1  0  0  0  0
 13 37  1  0  0  0  0
 14 38  1  0  0  0  0
 16 39  1  0  0  0  0
 17 40  1  0  0  0  0
 19  2  1  0  0  0  0
 20  3  1  0  0  0  0
 20 13  1  0  0  0  0
 20 14  1  0  0  0  0
 20 15  2  0  0  0  0
 21 16  1  0  0  0  0
 21 17  1  0  0  0  0
 21 18  2  0  0  0  0
 21 19  1  0  0  0  0
M  END
>  <DRUGBANK_ID>
DB02992

>  <SECONDARY_ACCESSION_NUMBERS>
EXPT01682

>  <COMMON_NAME>
1-Deoxy-6-O-Phosphono-1-[(Phosphonomethyl)Amino]-L-Threo-Hexitol

$$$$
