
 OpenBabel10282417143D

 18 17  0  0  0  0  0  0  0  0999 V2000
    1.0250   -0.0420    0.0550 C   0  0  1  0  0  0  0  0  0  0  0  0
    0.3275   -1.4070   -0.1248 C   0  0  2  0  0  0  0  0  0  0  0  0
    1.4364   -0.0131    2.4639 O   0  0  0  0  0  0  0  0  0  0  0  0
    1.9522   -2.9726   -1.0130 O   0  0  0  0  0  0  0  0  0  0  0  0
    0.6384    0.8369   -1.0052 O   0  0  0  0  0  0  0  0  0  0  0  0
    0.4915   -2.2037    1.0586 O   0  0  0  0  0  0  0  0  0  0  0  0
    0.6424    0.5540    1.4254 C   0  0  0  0  0  0  0  0  0  0  0  0
    0.7833   -2.2198   -1.3434 C   0  0  0  0  0  0  0  0  0  0  0  0
    2.1149   -0.1586    0.0115 H   0  0  0  0  0  0  0  0  0  0  0  0
   -0.7424   -1.2070   -0.2557 H   0  0  0  0  0  0  0  0  0  0  0  0
    1.2667   -0.9774    2.4280 H   0  0  0  0  0  0  0  0  0  0  0  0
    2.7277   -2.3996   -1.1692 H   0  0  0  0  0  0  0  0  0  0  0  0
   -0.3147    1.0171   -0.9173 H   0  0  0  0  0  0  0  0  0  0  0  0
    1.1835   -2.8631    0.8368 H   0  0  0  0  0  0  0  0  0  0  0  0
    0.7649    1.6406    1.4463 H   0  0  0  0  0  0  0  0  0  0  0  0
   -0.4108    0.3500    1.6554 H   0  0  0  0  0  0  0  0  0  0  0  0
    0.0051   -2.9563   -1.5760 H   0  0  0  0  0  0  0  0  0  0  0  0
    0.9540   -1.6186   -2.2415 H   0  0  0  0  0  0  0  0  0  0  0  0
  1  5  1  0  0  0  0
  1  9  1  6  0  0  0
  1  2  1  0  0  0  0
  1  7  1  0  0  0  0
  2  8  1  0  0  0  0
  2  6  1  0  0  0  0
  2 10  1  6  0  0  0
  3  7  1  0  0  0  0
  3 11  1  0  0  0  0
  4  8  1  0  0  0  0
  4 12  1  0  0  0  0
  5 13  1  0  0  0  0
  6 14  1  0  0  0  0
  7 15  1  0  0  0  0
  7 16  1  0  0  0  0
  8 17  1  0  0  0  0
  8 18  1  0  0  0  0
M  END
>  <DRUGBANK_ID>
DB04481

>  <SECONDARY_ACCESSION_NUMBERS>
EXPT02232

>  <COMMON_NAME>
Erythritol

>  <CAS_NUMBER>
149-32-6

>  <UNII>
RA96B954X6

>  <SYNONYMS>
(2R,3S)-butane-1,2,3,4-tetrol; Erythrit; Erythrite; Erythritol; Erythro-tetritol; Erythrol; L-erythritol; Mesoerythritol; Phycite; Phycitol

$$$$
