
 OpenBabel10282417223D

 42 44  0  0  0  0  0  0  0  0999 V2000
    1.0996   -2.4005    0.0248 Na  0  3  0  0  0  0  0  0  0  0  0  0
   -0.3935    0.9607    0.9294 Na  0  3  0  0  0  0  0  0  0  0  0  0
    1.1209    0.1373   -0.1912 O   0  5  0  0  0  0  0  0  0  0  0  0
    2.1429    6.3889    1.8186 C   0  0  0  0  0  0  0  0  0  0  0  0
    1.4143    4.5238   -0.1594 C   0  0  0  0  0  0  0  0  0  0  0  0
   -0.9611   10.5531   -1.3569 C   0  0  0  0  0  0  0  0  0  0  0  0
   -1.5367    9.6595   -2.2614 C   0  0  0  0  0  0  0  0  0  0  0  0
   -1.2714    8.2670   -2.1837 C   0  0  0  0  0  0  0  0  0  0  0  0
   -0.1044   10.0598   -0.3760 C   0  0  0  0  0  0  0  0  0  0  0  0
    0.1747    8.6802   -0.2904 C   0  0  0  0  0  0  0  0  0  0  0  0
   -0.4140    7.7475   -1.1849 C   0  0  0  0  0  0  0  0  0  0  0  0
   -0.0841    6.3293   -1.0942 N   0  0  0  0  0  0  0  0  0  0  0  0
    0.7876    5.9496   -0.1833 C   0  0  0  0  0  0  0  0  0  0  0  0
    1.3780    6.8915    0.8401 C   0  0  0  0  0  0  0  0  0  0  0  0
    1.0624    8.2193    0.6987 N   0  0  0  0  0  0  0  0  0  0  0  0
   -2.6614   10.3151   -3.5513 S   0  0  0  0  0  0  0  0  0  0  0  0
   -1.9846    9.9212   -4.7822 O   0  5  0  0  0  0  0  0  0  0  0  0
   -3.9052    9.6117   -3.2534 O   0  0  0  0  0  0  0  0  0  0  0  0
   -2.6853   11.7531   -3.2887 O   0  0  0  0  0  0  0  0  0  0  0  0
    4.0811    0.3163    2.0727 C   0  0  0  0  0  0  0  0  0  0  0  0
    2.7894    0.5632    1.7121 C   0  0  0  0  0  0  0  0  0  0  0  0
    2.0723    1.7459    2.3181 C   0  0  0  0  0  0  0  0  0  0  0  0
    4.6366    1.4697    2.5584 C   0  0  0  0  0  0  0  0  0  0  0  0
    3.9936    2.7346    2.2591 C   0  0  0  0  0  0  0  0  0  0  0  0
    2.7925    2.8443    2.8700 C   0  0  0  0  0  0  0  0  0  0  0  0
    2.3477    4.2115    3.0240 N   0  0  0  0  0  0  0  0  0  0  0  0
    2.3583    4.9313    1.9224 C   0  0  0  0  0  0  0  0  0  0  0  0
    2.5136    4.2421    0.6110 C   0  0  0  0  0  0  0  0  0  0  0  0
    3.5204    3.1822    0.6979 N   0  0  0  0  0  0  0  0  0  0  0  0
    2.5651   -0.0178   -0.0707 S   0  0  0  0  0  0  0  0  0  0  0  0
    2.9191   -1.4236   -0.0240 O   0  0  0  0  0  0  0  0  0  0  0  0
    3.3827    0.8716   -0.8926 O   0  0  0  0  0  0  0  0  0  0  0  0
    2.6132    7.0276    2.5506 H   0  0  0  0  0  0  0  0  0  0  0  0
    0.9916    3.9108   -0.9510 H   0  0  0  0  0  0  0  0  0  0  0  0
   -1.1774   11.6192   -1.4183 H   0  0  0  0  0  0  0  0  0  0  0  0
   -1.7414    7.6221   -2.9214 H   0  0  0  0  0  0  0  0  0  0  0  0
    0.3452   10.7631    0.3197 H   0  0  0  0  0  0  0  0  0  0  0  0
    1.4658    8.8979    1.3266 H   0  0  0  0  0  0  0  0  0  0  0  0
    4.4589   -0.7020    2.1824 H   0  0  0  0  0  0  0  0  0  0  0  0
    1.0878    2.0492    2.0229 H   0  0  0  0  0  0  0  0  0  0  0  0
    4.8946    1.2717    3.6355 H   0  0  0  0  0  0  0  0  0  0  0  0
    3.0689    2.3706    0.2707 H   0  0  0  0  0  0  0  0  0  0  0  0
  4 14  2  0  0  0  0
  4 33  1  0  0  0  0
  5 34  1  0  0  0  0
  6  7  2  0  0  0  0
  6 35  1  0  0  0  0
  7 16  1  0  0  0  0
  7  8  1  0  0  0  0
  8 11  2  0  0  0  0
  8 36  1  0  0  0  0
  9  6  1  0  0  0  0
  9 37  1  0  0  0  0
 10  9  2  0  0  0  0
 10 11  1  0  0  0  0
 10 15  1  0  0  0  0
 11 12  1  0  0  0  0
 12 13  2  0  0  0  0
 13  5  1  0  0  0  0
 13 14  1  0  0  0  0
 14 15  1  0  0  0  0
 15 38  1  0  0  0  0
 16 17  1  0  0  0  0
 16 18  2  0  0  0  0
 16 19  2  0  0  0  0
 20 21  2  0  0  0  0
 20 39  1  0  0  0  0
 21 22  1  0  0  0  0
 21 30  1  0  0  0  0
 22 25  2  0  0  0  0
 22 40  1  0  0  0  0
 23 20  1  0  0  0  0
 23 41  1  0  0  0  0
 24 23  2  0  0  0  0
 24 25  1  0  0  0  0
 24 29  1  0  0  0  0
 25 26  1  0  0  0  0
 26 27  2  0  0  0  0
 27  4  1  0  0  0  0
 27 28  1  0  0  0  0
 28  5  2  0  0  0  0
 28 29  1  0  0  0  0
 29 42  1  0  0  0  0
 30  3  1  0  0  0  0
 30 31  2  0  0  0  0
 30 32  2  0  0  0  0
M  CHG  4   1   1   2   1   3  -1  17  -1
M  END
>  <DRUGBANK_ID>
DB15951

>  <COMMON_NAME>
Azapentacene

>  <CAS_NUMBER>
3863-80-7

>  <UNII>
58B6F1X64H

>  <SYNONYMS>
Sodium 5,12-dihydroazapentacene disulfonate; Sodium dihydroazapentacene polysulfonate

$$$$
