
 OpenBabel10282417133D

 27 27  0  0  1  0  0  0  0  0999 V2000
    0.9177   -0.1250    0.0382 C   0  0  0  0  0  0  0  0  0  0  0  0
   -0.0392    2.3605   -4.3788 C   0  0  0  0  0  0  0  0  0  0  0  0
    0.9176    2.5656   -3.1829 C   0  0  2  0  0  0  0  0  0  0  0  0
    2.8785    1.0580   -3.7943 C   0  0  2  0  0  0  0  0  0  0  0  0
    2.4742    0.1361   -2.6365 C   0  0  2  0  0  0  0  0  0  0  0  0
    2.4215    2.5127   -3.5423 C   0  0  2  0  0  0  0  0  0  0  0  0
    0.9635    0.2952   -2.3300 C   0  0  1  0  0  0  0  0  0  0  0  0
    0.5813    2.6347   -5.6267 O   0  0  0  0  0  0  0  0  0  0  0  0
    2.4220    0.5239   -5.0398 O   0  0  0  0  0  0  0  0  0  0  0  0
    3.2923    0.4783   -1.5085 O   0  0  0  0  0  0  0  0  0  0  0  0
    0.5123   -0.5377   -1.2575 O   0  0  0  0  0  0  0  0  0  0  0  0
    0.5977    1.6648   -2.1068 O   0  0  0  0  0  0  0  0  0  0  0  0
    3.3796    3.3586   -2.1887 S   0  0  0  0  0  0  0  0  0  0  0  0
    0.6878    3.5712   -2.8041 H   0  0  0  0  0  0  0  0  0  0  0  0
    3.9712    1.0539   -3.8858 H   0  0  0  0  0  0  0  0  0  0  0  0
    2.6838   -0.9114   -2.8780 H   0  0  0  0  0  0  0  0  0  0  0  0
    2.6306    3.1261   -4.4227 H   0  0  0  0  0  0  0  0  0  0  0  0
    0.4052   -0.0739   -3.1958 H   0  0  0  0  0  0  0  0  0  0  0  0
    0.4410   -0.7803    0.7705 H   0  0  0  0  0  0  0  0  0  0  0  0
    0.6073    0.9037    0.2418 H   0  0  0  0  0  0  0  0  0  0  0  0
    1.9927   -0.2339    0.1825 H   0  0  0  0  0  0  0  0  0  0  0  0
   -0.4194    1.3385   -4.4324 H   0  0  0  0  0  0  0  0  0  0  0  0
   -0.9259    2.9943   -4.2791 H   0  0  0  0  0  0  0  0  0  0  0  0
    0.8540    3.5702   -5.6398 H   0  0  0  0  0  0  0  0  0  0  0  0
    1.4797    0.7298   -5.2030 H   0  0  0  0  0  0  0  0  0  0  0  0
    2.9149    1.3039   -1.1402 H   0  0  0  0  0  0  0  0  0  0  0  0
    4.4303    2.5171   -2.1610 H   0  0  0  0  0  0  0  0  0  0  0  0
  1 19  1  0  0  0  0
  1 20  1  0  0  0  0
  1 21  1  0  0  0  0
  2 22  1  0  0  0  0
  2 23  1  0  0  0  0
  3 14  1  1  0  0  0
  3  2  1  0  0  0  0
  4  9  1  0  0  0  0
  4 15  1  6  0  0  0
  5  4  1  0  0  0  0
  5 16  1  6  0  0  0
  5 10  1  0  0  0  0
  6  3  1  0  0  0  0
  6  4  1  0  0  0  0
  6 17  1  6  0  0  0
  6 13  1  0  0  0  0
  7  5  1  0  0  0  0
  7 11  1  0  0  0  0
  7 18  1  6  0  0  0
  8  2  1  0  0  0  0
  8 24  1  0  0  0  0
  9 25  1  0  0  0  0
 10 26  1  0  0  0  0
 11  1  1  0  0  0  0
 12  3  1  0  0  0  0
 12  7  1  0  0  0  0
 13 27  1  0  0  0  0
M  END
>  <DRUGBANK_ID>
DB03406

>  <SECONDARY_ACCESSION_NUMBERS>
EXPT02101

>  <COMMON_NAME>
O1-Methyl-4-Deoxy-4-Thio-Alpha-D-Glucose

$$$$
