
 OpenBabel10282417133D

 71 75  0  0  0  0  0  0  0  0999 V2000
    0.9532   -0.0333   -0.0818 P   0  0  3  0  0  0  0  0  0  0  0  0
    0.9624   -1.1699    0.9597 O   0  0  0  0  0  0  0  0  0  0  0  0
    0.9543    1.3546    0.8022 O   0  0  0  0  0  0  0  0  0  0  0  0
   -0.7768   -0.0333   -0.0818 O   0  0  0  0  0  0  0  0  0  0  0  0
   -1.2684   -0.9523   -1.0329 C   0  0  0  0  0  0  0  0  0  0  0  0
   -0.8250   -0.5525   -2.4338 C   0  0  1  0  0  0  0  0  0  0  0  0
   -1.0128   -1.7119   -3.2534 O   0  0  0  0  0  0  0  0  0  0  0  0
   -1.6408    0.6080   -3.0286 C   0  0  1  0  0  0  0  0  0  0  0  0
   -0.8640    1.4679   -3.8826 O   0  0  0  0  0  0  0  0  0  0  0  0
   -2.6646   -0.1145   -3.8941 C   0  0  1  0  0  0  0  0  0  0  0  0
   -3.0924    0.6653   -5.0108 O   0  0  0  0  0  0  0  0  0  0  0  0
   -1.8459   -1.3141   -4.3310 C   0  0  2  0  0  0  0  0  0  0  0  0
   -2.5502   -2.4643   -4.8149 N   0  0  0  0  0  0  0  0  0  0  0  0
   -3.5045   -3.2608   -4.2508 C   0  0  0  0  0  0  0  0  0  0  0  0
   -3.8172   -4.2727   -5.0465 N   0  0  0  0  0  0  0  0  0  0  0  0
   -3.0066   -4.1150   -6.1599 C   0  0  0  0  0  0  0  0  0  0  0  0
   -2.8171   -4.8322   -7.3504 C   0  0  0  0  0  0  0  0  0  0  0  0
   -3.5105   -5.9780   -7.6552 N   0  0  0  0  0  0  0  0  0  0  0  0
   -1.9036   -4.3802   -8.2499 N   0  0  0  0  0  0  0  0  0  0  0  0
   -1.2162   -3.2569   -7.9654 C   0  0  0  0  0  0  0  0  0  0  0  0
   -1.3189   -2.4957   -6.8762 N   0  0  0  0  0  0  0  0  0  0  0  0
   -2.2270   -2.9906   -6.0253 C   0  0  0  0  0  0  0  0  0  0  0  0
    2.6832   -0.0333   -0.0818 O   0  0  0  0  0  0  0  0  0  0  0  0
    3.2598    1.0322   -1.3168 P   0  0  3  0  0  0  0  0  0  0  0  0
    2.3841    0.3313   -2.3510 O   0  0  0  0  0  0  0  0  0  0  0  0
    2.7126    2.2393   -0.5464 O   0  5  0  0  0  0  0  0  0  0  0  0
    3.8365    2.0976   -2.5518 O   0  0  0  0  0  0  0  0  0  0  0  0
    5.2486    2.2249   -2.4444 C   0  0  0  0  0  0  0  0  0  0  0  0
    5.6867    2.8189   -1.0793 C   0  0  1  0  0  0  0  0  0  0  0  0
    6.6277    1.9113   -0.4391 O   0  0  0  0  0  0  0  0  0  0  0  0
    6.3791    4.1809   -1.1848 C   0  0  1  0  0  0  0  0  0  0  0  0
    6.1273    5.0170   -0.0512 O   0  0  0  0  0  0  0  0  0  0  0  0
    7.8545    3.8362   -1.1483 C   0  0  1  0  0  0  0  0  0  0  0  0
    8.7022    4.8314   -0.5921 O   0  0  0  0  0  0  0  0  0  0  0  0
    7.9033    2.5570   -0.2913 C   0  0  2  0  0  0  0  0  0  0  0  0
    8.9218    1.6036   -0.8587 C   0  0  0  0  0  0  0  0  0  0  0  0
    8.7022    1.2524   -2.1880 C   0  0  0  0  0  0  0  0  0  0  0  0
    9.5685    0.4731   -2.9076 C   0  0  0  0  0  0  0  0  0  0  0  0
    9.3007    0.2092   -4.3298 C   0  0  0  0  0  0  0  0  0  0  0  0
   10.0897   -0.5034   -4.9514 O   0  0  0  0  0  0  0  0  0  0  0  0
    8.1996    0.7718   -4.9170 N   0  0  0  0  0  0  0  0  0  0  0  0
   10.6803   -0.0162   -2.2435 C   0  0  0  0  0  0  0  0  0  0  0  0
   10.8809    0.2881   -0.9398 N   0  3  0  0  0  0  0  0  0  0  0  0
   10.0442    1.0815   -0.2300 C   0  0  0  0  0  0  0  0  0  0  0  0
    1.5701    1.9824    0.3139 H   0  0  0  0  0  0  0  0  0  0  0  0
   -0.9127   -1.9594   -0.7833 H   0  0  0  0  0  0  0  0  0  0  0  0
   -2.3604   -0.9852   -0.9698 H   0  0  0  0  0  0  0  0  0  0  0  0
    0.2312   -0.3113   -2.4705 H   0  0  0  0  0  0  0  0  0  0  0  0
   -2.0918    1.2439   -2.2618 H   0  0  0  0  0  0  0  0  0  0  0  0
   -0.1877    0.9534   -4.3598 H   0  0  0  0  0  0  0  0  0  0  0  0
   -3.5362   -0.4070   -3.3032 H   0  0  0  0  0  0  0  0  0  0  0  0
   -2.2896    1.0833   -5.3867 H   0  0  0  0  0  0  0  0  0  0  0  0
   -1.1727   -0.9775   -5.1275 H   0  0  0  0  0  0  0  0  0  0  0  0
   -3.9441   -3.0851   -3.2747 H   0  0  0  0  0  0  0  0  0  0  0  0
   -4.1843   -6.3286   -6.9911 H   0  0  0  0  0  0  0  0  0  0  0  0
   -3.3111   -6.4318   -8.5306 H   0  0  0  0  0  0  0  0  0  0  0  0
   -0.4895   -2.9161   -8.6942 H   0  0  0  0  0  0  0  0  0  0  0  0
    5.6610    1.2200   -2.6040 H   0  0  0  0  0  0  0  0  0  0  0  0
    5.5810    2.8410   -3.2852 H   0  0  0  0  0  0  0  0  0  0  0  0
    4.8594    2.9022   -0.3822 H   0  0  0  0  0  0  0  0  0  0  0  0
    6.0787    4.7286   -2.0845 H   0  0  0  0  0  0  0  0  0  0  0  0
    6.0903    4.4623    0.7474 H   0  0  0  0  0  0  0  0  0  0  0  0
    8.1856    3.6855   -2.1808 H   0  0  0  0  0  0  0  0  0  0  0  0
    8.1933    5.2466    0.1335 H   0  0  0  0  0  0  0  0  0  0  0  0
    8.0675    2.7630    0.7724 H   0  0  0  0  0  0  0  0  0  0  0  0
    7.8199    1.6474   -2.6641 H   0  0  0  0  0  0  0  0  0  0  0  0
    7.4860    1.3439   -4.4827 H   0  0  0  0  0  0  0  0  0  0  0  0
    8.0031    0.5525   -5.8868 H   0  0  0  0  0  0  0  0  0  0  0  0
   11.4210   -0.6471   -2.7235 H   0  0  0  0  0  0  0  0  0  0  0  0
   11.7067   -0.0972   -0.4760 H   0  0  0  0  0  0  0  0  0  0  0  0
   10.3133    1.2658    0.8065 H   0  0  0  0  0  0  0  0  0  0  0  0
  1  3  1  0  0  0  0
  1  4  1  0  0  0  0
  2  1  2  0  0  0  0
  3 45  1  0  0  0  0
  5  4  1  0  0  0  0
  5 46  1  0  0  0  0
  5 47  1  0  0  0  0
  6  5  1  0  0  0  0
  6  7  1  0  0  0  0
  6 48  1  1  0  0  0
  8  6  1  0  0  0  0
  8  9  1  0  0  0  0
  8 49  1  1  0  0  0
  9 50  1  0  0  0  0
 10  8  1  0  0  0  0
 10 11  1  0  0  0  0
 10 51  1  1  0  0  0
 11 52  1  0  0  0  0
 12  7  1  0  0  0  0
 12 10  1  0  0  0  0
 12 53  1  6  0  0  0
 12 13  1  0  0  0  0
 14 13  1  0  0  0  0
 14 15  2  0  0  0  0
 14 54  1  0  0  0  0
 16 15  1  0  0  0  0
 16 17  1  0  0  0  0
 17 18  1  0  0  0  0
 17 19  2  0  0  0  0
 18 55  1  0  0  0  0
 18 56  1  0  0  0  0
 20 19  1  0  0  0  0
 20 21  2  0  0  0  0
 20 57  1  0  0  0  0
 22 13  1  0  0  0  0
 22 16  2  0  0  0  0
 22 21  1  0  0  0  0
 23  1  1  0  0  0  0
 24 23  1  0  0  0  0
 24 26  1  0  0  0  0
 25 24  2  0  0  0  0
 27 24  1  0  0  0  0
 28 27  1  0  0  0  0
 28 58  1  0  0  0  0
 28 59  1  0  0  0  0
 29 28  1  0  0  0  0
 29 30  1  0  0  0  0
 29 60  1  1  0  0  0
 31 29  1  0  0  0  0
 31 32  1  0  0  0  0
 31 61  1  6  0  0  0
 32 62  1  0  0  0  0
 33 31  1  0  0  0  0
 33 34  1  0  0  0  0
 33 63  1  6  0  0  0
 34 64  1  0  0  0  0
 35 30  1  0  0  0  0
 35 33  1  0  0  0  0
 35 65  1  1  0  0  0
 35 36  1  0  0  0  0
 36 37  2  0  0  0  0
 36 44  1  0  0  0  0
 37 38  1  0  0  0  0
 37 66  1  0  0  0  0
 38 39  1  0  0  0  0
 38 42  2  0  0  0  0
 39 40  2  0  0  0  0
 39 41  1  0  0  0  0
 41 67  1  0  0  0  0
 41 68  1  0  0  0  0
 42 43  1  0  0  0  0
 42 69  1  0  0  0  0
 43 70  1  0  0  0  0
 44 43  2  0  0  0  0
 44 71  1  0  0  0  0
M  CHG  2  26  -1  43   1
M  END
>  <DRUGBANK_ID>
DB03020

>  <SECONDARY_ACCESSION_NUMBERS>
EXPT00966

>  <COMMON_NAME>
5-beta-D-ribofuranosylnicotinamide adenine dinucleotide

$$$$
