
 OpenBabel10282417183D

129132  0  0  1  0  0  0  0  0999 V2000
    0.6944   -6.8020   24.1823 C   0  0  0  0  0  0  0  0  0  0  0  0
    1.8243   -7.7698   23.8724 C   0  0  0  0  0  0  0  0  0  0  0  0
    1.4529   -8.6450   22.6751 C   0  0  0  0  0  0  0  0  0  0  0  0
    1.1968   -7.7879   21.4317 C   0  0  0  0  0  0  0  0  0  0  0  0
    2.4431   -6.9654   21.0971 C   0  0  0  0  0  0  0  0  0  0  0  0
    3.6135   -7.9150   20.8239 C   0  0  0  0  0  0  0  0  0  0  0  0
    3.2518   -8.8127   19.6380 C   0  0  0  0  0  0  0  0  0  0  0  0
    2.9757   -7.8978   18.4486 C   0  0  0  0  0  0  0  0  0  0  0  0
    4.2141   -6.9950   18.2751 C   0  0  0  0  0  0  0  0  0  0  0  0
    5.4707   -7.8726   18.1376 C   0  0  0  0  0  0  0  0  0  0  0  0
    5.1967   -8.7278   16.9901 C   0  0  0  0  0  0  0  0  0  0  0  0
    4.9932   -7.7677   15.9165 C   0  0  0  0  0  0  0  0  0  0  0  0
    6.3376   -7.1585   15.3946 C   0  0  0  0  0  0  0  0  0  0  0  0
    7.4469   -8.2118   14.9539 C   0  0  0  0  0  0  0  0  0  0  0  0
    7.3587   -9.1761   13.7450 C   0  0  0  0  0  0  0  0  0  0  0  0
    7.2633   -8.4189   12.4770 C   0  0  0  0  0  0  0  0  0  0  0  0
    8.3035   -7.3898   12.1689 C   0  0  0  0  0  0  0  0  0  0  0  0
    9.3048   -8.2904   11.5536 C   0  0  0  0  0  0  0  0  0  0  0  0
    8.6135   -8.9792   10.3313 C   0  0  0  0  0  0  0  0  0  0  0  0
    7.8255   -7.9834    9.3323 C   0  0  0  0  0  0  0  0  0  0  0  0
    8.2946   -8.0460    8.1750 O   0  0  0  0  0  0  0  0  0  0  0  0
    6.7045   -7.0569    9.5409 N   0  0  0  0  0  0  0  0  0  0  0  0
    5.7771   -6.2030   10.7413 C   0  0  1  0  0  0  0  0  0  0  0  0
    4.4262   -5.5963   11.9821 C   0  0  0  0  0  0  0  0  0  0  0  0
    3.1031   -6.6582   12.6174 C   0  0  0  0  0  0  0  0  0  0  0  0
    3.5825   -8.1175   12.5654 C   0  0  1  0  0  0  0  0  0  0  0  0
    3.9863   -8.3800   11.0673 C   0  0  1  0  0  0  0  0  0  0  0  0
    4.6683   -7.1978   10.4264 C   0  0  0  0  0  0  0  0  0  0  0  0
    4.7925   -9.6016   10.7201 C   0  0  0  0  0  0  0  0  0  0  0  0
    3.9835  -10.7252   11.2099 C   0  0  2  0  0  0  0  0  0  0  0  0
    3.7337  -10.5072   12.7463 C   0  0  2  0  0  0  0  0  0  0  0  0
    2.8695   -9.3296   13.1839 C   0  0  2  0  0  0  0  0  0  0  0  0
    2.4863   -9.3772   14.7351 C   0  0  0  0  0  0  0  0  0  0  0  0
    1.7503  -10.6195   15.1854 C   0  0  1  0  0  0  0  0  0  0  0  0
    2.5603  -11.8611   14.9377 C   0  0  1  0  0  0  0  0  0  0  0  0
    3.0879  -11.6894   13.2804 C   0  0  1  0  0  0  0  0  0  0  0  0
    2.0517  -12.3273   12.5564 C   0  0  0  0  0  0  0  0  0  0  0  0
    2.6419  -13.4722   13.5254 C   0  0  0  0  0  0  0  0  0  0  0  0
    3.8005  -12.6117   14.9108 C   0  0  2  0  0  0  0  0  0  0  0  0
    4.9894  -12.5322   16.2322 C   0  0  2  0  0  0  0  0  0  0  0  0
    6.1383  -11.3948   16.1072 C   0  0  0  0  0  0  0  0  0  0  0  0
    5.8661  -13.7460   16.5599 C   0  0  0  0  0  0  0  0  0  0  0  0
    7.2701  -13.5784   17.2725 C   0  0  0  0  0  0  0  0  0  0  0  0
    7.3245  -13.0506   18.7258 C   0  0  0  0  0  0  0  0  0  0  0  0
    7.8066  -13.6057   19.6290 O   0  0  0  0  0  0  0  0  0  0  0  0
    6.8257  -11.7857   18.8715 O   0  0  0  0  0  0  0  0  0  0  0  0
    1.8583  -13.1286   15.7351 C   0  0  0  0  0  0  0  0  0  0  0  0
    1.3081  -10.5964   16.5361 O   0  0  0  0  0  0  0  0  0  0  0  0
    4.7129  -11.8967   10.8375 O   0  0  0  0  0  0  0  0  0  0  0  0
    4.7152   -7.9317   13.4518 C   0  0  0  0  0  0  0  0  0  0  0  0
    0.4836   -6.1299   23.3438 H   0  0  0  0  0  0  0  0  0  0  0  0
    0.9481   -6.1698   25.0327 H   0  0  0  0  0  0  0  0  0  0  0  0
   -0.2195   -7.3617   24.4007 H   0  0  0  0  0  0  0  0  0  0  0  0
    2.7489   -7.2095   23.6869 H   0  0  0  0  0  0  0  0  0  0  0  0
    2.0380   -8.4013   24.7380 H   0  0  0  0  0  0  0  0  0  0  0  0
    2.2528   -9.3741   22.4945 H   0  0  0  0  0  0  0  0  0  0  0  0
    0.5675   -9.2466   22.8952 H   0  0  0  0  0  0  0  0  0  0  0  0
    0.8932   -8.4304   20.5981 H   0  0  0  0  0  0  0  0  0  0  0  0
    0.3399   -7.1242   21.5602 H   0  0  0  0  0  0  0  0  0  0  0  0
    2.2271   -6.3026   20.2516 H   0  0  0  0  0  0  0  0  0  0  0  0
    2.7158   -6.2632   21.8867 H   0  0  0  0  0  0  0  0  0  0  0  0
    4.5234   -7.3313   20.6517 H   0  0  0  0  0  0  0  0  0  0  0  0
    3.8915   -8.5235   21.6830 H   0  0  0  0  0  0  0  0  0  0  0  0
    4.0607   -9.5240   19.4431 H   0  0  0  0  0  0  0  0  0  0  0  0
    2.3986   -9.4659   19.8272 H   0  0  0  0  0  0  0  0  0  0  0  0
    2.7225   -8.4984   17.5710 H   0  0  0  0  0  0  0  0  0  0  0  0
    2.0792   -7.2831   18.5588 H   0  0  0  0  0  0  0  0  0  0  0  0
    4.0118   -6.3074   17.4499 H   0  0  0  0  0  0  0  0  0  0  0  0
    4.3963   -6.2742   19.0613 H   0  0  0  0  0  0  0  0  0  0  0  0
    6.3678   -7.2967   17.9281 H   0  0  0  0  0  0  0  0  0  0  0  0
    5.7304   -8.5334   18.9593 H   0  0  0  0  0  0  0  0  0  0  0  0
    6.0497   -9.2339   16.6253 H   0  0  0  0  0  0  0  0  0  0  0  0
    4.4134   -9.4944   17.1239 H   0  0  0  0  0  0  0  0  0  0  0  0
    4.5973   -8.5373   15.3282 H   0  0  0  0  0  0  0  0  0  0  0  0
    4.1088   -7.1017   15.9145 H   0  0  0  0  0  0  0  0  0  0  0  0
    6.1957   -6.3782   14.6332 H   0  0  0  0  0  0  0  0  0  0  0  0
    6.7222   -6.5059   16.1796 H   0  0  0  0  0  0  0  0  0  0  0  0
    8.3330   -7.6082   14.7721 H   0  0  0  0  0  0  0  0  0  0  0  0
    7.7084   -8.8355   15.8023 H   0  0  0  0  0  0  0  0  0  0  0  0
    8.2027   -9.8712   13.6676 H   0  0  0  0  0  0  0  0  0  0  0  0
    6.5469   -9.8987   13.7270 H   0  0  0  0  0  0  0  0  0  0  0  0
    7.1504   -9.1381   11.7208 H   0  0  0  0  0  0  0  0  0  0  0  0
    6.3049   -8.1406   12.2189 H   0  0  0  0  0  0  0  0  0  0  0  0
    8.1507   -6.6412   11.3881 H   0  0  0  0  0  0  0  0  0  0  0  0
    8.4748   -6.7334   13.0181 H   0  0  0  0  0  0  0  0  0  0  0  0
   10.1660   -7.7081   11.2502 H   0  0  0  0  0  0  0  0  0  0  0  0
    9.6159   -9.0138   12.3177 H   0  0  0  0  0  0  0  0  0  0  0  0
    9.4213   -9.5677    9.8724 H   0  0  0  0  0  0  0  0  0  0  0  0
    7.9703   -9.8663   10.5183 H   0  0  0  0  0  0  0  0  0  0  0  0
    6.6032   -6.5942    8.6341 H   0  0  0  0  0  0  0  0  0  0  0  0
    6.4549   -6.5388   11.4802 H   0  0  0  0  0  0  0  0  0  0  0  0
    4.9321   -5.2267   12.9034 H   0  0  0  0  0  0  0  0  0  0  0  0
    3.8843   -4.7447   11.5690 H   0  0  0  0  0  0  0  0  0  0  0  0
    2.8264   -6.4050   13.6721 H   0  0  0  0  0  0  0  0  0  0  0  0
    2.1630   -6.5479   12.0859 H   0  0  0  0  0  0  0  0  0  0  0  0
    3.0218   -8.4533   10.5797 H   0  0  0  0  0  0  0  0  0  0  0  0
    4.9451   -7.2777   11.4349 H   0  0  0  0  0  0  0  0  0  0  0  0
    3.8590   -6.5319   10.1180 H   0  0  0  0  0  0  0  0  0  0  0  0
    5.7591   -9.8449   11.1309 H   0  0  0  0  0  0  0  0  0  0  0  0
    5.0025   -9.5647    9.6508 H   0  0  0  0  0  0  0  0  0  0  0  0
    3.0612  -10.6849   10.6395 H   0  0  0  0  0  0  0  0  0  0  0  0
    4.7395  -10.5272   13.1964 H   0  0  0  0  0  0  0  0  0  0  0  0
    1.9225   -9.4318   12.6684 H   0  0  0  0  0  0  0  0  0  0  0  0
    3.2629   -9.4681   15.4723 H   0  0  0  0  0  0  0  0  0  0  0  0
    1.9635   -8.4545   14.9821 H   0  0  0  0  0  0  0  0  0  0  0  0
    0.8244  -10.6163   14.6033 H   0  0  0  0  0  0  0  0  0  0  0  0
    3.9999  -12.3185   13.0052 H   0  0  0  0  0  0  0  0  0  0  0  0
    1.1600  -11.7018   12.8040 H   0  0  0  0  0  0  0  0  0  0  0  0
    2.1801  -12.2901   11.4774 H   0  0  0  0  0  0  0  0  0  0  0  0
    2.3642  -14.5190   13.6825 H   0  0  0  0  0  0  0  0  0  0  0  0
    1.5082  -13.4274   13.6631 H   0  0  0  0  0  0  0  0  0  0  0  0
    4.4830  -11.8461   14.5375 H   0  0  0  0  0  0  0  0  0  0  0  0
    4.4327  -12.1956   17.1238 H   0  0  0  0  0  0  0  0  0  0  0  0
    6.0245  -10.7353   15.2709 H   0  0  0  0  0  0  0  0  0  0  0  0
    6.2091  -10.8613   17.0589 H   0  0  0  0  0  0  0  0  0  0  0  0
    7.2054  -11.6395   16.0222 H   0  0  0  0  0  0  0  0  0  0  0  0
    5.2709  -14.4092   17.1835 H   0  0  0  0  0  0  0  0  0  0  0  0
    6.0709  -14.2003   15.5897 H   0  0  0  0  0  0  0  0  0  0  0  0
    7.7115  -14.5773   17.3191 H   0  0  0  0  0  0  0  0  0  0  0  0
    8.0410  -13.0568   16.6857 H   0  0  0  0  0  0  0  0  0  0  0  0
    6.9465  -11.5527   19.8153 H   0  0  0  0  0  0  0  0  0  0  0  0
    0.8225  -13.3003   15.4313 H   0  0  0  0  0  0  0  0  0  0  0  0
    2.3788  -14.1095   15.5843 H   0  0  0  0  0  0  0  0  0  0  0  0
    1.9761  -13.0529   16.8125 H   0  0  0  0  0  0  0  0  0  0  0  0
    2.0517  -10.3741   17.1140 H   0  0  0  0  0  0  0  0  0  0  0  0
    4.6318  -12.6079   11.4867 H   0  0  0  0  0  0  0  0  0  0  0  0
    5.0849   -8.8669   13.8341 H   0  0  0  0  0  0  0  0  0  0  0  0
    5.5320   -7.2799   13.2467 H   0  0  0  0  0  0  0  0  0  0  0  0
    4.3544   -7.2125   14.1507 H   0  0  0  0  0  0  0  0  0  0  0  0
  1  2  1  0  0  0  0
  1 51  1  0  0  0  0
  1 52  1  0  0  0  0
  1 53  1  0  0  0  0
  2  3  1  0  0  0  0
  2 54  1  0  0  0  0
  2 55  1  0  0  0  0
  3  4  1  0  0  0  0
  3 56  1  0  0  0  0
  3 57  1  0  0  0  0
  4  5  1  0  0  0  0
  4 58  1  0  0  0  0
  4 59  1  0  0  0  0
  5  6  1  0  0  0  0
  5 60  1  0  0  0  0
  5 61  1  0  0  0  0
  6  7  1  0  0  0  0
  6 62  1  0  0  0  0
  6 63  1  0  0  0  0
  7  8  1  0  0  0  0
  7 64  1  0  0  0  0
  7 65  1  0  0  0  0
  8  9  1  0  0  0  0
  8 66  1  0  0  0  0
  8 67  1  0  0  0  0
  9 10  1  0  0  0  0
  9 68  1  0  0  0  0
  9 69  1  0  0  0  0
 10 11  1  0  0  0  0
 10 70  1  0  0  0  0
 10 71  1  0  0  0  0
 11 12  1  0  0  0  0
 11 72  1  0  0  0  0
 11 73  1  0  0  0  0
 12 13  1  0  0  0  0
 12 74  1  0  0  0  0
 12 75  1  0  0  0  0
 13 14  1  0  0  0  0
 13 76  1  0  0  0  0
 13 77  1  0  0  0  0
 14 15  1  0  0  0  0
 14 78  1  0  0  0  0
 14 79  1  0  0  0  0
 15 16  1  0  0  0  0
 15 80  1  0  0  0  0
 15 81  1  0  0  0  0
 16 17  1  0  0  0  0
 16 82  1  0  0  0  0
 16 83  1  0  0  0  0
 17 18  1  0  0  0  0
 17 84  1  0  0  0  0
 17 85  1  0  0  0  0
 18 19  1  0  0  0  0
 18 86  1  0  0  0  0
 18 87  1  0  0  0  0
 19 20  1  0  0  0  0
 19 88  1  0  0  0  0
 19 89  1  0  0  0  0
 20 21  2  0  0  0  0
 20 22  1  0  0  0  0
 22 90  1  0  0  0  0
 23 24  1  0  0  0  0
 23 28  1  0  0  0  0
 23 91  1  1  0  0  0
 23 22  1  0  0  0  0
 24 25  1  0  0  0  0
 24 92  1  0  0  0  0
 24 93  1  0  0  0  0
 25 26  1  0  0  0  0
 25 94  1  0  0  0  0
 25 95  1  0  0  0  0
 26 27  1  0  0  0  0
 26 32  1  0  0  0  0
 26 50  1  6  0  0  0
 27 28  1  0  0  0  0
 27 29  1  0  0  0  0
 27 96  1  6  0  0  0
 28 97  1  0  0  0  0
 28 98  1  0  0  0  0
 29 30  1  0  0  0  0
 29 99  1  0  0  0  0
 29100  1  0  0  0  0
 30 31  1  0  0  0  0
 30 49  1  0  0  0  0
 30101  1  6  0  0  0
 31 32  1  0  0  0  0
 31 36  1  0  0  0  0
 31102  1  6  0  0  0
 32 33  1  0  0  0  0
 32103  1  1  0  0  0
 33 34  1  0  0  0  0
 33104  1  0  0  0  0
 33105  1  0  0  0  0
 34 35  1  0  0  0  0
 34 48  1  0  0  0  0
 34106  1  6  0  0  0
 35 36  1  0  0  0  0
 35 39  1  0  0  0  0
 35 47  1  6  0  0  0
 36 37  1  0  0  0  0
 36107  1  6  0  0  0
 37 38  1  0  0  0  0
 37108  1  0  0  0  0
 37109  1  0  0  0  0
 38 39  1  0  0  0  0
 38110  1  0  0  0  0
 38111  1  0  0  0  0
 39 40  1  0  0  0  0
 39112  1  6  0  0  0
 40113  1  1  0  0  0
 40 42  1  0  0  0  0
 40 41  1  0  0  0  0
 41114  1  0  0  0  0
 41115  1  0  0  0  0
 41116  1  0  0  0  0
 42 43  1  0  0  0  0
 42117  1  0  0  0  0
 42118  1  0  0  0  0
 43 44  1  0  0  0  0
 43119  1  0  0  0  0
 43120  1  0  0  0  0
 44 45  2  0  0  0  0
 44 46  1  0  0  0  0
 46121  1  0  0  0  0
 47122  1  0  0  0  0
 47123  1  0  0  0  0
 47124  1  0  0  0  0
 48125  1  0  0  0  0
 49126  1  0  0  0  0
 50127  1  0  0  0  0
 50128  1  0  0  0  0
 50129  1  0  0  0  0
M  END
>  <DRUGBANK_ID>
DB11860

>  <COMMON_NAME>
Aramchol

>  <CAS_NUMBER>
246529-22-6

>  <UNII>
QE1Q24M65Y

$$$$
