
 OpenBabel10282417123D

 46 48  0  0  0  0  0  0  0  0999 V2000
    1.0797    0.2919   -0.1714 C   0  0  0  0  0  0  0  0  0  0  0  0
    0.5593    0.8419    1.0781 N   0  0  0  0  0  0  0  0  0  0  0  0
   -0.9017    0.8499    1.0562 C   0  0  0  0  0  0  0  0  0  0  0  0
    1.0656    0.1925    2.2989 C   0  0  0  0  0  0  0  0  0  0  0  0
    0.6202   -1.2475    2.5477 C   0  0  0  0  0  0  0  0  0  0  0  0
    1.0845   -2.2516    1.5267 C   0  0  0  0  0  0  0  0  0  0  0  0
    2.5230   -2.2978    1.3715 N   0  0  0  0  0  0  0  0  0  0  0  0
    3.3102   -3.4297    1.3852 C   0  0  0  0  0  0  0  0  0  0  0  0
    4.5200   -3.3297    1.3128 O   0  0  0  0  0  0  0  0  0  0  0  0
    2.6025   -4.7396    1.4350 C   0  0  0  0  0  0  0  0  0  0  0  0
    1.5513   -4.9533    0.5168 C   0  0  0  0  0  0  0  0  0  0  0  0
    0.7497   -6.0696    0.6137 C   0  0  0  0  0  0  0  0  0  0  0  0
    1.0621   -7.0191    1.5644 C   0  0  0  0  0  0  0  0  0  0  0  0
    2.1538   -6.8625    2.4475 C   0  0  0  0  0  0  0  0  0  0  0  0
    2.4880   -7.8705    3.3731 C   0  0  0  0  0  0  0  0  0  0  0  0
    1.7054   -9.0304    3.4852 N   0  0  0  0  0  0  0  0  0  0  0  0
    3.5735   -7.6527    4.2463 C   0  0  0  0  0  0  0  0  0  0  0  0
    4.2787   -6.4368    4.1585 C   0  0  0  0  0  0  0  0  0  0  0  0
    5.3607   -6.2294    5.0085 C   0  0  0  0  0  0  0  0  0  0  0  0
    5.7567   -7.1928    5.9402 C   0  0  0  0  0  0  0  0  0  0  0  0
    5.0618   -8.3871    6.0313 C   0  0  0  0  0  0  0  0  0  0  0  0
    3.9811   -8.6118    5.1925 C   0  0  0  0  0  0  0  0  0  0  0  0
    3.9484   -5.4812    3.2815 N   0  0  0  0  0  0  0  0  0  0  0  0
    2.9376   -5.6832    2.4094 C   0  0  0  0  0  0  0  0  0  0  0  0
    0.8665    0.9476   -1.0191 H   0  0  0  0  0  0  0  0  0  0  0  0
    0.5965   -0.6412   -0.4521 H   0  0  0  0  0  0  0  0  0  0  0  0
    2.1639    0.1415   -0.1337 H   0  0  0  0  0  0  0  0  0  0  0  0
   -1.3250   -0.1604    1.0667 H   0  0  0  0  0  0  0  0  0  0  0  0
   -1.2911    1.3970    1.9207 H   0  0  0  0  0  0  0  0  0  0  0  0
   -1.2738    1.3434    0.1547 H   0  0  0  0  0  0  0  0  0  0  0  0
    2.1607    0.2592    2.3354 H   0  0  0  0  0  0  0  0  0  0  0  0
    0.7335    0.7832    3.1647 H   0  0  0  0  0  0  0  0  0  0  0  0
    0.9884   -1.5762    3.5263 H   0  0  0  0  0  0  0  0  0  0  0  0
   -0.4716   -1.3116    2.6123 H   0  0  0  0  0  0  0  0  0  0  0  0
    0.6911   -3.2033    1.8743 H   0  0  0  0  0  0  0  0  0  0  0  0
    0.6446   -2.1426    0.5384 H   0  0  0  0  0  0  0  0  0  0  0  0
    3.0561   -1.4426    1.2391 H   0  0  0  0  0  0  0  0  0  0  0  0
    1.3045   -4.2035   -0.2296 H   0  0  0  0  0  0  0  0  0  0  0  0
   -0.1083   -6.2076   -0.0357 H   0  0  0  0  0  0  0  0  0  0  0  0
    0.4347   -7.9021    1.5926 H   0  0  0  0  0  0  0  0  0  0  0  0
    1.9947   -9.7963    4.0716 H   0  0  0  0  0  0  0  0  0  0  0  0
    0.9840   -9.2511    2.8189 H   0  0  0  0  0  0  0  0  0  0  0  0
    5.9176   -5.2962    4.9401 H   0  0  0  0  0  0  0  0  0  0  0  0
    6.6058   -7.0111    6.5915 H   0  0  0  0  0  0  0  0  0  0  0  0
    5.3473   -9.1524    6.7452 H   0  0  0  0  0  0  0  0  0  0  0  0
    3.4641   -9.5585    5.2876 H   0  0  0  0  0  0  0  0  0  0  0  0
  1  2  1  0  0  0  0
  1 25  1  0  0  0  0
  1 26  1  0  0  0  0
  1 27  1  0  0  0  0
  2  3  1  0  0  0  0
  2  4  1  0  0  0  0
  3 28  1  0  0  0  0
  3 29  1  0  0  0  0
  3 30  1  0  0  0  0
  4  5  1  0  0  0  0
  4 31  1  0  0  0  0
  4 32  1  0  0  0  0
  5  6  1  0  0  0  0
  5 33  1  0  0  0  0
  5 34  1  0  0  0  0
  6  7  1  0  0  0  0
  6 35  1  0  0  0  0
  6 36  1  0  0  0  0
  7  8  1  0  0  0  0
  7 37  1  0  0  0  0
  8  9  2  0  0  0  0
  8 10  1  0  0  0  0
 10 11  2  0  0  0  0
 10 24  1  0  0  0  0
 11 12  1  0  0  0  0
 11 38  1  0  0  0  0
 12 13  2  0  0  0  0
 12 39  1  0  0  0  0
 13 14  1  0  0  0  0
 13 40  1  0  0  0  0
 14 15  2  0  0  0  0
 14 24  1  0  0  0  0
 15 16  1  0  0  0  0
 15 17  1  0  0  0  0
 16 41  1  0  0  0  0
 16 42  1  0  0  0  0
 17 18  2  0  0  0  0
 17 22  1  0  0  0  0
 18 19  1  0  0  0  0
 18 23  1  0  0  0  0
 19 20  2  0  0  0  0
 19 43  1  0  0  0  0
 20 21  1  0  0  0  0
 20 44  1  0  0  0  0
 21 22  2  0  0  0  0
 21 45  1  0  0  0  0
 22 46  1  0  0  0  0
 23 24  2  0  0  0  0
M  END
>  <DRUGBANK_ID>
DB02842

>  <SECONDARY_ACCESSION_NUMBERS>
EXPT00308

>  <COMMON_NAME>
9-amino-n-[3-(dimethylamino)propyl]acridine-4-carboxamide

>  <UNII>
0LY4HYL6F8

>  <SYNONYMS>
9-amino-N-(3-dimethylaminopropyl)acridine-4-carboxamide

$$$$
