
 OpenBabel10282417223D

 13 13  0  0  0  0  0  0  0  0999 V2000
    0.6860    1.2432    0.0050 C   0  0  0  0  0  0  0  0  0  0  0  0
    1.4449    0.0735   -0.0017 C   0  0  0  0  0  0  0  0  0  0  0  0
   -0.6969    1.1395    0.0013 C   0  0  0  0  0  0  0  0  0  0  0  0
    1.3297    2.5639    0.0235 C   0  0  0  0  0  0  0  0  0  0  0  0
    0.7870   -1.1557   -0.0029 C   0  0  0  0  0  0  0  0  0  0  0  0
   -1.3572   -0.0443    0.0025 N   0  0  0  0  0  0  0  0  0  0  0  0
    0.6761    3.6002    0.0332 O   0  0  0  0  0  0  0  0  0  0  0  0
   -0.6005   -1.1636    0.0041 C   0  0  0  0  0  0  0  0  0  0  0  0
    2.4319    2.5816    0.0325 H   0  0  0  0  0  0  0  0  0  0  0  0
    2.5305    0.1033   -0.0037 H   0  0  0  0  0  0  0  0  0  0  0  0
   -1.3311    2.0226   -0.0012 H   0  0  0  0  0  0  0  0  0  0  0  0
    1.3397   -2.0893   -0.0066 H   0  0  0  0  0  0  0  0  0  0  0  0
   -1.1568   -2.0972    0.0127 H   0  0  0  0  0  0  0  0  0  0  0  0
  1  2  1  0  0  0  0
  1  3  2  0  0  0  0
  1  4  1  0  0  0  0
  2  5  2  0  0  0  0
  2 10  1  0  0  0  0
  3  6  1  0  0  0  0
  3 11  1  0  0  0  0
  4  7  2  0  0  0  0
  4  9  1  0  0  0  0
  5  8  1  0  0  0  0
  5 12  1  0  0  0  0
  6  8  2  0  0  0  0
  8 13  1  0  0  0  0
M  END
>  <DRUGBANK_ID>
DB15905

>  <COMMON_NAME>
Nicotinaldehyde

>  <CAS_NUMBER>
500-22-1

>  <UNII>
840R4IDQ1T

>  <SYNONYMS>
3-Formylpyridine; 3-Pyridinaldehyde; 3-Pyridinecarboxaldehyde; Nicotinic aldehyde

$$$$
