
 OpenBabel10282417223D

 67 70  0  0  1  0  0  0  0  0999 V2000
   -0.8707   -8.5543   -2.0605 N   0  0  0  0  0  0  0  0  0  0  0  0
   -2.0192   -7.6875   -1.9777 C   0  0  0  0  0  0  0  0  0  0  0  0
   -1.7722   -6.7286   -0.8515 C   0  0  0  0  0  0  0  0  0  0  0  0
   -0.5873   -5.7715   -0.8916 C   0  0  0  0  0  0  0  0  0  0  0  0
   -0.7154   -4.7262   -1.9945 C   0  0  0  0  0  0  0  0  0  0  0  0
   -1.4806   -3.4036   -1.7569 C   0  0  2  0  0  0  0  0  0  0  0  0
   -0.8240   -2.5038   -0.8004 N   0  0  0  0  0  0  0  0  0  0  0  0
   -3.0366   -3.4023   -1.6075 C   0  0  0  0  0  0  0  0  0  0  0  0
   -3.7311   -2.8636   -2.4748 O   0  0  0  0  0  0  0  0  0  0  0  0
   -3.7130   -3.9950   -0.5700 N   0  0  0  0  0  0  0  0  0  0  0  0
   -3.2358   -4.5776    0.6083 C   0  0  0  0  0  0  0  0  0  0  0  0
   -2.0898   -4.1245    1.2917 C   0  0  0  0  0  0  0  0  0  0  0  0
   -1.3411   -4.7430    2.2645 C   0  0  0  0  0  0  0  0  0  0  0  0
   -1.8772   -5.8746    2.7706 C   0  0  0  0  0  0  0  0  0  0  0  0
   -3.0615   -6.4433    1.9739 C   0  0  0  0  0  0  0  0  0  0  0  0
   -3.7803   -5.7856    0.9842 C   0  0  0  0  0  0  0  0  0  0  0  0
   -1.1400   -6.1384    4.4238 C   0  0  0  0  0  0  0  0  0  0  0  0
   -1.5916   -6.5212    5.5671 O   0  0  0  0  0  0  0  0  0  0  0  0
    0.2691   -6.4042    4.3915 C   0  0  0  0  0  0  0  0  0  0  0  0
    0.1534   -7.4023    3.3985 N   0  0  0  0  0  0  0  0  0  0  0  0
   -1.1831   -8.1713    3.3046 C   0  0  0  0  0  0  0  0  0  0  0  0
   -1.0114   -8.8835    2.1889 N   0  0  0  0  0  0  0  0  0  0  0  0
    0.3475   -8.7886    1.8134 C   0  0  0  0  0  0  0  0  0  0  0  0
    1.1188   -7.8842    2.5405 C   0  0  0  0  0  0  0  0  0  0  0  0
    2.5361   -7.7299    2.3117 C   0  0  0  0  0  0  0  0  0  0  0  0
    3.1486   -8.6456    1.4189 C   0  0  0  0  0  0  0  0  0  0  0  0
    2.3820   -9.5899    0.7437 C   0  0  0  0  0  0  0  0  0  0  0  0
    0.9910   -9.5880    0.8653 C   0  0  0  0  0  0  0  0  0  0  0  0
   -2.8618   -7.7700    4.1024 C   0  0  0  0  0  0  0  0  0  0  0  0
   -3.8007   -8.7124    4.2439 N   0  0  0  0  0  0  0  0  0  0  0  0
   -4.9076   -8.0732    4.8433 O   0  0  0  0  0  0  0  0  0  0  0  0
   -4.9254   -6.6784    4.9006 N   0  0  0  0  0  0  0  0  0  0  0  0
   -3.7281   -6.2572    4.5272 C   0  0  0  0  0  0  0  0  0  0  0  0
   -3.3868   -4.8023    4.4931 N   0  0  0  0  0  0  0  0  0  0  0  0
   -4.2459   -3.5791    4.5342 C   0  0  0  0  0  0  0  0  0  0  0  0
   -3.6737   -2.4411    5.4880 C   0  0  0  0  0  0  0  0  0  0  0  0
   -2.4021   -1.7632    5.0045 C   0  0  0  0  0  0  0  0  0  0  0  0
   -1.3471   -1.2008    4.6034 N   0  0  0  0  0  0  0  0  0  0  0  0
   -0.0431   -7.9622   -2.1278 H   0  0  0  0  0  0  0  0  0  0  0  0
   -0.7794   -8.9967   -1.1427 H   0  0  0  0  0  0  0  0  0  0  0  0
   -2.2134   -7.1269   -2.8955 H   0  0  0  0  0  0  0  0  0  0  0  0
   -2.9325   -8.2567   -1.7512 H   0  0  0  0  0  0  0  0  0  0  0  0
   -2.6727   -6.1521   -0.9387 H   0  0  0  0  0  0  0  0  0  0  0  0
   -1.7432   -7.2957    0.0830 H   0  0  0  0  0  0  0  0  0  0  0  0
   -0.4266   -5.2697    0.0567 H   0  0  0  0  0  0  0  0  0  0  0  0
    0.3381   -6.3443   -0.9900 H   0  0  0  0  0  0  0  0  0  0  0  0
    0.3171   -4.4376   -2.2227 H   0  0  0  0  0  0  0  0  0  0  0  0
   -1.1037   -5.2050   -2.8969 H   0  0  0  0  0  0  0  0  0  0  0  0
   -1.3268   -2.8505   -2.6914 H   0  0  0  0  0  0  0  0  0  0  0  0
   -0.1232   -3.0133   -0.2663 H   0  0  0  0  0  0  0  0  0  0  0  0
   -1.5390   -2.1179   -0.1856 H   0  0  0  0  0  0  0  0  0  0  0  0
   -4.6839   -4.1659   -0.8236 H   0  0  0  0  0  0  0  0  0  0  0  0
   -1.6169   -3.2024    1.0797 H   0  0  0  0  0  0  0  0  0  0  0  0
   -0.4386   -4.3301    2.6636 H   0  0  0  0  0  0  0  0  0  0  0  0
   -3.4605   -7.4746    2.0504 H   0  0  0  0  0  0  0  0  0  0  0  0
   -4.5251   -6.3281    0.3831 H   0  0  0  0  0  0  0  0  0  0  0  0
    0.6361   -5.3783    4.3317 H   0  0  0  0  0  0  0  0  0  0  0  0
    0.6626   -6.9067    5.2849 H   0  0  0  0  0  0  0  0  0  0  0  0
    3.1963   -7.0300    2.8373 H   0  0  0  0  0  0  0  0  0  0  0  0
    4.2325   -8.6607    1.2555 H   0  0  0  0  0  0  0  0  0  0  0  0
    2.8442  -10.3706    0.1428 H   0  0  0  0  0  0  0  0  0  0  0  0
    0.3714  -10.2879    0.3300 H   0  0  0  0  0  0  0  0  0  0  0  0
   -2.5157   -4.4523    4.1211 H   0  0  0  0  0  0  0  0  0  0  0  0
   -4.3209   -3.1185    3.5315 H   0  0  0  0  0  0  0  0  0  0  0  0
   -5.2535   -3.8525    4.8413 H   0  0  0  0  0  0  0  0  0  0  0  0
   -4.4418   -1.6835    5.6742 H   0  0  0  0  0  0  0  0  0  0  0  0
   -3.4477   -2.9311    6.4433 H   0  0  0  0  0  0  0  0  0  0  0  0
  1  2  1  0  0  0  0
  1 39  1  0  0  0  0
  1 40  1  0  0  0  0
  2  3  1  0  0  0  0
  2 41  1  0  0  0  0
  2 42  1  0  0  0  0
  3  4  1  0  0  0  0
  3 43  1  0  0  0  0
  3 44  1  0  0  0  0
  4  5  1  0  0  0  0
  4 45  1  0  0  0  0
  4 46  1  0  0  0  0
  5 47  1  0  0  0  0
  5 48  1  0  0  0  0
  6  8  1  0  0  0  0
  6 49  1  6  0  0  0
  6  7  1  0  0  0  0
  6  5  1  0  0  0  0
  7 50  1  0  0  0  0
  7 51  1  0  0  0  0
  8  9  2  0  0  0  0
  8 10  1  0  0  0  0
 10 11  1  0  0  0  0
 10 52  1  0  0  0  0
 11 12  2  0  0  0  0
 11 16  1  0  0  0  0
 12 13  1  0  0  0  0
 12 53  1  0  0  0  0
 13 14  2  0  0  0  0
 13 54  1  0  0  0  0
 14 15  1  0  0  0  0
 14 17  1  0  0  0  0
 15 16  2  0  0  0  0
 15 55  1  0  0  0  0
 16 56  1  0  0  0  0
 17 18  2  0  0  0  0
 17 19  1  0  0  0  0
 19 20  1  0  0  0  0
 19 57  1  0  0  0  0
 19 58  1  0  0  0  0
 20 21  1  0  0  0  0
 20 24  1  0  0  0  0
 21 22  2  0  0  0  0
 21 29  1  0  0  0  0
 22 23  1  0  0  0  0
 23 24  2  0  0  0  0
 23 28  1  0  0  0  0
 24 25  1  0  0  0  0
 25 26  2  0  0  0  0
 25 59  1  0  0  0  0
 26 27  1  0  0  0  0
 26 60  1  0  0  0  0
 27 28  2  0  0  0  0
 27 61  1  0  0  0  0
 28 62  1  0  0  0  0
 29 30  2  0  0  0  0
 29 33  1  0  0  0  0
 30 31  1  0  0  0  0
 31 32  1  0  0  0  0
 32 33  2  0  0  0  0
 33 34  1  0  0  0  0
 34 35  1  0  0  0  0
 34 63  1  0  0  0  0
 35 36  1  0  0  0  0
 35 64  1  0  0  0  0
 35 65  1  0  0  0  0
 36 37  1  0  0  0  0
 36 66  1  0  0  0  0
 36 67  1  0  0  0  0
 37 38  3  0  0  0  0
M  END
>  <DRUGBANK_ID>
DB15224

>  <COMMON_NAME>
Lisavanbulin

>  <CAS_NUMBER>
1263384-43-5

>  <UNII>
5PT0QP06X5

>  <SYNONYMS>
Lisavanbulin

$$$$
