16A
 OpenBabel10282417123D

 62 61  0  0  0  0  0  0  0  0999 V2000
    1.0354    0.2121    0.0273 C   0  0  0  0  0  0  0  0  0  0  0  0
    0.6197    0.5184   -1.4024 C   0  0  0  0  0  0  0  0  0  0  0  0
    1.1118   -0.5711   -2.3562 C   0  0  0  0  0  0  0  0  0  0  0  0
    0.5349   -1.9442   -1.9969 C   0  0  0  0  0  0  0  0  0  0  0  0
   -0.9969   -1.9258   -2.0343 C   0  0  0  0  0  0  0  0  0  0  0  0
   -1.4914   -1.5857   -3.4429 C   0  0  0  0  0  0  0  0  0  0  0  0
   -0.9874   -2.6349   -4.4374 C   0  0  0  0  0  0  0  0  0  0  0  0
   -1.5058   -4.0187   -4.0301 C   0  0  0  0  0  0  0  0  0  0  0  0
   -3.0375   -4.0121   -4.0466 C   0  0  0  0  0  0  0  0  0  0  0  0
   -3.5159   -3.6511   -5.4550 C   0  0  0  0  0  0  0  0  0  0  0  0
   -2.9443   -4.6713   -6.4479 C   0  0  0  0  0  0  0  0  0  0  0  0
   -3.4645   -6.0659   -6.0923 C   0  0  0  0  0  0  0  0  0  0  0  0
   -4.9889   -6.0465   -6.1285 C   0  0  0  0  0  0  0  0  0  0  0  0
   -5.4354   -5.6387   -7.5341 C   0  0  0  0  0  0  0  0  0  0  0  0
   -5.1112   -6.7370   -8.5351 C   0  0  0  0  0  0  0  0  0  0  0  0
   -5.6577   -8.1138   -8.1437 C   0  0  0  0  0  0  0  0  0  0  0  0
   -7.1994   -8.1933   -8.1151 N   0  3  0  0  0  0  0  0  0  0  0  0
   -7.7263   -7.8502   -9.4962 C   0  0  0  0  0  0  0  0  0  0  0  0
   -7.5717   -9.6299   -7.7515 C   0  0  0  0  0  0  0  0  0  0  0  0
   -7.9054   -7.3354   -7.0643 C   0  0  0  0  0  0  0  0  0  0  0  0
    0.6124   -0.7325    0.3847 H   0  0  0  0  0  0  0  0  0  0  0  0
    0.6879    0.9925    0.7057 H   0  0  0  0  0  0  0  0  0  0  0  0
    2.1250    0.1391    0.0911 H   0  0  0  0  0  0  0  0  0  0  0  0
   -0.4703    0.6261   -1.4544 H   0  0  0  0  0  0  0  0  0  0  0  0
    1.0254    1.4852   -1.7136 H   0  0  0  0  0  0  0  0  0  0  0  0
    0.8484   -0.2967   -3.3853 H   0  0  0  0  0  0  0  0  0  0  0  0
    2.2048   -0.6215   -2.3435 H   0  0  0  0  0  0  0  0  0  0  0  0
    0.9441   -2.6979   -2.6785 H   0  0  0  0  0  0  0  0  0  0  0  0
    0.8741   -2.2761   -1.0126 H   0  0  0  0  0  0  0  0  0  0  0  0
   -1.3812   -2.8926   -1.6927 H   0  0  0  0  0  0  0  0  0  0  0  0
   -1.4177   -1.2192   -1.3150 H   0  0  0  0  0  0  0  0  0  0  0  0
   -2.5842   -1.5160   -3.4413 H   0  0  0  0  0  0  0  0  0  0  0  0
   -1.1735   -0.5899   -3.7620 H   0  0  0  0  0  0  0  0  0  0  0  0
   -1.2918   -2.3562   -5.4509 H   0  0  0  0  0  0  0  0  0  0  0  0
    0.1027   -2.6533   -4.5074 H   0  0  0  0  0  0  0  0  0  0  0  0
   -1.0845   -4.7802   -4.6921 H   0  0  0  0  0  0  0  0  0  0  0  0
   -1.1453   -4.3337   -3.0485 H   0  0  0  0  0  0  0  0  0  0  0  0
   -3.4172   -4.9827   -3.7138 H   0  0  0  0  0  0  0  0  0  0  0  0
   -3.4628   -3.3168   -3.3181 H   0  0  0  0  0  0  0  0  0  0  0  0
   -4.6085   -3.5973   -5.4728 H   0  0  0  0  0  0  0  0  0  0  0  0
   -3.2277   -2.6402   -5.7533 H   0  0  0  0  0  0  0  0  0  0  0  0
   -3.1852   -4.3713   -7.4690 H   0  0  0  0  0  0  0  0  0  0  0  0
   -1.8529   -4.6829   -6.4751 H   0  0  0  0  0  0  0  0  0  0  0  0
   -3.0526   -6.8096   -6.7784 H   0  0  0  0  0  0  0  0  0  0  0  0
   -3.1238   -6.4020   -5.1078 H   0  0  0  0  0  0  0  0  0  0  0  0
   -5.3566   -7.0228   -5.8088 H   0  0  0  0  0  0  0  0  0  0  0  0
   -5.4260   -5.3751   -5.3838 H   0  0  0  0  0  0  0  0  0  0  0  0
   -6.4731   -5.3294   -7.5445 H   0  0  0  0  0  0  0  0  0  0  0  0
   -4.9763   -4.7093   -7.8758 H   0  0  0  0  0  0  0  0  0  0  0  0
   -5.4252   -6.4339   -9.5343 H   0  0  0  0  0  0  0  0  0  0  0  0
   -4.0187   -6.8234   -8.6279 H   0  0  0  0  0  0  0  0  0  0  0  0
   -5.3142   -8.8475   -8.8858 H   0  0  0  0  0  0  0  0  0  0  0  0
   -5.2815   -8.4671   -7.1802 H   0  0  0  0  0  0  0  0  0  0  0  0
   -7.2791   -8.5389  -10.2144 H   0  0  0  0  0  0  0  0  0  0  0  0
   -8.8148   -7.9329   -9.4826 H   0  0  0  0  0  0  0  0  0  0  0  0
   -7.4489   -6.8177   -9.7335 H   0  0  0  0  0  0  0  0  0  0  0  0
   -7.1793   -9.8396   -6.7532 H   0  0  0  0  0  0  0  0  0  0  0  0
   -8.6631   -9.7052   -7.7527 H   0  0  0  0  0  0  0  0  0  0  0  0
   -7.1376  -10.3046   -8.4941 H   0  0  0  0  0  0  0  0  0  0  0  0
   -7.4124   -7.4473   -6.1056 H   0  0  0  0  0  0  0  0  0  0  0  0
   -7.9587   -6.2981   -7.4060 H   0  0  0  0  0  0  0  0  0  0  0  0
   -8.9471   -7.6588   -6.9891 H   0  0  0  0  0  0  0  0  0  0  0  0
  1  2  1  0  0  0  0
  1 21  1  0  0  0  0
  1 22  1  0  0  0  0
  1 23  1  0  0  0  0
  2  3  1  0  0  0  0
  2 24  1  0  0  0  0
  2 25  1  0  0  0  0
  3  4  1  0  0  0  0
  3 26  1  0  0  0  0
  3 27  1  0  0  0  0
  4  5  1  0  0  0  0
  4 28  1  0  0  0  0
  4 29  1  0  0  0  0
  5  6  1  0  0  0  0
  5 30  1  0  0  0  0
  5 31  1  0  0  0  0
  6  7  1  0  0  0  0
  6 32  1  0  0  0  0
  6 33  1  0  0  0  0
  7  8  1  0  0  0  0
  7 34  1  0  0  0  0
  7 35  1  0  0  0  0
  8  9  1  0  0  0  0
  8 36  1  0  0  0  0
  8 37  1  0  0  0  0
  9 10  1  0  0  0  0
  9 38  1  0  0  0  0
  9 39  1  0  0  0  0
 10 11  1  0  0  0  0
 10 40  1  0  0  0  0
 10 41  1  0  0  0  0
 11 12  1  0  0  0  0
 11 42  1  0  0  0  0
 11 43  1  0  0  0  0
 12 13  1  0  0  0  0
 12 44  1  0  0  0  0
 12 45  1  0  0  0  0
 13 14  1  0  0  0  0
 13 46  1  0  0  0  0
 13 47  1  0  0  0  0
 14 15  1  0  0  0  0
 14 48  1  0  0  0  0
 14 49  1  0  0  0  0
 15 16  1  0  0  0  0
 15 50  1  0  0  0  0
 15 51  1  0  0  0  0
 16 17  1  0  0  0  0
 16 52  1  0  0  0  0
 16 53  1  0  0  0  0
 17 18  1  0  0  0  0
 17 19  1  0  0  0  0
 17 20  1  0  0  0  0
 18 54  1  0  0  0  0
 18 55  1  0  0  0  0
 18 56  1  0  0  0  0
 19 57  1  0  0  0  0
 19 58  1  0  0  0  0
 19 59  1  0  0  0  0
 20 60  1  0  0  0  0
 20 61  1  0  0  0  0
 20 62  1  0  0  0  0
M  CHG  1  17   1
M  END
>  <DRUGBANK_ID>
DB01718

>  <SECONDARY_ACCESSION_NUMBERS>
EXPT00048; DB13159

>  <COMMON_NAME>
Cetrimonium

>  <CAS_NUMBER>
6899-10-1

>  <UNII>
Z7FF1XKL7A

>  <SYNONYMS>
Cetrimonium cation; Cetrimonium ion; Cetyl-Trimethyl-Ammonium; Cetyltrimethylammonium; Cetyltrimethylammonium cation; Cetyltrimethylammonium ion; Hexadecyltrimethylammonium; Hexadecyltrimethylammonium cation; Hexadecyltrimethylammonium ion; N,N,N-Trimethyl-1-hexadecanaminium; Trimethylhexadecylammonium

$$$$
