
 OpenBabel10282417193D

 65 69  0  0  1  0  0  0  0  0999 V2000
    1.2721   -2.5598    0.2001 C   0  0  0  0  0  0  0  0  0  0  0  0
    0.4704   -1.4211   -0.4719 C   0  0  2  0  0  0  0  0  0  0  0  0
    0.9437   -0.0516    0.1495 C   0  0  0  0  0  0  0  0  0  0  0  0
    1.5324   -0.1607    1.5277 N   0  0  0  0  0  0  0  0  0  0  0  0
    2.9503   -0.0955    1.5683 C   0  0  0  0  0  0  0  0  0  0  0  0
    3.5448    1.0352    1.0236 C   0  0  0  0  0  0  0  0  0  0  0  0
    4.8917    1.2656    1.2586 C   0  0  0  0  0  0  0  0  0  0  0  0
    5.6158    0.3551    2.0154 C   0  0  0  0  0  0  0  0  0  0  0  0
    4.9634   -0.7677    2.4873 C   0  0  0  0  0  0  0  0  0  0  0  0
    3.6549   -1.0122    2.2669 N   0  0  0  0  0  0  0  0  0  0  0  0
    0.7756   -0.5584    2.6510 C   0  0  0  0  0  0  0  0  0  0  0  0
   -0.4432   -0.4907    2.7785 O   0  0  0  0  0  0  0  0  0  0  0  0
    1.3689   -1.0099    3.9099 C   0  0  0  0  0  0  0  0  0  0  0  0
    2.2054   -0.1057    4.5447 C   0  0  0  0  0  0  0  0  0  0  0  0
    2.6735   -0.3853    5.8113 C   0  0  0  0  0  0  0  0  0  0  0  0
    2.2259   -1.5249    6.4867 C   0  0  0  0  0  0  0  0  0  0  0  0
    1.3501   -2.4258    5.8702 C   0  0  0  0  0  0  0  0  0  0  0  0
    0.9158   -2.1700    4.5702 C   0  0  0  0  0  0  0  0  0  0  0  0
    2.6361   -1.7161    7.8466 C   0  0  0  0  0  0  0  0  0  0  0  0
    2.9678   -1.8224    8.9456 N   0  0  0  0  0  0  0  0  0  0  0  0
   -1.0179   -1.4909   -0.5883 N   0  0  0  0  0  0  0  0  0  0  0  0
   -1.6975   -1.4875    0.7156 C   0  0  0  0  0  0  0  0  0  0  0  0
   -1.3689   -2.7368    1.5715 C   0  0  0  0  0  0  0  0  0  0  0  0
   -1.5549   -3.9986    0.8194 N   0  0  0  0  0  0  0  0  0  0  0  0
   -1.2916   -4.0307   -0.6392 C   0  0  0  0  0  0  0  0  0  0  0  0
   -1.5534   -2.6649   -1.3040 C   0  0  0  0  0  0  0  0  0  0  0  0
   -2.4595   -4.9062    1.3481 C   0  0  0  0  0  0  0  0  0  0  0  0
   -2.1023   -6.2597    1.3988 C   0  0  0  0  0  0  0  0  0  0  0  0
   -2.9659   -7.2063    1.9484 C   0  0  0  0  0  0  0  0  0  0  0  0
   -4.2060   -6.8097    2.4492 C   0  0  0  0  0  0  0  0  0  0  0  0
   -4.5776   -5.4678    2.4122 C   0  0  0  0  0  0  0  0  0  0  0  0
   -3.7021   -4.5185    1.8839 C   0  0  0  0  0  0  0  0  0  0  0  0
   -4.0322   -3.1847    1.8157 O   0  0  0  0  0  0  0  0  0  0  0  0
   -5.1024   -2.8355    2.6814 C   0  0  0  0  0  0  0  0  0  0  0  0
   -6.2252   -3.8327    2.5057 C   0  0  0  0  0  0  0  0  0  0  0  0
   -5.8180   -5.1484    2.9042 O   0  0  0  0  0  0  0  0  0  0  0  0
    1.5263   -2.3693    1.2366 H   0  0  0  0  0  0  0  0  0  0  0  0
    2.1955   -2.8005   -0.3202 H   0  0  0  0  0  0  0  0  0  0  0  0
    0.7534   -3.4880    0.3192 H   0  0  0  0  0  0  0  0  0  0  0  0
    0.7944   -1.4093   -1.5257 H   0  0  0  0  0  0  0  0  0  0  0  0
    1.7048    0.3221   -0.5528 H   0  0  0  0  0  0  0  0  0  0  0  0
    0.1579    0.7119    0.1503 H   0  0  0  0  0  0  0  0  0  0  0  0
    2.9504    1.7796    0.5052 H   0  0  0  0  0  0  0  0  0  0  0  0
    5.3528    2.1732    0.8845 H   0  0  0  0  0  0  0  0  0  0  0  0
    6.6609    0.5249    2.2426 H   0  0  0  0  0  0  0  0  0  0  0  0
    5.4770   -1.5013    3.1033 H   0  0  0  0  0  0  0  0  0  0  0  0
    2.4873    0.8102    4.0371 H   0  0  0  0  0  0  0  0  0  0  0  0
    3.3641    0.3167    6.2643 H   0  0  0  0  0  0  0  0  0  0  0  0
    0.9823   -3.3030    6.4014 H   0  0  0  0  0  0  0  0  0  0  0  0
    0.1960   -2.8471    4.1114 H   0  0  0  0  0  0  0  0  0  0  0  0
   -1.5027   -0.5087    1.1396 H   0  0  0  0  0  0  0  0  0  0  0  0
   -2.7838   -1.4202    0.5963 H   0  0  0  0  0  0  0  0  0  0  0  0
   -0.3363   -2.7677    1.9005 H   0  0  0  0  0  0  0  0  0  0  0  0
   -1.8707   -2.7100    2.5473 H   0  0  0  0  0  0  0  0  0  0  0  0
   -0.2584   -4.3203   -0.8538 H   0  0  0  0  0  0  0  0  0  0  0  0
   -1.8507   -4.8196   -1.1497 H   0  0  0  0  0  0  0  0  0  0  0  0
   -2.6451   -2.5426   -1.3733 H   0  0  0  0  0  0  0  0  0  0  0  0
   -1.1920   -2.6542   -2.3362 H   0  0  0  0  0  0  0  0  0  0  0  0
   -1.1221   -6.5678    1.0405 H   0  0  0  0  0  0  0  0  0  0  0  0
   -2.6702   -8.2509    1.9821 H   0  0  0  0  0  0  0  0  0  0  0  0
   -4.8889   -7.5497    2.8537 H   0  0  0  0  0  0  0  0  0  0  0  0
   -5.4335   -1.8329    2.3922 H   0  0  0  0  0  0  0  0  0  0  0  0
   -4.7405   -2.7916    3.7161 H   0  0  0  0  0  0  0  0  0  0  0  0
   -7.0748   -3.5412    3.1274 H   0  0  0  0  0  0  0  0  0  0  0  0
   -6.5518   -3.8684    1.4587 H   0  0  0  0  0  0  0  0  0  0  0  0
  1 37  1  0  0  0  0
  1 38  1  0  0  0  0
  1 39  1  0  0  0  0
  2 21  1  0  0  0  0
  2 40  1  6  0  0  0
  2  3  1  0  0  0  0
  2  1  1  0  0  0  0
  3  4  1  0  0  0  0
  3 41  1  0  0  0  0
  3 42  1  0  0  0  0
  4  5  1  0  0  0  0
  4 11  1  0  0  0  0
  5  6  2  0  0  0  0
  5 10  1  0  0  0  0
  6  7  1  0  0  0  0
  6 43  1  0  0  0  0
  7  8  2  0  0  0  0
  7 44  1  0  0  0  0
  8  9  1  0  0  0  0
  8 45  1  0  0  0  0
  9 10  2  0  0  0  0
  9 46  1  0  0  0  0
 11 12  2  0  0  0  0
 11 13  1  0  0  0  0
 13 14  2  0  0  0  0
 13 18  1  0  0  0  0
 14 15  1  0  0  0  0
 14 47  1  0  0  0  0
 15 16  2  0  0  0  0
 15 48  1  0  0  0  0
 16 17  1  0  0  0  0
 16 19  1  0  0  0  0
 17 18  2  0  0  0  0
 17 49  1  0  0  0  0
 18 50  1  0  0  0  0
 19 20  3  0  0  0  0
 21 22  1  0  0  0  0
 21 26  1  0  0  0  0
 22 23  1  0  0  0  0
 22 51  1  0  0  0  0
 22 52  1  0  0  0  0
 23 24  1  0  0  0  0
 23 53  1  0  0  0  0
 23 54  1  0  0  0  0
 24 25  1  0  0  0  0
 24 27  1  0  0  0  0
 25 26  1  0  0  0  0
 25 55  1  0  0  0  0
 25 56  1  0  0  0  0
 26 57  1  0  0  0  0
 26 58  1  0  0  0  0
 27 28  2  0  0  0  0
 27 32  1  0  0  0  0
 28 29  1  0  0  0  0
 28 59  1  0  0  0  0
 29 30  2  0  0  0  0
 29 60  1  0  0  0  0
 30 31  1  0  0  0  0
 30 61  1  0  0  0  0
 31 32  2  0  0  0  0
 31 36  1  0  0  0  0
 32 33  1  0  0  0  0
 33 34  1  0  0  0  0
 34 35  1  0  0  0  0
 34 62  1  0  0  0  0
 34 63  1  0  0  0  0
 35 36  1  0  0  0  0
 35 64  1  0  0  0  0
 35 65  1  0  0  0  0
M  END
>  <DRUGBANK_ID>
DB12540

>  <COMMON_NAME>
Lecozotan

>  <CAS_NUMBER>
434283-16-6

>  <UNII>
48854OTZ5E

>  <SYNONYMS>
Lecozotan

$$$$
