439236
 OpenBabel10282417133D

 25 25  0  0  1  0  0  0  0  0999 V2000
    0.2976    0.3711    1.7719 P   0  0  0  0  0  0  0  0  0  0  0  0
   -0.1675    3.1291    0.8215 O   0  0  0  0  0  0  0  0  0  0  0  0
    1.4601    1.5576    1.4638 O   0  0  0  0  0  0  0  0  0  0  0  0
    1.7934    4.7684    2.5257 O   0  0  0  0  0  0  0  0  0  0  0  0
    3.4059    3.4692    0.7375 O   0  0  0  0  0  0  0  0  0  0  0  0
   -1.4232    6.4419    0.3441 O   0  0  0  0  0  0  0  0  0  0  0  0
    0.9444   -0.8716    0.9379 O   0  0  0  0  0  0  0  0  0  0  0  0
   -0.3842    0.8453    0.2543 O   0  0  0  0  0  0  0  0  0  0  0  0
    0.9078   -0.0532    3.1302 O   0  0  0  0  0  0  0  0  0  0  0  0
    1.3881    4.8569    1.1533 C   0  0  1  0  0  0  0  0  0  0  0  0
    2.0726    3.7552    0.3599 C   0  0  2  0  0  0  0  0  0  0  0  0
   -0.0985    4.5319    1.0330 C   0  0  1  0  0  0  0  0  0  0  0  0
    1.1217    2.5792    0.5107 C   0  0  2  0  0  0  0  0  0  0  0  0
   -0.8575    5.2166   -0.1075 C   0  0  0  0  0  0  0  0  0  0  0  0
    1.5502    3.8800    2.8577 H   0  0  0  0  0  0  0  0  0  0  0  0
    3.3706    3.1681    1.6672 H   0  0  0  0  0  0  0  0  0  0  0  0
   -2.0770    6.2199    1.0344 H   0  0  0  0  0  0  0  0  0  0  0  0
    1.4116   -1.4116    1.6118 H   0  0  0  0  0  0  0  0  0  0  0  0
    0.1475    0.3457   -0.3997 H   0  0  0  0  0  0  0  0  0  0  0  0
    1.6366    5.8577    0.7885 H   0  0  0  0  0  0  0  0  0  0  0  0
    2.0768    4.0455   -0.7003 H   0  0  0  0  0  0  0  0  0  0  0  0
   -0.6177    4.7251    1.9780 H   0  0  0  0  0  0  0  0  0  0  0  0
    1.1250    2.1187   -0.4870 H   0  0  0  0  0  0  0  0  0  0  0  0
   -0.2080    5.4297   -0.9617 H   0  0  0  0  0  0  0  0  0  0  0  0
   -1.6770    4.5877   -0.4807 H   0  0  0  0  0  0  0  0  0  0  0  0
  1  3  1  0  0  0  0
  1  7  1  0  0  0  0
  1  8  1  0  0  0  0
  1  9  2  0  0  0  0
  2 12  1  0  0  0  0
  2 13  1  0  0  0  0
  4 15  1  0  0  0  0
  5 16  1  0  0  0  0
  6 14  1  0  0  0  0
  6 17  1  0  0  0  0
  7 18  1  0  0  0  0
  8 19  1  0  0  0  0
 10  4  1  0  0  0  0
 10 11  1  0  0  0  0
 10 12  1  0  0  0  0
 10 20  1  6  0  0  0
 11  5  1  0  0  0  0
 11 13  1  0  0  0  0
 11 21  1  6  0  0  0
 12 22  1  1  0  0  0
 12 14  1  0  0  0  0
 13 23  1  6  0  0  0
 13  3  1  0  0  0  0
 14 24  1  0  0  0  0
 14 25  1  0  0  0  0
M  END
>  <DRUGBANK_ID>
DB03101

>  <SECONDARY_ACCESSION_NUMBERS>
EXPT02743

>  <COMMON_NAME>
Ribose-1-Phosphate

$$$$
