4814
 OpenBabel10282417143D

 38 38  0  0  0  0  0  0  0  0999 V2000
   -2.3938    2.5221    0.0405 I   0  0  0  0  0  0  0  0  0  0  0  0
    3.5288   -0.1830   -1.5439 I   0  0  0  0  0  0  0  0  0  0  0  0
    0.1939   -3.6777   -0.8750 I   0  0  0  0  0  0  0  0  0  0  0  0
    2.0499    4.5640    0.1056 O   0  0  0  0  0  0  0  0  0  0  0  0
   -5.7071   -1.5137    0.5190 O   0  0  0  0  0  0  0  0  0  0  0  0
   -5.1303   -3.6808    0.5157 O   0  0  0  0  0  0  0  0  0  0  0  0
    0.7801    2.7080   -0.2649 N   0  0  0  0  0  0  0  0  0  0  0  0
    3.1552    2.4837    0.2821 C   0  0  0  0  0  0  0  0  0  0  0  0
    0.4704    1.3141   -0.4996 C   0  0  0  0  0  0  0  0  0  0  0  0
   -1.3430   -0.5109   -0.0900 C   0  0  0  0  0  0  0  0  0  0  0  0
    3.1714    1.6512    1.5915 C   0  0  0  0  0  0  0  0  0  0  0  0
   -0.9102    0.8837   -0.1939 C   0  0  0  0  0  0  0  0  0  0  0  0
    1.9653    3.3383    0.0452 C   0  0  0  0  0  0  0  0  0  0  0  0
   -2.8092   -0.8664    0.2041 C   0  0  0  0  0  0  0  0  0  0  0  0
   -3.3655   -2.0835    0.4402 C   0  0  0  0  0  0  0  0  0  0  0  0
    1.3839    0.2701   -0.7850 C   0  0  0  0  0  0  0  0  0  0  0  0
   -0.2530   -1.4135   -0.2582 C   0  0  0  0  0  0  0  0  0  0  0  0
   -2.5073   -3.2798    0.5437 C   0  0  0  0  0  0  0  0  0  0  0  0
    1.0375   -1.0043   -0.4315 C   0  0  0  0  0  0  0  0  0  0  0  0
    1.9856    0.7773    1.9952 C   0  0  0  0  0  0  0  0  0  0  0  0
   -2.3687   -4.1248    1.7787 C   0  0  0  0  0  0  0  0  0  0  0  0
   -4.7955   -2.4833    0.5069 C   0  0  0  0  0  0  0  0  0  0  0  0
   -5.3611   -0.6085    0.4872 H   0  0  0  0  0  0  0  0  0  0  0  0
   -0.0004    3.3461   -0.1075 H   0  0  0  0  0  0  0  0  0  0  0  0
    3.1513    1.9914   -0.6671 H   0  0  0  0  0  0  0  0  0  0  0  0
    4.0966    3.0337    0.1862 H   0  0  0  0  0  0  0  0  0  0  0  0
    4.0411    0.9822    1.5648 H   0  0  0  0  0  0  0  0  0  0  0  0
    3.3263    2.3528    2.4103 H   0  0  0  0  0  0  0  0  0  0  0  0
   -3.4884   -0.0231    0.2178 H   0  0  0  0  0  0  0  0  0  0  0  0
   -2.5744   -3.8559   -0.3879 H   0  0  0  0  0  0  0  0  0  0  0  0
   -1.5545   -2.8262    0.6556 H   0  0  0  0  0  0  0  0  0  0  0  0
    1.8206   -1.7289   -0.2287 H   0  0  0  0  0  0  0  0  0  0  0  0
    2.0388   -0.1312    1.4142 H   0  0  0  0  0  0  0  0  0  0  0  0
    1.9944    0.3569    3.0018 H   0  0  0  0  0  0  0  0  0  0  0  0
    1.0300    1.2936    1.8976 H   0  0  0  0  0  0  0  0  0  0  0  0
   -3.2543   -4.7143    1.9731 H   0  0  0  0  0  0  0  0  0  0  0  0
   -1.5102   -4.7992    1.6442 H   0  0  0  0  0  0  0  0  0  0  0  0
   -2.1192   -3.4779    2.6264 H   0  0  0  0  0  0  0  0  0  0  0  0
  1 12  1  0  0  0  0
  2 16  1  0  0  0  0
  3 17  1  0  0  0  0
  4 13  2  0  0  0  0
  5 22  1  0  0  0  0
  5 23  1  0  0  0  0
  6 22  2  0  0  0  0
  7  9  1  0  0  0  0
  7 13  1  0  0  0  0
  7 24  1  0  0  0  0
  8 11  1  0  0  0  0
  8 13  1  0  0  0  0
  8 25  1  0  0  0  0
  8 26  1  0  0  0  0
  9 12  1  0  0  0  0
  9 16  2  0  0  0  0
 10 12  2  0  0  0  0
 10 14  1  0  0  0  0
 10 17  1  0  0  0  0
 11 20  1  0  0  0  0
 11 27  1  0  0  0  0
 11 28  1  0  0  0  0
 14 15  2  0  0  0  0
 14 29  1  0  0  0  0
 15 18  1  0  0  0  0
 15 22  1  0  0  0  0
 16 19  1  0  0  0  0
 17 19  2  0  0  0  0
 18 21  1  0  0  0  0
 18 30  1  0  0  0  0
 18 31  1  0  0  0  0
 19 32  1  0  0  0  0
 20 33  1  0  0  0  0
 20 34  1  0  0  0  0
 20 35  1  0  0  0  0
 21 36  1  0  0  0  0
 21 37  1  0  0  0  0
 21 38  1  0  0  0  0
M  END
>  <DRUGBANK_ID>
DB04814

>  <COMMON_NAME>
Bunamiodyl

>  <CAS_NUMBER>
1233-53-0

>  <UNII>
IX9VVF69JR

>  <SYNONYMS>
2-(3-Butyramido-3,4,6-triiodophenylmethylene)butyric acid; Bunamiodilo; Bunamiodyl; Bunamiodylum

$$$$
