12560
 OpenBabel10282417103D

118120  0  0  1  0  0  0  0  0999 V2000
   -3.1069    1.9823   -0.8998 O   0  0  0  0  0  0  0  0  0  0  0  0
   -5.1387    2.4170   -5.5145 O   0  0  0  0  0  0  0  0  0  0  0  0
   -2.8856    4.2651   -0.0802 O   0  0  0  0  0  0  0  0  0  0  0  0
   -1.0727    3.2160   -0.6244 O   0  0  0  0  0  0  0  0  0  0  0  0
   -3.1867    0.0572   -5.3828 O   0  0  0  0  0  0  0  0  0  0  0  0
   -3.4921    6.9297   -5.4682 O   0  0  0  0  0  0  0  0  0  0  0  0
   -2.5895    3.8018   -7.5000 O   0  0  0  0  0  0  0  0  0  0  0  0
   -2.1433    0.4756   -2.4267 O   0  0  0  0  0  0  0  0  0  0  0  0
   -0.5719    2.2554   -5.7459 O   0  0  0  0  0  0  0  0  0  0  0  0
   -4.9133    9.6010   -5.7413 O   0  0  0  0  0  0  0  0  0  0  0  0
   -4.9322   10.4021   -3.1935 O   0  0  0  0  0  0  0  0  0  0  0  0
   -6.2753    7.1880   -1.6860 O   0  0  0  0  0  0  0  0  0  0  0  0
   -3.8287    6.1763   -7.3801 O   0  0  0  0  0  0  0  0  0  0  0  0
    1.1237    2.3437   -4.2621 N   0  0  0  0  0  0  0  0  0  0  0  0
   -3.9758    2.9020   -1.6673 C   0  0  2  0  0  0  0  0  0  0  0  0
   -4.1535    2.7171   -3.1548 C   0  0  2  0  0  0  0  0  0  0  0  0
   -3.5363    4.2897   -1.3213 C   0  0  1  0  0  0  0  0  0  0  0  0
   -4.7079    3.5936   -4.4169 C   0  0  1  0  0  0  0  0  0  0  0  0
   -4.7714    4.9987   -0.9356 C   0  0  0  0  0  0  0  0  0  0  0  0
   -3.6160    4.6283   -5.1212 C   0  0  2  0  0  0  0  0  0  0  0  0
   -4.3852    6.4041   -0.4637 C   0  0  2  0  0  0  0  0  0  0  0  0
   -1.6232    2.0224   -1.0297 C   0  0  2  0  0  0  0  0  0  0  0  0
   -4.1263    1.1875   -6.2478 C   0  0  2  0  0  0  0  0  0  0  0  0
   -2.0536    2.3663   -7.4523 C   0  0  2  0  0  0  0  0  0  0  0  0
   -4.5301    1.2951   -3.3062 C   0  0  0  0  0  0  0  0  0  0  0  0
   -1.2334    1.7274   -2.4151 C   0  0  1  0  0  0  0  0  0  0  0  0
    0.4826    2.2028   -2.8329 C   0  0  2  0  0  0  0  0  0  0  0  0
   -3.2699    1.4910   -7.6794 C   0  0  0  0  0  0  0  0  0  0  0  0
   -2.8434    5.0356   -2.4513 C   0  0  0  0  0  0  0  0  0  0  0  0
   -1.4011    1.3539   -6.2557 C   0  0  2  0  0  0  0  0  0  0  0  0
   -4.2081    8.2120   -2.3322 C   0  0  2  0  0  0  0  0  0  0  0  0
   -4.3792    8.7198   -4.7604 C   0  0  1  0  0  0  0  0  0  0  0  0
    0.7060    3.5600   -2.2209 C   0  0  0  0  0  0  0  0  0  0  0  0
   -4.9988    8.9912   -3.3963 C   0  0  2  0  0  0  0  0  0  0  0  0
   -1.8404    0.5426   -4.9161 C   0  0  2  0  0  0  0  0  0  0  0  0
   -5.0706    7.3200   -1.4684 C   0  0  0  0  0  0  0  0  0  0  0  0
    0.2768    3.5156   -0.7924 C   0  0  1  0  0  0  0  0  0  0  0  0
   -4.7756    7.2871   -5.0834 C   0  0  1  0  0  0  0  0  0  0  0  0
   -3.6342    5.8966   -6.2955 C   0  0  0  0  0  0  0  0  0  0  0  0
   -2.8190    3.4895   -5.3383 C   0  0  0  0  0  0  0  0  0  0  0  0
   -2.8744    6.6985   -0.1501 C   0  0  0  0  0  0  0  0  0  0  0  0
   -0.8630    2.9461   -8.2661 C   0  0  0  0  0  0  0  0  0  0  0  0
   -3.3559    9.1627   -1.5340 C   0  0  0  0  0  0  0  0  0  0  0  0
   -2.8072    8.9666   -4.8029 C   0  0  0  0  0  0  0  0  0  0  0  0
   -6.0393    7.1842   -6.0020 C   0  0  0  0  0  0  0  0  0  0  0  0
   -0.5299   -0.2657   -3.6647 C   0  0  0  0  0  0  0  0  0  0  0  0
    0.3896    4.9306   -0.2840 C   0  0  0  0  0  0  0  0  0  0  0  0
    1.2504    1.0177   -5.2006 C   0  0  0  0  0  0  0  0  0  0  0  0
    0.7252    3.7693   -4.9288 C   0  0  0  0  0  0  0  0  0  0  0  0
   -6.6366    5.8103   -6.3176 C   0  0  0  0  0  0  0  0  0  0  0  0
   -4.0004    3.9386   -7.8276 C   0  0  0  0  0  0  0  0  0  0  0  0
   -2.9306    3.3612    0.2750 H   0  0  0  0  0  0  0  0  0  0  0  0
   -2.1410   -0.4712   -2.7460 H   0  0  0  0  0  0  0  0  0  0  0  0
   -0.4933    2.1482   -4.7775 H   0  0  0  0  0  0  0  0  0  0  0  0
   -4.7976   10.4878   -5.3661 H   0  0  0  0  0  0  0  0  0  0  0  0
   -3.9936   10.6517   -3.2288 H   0  0  0  0  0  0  0  0  0  0  0  0
   -4.9795    2.6484   -1.3106 H   0  0  0  0  0  0  0  0  0  0  0  0
   -3.1329    2.9138   -3.3361 H   0  0  0  0  0  0  0  0  0  0  0  0
   -5.5555    4.1533   -4.0188 H   0  0  0  0  0  0  0  0  0  0  0  0
   -5.1913    4.4332   -0.0923 H   0  0  0  0  0  0  0  0  0  0  0  0
   -5.5054    4.9280   -1.7525 H   0  0  0  0  0  0  0  0  0  0  0  0
   -2.7970    5.0998   -4.5690 H   0  0  0  0  0  0  0  0  0  0  0  0
   -4.9017    6.5360    0.4814 H   0  0  0  0  0  0  0  0  0  0  0  0
   -1.2547    1.1953   -0.4104 H   0  0  0  0  0  0  0  0  0  0  0  0
   -4.9903    0.5678   -6.5494 H   0  0  0  0  0  0  0  0  0  0  0  0
   -5.5058    0.8675   -3.2029 H   0  0  0  0  0  0  0  0  0  0  0  0
   -4.2286    1.1071   -4.2688 H   0  0  0  0  0  0  0  0  0  0  0  0
   -3.9338    0.6351   -2.7486 H   0  0  0  0  0  0  0  0  0  0  0  0
   -1.6332    2.4793   -3.0569 H   0  0  0  0  0  0  0  0  0  0  0  0
    1.1812    1.5641   -2.2767 H   0  0  0  0  0  0  0  0  0  0  0  0
   -2.9097    0.5399   -8.0283 H   0  0  0  0  0  0  0  0  0  0  0  0
   -3.8680    1.9056   -8.4848 H   0  0  0  0  0  0  0  0  0  0  0  0
   -1.9596    4.5672   -2.8867 H   0  0  0  0  0  0  0  0  0  0  0  0
   -3.6799    5.2113   -3.1102 H   0  0  0  0  0  0  0  0  0  0  0  0
   -2.5093    6.0545   -2.4597 H   0  0  0  0  0  0  0  0  0  0  0  0
   -0.9345    0.5622   -6.8261 H   0  0  0  0  0  0  0  0  0  0  0  0
   -3.5727    7.5048   -2.8536 H   0  0  0  0  0  0  0  0  0  0  0  0
    0.1302    4.3364   -2.7292 H   0  0  0  0  0  0  0  0  0  0  0  0
    1.7682    3.8233   -2.3122 H   0  0  0  0  0  0  0  0  0  0  0  0
   -6.0594    8.7169   -3.4238 H   0  0  0  0  0  0  0  0  0  0  0  0
   -2.1531    1.3416   -4.2929 H   0  0  0  0  0  0  0  0  0  0  0  0
    0.8664    2.7971   -0.2261 H   0  0  0  0  0  0  0  0  0  0  0  0
   -4.9650    6.6360   -4.2241 H   0  0  0  0  0  0  0  0  0  0  0  0
   -3.3422    3.0876   -6.1191 H   0  0  0  0  0  0  0  0  0  0  0  0
   -1.8029    3.6669   -5.3057 H   0  0  0  0  0  0  0  0  0  0  0  0
   -3.0155    2.5417   -4.9435 H   0  0  0  0  0  0  0  0  0  0  0  0
   -2.7834    7.5996    0.4309 H   0  0  0  0  0  0  0  0  0  0  0  0
   -2.3423    6.0145    0.5030 H   0  0  0  0  0  0  0  0  0  0  0  0
   -2.1986    6.8080   -1.0038 H   0  0  0  0  0  0  0  0  0  0  0  0
   -0.3216    3.7906   -7.7479 H   0  0  0  0  0  0  0  0  0  0  0  0
   -0.1038    2.2285   -8.5306 H   0  0  0  0  0  0  0  0  0  0  0  0
   -1.2647    3.4978   -9.1225 H   0  0  0  0  0  0  0  0  0  0  0  0
   -2.7330    9.7725   -2.1819 H   0  0  0  0  0  0  0  0  0  0  0  0
   -4.0112    9.7395   -0.8844 H   0  0  0  0  0  0  0  0  0  0  0  0
   -2.5845    8.7305   -0.9295 H   0  0  0  0  0  0  0  0  0  0  0  0
   -2.5431    9.9870   -4.5497 H   0  0  0  0  0  0  0  0  0  0  0  0
   -2.2420    8.2781   -4.1523 H   0  0  0  0  0  0  0  0  0  0  0  0
   -2.4090    8.8070   -5.8191 H   0  0  0  0  0  0  0  0  0  0  0  0
   -6.8345    7.7297   -5.4866 H   0  0  0  0  0  0  0  0  0  0  0  0
   -5.8458    7.6740   -6.9608 H   0  0  0  0  0  0  0  0  0  0  0  0
    0.0883    0.3947   -3.0420 H   0  0  0  0  0  0  0  0  0  0  0  0
   -0.6459   -0.6297   -2.5710 H   0  0  0  0  0  0  0  0  0  0  0  0
    0.3235   -0.8330   -3.9848 H   0  0  0  0  0  0  0  0  0  0  0  0
    0.0047    4.9809    0.7337 H   0  0  0  0  0  0  0  0  0  0  0  0
    1.4191    5.2770   -0.3406 H   0  0  0  0  0  0  0  0  0  0  0  0
   -0.2296    5.6094   -0.8897 H   0  0  0  0  0  0  0  0  0  0  0  0
    0.3509    0.4011   -5.3062 H   0  0  0  0  0  0  0  0  0  0  0  0
    1.3315    1.1695   -6.2941 H   0  0  0  0  0  0  0  0  0  0  0  0
    1.8914    0.2062   -4.8337 H   0  0  0  0  0  0  0  0  0  0  0  0
   -0.3102    3.9932   -4.6252 H   0  0  0  0  0  0  0  0  0  0  0  0
    1.1018    4.7373   -4.5789 H   0  0  0  0  0  0  0  0  0  0  0  0
    0.7489    3.7646   -6.0279 H   0  0  0  0  0  0  0  0  0  0  0  0
   -6.7154    5.1720   -5.4373 H   0  0  0  0  0  0  0  0  0  0  0  0
   -7.6172    5.8960   -6.7922 H   0  0  0  0  0  0  0  0  0  0  0  0
   -6.0965    5.2947   -7.0958 H   0  0  0  0  0  0  0  0  0  0  0  0
   -4.0670    4.4295   -8.7718 H   0  0  0  0  0  0  0  0  0  0  0  0
   -4.6586    3.1194   -7.6156 H   0  0  0  0  0  0  0  0  0  0  0  0
   -4.5848    4.4127   -7.0451 H   0  0  0  0  0  0  0  0  0  0  0  0
  3 52  1  0  0  0  0
  4 22  1  0  0  0  0
  4 37  1  0  0  0  0
  5 23  1  0  0  0  0
  5 35  1  0  0  0  0
  6 38  1  0  0  0  0
  6 39  1  0  0  0  0
  7 51  1  0  0  0  0
  8 53  1  0  0  0  0
  9 54  1  0  0  0  0
 10 55  1  0  0  0  0
 11 56  1  0  0  0  0
 12 36  2  0  0  0  0
 13 39  2  0  0  0  0
 14 48  1  0  0  0  0
 14 49  1  0  0  0  0
 15 16  1  0  0  0  0
 15 17  1  0  0  0  0
 15 57  1  1  0  0  0
 15  1  1  0  0  0  0
 16 18  1  0  0  0  0
 16 58  1  6  0  0  0
 16 25  1  0  0  0  0
 17 19  1  0  0  0  0
 17 29  1  0  0  0  0
 17  3  1  1  0  0  0
 18  2  1  0  0  0  0
 18 20  1  0  0  0  0
 18 59  1  1  0  0  0
 19 21  1  0  0  0  0
 19 60  1  0  0  0  0
 19 61  1  0  0  0  0
 20 39  1  0  0  0  0
 20 62  1  1  0  0  0
 20 40  1  0  0  0  0
 21 36  1  0  0  0  0
 21 41  1  0  0  0  0
 21 63  1  1  0  0  0
 22 26  1  0  0  0  0
 22 64  1  1  0  0  0
 22  1  1  0  0  0  0
 23  2  1  0  0  0  0
 23 28  1  0  0  0  0
 23 65  1  6  0  0  0
 24 28  1  0  0  0  0
 24 30  1  0  0  0  0
 24 42  1  0  0  0  0
 24  7  1  1  0  0  0
 25 66  1  0  0  0  0
 25 67  1  0  0  0  0
 25 68  1  0  0  0  0
 26  8  1  0  0  0  0
 26 27  1  0  0  0  0
 26 69  1  6  0  0  0
 27 14  1  0  0  0  0
 27 33  1  0  0  0  0
 27 70  1  1  0  0  0
 28 71  1  0  0  0  0
 28 72  1  0  0  0  0
 29 73  1  0  0  0  0
 29 74  1  0  0  0  0
 29 75  1  0  0  0  0
 30 35  1  0  0  0  0
 30 76  1  6  0  0  0
 30  9  1  0  0  0  0
 31 34  1  0  0  0  0
 31 36  1  0  0  0  0
 31 77  1  6  0  0  0
 31 43  1  0  0  0  0
 32 34  1  0  0  0  0
 32 38  1  0  0  0  0
 32 44  1  0  0  0  0
 32 10  1  6  0  0  0
 33 37  1  0  0  0  0
 33 78  1  0  0  0  0
 33 79  1  0  0  0  0
 34 11  1  0  0  0  0
 34 80  1  1  0  0  0
 35 81  1  1  0  0  0
 35 46  1  0  0  0  0
 37 47  1  0  0  0  0
 37 82  1  1  0  0  0
 38 45  1  0  0  0  0
 38 83  1  1  0  0  0
 40 84  1  0  0  0  0
 40 85  1  0  0  0  0
 40 86  1  0  0  0  0
 41 87  1  0  0  0  0
 41 88  1  0  0  0  0
 41 89  1  0  0  0  0
 42 90  1  0  0  0  0
 42 91  1  0  0  0  0
 42 92  1  0  0  0  0
 43 93  1  0  0  0  0
 43 94  1  0  0  0  0
 43 95  1  0  0  0  0
 44 96  1  0  0  0  0
 44 97  1  0  0  0  0
 44 98  1  0  0  0  0
 45 50  1  0  0  0  0
 45 99  1  0  0  0  0
 45100  1  0  0  0  0
 46101  1  0  0  0  0
 46102  1  0  0  0  0
 46103  1  0  0  0  0
 47104  1  0  0  0  0
 47105  1  0  0  0  0
 47106  1  0  0  0  0
 48107  1  0  0  0  0
 48108  1  0  0  0  0
 48109  1  0  0  0  0
 49110  1  0  0  0  0
 49111  1  0  0  0  0
 49112  1  0  0  0  0
 50113  1  0  0  0  0
 50114  1  0  0  0  0
 50115  1  0  0  0  0
 51116  1  0  0  0  0
 51117  1  0  0  0  0
 51118  1  0  0  0  0
M  END
>  <DRUGBANK_ID>
DB00199

>  <SECONDARY_ACCESSION_NUMBERS>
APRD00953

>  <COMMON_NAME>
Erythromycin

>  <CAS_NUMBER>
114-07-8

>  <UNII>
63937KV33D

>  <SYNONYMS>
3''-O-demethylerythromycin; Abomacetin; Eritromicina; Erythromycin; Erythromycin A; Erythromycin C; Ã©rythromycine; Erythromycinum

$$$$
