
 OpenBabel10282417233D

 70 72  0  0  0  0  0  0  0  0999 V2000
    1.3542   -0.0916   -0.0560 C   0  0  0  0  0  0  0  0  0  0  0  0
    0.7577   -1.4840   -0.1669 C   0  0  0  0  0  0  0  0  0  0  0  0
    1.1689   -2.2554    1.0656 C   0  0  0  0  0  0  0  0  0  0  0  0
   -0.7158   -1.4662   -0.2799 C   0  0  0  0  0  0  0  0  0  0  0  0
   -1.4731   -2.7417   -0.1855 C   0  0  0  0  0  0  0  0  0  0  0  0
   -2.8532   -2.8680   -0.0805 C   0  0  0  0  0  0  0  0  0  0  0  0
   -3.4921   -1.6812   -0.1004 C   0  0  0  0  0  0  0  0  0  0  0  0
   -2.6206   -0.5631   -0.2038 C   0  0  0  0  0  0  0  0  0  0  0  0
   -2.9796    0.8208    0.1282 C   0  0  0  0  0  0  0  0  0  0  0  0
   -2.2422    1.7338    1.5512 C   0  0  0  0  0  0  0  0  0  0  0  0
   -3.4867    1.7258   -1.5385 C   0  0  0  0  0  0  0  0  0  0  0  0
   -1.3636   -0.2623   -0.3721 C   0  0  0  0  0  0  0  0  0  0  0  0
   -1.0044    1.2165   -0.5406 N   0  0  0  0  0  0  0  0  0  0  0  0
   -1.6561    2.6204   -0.4032 C   0  0  0  0  0  0  0  0  0  0  0  0
   -0.9531    3.5832   -0.6683 O   0  0  0  0  0  0  0  0  0  0  0  0
   -3.2928    2.7892    0.1030 N   0  0  0  0  0  0  0  0  0  0  0  0
   -4.7408    1.6039    0.1961 C   0  0  0  0  0  0  0  0  0  0  0  0
   -4.9352    1.1423    1.7809 C   0  0  0  0  0  0  0  0  0  0  0  0
   -5.8306   -0.0568    1.8792 C   0  0  0  0  0  0  0  0  0  0  0  0
   -6.6823    0.4655    3.0038 C   0  0  0  0  0  0  0  0  0  0  0  0
   -6.5219    2.0160    3.0630 C   0  0  0  0  0  0  0  0  0  0  0  0
   -5.7145    2.4148    1.9024 C   0  0  0  0  0  0  0  0  0  0  0  0
   -3.8266    0.7710    3.1767 C   0  0  0  0  0  0  0  0  0  0  0  0
   -2.8687   -0.4321    3.0997 C   0  0  0  0  0  0  0  0  0  0  0  0
   -1.4861   -0.3139    3.5890 C   0  0  0  0  0  0  0  0  0  0  0  0
   -1.0431    0.8772    4.2888 C   0  0  0  0  0  0  0  0  0  0  0  0
   -1.9697    1.9989    4.3913 C   0  0  0  0  0  0  0  0  0  0  0  0
   -3.3623    1.9340    3.9688 C   0  0  0  0  0  0  0  0  0  0  0  0
    0.2752    0.9908    4.7729 N   0  0  0  0  0  0  0  0  0  0  0  0
    0.5889    2.0614    5.7207 C   0  0  0  0  0  0  0  0  0  0  0  0
    1.0498   -0.2452    4.9203 C   0  0  0  0  0  0  0  0  0  0  0  0
    0.9077    0.4727    0.7868 H   0  0  0  0  0  0  0  0  0  0  0  0
    1.2027    0.3921   -1.0231 H   0  0  0  0  0  0  0  0  0  0  0  0
    2.4251   -0.0733    0.0706 H   0  0  0  0  0  0  0  0  0  0  0  0
    1.0895   -1.9485   -1.0939 H   0  0  0  0  0  0  0  0  0  0  0  0
    0.7914   -1.7853    1.9775 H   0  0  0  0  0  0  0  0  0  0  0  0
    0.7976   -3.2812    1.0529 H   0  0  0  0  0  0  0  0  0  0  0  0
    2.2543   -2.2660    1.1158 H   0  0  0  0  0  0  0  0  0  0  0  0
   -0.9284   -3.6790   -0.1800 H   0  0  0  0  0  0  0  0  0  0  0  0
   -3.4189   -3.7777    0.0658 H   0  0  0  0  0  0  0  0  0  0  0  0
   -4.5724   -1.6233    0.0524 H   0  0  0  0  0  0  0  0  0  0  0  0
   -3.6647    0.2184    0.7707 H   0  0  0  0  0  0  0  0  0  0  0  0
   -1.2127    2.0565    1.5628 H   0  0  0  0  0  0  0  0  0  0  0  0
   -2.8897    2.5617    1.9525 H   0  0  0  0  0  0  0  0  0  0  0  0
   -2.0458    1.1640    2.3514 H   0  0  0  0  0  0  0  0  0  0  0  0
   -4.1937    1.3196   -2.2813 H   0  0  0  0  0  0  0  0  0  0  0  0
   -4.2782    2.7140   -1.3917 H   0  0  0  0  0  0  0  0  0  0  0  0
   -2.6807    2.2623   -2.0818 H   0  0  0  0  0  0  0  0  0  0  0  0
   -0.0694    1.3998   -0.8021 H   0  0  0  0  0  0  0  0  0  0  0  0
   -3.4651    3.8335    0.1272 H   0  0  0  0  0  0  0  0  0  0  0  0
   -5.5697    1.3597   -0.6047 H   0  0  0  0  0  0  0  0  0  0  0  0
   -4.5799    0.5605   -0.5489 H   0  0  0  0  0  0  0  0  0  0  0  0
   -6.3681   -0.3067    0.9568 H   0  0  0  0  0  0  0  0  0  0  0  0
   -5.2708   -0.9688    2.1452 H   0  0  0  0  0  0  0  0  0  0  0  0
   -7.6997    0.1563    2.8107 H   0  0  0  0  0  0  0  0  0  0  0  0
   -6.3088    0.0183    3.9339 H   0  0  0  0  0  0  0  0  0  0  0  0
   -7.4481    2.5659    3.0239 H   0  0  0  0  0  0  0  0  0  0  0  0
   -5.9423    2.3127    3.9369 H   0  0  0  0  0  0  0  0  0  0  0  0
   -5.0595    3.2970    1.9687 H   0  0  0  0  0  0  0  0  0  0  0  0
   -6.3329    2.6104    0.9940 H   0  0  0  0  0  0  0  0  0  0  0  0
   -2.9703   -1.2234    2.3389 H   0  0  0  0  0  0  0  0  0  0  0  0
   -0.7171   -0.9987    3.1761 H   0  0  0  0  0  0  0  0  0  0  0  0
   -1.5231    3.0208    4.4248 H   0  0  0  0  0  0  0  0  0  0  0  0
   -3.8231    2.9288    3.8128 H   0  0  0  0  0  0  0  0  0  0  0  0
    0.5283    1.7266    6.7627 H   0  0  0  0  0  0  0  0  0  0  0  0
    1.5942    2.4359    5.5109 H   0  0  0  0  0  0  0  0  0  0  0  0
   -0.0602    2.9340    5.6500 H   0  0  0  0  0  0  0  0  0  0  0  0
    0.4378   -1.0936    5.2568 H   0  0  0  0  0  0  0  0  0  0  0  0
    1.5051   -0.4987    3.9582 H   0  0  0  0  0  0  0  0  0  0  0  0
    1.8629   -0.1381    5.6484 H   0  0  0  0  0  0  0  0  0  0  0  0
  1  2  1  0  0  0  0
  1 32  1  0  0  0  0
  1 33  1  0  0  0  0
  1 34  1  0  0  0  0
  2  3  1  0  0  0  0
  2  4  1  0  0  0  0
  2 35  1  0  0  0  0
  3 36  1  0  0  0  0
  3 37  1  0  0  0  0
  3 38  1  0  0  0  0
  4  5  2  0  0  0  0
  4 12  1  0  0  0  0
  5  6  1  0  0  0  0
  5 39  1  0  0  0  0
  6  7  2  0  0  0  0
  6 40  1  0  0  0  0
  7  8  1  0  0  0  0
  7 41  1  0  0  0  0
  8  9  1  0  0  0  0
  8 12  2  0  0  0  0
  9 10  1  0  0  0  0
  9 11  1  0  0  0  0
  9 42  1  0  0  0  0
 10 43  1  0  0  0  0
 10 44  1  0  0  0  0
 10 45  1  0  0  0  0
 11 46  1  0  0  0  0
 11 47  1  0  0  0  0
 11 48  1  0  0  0  0
 12 13  1  0  0  0  0
 13 14  1  0  0  0  0
 13 49  1  0  0  0  0
 14 15  2  0  0  0  0
 14 16  1  0  0  0  0
 16 17  1  0  0  0  0
 16 50  1  0  0  0  0
 17 18  1  0  0  0  0
 17 51  1  0  0  0  0
 17 52  1  0  0  0  0
 18 19  1  0  0  0  0
 18 22  1  0  0  0  0
 18 23  1  0  0  0  0
 19 20  1  0  0  0  0
 19 53  1  0  0  0  0
 19 54  1  0  0  0  0
 20 21  1  0  0  0  0
 20 55  1  0  0  0  0
 20 56  1  0  0  0  0
 21 22  1  0  0  0  0
 21 57  1  0  0  0  0
 21 58  1  0  0  0  0
 22 59  1  0  0  0  0
 22 60  1  0  0  0  0
 23 24  2  0  0  0  0
 23 28  1  0  0  0  0
 24 25  1  0  0  0  0
 24 61  1  0  0  0  0
 25 26  2  0  0  0  0
 25 62  1  0  0  0  0
 26 27  1  0  0  0  0
 26 29  1  0  0  0  0
 27 28  2  0  0  0  0
 27 63  1  0  0  0  0
 28 64  1  0  0  0  0
 29 30  1  0  0  0  0
 29 31  1  0  0  0  0
 30 65  1  0  0  0  0
 30 66  1  0  0  0  0
 30 67  1  0  0  0  0
 31 68  1  0  0  0  0
 31 69  1  0  0  0  0
 31 70  1  0  0  0  0
M  END
>  <DRUGBANK_ID>
DB16254

>  <COMMON_NAME>
Nevanimibe

>  <CAS_NUMBER>
133825-80-6

>  <UNII>
VK9OS8R205

>  <SYNONYMS>
Atr-101 free base; Nevanimibe

$$$$
