
 OpenBabel10282417203D

 54 57  0  0  1  0  0  0  0  0999 V2000
   -2.2057   -0.7185    6.2060 O   0  0  0  0  0  0  0  0  0  0  0  0
   -5.6052   -7.9648   -1.1865 O   0  0  0  0  0  0  0  0  0  0  0  0
   -3.9167   -4.4609    2.0891 C   0  0  1  0  0  0  0  0  0  0  0  0
   -3.5197   -4.8297    3.5342 C   0  0  2  0  0  0  0  0  0  0  0  0
   -2.9727   -5.5721    0.8845 C   0  0  2  0  0  0  0  0  0  0  0  0
   -3.7545   -3.7048    4.5977 C   0  0  1  0  0  0  0  0  0  0  0  0
   -3.2949   -2.1669    4.3305 C   0  0  2  0  0  0  0  0  0  0  0  0
   -3.9905   -6.7843    1.3544 C   0  0  1  0  0  0  0  0  0  0  0  0
   -3.7458   -2.8500    2.1327 C   0  0  0  0  0  0  0  0  0  0  0  0
   -4.5300   -2.0826    3.3653 C   0  0  0  0  0  0  0  0  0  0  0  0
   -4.1159   -6.1971    3.9055 C   0  0  0  0  0  0  0  0  0  0  0  0
   -3.2549   -4.1243    5.9754 C   0  0  0  0  0  0  0  0  0  0  0  0
   -2.5462   -2.0236    5.7313 C   0  0  2  0  0  0  0  0  0  0  0  0
   -2.6319   -6.0316   -0.8873 C   0  0  2  0  0  0  0  0  0  0  0  0
   -3.6935   -7.2132    2.8316 C   0  0  0  0  0  0  0  0  0  0  0  0
   -3.0732   -2.8956    6.8520 C   0  0  0  0  0  0  0  0  0  0  0  0
   -2.9900   -4.1830    0.1992 C   0  0  0  0  0  0  0  0  0  0  0  0
   -3.7829   -7.9535    0.4061 C   0  0  0  0  0  0  0  0  0  0  0  0
   -2.4517   -1.0489    3.5685 C   0  0  0  0  0  0  0  0  0  0  0  0
   -4.0187   -6.1876   -1.4821 C   0  0  0  0  0  0  0  0  0  0  0  0
   -4.5142   -7.4648   -0.8403 C   0  0  0  0  0  0  0  0  0  0  0  0
   -1.7152   -6.7844   -2.0028 C   0  0  0  0  0  0  0  0  0  0  0  0
   -5.0013   -4.6082    1.9247 H   0  0  0  0  0  0  0  0  0  0  0  0
   -2.4367   -4.9582    3.5163 H   0  0  0  0  0  0  0  0  0  0  0  0
   -4.8568   -3.6710    4.7697 H   0  0  0  0  0  0  0  0  0  0  0  0
   -5.0656   -6.5248    1.3027 H   0  0  0  0  0  0  0  0  0  0  0  0
   -1.3346   -0.7990    6.6460 H   0  0  0  0  0  0  0  0  0  0  0  0
   -3.9892   -2.3316    1.1918 H   0  0  0  0  0  0  0  0  0  0  0  0
   -2.6561   -2.7248    2.2183 H   0  0  0  0  0  0  0  0  0  0  0  0
   -5.0376   -1.5359    2.5414 H   0  0  0  0  0  0  0  0  0  0  0  0
   -4.7080   -1.0446    3.7117 H   0  0  0  0  0  0  0  0  0  0  0  0
   -5.2086   -6.1966    4.0621 H   0  0  0  0  0  0  0  0  0  0  0  0
   -3.6971   -6.5142    4.8696 H   0  0  0  0  0  0  0  0  0  0  0  0
   -3.9265   -4.8579    6.4411 H   0  0  0  0  0  0  0  0  0  0  0  0
   -2.2903   -4.6303    5.8628 H   0  0  0  0  0  0  0  0  0  0  0  0
   -1.5413   -2.4423    5.5166 H   0  0  0  0  0  0  0  0  0  0  0  0
   -1.8888   -5.2542   -1.0852 H   0  0  0  0  0  0  0  0  0  0  0  0
   -4.1276   -8.1919    3.0804 H   0  0  0  0  0  0  0  0  0  0  0  0
   -2.6094   -7.3173    2.9329 H   0  0  0  0  0  0  0  0  0  0  0  0
   -3.8226   -3.2218    7.5915 H   0  0  0  0  0  0  0  0  0  0  0  0
   -3.6666   -2.0108    7.1536 H   0  0  0  0  0  0  0  0  0  0  0  0
   -2.1852   -3.7134    0.7691 H   0  0  0  0  0  0  0  0  0  0  0  0
   -2.6121   -3.8478   -0.7687 H   0  0  0  0  0  0  0  0  0  0  0  0
   -4.0133   -3.8230    0.0677 H   0  0  0  0  0  0  0  0  0  0  0  0
   -4.1792   -8.9280    0.7093 H   0  0  0  0  0  0  0  0  0  0  0  0
   -2.7018   -8.1025    0.2975 H   0  0  0  0  0  0  0  0  0  0  0  0
   -2.8129   -0.7318    2.5748 H   0  0  0  0  0  0  0  0  0  0  0  0
   -2.6149   -0.0952    4.1009 H   0  0  0  0  0  0  0  0  0  0  0  0
   -1.3852   -1.2446    3.4879 H   0  0  0  0  0  0  0  0  0  0  0  0
   -4.0640   -6.2557   -2.5736 H   0  0  0  0  0  0  0  0  0  0  0  0
   -4.6668   -5.3652   -1.1829 H   0  0  0  0  0  0  0  0  0  0  0  0
   -2.0612   -7.7485   -2.3991 H   0  0  0  0  0  0  0  0  0  0  0  0
   -1.7822   -6.1425   -2.9278 H   0  0  0  0  0  0  0  0  0  0  0  0
   -0.6288   -6.8060   -1.8472 H   0  0  0  0  0  0  0  0  0  0  0  0
  1 27  1  0  0  0  0
  2 21  2  0  0  0  0
  3  4  1  0  0  0  0
  3  5  1  0  0  0  0
  3  9  1  0  0  0  0
  3 23  1  1  0  0  0
  4  6  1  0  0  0  0
  4 11  1  0  0  0  0
  4 24  1  1  0  0  0
  5  8  1  0  0  0  0
  5 14  1  0  0  0  0
  5 17  1  6  0  0  0
  6  7  1  0  0  0  0
  6 12  1  0  0  0  0
  6 25  1  6  0  0  0
  7 10  1  0  0  0  0
  7 13  1  0  0  0  0
  7 19  1  1  0  0  0
  8 15  1  0  0  0  0
  8 18  1  0  0  0  0
  8 26  1  1  0  0  0
  9 10  1  0  0  0  0
  9 28  1  0  0  0  0
  9 29  1  0  0  0  0
 10 30  1  0  0  0  0
 10 31  1  0  0  0  0
 11 15  1  0  0  0  0
 11 32  1  0  0  0  0
 11 33  1  0  0  0  0
 12 16  1  0  0  0  0
 12 34  1  0  0  0  0
 12 35  1  0  0  0  0
 13 16  1  0  0  0  0
 13  1  1  0  0  0  0
 13 36  1  6  0  0  0
 14 20  1  0  0  0  0
 14 22  1  0  0  0  0
 14 37  1  6  0  0  0
 15 38  1  0  0  0  0
 15 39  1  0  0  0  0
 16 40  1  0  0  0  0
 16 41  1  0  0  0  0
 17 42  1  0  0  0  0
 17 43  1  0  0  0  0
 17 44  1  0  0  0  0
 18 21  1  0  0  0  0
 18 45  1  0  0  0  0
 18 46  1  0  0  0  0
 19 47  1  0  0  0  0
 19 48  1  0  0  0  0
 19 49  1  0  0  0  0
 20 21  1  0  0  0  0
 20 50  1  0  0  0  0
 20 51  1  0  0  0  0
 22 52  1  0  0  0  0
 22 53  1  0  0  0  0
 22 54  1  0  0  0  0
M  END
>  <DRUGBANK_ID>
DB13587

>  <COMMON_NAME>
Mesterolone

>  <CAS_NUMBER>
1424-00-6

>  <UNII>
0SRQ75X9I9

>  <SYNONYMS>
Mesterolona; Mesterolone

$$$$
