KIN
 OpenBabel10282417173D

 41 43  0  0  0  0  0  0  0  0999 V2000
    0.9749   -0.5082    0.8578 C   0  0  0  0  0  0  0  0  0  0  0  0
    0.2197   -1.4601    0.2486 C   0  0  0  0  0  0  0  0  0  0  0  0
    2.1810    2.4960   -0.4034 C   0  0  0  0  0  0  0  0  0  0  0  0
    1.7188    1.7618   -1.4873 C   0  0  0  0  0  0  0  0  0  0  0  0
    2.2303    0.4775   -1.7556 C   0  0  0  0  0  0  0  0  0  0  0  0
    3.8763    0.7242   -0.0347 C   0  0  0  0  0  0  0  0  0  0  0  0
    3.0046   -2.3538   -1.8707 C   0  0  0  0  0  0  0  0  0  0  0  0
    2.8079   -2.1064   -3.2247 C   0  0  0  0  0  0  0  0  0  0  0  0
    2.2157   -3.0822   -4.0107 C   0  0  0  0  0  0  0  0  0  0  0  0
   -2.8205   -2.3686    1.0810 F   0  0  0  0  0  0  0  0  0  0  0  0
   -2.0268   -2.3565   -0.0243 C   0  0  0  0  0  0  0  0  0  0  0  0
   -1.3492   -3.5432    0.0068 F   0  0  0  0  0  0  0  0  0  0  0  0
   -2.8395   -2.4068   -1.1034 F   0  0  0  0  0  0  0  0  0  0  0  0
   -1.1198   -1.1655    0.0038 C   0  0  0  0  0  0  0  0  0  0  0  0
   -1.5946    0.1779    0.0223 C   0  0  0  0  0  0  0  0  0  0  0  0
   -0.7058    1.1857    0.3885 C   0  0  0  0  0  0  0  0  0  0  0  0
    0.4683    0.7699    0.9801 C   0  0  0  0  0  0  0  0  0  0  0  0
   -0.9184    2.5796    0.2592 N   0  0  0  0  0  0  0  0  0  0  0  0
   -0.0152    3.6178    0.3610 C   0  0  0  0  0  0  0  0  0  0  0  0
   -0.4648    4.7358    0.6951 O   0  0  0  0  0  0  0  0  0  0  0  0
    1.3522    3.5045    0.1888 N   0  0  0  0  0  0  0  0  0  0  0  0
    3.2992   -0.0755   -1.0406 C   0  0  0  0  0  0  0  0  0  0  0  0
    3.3028    1.9888    0.3038 C   0  0  0  0  0  0  0  0  0  0  0  0
    3.6220   -1.4390   -1.0249 O   0  0  0  0  0  0  0  0  0  0  0  0
    1.8456   -4.2947   -3.5549 N   0  0  0  0  0  0  0  0  0  0  0  0
    2.0778   -4.5419   -2.2492 C   0  0  0  0  0  0  0  0  0  0  0  0
    2.6509   -3.6176   -1.3765 C   0  0  0  0  0  0  0  0  0  0  0  0
    1.9966   -0.7081    1.1513 H   0  0  0  0  0  0  0  0  0  0  0  0
    0.6425   -2.4469    0.0929 H   0  0  0  0  0  0  0  0  0  0  0  0
    0.7823    2.0414   -1.9608 H   0  0  0  0  0  0  0  0  0  0  0  0
    1.5806   -0.1509   -2.3541 H   0  0  0  0  0  0  0  0  0  0  0  0
    4.6139    0.2801    0.6386 H   0  0  0  0  0  0  0  0  0  0  0  0
    3.0862   -1.1625   -3.6733 H   0  0  0  0  0  0  0  0  0  0  0  0
    2.0234   -2.9009   -5.0640 H   0  0  0  0  0  0  0  0  0  0  0  0
   -2.6364    0.3776   -0.2230 H   0  0  0  0  0  0  0  0  0  0  0  0
    1.1042    1.5057    1.4374 H   0  0  0  0  0  0  0  0  0  0  0  0
   -1.8834    2.8918    0.3119 H   0  0  0  0  0  0  0  0  0  0  0  0
    1.8416    4.2975    0.5893 H   0  0  0  0  0  0  0  0  0  0  0  0
    3.5514    2.3930    1.2897 H   0  0  0  0  0  0  0  0  0  0  0  0
    1.7785   -5.5359   -1.9202 H   0  0  0  0  0  0  0  0  0  0  0  0
    2.7912   -3.8968   -0.3377 H   0  0  0  0  0  0  0  0  0  0  0  0
  1  2  2  0  0  0  0
  1 17  1  0  0  0  0
  1 28  1  0  0  0  0
  2 14  1  0  0  0  0
  2 29  1  0  0  0  0
  3  4  2  0  0  0  0
  3 23  1  0  0  0  0
  3 21  1  0  0  0  0
  4  5  1  0  0  0  0
  4 30  1  0  0  0  0
  5 22  2  0  0  0  0
  5 31  1  0  0  0  0
  6 22  1  0  0  0  0
  6 23  2  0  0  0  0
  6 32  1  0  0  0  0
  7  8  2  0  0  0  0
  7 27  1  0  0  0  0
  7 24  1  0  0  0  0
  8  9  1  0  0  0  0
  8 33  1  0  0  0  0
  9 25  2  0  0  0  0
  9 34  1  0  0  0  0
 10 11  1  0  0  0  0
 11 13  1  0  0  0  0
 11 12  1  0  0  0  0
 11 14  1  0  0  0  0
 14 15  2  0  0  0  0
 15 16  1  0  0  0  0
 15 35  1  0  0  0  0
 16 18  1  0  0  0  0
 16 17  2  0  0  0  0
 17 36  1  0  0  0  0
 18 19  1  0  0  0  0
 18 37  1  0  0  0  0
 19 20  2  0  0  0  0
 19 21  1  0  0  0  0
 21 38  1  0  0  0  0
 22 24  1  0  0  0  0
 23 39  1  0  0  0  0
 25 26  1  0  0  0  0
 26 27  2  0  0  0  0
 26 40  1  0  0  0  0
 27 41  1  0  0  0  0
M  END
>  <DRUGBANK_ID>
DB08043

>  <COMMON_NAME>
1-[4-(PYRIDIN-4-YLOXY)PHENYL]-3-[3-(TRIFLUOROMETHYL)PHENYL]UREA

$$$$
