
 OpenBabel10282417103D

 47 50  0  0  0  0  0  0  0  0999 V2000
   -1.7858   -1.2692    0.0195 C   0  0  2  0  0  0  0  0  0  0  0  0
   -1.9211    0.2594   -0.0153 C   0  0  0  0  0  0  0  0  0  0  0  0
   -0.3973   -1.0255    0.5705 C   0  0  2  0  0  0  0  0  0  0  0  0
   -0.7459    0.4147    0.6752 N   0  0  0  0  0  0  0  0  0  0  0  0
    0.2455    1.3787    0.1985 C   0  0  2  0  0  0  0  0  0  0  0  0
    1.5616    0.5710    0.0118 C   0  0  0  0  0  0  0  0  0  0  0  0
    1.0046   -1.1033   -0.5575 S   0  0  0  0  0  0  0  0  0  0  0  0
    2.4431    1.1124   -1.1026 C   0  0  0  0  0  0  0  0  0  0  0  0
    2.3680    0.3582    1.3011 C   0  0  0  0  0  0  0  0  0  0  0  0
    0.3659    2.5834    1.1580 C   0  0  0  0  0  0  0  0  0  0  0  0
   -0.4810    3.6109    0.9190 O   0  0  0  0  0  0  0  0  0  0  0  0
    1.1184    2.6412    2.1200 O   0  0  0  0  0  0  0  0  0  0  0  0
   -1.9777   -2.0520   -1.2172 N   0  0  0  0  0  0  0  0  0  0  0  0
   -2.2102   -3.4095   -1.3068 C   0  0  0  0  0  0  0  0  0  0  0  0
   -2.1741   -3.9477   -2.4108 O   0  0  0  0  0  0  0  0  0  0  0  0
   -2.6602    1.0755   -0.5028 O   0  0  0  0  0  0  0  0  0  0  0  0
   -0.2356   -1.4939    1.5473 H   0  0  0  0  0  0  0  0  0  0  0  0
   -3.2180   -4.8964    1.8776 O   0  0  0  0  0  0  0  0  0  0  0  0
   -2.3603   -5.8724    1.4269 N   0  0  0  0  0  0  0  0  0  0  0  0
   -1.9269   -5.4657    0.2248 C   0  0  0  0  0  0  0  0  0  0  0  0
   -2.4551   -4.1735   -0.0966 C   0  0  0  0  0  0  0  0  0  0  0  0
   -3.2984   -3.8945    0.9651 C   0  0  0  0  0  0  0  0  0  0  0  0
   -1.0128   -6.2813   -0.5631 C   0  0  0  0  0  0  0  0  0  0  0  0
   -1.3633   -7.5458   -1.0570 C   0  0  0  0  0  0  0  0  0  0  0  0
   -0.4769   -8.2537   -1.8809 C   0  0  0  0  0  0  0  0  0  0  0  0
    0.7637   -7.7109   -2.2182 C   0  0  0  0  0  0  0  0  0  0  0  0
    1.1299   -6.4664   -1.7148 C   0  0  0  0  0  0  0  0  0  0  0  0
    0.2480   -5.7685   -0.8910 C   0  0  0  0  0  0  0  0  0  0  0  0
    0.6338   -4.5727   -0.4183 F   0  0  0  0  0  0  0  0  0  0  0  0
   -2.8950   -8.2842   -0.7343 Cl  0  0  0  0  0  0  0  0  0  0  0  0
   -4.2172   -2.7922    1.3376 C   0  0  0  0  0  0  0  0  0  0  0  0
   -2.3651   -1.6484    0.8391 H   0  0  0  0  0  0  0  0  0  0  0  0
   -0.0864    1.7632   -0.7778 H   0  0  0  0  0  0  0  0  0  0  0  0
    2.8018    2.1144   -0.8565 H   0  0  0  0  0  0  0  0  0  0  0  0
    3.3191    0.4699   -1.2565 H   0  0  0  0  0  0  0  0  0  0  0  0
    1.9023    1.1711   -2.0550 H   0  0  0  0  0  0  0  0  0  0  0  0
    3.1754   -0.3693    1.1779 H   0  0  0  0  0  0  0  0  0  0  0  0
    2.8588    1.2867    1.6075 H   0  0  0  0  0  0  0  0  0  0  0  0
    1.7334    0.0243    2.1324 H   0  0  0  0  0  0  0  0  0  0  0  0
   -1.1646    3.4804    0.2350 H   0  0  0  0  0  0  0  0  0  0  0  0
   -1.7906   -1.6350   -2.1257 H   0  0  0  0  0  0  0  0  0  0  0  0
   -0.7594   -9.2266   -2.2777 H   0  0  0  0  0  0  0  0  0  0  0  0
    1.4371   -8.2563   -2.8750 H   0  0  0  0  0  0  0  0  0  0  0  0
    2.0909   -6.0274   -1.9670 H   0  0  0  0  0  0  0  0  0  0  0  0
   -5.2263   -3.1453    1.5402 H   0  0  0  0  0  0  0  0  0  0  0  0
   -3.8369   -2.2895    2.2382 H   0  0  0  0  0  0  0  0  0  0  0  0
   -4.3002   -2.0452    0.5404 H   0  0  0  0  0  0  0  0  0  0  0  0
  1  2  1  0  0  0  0
  1 32  1  1  0  0  0
  1 13  1  0  0  0  0
  2 16  2  0  0  0  0
  2  4  1  0  0  0  0
  3  1  1  0  0  0  0
  3  4  1  0  0  0  0
  3  7  1  0  0  0  0
  3 17  1  1  0  0  0
  4  5  1  0  0  0  0
  5  6  1  0  0  0  0
  5 33  1  6  0  0  0
  5 10  1  0  0  0  0
  6  7  1  0  0  0  0
  6  8  1  0  0  0  0
  6  9  1  0  0  0  0
  8 34  1  0  0  0  0
  8 35  1  0  0  0  0
  8 36  1  0  0  0  0
  9 37  1  0  0  0  0
  9 38  1  0  0  0  0
  9 39  1  0  0  0  0
 10 11  1  0  0  0  0
 10 12  2  0  0  0  0
 11 40  1  0  0  0  0
 13 14  1  0  0  0  0
 13 41  1  0  0  0  0
 14 15  2  0  0  0  0
 14 21  1  0  0  0  0
 18 19  1  0  0  0  0
 18 22  1  0  0  0  0
 19 20  2  0  0  0  0
 20 21  1  0  0  0  0
 20 23  1  0  0  0  0
 21 22  2  0  0  0  0
 22 31  1  0  0  0  0
 23 24  2  0  0  0  0
 23 28  1  0  0  0  0
 24 25  1  0  0  0  0
 24 30  1  0  0  0  0
 25 26  2  0  0  0  0
 25 42  1  0  0  0  0
 26 27  1  0  0  0  0
 26 43  1  0  0  0  0
 27 28  2  0  0  0  0
 27 44  1  0  0  0  0
 28 29  1  0  0  0  0
 31 45  1  0  0  0  0
 31 46  1  0  0  0  0
 31 47  1  0  0  0  0
M  END
>  <DRUGBANK_ID>
DB00301

>  <SECONDARY_ACCESSION_NUMBERS>
APRD00609

>  <COMMON_NAME>
Flucloxacillin

>  <CAS_NUMBER>
5250-39-5

>  <UNII>
43B2M34G2V

>  <SYNONYMS>
(2S,5R,6R)-6-({[3-(2-chloro-6-fluorophenyl)-5-methyl-1,2-oxazol-4-yl]carbonyl}amino)-3,3-dimethyl-7-oxo-4-thia-1-azabicyclo[3.2.0]heptane-2-carboxylic acid; 3-(2-Chloro-6-fluorophenyl)-5-methyl-4-isoxazolylpenicillin; Floxacillin; Flucloxacilina; Flucloxacillin; Flucloxacilline; Flucloxacillinum

$$$$
