
 OpenBabel10282417143D

109114  0  0  0  0  0  0  0  0999 V2000
   14.3384   15.1354    4.5134 N   0  0  0  0  0  0  0  0  0  0  0  0
   14.3252   16.5710    4.0650 C   0  0  2  0  0  0  0  0  0  0  0  0
   13.2880   14.2073    3.9568 C   0  0  0  0  0  0  0  0  0  0  0  0
   15.3261   15.0008    5.7156 C   0  0  0  0  0  0  0  0  0  0  0  0
   15.3748   16.9979    2.3587 C   0  0  0  0  0  0  0  0  0  0  0  0
   13.5773   16.9113    5.8580 C   0  0  0  0  0  0  0  0  0  0  0  0
   13.5014   12.4272    3.9856 C   0  0  1  0  0  0  0  0  0  0  0  0
   12.5267   14.6560    3.0704 O   0  0  0  0  0  0  0  0  0  0  0  0
   14.7180   14.8430    7.1464 C   0  0  0  0  0  0  0  0  0  0  0  0
   16.9369   16.9433    1.8782 N   0  0  0  0  0  0  0  0  0  0  0  0
   14.8419   17.1423    1.2167 O   0  0  0  0  0  0  0  0  0  0  0  0
   14.1509   16.2071    7.3024 C   0  0  0  0  0  0  0  0  0  0  0  0
   13.9681   12.3369    2.6357 N   0  0  0  0  0  0  0  0  0  0  0  0
   17.7470   16.1699    2.5960 C   0  0  1  0  0  0  0  0  0  0  0  0
   13.7957   16.5240    8.4450 O   0  0  0  0  0  0  0  0  0  0  0  0
   14.4203   13.5742    2.2563 C   0  0  0  0  0  0  0  0  0  0  0  0
   17.8795   15.2086    1.1052 C   0  0  0  0  0  0  0  0  0  0  0  0
   18.4118   17.5191    2.9789 C   0  0  0  0  0  0  0  0  0  0  0  0
   14.3504   11.2571    0.0089 C   0  0  1  0  0  0  0  0  0  0  0  0
   19.2790   14.2769    0.1059 C   0  0  0  0  0  0  0  0  0  0  0  0
   16.5555   14.2098    1.8451 C   0  0  0  0  0  0  0  0  0  0  0  0
   19.5625   17.3233    3.6987 O   0  0  0  0  0  0  0  0  0  0  0  0
   17.8502   18.6245    2.9028 O   0  0  0  0  0  0  0  0  0  0  0  0
   15.6221   12.0708   -0.7881 N   0  0  0  0  0  0  0  0  0  0  0  0
   14.7326    9.7548   -0.2988 C   0  0  0  0  0  0  0  0  0  0  0  0
   19.1204   12.3696    0.2184 C   0  0  0  0  0  0  0  0  0  0  0  0
   16.4814   12.3166    1.9527 C   0  0  0  0  0  0  0  0  0  0  0  0
   19.6443   15.9776    4.1689 C   0  0  1  0  0  0  0  0  0  0  0  0
   16.3399   13.0653   -0.3551 C   0  0  0  0  0  0  0  0  0  0  0  0
   16.3311   11.1860   -1.6477 C   0  0  0  0  0  0  0  0  0  0  0  0
   15.6034    9.8688   -1.5642 C   0  0  0  0  0  0  0  0  0  0  0  0
   17.8132   11.3649    1.1271 C   0  0  0  0  0  0  0  0  0  0  0  0
   20.2952   14.8974    3.2909 C   0  0  1  0  0  0  0  0  0  0  0  0
   20.4892   15.6377    5.3305 C   0  0  0  0  0  0  0  0  0  0  0  0
   17.5631   13.8422   -0.1700 C   0  0  2  0  0  0  0  0  0  0  0  0
   17.1976   12.9621    0.4721 O   0  0  0  0  0  0  0  0  0  0  0  0
   19.7428   14.9591    2.0240 C   0  0  0  0  0  0  0  0  0  0  0  0
   21.6650   14.7360    2.8513 N   0  0  0  0  0  0  0  0  0  0  0  0
   18.6075   13.7111    1.6310 N   0  0  0  0  0  0  0  0  0  0  0  0
   16.9577   15.2257   -0.9774 C   0  0  0  0  0  0  0  0  0  0  0  0
   19.9023   16.0199    1.3621 O   0  0  0  0  0  0  0  0  0  0  0  0
   22.3920   15.4628    1.8951 C   0  0  0  0  0  0  0  0  0  0  0  0
   23.6856   14.8655    1.5318 C   0  0  0  0  0  0  0  0  0  0  0  0
   22.1223   16.5360    1.3722 O   0  0  0  0  0  0  0  0  0  0  0  0
   23.8184   13.5058    1.2627 C   0  0  0  0  0  0  0  0  0  0  0  0
   24.7223   15.7349    1.6514 N   0  0  0  0  0  0  0  0  0  0  0  0
   25.1084   13.0000    1.2159 C   0  0  0  0  0  0  0  0  0  0  0  0
   22.7274   12.6995    1.0930 O   0  0  0  0  0  0  0  0  0  0  0  0
   25.9502   15.2205    1.5515 C   0  0  0  0  0  0  0  0  0  0  0  0
   26.1889   13.8694    1.3839 C   0  0  0  0  0  0  0  0  0  0  0  0
   13.5393   11.4770    1.6209 C   0  0  0  0  0  0  0  0  0  0  0  0
   12.4629   10.9130    1.8314 O   0  0  0  0  0  0  0  0  0  0  0  0
   17.4017   16.6930   -0.8860 C   0  0  0  0  0  0  0  0  0  0  0  0
   14.3053   11.6535    4.1174 H   0  0  0  0  0  0  0  0  0  0  0  0
   13.8272   12.5629    5.4329 C   0  0  0  0  0  0  0  0  0  0  0  0
   12.4527   12.6986    5.9329 C   0  0  0  0  0  0  0  0  0  0  0  0
   11.6957   11.6185    5.6689 C   0  0  0  0  0  0  0  0  0  0  0  0
   11.8006   13.8516    6.3154 C   0  0  0  0  0  0  0  0  0  0  0  0
   10.3851   11.6487    6.0253 C   0  0  0  0  0  0  0  0  0  0  0  0
   10.5515   13.8919    6.8573 C   0  0  0  0  0  0  0  0  0  0  0  0
    9.8111   12.7658    6.6332 C   0  0  0  0  0  0  0  0  0  0  0  0
   13.5240   11.6240   -0.5797 H   0  0  0  0  0  0  0  0  0  0  0  0
   13.3370   16.8996    3.6715 H   0  0  0  0  0  0  0  0  0  0  0  0
   16.0310   14.2064    5.5088 H   0  0  0  0  0  0  0  0  0  0  0  0
   15.8945   15.9295    5.6702 H   0  0  0  0  0  0  0  0  0  0  0  0
   12.5226   17.3295    5.9590 H   0  0  0  0  0  0  0  0  0  0  0  0
   12.8142   16.1383    6.1696 H   0  0  0  0  0  0  0  0  0  0  0  0
   15.3596   14.4730    7.9692 H   0  0  0  0  0  0  0  0  0  0  0  0
   13.8594   14.1847    7.3159 H   0  0  0  0  0  0  0  0  0  0  0  0
   17.8307   17.0496    1.1039 H   0  0  0  0  0  0  0  0  0  0  0  0
   16.9649   16.0177    3.3319 H   0  0  0  0  0  0  0  0  0  0  0  0
   14.2945   13.7675    1.1905 H   0  0  0  0  0  0  0  0  0  0  0  0
   14.7787   14.4849    2.7644 H   0  0  0  0  0  0  0  0  0  0  0  0
   15.2586   13.3440    2.9487 H   0  0  0  0  0  0  0  0  0  0  0  0
   20.3828   14.4161    0.1254 H   0  0  0  0  0  0  0  0  0  0  0  0
   15.6219   14.8830    1.3132 H   0  0  0  0  0  0  0  0  0  0  0  0
   14.2811    8.7513   -0.4420 H   0  0  0  0  0  0  0  0  0  0  0  0
   14.8034    9.4625    0.7507 H   0  0  0  0  0  0  0  0  0  0  0  0
   20.0050   11.8277   -0.0026 H   0  0  0  0  0  0  0  0  0  0  0  0
   15.4851   12.1657    1.3117 H   0  0  0  0  0  0  0  0  0  0  0  0
   18.6156   15.7379    4.5205 H   0  0  0  0  0  0  0  0  0  0  0  0
   17.1765   11.0467   -2.3379 H   0  0  0  0  0  0  0  0  0  0  0  0
   17.2718   11.4261   -1.1691 H   0  0  0  0  0  0  0  0  0  0  0  0
   16.1361    9.0903   -2.1292 H   0  0  0  0  0  0  0  0  0  0  0  0
   14.8069    9.8534   -2.3136 H   0  0  0  0  0  0  0  0  0  0  0  0
   17.3285   10.5363    0.4472 H   0  0  0  0  0  0  0  0  0  0  0  0
   20.0431   13.9531    3.7264 H   0  0  0  0  0  0  0  0  0  0  0  0
   20.2844   14.5698    5.5491 H   0  0  0  0  0  0  0  0  0  0  0  0
   21.5211   15.7273    4.9916 H   0  0  0  0  0  0  0  0  0  0  0  0
   20.2904   16.2209    6.2014 H   0  0  0  0  0  0  0  0  0  0  0  0
   18.0848   13.4942   -1.1532 H   0  0  0  0  0  0  0  0  0  0  0  0
   21.9399   13.7819    3.0136 H   0  0  0  0  0  0  0  0  0  0  0  0
   18.8534   12.8373    2.1394 H   0  0  0  0  0  0  0  0  0  0  0  0
   17.1393   15.0106   -2.0131 H   0  0  0  0  0  0  0  0  0  0  0  0
   15.8767   15.1347   -0.7658 H   0  0  0  0  0  0  0  0  0  0  0  0
   25.3042   11.9446    1.0729 H   0  0  0  0  0  0  0  0  0  0  0  0
   23.0042   11.7997    0.8472 H   0  0  0  0  0  0  0  0  0  0  0  0
   26.7658   15.9313    1.6257 H   0  0  0  0  0  0  0  0  0  0  0  0
   27.2103   13.5095    1.3810 H   0  0  0  0  0  0  0  0  0  0  0  0
   18.4995   16.7154   -0.7851 H   0  0  0  0  0  0  0  0  0  0  0  0
   17.2798   17.6719   -0.3665 H   0  0  0  0  0  0  0  0  0  0  0  0
   16.6891   16.5796   -0.0869 H   0  0  0  0  0  0  0  0  0  0  0  0
   14.4898   11.9110    6.0024 H   0  0  0  0  0  0  0  0  0  0  0  0
   14.3967   13.3921    5.5957 H   0  0  0  0  0  0  0  0  0  0  0  0
   12.1653   10.8217    5.1060 H   0  0  0  0  0  0  0  0  0  0  0  0
   12.2595   14.7339    6.0027 H   0  0  0  0  0  0  0  0  0  0  0  0
    9.8511   10.7384    5.8624 H   0  0  0  0  0  0  0  0  0  0  0  0
   10.1696   14.7570    7.3886 H   0  0  0  0  0  0  0  0  0  0  0  0
    8.7687   12.7577    6.8967 H   0  0  0  0  0  0  0  0  0  0  0  0
  2  1  1  0  0  0  0
  2 63  1  6  0  0  0
  3  1  1  0  0  0  0
  4  1  1  0  0  0  0
  4 64  1  0  0  0  0
  4 65  1  0  0  0  0
  5  2  1  0  0  0  0
  6  2  1  0  0  0  0
  6 66  1  0  0  0  0
  6 67  1  0  0  0  0
  7  3  1  0  0  0  0
  7 13  1  0  0  0  0
  7 54  1  6  0  0  0
  8  3  2  0  0  0  0
  9  4  1  0  0  0  0
  9 68  1  0  0  0  0
  9 69  1  0  0  0  0
 10  5  1  0  0  0  0
 10 70  1  0  0  0  0
 11  5  2  0  0  0  0
 12  6  1  0  0  0  0
 12  9  1  0  0  0  0
 14 10  1  0  0  0  0
 14 17  1  0  0  0  0
 14 71  1  1  0  0  0
 15 12  2  0  0  0  0
 16 72  1  0  0  0  0
 16 73  1  0  0  0  0
 16 74  1  0  0  0  0
 16 13  1  0  0  0  0
 18 14  1  0  0  0  0
 19 51  1  0  0  0  0
 19 62  1  6  0  0  0
 20 17  2  0  0  0  0
 20 75  1  0  0  0  0
 21 17  1  0  0  0  0
 21 76  1  0  0  0  0
 22 18  1  0  0  0  0
 23 18  2  0  0  0  0
 24 19  1  0  0  0  0
 25 19  1  0  0  0  0
 25 77  1  0  0  0  0
 25 78  1  0  0  0  0
 26 20  1  0  0  0  0
 26 79  1  0  0  0  0
 27 21  2  0  0  0  0
 27 80  1  0  0  0  0
 28 22  1  0  0  0  0
 28 34  1  0  0  0  0
 28 81  1  1  0  0  0
 29 24  1  0  0  0  0
 30 24  1  0  0  0  0
 30 82  1  0  0  0  0
 30 83  1  0  0  0  0
 31 25  1  0  0  0  0
 31 30  1  0  0  0  0
 31 84  1  0  0  0  0
 31 85  1  0  0  0  0
 32 26  2  0  0  0  0
 32 27  1  0  0  0  0
 32 86  1  0  0  0  0
 33 28  1  0  0  0  0
 33 38  1  0  0  0  0
 33 87  1  1  0  0  0
 34 88  1  0  0  0  0
 34 89  1  0  0  0  0
 34 90  1  0  0  0  0
 35 29  1  0  0  0  0
 35 39  1  0  0  0  0
 35 91  1  6  0  0  0
 35 40  1  0  0  0  0
 36 29  2  0  0  0  0
 37 33  1  0  0  0  0
 38 92  1  0  0  0  0
 39 37  1  0  0  0  0
 39 93  1  0  0  0  0
 40 94  1  0  0  0  0
 40 95  1  0  0  0  0
 41 37  2  0  0  0  0
 42 38  1  0  0  0  0
 43 42  1  0  0  0  0
 44 42  2  0  0  0  0
 45 43  1  0  0  0  0
 46 43  2  0  0  0  0
 47 45  2  0  0  0  0
 47 96  1  0  0  0  0
 48 45  1  0  0  0  0
 48 97  1  0  0  0  0
 49 46  1  0  0  0  0
 49 98  1  0  0  0  0
 50 47  1  0  0  0  0
 50 49  2  0  0  0  0
 50 99  1  0  0  0  0
 51 13  1  0  0  0  0
 52 51  2  0  0  0  0
 53 40  1  0  0  0  0
 53100  1  0  0  0  0
 53101  1  0  0  0  0
 53102  1  0  0  0  0
 55 56  1  0  0  0  0
 55103  1  0  0  0  0
 55104  1  0  0  0  0
 55  7  1  0  0  0  0
 57 56  1  0  0  0  0
 57105  1  0  0  0  0
 58 56  2  0  0  0  0
 58106  1  0  0  0  0
 59 57  2  0  0  0  0
 59107  1  0  0  0  0
 60 58  1  0  0  0  0
 60108  1  0  0  0  0
 61 59  1  0  0  0  0
 61 60  2  0  0  0  0
 61109  1  0  0  0  0
M  END
>  <DRUGBANK_ID>
DB04805

>  <COMMON_NAME>
Virginiamycin S1

>  <CAS_NUMBER>
23152-29-6

>  <UNII>
J91D5GN5AT

>  <SYNONYMS>
Staphylomycin S; Staphylomycin S1; Virginiamycin factor S; Virginiamycin factor S1

$$$$
