
 OpenBabel10282417173D

219224  0  0  0  0  0  0  0  0999 V2000
    1.4030   -1.2187   -4.9502 O   0  0  0  0  0  0  0  0  0  0  0  0
    2.4222   -1.5313   -0.8219 N   0  0  0  0  0  0  0  0  0  0  0  0
    1.3831   -2.7192   -8.9195 N   0  0  0  0  0  0  0  0  0  0  0  0
    2.0525   -1.7714   -3.4019 C   0  0  2  0  0  0  0  0  0  0  0  0
    3.1583   -1.5623   -2.6978 C   0  0  0  0  0  0  0  0  0  0  0  0
    1.6956   -2.2063   -6.3533 C   0  0  0  0  0  0  0  0  0  0  0  0
    2.4397   -2.0375   -1.1683 C   0  0  1  0  0  0  0  0  0  0  0  0
    1.8997   -3.1211    2.8046 O   0  0  0  0  0  0  0  0  0  0  0  0
    0.6842   -3.5044   -0.2076 N   0  0  0  0  0  0  0  0  0  0  0  0
    1.7656   -3.8419    0.8176 C   0  0  2  0  0  0  0  0  0  0  0  0
    2.1405   -2.5406    1.1930 C   0  0  0  0  0  0  0  0  0  0  0  0
    3.4102   -3.8756    0.7569 C   0  0  0  0  0  0  0  0  0  0  0  0
    0.4384   -2.4048   -2.4568 O   0  0  0  0  0  0  0  0  0  0  0  0
    2.6170   -3.6154   -2.2836 C   0  0  2  0  0  0  0  0  0  0  0  0
    1.5045   -5.4830   -2.7885 C   0  0  0  0  0  0  0  0  0  0  0  0
    1.0638   -3.2209   -1.8262 C   0  0  0  0  0  0  0  0  0  0  0  0
    2.5278   -4.8618   -1.9211 C   0  0  1  0  0  0  0  0  0  0  0  0
    4.3079   -2.9117   -1.4982 N   0  0  0  0  0  0  0  0  0  0  0  0
    5.7494   -2.8331    0.2093 O   0  0  0  0  0  0  0  0  0  0  0  0
    3.1103   -5.7129    0.0135 N   0  0  0  0  0  0  0  0  0  0  0  0
    4.9139   -4.9888   -0.5194 C   0  0  2  0  0  0  0  0  0  0  0  0
    6.5423   -4.7013   -2.3431 C   0  0  0  0  0  0  0  0  0  0  0  0
    5.3371   -3.5986   -0.6105 C   0  0  0  0  0  0  0  0  0  0  0  0
    5.1965   -4.7251   -1.9293 C   0  0  0  0  0  0  0  0  0  0  0  0
    1.1410   -6.6636   -0.4416 O   0  0  0  0  0  0  0  0  0  0  0  0
    2.8980   -6.9587   -2.3010 C   0  0  2  0  0  0  0  0  0  0  0  0
    2.1986   -6.6490   -0.9484 C   0  0  0  0  0  0  0  0  0  0  0  0
    3.9780   -7.4528   -1.7494 C   0  0  0  0  0  0  0  0  0  0  0  0
    3.3198   -5.5586   -3.4414 N   0  0  0  0  0  0  0  0  0  0  0  0
    4.5200   -3.7989   -3.9987 O   0  0  0  0  0  0  0  0  0  0  0  0
    5.9866   -6.5878   -1.9636 N   0  0  0  0  0  0  0  0  0  0  0  0
    5.6399   -6.2688   -3.4838 C   0  0  2  0  0  0  0  0  0  0  0  0
    5.2345   -7.6456   -5.8682 C   0  0  0  0  0  0  0  0  0  0  0  0
    4.4829   -5.1977   -3.7449 C   0  0  0  0  0  0  0  0  0  0  0  0
    5.2004   -7.4215   -4.0655 C   0  0  0  0  0  0  0  0  0  0  0  0
    4.7612   -8.6164   -6.4633 C   0  0  0  0  0  0  0  0  0  0  0  0
    6.0043   -6.4129   -6.6315 C   0  0  0  0  0  0  0  0  0  0  0  0
    4.9634   -6.0964   -7.7612 C   0  0  0  0  0  0  0  0  0  0  0  0
    4.5100   -7.1684   -8.2624 C   0  0  0  0  0  0  0  0  0  0  0  0
    4.4408   -8.3138   -7.6297 C   0  0  0  0  0  0  0  0  0  0  0  0
    5.8947   -7.8471    0.0921 O   0  0  0  0  0  0  0  0  0  0  0  0
    3.8292   -9.0787   -2.8173 N   0  0  0  0  0  0  0  0  0  0  0  0
    5.3554   -9.0620   -2.1374 C   0  0  2  0  0  0  0  0  0  0  0  0
    5.7078   -8.1079   -1.1208 C   0  0  0  0  0  0  0  0  0  0  0  0
    3.6706   -8.9813   -4.2154 C   0  0  0  0  0  0  0  0  0  0  0  0
    2.4247   -8.3908   -4.8663 C   0  0  1  0  0  0  0  0  0  0  0  0
    1.8550   -7.2383   -5.6597 N   0  0  0  0  0  0  0  0  0  0  0  0
    2.1069   -9.5557   -5.6579 C   0  0  0  0  0  0  0  0  0  0  0  0
    4.8030   -9.1715   -4.5775 O   0  0  0  0  0  0  0  0  0  0  0  0
    2.3568   -5.9734   -8.0173 C   0  0  2  0  0  0  0  0  0  0  0  0
    2.1638   -7.2604   -7.1725 C   0  0  0  0  0  0  0  0  0  0  0  0
    2.7701   -4.8005   -7.2005 C   0  0  0  0  0  0  0  0  0  0  0  0
    1.0943   -5.7529   -8.6443 N   0  0  0  0  0  0  0  0  0  0  0  0
    2.5599   -4.9103   -5.8051 C   0  0  0  0  0  0  0  0  0  0  0  0
    1.9922   -8.3460   -7.7057 O   0  0  0  0  0  0  0  0  0  0  0  0
    0.4042   -4.5806   -8.3151 C   0  0  0  0  0  0  0  0  0  0  0  0
   -0.9464   -4.3080   -8.9887 C   0  0  1  0  0  0  0  0  0  0  0  0
   -1.9546   -3.9886   -8.0380 N   0  0  0  0  0  0  0  0  0  0  0  0
   -3.5194   -2.5448   -7.1061 O   0  0  0  0  0  0  0  0  0  0  0  0
   -2.3960   -1.5994   -8.9635 C   0  0  0  0  0  0  0  0  0  0  0  0
   -2.6625   -2.7473   -7.9631 C   0  0  0  0  0  0  0  0  0  0  0  0
   -1.0509   -0.9659   -8.9328 N   0  0  0  0  0  0  0  0  0  0  0  0
    1.1280   -0.8375  -10.0941 O   0  0  0  0  0  0  0  0  0  0  0  0
   -1.2680   -3.4318  -11.5425 N   0  0  0  0  0  0  0  0  0  0  0  0
   -0.7057   -1.8342  -11.5123 C   0  0  2  0  0  0  0  0  0  0  0  0
   -0.0863   -1.0543  -10.1780 C   0  0  0  0  0  0  0  0  0  0  0  0
   -1.7806   -1.0600  -11.9485 C   0  0  0  0  0  0  0  0  0  0  0  0
    3.5181   -6.3214   -5.2952 C   0  0  0  0  0  0  0  0  0  0  0  0
    4.6935   -5.8194   -5.3603 C   0  0  0  0  0  0  0  0  0  0  0  0
    5.5536   -4.6917   -5.0313 N   0  0  0  0  0  0  0  0  0  0  0  0
    2.0367  -10.7744   -4.7763 C   0  0  0  0  0  0  0  0  0  0  0  0
    0.8068  -11.4374   -4.6752 N   0  0  0  0  0  0  0  0  0  0  0  0
    3.0349  -11.1510   -4.1561 O   0  0  0  0  0  0  0  0  0  0  0  0
    6.4153   -9.3791   -3.0867 C   0  0  0  0  0  0  0  0  0  0  0  0
    7.7938   -9.5711   -2.3919 C   0  0  0  0  0  0  0  0  0  0  0  0
    8.7882   -8.4815   -2.1424 C   0  0  0  0  0  0  0  0  0  0  0  0
    8.2026  -10.7320   -2.3135 C   0  0  0  0  0  0  0  0  0  0  0  0
    9.7514   -8.4939   -1.3565 C   0  0  0  0  0  0  0  0  0  0  0  0
    9.2474  -10.7699   -1.4811 C   0  0  0  0  0  0  0  0  0  0  0  0
   10.0761   -9.7264   -1.1251 C   0  0  0  0  0  0  0  0  0  0  0  0
    3.9897   -8.4337   -0.0769 C   0  0  0  0  0  0  0  0  0  0  0  0
    3.3962   -8.3992    1.9229 C   0  0  0  0  0  0  0  0  0  0  0  0
    2.8988   -8.8491    0.2498 C   0  0  0  0  0  0  0  0  0  0  0  0
    2.5762   -7.3617    1.8875 C   0  0  0  0  0  0  0  0  0  0  0  0
    2.8803   -7.6201    0.6716 N   0  0  0  0  0  0  0  0  0  0  0  0
    1.7984   -6.3776    2.3564 C   0  0  0  0  0  0  0  0  0  0  0  0
    1.4436   -6.2103    3.6147 C   0  0  0  0  0  0  0  0  0  0  0  0
    2.0088   -7.0753    4.4581 C   0  0  0  0  0  0  0  0  0  0  0  0
    3.1495   -7.9723    3.7708 C   0  0  0  0  0  0  0  0  0  0  0  0
    7.5783   -5.4987   -1.4387 C   0  0  0  0  0  0  0  0  0  0  0  0
    7.5872   -6.9664   -1.4192 C   0  0  0  0  0  0  0  0  0  0  0  0
    7.3911   -7.3716   -2.9257 N   0  0  0  0  0  0  0  0  0  0  0  0
    3.6084   -5.5063   -1.6720 O   0  0  0  0  0  0  0  0  0  0  0  0
    4.2552   -4.8213    1.3941 C   0  0  0  0  0  0  0  0  0  0  0  0
    4.9741   -4.0748    2.0093 C   0  0  0  0  0  0  0  0  0  0  0  0
    4.4942   -6.1857    1.2892 C   0  0  0  0  0  0  0  0  0  0  0  0
    5.5746   -4.7645    2.9004 C   0  0  0  0  0  0  0  0  0  0  0  0
    4.8879   -6.7863    2.2805 C   0  0  0  0  0  0  0  0  0  0  0  0
    5.5721   -6.0945    3.0519 C   0  0  0  0  0  0  0  0  0  0  0  0
    2.6638   -3.2997   -0.6509 O   0  0  0  0  0  0  0  0  0  0  0  0
    3.9973   -7.1630  -11.4955 O   0  0  0  0  0  0  0  0  0  0  0  0
    1.9585   -5.0525  -12.9675 N   0  0  0  0  0  0  0  0  0  0  0  0
    1.8598   -6.5962  -10.8928 O   0  0  0  0  0  0  0  0  0  0  0  0
    3.1646   -5.1510  -12.4611 C   0  0  2  0  0  0  0  0  0  0  0  0
    3.0513   -6.3982  -11.5893 C   0  0  0  0  0  0  0  0  0  0  0  0
    1.0375   -3.5882  -11.7380 C   0  0  2  0  0  0  0  0  0  0  0  0
    1.5646   -4.3642  -13.8886 C   0  0  0  0  0  0  0  0  0  0  0  0
    0.3748   -4.7720  -14.0574 C   0  0  0  0  0  0  0  0  0  0  0  0
   -0.0505   -6.6659  -14.9654 O   0  0  0  0  0  0  0  0  0  0  0  0
    0.7864   -3.6936   -7.5629 O   0  0  0  0  0  0  0  0  0  0  0  0
    2.5521   -4.9934  -15.0543 O   0  0  0  0  0  0  0  0  0  0  0  0
   -0.8924   -3.1300   -9.6530 C   0  0  0  0  0  0  0  0  0  0  0  0
    3.5509   -3.9409  -11.6886 C   0  0  0  0  0  0  0  0  0  0  0  0
    2.5655   -3.7465  -10.3425 S   0  0  0  0  0  0  0  0  0  0  0  0
    0.4517   -3.7295  -10.1690 S   0  0  0  0  0  0  0  0  0  0  0  0
    2.6948   -1.2309    0.9169 H   0  0  0  0  0  0  0  0  0  0  0  0
    1.2164   -2.3320  -10.4834 H   0  0  0  0  0  0  0  0  0  0  0  0
    2.6921   -1.1145   -1.6340 H   0  0  0  0  0  0  0  0  0  0  0  0
    4.2092   -1.5112   -2.4118 H   0  0  0  0  0  0  0  0  0  0  0  0
    3.3103   -2.3992   -2.9064 H   0  0  0  0  0  0  0  0  0  0  0  0
    2.8492   -0.3894   -2.7705 H   0  0  0  0  0  0  0  0  0  0  0  0
    1.4726   -2.3724   -0.6153 H   0  0  0  0  0  0  0  0  0  0  0  0
   -0.0315   -2.9050    0.0835 H   0  0  0  0  0  0  0  0  0  0  0  0
    1.3649   -4.6969    1.0364 H   0  0  0  0  0  0  0  0  0  0  0  0
    3.4692   -4.4576   -0.5440 H   0  0  0  0  0  0  0  0  0  0  0  0
    3.9522   -2.5215    0.2896 H   0  0  0  0  0  0  0  0  0  0  0  0
    2.8336   -3.4626   -3.3577 H   0  0  0  0  0  0  0  0  0  0  0  0
    1.7079   -5.4157   -3.8798 H   0  0  0  0  0  0  0  0  0  0  0  0
    1.4770   -6.4370   -2.7015 H   0  0  0  0  0  0  0  0  0  0  0  0
    0.7000   -5.2350   -2.3995 H   0  0  0  0  0  0  0  0  0  0  0  0
    2.2426   -5.0583   -1.1022 H   0  0  0  0  0  0  0  0  0  0  0  0
    4.1256   -1.8511   -1.1178 H   0  0  0  0  0  0  0  0  0  0  0  0
    2.8103   -5.4039    0.9436 H   0  0  0  0  0  0  0  0  0  0  0  0
    5.5467   -5.4211    0.1257 H   0  0  0  0  0  0  0  0  0  0  0  0
    6.5494   -4.9714   -3.2503 H   0  0  0  0  0  0  0  0  0  0  0  0
    6.3446   -3.7822   -2.3963 H   0  0  0  0  0  0  0  0  0  0  0  0
    4.7992   -6.0142   -2.2867 H   0  0  0  0  0  0  0  0  0  0  0  0
    4.0864   -4.1043   -2.6715 H   0  0  0  0  0  0  0  0  0  0  0  0
    2.2840   -7.5342   -2.8045 H   0  0  0  0  0  0  0  0  0  0  0  0
    4.6282   -7.5248   -2.5427 H   0  0  0  0  0  0  0  0  0  0  0  0
    4.6281   -6.9477   -1.3085 H   0  0  0  0  0  0  0  0  0  0  0  0
    2.6417   -4.6745   -3.4460 H   0  0  0  0  0  0  0  0  0  0  0  0
    6.1044   -5.7571   -1.1895 H   0  0  0  0  0  0  0  0  0  0  0  0
    6.6352   -6.0160   -4.0649 H   0  0  0  0  0  0  0  0  0  0  0  0
    5.6495   -8.1171   -3.7300 H   0  0  0  0  0  0  0  0  0  0  0  0
    4.2799   -7.5555   -3.8472 H   0  0  0  0  0  0  0  0  0  0  0  0
    4.7330   -9.5294   -6.0247 H   0  0  0  0  0  0  0  0  0  0  0  0
    5.9981   -5.3754   -6.2374 H   0  0  0  0  0  0  0  0  0  0  0  0
    4.7117   -5.0882   -7.9648 H   0  0  0  0  0  0  0  0  0  0  0  0
    4.3248   -6.9878   -9.2402 H   0  0  0  0  0  0  0  0  0  0  0  0
    4.0901   -9.1516   -8.0887 H   0  0  0  0  0  0  0  0  0  0  0  0
    3.1155   -8.6237   -2.2043 H   0  0  0  0  0  0  0  0  0  0  0  0
    5.2557   -9.7513   -1.4481 H   0  0  0  0  0  0  0  0  0  0  0  0
    1.7732   -8.1769   -4.0833 H   0  0  0  0  0  0  0  0  0  0  0  0
    2.0946   -6.3200   -5.3167 H   0  0  0  0  0  0  0  0  0  0  0  0
    1.1690   -9.3476   -6.1354 H   0  0  0  0  0  0  0  0  0  0  0  0
    2.8599   -9.7094   -6.4354 H   0  0  0  0  0  0  0  0  0  0  0  0
    3.0669   -6.1207   -8.8346 H   0  0  0  0  0  0  0  0  0  0  0  0
    3.7286   -4.4849   -7.2213 H   0  0  0  0  0  0  0  0  0  0  0  0
    2.4268   -3.9027   -7.5300 H   0  0  0  0  0  0  0  0  0  0  0  0
    0.7103   -6.4571   -9.2644 H   0  0  0  0  0  0  0  0  0  0  0  0
    2.8847   -4.1629   -5.1686 H   0  0  0  0  0  0  0  0  0  0  0  0
    1.4736   -5.1150   -5.6149 H   0  0  0  0  0  0  0  0  0  0  0  0
   -1.2121   -5.1082   -9.6641 H   0  0  0  0  0  0  0  0  0  0  0  0
   -2.1216   -4.7142   -7.3539 H   0  0  0  0  0  0  0  0  0  0  0  0
   -2.7118   -1.9274   -9.9403 H   0  0  0  0  0  0  0  0  0  0  0  0
   -3.0141   -0.7768   -8.8274 H   0  0  0  0  0  0  0  0  0  0  0  0
   -0.5762   -0.8538   -8.0467 H   0  0  0  0  0  0  0  0  0  0  0  0
   -1.5878   -3.8190  -12.2653 H   0  0  0  0  0  0  0  0  0  0  0  0
   -0.5419   -4.0553  -10.9772 H   0  0  0  0  0  0  0  0  0  0  0  0
    0.0911   -1.9113  -12.1953 H   0  0  0  0  0  0  0  0  0  0  0  0
   -1.3780   -0.0882  -12.0979 H   0  0  0  0  0  0  0  0  0  0  0  0
   -2.1441   -1.4996  -12.8438 H   0  0  0  0  0  0  0  0  0  0  0  0
   -2.5454   -1.0260  -11.2144 H   0  0  0  0  0  0  0  0  0  0  0  0
    3.0890   -6.6574   -4.3743 H   0  0  0  0  0  0  0  0  0  0  0  0
    3.4685   -7.1002   -6.0294 H   0  0  0  0  0  0  0  0  0  0  0  0
    5.5652   -6.4153   -5.0377 H   0  0  0  0  0  0  0  0  0  0  0  0
    4.5021   -5.6307   -6.2869 H   0  0  0  0  0  0  0  0  0  0  0  0
    6.4532   -4.7783   -4.8297 H   0  0  0  0  0  0  0  0  0  0  0  0
    4.8094   -4.0683   -5.1311 H   0  0  0  0  0  0  0  0  0  0  0  0
    0.7208  -12.2732   -4.0764 H   0  0  0  0  0  0  0  0  0  0  0  0
   -0.0335  -11.1478   -5.1816 H   0  0  0  0  0  0  0  0  0  0  0  0
    6.0965   -9.9994   -3.8003 H   0  0  0  0  0  0  0  0  0  0  0  0
    6.8247   -8.5082   -4.1349 H   0  0  0  0  0  0  0  0  0  0  0  0
    8.7619   -7.2355   -2.3842 H   0  0  0  0  0  0  0  0  0  0  0  0
    7.6621  -11.4643   -2.8120 H   0  0  0  0  0  0  0  0  0  0  0  0
   10.1819   -7.6019   -1.0469 H   0  0  0  0  0  0  0  0  0  0  0  0
    9.4624  -11.7063   -1.0604 H   0  0  0  0  0  0  0  0  0  0  0  0
   11.0124   -9.9026   -0.6674 H   0  0  0  0  0  0  0  0  0  0  0  0
    3.2797   -9.6820    0.6111 H   0  0  0  0  0  0  0  0  0  0  0  0
    3.2535   -6.7514    0.0416 H   0  0  0  0  0  0  0  0  0  0  0  0
    1.3078   -5.9277    1.5823 H   0  0  0  0  0  0  0  0  0  0  0  0
    0.7529   -5.4442    3.8860 H   0  0  0  0  0  0  0  0  0  0  0  0
    1.5340   -7.1093    5.4517 H   0  0  0  0  0  0  0  0  0  0  0  0
    3.6681   -8.3421    4.9380 H   0  0  0  0  0  0  0  0  0  0  0  0
    8.3998   -5.2496   -1.8689 H   0  0  0  0  0  0  0  0  0  0  0  0
    7.2580   -5.2340   -0.4455 H   0  0  0  0  0  0  0  0  0  0  0  0
    8.0551   -7.5125   -0.7301 H   0  0  0  0  0  0  0  0  0  0  0  0
    6.8987   -7.3177   -0.9363 H   0  0  0  0  0  0  0  0  0  0  0  0
    7.4534   -8.2705   -3.0327 H   0  0  0  0  0  0  0  0  0  0  0  0
    6.8008   -7.1680   -3.5223 H   0  0  0  0  0  0  0  0  0  0  0  0
    3.9283   -5.3010   -2.4716 H   0  0  0  0  0  0  0  0  0  0  0  0
    4.9457   -3.0761    1.7663 H   0  0  0  0  0  0  0  0  0  0  0  0
    4.4387   -6.8408    0.3761 H   0  0  0  0  0  0  0  0  0  0  0  0
    6.0873   -4.1763    3.5735 H   0  0  0  0  0  0  0  0  0  0  0  0
    4.7864   -7.7663    2.5037 H   0  0  0  0  0  0  0  0  0  0  0  0
    6.1297   -6.6446    3.7331 H   0  0  0  0  0  0  0  0  0  0  0  0
    3.7980   -3.3615   -0.6169 H   0  0  0  0  0  0  0  0  0  0  0  0
    1.0750   -4.9568  -12.5181 H   0  0  0  0  0  0  0  0  0  0  0  0
    1.8057   -7.3971  -10.2945 H   0  0  0  0  0  0  0  0  0  0  0  0
    3.8796   -5.3036  -13.2521 H   0  0  0  0  0  0  0  0  0  0  0  0
    0.0864   -3.9643  -13.2623 H   0  0  0  0  0  0  0  0  0  0  0  0
   -0.5311   -5.2759  -15.6651 H   0  0  0  0  0  0  0  0  0  0  0  0
    0.6048   -5.4839  -15.8215 H   0  0  0  0  0  0  0  0  0  0  0  0
    0.7659   -7.1704  -14.8041 H   0  0  0  0  0  0  0  0  0  0  0  0
   -1.7963   -2.8490  -10.2130 H   0  0  0  0  0  0  0  0  0  0  0  0
   -0.4821   -2.4082   -9.2514 H   0  0  0  0  0  0  0  0  0  0  0  0
    3.6014   -3.0499  -12.2893 H   0  0  0  0  0  0  0  0  0  0  0  0
    4.4968   -4.1048  -11.1970 H   0  0  0  0  0  0  0  0  0  0  0  0
  1  6  2  0  0  0  0
  2116  1  0  0  0  0
  3117  1  0  0  0  0
  4  2  1  0  0  0  0
  4118  1  6  0  0  0
  5119  1  0  0  0  0
  5120  1  0  0  0  0
  5121  1  0  0  0  0
  6  3  1  0  0  0  0
  6  4  1  0  0  0  0
  7  4  1  0  0  0  0
  7  5  1  0  0  0  0
  7100  1  0  0  0  0
  7122  1  6  0  0  0
  8 11  2  0  0  0  0
  9123  1  0  0  0  0
 10  9  1  0  0  0  0
 10124  1  1  0  0  0
 11  2  1  0  0  0  0
 11 10  1  0  0  0  0
 12 10  1  0  0  0  0
 12 94  1  0  0  0  0
 12125  1  0  0  0  0
 12126  1  0  0  0  0
 13 16  2  0  0  0  0
 14 18  1  0  0  0  0
 14127  1  6  0  0  0
 15128  1  0  0  0  0
 15129  1  0  0  0  0
 15130  1  0  0  0  0
 16  9  1  0  0  0  0
 16 14  1  0  0  0  0
 17 14  1  0  0  0  0
 17 15  1  0  0  0  0
 17 93  1  0  0  0  0
 17131  1  1  0  0  0
 18132  1  0  0  0  0
 19 23  2  0  0  0  0
 20133  1  0  0  0  0
 21 20  1  0  0  0  0
 21134  1  1  0  0  0
 22 90  1  0  0  0  0
 22135  1  0  0  0  0
 22136  1  0  0  0  0
 23 18  1  0  0  0  0
 23 21  1  0  0  0  0
 24 21  1  0  0  0  0
 24 22  1  0  0  0  0
 24137  1  0  0  0  0
 24138  1  0  0  0  0
 25 27  2  0  0  0  0
 26 29  1  0  0  0  0
 26139  1  6  0  0  0
 27 20  1  0  0  0  0
 27 26  1  0  0  0  0
 28 26  1  0  0  0  0
 28 81  1  0  0  0  0
 28140  1  0  0  0  0
 28141  1  0  0  0  0
 29142  1  0  0  0  0
 30 34  2  0  0  0  0
 31143  1  0  0  0  0
 32 31  1  0  0  0  0
 32144  1  6  0  0  0
 33 37  1  0  0  0  0
 34 29  1  0  0  0  0
 34 32  1  0  0  0  0
 35 32  1  0  0  0  0
 35 33  1  0  0  0  0
 35145  1  0  0  0  0
 35146  1  0  0  0  0
 36 33  2  0  0  0  0
 36 40  1  0  0  0  0
 36147  1  0  0  0  0
 37 38  2  0  0  0  0
 37148  1  0  0  0  0
 38 39  1  0  0  0  0
 38149  1  0  0  0  0
 39 40  2  0  0  0  0
 39150  1  0  0  0  0
 40151  1  0  0  0  0
 41 44  2  0  0  0  0
 42152  1  0  0  0  0
 43 42  1  0  0  0  0
 43 74  1  0  0  0  0
 43153  1  1  0  0  0
 44 31  1  0  0  0  0
 44 43  1  0  0  0  0
 45 46  1  0  0  0  0
 45 42  1  0  0  0  0
 46 47  1  0  0  0  0
 46 48  1  0  0  0  0
 46154  1  1  0  0  0
 47155  1  0  0  0  0
 48 71  1  0  0  0  0
 48156  1  0  0  0  0
 48157  1  0  0  0  0
 49 45  2  0  0  0  0
 50 51  1  0  0  0  0
 50 53  1  0  0  0  0
 50158  1  6  0  0  0
 50 52  1  0  0  0  0
 51 47  1  0  0  0  0
 52 54  1  0  0  0  0
 52159  1  0  0  0  0
 52160  1  0  0  0  0
 53 56  1  0  0  0  0
 53161  1  0  0  0  0
 54 68  1  0  0  0  0
 54162  1  0  0  0  0
 54163  1  0  0  0  0
 55 51  2  0  0  0  0
 56 57  1  0  0  0  0
 56110  2  0  0  0  0
 57 58  1  0  0  0  0
 57112  1  0  0  0  0
 57164  1  6  0  0  0
 58165  1  0  0  0  0
 59 61  2  0  0  0  0
 60 62  1  0  0  0  0
 60166  1  0  0  0  0
 60167  1  0  0  0  0
 61 58  1  0  0  0  0
 61 60  1  0  0  0  0
 62168  1  0  0  0  0
 63 66  2  0  0  0  0
 64169  1  0  0  0  0
 64170  1  0  0  0  0
 65 64  1  0  0  0  0
 65171  1  6  0  0  0
 66 62  1  0  0  0  0
 66 65  1  0  0  0  0
 67 65  1  0  0  0  0
 67172  1  0  0  0  0
 67173  1  0  0  0  0
 67174  1  0  0  0  0
 68 69  1  0  0  0  0
 68175  1  0  0  0  0
 68176  1  0  0  0  0
 69 70  1  0  0  0  0
 69177  1  0  0  0  0
 69178  1  0  0  0  0
 70179  1  0  0  0  0
 70180  1  0  0  0  0
 72 71  1  0  0  0  0
 72181  1  0  0  0  0
 72182  1  0  0  0  0
 73 71  2  0  0  0  0
 74 75  1  0  0  0  0
 74183  1  0  0  0  0
 74184  1  0  0  0  0
 76 75  2  0  0  0  0
 76185  1  0  0  0  0
 77 75  1  0  0  0  0
 77186  1  0  0  0  0
 78 76  1  0  0  0  0
 78187  1  0  0  0  0
 79 77  2  0  0  0  0
 79188  1  0  0  0  0
 80 78  2  0  0  0  0
 80 79  1  0  0  0  0
 80189  1  0  0  0  0
 82 81  1  0  0  0  0
 82 84  2  0  0  0  0
 83 81  2  0  0  0  0
 83190  1  0  0  0  0
 84 86  1  0  0  0  0
 85 83  1  0  0  0  0
 85 84  1  0  0  0  0
 85191  1  0  0  0  0
 86192  1  0  0  0  0
 87 86  2  0  0  0  0
 87193  1  0  0  0  0
 88 87  1  0  0  0  0
 88194  1  0  0  0  0
 89 82  1  0  0  0  0
 89 88  2  0  0  0  0
 89195  1  0  0  0  0
 90 91  1  0  0  0  0
 90196  1  0  0  0  0
 90197  1  0  0  0  0
 91 92  1  0  0  0  0
 91198  1  0  0  0  0
 91199  1  0  0  0  0
 92200  1  0  0  0  0
 92201  1  0  0  0  0
 93202  1  0  0  0  0
 95 94  2  0  0  0  0
 95203  1  0  0  0  0
 96 94  1  0  0  0  0
 96204  1  0  0  0  0
 97 95  1  0  0  0  0
 97205  1  0  0  0  0
 98 96  2  0  0  0  0
 98206  1  0  0  0  0
 99 97  2  0  0  0  0
 99 98  1  0  0  0  0
 99207  1  0  0  0  0
100208  1  0  0  0  0
101105  2  0  0  0  0
102107  1  0  0  0  0
102209  1  0  0  0  0
103210  1  0  0  0  0
104102  1  0  0  0  0
104113  1  0  0  0  0
104211  1  6  0  0  0
104105  1  0  0  0  0
105103  1  0  0  0  0
106  3  1  0  0  0  0
106212  1  1  0  0  0
107106  1  0  0  0  0
107111  2  0  0  0  0
108106  1  0  0  0  0
108109  1  0  0  0  0
108213  1  0  0  0  0
108214  1  0  0  0  0
109215  1  0  0  0  0
112115  1  0  0  0  0
112216  1  0  0  0  0
112217  1  0  0  0  0
113114  1  0  0  0  0
113218  1  0  0  0  0
113219  1  0  0  0  0
114115  1  0  0  0  0
M  END
>  <DRUGBANK_ID>
DB09099

>  <COMMON_NAME>
Somatostatin

>  <CAS_NUMBER>
38916-34-6

>  <UNII>
6E20216Q0L

>  <SYNONYMS>
Somatostatin; Somatostatina; Somatostatine; Somatostatinum; Synthetic growth hormone release-inhibiting hormone; Synthetic somatostatin-14

$$$$
