
 OpenBabel10282417143D

202212  0  0  0  0  0  0  0  0999 V2000
    0.8897    0.4251    0.2135 Cl  0  0  0  0  0  0  0  0  0  0  0  0
   10.4496   -2.7762   -1.8043 Cl  0  0  0  0  0  0  0  0  0  0  0  0
   13.5207    2.7726    2.2363 O   0  0  0  0  0  0  0  0  0  0  0  0
   14.1377    2.8856   -0.3473 O   0  0  0  0  0  0  0  0  0  0  0  0
    9.7414    3.3780    1.9484 O   0  0  0  0  0  0  0  0  0  0  0  0
    5.0969   -3.6572   -3.8955 O   0  0  0  0  0  0  0  0  0  0  0  0
   12.2955    3.9121    1.8256 O   0  0  0  0  0  0  0  0  0  0  0  0
    6.3078   -2.5972   -1.7930 O   0  0  0  0  0  0  0  0  0  0  0  0
    5.4935   -1.9658   -6.1641 O   0  0  0  0  0  0  0  0  0  0  0  0
   10.4156    1.3520    0.6678 O   0  0  0  0  0  0  0  0  0  0  0  0
    9.9000    4.0724   -1.4951 O   0  0  0  0  0  0  0  0  0  0  0  0
   12.2360    5.4595    1.2899 O   0  0  0  0  0  0  0  0  0  0  0  0
    8.1916    3.5670    2.8399 O   0  0  0  0  0  0  0  0  0  0  0  0
    5.2177    2.8454    0.0249 O   0  0  0  0  0  0  0  0  0  0  0  0
    8.9974   -0.9375    0.0198 O   0  0  0  0  0  0  0  0  0  0  0  0
    8.5569   -3.9899    0.0990 O   0  0  0  0  0  0  0  0  0  0  0  0
    5.4448    1.5788   -1.2575 O   0  0  0  0  0  0  0  0  0  0  0  0
    7.4970    1.4482   -3.0740 O   0  0  0  0  0  0  0  0  0  0  0  0
    4.3587   -5.3887    3.0800 O   0  0  0  0  0  0  0  0  0  0  0  0
    5.2536   -7.2284    2.1347 O   0  0  0  0  0  0  0  0  0  0  0  0
    1.1008   -3.9414   -1.0325 O   0  0  0  0  0  0  0  0  0  0  0  0
   15.5657   -2.0806   -0.3721 O   0  0  0  0  0  0  0  0  0  0  0  0
    2.2568   -5.2838   -3.2206 O   0  0  0  0  0  0  0  0  0  0  0  0
    4.1299   -9.2168   -1.8323 O   0  0  0  0  0  0  0  0  0  0  0  0
   14.8538   -0.2831    1.8956 O   0  0  0  0  0  0  0  0  0  0  0  0
   15.9803   -1.7735    4.9061 O   0  0  0  0  0  0  0  0  0  0  0  0
   13.4675   -6.4841    3.7483 O   0  0  0  0  0  0  0  0  0  0  0  0
   12.7862   -2.6225    2.6769 O   0  0  0  0  0  0  0  0  0  0  0  0
    9.9410    5.7807   -0.2775 N   0  3  0  0  0  0  0  0  0  0  0  0
    2.8821   -0.6850   -3.9524 N   0  3  0  0  0  0  0  0  0  0  0  0
    6.8365   -0.1972    0.9300 N   0  0  0  0  0  0  0  0  0  0  0  0
    6.6190   -5.0994    0.4526 N   0  0  0  0  0  0  0  0  0  0  0  0
    6.6184    0.2365   -2.8026 N   0  0  0  0  0  0  0  0  0  0  0  0
   12.3546   -1.0248   -1.0945 N   0  0  0  0  0  0  0  0  0  0  0  0
   16.3605   -2.6168    2.4566 N   0  0  0  0  0  0  0  0  0  0  0  0
   12.9590   -3.9148    3.8578 N   0  0  0  0  0  0  0  0  0  0  0  0
   15.9399   -4.2211    5.5046 N   0  3  0  0  0  0  0  0  0  0  0  0
   14.4458   -3.5137    4.4677 N   0  0  0  0  0  0  0  0  0  0  0  0
   11.2432    4.1289    0.1441 C   0  0  2  0  0  0  0  0  0  0  0  0
   10.8623    3.4289    1.8478 C   0  0  2  0  0  0  0  0  0  0  0  0
   13.2777    4.9610   -0.1200 C   0  0  0  0  0  0  0  0  0  0  0  0
   14.1326    3.7222    0.7538 C   0  0  1  0  0  0  0  0  0  0  0  0
   11.6209    2.4466    2.5393 C   0  0  2  0  0  0  0  0  0  0  0  0
    4.1600   -0.8629   -4.6122 C   0  0  2  0  0  0  0  0  0  0  0  0
   10.8728    2.6699   -1.0797 C   0  0  0  0  0  0  0  0  0  0  0  0
    4.2262   -1.9939   -5.5406 C   0  0  2  0  0  0  0  0  0  0  0  0
   12.8634    2.5459   -0.5687 C   0  0  2  0  0  0  0  0  0  0  0  0
    5.2099   -1.3430   -3.7473 C   0  0  0  0  0  0  0  0  0  0  0  0
   11.8985    4.2368   -1.3512 C   0  0  2  0  0  0  0  0  0  0  0  0
    4.0447   -3.3298   -4.8379 C   0  0  2  0  0  0  0  0  0  0  0  0
    5.2236   -2.5996   -3.0745 C   0  0  1  0  0  0  0  0  0  0  0  0
   11.1626    2.6117    3.8184 C   0  0  0  0  0  0  0  0  0  0  0  0
   12.2838    2.0812    0.8629 C   0  0  1  0  0  0  0  0  0  0  0  0
   11.7099    5.8224    0.1104 C   0  0  1  0  0  0  0  0  0  0  0  0
    4.4690    0.5008   -5.1349 C   0  0  0  0  0  0  0  0  0  0  0  0
   10.5693    5.1513    1.5378 C   0  0  1  0  0  0  0  0  0  0  0  0
    2.6682   -3.2667   -4.2822 C   0  0  0  0  0  0  0  0  0  0  0  0
    8.5435    4.3798    1.4922 C   0  0  0  0  0  0  0  0  0  0  0  0
    5.7337   -2.4109   -0.0140 C   0  0  1  0  0  0  0  0  0  0  0  0
    6.7782   -2.1398    0.9319 C   0  0  1  0  0  0  0  0  0  0  0  0
    4.6471   -1.5119    0.7363 C   0  0  0  0  0  0  0  0  0  0  0  0
    8.5039    1.4020    0.7965 C   0  0  0  0  0  0  0  0  0  0  0  0
    7.3746   -3.8651    0.4517 C   0  0  0  0  0  0  0  0  0  0  0  0
    7.1130    2.5682    0.2381 C   0  0  0  0  0  0  0  0  0  0  0  0
    8.9676    0.3746    0.0331 C   0  0  0  0  0  0  0  0  0  0  0  0
    3.3845   -1.1529    0.8881 C   0  0  0  0  0  0  0  0  0  0  0  0
    4.9165   -0.3066    0.5650 C   0  0  0  0  0  0  0  0  0  0  0  0
    6.0941    0.7376   -0.6091 C   0  0  0  0  0  0  0  0  0  0  0  0
    7.7912    2.7479   -0.9736 C   0  0  0  0  0  0  0  0  0  0  0  0
    8.8963    1.3235   -1.3430 C   0  0  0  0  0  0  0  0  0  0  0  0
    3.6138    1.8055    0.1285 C   0  0  0  0  0  0  0  0  0  0  0  0
    8.1212    0.6210   -0.7647 C   0  0  0  0  0  0  0  0  0  0  0  0
    2.8005    0.4407    0.5088 C   0  0  0  0  0  0  0  0  0  0  0  0
    4.4759    1.1052    0.8395 C   0  0  0  0  0  0  0  0  0  0  0  0
    5.8484   -0.3753   -1.7119 C   0  0  1  0  0  0  0  0  0  0  0  0
   10.4213   -0.1451   -1.6979 C   0  0  2  0  0  0  0  0  0  0  0  0
    5.1815   -5.2924    0.7719 C   0  0  1  0  0  0  0  0  0  0  0  0
    8.4713    0.2606   -2.8565 C   0  0  0  0  0  0  0  0  0  0  0  0
    4.3101   -1.3481   -1.4876 C   0  0  0  0  0  0  0  0  0  0  0  0
    4.4360   -5.8808   -0.4038 C   0  0  0  0  0  0  0  0  0  0  0  0
    3.6326   -5.1840   -1.2839 C   0  0  0  0  0  0  0  0  0  0  0  0
    4.2586   -3.0020   -1.2701 C   0  0  0  0  0  0  0  0  0  0  0  0
    3.3004   -3.8396   -1.1115 C   0  0  0  0  0  0  0  0  0  0  0  0
   10.0645   -1.3928    0.6001 C   0  0  0  0  0  0  0  0  0  0  0  0
    4.9214   -6.0571    2.0438 C   0  0  0  0  0  0  0  0  0  0  0  0
    3.0981   -0.8322   -1.4368 C   0  0  0  0  0  0  0  0  0  0  0  0
   14.0981   -2.1032   -0.3642 C   0  0  0  0  0  0  0  0  0  0  0  0
    4.5487   -7.2454   -0.6249 C   0  0  0  0  0  0  0  0  0  0  0  0
    2.1707   -3.1617   -1.0592 C   0  0  0  0  0  0  0  0  0  0  0  0
   15.3386   -3.4316    0.9143 C   0  0  2  0  0  0  0  0  0  0  0  0
    2.0605   -1.7716   -1.1994 C   0  0  0  0  0  0  0  0  0  0  0  0
    3.1076   -5.8316   -2.3689 C   0  0  0  0  0  0  0  0  0  0  0  0
   10.7522   -2.3449   -0.0875 C   0  0  0  0  0  0  0  0  0  0  0  0
   10.3929   -0.9139    1.8419 C   0  0  0  0  0  0  0  0  0  0  0  0
    3.9655   -7.8815   -1.6944 C   0  0  0  0  0  0  0  0  0  0  0  0
   12.5052   -1.5011    1.2119 C   0  0  0  0  0  0  0  0  0  0  0  0
   14.1045   -2.0435    3.6594 C   0  0  2  0  0  0  0  0  0  0  0  0
   14.1391   -1.4089    1.9046 C   0  0  2  0  0  0  0  0  0  0  0  0
    3.2603   -7.1563   -2.5869 C   0  0  0  0  0  0  0  0  0  0  0  0
   11.8966   -2.6787    0.5267 C   0  0  0  0  0  0  0  0  0  0  0  0
   11.6886   -0.8522    2.1090 C   0  0  0  0  0  0  0  0  0  0  0  0
   14.2929   -4.1643    1.5297 C   0  0  0  0  0  0  0  0  0  0  0  0
   15.7087   -2.0585    3.7262 C   0  0  0  0  0  0  0  0  0  0  0  0
   15.7060   -5.2011    4.2313 C   0  0  2  0  0  0  0  0  0  0  0  0
   16.5482   -4.7252    3.1656 C   0  0  0  0  0  0  0  0  0  0  0  0
   14.0045   -5.4063    3.6427 C   0  0  0  0  0  0  0  0  0  0  0  0
   18.1202   -4.4275    3.4208 C   0  0  0  0  0  0  0  0  0  0  0  0
   13.9190   -3.3730    2.5829 C   0  0  0  0  0  0  0  0  0  0  0  0
   18.6182   -5.6994    3.9210 C   0  0  0  0  0  0  0  0  0  0  0  0
   18.8095   -3.6851    2.2693 C   0  0  0  0  0  0  0  0  0  0  0  0
   17.1789   -3.5580    5.6690 C   0  0  0  0  0  0  0  0  0  0  0  0
   10.2479    6.2734   -1.2851 H   0  0  0  0  0  0  0  0  0  0  0  0
    9.0547    5.4316   -0.4219 H   0  0  0  0  0  0  0  0  0  0  0  0
   10.2480    6.6765    0.4120 H   0  0  0  0  0  0  0  0  0  0  0  0
    2.1997   -1.3594   -4.1262 H   0  0  0  0  0  0  0  0  0  0  0  0
    2.9219   -0.9247   -3.0219 H   0  0  0  0  0  0  0  0  0  0  0  0
    2.4166    0.2027   -3.9371 H   0  0  0  0  0  0  0  0  0  0  0  0
    7.6192   -1.9827    0.3646 H   0  0  0  0  0  0  0  0  0  0  0  0
    7.6814   -0.4886    0.6131 H   0  0  0  0  0  0  0  0  0  0  0  0
    7.0859   -6.0239    0.2594 H   0  0  0  0  0  0  0  0  0  0  0  0
    6.6513   -1.0450   -1.7057 H   0  0  0  0  0  0  0  0  0  0  0  0
    9.8024    1.1165   -1.9494 H   0  0  0  0  0  0  0  0  0  0  0  0
    5.9038    0.3851   -3.5538 H   0  0  0  0  0  0  0  0  0  0  0  0
   12.9675   -2.2376   -1.0186 H   0  0  0  0  0  0  0  0  0  0  0  0
   17.1782   -3.0264    3.0767 H   0  0  0  0  0  0  0  0  0  0  0  0
   12.2044   -3.9396    3.1084 H   0  0  0  0  0  0  0  0  0  0  0  0
   15.2989   -3.3508    5.4123 H   0  0  0  0  0  0  0  0  0  0  0  0
   15.5308   -4.6235    6.3155 H   0  0  0  0  0  0  0  0  0  0  0  0
   14.1679   -4.3783    4.8696 H   0  0  0  0  0  0  0  0  0  0  0  0
   13.5936   -3.0055    5.0795 H   0  0  0  0  0  0  0  0  0  0  0  0
    9.7210    3.8456    0.7727 H   0  0  0  0  0  0  0  0  0  0  0  0
    6.2051   -2.1694   -5.5225 H   0  0  0  0  0  0  0  0  0  0  0  0
    9.3812    3.0413   -0.8912 H   0  0  0  0  0  0  0  0  0  0  0  0
   12.6124    4.4015    1.0414 H   0  0  0  0  0  0  0  0  0  0  0  0
    8.9771    2.8494    2.7704 H   0  0  0  0  0  0  0  0  0  0  0  0
    4.0901   -4.4494    3.0548 H   0  0  0  0  0  0  0  0  0  0  0  0
    0.2773   -3.4576   -0.9445 H   0  0  0  0  0  0  0  0  0  0  0  0
    2.0393   -4.3996   -2.9084 H   0  0  0  0  0  0  0  0  0  0  0  0
    3.6913   -9.6041   -2.6132 H   0  0  0  0  0  0  0  0  0  0  0  0
   14.7471   -0.1494    0.9585 H   0  0  0  0  0  0  0  0  0  0  0  0
   11.2701    4.5248    2.7949 H   0  0  0  0  0  0  0  0  0  0  0  0
   13.3115    6.2991    0.6719 H   0  0  0  0  0  0  0  0  0  0  0  0
   13.3386    5.5102   -1.1197 H   0  0  0  0  0  0  0  0  0  0  0  0
   14.9451    4.3924    0.9637 H   0  0  0  0  0  0  0  0  0  0  0  0
   11.0299    2.5233    1.5611 H   0  0  0  0  0  0  0  0  0  0  0  0
   11.3122    2.3704   -0.3321 H   0  0  0  0  0  0  0  0  0  0  0  0
   10.4209    3.1409   -0.1978 H   0  0  0  0  0  0  0  0  0  0  0  0
   11.0089    3.0846   -2.2540 H   0  0  0  0  0  0  0  0  0  0  0  0
    3.4282   -1.7931   -6.2265 H   0  0  0  0  0  0  0  0  0  0  0  0
   12.4782    1.5908   -1.1299 H   0  0  0  0  0  0  0  0  0  0  0  0
    6.2360   -1.2479   -4.0091 H   0  0  0  0  0  0  0  0  0  0  0  0
    4.7887   -0.6426   -3.0917 H   0  0  0  0  0  0  0  0  0  0  0  0
   12.2597    4.4605   -2.2674 H   0  0  0  0  0  0  0  0  0  0  0  0
    4.0747   -4.1321   -5.5261 H   0  0  0  0  0  0  0  0  0  0  0  0
    4.1414   -2.4366   -2.8951 H   0  0  0  0  0  0  0  0  0  0  0  0
   11.5972    1.6655    3.8664 H   0  0  0  0  0  0  0  0  0  0  0  0
   11.5026    3.5344    4.2062 H   0  0  0  0  0  0  0  0  0  0  0  0
   10.1189    2.5563    3.7744 H   0  0  0  0  0  0  0  0  0  0  0  0
   12.4999    1.2181    1.6606 H   0  0  0  0  0  0  0  0  0  0  0  0
   11.4269    5.8052   -0.8463 H   0  0  0  0  0  0  0  0  0  0  0  0
    5.4431    0.9168   -4.9094 H   0  0  0  0  0  0  0  0  0  0  0  0
    4.4793    0.4004   -6.1960 H   0  0  0  0  0  0  0  0  0  0  0  0
    3.7430    1.2431   -4.7993 H   0  0  0  0  0  0  0  0  0  0  0  0
   10.4013    5.8167    2.3775 H   0  0  0  0  0  0  0  0  0  0  0  0
    2.6737   -3.0175   -3.2280 H   0  0  0  0  0  0  0  0  0  0  0  0
    1.9058   -2.6573   -4.7075 H   0  0  0  0  0  0  0  0  0  0  0  0
    2.1435   -4.1346   -4.5970 H   0  0  0  0  0  0  0  0  0  0  0  0
    8.3756    5.1323    0.8686 H   0  0  0  0  0  0  0  0  0  0  0  0
    8.7479    3.0739    0.8825 H   0  0  0  0  0  0  0  0  0  0  0  0
    5.1711   -3.2249    0.2334 H   0  0  0  0  0  0  0  0  0  0  0  0
    2.8563   -2.0631    0.6951 H   0  0  0  0  0  0  0  0  0  0  0  0
    5.9272   -0.7510   -0.1278 H   0  0  0  0  0  0  0  0  0  0  0  0
    7.7610    3.9896   -0.9474 H   0  0  0  0  0  0  0  0  0  0  0  0
    7.4976    0.0711   -1.2819 H   0  0  0  0  0  0  0  0  0  0  0  0
    5.3498    1.6799    1.1023 H   0  0  0  0  0  0  0  0  0  0  0  0
    4.7769   -4.3598    1.0601 H   0  0  0  0  0  0  0  0  0  0  0  0
    5.3087   -3.7524   -1.2769 H   0  0  0  0  0  0  0  0  0  0  0  0
    3.1331    0.2376   -1.5109 H   0  0  0  0  0  0  0  0  0  0  0  0
    5.1056   -7.8505    0.0666 H   0  0  0  0  0  0  0  0  0  0  0  0
   15.6462   -4.9053    1.2623 H   0  0  0  0  0  0  0  0  0  0  0  0
    1.2033   -1.4744   -0.6478 H   0  0  0  0  0  0  0  0  0  0  0  0
    9.7182   -0.3955    2.4786 H   0  0  0  0  0  0  0  0  0  0  0  0
   13.5737   -1.5086    4.3206 H   0  0  0  0  0  0  0  0  0  0  0  0
   14.7224   -2.0721    1.3770 H   0  0  0  0  0  0  0  0  0  0  0  0
    2.7873   -7.6260   -3.4231 H   0  0  0  0  0  0  0  0  0  0  0  0
   12.5076   -3.4325    0.0412 H   0  0  0  0  0  0  0  0  0  0  0  0
   12.1064   -0.4695    3.0447 H   0  0  0  0  0  0  0  0  0  0  0  0
   14.0010   -3.8131    0.6255 H   0  0  0  0  0  0  0  0  0  0  0  0
   13.8286   -5.0930    1.5272 H   0  0  0  0  0  0  0  0  0  0  0  0
   16.0469   -6.1191    4.5400 H   0  0  0  0  0  0  0  0  0  0  0  0
   16.8600   -5.2248    2.2894 H   0  0  0  0  0  0  0  0  0  0  0  0
   15.6833   -4.0767    2.8372 H   0  0  0  0  0  0  0  0  0  0  0  0
   18.4147   -3.7228    4.1596 H   0  0  0  0  0  0  0  0  0  0  0  0
   18.4973   -6.3049    3.0486 H   0  0  0  0  0  0  0  0  0  0  0  0
   19.5993   -5.4342    4.2507 H   0  0  0  0  0  0  0  0  0  0  0  0
   17.9573   -5.9913    4.7383 H   0  0  0  0  0  0  0  0  0  0  0  0
   18.3819   -2.6900    1.9901 H   0  0  0  0  0  0  0  0  0  0  0  0
   19.8071   -3.4541    2.6030 H   0  0  0  0  0  0  0  0  0  0  0  0
   18.7147   -4.3157    1.4138 H   0  0  0  0  0  0  0  0  0  0  0  0
   17.3743   -2.8538    4.8589 H   0  0  0  0  0  0  0  0  0  0  0  0
   17.2147   -2.8536    6.4519 H   0  0  0  0  0  0  0  0  0  0  0  0
   17.8623   -4.3561    5.7044 H   0  0  0  0  0  0  0  0  0  0  0  0
  1 73  1  0  0  0  0
  2 93  1  0  0  0  0
  3 42  1  0  0  0  0
  3 43  1  0  0  0  0
  5131  1  0  0  0  0
  6 50  1  0  0  0  0
  6 51  1  0  0  0  0
  7 53  1  0  0  0  0
  7 56  1  0  0  0  0
  9132  1  0  0  0  0
 10 62  1  0  0  0  0
 11133  1  0  0  0  0
 12134  1  0  0  0  0
 13 58  1  0  0  0  0
 13135  1  0  0  0  0
 14 64  1  0  0  0  0
 14 71  1  0  0  0  0
 15 65  1  0  0  0  0
 15 84  1  0  0  0  0
 16 63  2  0  0  0  0
 17 68  2  0  0  0  0
 18 78  2  0  0  0  0
 19 85  1  0  0  0  0
 19136  1  0  0  0  0
 20 85  2  0  0  0  0
 21 89  1  0  0  0  0
 21137  1  0  0  0  0
 22 87  2  0  0  0  0
 23 92  1  0  0  0  0
 23138  1  0  0  0  0
 24 95  1  0  0  0  0
 24139  1  0  0  0  0
 25140  1  0  0  0  0
 26103  2  0  0  0  0
 27106  2  0  0  0  0
 28108  2  0  0  0  0
 29112  1  0  0  0  0
 29113  1  0  0  0  0
 29114  1  0  0  0  0
 30115  1  0  0  0  0
 30116  1  0  0  0  0
 30117  1  0  0  0  0
 31 60  1  0  0  0  0
 31 68  1  0  0  0  0
 31119  1  0  0  0  0
 32 63  1  0  0  0  0
 32 77  1  0  0  0  0
 32120  1  0  0  0  0
 33 75  1  0  0  0  0
 33 78  1  0  0  0  0
 33123  1  0  0  0  0
 34 76  1  0  0  0  0
 34 87  1  0  0  0  0
 34124  1  0  0  0  0
 35 90  1  0  0  0  0
 35103  1  0  0  0  0
 35125  1  0  0  0  0
 36106  1  0  0  0  0
 36126  1  0  0  0  0
 37111  1  0  0  0  0
 37127  1  0  0  0  0
 37128  1  0  0  0  0
 38108  1  0  0  0  0
 38129  1  0  0  0  0
 38130  1  0  0  0  0
 39 29  1  0  0  0  0
 39 40  1  0  0  0  0
 39 41  1  0  0  0  0
 39 45  1  6  0  0  0
 40 43  1  0  0  0  0
 40141  1  1  0  0  0
 40  5  1  0  0  0  0
 41 42  1  0  0  0  0
 41142  1  0  0  0  0
 41143  1  0  0  0  0
 42  4  1  0  0  0  0
 42144  1  1  0  0  0
 43145  1  6  0  0  0
 43 52  1  0  0  0  0
 44 46  1  0  0  0  0
 44 48  1  0  0  0  0
 44 55  1  6  0  0  0
 44 30  1  0  0  0  0
 45146  1  0  0  0  0
 45147  1  0  0  0  0
 45148  1  0  0  0  0
 46  9  1  0  0  0  0
 46 50  1  0  0  0  0
 46149  1  6  0  0  0
 47  4  1  0  0  0  0
 47 49  1  0  0  0  0
 47 53  1  0  0  0  0
 47150  1  6  0  0  0
 48 51  1  0  0  0  0
 48151  1  0  0  0  0
 48152  1  0  0  0  0
 49 54  1  0  0  0  0
 49153  1  6  0  0  0
 49 11  1  0  0  0  0
 50154  1  6  0  0  0
 50 57  1  0  0  0  0
 51  8  1  0  0  0  0
 51155  1  1  0  0  0
 52156  1  0  0  0  0
 52157  1  0  0  0  0
 52158  1  0  0  0  0
 53 10  1  0  0  0  0
 53159  1  1  0  0  0
 54 12  1  0  0  0  0
 54 56  1  0  0  0  0
 54160  1  6  0  0  0
 55161  1  0  0  0  0
 55162  1  0  0  0  0
 55163  1  0  0  0  0
 56 58  1  0  0  0  0
 56164  1  1  0  0  0
 57165  1  0  0  0  0
 57166  1  0  0  0  0
 57167  1  0  0  0  0
 58168  1  0  0  0  0
 58169  1  0  0  0  0
 59  8  1  0  0  0  0
 59 60  1  0  0  0  0
 59 61  1  0  0  0  0
 59170  1  1  0  0  0
 60 63  1  0  0  0  0
 60118  1  1  0  0  0
 61 66  2  0  0  0  0
 61 67  1  0  0  0  0
 62 64  1  0  0  0  0
 62 65  2  0  0  0  0
 64 69  2  0  0  0  0
 65 72  1  0  0  0  0
 66 73  1  0  0  0  0
 66171  1  0  0  0  0
 67 74  2  0  0  0  0
 67172  1  0  0  0  0
 68 75  1  0  0  0  0
 69 70  1  0  0  0  0
 69173  1  0  0  0  0
 70 72  2  0  0  0  0
 70 76  1  0  0  0  0
 71 73  2  0  0  0  0
 71 74  1  0  0  0  0
 72174  1  0  0  0  0
 74175  1  0  0  0  0
 75 79  1  0  0  0  0
 75121  1  1  0  0  0
 76 78  1  0  0  0  0
 76122  1  6  0  0  0
 77 80  1  0  0  0  0
 77 85  1  0  0  0  0
 77176  1  1  0  0  0
 79 82  2  0  0  0  0
 79 86  1  0  0  0  0
 80 81  2  0  0  0  0
 80 88  1  0  0  0  0
 81 83  1  0  0  0  0
 81 92  1  0  0  0  0
 82 83  1  0  0  0  0
 82177  1  0  0  0  0
 83 89  2  0  0  0  0
 84 93  2  0  0  0  0
 84 94  1  0  0  0  0
 86 91  2  0  0  0  0
 86178  1  0  0  0  0
 87 90  1  0  0  0  0
 88 95  2  0  0  0  0
 88179  1  0  0  0  0
 89 91  1  0  0  0  0
 90180  1  6  0  0  0
 90102  1  0  0  0  0
 91181  1  0  0  0  0
 92 99  2  0  0  0  0
 93100  1  0  0  0  0
 94101  2  0  0  0  0
 94182  1  0  0  0  0
 95 99  1  0  0  0  0
 96 98  1  0  0  0  0
 96100  2  0  0  0  0
 96101  1  0  0  0  0
 97 36  1  0  0  0  0
 97 98  1  0  0  0  0
 97103  1  0  0  0  0
 97183  1  1  0  0  0
 98 25  1  0  0  0  0
 98184  1  6  0  0  0
 99185  1  0  0  0  0
100186  1  0  0  0  0
101187  1  0  0  0  0
102108  1  0  0  0  0
102188  1  0  0  0  0
102189  1  0  0  0  0
104106  1  0  0  0  0
104190  1  1  0  0  0
104105  1  0  0  0  0
104 37  1  0  0  0  0
105107  1  0  0  0  0
105191  1  0  0  0  0
105192  1  0  0  0  0
107109  1  0  0  0  0
107110  1  0  0  0  0
107193  1  0  0  0  0
109194  1  0  0  0  0
109195  1  0  0  0  0
109196  1  0  0  0  0
110197  1  0  0  0  0
110198  1  0  0  0  0
110199  1  0  0  0  0
111200  1  0  0  0  0
111201  1  0  0  0  0
111202  1  0  0  0  0
M  CHG  3  29   1  30   1  37   1
M  END
>  <DRUGBANK_ID>
DB04431

>  <SECONDARY_ACCESSION_NUMBERS>
EXPT03218

>  <COMMON_NAME>
4-epi-vancosaminyl derivative of vancomycin

$$$$
