
 OpenBabel10282417223D

 49 51  0  0  1  0  0  0  0  0999 V2000
   -2.2273   -0.0881   -0.6695 C   0  0  0  0  0  0  0  0  0  0  0  0
   -1.1882   -0.0350    0.4500 C   0  0  1  0  0  0  0  0  0  0  0  0
   -0.1450   -1.1694    0.5853 C   0  0  0  0  0  0  0  0  0  0  0  0
    0.9274   -1.1022   -0.4326 N   0  0  0  0  0  0  0  0  0  0  0  0
    1.6856    0.1811   -0.1990 C   0  0  0  0  0  0  0  0  0  0  0  0
    0.7380    1.3996   -0.3147 C   0  0  0  0  0  0  0  0  0  0  0  0
   -0.4778    1.2627    0.5290 N   0  0  0  0  0  0  0  0  0  0  0  0
   -0.8785    2.3388    1.3249 C   0  0  0  0  0  0  0  0  0  0  0  0
   -0.2978    3.4204    1.3364 O   0  0  0  0  0  0  0  0  0  0  0  0
   -2.0526    2.1813    2.2209 C   0  0  0  0  0  0  0  0  0  0  0  0
   -3.1530    3.0251    2.0401 C   0  0  0  0  0  0  0  0  0  0  0  0
   -4.2865    2.8522    2.8324 C   0  0  0  0  0  0  0  0  0  0  0  0
   -4.2790    1.8416    3.7782 C   0  0  0  0  0  0  0  0  0  0  0  0
   -3.2199    1.0340    4.0019 N   0  0  0  0  0  0  0  0  0  0  0  0
   -2.1030    1.2345    3.2515 C   0  0  0  0  0  0  0  0  0  0  0  0
   -0.9604    0.3172    3.5762 C   0  0  0  0  0  0  0  0  0  0  0  0
    0.6294   -1.4195   -2.0840 S   0  0  0  0  0  0  0  0  0  0  0  0
   -0.1071   -0.3253   -2.6918 O   0  0  0  0  0  0  0  0  0  0  0  0
    1.9088   -1.7466   -2.6616 O   0  0  0  0  0  0  0  0  0  0  0  0
   -0.4066   -2.8836   -2.1679 C   0  0  0  0  0  0  0  0  0  0  0  0
   -1.5153   -3.1555   -1.3533 C   0  0  0  0  0  0  0  0  0  0  0  0
   -2.3094   -4.2867   -1.5220 C   0  0  0  0  0  0  0  0  0  0  0  0
   -1.9981   -5.1895   -2.5267 C   0  0  0  0  0  0  0  0  0  0  0  0
   -0.9132   -4.9105   -3.3724 C   0  0  0  0  0  0  0  0  0  0  0  0
   -0.0984   -3.7944   -3.1681 C   0  0  0  0  0  0  0  0  0  0  0  0
   -2.7525   -6.4839   -2.6496 C   0  0  0  0  0  0  0  0  0  0  0  0
   -3.3484   -6.6337   -3.8604 F   0  0  0  0  0  0  0  0  0  0  0  0
   -1.9303   -7.5561   -2.4881 F   0  0  0  0  0  0  0  0  0  0  0  0
   -3.7377   -6.6293   -1.7191 F   0  0  0  0  0  0  0  0  0  0  0  0
   -2.8858    0.7802   -0.6695 H   0  0  0  0  0  0  0  0  0  0  0  0
   -1.8190   -0.1178   -1.6606 H   0  0  0  0  0  0  0  0  0  0  0  0
   -2.8735   -0.9627   -0.5772 H   0  0  0  0  0  0  0  0  0  0  0  0
   -1.8327   -0.1490    1.3142 H   0  0  0  0  0  0  0  0  0  0  0  0
    0.3641   -1.0574    1.5557 H   0  0  0  0  0  0  0  0  0  0  0  0
   -0.5424   -2.1717    0.7111 H   0  0  0  0  0  0  0  0  0  0  0  0
    2.1093    0.1446    0.8160 H   0  0  0  0  0  0  0  0  0  0  0  0
    2.5403    0.2503   -0.8789 H   0  0  0  0  0  0  0  0  0  0  0  0
    1.2934    2.3075   -0.0601 H   0  0  0  0  0  0  0  0  0  0  0  0
    0.4005    1.5249   -1.3450 H   0  0  0  0  0  0  0  0  0  0  0  0
   -3.1299    3.8097    1.2875 H   0  0  0  0  0  0  0  0  0  0  0  0
   -5.1575    3.4881    2.7155 H   0  0  0  0  0  0  0  0  0  0  0  0
   -5.1448    1.6528    4.4078 H   0  0  0  0  0  0  0  0  0  0  0  0
   -0.6709    0.4088    4.6224 H   0  0  0  0  0  0  0  0  0  0  0  0
   -1.2617   -0.7203    3.3830 H   0  0  0  0  0  0  0  0  0  0  0  0
   -0.0713    0.5338    2.9821 H   0  0  0  0  0  0  0  0  0  0  0  0
   -1.8348   -2.5515   -0.5302 H   0  0  0  0  0  0  0  0  0  0  0  0
   -3.1559   -4.4546   -0.8532 H   0  0  0  0  0  0  0  0  0  0  0  0
   -0.6843   -5.5796   -4.1970 H   0  0  0  0  0  0  0  0  0  0  0  0
    0.7799   -3.6426   -3.7903 H   0  0  0  0  0  0  0  0  0  0  0  0
  1 30  1  0  0  0  0
  1 31  1  0  0  0  0
  1 32  1  0  0  0  0
  2  1  1  0  0  0  0
  2  3  1  0  0  0  0
  2  7  1  0  0  0  0
  2 33  1  1  0  0  0
  3  4  1  0  0  0  0
  3 34  1  0  0  0  0
  3 35  1  0  0  0  0
  4  5  1  0  0  0  0
  4 17  1  0  0  0  0
  5  6  1  0  0  0  0
  5 36  1  0  0  0  0
  5 37  1  0  0  0  0
  6  7  1  0  0  0  0
  6 38  1  0  0  0  0
  6 39  1  0  0  0  0
  7  8  1  0  0  0  0
  8  9  2  0  0  0  0
  8 10  1  0  0  0  0
 10 11  2  0  0  0  0
 10 15  1  0  0  0  0
 11 12  1  0  0  0  0
 11 40  1  0  0  0  0
 12 13  2  0  0  0  0
 12 41  1  0  0  0  0
 13 14  1  0  0  0  0
 13 42  1  0  0  0  0
 14 15  2  0  0  0  0
 15 16  1  0  0  0  0
 16 43  1  0  0  0  0
 16 44  1  0  0  0  0
 16 45  1  0  0  0  0
 17 18  2  0  0  0  0
 17 19  2  0  0  0  0
 17 20  1  0  0  0  0
 20 21  2  0  0  0  0
 20 25  1  0  0  0  0
 21 22  1  0  0  0  0
 21 46  1  0  0  0  0
 22 23  2  0  0  0  0
 22 47  1  0  0  0  0
 23 24  1  0  0  0  0
 23 26  1  0  0  0  0
 24 25  2  0  0  0  0
 24 48  1  0  0  0  0
 25 49  1  0  0  0  0
 26 27  1  0  0  0  0
 26 28  1  0  0  0  0
 26 29  1  0  0  0  0
M  END
>  <DRUGBANK_ID>
DB15229

>  <COMMON_NAME>
CNV-2197944

>  <CAS_NUMBER>
1204535-44-3

>  <UNII>
SSB9S6N20R

>  <SYNONYMS>
CNV2197944

$$$$
