1039
 OpenBabel10282417113D

 46 47  0  0  0  0  0  0  0  0999 V2000
   -2.1125   -0.0340   -0.0056 Cl  0  0  0  0  0  0  0  0  0  0  0  0
    6.7180    4.7014    0.4726 O   0  0  0  0  0  0  0  0  0  0  0  0
    8.3229    7.0306    0.1101 O   0  0  0  0  0  0  0  0  0  0  0  0
    7.4240    7.9710    1.9100 O   0  0  0  0  0  0  0  0  0  0  0  0
    4.5070   -1.0937   -0.0558 O   0  0  0  0  0  0  0  0  0  0  0  0
    6.5439    5.7546    1.4153 C   0  0  0  0  0  0  0  0  0  0  0  0
    5.1159    6.3219    1.3143 C   0  0  0  0  0  0  0  0  0  0  0  0
    6.9680    5.2538    2.8052 C   0  0  0  0  0  0  0  0  0  0  0  0
    7.4659    6.9940    1.1565 C   0  0  0  0  0  0  0  0  0  0  0  0
    8.5129    5.9997   -0.8811 C   0  0  0  0  0  0  0  0  0  0  0  0
    6.0405    3.5400    0.3958 C   0  0  0  0  0  0  0  0  0  0  0  0
    5.0853    3.1837    1.3221 C   0  0  0  0  0  0  0  0  0  0  0  0
    6.3250    2.6990   -0.6954 C   0  0  0  0  0  0  0  0  0  0  0  0
    4.6339    1.2047    0.0786 C   0  0  0  0  0  0  0  0  0  0  0  0
    9.1848    4.7646   -0.2437 C   0  0  0  0  0  0  0  0  0  0  0  0
    7.2574    5.8837   -1.7709 C   0  0  0  0  0  0  0  0  0  0  0  0
    4.3953    2.0104    1.1866 C   0  0  0  0  0  0  0  0  0  0  0  0
    5.5826    1.5400   -0.8843 C   0  0  0  0  0  0  0  0  0  0  0  0
    3.8761   -0.0347   -0.0215 C   0  0  0  0  0  0  0  0  0  0  0  0
    2.3920    0.0018   -0.0225 C   0  0  0  0  0  0  0  0  0  0  0  0
    1.6699    1.2080   -0.0489 C   0  0  0  0  0  0  0  0  0  0  0  0
    1.7068   -1.2139   -0.0058 C   0  0  0  0  0  0  0  0  0  0  0  0
    0.2781    1.1957   -0.0280 C   0  0  0  0  0  0  0  0  0  0  0  0
    0.3121   -1.2242   -0.0120 C   0  0  0  0  0  0  0  0  0  0  0  0
   -0.3948   -0.0213   -0.0136 C   0  0  0  0  0  0  0  0  0  0  0  0
    4.3299    5.5721    1.3899 H   0  0  0  0  0  0  0  0  0  0  0  0
    4.9212    7.0745    2.0816 H   0  0  0  0  0  0  0  0  0  0  0  0
    4.9574    6.7858    0.3323 H   0  0  0  0  0  0  0  0  0  0  0  0
    8.0374    5.0077    2.8065 H   0  0  0  0  0  0  0  0  0  0  0  0
    6.7839    5.9983    3.5821 H   0  0  0  0  0  0  0  0  0  0  0  0
    6.4802    4.3307    3.1141 H   0  0  0  0  0  0  0  0  0  0  0  0
    9.2784    6.3863   -1.5635 H   0  0  0  0  0  0  0  0  0  0  0  0
    4.8400    3.7978    2.1725 H   0  0  0  0  0  0  0  0  0  0  0  0
    7.1128    2.9325   -1.4098 H   0  0  0  0  0  0  0  0  0  0  0  0
    8.7575    4.4078    0.6959 H   0  0  0  0  0  0  0  0  0  0  0  0
    9.2250    3.9207   -0.9334 H   0  0  0  0  0  0  0  0  0  0  0  0
   10.1959    5.0212    0.0874 H   0  0  0  0  0  0  0  0  0  0  0  0
    7.1232    6.8053   -2.3467 H   0  0  0  0  0  0  0  0  0  0  0  0
    7.3146    5.0333   -2.4513 H   0  0  0  0  0  0  0  0  0  0  0  0
    6.2996    5.8319   -1.2494 H   0  0  0  0  0  0  0  0  0  0  0  0
    3.6537    1.7701    1.9391 H   0  0  0  0  0  0  0  0  0  0  0  0
    5.7336    0.9157   -1.7622 H   0  0  0  0  0  0  0  0  0  0  0  0
    2.1603    2.1769   -0.0833 H   0  0  0  0  0  0  0  0  0  0  0  0
    2.2595   -2.1520    0.0051 H   0  0  0  0  0  0  0  0  0  0  0  0
   -0.2658    2.1366   -0.0324 H   0  0  0  0  0  0  0  0  0  0  0  0
   -0.2138   -2.1741   -0.0185 H   0  0  0  0  0  0  0  0  0  0  0  0
  1 25  1  0  0  0  0
  2  6  1  0  0  0  0
  2 11  1  0  0  0  0
  3  9  1  0  0  0  0
  3 10  1  0  0  0  0
  4  9  2  0  0  0  0
  5 19  2  0  0  0  0
  6  7  1  0  0  0  0
  6  8  1  0  0  0  0
  6  9  1  0  0  0  0
  7 26  1  0  0  0  0
  7 27  1  0  0  0  0
  7 28  1  0  0  0  0
  8 29  1  0  0  0  0
  8 30  1  0  0  0  0
  8 31  1  0  0  0  0
 10 15  1  0  0  0  0
 10 16  1  0  0  0  0
 10 32  1  0  0  0  0
 11 12  2  0  0  0  0
 11 13  1  0  0  0  0
 12 17  1  0  0  0  0
 12 33  1  0  0  0  0
 13 18  2  0  0  0  0
 13 34  1  0  0  0  0
 14 17  2  0  0  0  0
 14 18  1  0  0  0  0
 14 19  1  0  0  0  0
 15 35  1  0  0  0  0
 15 36  1  0  0  0  0
 15 37  1  0  0  0  0
 16 38  1  0  0  0  0
 16 39  1  0  0  0  0
 16 40  1  0  0  0  0
 17 41  1  0  0  0  0
 18 42  1  0  0  0  0
 19 20  1  0  0  0  0
 20 21  2  0  0  0  0
 20 22  1  0  0  0  0
 21 23  1  0  0  0  0
 21 43  1  0  0  0  0
 22 24  2  0  0  0  0
 22 44  1  0  0  0  0
 23 25  2  0  0  0  0
 23 45  1  0  0  0  0
 24 25  1  0  0  0  0
 24 46  1  0  0  0  0
M  END
>  <DRUGBANK_ID>
DB01039

>  <SECONDARY_ACCESSION_NUMBERS>
APRD00405; DB09545

>  <COMMON_NAME>
Fenofibrate

>  <CAS_NUMBER>
49562-28-9

>  <UNII>
U202363UOS

>  <SYNONYMS>
2-(4-(4-Chlorobenzoyl)phenoxy)-2-methylpropanoic acid 1-methylethyl ester; Fenofibrate; Fenofibrato; Fenofibratum; Finofibrate; FNF; Isopropyl (4'-(p-chlorobenzoyl)-2-phenoxy-2-methyl)propionate; Isopropyl 2-(4-(4-chlorobenzoyl)phenoxy)-2-methylpropionate; Procetofen

$$$$
