
 OpenBabel10282417123D

104107  0  0  0  0  0  0  0  0999 V2000
   -2.1600   -1.5491   -3.0473 P   0  0  3  0  0  0  0  0  0  0  0  0
    0.0798   -0.8734    0.4129 O   0  0  0  0  0  0  0  0  0  0  0  0
   -3.3038   -1.3186   -1.9529 O   0  0  0  0  0  0  0  0  0  0  0  0
   -5.0330    2.0879    0.6285 O   0  0  0  0  0  0  0  0  0  0  0  0
    0.0839   -4.5981   -5.1582 O   0  0  0  0  0  0  0  0  0  0  0  0
   -0.8987   -2.3975   -2.9991 O   0  0  0  0  0  0  0  0  0  0  0  0
   -4.3782   -6.3630   -6.7524 O   0  0  0  0  0  0  0  0  0  0  0  0
   -4.6356    0.2059   -0.3899 O   0  0  0  0  0  0  0  0  0  0  0  0
   -4.5124   -1.4836   -7.0918 O   0  0  0  0  0  0  0  0  0  0  0  0
   -2.4323   -5.8945   -7.6494 O   0  0  0  0  0  0  0  0  0  0  0  0
   -1.4094    0.7295    1.1629 N   0  0  0  0  0  0  0  0  0  0  0  0
   -2.7582   -6.7592   -5.4914 N   0  0  0  0  0  0  0  0  0  0  0  0
   -0.8787   -0.5503   -2.3199 N   0  0  0  0  0  0  0  0  0  0  0  0
   -1.8532   -3.8397   -6.1727 N   0  0  0  0  0  0  0  0  0  0  0  0
   -3.8690   -1.7623   -4.9535 N   0  0  0  0  0  0  0  0  0  0  0  0
   -6.4426   -8.4424   -7.8445 N   0  3  0  0  0  0  0  0  0  0  0  0
   -2.8961    0.9613    1.4471 C   0  0  1  0  0  0  0  0  0  0  0  0
   -1.7352   -6.0966   -4.8783 C   0  0  1  0  0  0  0  0  0  0  0  0
   -2.6937    2.2878    2.2267 C   0  0  0  0  0  0  0  0  0  0  0  0
   -1.4931    2.0560    3.1312 C   0  0  0  0  0  0  0  0  0  0  0  0
   -0.6118    1.1067    2.3403 C   0  0  0  0  0  0  0  0  0  0  0  0
   -1.2238   -7.2115   -4.0122 C   0  0  0  0  0  0  0  0  0  0  0  0
   -2.5010   -8.0302   -3.5751 C   0  0  0  0  0  0  0  0  0  0  0  0
   -3.5033   -7.3368   -4.3913 C   0  0  0  0  0  0  0  0  0  0  0  0
   -0.7766   -0.0250    0.1573 C   0  0  0  0  0  0  0  0  0  0  0  0
   -1.0021    0.4897   -1.3128 C   0  0  2  0  0  0  0  0  0  0  0  0
   -1.0705   -4.8559   -5.5141 C   0  0  0  0  0  0  0  0  0  0  0  0
   -3.4076   -3.5347   -6.5233 C   0  0  1  0  0  0  0  0  0  0  0  0
   -3.4773   -2.5759   -3.7951 C   0  0  1  0  0  0  0  0  0  0  0  0
   -4.2519    1.0057    0.4606 C   0  0  0  0  0  0  0  0  0  0  0  0
   -4.6255   -4.2495   -5.7365 C   0  0  0  0  0  0  0  0  0  0  0  0
   -3.8718   -2.1280   -6.2633 C   0  0  0  0  0  0  0  0  0  0  0  0
   -2.6963   -3.7573   -3.5746 C   0  0  0  0  0  0  0  0  0  0  0  0
   -3.0915   -6.3975   -6.6954 C   0  0  0  0  0  0  0  0  0  0  0  0
   -5.9783   -4.6009   -6.3974 C   0  0  0  0  0  0  0  0  0  0  0  0
   -2.3807    0.9335   -1.4166 C   0  0  0  0  0  0  0  0  0  0  0  0
   -6.0439   -5.3148   -7.9607 C   0  0  0  0  0  0  0  0  0  0  0  0
   -2.5143   -4.4217   -2.2133 C   0  0  0  0  0  0  0  0  0  0  0  0
   -5.6552   -6.9732   -8.5826 C   0  0  0  0  0  0  0  0  0  0  0  0
   -2.8851   -5.7088   -1.9518 C   0  0  0  0  0  0  0  0  0  0  0  0
   -1.6565   -3.9266   -1.2597 C   0  0  0  0  0  0  0  0  0  0  0  0
   -5.1506   -7.3747   -6.1976 C   0  0  0  0  0  0  0  0  0  0  0  0
   -5.6865    2.0018    1.8715 C   0  0  0  0  0  0  0  0  0  0  0  0
   -2.0457   -6.5576   -1.1988 C   0  0  0  0  0  0  0  0  0  0  0  0
   -0.7515   -4.7264   -0.5895 C   0  0  0  0  0  0  0  0  0  0  0  0
   -4.3618   -8.7989   -6.6202 C   0  0  0  0  0  0  0  0  0  0  0  0
   -0.9415   -6.0742   -0.5550 C   0  0  0  0  0  0  0  0  0  0  0  0
   -4.3991   -9.7895   -5.6219 C   0  0  0  0  0  0  0  0  0  0  0  0
   -3.5545   -9.0484   -7.7770 C   0  0  0  0  0  0  0  0  0  0  0  0
   -3.3609  -10.6903   -5.5501 C   0  0  0  0  0  0  0  0  0  0  0  0
   -2.7891  -10.1983   -7.8318 C   0  0  0  0  0  0  0  0  0  0  0  0
   -2.5845  -10.9235   -6.6699 C   0  0  0  0  0  0  0  0  0  0  0  0
   -0.1761   -1.2305   -2.0158 H   0  0  0  0  0  0  0  0  0  0  0  0
   -1.1991   -3.1255   -6.5032 H   0  0  0  0  0  0  0  0  0  0  0  0
   -4.4662   -0.9511   -4.7929 H   0  0  0  0  0  0  0  0  0  0  0  0
   -7.4433   -8.3647   -7.6833 H   0  0  0  0  0  0  0  0  0  0  0  0
   -6.0170   -9.3537   -8.1325 H   0  0  0  0  0  0  0  0  0  0  0  0
   -6.3045   -8.7221   -6.8400 H   0  0  0  0  0  0  0  0  0  0  0  0
   -3.9521   -0.6274   -2.2779 H   0  0  0  0  0  0  0  0  0  0  0  0
   -3.1683    0.1782    2.1686 H   0  0  0  0  0  0  0  0  0  0  0  0
   -2.3488   -5.6467   -4.1658 H   0  0  0  0  0  0  0  0  0  0  0  0
   -2.4959    3.1107    1.5251 H   0  0  0  0  0  0  0  0  0  0  0  0
   -3.5019    2.5794    2.8824 H   0  0  0  0  0  0  0  0  0  0  0  0
   -0.9976    2.9951    3.4041 H   0  0  0  0  0  0  0  0  0  0  0  0
   -1.8302    1.5937    4.0678 H   0  0  0  0  0  0  0  0  0  0  0  0
    0.3119    1.6004    2.0192 H   0  0  0  0  0  0  0  0  0  0  0  0
   -0.3433    0.2364    2.9514 H   0  0  0  0  0  0  0  0  0  0  0  0
   -0.6453   -7.8042   -4.7081 H   0  0  0  0  0  0  0  0  0  0  0  0
   -0.6126   -6.8473   -3.2026 H   0  0  0  0  0  0  0  0  0  0  0  0
   -2.3775   -9.0883   -3.7807 H   0  0  0  0  0  0  0  0  0  0  0  0
   -3.0634   -8.0761   -2.6375 H   0  0  0  0  0  0  0  0  0  0  0  0
   -3.9650   -8.1409   -4.7650 H   0  0  0  0  0  0  0  0  0  0  0  0
   -4.4309   -6.8889   -3.9639 H   0  0  0  0  0  0  0  0  0  0  0  0
   -0.3965    1.3729   -1.5240 H   0  0  0  0  0  0  0  0  0  0  0  0
   -3.4533   -3.6548   -7.6065 H   0  0  0  0  0  0  0  0  0  0  0  0
   -4.3876   -2.6950   -3.1881 H   0  0  0  0  0  0  0  0  0  0  0  0
   -4.1804   -5.1131   -5.3395 H   0  0  0  0  0  0  0  0  0  0  0  0
   -4.9319   -3.9662   -4.7070 H   0  0  0  0  0  0  0  0  0  0  0  0
   -3.1788   -4.3380   -4.2612 H   0  0  0  0  0  0  0  0  0  0  0  0
   -1.7721   -3.5574   -4.0898 H   0  0  0  0  0  0  0  0  0  0  0  0
   -6.4754   -5.2342   -5.6399 H   0  0  0  0  0  0  0  0  0  0  0  0
   -6.5555   -3.6622   -6.3286 H   0  0  0  0  0  0  0  0  0  0  0  0
   -2.5636    1.8539   -0.8876 H   0  0  0  0  0  0  0  0  0  0  0  0
   -2.8120    1.0103   -2.4126 H   0  0  0  0  0  0  0  0  0  0  0  0
   -2.7648    0.0976   -0.8472 H   0  0  0  0  0  0  0  0  0  0  0  0
   -7.0761   -5.2012   -8.2500 H   0  0  0  0  0  0  0  0  0  0  0  0
   -5.3702   -4.6368   -8.5209 H   0  0  0  0  0  0  0  0  0  0  0  0
   -5.6981   -7.1759   -9.6467 H   0  0  0  0  0  0  0  0  0  0  0  0
   -4.5629   -7.0652   -8.5106 H   0  0  0  0  0  0  0  0  0  0  0  0
   -3.7179   -6.0844   -2.5049 H   0  0  0  0  0  0  0  0  0  0  0  0
   -1.5480   -2.8715   -1.0960 H   0  0  0  0  0  0  0  0  0  0  0  0
   -5.6859   -7.2972   -5.2261 H   0  0  0  0  0  0  0  0  0  0  0  0
   -6.1332   -7.0530   -6.5790 H   0  0  0  0  0  0  0  0  0  0  0  0
   -5.5257    1.0384    2.3802 H   0  0  0  0  0  0  0  0  0  0  0  0
   -5.2850    2.8271    2.4421 H   0  0  0  0  0  0  0  0  0  0  0  0
   -6.7495    2.1699    1.7319 H   0  0  0  0  0  0  0  0  0  0  0  0
   -2.0734   -7.6424   -1.2426 H   0  0  0  0  0  0  0  0  0  0  0  0
    0.0944   -4.2459   -0.1242 H   0  0  0  0  0  0  0  0  0  0  0  0
   -0.2958   -6.7466   -0.0126 H   0  0  0  0  0  0  0  0  0  0  0  0
   -4.9650   -9.6089   -4.7013 H   0  0  0  0  0  0  0  0  0  0  0  0
   -3.4306   -8.4392   -8.6779 H   0  0  0  0  0  0  0  0  0  0  0  0
   -3.1406  -11.1543   -4.5918 H   0  0  0  0  0  0  0  0  0  0  0  0
   -2.3109  -10.4895   -8.7632 H   0  0  0  0  0  0  0  0  0  0  0  0
   -1.8213  -11.6891   -6.6373 H   0  0  0  0  0  0  0  0  0  0  0  0
  1  3  1  0  0  0  0
  1  6  2  0  0  0  0
  1 13  1  0  0  0  0
  1 29  1  0  0  0  0
  2 25  2  0  0  0  0
  3 59  1  0  0  0  0
  4 30  1  0  0  0  0
  4 43  1  0  0  0  0
  5 27  2  0  0  0  0
  7 34  1  0  0  0  0
  7 42  1  0  0  0  0
  8 30  2  0  0  0  0
  9 32  2  0  0  0  0
 10 34  2  0  0  0  0
 11 17  1  0  0  0  0
 11 21  1  0  0  0  0
 11 25  1  0  0  0  0
 12 18  1  0  0  0  0
 12 24  1  0  0  0  0
 12 34  1  0  0  0  0
 13 53  1  0  0  0  0
 14 27  1  0  0  0  0
 14 54  1  0  0  0  0
 15 32  1  0  0  0  0
 15 55  1  0  0  0  0
 16 39  1  0  0  0  0
 16 56  1  0  0  0  0
 16 57  1  0  0  0  0
 16 58  1  0  0  0  0
 17 19  1  0  0  0  0
 17 60  1  1  0  0  0
 17 30  1  0  0  0  0
 18 22  1  0  0  0  0
 18 27  1  0  0  0  0
 18 61  1  1  0  0  0
 19 20  1  0  0  0  0
 19 62  1  0  0  0  0
 19 63  1  0  0  0  0
 20 21  1  0  0  0  0
 20 64  1  0  0  0  0
 20 65  1  0  0  0  0
 21 66  1  0  0  0  0
 21 67  1  0  0  0  0
 22 23  1  0  0  0  0
 22 68  1  0  0  0  0
 22 69  1  0  0  0  0
 23 24  1  0  0  0  0
 23 70  1  0  0  0  0
 23 71  1  0  0  0  0
 24 72  1  0  0  0  0
 24 73  1  0  0  0  0
 26 36  1  0  0  0  0
 26 74  1  6  0  0  0
 26 25  1  0  0  0  0
 26 13  1  0  0  0  0
 28 14  1  0  0  0  0
 28 31  1  0  0  0  0
 28 32  1  0  0  0  0
 28 75  1  6  0  0  0
 29 15  1  0  0  0  0
 29 33  1  0  0  0  0
 29 76  1  1  0  0  0
 31 35  1  0  0  0  0
 31 77  1  0  0  0  0
 31 78  1  0  0  0  0
 33 38  1  0  0  0  0
 33 79  1  0  0  0  0
 33 80  1  0  0  0  0
 35 37  1  0  0  0  0
 35 81  1  0  0  0  0
 35 82  1  0  0  0  0
 36 83  1  0  0  0  0
 36 84  1  0  0  0  0
 36 85  1  0  0  0  0
 37 39  1  0  0  0  0
 37 86  1  0  0  0  0
 37 87  1  0  0  0  0
 38 40  2  0  0  0  0
 38 41  1  0  0  0  0
 39 88  1  0  0  0  0
 39 89  1  0  0  0  0
 40 44  1  0  0  0  0
 40 90  1  0  0  0  0
 41 45  2  0  0  0  0
 41 91  1  0  0  0  0
 42 46  1  0  0  0  0
 42 92  1  0  0  0  0
 42 93  1  0  0  0  0
 43 94  1  0  0  0  0
 43 95  1  0  0  0  0
 43 96  1  0  0  0  0
 44 47  2  0  0  0  0
 44 97  1  0  0  0  0
 45 47  1  0  0  0  0
 45 98  1  0  0  0  0
 46 48  2  0  0  0  0
 46 49  1  0  0  0  0
 47 99  1  0  0  0  0
 48 50  1  0  0  0  0
 48100  1  0  0  0  0
 49 51  2  0  0  0  0
 49101  1  0  0  0  0
 50 52  2  0  0  0  0
 50102  1  0  0  0  0
 51 52  1  0  0  0  0
 51103  1  0  0  0  0
 52104  1  0  0  0  0
M  CHG  1  16   1
M  END
>  <DRUGBANK_ID>
DB01989

>  <SECONDARY_ACCESSION_NUMBERS>
EXPT02604

>  <COMMON_NAME>
Methyl N-{[(1R)-1-({1-[(benzyloxy)carbonyl]-L-prolyl-6-ammonio-L-norleucyl}amino)-2-phenylethyl](hydroxy)phosphoryl}-L-alanyl-L-prolinate

>  <SYNONYMS>
Carbobenzoxy-Pro-Lys-Phe-Y(Po2)-Ala-Pro-Ome

$$$$
