AT2
 OpenBabel10282417163D

 40 41  0  0  0  0  0  0  0  0999 V2000
   -2.5003   -0.0571   -0.0848 C   0  0  0  0  0  0  0  0  0  0  0  0
   -1.0065   -0.1094   -0.1824 C   0  0  0  0  0  0  0  0  0  0  0  0
   -0.2682   -1.2555    0.0339 C   0  0  0  0  0  0  0  0  0  0  0  0
    1.1170   -1.1357    0.0205 C   0  0  0  0  0  0  0  0  0  0  0  0
    1.0615    1.1512   -0.3680 C   0  0  0  0  0  0  0  0  0  0  0  0
   -0.3042    1.0478   -0.5066 C   0  0  0  0  0  0  0  0  0  0  0  0
    1.1064    3.6284    0.1936 C   0  0  0  0  0  0  0  0  0  0  0  0
    0.5077    3.2591    1.5544 C   0  0  0  0  0  0  0  0  0  0  0  0
   -1.0201    3.1405    1.5611 C   0  0  0  0  0  0  0  0  0  0  0  0
    1.7960    0.0493   -0.1068 N   0  0  0  0  0  0  0  0  0  0  0  0
    1.6542    2.4263   -0.5307 N   0  0  0  0  0  0  0  0  0  0  0  0
   -1.6448    4.3209    1.0163 N   0  0  0  0  0  0  0  0  0  0  0  0
   -1.2587    4.6652   -0.3544 C   0  0  0  0  0  0  0  0  0  0  0  0
    0.2681    4.7652   -0.4628 C   0  0  0  0  0  0  0  0  0  0  0  0
   -2.6131    4.9173    1.8105 C   0  0  0  0  0  0  0  0  0  0  0  0
   -2.8953    4.4999    2.9165 O   0  0  0  0  0  0  0  0  0  0  0  0
   -3.1930    6.0176    1.2494 O   0  0  0  0  0  0  0  0  0  0  0  0
   -4.1364    6.6910    2.1093 C   0  0  0  0  0  0  0  0  0  0  0  0
   -5.3906    5.8629    2.3563 C   0  0  0  0  0  0  0  0  0  0  0  0
   -2.8261    0.4739    0.8204 H   0  0  0  0  0  0  0  0  0  0  0  0
   -2.9047    0.4696   -0.9541 H   0  0  0  0  0  0  0  0  0  0  0  0
   -2.9330   -1.0587   -0.0533 H   0  0  0  0  0  0  0  0  0  0  0  0
   -0.7576   -2.2167    0.1503 H   0  0  0  0  0  0  0  0  0  0  0  0
    1.7283   -2.0351    0.0870 H   0  0  0  0  0  0  0  0  0  0  0  0
   -0.8271    1.9347   -0.8158 H   0  0  0  0  0  0  0  0  0  0  0  0
    2.0495    4.1771    0.3249 H   0  0  0  0  0  0  0  0  0  0  0  0
    0.9472    2.3361    1.9410 H   0  0  0  0  0  0  0  0  0  0  0  0
    0.7832    4.0530    2.2562 H   0  0  0  0  0  0  0  0  0  0  0  0
   -1.4587    2.3393    0.9825 H   0  0  0  0  0  0  0  0  0  0  0  0
   -1.3499    2.8930    2.5723 H   0  0  0  0  0  0  0  0  0  0  0  0
    2.6178    2.2480   -0.2172 H   0  0  0  0  0  0  0  0  0  0  0  0
   -1.7358    5.6051   -0.6580 H   0  0  0  0  0  0  0  0  0  0  0  0
   -1.6204    3.8946   -1.0427 H   0  0  0  0  0  0  0  0  0  0  0  0
    0.4964    5.6526    0.1580 H   0  0  0  0  0  0  0  0  0  0  0  0
    0.5864    5.0463   -1.4719 H   0  0  0  0  0  0  0  0  0  0  0  0
   -3.6539    6.9804    3.0521 H   0  0  0  0  0  0  0  0  0  0  0  0
   -4.4213    7.6197    1.6026 H   0  0  0  0  0  0  0  0  0  0  0  0
   -5.1721    4.9293    2.8819 H   0  0  0  0  0  0  0  0  0  0  0  0
   -6.1109    6.4150    2.9662 H   0  0  0  0  0  0  0  0  0  0  0  0
   -5.8556    5.5849    1.4066 H   0  0  0  0  0  0  0  0  0  0  0  0
  1  2  1  0  0  0  0
  1 20  1  0  0  0  0
  1 21  1  0  0  0  0
  1 22  1  0  0  0  0
  2  3  1  0  0  0  0
  2  6  2  0  0  0  0
  3  4  2  0  0  0  0
  3 23  1  0  0  0  0
  4 10  1  0  0  0  0
  4 24  1  0  0  0  0
  5  6  1  0  0  0  0
  5 10  2  0  0  0  0
  5 11  1  0  0  0  0
  6 25  1  0  0  0  0
  7  8  1  0  0  0  0
  7 11  1  0  0  0  0
  7 14  1  0  0  0  0
  7 26  1  0  0  0  0
  8  9  1  0  0  0  0
  8 27  1  0  0  0  0
  8 28  1  0  0  0  0
  9 12  1  0  0  0  0
  9 29  1  0  0  0  0
  9 30  1  0  0  0  0
 11 31  1  0  0  0  0
 12 13  1  0  0  0  0
 12 15  1  0  0  0  0
 13 14  1  0  0  0  0
 13 32  1  0  0  0  0
 13 33  1  0  0  0  0
 14 34  1  0  0  0  0
 14 35  1  0  0  0  0
 15 16  2  0  0  0  0
 15 17  1  0  0  0  0
 17 18  1  0  0  0  0
 18 19  1  0  0  0  0
 18 36  1  0  0  0  0
 18 37  1  0  0  0  0
 19 38  1  0  0  0  0
 19 39  1  0  0  0  0
 19 40  1  0  0  0  0
M  END
>  <DRUGBANK_ID>
DB07388

>  <COMMON_NAME>
ETHYL 4-[(4-METHYLPYRIDIN-2-YL)AMINO]PIPERIDINE-1-CARBOXYLATE

$$$$
