MVB
 OpenBabel10282417173D

 48 50  0  0  0  0  0  0  0  0999 V2000
   -1.7572   -1.2281   -0.7065 O   0  0  0  0  0  0  0  0  0  0  0  0
    1.1682   -0.2802    0.1015 C   0  0  0  0  0  0  0  0  0  0  0  0
    2.3290   -0.6460   -0.1172 O   0  0  0  0  0  0  0  0  0  0  0  0
    0.8308    1.0084   -0.0550 O   0  0  0  0  0  0  0  0  0  0  0  0
   -5.0360    2.2718   -1.6052 O   0  0  0  0  0  0  0  0  0  0  0  0
   -0.5404    1.4106   -0.0728 C   0  0  2  0  0  0  0  0  0  0  0  0
   -1.4422    0.6516    0.8677 C   0  0  0  0  0  0  0  0  0  0  0  0
   -1.3013   -0.8222    0.5787 C   0  0  2  0  0  0  0  0  0  0  0  0
    0.1603   -1.1910    0.7503 C   0  0  0  0  0  0  0  0  0  0  0  0
   -0.6065    3.9807   -3.0282 C   0  0  0  0  0  0  0  0  0  0  0  0
   -1.0068    1.3581   -1.5215 C   0  0  0  0  0  0  0  0  0  0  0  0
   -2.3715    2.0051   -1.6954 C   0  0  0  0  0  0  0  0  0  0  0  0
   -2.4324    3.4918   -1.2859 C   0  0  1  0  0  0  0  0  0  0  0  0
   -1.0717    4.1951   -1.5807 C   0  0  2  0  0  0  0  0  0  0  0  0
   -1.1008    5.6632   -1.3199 C   0  0  0  0  0  0  0  0  0  0  0  0
   -2.2323    6.3703   -1.3428 C   0  0  0  0  0  0  0  0  0  0  0  0
   -3.5201    5.7440   -1.5759 C   0  0  0  0  0  0  0  0  0  0  0  0
   -3.5513    4.2717   -2.0207 C   0  0  2  0  0  0  0  0  0  0  0  0
   -4.9752    3.6339   -2.0102 C   0  0  2  0  0  0  0  0  0  0  0  0
   -5.9372    4.3703   -1.0980 C   0  0  0  0  0  0  0  0  0  0  0  0
   -5.9977    5.8344   -1.4797 C   0  0  0  0  0  0  0  0  0  0  0  0
   -4.6422    6.4500   -1.3686 C   0  0  0  0  0  0  0  0  0  0  0  0
   -0.5199    2.4260    0.3220 H   0  0  0  0  0  0  0  0  0  0  0  0
   -1.9226   -1.3748    1.2840 H   0  0  0  0  0  0  0  0  0  0  0  0
   -2.6480    3.5428   -0.2034 H   0  0  0  0  0  0  0  0  0  0  0  0
   -0.3056    3.8243   -0.8987 H   0  0  0  0  0  0  0  0  0  0  0  0
   -3.2703    4.2752   -3.0836 H   0  0  0  0  0  0  0  0  0  0  0  0
   -5.3567    3.6601   -3.0394 H   0  0  0  0  0  0  0  0  0  0  0  0
   -2.5942   -0.7804   -0.9279 H   0  0  0  0  0  0  0  0  0  0  0  0
   -4.7866    2.2536   -0.6648 H   0  0  0  0  0  0  0  0  0  0  0  0
   -2.4784    0.9948    0.7953 H   0  0  0  0  0  0  0  0  0  0  0  0
   -1.1257    0.8653    1.8955 H   0  0  0  0  0  0  0  0  0  0  0  0
    0.3922   -1.1496    1.8193 H   0  0  0  0  0  0  0  0  0  0  0  0
    0.3341   -2.1953    0.3606 H   0  0  0  0  0  0  0  0  0  0  0  0
   -0.7165    2.9638   -3.4079 H   0  0  0  0  0  0  0  0  0  0  0  0
   -1.1939    4.5747   -3.7270 H   0  0  0  0  0  0  0  0  0  0  0  0
    0.4519    4.2341   -3.1137 H   0  0  0  0  0  0  0  0  0  0  0  0
   -0.2048    1.7730   -2.1242 H   0  0  0  0  0  0  0  0  0  0  0  0
   -1.0522    0.3598   -1.9556 H   0  0  0  0  0  0  0  0  0  0  0  0
   -2.7280    1.8743   -2.7227 H   0  0  0  0  0  0  0  0  0  0  0  0
   -3.0635    1.4216   -1.0837 H   0  0  0  0  0  0  0  0  0  0  0  0
   -0.1454    6.1428   -1.1208 H   0  0  0  0  0  0  0  0  0  0  0  0
   -2.1787    7.4404   -1.1641 H   0  0  0  0  0  0  0  0  0  0  0  0
   -5.6055    4.2517   -0.0558 H   0  0  0  0  0  0  0  0  0  0  0  0
   -6.9265    3.9034   -1.1521 H   0  0  0  0  0  0  0  0  0  0  0  0
   -6.3615    5.9502   -2.5065 H   0  0  0  0  0  0  0  0  0  0  0  0
   -6.6935    6.3458   -0.8104 H   0  0  0  0  0  0  0  0  0  0  0  0
   -4.5940    7.4913   -1.0610 H   0  0  0  0  0  0  0  0  0  0  0  0
  1 29  1  0  0  0  0
  2  3  2  0  0  0  0
  2  4  1  0  0  0  0
  2  9  1  0  0  0  0
  4  6  1  0  0  0  0
  5 30  1  0  0  0  0
  6  7  1  0  0  0  0
  6 11  1  0  0  0  0
  6 23  1  1  0  0  0
  7  8  1  0  0  0  0
  7 31  1  0  0  0  0
  7 32  1  0  0  0  0
  8  1  1  0  0  0  0
  8  9  1  0  0  0  0
  8 24  1  1  0  0  0
  9 33  1  0  0  0  0
  9 34  1  0  0  0  0
 10 35  1  0  0  0  0
 10 36  1  0  0  0  0
 10 37  1  0  0  0  0
 11 12  1  0  0  0  0
 11 38  1  0  0  0  0
 11 39  1  0  0  0  0
 12 40  1  0  0  0  0
 12 41  1  0  0  0  0
 13 12  1  0  0  0  0
 13 14  1  0  0  0  0
 13 18  1  0  0  0  0
 13 25  1  1  0  0  0
 14 15  1  0  0  0  0
 14 26  1  1  0  0  0
 14 10  1  0  0  0  0
 15 16  2  0  0  0  0
 15 42  1  0  0  0  0
 16 17  1  0  0  0  0
 16 43  1  0  0  0  0
 17 18  1  0  0  0  0
 17 22  2  0  0  0  0
 18 19  1  0  0  0  0
 18 27  1  6  0  0  0
 19  5  1  0  0  0  0
 19 20  1  0  0  0  0
 19 28  1  6  0  0  0
 20 21  1  0  0  0  0
 20 44  1  0  0  0  0
 20 45  1  0  0  0  0
 21 22  1  0  0  0  0
 21 46  1  0  0  0  0
 21 47  1  0  0  0  0
 22 48  1  0  0  0  0
M  END
>  <DRUGBANK_ID>
DB08224

>  <COMMON_NAME>
(1S,7S,8S,8AR)-1,2,3,7,8,8A-HEXAHYDRO-7-METHYL-8-[2-[(2R,4R)-TETRAHYDRO-4-HY DROXY-6-OXO-2H-PYRAN-2-YL]ETHYL]-1-NAPHTHALENOL

$$$$
