
 OpenBabel10282417133D

 70 74  0  0  0  0  0  0  0  0999 V2000
   -0.6648   -0.6994    1.7488 C   0  0  0  0  0  0  0  0  0  0  0  0
   -0.6051    0.7215    1.7340 C   0  0  0  0  0  0  0  0  0  0  0  0
    0.3126   -1.4476    1.1613 N   0  0  0  0  0  0  0  0  0  0  0  0
    0.6020    1.4110    1.3044 N   0  0  0  0  0  0  0  0  0  0  0  0
    0.5734   -0.6185    0.0525 C   0  0  2  0  0  0  0  0  0  0  0  0
    1.2480    0.7172    0.2390 C   0  0  1  0  0  0  0  0  0  0  0  0
   -0.9353    2.2039   -2.7327 S   0  0  0  0  0  0  0  0  0  0  0  0
   -2.5067   -0.5654   -1.5167 S   0  0  0  0  0  0  0  0  0  0  0  0
   -1.7371   -2.4392    0.5720 O   0  0  0  0  0  0  0  0  0  0  0  0
   -3.7996    1.4331    0.4761 N   0  0  0  0  0  0  0  0  0  0  0  0
   -0.9548    0.0891   -0.9030 C   0  0  0  0  0  0  0  0  0  0  0  0
   -0.7508    0.5242   -2.1977 C   0  0  0  0  0  0  0  0  0  0  0  0
    0.4203   -0.2219   -2.2688 C   0  0  2  0  0  0  0  0  0  0  0  0
    0.8709    1.0988   -1.0772 O   0  0  0  0  0  0  0  0  0  0  0  0
   -1.8740   -1.4045    1.2625 C   0  0  0  0  0  0  0  0  0  0  0  0
   -1.7427    1.4315    1.4655 N   0  0  0  0  0  0  0  0  0  0  0  0
   -2.7974    0.7674    1.1103 C   0  0  0  0  0  0  0  0  0  0  0  0
   -2.9459   -0.6027    1.1647 N   0  0  0  0  0  0  0  0  0  0  0  0
    1.5102   -0.6335    0.6618 H   0  0  0  0  0  0  0  0  0  0  0  0
    2.3861    0.7827    0.4174 H   0  0  0  0  0  0  0  0  0  0  0  0
    2.7132   -1.7749   -3.1683 O   0  0  0  0  0  0  0  0  0  0  0  0
    3.2366    0.1098   -4.6120 O   0  0  0  0  0  0  0  0  0  0  0  0
    3.8296   -0.4647   -3.3416 P   0  0  3  0  0  0  0  0  0  0  0  0
    4.9460    0.8455   -3.5149 O   0  0  0  0  0  0  0  0  0  0  0  0
    3.9880   -0.3721   -1.6213 O   0  0  0  0  0  0  0  0  0  0  0  0
    3.6622   -1.3320    0.4557 O   0  0  0  0  0  0  0  0  0  0  0  0
    2.9882   -1.5765   -0.8845 P   0  0  3  0  0  0  0  0  0  0  0  0
    1.9885   -2.7809   -0.1478 O   0  0  0  0  0  0  0  0  0  0  0  0
    3.2779    4.3365   -1.1799 O   0  0  0  0  0  0  0  0  0  0  0  0
    5.0325    4.4073   -3.1937 O   0  0  0  0  0  0  0  0  0  0  0  0
    1.2463   -1.2584   -3.4224 C   0  0  0  0  0  0  0  0  0  0  0  0
    2.4577    1.0601   -2.3165 C   0  0  0  0  0  0  0  0  0  0  0  0
    2.1636   -0.3567   -1.4403 O   0  0  0  0  0  0  0  0  0  0  0  0
    6.6696    0.9037   -2.3912 N   0  0  0  0  0  0  0  0  0  0  0  0
    5.4899    2.1115   -1.8690 C   0  0  1  0  0  0  0  0  0  0  0  0
    3.1972    3.3447   -2.1950 C   0  0  1  0  0  0  0  0  0  0  0  0
    4.5036    3.1301   -2.9457 C   0  0  1  0  0  0  0  0  0  0  0  0
    4.4553    1.6654   -0.9598 O   0  0  0  0  0  0  0  0  0  0  0  0
    3.1661    2.0579   -1.4845 C   0  0  2  0  0  0  0  0  0  0  0  0
    7.2889    1.4204   -3.5947 C   0  0  0  0  0  0  0  0  0  0  0  0
    7.8130    0.5189   -4.5513 N   0  0  0  0  0  0  0  0  0  0  0  0
    7.5528   -0.7311   -4.5448 C   0  0  0  0  0  0  0  0  0  0  0  0
    6.7751   -1.3487   -3.4600 C   0  0  0  0  0  0  0  0  0  0  0  0
    6.5083   -0.5673   -2.3802 C   0  0  0  0  0  0  0  0  0  0  0  0
    7.2234    2.5793   -3.8262 O   0  0  0  0  0  0  0  0  0  0  0  0
    8.0196   -1.5442   -5.5590 N   0  0  0  0  0  0  0  0  0  0  0  0
    0.0630   -2.3224    0.6649 H   0  0  0  0  0  0  0  0  0  0  0  0
    0.4670    2.3429    0.9128 H   0  0  0  0  0  0  0  0  0  0  0  0
   -0.0871    2.1602   -3.7784 H   0  0  0  0  0  0  0  0  0  0  0  0
   -2.8441    0.7629   -1.5057 H   0  0  0  0  0  0  0  0  0  0  0  0
   -4.2331    0.9222   -0.2852 H   0  0  0  0  0  0  0  0  0  0  0  0
   -3.4973    2.3572    0.1742 H   0  0  0  0  0  0  0  0  0  0  0  0
    0.2294   -1.2113   -1.7356 H   0  0  0  0  0  0  0  0  0  0  0  0
   -3.5056   -0.9985    0.4188 H   0  0  0  0  0  0  0  0  0  0  0  0
    4.6356    1.1883   -4.3882 H   0  0  0  0  0  0  0  0  0  0  0  0
    2.0542   -2.6078    0.8246 H   0  0  0  0  0  0  0  0  0  0  0  0
    3.7697    3.9099   -0.4512 H   0  0  0  0  0  0  0  0  0  0  0  0
    5.2030    4.7461   -2.3001 H   0  0  0  0  0  0  0  0  0  0  0  0
    0.6806   -2.2141   -3.4322 H   0  0  0  0  0  0  0  0  0  0  0  0
    1.1354   -0.8704   -4.4356 H   0  0  0  0  0  0  0  0  0  0  0  0
    2.2283    0.8624   -3.3535 H   0  0  0  0  0  0  0  0  0  0  0  0
    1.5636    1.6226   -2.6314 H   0  0  0  0  0  0  0  0  0  0  0  0
    6.0949    2.7752   -1.2656 H   0  0  0  0  0  0  0  0  0  0  0  0
    2.2671    3.5135   -2.7846 H   0  0  0  0  0  0  0  0  0  0  0  0
    4.0985    2.7514   -3.8985 H   0  0  0  0  0  0  0  0  0  0  0  0
    2.5646    2.2947   -0.6269 H   0  0  0  0  0  0  0  0  0  0  0  0
    6.4296   -2.3713   -3.6339 H   0  0  0  0  0  0  0  0  0  0  0  0
    5.9261   -1.0681   -1.6155 H   0  0  0  0  0  0  0  0  0  0  0  0
    8.0803   -2.5469   -5.4210 H   0  0  0  0  0  0  0  0  0  0  0  0
    8.8107   -1.1628   -6.0723 H   0  0  0  0  0  0  0  0  0  0  0  0
  1 15  1  0  0  0  0
  2  1  2  0  0  0  0
  2  4  1  0  0  0  0
  3  1  1  0  0  0  0
  3 47  1  0  0  0  0
  4  6  1  0  0  0  0
  4 48  1  0  0  0  0
  5  3  1  0  0  0  0
  5 19  1  6  0  0  0
  6  5  1  0  0  0  0
  6 14  1  0  0  0  0
  6 20  1  1  0  0  0
  7 49  1  0  0  0  0
  8 50  1  0  0  0  0
 10 51  1  0  0  0  0
 10 52  1  0  0  0  0
 11  5  1  0  0  0  0
 11  8  1  0  0  0  0
 12 11  2  0  0  0  0
 12  7  1  0  0  0  0
 13 12  1  0  0  0  0
 13 31  1  0  0  0  0
 13 53  1  1  0  0  0
 14 13  1  0  0  0  0
 15 18  1  0  0  0  0
 15  9  2  0  0  0  0
 16  2  1  0  0  0  0
 17 16  2  0  0  0  0
 17 10  1  0  0  0  0
 18 17  1  0  0  0  0
 18 54  1  0  0  0  0
 21 23  1  0  0  0  0
 23 22  2  0  0  0  0
 23 25  1  0  0  0  0
 23 24  1  0  0  0  0
 24 55  1  0  0  0  0
 25 27  1  0  0  0  0
 27 26  2  0  0  0  0
 27 33  1  0  0  0  0
 27 28  1  0  0  0  0
 28 56  1  0  0  0  0
 29 57  1  0  0  0  0
 30 58  1  0  0  0  0
 31 21  1  0  0  0  0
 31 59  1  0  0  0  0
 31 60  1  0  0  0  0
 32 33  1  0  0  0  0
 32 61  1  0  0  0  0
 32 62  1  0  0  0  0
 35 37  1  0  0  0  0
 35 63  1  1  0  0  0
 35 34  1  0  0  0  0
 36 29  1  0  0  0  0
 36 64  1  6  0  0  0
 37 30  1  0  0  0  0
 37 36  1  0  0  0  0
 37 65  1  6  0  0  0
 38 35  1  0  0  0  0
 39 32  1  0  0  0  0
 39 38  1  0  0  0  0
 39 36  1  0  0  0  0
 39 66  1  1  0  0  0
 40 34  1  0  0  0  0
 41 40  1  0  0  0  0
 42 41  2  0  0  0  0
 42 43  1  0  0  0  0
 43 44  2  0  0  0  0
 43 67  1  0  0  0  0
 44 34  1  0  0  0  0
 44 68  1  0  0  0  0
 45 40  2  0  0  0  0
 46 42  1  0  0  0  0
 46 69  1  0  0  0  0
 46 70  1  0  0  0  0
M  END
>  <DRUGBANK_ID>
DB03300

>  <SECONDARY_ACCESSION_NUMBERS>
EXPT02136

>  <COMMON_NAME>
Pterin Cytosine Dinucleotide

$$$$
