
 OpenBabel10282417113D

117121  0  0  0  0  0  0  0  0999 V2000
   -7.3655   -5.1490   -0.0078 C   0  0  0  0  0  0  0  0  0  0  0  0
   -8.6477   -5.1855    0.0302 C   0  0  0  0  0  0  0  0  0  0  0  0
   -9.0844   -7.2057   -0.0551 C   0  0  0  0  0  0  0  0  0  0  0  0
   -9.3380   -6.2332    0.0255 C   0  0  0  0  0  0  0  0  0  0  0  0
   -8.8956   -2.7904    0.0065 C   0  0  0  0  0  0  0  0  0  0  0  0
   -9.7219   -1.4636    0.0148 C   0  0  0  0  0  0  0  0  0  0  0  0
  -10.8204   -1.3127    0.9032 N   0  0  0  0  0  0  0  0  0  0  0  0
  -12.0700    0.3798    2.0245 C   0  0  0  0  0  0  0  0  0  0  0  0
  -12.2911    0.3140   -0.4463 C   0  0  0  0  0  0  0  0  0  0  0  0
  -11.9247    1.9660   -0.3990 C   0  0  0  0  0  0  0  0  0  0  0  0
  -11.8474    1.8816    1.9485 C   0  0  0  0  0  0  0  0  0  0  0  0
  -11.7097   -0.3782    0.8735 N   0  0  0  0  0  0  0  0  0  0  0  0
  -12.4894    2.4677    0.7816 N   0  0  0  0  0  0  0  0  0  0  0  0
  -12.4003    3.8812    0.7994 C   0  0  0  0  0  0  0  0  0  0  0  0
   -7.5469   -2.7263   -0.0050 C   0  0  0  0  0  0  0  0  0  0  0  0
   -6.9279   -1.4172   -0.0196 N   0  0  0  0  0  0  0  0  0  0  0  0
   -7.8402    2.2807    0.0013 C   0  0  0  0  0  0  0  0  0  0  0  0
   -7.2646    3.5945    0.0129 C   0  0  0  0  0  0  0  0  0  0  0  0
   -7.9614    4.7687   -0.0130 C   0  0  0  0  0  0  0  0  0  0  0  0
  -10.8364    6.2871   -0.0125 C   0  0  0  0  0  0  0  0  0  0  0  0
  -10.7684    3.7120   -0.1056 C   0  0  0  0  0  0  0  0  0  0  0  0
  -10.7390    0.5491   -0.0330 O   0  0  0  0  0  0  0  0  0  0  0  0
   -7.7027   -0.2056    0.0564 C   0  0  0  0  0  0  0  0  0  0  0  0
   -8.4701   -0.2469    1.0423 O   0  0  0  0  0  0  0  0  0  0  0  0
   -6.7748   -3.8862   -0.0020 C   0  0  0  0  0  0  0  0  0  0  0  0
   -5.3747   -3.7858    0.0066 O   0  0  0  0  0  0  0  0  0  0  0  0
   -6.6278   -6.3337   -0.0104 C   0  0  0  0  0  0  0  0  0  0  0  0
   -5.2441   -6.2633    0.0001 O   0  0  0  0  0  0  0  0  0  0  0  0
   -7.2917   -7.5080   -0.0093 C   0  0  0  0  0  0  0  0  0  0  0  0
   -6.4349   -8.8008   -0.0093 C   0  0  0  0  0  0  0  0  0  0  0  0
  -10.3046   -5.1506   -0.0958 O   0  0  0  0  0  0  0  0  0  0  0  0
  -10.8602   -5.1511   -0.1331 C   0  0  0  0  0  0  0  0  0  0  0  0
  -11.4919   -6.4641   -1.0606 O   0  0  0  0  0  0  0  0  0  0  0  0
  -10.8505   -2.5494    0.0779 C   0  0  1  0  0  0  0  0  0  0  0  0
  -11.1984   -5.6214    0.6988 C   0  0  0  0  0  0  0  0  0  0  0  0
  -10.9090   10.1918    1.3277 C   0  0  2  0  0  0  0  0  0  0  0  0
  -10.6683    9.0716    1.9085 C   0  0  0  0  0  0  0  0  0  0  0  0
  -11.1784    9.0712    0.0330 C   0  0  1  0  0  0  0  0  0  0  0  0
  -12.4223   10.9755   -0.5982 O   0  0  0  0  0  0  0  0  0  0  0  0
  -12.2318   11.8516   -1.8909 C   0  0  0  0  0  0  0  0  0  0  0  0
   -9.3583   10.0208    1.2506 C   0  0  1  0  0  0  0  0  0  0  0  0
   -8.1583    9.3847    1.5913 O   0  0  0  0  0  0  0  0  0  0  0  0
   -7.0798   11.1415    0.1420 C   0  0  0  0  0  0  0  0  0  0  0  0
   -6.9962    9.9219    0.9850 C   0  0  0  0  0  0  0  0  0  0  0  0
   -5.8903    9.4334    1.1758 O   0  0  0  0  0  0  0  0  0  0  0  0
   -8.9367    9.2345   -0.0385 C   0  0  2  0  0  0  0  0  0  0  0  0
   -8.9832   10.3811   -0.9539 C   0  0  0  0  0  0  0  0  0  0  0  0
   -9.3572    7.8110   -0.1077 C   0  0  2  0  0  0  0  0  0  0  0  0
  -10.8686    7.7958   -1.3099 O   0  0  0  0  0  0  0  0  0  0  0  0
   -9.1690    7.0176    1.2692 C   0  0  2  0  0  0  0  0  0  0  0  0
  -10.4976    7.0467    2.0994 C   0  0  0  0  0  0  0  0  0  0  0  0
   -7.6870    6.9059    1.2409 C   0  0  1  0  0  0  0  0  0  0  0  0
   -6.4614    6.3501    1.5566 O   0  0  0  0  0  0  0  0  0  0  0  0
   -7.3716    6.1800   -0.0855 C   0  0  1  0  0  0  0  0  0  0  0  0
   -5.9385    5.5332   -0.4647 C   0  0  0  0  0  0  0  0  0  0  0  0
   -7.0767    1.1586   -0.0143 C   0  0  0  0  0  0  0  0  0  0  0  0
   -5.5786    1.2619    0.0002 C   0  0  0  0  0  0  0  0  0  0  0  0
   -9.5397   -3.8726    0.1767 C   0  0  0  0  0  0  0  0  0  0  0  0
  -11.5265   -3.6843    0.7700 O   0  0  0  0  0  0  0  0  0  0  0  0
   -9.5549   -0.7603   -0.6817 H   0  0  0  0  0  0  0  0  0  0  0  0
  -13.1254    0.2050    2.1364 H   0  0  0  0  0  0  0  0  0  0  0  0
  -11.5221   -0.0123    2.8600 H   0  0  0  0  0  0  0  0  0  0  0  0
  -13.2110    0.1890   -0.5159 H   0  0  0  0  0  0  0  0  0  0  0  0
  -11.5740   -0.0838   -1.2895 H   0  0  0  0  0  0  0  0  0  0  0  0
  -12.2053    2.2995   -1.3093 H   0  0  0  0  0  0  0  0  0  0  0  0
  -10.7437    2.1553   -0.3496 H   0  0  0  0  0  0  0  0  0  0  0  0
  -10.7833    2.0688    1.9120 H   0  0  0  0  0  0  0  0  0  0  0  0
  -12.2757    2.3447    2.8222 H   0  0  0  0  0  0  0  0  0  0  0  0
  -12.8034    4.3301    1.6232 H   0  0  0  0  0  0  0  0  0  0  0  0
  -11.3975    4.1006    1.0847 H   0  0  0  0  0  0  0  0  0  0  0  0
  -12.7843    4.3050   -0.1370 H   0  0  0  0  0  0  0  0  0  0  0  0
   -5.9105   -1.3568   -0.0044 H   0  0  0  0  0  0  0  0  0  0  0  0
   -8.9130    2.2073    0.0040 H   0  0  0  0  0  0  0  0  0  0  0  0
   -6.1734    3.4546    0.0515 H   0  0  0  0  0  0  0  0  0  0  0  0
   -9.0109    4.7031    0.0035 H   0  0  0  0  0  0  0  0  0  0  0  0
  -10.5739    8.5075    0.0452 H   0  0  0  0  0  0  0  0  0  0  0  0
  -11.1077    5.7613   -0.0758 H   0  0  0  0  0  0  0  0  0  0  0  0
   -5.0846   -3.5998    0.9328 H   0  0  0  0  0  0  0  0  0  0  0  0
   -5.2327   -5.3527    0.3622 H   0  0  0  0  0  0  0  0  0  0  0  0
   -5.8028   -8.8310   -0.8897 H   0  0  0  0  0  0  0  0  0  0  0  0
   -5.7983   -8.8288    0.8683 H   0  0  0  0  0  0  0  0  0  0  0  0
   -7.0690   -9.6699   -0.0064 H   0  0  0  0  0  0  0  0  0  0  0  0
  -11.2865   -7.7690    0.8009 H   0  0  0  0  0  0  0  0  0  0  0  0
  -11.0020   -7.5811    1.4903 H   0  0  0  0  0  0  0  0  0  0  0  0
  -11.9704   -7.5677    1.0163 H   0  0  0  0  0  0  0  0  0  0  0  0
  -11.8252   10.3316    1.8228 H   0  0  0  0  0  0  0  0  0  0  0  0
  -10.1654    8.3416    1.2988 H   0  0  0  0  0  0  0  0  0  0  0  0
   -9.9189    9.1147    2.7986 H   0  0  0  0  0  0  0  0  0  0  0  0
  -11.6120    8.5042    2.3320 H   0  0  0  0  0  0  0  0  0  0  0  0
  -11.0966    9.9792   -0.7328 H   0  0  0  0  0  0  0  0  0  0  0  0
  -11.7618   12.7995   -1.6636 H   0  0  0  0  0  0  0  0  0  0  0  0
  -11.5821   11.2650   -2.5045 H   0  0  0  0  0  0  0  0  0  0  0  0
  -13.1510   12.0549   -2.4413 H   0  0  0  0  0  0  0  0  0  0  0  0
   -9.3494   10.8279    1.9369 H   0  0  0  0  0  0  0  0  0  0  0  0
   -6.6067   11.9700    0.4565 H   0  0  0  0  0  0  0  0  0  0  0  0
   -6.7623   10.8878   -0.9301 H   0  0  0  0  0  0  0  0  0  0  0  0
   -8.2006   11.5468    0.2093 H   0  0  0  0  0  0  0  0  0  0  0  0
   -8.0735    8.7043   -0.2951 H   0  0  0  0  0  0  0  0  0  0  0  0
   -8.8652   10.1375   -1.9301 H   0  0  0  0  0  0  0  0  0  0  0  0
   -9.7895   11.0367   -0.8678 H   0  0  0  0  0  0  0  0  0  0  0  0
   -8.1819   10.9312   -0.9318 H   0  0  0  0  0  0  0  0  0  0  0  0
   -9.3296    6.9474   -0.5939 H   0  0  0  0  0  0  0  0  0  0  0  0
  -12.0327    7.8003   -0.5500 H   0  0  0  0  0  0  0  0  0  0  0  0
   -8.9861    6.1577    1.7874 H   0  0  0  0  0  0  0  0  0  0  0  0
  -11.3855    7.0934    1.4458 H   0  0  0  0  0  0  0  0  0  0  0  0
  -10.5696    6.4315    2.8228 H   0  0  0  0  0  0  0  0  0  0  0  0
  -10.4725    7.8566    2.7304 H   0  0  0  0  0  0  0  0  0  0  0  0
   -7.6938    7.6857    1.9806 H   0  0  0  0  0  0  0  0  0  0  0  0
   -6.4637    5.6402    0.9400 H   0  0  0  0  0  0  0  0  0  0  0  0
   -7.3140    7.0013   -0.6810 H   0  0  0  0  0  0  0  0  0  0  0  0
   -5.7755    5.5591   -1.4403 H   0  0  0  0  0  0  0  0  0  0  0  0
   -5.1934    5.9488    0.1834 H   0  0  0  0  0  0  0  0  0  0  0  0
   -5.8759    4.6360   -0.1505 H   0  0  0  0  0  0  0  0  0  0  0  0
   -5.2448    1.7951   -0.8801 H   0  0  0  0  0  0  0  0  0  0  0  0
   -5.2454    1.8007    0.8788 H   0  0  0  0  0  0  0  0  0  0  0  0
   -5.1323    0.2864    0.0045 H   0  0  0  0  0  0  0  0  0  0  0  0
  -11.5349   -4.0845   -0.6190 H   0  0  0  0  0  0  0  0  0  0  0  0
  2  1  1  0  0  0  0
  2 58  2  0  0  0  0
  3 31  1  0  0  0  0
  3  4  2  0  0  0  0
  4  2  1  0  0  0  0
  4 32  1  0  0  0  0
  5 15  2  0  0  0  0
  5  6  1  0  0  0  0
  6  7  2  0  0  0  0
  6 60  1  0  0  0  0
  7 12  1  0  0  0  0
  8 12  1  0  0  0  0
  8 11  1  0  0  0  0
  8 61  1  0  0  0  0
  8 62  1  0  0  0  0
  9 10  1  0  0  0  0
  9 63  1  0  0  0  0
  9 64  1  0  0  0  0
 10 13  1  0  0  0  0
 10 65  1  0  0  0  0
 10 66  1  0  0  0  0
 11 67  1  0  0  0  0
 11 68  1  0  0  0  0
 12  9  1  0  0  0  0
 13 11  1  0  0  0  0
 13 14  1  0  0  0  0
 14 69  1  0  0  0  0
 14 70  1  0  0  0  0
 14 71  1  0  0  0  0
 15 16  1  0  0  0  0
 16 23  1  0  0  0  0
 16 72  1  0  0  0  0
 17 18  1  0  0  0  0
 17 73  1  0  0  0  0
 18 19  2  0  0  0  0
 18 74  1  0  0  0  0
 19 54  1  0  0  0  0
 19 75  1  0  0  0  0
 20 21  2  0  0  0  0
 20 76  1  0  0  0  0
 21 22  1  0  0  0  0
 21 77  1  0  0  0  0
 23 56  1  0  0  0  0
 23 24  2  0  0  0  0
 25  1  2  0  0  0  0
 25 15  1  0  0  0  0
 25 26  1  0  0  0  0
 26 78  1  0  0  0  0
 27 29  2  0  0  0  0
 27  1  1  0  0  0  0
 27 28  1  0  0  0  0
 28 79  1  0  0  0  0
 29  3  1  0  0  0  0
 29 30  1  0  0  0  0
 30 80  1  0  0  0  0
 30 81  1  0  0  0  0
 30 82  1  0  0  0  0
 32 34  1  0  0  0  0
 32 33  2  0  0  0  0
 34 31  1  0  0  0  0
 34 22  1  0  0  0  0
 34 35  1  6  0  0  0
 35 83  1  0  0  0  0
 35 84  1  0  0  0  0
 35 85  1  0  0  0  0
 36 38  1  0  0  0  0
 36 86  1  1  0  0  0
 36 37  1  0  0  0  0
 37 87  1  0  0  0  0
 37 88  1  0  0  0  0
 37 89  1  0  0  0  0
 38 20  1  0  0  0  0
 38 39  1  0  0  0  0
 38 90  1  1  0  0  0
 39 40  1  0  0  0  0
 40 91  1  0  0  0  0
 40 92  1  0  0  0  0
 40 93  1  0  0  0  0
 41 36  1  0  0  0  0
 41 94  1  6  0  0  0
 41 42  1  0  0  0  0
 42 44  1  0  0  0  0
 43 95  1  0  0  0  0
 43 96  1  0  0  0  0
 43 97  1  0  0  0  0
 44 43  1  0  0  0  0
 44 45  2  0  0  0  0
 46 41  1  0  0  0  0
 46 47  1  0  0  0  0
 46 98  1  1  0  0  0
 47 99  1  0  0  0  0
 47100  1  0  0  0  0
 47101  1  0  0  0  0
 48 46  1  0  0  0  0
 48 49  1  0  0  0  0
 48102  1  6  0  0  0
 49103  1  0  0  0  0
 50 48  1  0  0  0  0
 50 51  1  0  0  0  0
 50104  1  6  0  0  0
 51105  1  0  0  0  0
 51106  1  0  0  0  0
 51107  1  0  0  0  0
 52 50  1  0  0  0  0
 52108  1  6  0  0  0
 52 53  1  0  0  0  0
 53109  1  0  0  0  0
 54 52  1  0  0  0  0
 54110  1  6  0  0  0
 54 55  1  0  0  0  0
 55111  1  0  0  0  0
 55112  1  0  0  0  0
 55113  1  0  0  0  0
 56 17  2  0  0  0  0
 56 57  1  0  0  0  0
 57114  1  0  0  0  0
 57115  1  0  0  0  0
 57116  1  0  0  0  0
 58  5  1  0  0  0  0
 58 59  1  0  0  0  0
 59117  1  0  0  0  0
M  END
>  <DRUGBANK_ID>
DB01045

>  <SECONDARY_ACCESSION_NUMBERS>
APRD00207; EXPT02777

>  <COMMON_NAME>
Rifampicin

>  <CAS_NUMBER>
13292-46-1

>  <UNII>
VJT6J7R4TR

>  <SYNONYMS>
3-(((4-Methyl-1-piperazinyl)imino)methyl)rifamycin SV; RFP; Rifampicin; Rifampicina; Rifampicine; Rifampicinum; Rifampin

$$$$
