LY1
 OpenBabel10282417143D

 24 25  0  0  0  0  0  0  0  0999 V2000
    1.2561   -1.3776    0.3589 C   0  0  0  0  0  0  0  0  0  0  0  0
    2.1747   -0.8541   -0.6640 N   0  0  0  0  0  0  0  0  0  0  0  0
    2.7408    0.4602   -0.3493 C   0  0  0  0  0  0  0  0  0  0  0  0
    1.7249    1.6007   -0.3071 C   0  0  0  0  0  0  0  0  0  0  0  0
    0.7681    1.4515    0.8688 C   0  0  0  0  0  0  0  0  0  0  0  0
   -0.3729    0.5485    0.4727 C   0  0  0  0  0  0  0  0  0  0  0  0
   -1.6328    1.1285    0.2639 C   0  0  0  0  0  0  0  0  0  0  0  0
   -2.6984    0.3491   -0.1683 C   0  0  0  0  0  0  0  0  0  0  0  0
   -2.5188   -1.0157   -0.3795 C   0  0  0  0  0  0  0  0  0  0  0  0
   -1.2567   -1.6148   -0.1863 C   0  0  0  0  0  0  0  0  0  0  0  0
   -0.1547   -0.8272    0.2213 C   0  0  0  0  0  0  0  0  0  0  0  0
   -3.9120   -1.9080   -0.8958 Cl  0  0  0  0  0  0  0  0  0  0  0  0
   -1.0765   -3.3225   -0.4505 Cl  0  0  0  0  0  0  0  0  0  0  0  0
    1.2641   -2.4671    0.2670 H   0  0  0  0  0  0  0  0  0  0  0  0
    1.6387   -1.1957    1.3718 H   0  0  0  0  0  0  0  0  0  0  0  0
    2.9492   -1.5115   -0.7601 H   0  0  0  0  0  0  0  0  0  0  0  0
    3.2957    0.4192    0.5965 H   0  0  0  0  0  0  0  0  0  0  0  0
    3.4779    0.7018   -1.1242 H   0  0  0  0  0  0  0  0  0  0  0  0
    2.2665    2.5479   -0.2035 H   0  0  0  0  0  0  0  0  0  0  0  0
    1.1800    1.6571   -1.2601 H   0  0  0  0  0  0  0  0  0  0  0  0
    0.3863    2.4346    1.1661 H   0  0  0  0  0  0  0  0  0  0  0  0
    1.2737    1.0520    1.7570 H   0  0  0  0  0  0  0  0  0  0  0  0
   -1.7780    2.1957    0.4075 H   0  0  0  0  0  0  0  0  0  0  0  0
   -3.6628    0.8198   -0.3444 H   0  0  0  0  0  0  0  0  0  0  0  0
  1  2  1  0  0  0  0
  1 11  1  0  0  0  0
  1 14  1  0  0  0  0
  1 15  1  0  0  0  0
  2  3  1  0  0  0  0
  2 16  1  0  0  0  0
  3  4  1  0  0  0  0
  3 17  1  0  0  0  0
  3 18  1  0  0  0  0
  4  5  1  0  0  0  0
  4 19  1  0  0  0  0
  4 20  1  0  0  0  0
  5  6  1  0  0  0  0
  5 21  1  0  0  0  0
  5 22  1  0  0  0  0
  6  7  2  0  0  0  0
  6 11  1  0  0  0  0
  7  8  1  0  0  0  0
  7 23  1  0  0  0  0
  8  9  2  0  0  0  0
  8 24  1  0  0  0  0
  9 10  1  0  0  0  0
  9 12  1  0  0  0  0
 10 11  2  0  0  0  0
 10 13  1  0  0  0  0
M  END
>  <DRUGBANK_ID>
DB04273

>  <SECONDARY_ACCESSION_NUMBERS>
EXPT02072

>  <COMMON_NAME>
8,9-Dichloro-2,3,4,5-Tetrahydro-1h-Benzo[C]Azepine

>  <UNII>
2K2UE2I8AY

$$$$
