
 OpenBabel10282417143D

 72 74  0  0  1  0  0  0  0  0999 V2000
   -7.3136   -4.8106   -5.1743 N   0  0  0  0  0  0  0  0  0  0  0  0
   -7.2292   -3.5810   -5.5432 C   0  0  0  0  0  0  0  0  0  0  0  0
   -7.3868   -3.1658   -6.8338 N   0  0  0  0  0  0  0  0  0  0  0  0
   -6.9069   -2.5983   -4.4977 C   0  0  0  0  0  0  0  0  0  0  0  0
   -5.8988   -2.8913   -3.5645 C   0  0  0  0  0  0  0  0  0  0  0  0
   -5.4088   -1.9241   -2.7185 C   0  0  0  0  0  0  0  0  0  0  0  0
   -5.8065   -0.6306   -2.9459 C   0  0  0  0  0  0  0  0  0  0  0  0
   -5.2795    0.3720   -1.9878 C   0  0  0  0  0  0  0  0  0  0  0  0
   -4.9222    1.7271   -2.3641 N   0  0  0  0  0  0  0  0  0  0  0  0
   -5.5310    2.9639   -2.2097 C   0  0  0  0  0  0  0  0  0  0  0  0
   -5.0426    3.9653   -2.7478 O   0  0  0  0  0  0  0  0  0  0  0  0
   -6.9517    3.2104   -1.2852 C   0  0  2  0  0  0  0  0  0  0  0  0
   -6.2740    3.1240    0.3476 C   0  0  0  0  0  0  0  0  0  0  0  0
   -7.8763    2.0911    1.5035 C   0  0  0  0  0  0  0  0  0  0  0  0
   -8.5276    0.6554    1.3909 C   0  0  0  0  0  0  0  0  0  0  0  0
   -8.1287   -0.0615    2.4605 N   0  0  0  0  0  0  0  0  0  0  0  0
   -9.0087    0.0689    0.4294 O   0  0  0  0  0  0  0  0  0  0  0  0
   -8.7794    2.0429   -1.1641 N   0  0  0  0  0  0  0  0  0  0  0  0
   -9.9768    1.7676   -1.8887 C   0  0  0  0  0  0  0  0  0  0  0  0
  -10.2744    0.5895   -2.0835 O   0  0  0  0  0  0  0  0  0  0  0  0
  -10.5787    3.0664   -2.4516 C   0  0  1  0  0  0  0  0  0  0  0  0
  -10.4258    3.9745   -1.1513 C   0  0  0  0  0  0  0  0  0  0  0  0
   -8.9399    4.0451   -1.0348 C   0  0  0  0  0  0  0  0  0  0  0  0
   -8.3523    3.3559   -2.4937 C   0  0  0  0  0  0  0  0  0  0  0  0
   -7.4460    1.7971   -2.3149 N   0  0  0  0  0  0  0  0  0  0  0  0
   -7.2405    1.7077   -0.4207 C   0  0  0  0  0  0  0  0  0  0  0  0
   -6.3424    0.7563    0.3426 C   0  0  0  0  0  0  0  0  0  0  0  0
   -5.7561    1.1836    1.6054 C   0  0  0  0  0  0  0  0  0  0  0  0
   -6.0583    2.6922    2.3545 C   0  0  0  0  0  0  0  0  0  0  0  0
   -7.2632    3.9484    1.7834 C   0  0  0  0  0  0  0  0  0  0  0  0
   -8.0911    3.3783    0.1974 C   0  0  0  0  0  0  0  0  0  0  0  0
   -9.8168    3.7948   -3.9086 N   0  0  0  0  0  0  0  0  0  0  0  0
  -10.1274    5.4326   -4.1081 S   0  0  0  0  0  0  0  0  0  0  0  0
  -10.0952    6.1266   -2.8501 O   0  0  0  0  0  0  0  0  0  0  0  0
   -9.2405    5.8156   -5.1813 O   0  0  0  0  0  0  0  0  0  0  0  0
  -11.7070    4.8739   -4.5960 C   0  0  0  0  0  0  0  0  0  0  0  0
  -11.5778    3.8126   -5.6947 C   0  0  0  0  0  0  0  0  0  0  0  0
   -6.8660   -0.3751   -3.8476 C   0  0  0  0  0  0  0  0  0  0  0  0
   -7.5166   -1.3687   -4.5268 C   0  0  0  0  0  0  0  0  0  0  0  0
   -7.5367   -5.4201   -5.9555 H   0  0  0  0  0  0  0  0  0  0  0  0
   -7.2219   -2.2027   -7.1131 H   0  0  0  0  0  0  0  0  0  0  0  0
   -7.5448   -3.8221   -7.5838 H   0  0  0  0  0  0  0  0  0  0  0  0
   -5.4545   -3.8729   -3.5264 H   0  0  0  0  0  0  0  0  0  0  0  0
   -4.6584   -2.1290   -1.9613 H   0  0  0  0  0  0  0  0  0  0  0  0
   -6.2649    0.3910   -1.6332 H   0  0  0  0  0  0  0  0  0  0  0  0
   -4.7311    0.0145   -1.1024 H   0  0  0  0  0  0  0  0  0  0  0  0
   -4.1100    1.7563   -2.9424 H   0  0  0  0  0  0  0  0  0  0  0  0
   -6.9786    4.3438   -1.5325 H   0  0  0  0  0  0  0  0  0  0  0  0
   -5.1952    2.8947    0.2899 H   0  0  0  0  0  0  0  0  0  0  0  0
   -6.2140    4.3434    0.2319 H   0  0  0  0  0  0  0  0  0  0  0  0
   -8.0230    2.3475    2.5983 H   0  0  0  0  0  0  0  0  0  0  0  0
   -9.0324    2.5874    1.4538 H   0  0  0  0  0  0  0  0  0  0  0  0
   -7.7334   -0.8833    2.0276 H   0  0  0  0  0  0  0  0  0  0  0  0
   -7.4890    0.4687    3.0410 H   0  0  0  0  0  0  0  0  0  0  0  0
   -8.6869    0.9635   -0.9360 H   0  0  0  0  0  0  0  0  0  0  0  0
  -11.5627    2.7768   -2.7682 H   0  0  0  0  0  0  0  0  0  0  0  0
  -10.7616    4.9847   -1.2441 H   0  0  0  0  0  0  0  0  0  0  0  0
  -10.8206    3.5358   -0.2197 H   0  0  0  0  0  0  0  0  0  0  0  0
   -8.0136    4.3059   -2.8293 H   0  0  0  0  0  0  0  0  0  0  0  0
   -7.9984    0.9856   -2.5303 H   0  0  0  0  0  0  0  0  0  0  0  0
   -6.5452   -0.2865    0.0390 H   0  0  0  0  0  0  0  0  0  0  0  0
   -5.4283    0.2682    2.0944 H   0  0  0  0  0  0  0  0  0  0  0  0
   -5.8133    2.6123    3.3931 H   0  0  0  0  0  0  0  0  0  0  0  0
   -6.9923    4.9957    1.9522 H   0  0  0  0  0  0  0  0  0  0  0  0
   -8.7915    3.9084   -4.1278 H   0  0  0  0  0  0  0  0  0  0  0  0
  -12.1977    4.4273   -3.7185 H   0  0  0  0  0  0  0  0  0  0  0  0
  -12.2209    5.7631   -4.8878 H   0  0  0  0  0  0  0  0  0  0  0  0
  -11.1037    2.8648   -5.3718 H   0  0  0  0  0  0  0  0  0  0  0  0
  -12.5620    3.5459   -6.0517 H   0  0  0  0  0  0  0  0  0  0  0  0
  -10.9524    4.2005   -6.5021 H   0  0  0  0  0  0  0  0  0  0  0  0
   -7.2129    0.6190   -4.0876 H   0  0  0  0  0  0  0  0  0  0  0  0
   -8.3977   -1.1388   -5.1167 H   0  0  0  0  0  0  0  0  0  0  0  0
  1  2  2  0  0  0  0
  1 40  1  0  0  0  0
  2  3  1  0  0  0  0
  2  4  1  0  0  0  0
  3 41  1  0  0  0  0
  3 42  1  0  0  0  0
  4  5  2  0  0  0  0
  4 39  1  0  0  0  0
  5  6  1  0  0  0  0
  5 43  1  0  0  0  0
  6  7  2  0  0  0  0
  6 44  1  0  0  0  0
  7  8  1  0  0  0  0
  7 38  1  0  0  0  0
  8  9  1  0  0  0  0
  8 45  1  0  0  0  0
  8 46  1  0  0  0  0
  9 10  1  0  0  0  0
  9 47  1  0  0  0  0
 10 11  2  0  0  0  0
 12 18  1  0  0  0  0
 12 48  1  6  0  0  0
 12 13  1  0  0  0  0
 12 10  1  0  0  0  0
 13 14  1  0  0  0  0
 13 49  1  0  0  0  0
 13 50  1  0  0  0  0
 14 15  1  0  0  0  0
 14 51  1  0  0  0  0
 14 52  1  0  0  0  0
 15 16  1  0  0  0  0
 15 17  2  0  0  0  0
 16 53  1  0  0  0  0
 16 54  1  0  0  0  0
 18 19  1  0  0  0  0
 18 55  1  0  0  0  0
 19 20  2  0  0  0  0
 19 21  1  0  0  0  0
 21 22  1  0  0  0  0
 21 32  1  0  0  0  0
 21 56  1  6  0  0  0
 22 23  1  0  0  0  0
 22 57  1  0  0  0  0
 22 58  1  0  0  0  0
 23 24  2  0  0  0  0
 23 31  1  0  0  0  0
 24 25  1  0  0  0  0
 24 59  1  0  0  0  0
 25 26  1  0  0  0  0
 25 60  1  0  0  0  0
 26 27  2  0  0  0  0
 26 31  1  0  0  0  0
 27 28  1  0  0  0  0
 27 61  1  0  0  0  0
 28 29  2  0  0  0  0
 28 62  1  0  0  0  0
 29 30  1  0  0  0  0
 29 63  1  0  0  0  0
 30 31  2  0  0  0  0
 30 64  1  0  0  0  0
 32 33  1  0  0  0  0
 32 65  1  0  0  0  0
 33 34  2  0  0  0  0
 33 35  2  0  0  0  0
 33 36  1  0  0  0  0
 36 37  1  0  0  0  0
 36 66  1  0  0  0  0
 36 67  1  0  0  0  0
 37 68  1  0  0  0  0
 37 69  1  0  0  0  0
 37 70  1  0  0  0  0
 38 39  2  0  0  0  0
 38 71  1  0  0  0  0
 39 72  1  0  0  0  0
M  END
>  <DRUGBANK_ID>
DB04758

>  <COMMON_NAME>
2-[2-ETHANESULFONYLAMINO-3-(1H-INDOL-3-YL)-PROPIONYLAMINO]-PENTANEDIOIC ACID 5-AMIDE 1-(4-CARBAMIM IDOYL-BENZYLAMIDE)

$$$$
