3BT
 OpenBabel10282417133D

 36 36  0  0  0  0  0  0  0  0999 V2000
    0.9027    0.0746    0.0049 C   0  0  0  0  0  0  0  0  0  0  0  0
    0.4153    0.7216    1.3075 C   0  0  0  0  0  0  0  0  0  0  0  0
    2.1413    2.4796   -1.4344 N   0  0  0  0  0  0  0  0  0  0  0  0
    0.2505    3.1161   -2.5501 N   0  0  0  0  0  0  0  0  0  0  0  0
    0.8819    2.2414   -1.8735 C   0  0  0  0  0  0  0  0  0  0  0  0
    0.1244    0.7240   -1.5099 S   0  0  0  0  0  0  0  0  0  0  0  0
    2.7943    3.6704    1.8449 C   0  0  0  0  0  0  0  0  0  0  0  0
    2.3141    2.3585    1.7315 C   0  0  0  0  0  0  0  0  0  0  0  0
    0.9341    2.1129    1.5714 C   0  0  0  0  0  0  0  0  0  0  0  0
    0.0389    3.1862    1.5650 C   0  0  0  0  0  0  0  0  0  0  0  0
    0.4947    4.4649    1.8571 C   0  0  0  0  0  0  0  0  0  0  0  0
    1.8612    4.6942    2.0610 C   0  0  0  0  0  0  0  0  0  0  0  0
    4.5843    4.7314    0.2052 C   0  0  0  0  0  0  0  0  0  0  0  0
    4.2464    4.0049    1.5454 C   0  0  0  0  0  0  0  0  0  0  0  0
    1.7290    5.0420   -0.8288 N   0  0  0  0  0  0  0  0  0  0  0  0
    1.4382    7.2450   -0.2605 N   0  0  0  0  0  0  0  0  0  0  0  0
    2.2160    6.2432   -0.4618 C   0  0  0  0  0  0  0  0  0  0  0  0
    3.9195    6.4048   -0.1340 S   0  0  0  0  0  0  0  0  0  0  0  0
    0.5990   -0.9778    0.0486 H   0  0  0  0  0  0  0  0  0  0  0  0
    1.9964    0.0611   -0.0637 H   0  0  0  0  0  0  0  0  0  0  0  0
   -0.6823    0.7097    1.3379 H   0  0  0  0  0  0  0  0  0  0  0  0
    0.7342    0.1042    2.1578 H   0  0  0  0  0  0  0  0  0  0  0  0
    2.3893    3.4557   -1.5621 H   0  0  0  0  0  0  0  0  0  0  0  0
    2.2716    2.1784   -0.4880 H   0  0  0  0  0  0  0  0  0  0  0  0
    0.8498    3.9437   -2.6878 H   0  0  0  0  0  0  0  0  0  0  0  0
    3.0163    1.5317    1.6176 H   0  0  0  0  0  0  0  0  0  0  0  0
   -1.0048    3.0365    1.2872 H   0  0  0  0  0  0  0  0  0  0  0  0
   -0.1871    5.3114    1.7826 H   0  0  0  0  0  0  0  0  0  0  0  0
    2.1955    5.7276    2.1554 H   0  0  0  0  0  0  0  0  0  0  0  0
    5.6739    4.8841    0.2238 H   0  0  0  0  0  0  0  0  0  0  0  0
    4.4179    4.0836   -0.6636 H   0  0  0  0  0  0  0  0  0  0  0  0
    4.6591    4.5713    2.3848 H   0  0  0  0  0  0  0  0  0  0  0  0
    4.8111    3.0595    1.5223 H   0  0  0  0  0  0  0  0  0  0  0  0
    0.7169    4.9675   -0.7137 H   0  0  0  0  0  0  0  0  0  0  0  0
    2.0924    4.3690   -0.1683 H   0  0  0  0  0  0  0  0  0  0  0  0
    0.4703    6.9686   -0.4419 H   0  0  0  0  0  0  0  0  0  0  0  0
  1  2  1  0  0  0  0
  1  6  1  0  0  0  0
  1 19  1  0  0  0  0
  1 20  1  0  0  0  0
  2  9  1  0  0  0  0
  2 21  1  0  0  0  0
  2 22  1  0  0  0  0
  3  5  1  0  0  0  0
  3 23  1  0  0  0  0
  3 24  1  0  0  0  0
  4  5  2  0  0  0  0
  4 25  1  0  0  0  0
  5  6  1  0  0  0  0
  7  8  2  0  0  0  0
  7 12  1  0  0  0  0
  7 14  1  0  0  0  0
  8  9  1  0  0  0  0
  8 26  1  0  0  0  0
  9 10  2  0  0  0  0
 10 11  1  0  0  0  0
 10 27  1  0  0  0  0
 11 12  2  0  0  0  0
 11 28  1  0  0  0  0
 12 29  1  0  0  0  0
 13 14  1  0  0  0  0
 13 18  1  0  0  0  0
 13 30  1  0  0  0  0
 13 31  1  0  0  0  0
 14 32  1  0  0  0  0
 14 33  1  0  0  0  0
 15 17  1  0  0  0  0
 15 34  1  0  0  0  0
 15 35  1  0  0  0  0
 16 17  2  0  0  0  0
 16 36  1  0  0  0  0
 17 18  1  0  0  0  0
M  END
>  <DRUGBANK_ID>
DB03910

>  <SECONDARY_ACCESSION_NUMBERS>
EXPT00164

>  <COMMON_NAME>
S,S'-(1,3-Phenylene-Bis(1,2-Ethanediyl))Bis-Isothiourea

$$$$
