
 OpenBabel10282417243D

 42 44  0  0  0  0  0  0  0  0999 V2000
    0.7382    0.3469   -0.1372 C   0  0  0  0  0  0  0  0  0  0  0  0
    0.2307   -0.9899   -0.2627 N   0  0  0  0  0  0  0  0  0  0  0  0
    1.0056   -2.0065    0.2866 C   0  0  0  0  0  0  0  0  0  0  0  0
    2.7268   -1.8566    0.6620 N   0  0  0  0  0  0  0  0  0  0  0  0
    3.9988   -3.1312    1.0764 C   0  0  0  0  0  0  0  0  0  0  0  0
    3.9365   -3.7010    2.4737 C   0  0  0  0  0  0  0  0  0  0  0  0
    3.9913   -5.1732    2.7557 C   0  0  0  0  0  0  0  0  0  0  0  0
    4.3683   -6.1170    1.7935 C   0  0  0  0  0  0  0  0  0  0  0  0
    4.5616   -8.1620    2.1731 I   0  0  0  0  0  0  0  0  0  0  0  0
    4.5274   -5.6768    0.4980 C   0  0  0  0  0  0  0  0  0  0  0  0
    4.3511   -4.3040    0.1283 C   0  0  0  0  0  0  0  0  0  0  0  0
    4.2929   -4.3096   -1.2217 F   0  0  0  0  0  0  0  0  0  0  0  0
    0.0413   -3.3181   -0.1664 C   0  0  0  0  0  0  0  0  0  0  0  0
    0.2162   -5.0465   -0.2158 C   0  0  0  0  0  0  0  0  0  0  0  0
   -0.4853   -5.8122   -0.8065 O   0  0  0  0  0  0  0  0  0  0  0  0
    1.3727   -5.6667    0.2941 N   0  0  0  0  0  0  0  0  0  0  0  0
    1.8183   -5.1108    1.4334 O   0  0  0  0  0  0  0  0  0  0  0  0
    1.8416   -3.8132    1.0243 C   0  0  0  0  0  0  0  0  0  0  0  0
    2.2594   -3.3549   -0.9081 C   0  0  0  0  0  0  0  0  0  0  0  0
    1.8061   -4.1810   -1.9652 O   0  0  0  0  0  0  0  0  0  0  0  0
   -0.9719   -2.8492   -0.9656 C   0  0  0  0  0  0  0  0  0  0  0  0
   -1.8916   -3.5733   -1.7389 C   0  0  0  0  0  0  0  0  0  0  0  0
   -2.8412   -2.8639   -2.3983 C   0  0  0  0  0  0  0  0  0  0  0  0
   -2.7449   -1.4858   -2.3107 C   0  0  0  0  0  0  0  0  0  0  0  0
   -1.7865   -0.7228   -1.6725 N   0  0  0  0  0  0  0  0  0  0  0  0
   -0.8845   -1.4633   -0.9852 C   0  0  0  0  0  0  0  0  0  0  0  0
    0.4905    0.6642    0.8785 H   0  0  0  0  0  0  0  0  0  0  0  0
    0.3638    0.9975   -0.9185 H   0  0  0  0  0  0  0  0  0  0  0  0
    1.8311    0.2998   -0.2199 H   0  0  0  0  0  0  0  0  0  0  0  0
    2.9281   -1.0900    1.3147 H   0  0  0  0  0  0  0  0  0  0  0  0
    3.4269   -3.1682    3.2831 H   0  0  0  0  0  0  0  0  0  0  0  0
    3.4110   -5.5908    3.6061 H   0  0  0  0  0  0  0  0  0  0  0  0
    4.5808   -6.4079   -0.3184 H   0  0  0  0  0  0  0  0  0  0  0  0
    1.6497   -6.6283    0.2148 H   0  0  0  0  0  0  0  0  0  0  0  0
    0.8730   -3.5295    1.5325 H   0  0  0  0  0  0  0  0  0  0  0  0
    2.1117   -3.1322    1.8643 H   0  0  0  0  0  0  0  0  0  0  0  0
    1.9130   -2.3707   -1.3641 H   0  0  0  0  0  0  0  0  0  0  0  0
    3.2484   -2.9120   -1.1563 H   0  0  0  0  0  0  0  0  0  0  0  0
    2.0590   -5.0581   -1.6771 H   0  0  0  0  0  0  0  0  0  0  0  0
   -1.8874   -4.6609   -1.8148 H   0  0  0  0  0  0  0  0  0  0  0  0
   -3.6201   -3.3996   -2.9260 H   0  0  0  0  0  0  0  0  0  0  0  0
   -3.5265   -0.9113   -2.7918 H   0  0  0  0  0  0  0  0  0  0  0  0
  1  2  1  0  0  0  0
  1 27  1  0  0  0  0
  1 28  1  0  0  0  0
  1 29  1  0  0  0  0
  2  3  1  0  0  0  0
  2 26  1  0  0  0  0
  3  4  1  0  0  0  0
  3 13  2  0  0  0  0
  4  5  1  0  0  0  0
  4 30  1  0  0  0  0
  5  6  2  0  0  0  0
  5 11  1  0  0  0  0
  6  7  1  0  0  0  0
  6 31  1  0  0  0  0
  7  8  2  0  0  0  0
  7 32  1  0  0  0  0
  8  9  1  0  0  0  0
  8 10  1  0  0  0  0
 10 11  2  0  0  0  0
 10 33  1  0  0  0  0
 11 12  1  0  0  0  0
 13 14  1  0  0  0  0
 13 21  1  0  0  0  0
 14 15  2  0  0  0  0
 14 16  1  0  0  0  0
 16 17  1  0  0  0  0
 16 34  1  0  0  0  0
 17 18  1  0  0  0  0
 18 19  1  0  0  0  0
 18 35  1  0  0  0  0
 18 36  1  0  0  0  0
 19 20  1  0  0  0  0
 19 37  1  0  0  0  0
 19 38  1  0  0  0  0
 20 39  1  0  0  0  0
 21 22  2  0  0  0  0
 21 26  1  0  0  0  0
 22 23  1  0  0  0  0
 22 40  1  0  0  0  0
 23 24  2  0  0  0  0
 23 41  1  0  0  0  0
 24 25  1  0  0  0  0
 24 42  1  0  0  0  0
 25 26  2  0  0  0  0
M  END
>  <DRUGBANK_ID>
DB18102

>  <COMMON_NAME>
Nedometinib

>  <CAS_NUMBER>
2252314-46-6

>  <UNII>
K5T4I78IYZ

>  <SYNONYMS>
2-((2-fluoro-4-iodophenyl)amino)-n-(2-hydroxyethoxy)-1-methyl-1h-pyrrolo(2,3-b)pyridine-3-carboxamide

$$$$
