19U
 OpenBabel10282417163D

 44 45  0  0  0  0  0  0  0  0999 V2000
   -1.0520    0.5517    0.1212 N   0  0  0  0  0  0  0  0  0  0  0  0
   -0.8530   -0.8478   -0.2153 C   0  0  0  0  0  0  0  0  0  0  0  0
    0.1775    2.1494   -1.3107 C   0  0  0  0  0  0  0  0  0  0  0  0
   -2.4251    2.4810    1.0065 C   0  0  1  0  0  0  0  0  0  0  0  0
   -4.9202    2.5922    0.2966 C   0  0  0  0  0  0  0  0  0  0  0  0
    0.4714    4.3917   -2.3227 C   0  0  0  0  0  0  0  0  0  0  0  0
   -1.8792    5.2071   -1.9743 C   0  0  0  0  0  0  0  0  0  0  0  0
   -2.4606    7.5369   -1.8290 C   0  0  0  0  0  0  0  0  0  0  0  0
   -3.5120    3.1442    0.1524 C   0  0  0  0  0  0  0  0  0  0  0  0
   -2.7399    2.6065    2.4427 N   0  0  0  0  0  0  0  0  0  0  0  0
   -2.2591    0.9858    0.6240 C   0  0  0  0  0  0  0  0  0  0  0  0
   -3.1982    0.1968    0.7764 O   0  0  0  0  0  0  0  0  0  0  0  0
    0.5736   -1.1025    0.2234 C   0  0  0  0  0  0  0  0  0  0  0  0
    1.2828    0.2002   -0.1449 C   0  0  0  0  0  0  0  0  0  0  0  0
    0.2066    1.3003   -0.0145 C   0  0  2  0  0  0  0  0  0  0  0  0
    0.4862    3.4886   -1.1772 N   0  0  0  0  0  0  0  0  0  0  0  0
   -0.5264    5.5113   -2.1512 C   0  0  0  0  0  0  0  0  0  0  0  0
   -0.1601    6.8591   -2.2257 C   0  0  0  0  0  0  0  0  0  0  0  0
   -1.1272    7.8599   -2.0756 C   0  0  0  0  0  0  0  0  0  0  0  0
   -2.8392    6.2009   -1.7774 C   0  0  0  0  0  0  0  0  0  0  0  0
   -0.1185    1.6569   -2.4026 O   0  0  0  0  0  0  0  0  0  0  0  0
   -0.6691    9.5137   -2.2053 Cl  0  0  0  0  0  0  0  0  0  0  0  0
   -1.4910    3.0219    0.8463 H   0  0  0  0  0  0  0  0  0  0  0  0
    0.3717    1.9148    0.8754 H   0  0  0  0  0  0  0  0  0  0  0  0
   -0.9533   -0.9528   -1.3022 H   0  0  0  0  0  0  0  0  0  0  0  0
   -1.5707   -1.5154    0.2699 H   0  0  0  0  0  0  0  0  0  0  0  0
   -5.2817    2.6634    1.3241 H   0  0  0  0  0  0  0  0  0  0  0  0
   -5.6065    3.1494   -0.3477 H   0  0  0  0  0  0  0  0  0  0  0  0
   -4.9644    1.5497   -0.0255 H   0  0  0  0  0  0  0  0  0  0  0  0
    1.4843    4.7934   -2.4261 H   0  0  0  0  0  0  0  0  0  0  0  0
    0.2353    3.8493   -3.2449 H   0  0  0  0  0  0  0  0  0  0  0  0
   -2.1776    4.1673   -2.0152 H   0  0  0  0  0  0  0  0  0  0  0  0
   -3.2077    8.3150   -1.6974 H   0  0  0  0  0  0  0  0  0  0  0  0
   -3.5339    4.2197    0.3721 H   0  0  0  0  0  0  0  0  0  0  0  0
   -3.2476    3.0143   -0.8965 H   0  0  0  0  0  0  0  0  0  0  0  0
   -2.9329    3.5843    2.6572 H   0  0  0  0  0  0  0  0  0  0  0  0
   -3.6235    2.1151    2.6056 H   0  0  0  0  0  0  0  0  0  0  0  0
    0.6076   -1.2544    1.3095 H   0  0  0  0  0  0  0  0  0  0  0  0
    1.0147   -1.9813   -0.2561 H   0  0  0  0  0  0  0  0  0  0  0  0
    2.1384    0.3849    0.5125 H   0  0  0  0  0  0  0  0  0  0  0  0
    1.6705    0.1265   -1.1677 H   0  0  0  0  0  0  0  0  0  0  0  0
    0.6997    3.8821   -0.2695 H   0  0  0  0  0  0  0  0  0  0  0  0
    0.8726    7.1365   -2.4188 H   0  0  0  0  0  0  0  0  0  0  0  0
   -3.8775    5.9304   -1.5989 H   0  0  0  0  0  0  0  0  0  0  0  0
  1  2  1  0  0  0  0
  1 11  1  0  0  0  0
  1 15  1  0  0  0  0
  2 13  1  0  0  0  0
  2 25  1  0  0  0  0
  2 26  1  0  0  0  0
  3 16  1  0  0  0  0
  3 21  2  0  0  0  0
  4  9  1  0  0  0  0
  4 10  1  0  0  0  0
  4 11  1  0  0  0  0
  4 23  1  6  0  0  0
  5  9  1  0  0  0  0
  5 27  1  0  0  0  0
  5 28  1  0  0  0  0
  5 29  1  0  0  0  0
  6 16  1  0  0  0  0
  6 17  1  0  0  0  0
  6 30  1  0  0  0  0
  6 31  1  0  0  0  0
  7 17  2  0  0  0  0
  7 20  1  0  0  0  0
  7 32  1  0  0  0  0
  8 19  1  0  0  0  0
  8 20  2  0  0  0  0
  8 33  1  0  0  0  0
  9 34  1  0  0  0  0
  9 35  1  0  0  0  0
 10 36  1  0  0  0  0
 10 37  1  0  0  0  0
 11 12  2  0  0  0  0
 13 14  1  0  0  0  0
 13 38  1  0  0  0  0
 13 39  1  0  0  0  0
 14 15  1  0  0  0  0
 14 40  1  0  0  0  0
 14 41  1  0  0  0  0
 15 24  1  1  0  0  0
 15  3  1  0  0  0  0
 16 42  1  0  0  0  0
 17 18  1  0  0  0  0
 18 19  2  0  0  0  0
 18 43  1  0  0  0  0
 19 22  1  0  0  0  0
 20 44  1  0  0  0  0
M  END
>  <DRUGBANK_ID>
DB06878

>  <COMMON_NAME>
1-[(2R)-2-aminobutanoyl]-N-(3-chlorobenzyl)-L-prolinamide

$$$$
