
 OpenBabel10282417233D

112112  0  0  0  0  0  0  0  0999 V2000
    1.0821    0.0394    0.0412 Gd  0  1  0  0  0  0  0  0  0  0  0  0
    1.0113    0.0487    0.0866 O   0  0  0  0  0  0  0  0  0  0  0  0
    0.5379    0.3420   -1.2196 C   0  0  0  0  0  0  0  0  0  0  0  0
    1.0446    1.7099   -1.6469 C   0  0  3  0  0  0  0  0  0  0  0  0
    2.4646    1.7099   -1.6469 O   0  0  0  0  0  0  0  0  0  0  0  0
    0.5379    2.0239   -3.0451 C   0  0  0  0  0  0  0  0  0  0  0  0
   -0.9321    2.0239   -3.0451 N   0  0  0  0  0  0  0  0  0  0  0  0
   -1.6671    3.2391   -3.4246 C   0  0  0  0  0  0  0  0  0  0  0  0
   -2.9380    3.2391   -3.4246 O   0  0  0  0  0  0  0  0  0  0  0  0
   -0.9071    4.4956   -3.8171 C   0  0  0  0  0  0  0  0  0  0  0  0
   -0.0332    4.9424   -2.6564 C   0  0  0  0  0  0  0  0  0  0  0  0
    0.9546    3.8396   -2.3120 C   0  0  3  0  0  0  0  0  0  0  0  0
    1.7997    3.5561   -3.4809 N   0  0  0  0  0  0  0  0  0  0  0  0
    5.2333    0.6581    0.1207 C   0  0  0  0  0  0  0  0  0  0  0  0
    5.1016   -0.8402   -0.0987 C   0  0  0  0  0  0  0  0  0  0  0  0
    3.7034   -1.1685   -0.4118 N   0  0  0  0  0  0  0  0  0  0  0  0
    3.2942   -0.4568   -1.6312 C   0  0  0  0  0  0  0  0  0  0  0  0
    1.8484   -0.7963   -1.9550 C   0  0  0  0  0  0  0  0  0  0  0  0
    1.4625   -2.1098   -2.1997 C   0  0  0  0  0  0  0  0  0  0  0  0
    0.0996   -2.4169   -1.9899 C   0  0  0  0  0  0  0  0  0  0  0  0
   -0.8154   -1.4152   -2.3092 C   0  0  0  0  0  0  0  0  0  0  0  0
   -0.3978   -0.1670   -2.3181 C   0  0  0  0  0  0  0  0  0  0  0  0
   -1.3856    0.9358   -2.6625 C   0  0  0  0  0  0  0  0  0  0  0  0
   -0.6506    2.1510   -3.0420 N   0  0  0  0  0  0  0  0  0  0  0  0
    0.1946    1.8675   -4.2109 C   0  0  0  0  0  0  0  0  0  0  0  0
    0.9546    3.1240   -4.6034 C   0  0  0  0  0  0  0  0  0  0  0  0
    0.1946    2.5831   -1.9196 C   0  0  3  0  0  0  0  0  0  0  0  0
    1.1823    1.4803   -1.5752 C   0  0  0  0  0  0  0  0  0  0  0  0
    2.0562    1.1872   -2.7838 C   0  0  0  0  0  0  0  0  0  0  0  0
    2.8162    2.4437   -3.1762 C   0  0  0  0  0  0  0  0  0  0  0  0
    4.0871    2.4437   -3.1762 O   0  0  0  0  0  0  0  0  0  0  0  0
    2.0812    3.6589   -3.5557 N   0  0  0  0  0  0  0  0  0  0  0  0
    0.6112    3.6589   -3.5558 C   0  0  0  0  0  0  0  0  0  0  0  0
    0.1045    4.7128   -2.5847 C   0  0  3  0  0  0  0  0  0  0  0  0
    0.5778    5.9907   -2.9838 O   0  0  0  0  0  0  0  0  0  0  0  0
   -1.4155    4.7128   -2.5847 C   0  0  0  0  0  0  0  0  0  0  0  0
   -1.8888    3.4349   -2.1856 O   0  0  0  0  0  0  0  0  0  0  0  0
    0.9546    3.8396   -2.3120 C   0  0  0  0  0  0  0  0  0  0  0  0
    0.7771    5.0375   -1.5704 O   0  5  0  0  0  0  0  0  0  0  0  0
    1.7489    3.8181   -3.3039 O   0  0  0  0  0  0  0  0  0  0  0  0
    0.9310    0.1453   -2.0107 N   0  0  0  0  0  0  0  0  0  0  0  0
    2.8417   -0.7594    0.7067 C   0  0  3  0  0  0  0  0  0  0  0  0
    2.9734    0.7389    0.9261 C   0  0  0  0  0  0  0  0  0  0  0  0
    2.5503    1.4747   -0.3348 C   0  0  0  0  0  0  0  0  0  0  0  0
    1.1045    1.1353   -0.6586 C   0  0  0  0  0  0  0  0  0  0  0  0
    0.2311    2.0572   -0.7083 O   0  0  0  0  0  0  0  0  0  0  0  0
    0.7165   -0.2594   -0.9142 N   0  0  0  0  0  0  0  0  0  0  0  0
    1.7267   -1.3257   -0.8566 C   0  0  0  0  0  0  0  0  0  0  0  0
    1.3383   -2.3345    0.2119 C   0  0  3  0  0  0  0  0  0  0  0  0
    0.0737   -2.8971   -0.1057 O   0  0  0  0  0  0  0  0  0  0  0  0
    2.3828   -3.4371    0.2714 C   0  0  0  0  0  0  0  0  0  0  0  0
    3.6474   -2.8745    0.5889 O   0  0  0  0  0  0  0  0  0  0  0  0
    1.3959   -1.0989    0.3830 C   0  0  0  0  0  0  0  0  0  0  0  0
    0.6700   -1.9860    1.2212 O   0  5  0  0  0  0  0  0  0  0  0  0
    0.8367   -0.5887   -0.6379 O   0  0  0  0  0  0  0  0  0  0  0  0
    1.8284    4.2865   -1.1514 C   0  0  0  0  0  0  0  0  0  0  0  0
    1.8344    3.5448    0.0595 O   0  5  0  0  0  0  0  0  0  0  0  0
    2.5537    5.3239   -1.2647 O   0  0  0  0  0  0  0  0  0  0  0  0
    2.0113    0.0487    0.0866 H   0  0  0  0  0  0  0  0  0  0  0  0
    0.8946   -0.3999   -1.9032 H   0  0  0  0  0  0  0  0  0  0  0  0
   -0.5321    0.3420   -1.2196 H   0  0  0  0  0  0  0  0  0  0  0  0
    0.6879    2.4518   -0.9633 H   0  0  0  0  0  0  0  0  0  0  0  0
    2.7979    1.5034   -0.7270 H   0  0  0  0  0  0  0  0  0  0  0  0
    0.8946    2.9868   -3.3459 H   0  0  0  0  0  0  0  0  0  0  0  0
    0.8946    1.2820   -3.7287 H   0  0  0  0  0  0  0  0  0  0  0  0
   -1.4421    1.1807   -2.7818 H   0  0  0  0  0  0  0  0  0  0  0  0
   -0.2919    4.2892   -4.6679 H   0  0  0  0  0  0  0  0  0  0  0  0
   -1.6024    5.2719   -4.0595 H   0  0  0  0  0  0  0  0  0  0  0  0
    0.5018    5.8269   -2.9327 H   0  0  0  0  0  0  0  0  0  0  0  0
   -0.6483    5.1487   -1.8056 H   0  0  0  0  0  0  0  0  0  0  0  0
    0.4196    2.9551   -2.0358 H   0  0  0  0  0  0  0  0  0  0  0  0
    6.2511    0.8971    0.3486 H   0  0  0  0  0  0  0  0  0  0  0  0
    4.9355    1.1761   -0.7669 H   0  0  0  0  0  0  0  0  0  0  0  0
    5.3994   -1.3582    0.7889 H   0  0  0  0  0  0  0  0  0  0  0  0
    5.7288   -1.1379   -0.9129 H   0  0  0  0  0  0  0  0  0  0  0  0
    3.9214   -0.7546   -2.4454 H   0  0  0  0  0  0  0  0  0  0  0  0
    3.3869    0.5979   -1.4768 H   0  0  0  0  0  0  0  0  0  0  0  0
    2.1617   -2.8495   -2.5297 H   0  0  0  0  0  0  0  0  0  0  0  0
   -0.2130   -3.3659   -1.6072 H   0  0  0  0  0  0  0  0  0  0  0  0
   -1.8321   -1.6549   -2.5413 H   0  0  0  0  0  0  0  0  0  0  0  0
   -2.0007    1.1421   -1.8117 H   0  0  0  0  0  0  0  0  0  0  0  0
   -2.0007    0.6213   -3.4796 H   0  0  0  0  0  0  0  0  0  0  0  0
   -0.4206    1.5529   -5.0280 H   0  0  0  0  0  0  0  0  0  0  0  0
    0.8899    1.0912   -3.9685 H   0  0  0  0  0  0  0  0  0  0  0  0
    0.2593    3.9003   -4.8458 H   0  0  0  0  0  0  0  0  0  0  0  0
    1.5697    2.9177   -5.4542 H   0  0  0  0  0  0  0  0  0  0  0  0
   -0.4206    2.7895   -1.0688 H   0  0  0  0  0  0  0  0  0  0  0  0
    1.7975    1.7949   -0.7581 H   0  0  0  0  0  0  0  0  0  0  0  0
    0.6473    0.5958   -1.2989 H   0  0  0  0  0  0  0  0  0  0  0  0
    2.7515    0.4109   -2.5413 H   0  0  0  0  0  0  0  0  0  0  0  0
    1.4410    0.8727   -3.6008 H   0  0  0  0  0  0  0  0  0  0  0  0
    2.5912    4.5021   -3.8191 H   0  0  0  0  0  0  0  0  0  0  0  0
    0.2545    3.8799   -4.5401 H   0  0  0  0  0  0  0  0  0  0  0  0
    0.2545    2.6959   -3.2550 H   0  0  0  0  0  0  0  0  0  0  0  0
    0.4612    4.4918   -1.6004 H   0  0  0  0  0  0  0  0  0  0  0  0
    1.5778    5.9907   -2.9838 H   0  0  0  0  0  0  0  0  0  0  0  0
   -1.7722    5.4547   -1.9012 H   0  0  0  0  0  0  0  0  0  0  0  0
   -1.7721    4.9338   -3.5690 H   0  0  0  0  0  0  0  0  0  0  0  0
   -1.5555    2.7415   -2.8245 H   0  0  0  0  0  0  0  0  0  0  0  0
    3.1395   -1.2774    1.5943 H   0  0  0  0  0  0  0  0  0  0  0  0
    2.3462    1.0367    1.7403 H   0  0  0  0  0  0  0  0  0  0  0  0
    3.9912    0.9779    1.1540 H   0  0  0  0  0  0  0  0  0  0  0  0
    2.6431    2.5295   -0.1804 H   0  0  0  0  0  0  0  0  0  0  0  0
    3.1775    1.1770   -1.1490 H   0  0  0  0  0  0  0  0  0  0  0  0
   -0.2537   -0.4872   -1.1314 H   0  0  0  0  0  0  0  0  0  0  0  0
    1.7826   -1.8156   -1.8062 H   0  0  0  0  0  0  0  0  0  0  0  0
    2.6796   -0.9018   -0.6173 H   0  0  0  0  0  0  0  0  0  0  0  0
    1.2823   -1.8446    1.1615 H   0  0  0  0  0  0  0  0  0  0  0  0
   -0.6135   -2.1717   -0.1448 H   0  0  0  0  0  0  0  0  0  0  0  0
    2.1094   -4.1473    1.0236 H   0  0  0  0  0  0  0  0  0  0  0  0
    2.4388   -3.9271   -0.6782 H   0  0  0  0  0  0  0  0  0  0  0  0
    3.9029   -2.2108   -0.1141 H   0  0  0  0  0  0  0  0  0  0  0  0
  2  3  1  0  0  0  0
  2 59  1  0  0  0  0
  3  4  1  0  0  0  0
  3 60  1  0  0  0  0
  3 61  1  0  0  0  0
  4  5  1  0  0  0  0
  4  6  1  0  0  0  0
  4 62  1  0  0  0  0
  5 63  1  0  0  0  0
  6  7  1  0  0  0  0
  6 64  1  0  0  0  0
  6 65  1  0  0  0  0
  7  8  1  0  0  0  0
  7 66  1  0  0  0  0
  8  9  2  0  0  0  0
  8 10  1  0  0  0  0
 10 11  1  0  0  0  0
 10 67  1  0  0  0  0
 10 68  1  0  0  0  0
 11 12  1  0  0  0  0
 11 69  1  0  0  0  0
 11 70  1  0  0  0  0
 12 13  1  0  0  0  0
 12 56  1  0  0  0  0
 12 71  1  0  0  0  0
 13 14  1  0  0  0  0
 13 26  1  0  0  0  0
 14 15  1  0  0  0  0
 14 72  1  0  0  0  0
 14 73  1  0  0  0  0
 15 16  1  0  0  0  0
 15 74  1  0  0  0  0
 15 75  1  0  0  0  0
 16 17  1  0  0  0  0
 16 42  1  0  0  0  0
 17 18  1  0  0  0  0
 17 76  1  0  0  0  0
 17 77  1  0  0  0  0
 18 19  2  0  0  0  0
 18 41  1  0  0  0  0
 19 20  1  0  0  0  0
 19 78  1  0  0  0  0
 20 21  2  0  0  0  0
 20 79  1  0  0  0  0
 21 22  1  0  0  0  0
 21 80  1  0  0  0  0
 22 23  1  0  0  0  0
 22 41  2  0  0  0  0
 23 24  1  0  0  0  0
 23 81  1  0  0  0  0
 23 82  1  0  0  0  0
 24 25  1  0  0  0  0
 24 27  1  0  0  0  0
 25 26  1  0  0  0  0
 25 83  1  0  0  0  0
 25 84  1  0  0  0  0
 26 85  1  0  0  0  0
 26 86  1  0  0  0  0
 27 28  1  0  0  0  0
 27 38  1  0  0  0  0
 27 87  1  0  0  0  0
 28 29  1  0  0  0  0
 28 88  1  0  0  0  0
 28 89  1  0  0  0  0
 29 30  1  0  0  0  0
 29 90  1  0  0  0  0
 29 91  1  0  0  0  0
 30 31  2  0  0  0  0
 30 32  1  0  0  0  0
 32 33  1  0  0  0  0
 32 92  1  0  0  0  0
 33 34  1  0  0  0  0
 33 93  1  0  0  0  0
 33 94  1  0  0  0  0
 34 35  1  0  0  0  0
 34 36  1  0  0  0  0
 34 95  1  0  0  0  0
 35 96  1  0  0  0  0
 36 37  1  0  0  0  0
 36 97  1  0  0  0  0
 36 98  1  0  0  0  0
 37 99  1  0  0  0  0
 38 39  1  0  0  0  0
 38 40  2  0  0  0  0
 42 43  1  0  0  0  0
 42 53  1  0  0  0  0
 42100  1  0  0  0  0
 43 44  1  0  0  0  0
 43101  1  0  0  0  0
 43102  1  0  0  0  0
 44 45  1  0  0  0  0
 44103  1  0  0  0  0
 44104  1  0  0  0  0
 45 46  2  0  0  0  0
 45 47  1  0  0  0  0
 47 48  1  0  0  0  0
 47105  1  0  0  0  0
 48 49  1  0  0  0  0
 48106  1  0  0  0  0
 48107  1  0  0  0  0
 49 50  1  0  0  0  0
 49 51  1  0  0  0  0
 49108  1  0  0  0  0
 50109  1  0  0  0  0
 51 52  1  0  0  0  0
 51110  1  0  0  0  0
 51111  1  0  0  0  0
 52112  1  0  0  0  0
 53 54  1  0  0  0  0
 53 55  2  0  0  0  0
 56 57  1  0  0  0  0
 56 58  2  0  0  0  0
M  CHG  4   1   3  39  -1  54  -1  57  -1
M  END
>  <DRUGBANK_ID>
DB17084

>  <COMMON_NAME>
Gadopiclenol

>  <CAS_NUMBER>
933983-75-6

>  <UNII>
S276568KOY

>  <SYNONYMS>
(.alpha.3,.alpha.6,.alpha.9-tris(3-((2,3-dihydroxypropyl)amino)-3-oxopropyl)-3,6,9,15-tetraazabicyclo(9.3.1)pentadeca-1(15),11,13-triene-3,6,9-triacetato(3-)-.kappa.n3,.kappa.n6,.kappa.n9,.kappa.n15,.kappa.o3,.kappa.o6,.kappa.o9)gadolinium; 2-[3,9-bis[1-carboxylato-4-(2,3-dihydroxypropylamino)-4-oxobutyl]-3,6,9,15-tetrazabicyclo[9.3.1]pentadeca-1(15),11,13-trien-6-yl]-5-(2,3-dihydroxypropylamino)-5-oxopentanoate;gadolinium(3+)

$$$$
