M08
 OpenBabel10282417173D

 38 40  0  0  0  0  0  0  0  0999 V2000
    1.3950   -0.2738   -0.0186 C   0  0  0  0  0  0  0  0  0  0  0  0
    0.8873    1.0308   -0.0150 C   0  0  0  0  0  0  0  0  0  0  0  0
   -0.4897    1.2446    0.0049 C   0  0  0  0  0  0  0  0  0  0  0  0
   -1.3607    0.1547   -0.0343 C   0  0  0  0  0  0  0  0  0  0  0  0
   -0.8559   -1.1542   -0.0721 C   0  0  0  0  0  0  0  0  0  0  0  0
    0.5263   -1.3707   -0.0626 C   0  0  0  0  0  0  0  0  0  0  0  0
    1.0996   -2.7401   -0.0028 C   0  0  0  0  0  0  0  0  0  0  0  0
    0.7795   -3.7973   -1.0143 C   0  0  0  0  0  0  0  0  0  0  0  0
    1.9555   -3.0956    0.8928 N   0  0  0  0  0  0  0  0  0  0  0  0
    2.2075   -4.4818    0.7077 O   0  0  0  0  0  0  0  0  0  0  0  0
    1.2382   -5.0209   -0.2174 C   0  0  2  0  0  0  0  0  0  0  0  0
    1.8598   -6.0233   -1.0635 O   0  0  0  0  0  0  0  0  0  0  0  0
    2.3388   -7.1613   -0.3024 C   0  0  2  0  0  0  0  0  0  0  0  0
    3.0762   -8.1555   -1.2221 C   0  0  0  0  0  0  0  0  0  0  0  0
    4.1462   -8.7872   -0.5172 O   0  0  0  0  0  0  0  0  0  0  0  0
    1.1642   -7.8698    0.3974 C   0  0  1  0  0  0  0  0  0  0  0  0
    1.5440   -9.0047    1.1835 O   0  0  0  0  0  0  0  0  0  0  0  0
    0.4399   -6.8730    1.3128 C   0  0  2  0  0  0  0  0  0  0  0  0
   -0.7349   -7.5148    1.8406 O   0  0  0  0  0  0  0  0  0  0  0  0
    0.0198   -5.6492    0.5007 C   0  0  1  0  0  0  0  0  0  0  0  0
   -0.6815   -4.6895    1.2986 O   0  0  0  0  0  0  0  0  0  0  0  0
    3.0569   -6.8139    0.4522 H   0  0  0  0  0  0  0  0  0  0  0  0
    0.4492   -8.2360   -0.3517 H   0  0  0  0  0  0  0  0  0  0  0  0
    1.0705   -6.5968    2.1675 H   0  0  0  0  0  0  0  0  0  0  0  0
   -0.6899   -5.9938   -0.2647 H   0  0  0  0  0  0  0  0  0  0  0  0
    2.4698   -0.4284    0.0266 H   0  0  0  0  0  0  0  0  0  0  0  0
    1.5666    1.8803   -0.0116 H   0  0  0  0  0  0  0  0  0  0  0  0
   -0.8822    2.2581    0.0693 H   0  0  0  0  0  0  0  0  0  0  0  0
   -2.4345    0.3304   -0.0179 H   0  0  0  0  0  0  0  0  0  0  0  0
   -1.5535   -1.9864   -0.0506 H   0  0  0  0  0  0  0  0  0  0  0  0
    1.3858   -3.6395   -1.9110 H   0  0  0  0  0  0  0  0  0  0  0  0
   -0.2757   -3.8244   -1.2960 H   0  0  0  0  0  0  0  0  0  0  0  0
    2.4102   -8.9617   -1.5515 H   0  0  0  0  0  0  0  0  0  0  0  0
    3.4783   -7.6817   -2.1212 H   0  0  0  0  0  0  0  0  0  0  0  0
    4.7939   -8.0923   -0.2916 H   0  0  0  0  0  0  0  0  0  0  0  0
    2.0827   -9.6032    0.6294 H   0  0  0  0  0  0  0  0  0  0  0  0
   -0.4481   -8.4213    2.0725 H   0  0  0  0  0  0  0  0  0  0  0  0
   -1.6311   -4.8617    1.1844 H   0  0  0  0  0  0  0  0  0  0  0  0
  1  6  2  0  0  0  0
  1  2  1  0  0  0  0
  1 26  1  0  0  0  0
  2  3  2  0  0  0  0
  2 27  1  0  0  0  0
  3  4  1  0  0  0  0
  3 28  1  0  0  0  0
  4 29  1  0  0  0  0
  5  4  2  0  0  0  0
  5 30  1  0  0  0  0
  6  5  1  0  0  0  0
  7  6  1  0  0  0  0
  8  7  1  0  0  0  0
  8 31  1  0  0  0  0
  8 32  1  0  0  0  0
  9  7  2  0  0  0  0
 10  9  1  0  0  0  0
 11 12  1  6  0  0  0
 11 10  1  0  0  0  0
 11  8  1  0  0  0  0
 13 12  1  0  0  0  0
 13 22  1  1  0  0  0
 13 14  1  0  0  0  0
 14 33  1  0  0  0  0
 14 34  1  0  0  0  0
 15 14  1  0  0  0  0
 15 35  1  0  0  0  0
 16 13  1  0  0  0  0
 16 23  1  6  0  0  0
 16 17  1  0  0  0  0
 17 36  1  0  0  0  0
 18 16  1  0  0  0  0
 18 20  1  0  0  0  0
 18 19  1  0  0  0  0
 18 24  1  1  0  0  0
 19 37  1  0  0  0  0
 20 11  1  0  0  0  0
 20 21  1  0  0  0  0
 20 25  1  6  0  0  0
 21 38  1  0  0  0  0
M  END
>  <DRUGBANK_ID>
DB08151

>  <COMMON_NAME>
(5R,7R,8S,9S,10R)-7-(hydroxymethyl)-3-phenyl-1,6-dioxa-2-azaspiro[4.5]dec-2-ene-8,9,10-triol

$$$$
