TFG
 OpenBabel10282417173D

 45 48  0  0  0  0  0  0  0  0999 V2000
    1.3797   -0.2179   -0.0014 C   0  0  0  0  0  0  0  0  0  0  0  0
    0.5028   -1.3041    0.0209 C   0  0  0  0  0  0  0  0  0  0  0  0
   -0.8744   -1.0894    0.0034 C   0  0  0  0  0  0  0  0  0  0  0  0
   -1.3759    0.2106    0.0147 C   0  0  0  0  0  0  0  0  0  0  0  0
   -0.4996    1.2971    0.0259 C   0  0  0  0  0  0  0  0  0  0  0  0
    0.8835    1.0896   -0.0444 C   0  0  0  0  0  0  0  0  0  0  0  0
    1.7894    2.2052   -0.2824 C   0  0  0  0  0  0  0  0  0  0  0  0
    2.6386    2.4465   -1.3479 C   0  0  0  0  0  0  0  0  0  0  0  0
    3.2905    3.6467   -1.2157 N   0  0  0  0  0  0  0  0  0  0  0  0
    2.8411    4.1696   -0.0931 C   0  0  0  0  0  0  0  0  0  0  0  0
    3.2542    5.4704    0.5329 C   0  0  0  0  0  0  0  0  0  0  0  0
    1.9398    3.3159    0.5048 N   0  0  0  0  0  0  0  0  0  0  0  0
    1.3000    3.5861    1.7758 C   0  0  0  0  0  0  0  0  0  0  0  0
    2.0643    4.6600    2.5375 C   0  0  0  0  0  0  0  0  0  0  0  0
    2.3768    5.7910    1.6614 N   0  0  0  0  0  0  0  0  0  0  0  0
    1.7920    7.0519    1.7078 C   0  0  0  0  0  0  0  0  0  0  0  0
    2.0494    7.9066    0.8558 O   0  0  0  0  0  0  0  0  0  0  0  0
    0.8294    7.3135    2.7556 C   0  0  0  0  0  0  0  0  0  0  0  0
   -0.7329    7.7475    2.2498 S   0  0  0  0  0  0  0  0  0  0  0  0
    0.9410    7.2978    4.1316 C   0  0  0  0  0  0  0  0  0  0  0  0
   -0.2916    7.6379    4.7676 C   0  0  0  0  0  0  0  0  0  0  0  0
   -1.2996    7.9205    3.8556 C   0  0  0  0  0  0  0  0  0  0  0  0
   -2.7476    8.2795    4.1215 C   0  0  0  0  0  0  0  0  0  0  0  0
   -3.4446    7.1176    4.8993 C   0  0  0  0  0  0  0  0  0  0  0  0
   -2.8699    6.9280    6.1149 F   0  0  0  0  0  0  0  0  0  0  0  0
   -4.7520    7.4004    5.1156 F   0  0  0  0  0  0  0  0  0  0  0  0
   -3.3892    5.9410    4.2333 F   0  0  0  0  0  0  0  0  0  0  0  0
   -2.7384    9.5138    4.8411 O   0  0  0  0  0  0  0  0  0  0  0  0
   -3.3817    8.5578    2.8710 O   0  0  0  0  0  0  0  0  0  0  0  0
    2.4524   -0.3987   -0.0022 H   0  0  0  0  0  0  0  0  0  0  0  0
    0.8956   -2.3174    0.0213 H   0  0  0  0  0  0  0  0  0  0  0  0
   -1.5570   -1.9350   -0.0200 H   0  0  0  0  0  0  0  0  0  0  0  0
   -2.4491    0.3813   -0.0171 H   0  0  0  0  0  0  0  0  0  0  0  0
   -0.9106    2.3032    0.0426 H   0  0  0  0  0  0  0  0  0  0  0  0
    2.7963    1.8183   -2.2159 H   0  0  0  0  0  0  0  0  0  0  0  0
    3.2750    6.2643   -0.2203 H   0  0  0  0  0  0  0  0  0  0  0  0
    4.2642    5.3664    0.9429 H   0  0  0  0  0  0  0  0  0  0  0  0
    1.2726    2.6590    2.3566 H   0  0  0  0  0  0  0  0  0  0  0  0
    0.2777    3.9104    1.5534 H   0  0  0  0  0  0  0  0  0  0  0  0
    3.0249    4.2685    2.8918 H   0  0  0  0  0  0  0  0  0  0  0  0
    1.4882    4.9452    3.4152 H   0  0  0  0  0  0  0  0  0  0  0  0
    1.8535    7.0521    4.6631 H   0  0  0  0  0  0  0  0  0  0  0  0
   -0.4246    7.6629    5.8452 H   0  0  0  0  0  0  0  0  0  0  0  0
   -2.2509    9.3640    5.6675 H   0  0  0  0  0  0  0  0  0  0  0  0
   -4.3232    8.6873    3.0643 H   0  0  0  0  0  0  0  0  0  0  0  0
  1  2  1  0  0  0  0
  1  6  2  0  0  0  0
  1 30  1  0  0  0  0
  2  3  2  0  0  0  0
  2 31  1  0  0  0  0
  3  4  1  0  0  0  0
  3 32  1  0  0  0  0
  4  5  2  0  0  0  0
  4 33  1  0  0  0  0
  5  6  1  0  0  0  0
  5 34  1  0  0  0  0
  6  7  1  0  0  0  0
  7  8  2  0  0  0  0
  7 12  1  0  0  0  0
  8  9  1  0  0  0  0
  8 35  1  0  0  0  0
  9 10  2  0  0  0  0
 10 11  1  0  0  0  0
 10 12  1  0  0  0  0
 11 15  1  0  0  0  0
 11 36  1  0  0  0  0
 11 37  1  0  0  0  0
 12 13  1  0  0  0  0
 13 14  1  0  0  0  0
 13 38  1  0  0  0  0
 13 39  1  0  0  0  0
 14 15  1  0  0  0  0
 14 40  1  0  0  0  0
 14 41  1  0  0  0  0
 15 16  1  0  0  0  0
 16 17  2  0  0  0  0
 16 18  1  0  0  0  0
 18 19  1  0  0  0  0
 18 20  2  0  0  0  0
 19 22  1  0  0  0  0
 20 21  1  0  0  0  0
 20 42  1  0  0  0  0
 21 22  2  0  0  0  0
 21 43  1  0  0  0  0
 22 23  1  0  0  0  0
 23 24  1  0  0  0  0
 23 28  1  0  0  0  0
 23 29  1  0  0  0  0
 24 25  1  0  0  0  0
 24 26  1  0  0  0  0
 24 27  1  0  0  0  0
 28 44  1  0  0  0  0
 29 45  1  0  0  0  0
M  END
>  <DRUGBANK_ID>
DB08613

>  <COMMON_NAME>
2,2,2-TRIFLUORO-1-{5-[(3-PHENYL-5,6-DIHYDROIMIDAZO[1,2-A]PYRAZIN-7(8H)-YL)CARBONYL]THIOPHEN-2-YL}ETHANE-1,1-DIOL

$$$$
