
 OpenBabel10282417233D

 53 51  0  0  0  0  0  0  0  0999 V2000
    1.4034    2.2302    0.8415 O   0  0  0  0  0  0  0  0  0  0  0  0
    0.5200    0.2725    0.6077 N   0  0  0  0  0  0  0  0  0  0  0  0
    0.1688    0.7521   -1.2821 C   0  0  0  0  0  0  0  0  0  0  0  0
   -0.0370   -0.7744   -2.6708 C   0  0  0  0  0  0  0  0  0  0  0  0
   -0.2417   -2.5506   -2.3467 C   0  0  0  0  0  0  0  0  0  0  0  0
   -1.5934   -3.0624   -2.3195 C   0  0  0  0  0  0  0  0  0  0  0  0
   -2.0123   -2.4223   -3.5836 C   0  0  3  0  0  0  0  0  0  0  0  0
   -1.3168   -3.2942   -4.5345 N   0  0  0  0  0  0  0  0  0  0  0  0
   -3.4622   -2.2299   -3.4151 C   0  0  0  0  0  0  0  0  0  0  0  0
   -3.8959   -0.9712   -3.6895 O   0  0  0  0  0  0  0  0  0  0  0  0
   -4.1579   -3.1002   -2.9141 O   0  0  0  0  0  0  0  0  0  0  0  0
    2.1557   -0.2050   -0.5667 O   0  0  0  0  0  0  0  0  0  0  0  0
    0.6265   -0.9384   -0.9520 C   0  0  0  0  0  0  0  0  0  0  0  0
    1.7842   -0.2183   -2.5335 C   0  0  0  0  0  0  0  0  0  0  0  0
    3.1741   -0.3182   -2.6864 N   0  0  0  0  0  0  0  0  0  0  0  0
    3.9189    0.7705   -2.5066 C   0  0  0  0  0  0  0  0  0  0  0  0
    5.1393    0.1909   -2.3625 C   0  0  0  0  0  0  0  0  0  0  0  0
    5.0848   -1.1903   -2.4451 N   0  0  0  0  0  0  0  0  0  0  0  0
    3.8538   -1.4719   -2.7755 C   0  0  0  0  0  0  0  0  0  0  0  0
    1.6075   -2.9745   -0.3201 P   0  0  0  0  0  0  0  0  0  0  0  0
    1.2634   -4.1451   -1.3910 O   0  0  0  0  0  0  0  0  0  0  0  0
    3.1017   -2.5209   -0.5715 O   0  0  0  0  0  0  0  0  0  0  0  0
    1.5501   -3.6438    1.0118 O   0  0  0  0  0  0  0  0  0  0  0  0
   -1.2035   -0.9384   -0.9520 P   0  0  0  0  0  0  0  0  0  0  0  0
   -1.4861   -0.2214    0.4950 O   0  0  0  0  0  0  0  0  0  0  0  0
   -1.7183    0.2812   -2.2074 O   0  0  0  0  0  0  0  0  0  0  0  0
   -2.7518   -0.9384   -0.9520 O   0  0  0  0  0  0  0  0  0  0  0  0
    0.5821    1.6398    0.8598 H   0  0  0  0  0  0  0  0  0  0  0  0
    1.9553    1.4375    0.7260 H   0  0  0  0  0  0  0  0  0  0  0  0
    0.1245   -0.6691    0.9060 H   0  0  0  0  0  0  0  0  0  0  0  0
    1.4557   -0.1763    0.6850 H   0  0  0  0  0  0  0  0  0  0  0  0
   -0.7141    1.3681   -0.9694 H   0  0  0  0  0  0  0  0  0  0  0  0
    0.9691    1.5154   -1.4373 H   0  0  0  0  0  0  0  0  0  0  0  0
   -0.0834   -0.5354   -3.7689 H   0  0  0  0  0  0  0  0  0  0  0  0
    0.8949   -1.5996   -2.6472 H   0  0  0  0  0  0  0  0  0  0  0  0
    0.5292   -3.1476   -2.9019 H   0  0  0  0  0  0  0  0  0  0  0  0
   -0.1305   -2.7332   -1.2925 H   0  0  0  0  0  0  0  0  0  0  0  0
   -1.6481   -4.1189   -2.0609 H   0  0  0  0  0  0  0  0  0  0  0  0
   -2.1090   -2.7883   -1.4054 H   0  0  0  0  0  0  0  0  0  0  0  0
   -1.6680   -1.4174   -3.8290 H   0  0  0  0  0  0  0  0  0  0  0  0
   -1.4550   -2.9488   -5.4638 H   0  0  0  0  0  0  0  0  0  0  0  0
   -0.2932   -3.2246   -4.4162 H   0  0  0  0  0  0  0  0  0  0  0  0
   -3.2339   -0.2419   -3.6751 H   0  0  0  0  0  0  0  0  0  0  0  0
    2.8269   -0.1041    0.1366 H   0  0  0  0  0  0  0  0  0  0  0  0
    1.6949   -0.7172   -3.5913 H   0  0  0  0  0  0  0  0  0  0  0  0
    1.4178    0.7625   -2.9835 H   0  0  0  0  0  0  0  0  0  0  0  0
    3.4623    1.7508   -2.3929 H   0  0  0  0  0  0  0  0  0  0  0  0
    6.0437    0.7153   -2.1554 H   0  0  0  0  0  0  0  0  0  0  0  0
    3.3708   -2.4561   -2.8214 H   0  0  0  0  0  0  0  0  0  0  0  0
    0.3597   -4.5507   -1.2488 H   0  0  0  0  0  0  0  0  0  0  0  0
    3.1519   -1.5576   -0.7280 H   0  0  0  0  0  0  0  0  0  0  0  0
   -1.5674   -0.7936    1.2783 H   0  0  0  0  0  0  0  0  0  0  0  0
   -1.1231    0.8150   -2.7848 H   0  0  0  0  0  0  0  0  0  0  0  0
  1 28  1  0  0  0  0
  1 29  1  0  0  0  0
  2  3  1  0  0  0  0
  2 30  1  0  0  0  0
  2 31  1  0  0  0  0
  3  4  1  0  0  0  0
  3 32  1  0  0  0  0
  3 33  1  0  0  0  0
  4  5  1  0  0  0  0
  4 34  1  0  0  0  0
  4 35  1  0  0  0  0
  5  6  1  0  0  0  0
  5 36  1  0  0  0  0
  5 37  1  0  0  0  0
  6  7  1  0  0  0  0
  6 38  1  0  0  0  0
  6 39  1  0  0  0  0
  7  8  1  0  0  0  0
  7  9  1  0  0  0  0
  7 40  1  0  0  0  0
  8 41  1  0  0  0  0
  8 42  1  0  0  0  0
  9 10  1  0  0  0  0
  9 11  2  0  0  0  0
 10 43  1  0  0  0  0
 12 13  1  0  0  0  0
 12 44  1  0  0  0  0
 13 14  1  0  0  0  0
 13 20  1  0  0  0  0
 13 24  1  0  0  0  0
 14 15  1  0  0  0  0
 14 45  1  0  0  0  0
 14 46  1  0  0  0  0
 15 16  1  0  0  0  0
 15 19  1  0  0  0  0
 16 17  2  0  0  0  0
 16 47  1  0  0  0  0
 17 18  1  0  0  0  0
 17 48  1  0  0  0  0
 18 19  2  0  0  0  0
 19 49  1  0  0  0  0
 20 21  1  0  0  0  0
 20 22  1  0  0  0  0
 20 23  2  0  0  0  0
 21 50  1  0  0  0  0
 22 51  1  0  0  0  0
 24 25  1  0  0  0  0
 24 26  1  0  0  0  0
 24 27  2  0  0  0  0
 25 52  1  0  0  0  0
 26 53  1  0  0  0  0
M  END
>  <DRUGBANK_ID>
DB16907

>  <COMMON_NAME>
Zoledronate D,L-Lysine Monohydrate

>  <CAS_NUMBER>
1323976-37-9

>  <UNII>
IL1N7FSO1U

$$$$
