
 OpenBabel10282417213D

 55 58  0  0  1  0  0  0  0  0999 V2000
    0.8212   -0.1966    0.4404 C   0  0  0  0  0  0  0  0  0  0  0  0
    0.2793    1.2431    0.6699 C   0  0  2  0  0  0  0  0  0  0  0  0
   -1.0408    1.2446   -0.1122 C   0  0  0  0  0  0  0  0  0  0  0  0
   -0.8618    1.5087   -1.6328 C   0  0  2  0  0  0  0  0  0  0  0  0
   -0.1759    0.4773   -2.4257 N   0  0  0  0  0  0  0  0  0  0  0  0
   -0.1592    2.8559   -1.8185 C   0  0  0  0  0  0  0  0  0  0  0  0
    1.2316    2.9385   -1.1171 C   0  0  1  0  0  0  0  0  0  0  0  0
    0.9865    2.6231    0.3770 C   0  0  0  0  0  0  0  0  0  0  0  0
    2.3472    2.0507   -1.6647 C   0  0  0  0  0  0  0  0  0  0  0  0
    2.6761    1.9410   -3.0102 C   0  0  0  0  0  0  0  0  0  0  0  0
    2.0986    2.7586   -4.0079 N   0  0  0  0  0  0  0  0  0  0  0  0
    2.1677    2.7112   -5.4037 C   0  0  0  0  0  0  0  0  0  0  0  0
    1.6345    3.5894   -6.0521 O   0  0  0  0  0  0  0  0  0  0  0  0
    2.8703    1.5796   -6.0989 C   0  0  0  0  0  0  0  0  0  0  0  0
    3.9771    1.9260   -6.8158 N   0  0  0  0  0  0  0  0  0  0  0  0
    4.8017    0.9134   -7.2066 C   0  0  0  0  0  0  0  0  0  0  0  0
    4.5934   -0.4097   -6.8077 C   0  0  0  0  0  0  0  0  0  0  0  0
    5.4763   -1.3718   -7.1123 F   0  0  0  0  0  0  0  0  0  0  0  0
    3.4630   -0.7383   -6.0752 C   0  0  0  0  0  0  0  0  0  0  0  0
    2.5339    0.2598   -5.7835 C   0  0  0  0  0  0  0  0  0  0  0  0
    5.8842    1.2502   -8.1290 C   0  0  0  0  0  0  0  0  0  0  0  0
    5.9223    0.6526   -9.3971 C   0  0  0  0  0  0  0  0  0  0  0  0
    4.9561   -0.2066   -9.7594 F   0  0  0  0  0  0  0  0  0  0  0  0
    6.9395    0.9130  -10.3134 C   0  0  0  0  0  0  0  0  0  0  0  0
    7.9655    1.7873   -9.9724 C   0  0  0  0  0  0  0  0  0  0  0  0
    7.9611    2.3899   -8.7147 C   0  0  0  0  0  0  0  0  0  0  0  0
    6.9255    2.1255   -7.8102 C   0  0  0  0  0  0  0  0  0  0  0  0
    6.9786    2.7098   -6.6035 F   0  0  0  0  0  0  0  0  0  0  0  0
    3.6024    0.9436   -3.2937 C   0  0  0  0  0  0  0  0  0  0  0  0
    3.9426   -0.1082   -2.5246 N   0  0  0  0  0  0  0  0  0  0  0  0
    3.6534    0.0386   -1.2483 C   0  0  0  0  0  0  0  0  0  0  0  0
    3.0403    1.1848   -0.7816 C   0  0  0  0  0  0  0  0  0  0  0  0
    0.5593   -0.6195   -0.5296 H   0  0  0  0  0  0  0  0  0  0  0  0
    0.3041   -0.8766    1.1241 H   0  0  0  0  0  0  0  0  0  0  0  0
    1.8733   -0.3967    0.6032 H   0  0  0  0  0  0  0  0  0  0  0  0
    0.1174    1.2790    1.7548 H   0  0  0  0  0  0  0  0  0  0  0  0
   -1.5649    0.2964    0.0504 H   0  0  0  0  0  0  0  0  0  0  0  0
   -1.6850    2.0239    0.3136 H   0  0  0  0  0  0  0  0  0  0  0  0
   -1.8656    1.5633   -2.0627 H   0  0  0  0  0  0  0  0  0  0  0  0
   -0.0311    0.8082   -3.3798 H   0  0  0  0  0  0  0  0  0  0  0  0
    0.7785    0.3370   -2.0924 H   0  0  0  0  0  0  0  0  0  0  0  0
   -0.1323    3.0944   -2.8831 H   0  0  0  0  0  0  0  0  0  0  0  0
   -0.8114    3.6317   -1.3886 H   0  0  0  0  0  0  0  0  0  0  0  0
    1.5813    3.9784   -1.2124 H   0  0  0  0  0  0  0  0  0  0  0  0
    0.3222    3.4173    0.7596 H   0  0  0  0  0  0  0  0  0  0  0  0
    1.9002    2.7818    0.9652 H   0  0  0  0  0  0  0  0  0  0  0  0
    1.5307    3.5447   -3.7116 H   0  0  0  0  0  0  0  0  0  0  0  0
    3.3619   -1.7360   -5.6573 H   0  0  0  0  0  0  0  0  0  0  0  0
    1.6972    0.0351   -5.1269 H   0  0  0  0  0  0  0  0  0  0  0  0
    6.9185    0.4257  -11.2836 H   0  0  0  0  0  0  0  0  0  0  0  0
    8.7631    1.9949  -10.6815 H   0  0  0  0  0  0  0  0  0  0  0  0
    8.7642    3.0631   -8.4276 H   0  0  0  0  0  0  0  0  0  0  0  0
    4.1728    0.9508   -4.2014 H   0  0  0  0  0  0  0  0  0  0  0  0
    3.9138   -0.7891   -0.5958 H   0  0  0  0  0  0  0  0  0  0  0  0
    2.9791    1.2677    0.2963 H   0  0  0  0  0  0  0  0  0  0  0  0
  1 33  1  0  0  0  0
  1 34  1  0  0  0  0
  1 35  1  0  0  0  0
  2  1  1  0  0  0  0
  2  3  1  0  0  0  0
  2  8  1  0  0  0  0
  2 36  1  1  0  0  0
  3 37  1  0  0  0  0
  3 38  1  0  0  0  0
  4  3  1  0  0  0  0
  4  5  1  0  0  0  0
  4  6  1  0  0  0  0
  4 39  1  6  0  0  0
  5 40  1  0  0  0  0
  5 41  1  0  0  0  0
  6 42  1  0  0  0  0
  6 43  1  0  0  0  0
  7  6  1  0  0  0  0
  7  8  1  0  0  0  0
  7  9  1  0  0  0  0
  7 44  1  6  0  0  0
  8 45  1  0  0  0  0
  8 46  1  0  0  0  0
  9 10  2  0  0  0  0
  9 32  1  0  0  0  0
 10 11  1  0  0  0  0
 10 29  1  0  0  0  0
 11 12  1  0  0  0  0
 11 47  1  0  0  0  0
 12 13  2  0  0  0  0
 12 14  1  0  0  0  0
 14 15  2  0  0  0  0
 14 20  1  0  0  0  0
 15 16  1  0  0  0  0
 16 17  2  0  0  0  0
 16 21  1  0  0  0  0
 17 18  1  0  0  0  0
 17 19  1  0  0  0  0
 19 20  2  0  0  0  0
 19 48  1  0  0  0  0
 20 49  1  0  0  0  0
 21 22  2  0  0  0  0
 21 27  1  0  0  0  0
 22 23  1  0  0  0  0
 22 24  1  0  0  0  0
 24 25  2  0  0  0  0
 24 50  1  0  0  0  0
 25 26  1  0  0  0  0
 25 51  1  0  0  0  0
 26 27  2  0  0  0  0
 26 52  1  0  0  0  0
 27 28  1  0  0  0  0
 29 30  2  0  0  0  0
 29 53  1  0  0  0  0
 30 31  1  0  0  0  0
 31 32  2  0  0  0  0
 31 54  1  0  0  0  0
 32 55  1  0  0  0  0
M  END
>  <DRUGBANK_ID>
DB14943

>  <COMMON_NAME>
LGH-447

>  <CAS_NUMBER>
1210608-43-7

>  <UNII>
9TG5O4V25H

$$$$
