1251
 OpenBabel10282417113D

 70 73  0  0  0  0  0  0  0  0999 V2000
    0.8456   -0.3300    0.5794 S   0  0  0  0  0  0  0  0  0  0  0  0
    6.6536    2.7858    0.2174 O   0  0  0  0  0  0  0  0  0  0  0  0
    5.2612    1.6429   -3.7897 O   0  0  0  0  0  0  0  0  0  0  0  0
    0.4129    4.0283    0.2775 O   0  0  0  0  0  0  0  0  0  0  0  0
    4.5867    5.9844   -6.3020 O   0  0  0  0  0  0  0  0  0  0  0  0
    0.1096   -0.7688   -0.6795 O   0  0  0  0  0  0  0  0  0  0  0  0
    0.3786   -0.8678    1.7997 O   0  0  0  0  0  0  0  0  0  0  0  0
    2.1829    2.8774   -0.1377 N   0  0  0  0  0  0  0  0  0  0  0  0
    6.8939    2.2606   -2.1737 N   0  0  0  0  0  0  0  0  0  0  0  0
    0.1960    1.6491    0.3839 N   0  0  0  0  0  0  0  0  0  0  0  0
    2.5682    1.6012    0.0072 C   0  0  0  0  0  0  0  0  0  0  0  0
    2.1025    0.1644   -1.1585 C   0  0  0  0  0  0  0  0  0  0  0  0
    3.3325    1.0716    1.8475 C   0  0  0  0  0  0  0  0  0  0  0  0
    2.1327   -1.7876   -0.4321 C   0  0  0  0  0  0  0  0  0  0  0  0
    4.2506   -0.6017    2.0457 C   0  0  0  0  0  0  0  0  0  0  0  0
    3.0959   -1.9796    1.3774 C   0  0  0  0  0  0  0  0  0  0  0  0
    6.7946    4.5334   -1.2976 C   0  0  0  0  0  0  0  0  0  0  0  0
    6.1613    4.8719   -2.6112 C   0  0  0  0  0  0  0  0  0  0  0  0
    6.7778    3.0895   -0.9746 C   0  0  0  0  0  0  0  0  0  0  0  0
    5.7009    3.9132   -3.5134 C   0  0  0  0  0  0  0  0  0  0  0  0
    6.1775    5.3895   -0.1682 C   0  0  0  0  0  0  0  0  0  0  0  0
    8.3117    4.6470   -1.3273 C   0  0  0  0  0  0  0  0  0  0  0  0
    7.4019    0.8330   -2.1518 C   0  0  0  0  0  0  0  0  0  0  0  0
    5.9327    2.4930   -3.2072 C   0  0  0  0  0  0  0  0  0  0  0  0
    0.8989    2.9136    0.1648 C   0  0  0  0  0  0  0  0  0  0  0  0
    6.0685    6.2135   -2.9499 C   0  0  0  0  0  0  0  0  0  0  0  0
    7.3692    0.0920   -0.8390 C   0  0  0  0  0  0  0  0  0  0  0  0
    5.1517    4.3001   -4.7436 C   0  0  0  0  0  0  0  0  0  0  0  0
    5.9519   -0.1274   -0.8209 C   0  0  0  0  0  0  0  0  0  0  0  0
    5.5407    6.6051   -4.1588 C   0  0  0  0  0  0  0  0  0  0  0  0
    5.0866    5.6593   -5.0707 C   0  0  0  0  0  0  0  0  0  0  0  0
    3.3632   -0.3427    0.1729 C   0  0  0  0  0  0  0  0  0  0  0  0
    5.4881   -1.3807   -0.6972 C   0  0  0  0  0  0  0  0  0  0  0  0
    5.1434    0.9164   -0.9293 C   0  0  0  0  0  0  0  0  0  0  0  0
    4.1797   -1.4465   -0.5258 C   0  0  0  0  0  0  0  0  0  0  0  0
    4.3919    0.8260    0.0929 C   0  0  0  0  0  0  0  0  0  0  0  0
    4.5342    7.3822   -6.6007 C   0  0  0  0  0  0  0  0  0  0  0  0
    2.8779    3.6078   -0.0657 H   0  0  0  0  0  0  0  0  0  0  0  0
   -0.7924    1.7037    0.1095 H   0  0  0  0  0  0  0  0  0  0  0  0
    3.1113    1.7304   -0.9867 H   0  0  0  0  0  0  0  0  0  0  0  0
    1.9250    0.7774   -0.1049 H   0  0  0  0  0  0  0  0  0  0  0  0
    1.4635    0.4572   -1.9731 H   0  0  0  0  0  0  0  0  0  0  0  0
    4.2639    1.6886    2.1179 H   0  0  0  0  0  0  0  0  0  0  0  0
    2.6900    1.0749    2.7154 H   0  0  0  0  0  0  0  0  0  0  0  0
    1.3130   -2.5198   -0.3692 H   0  0  0  0  0  0  0  0  0  0  0  0
    2.5387   -2.1267   -1.4256 H   0  0  0  0  0  0  0  0  0  0  0  0
    4.8483   -0.7630    2.9646 H   0  0  0  0  0  0  0  0  0  0  0  0
    5.2472   -0.5685    1.4688 H   0  0  0  0  0  0  0  0  0  0  0  0
    2.4419   -1.8947    2.2354 H   0  0  0  0  0  0  0  0  0  0  0  0
    3.8171   -2.8331    1.4043 H   0  0  0  0  0  0  0  0  0  0  0  0
    6.5636    5.1346    0.8222 H   0  0  0  0  0  0  0  0  0  0  0  0
    6.4084    6.4491   -0.3109 H   0  0  0  0  0  0  0  0  0  0  0  0
    5.0827    5.2879   -0.1370 H   0  0  0  0  0  0  0  0  0  0  0  0
    8.7289    3.9560   -2.0755 H   0  0  0  0  0  0  0  0  0  0  0  0
    8.6228    5.6560   -1.5569 H   0  0  0  0  0  0  0  0  0  0  0  0
    8.7256    4.3372   -0.3550 H   0  0  0  0  0  0  0  0  0  0  0  0
    8.4272    0.8368   -2.4644 H   0  0  0  0  0  0  0  0  0  0  0  0
    6.8258    0.2324   -2.8974 H   0  0  0  0  0  0  0  0  0  0  0  0
    6.4309    6.9765   -2.2716 H   0  0  0  0  0  0  0  0  0  0  0  0
    7.6536    0.6274    0.0664 H   0  0  0  0  0  0  0  0  0  0  0  0
    7.7639   -0.9283   -0.8200 H   0  0  0  0  0  0  0  0  0  0  0  0
    4.8155    3.5472   -5.4555 H   0  0  0  0  0  0  0  0  0  0  0  0
    5.5151    7.6699   -4.3457 H   0  0  0  0  0  0  0  0  0  0  0  0
    6.0069   -2.2509   -0.3429 H   0  0  0  0  0  0  0  0  0  0  0  0
    5.1486    1.9763   -1.0987 H   0  0  0  0  0  0  0  0  0  0  0  0
    3.9573   -2.5266   -0.5143 H   0  0  0  0  0  0  0  0  0  0  0  0
    4.3235    1.9636    0.4367 H   0  0  0  0  0  0  0  0  0  0  0  0
    3.8822    7.9155   -5.8977 H   0  0  0  0  0  0  0  0  0  0  0  0
    5.5371    7.8278   -6.6081 H   0  0  0  0  0  0  0  0  0  0  0  0
    4.1120    7.5040   -7.6003 H   0  0  0  0  0  0  0  0  0  0  0  0
  1  6  2  0  0  0  0
  1  7  2  0  0  0  0
  1 10  1  0  0  0  0
  1 32  1  0  0  0  0
  2 19  2  0  0  0  0
  3 24  2  0  0  0  0
  4 25  2  0  0  0  0
  5 31  1  0  0  0  0
  5 37  1  0  0  0  0
  8 11  1  0  0  0  0
  8 25  1  0  0  0  0
  8 38  1  0  0  0  0
  9 19  1  0  0  0  0
  9 23  1  0  0  0  0
  9 24  1  0  0  0  0
 10 25  1  0  0  0  0
 10 39  1  0  0  0  0
 11 12  1  0  0  0  0
 11 13  1  0  0  0  0
 11 40  1  0  0  0  0
 12 14  1  0  0  0  0
 12 41  1  0  0  0  0
 12 42  1  0  0  0  0
 13 15  1  0  0  0  0
 13 43  1  0  0  0  0
 13 44  1  0  0  0  0
 14 16  1  0  0  0  0
 14 45  1  0  0  0  0
 14 46  1  0  0  0  0
 15 16  1  0  0  0  0
 15 47  1  0  0  0  0
 15 48  1  0  0  0  0
 16 49  1  0  0  0  0
 16 50  1  0  0  0  0
 17 18  1  0  0  0  0
 17 19  1  0  0  0  0
 17 21  1  0  0  0  0
 17 22  1  0  0  0  0
 18 20  2  0  0  0  0
 18 26  1  0  0  0  0
 20 24  1  0  0  0  0
 20 28  1  0  0  0  0
 21 51  1  0  0  0  0
 21 52  1  0  0  0  0
 21 53  1  0  0  0  0
 22 54  1  0  0  0  0
 22 55  1  0  0  0  0
 22 56  1  0  0  0  0
 23 27  1  0  0  0  0
 23 57  1  0  0  0  0
 23 58  1  0  0  0  0
 26 30  2  0  0  0  0
 26 59  1  0  0  0  0
 27 29  1  0  0  0  0
 27 60  1  0  0  0  0
 27 61  1  0  0  0  0
 28 31  2  0  0  0  0
 28 62  1  0  0  0  0
 29 33  2  0  0  0  0
 29 34  1  0  0  0  0
 30 31  1  0  0  0  0
 30 63  1  0  0  0  0
 32 35  2  0  0  0  0
 32 36  1  0  0  0  0
 33 35  1  0  0  0  0
 33 64  1  0  0  0  0
 34 36  2  0  0  0  0
 34 65  1  0  0  0  0
 35 66  1  0  0  0  0
 36 67  1  0  0  0  0
 37 68  1  0  0  0  0
 37 69  1  0  0  0  0
 37 70  1  0  0  0  0
M  END
>  <DRUGBANK_ID>
DB01251

>  <COMMON_NAME>
Gliquidone

>  <CAS_NUMBER>
33342-05-1

>  <UNII>
C7C2QDD75P

>  <SYNONYMS>
Gliquidona; Gliquidone; Gliquidonum

$$$$
