PNF
 OpenBabel10282417173D

 50 50  0  0  0  0  0  0  0  0999 V2000
    1.3633   -0.2467    0.0167 C   0  0  0  0  0  0  0  0  0  0  0  0
    0.4238   -1.2876   -0.0852 C   0  0  0  0  0  0  0  0  0  0  0  0
   -0.9466   -1.0654   -0.0683 C   0  0  0  0  0  0  0  0  0  0  0  0
   -1.4075    0.2416   -0.0396 C   0  0  0  0  0  0  0  0  0  0  0  0
   -0.4981    1.3115    0.0216 C   0  0  0  0  0  0  0  0  0  0  0  0
    0.8902    1.0647    0.0157 C   0  0  0  0  0  0  0  0  0  0  0  0
    3.3163   -2.0939    0.3243 P   0  0  1  0  0  0  0  0  0  0  0  0
    2.7341   -0.4703    0.1904 O   0  0  0  0  0  0  0  0  0  0  0  0
    2.1789   -2.5264    1.4337 O   0  0  0  0  0  0  0  0  0  0  0  0
    2.8775   -2.4255   -1.1086 O   0  0  0  0  0  0  0  0  0  0  0  0
    3.9322   -3.8113    0.4660 C   0  0  0  0  0  0  0  0  0  0  0  0
    5.0461   -4.0986   -0.5520 C   0  0  0  0  0  0  0  0  0  0  0  0
    6.2130   -3.1258   -0.4058 C   0  0  0  0  0  0  0  0  0  0  0  0
    6.7931   -3.2060    0.9862 C   0  0  0  0  0  0  0  0  0  0  0  0
    8.0848   -3.6274    1.0625 N   0  0  0  0  0  0  0  0  0  0  0  0
    6.1266   -2.9117    1.9757 O   0  0  0  0  0  0  0  0  0  0  0  0
    8.7074   -3.8714    2.3461 C   0  0  0  0  0  0  0  0  0  0  0  0
    9.2305   -5.2996    2.4119 C   0  0  0  0  0  0  0  0  0  0  0  0
   10.3064   -5.5459    1.3481 C   0  0  0  0  0  0  0  0  0  0  0  0
   11.5450   -4.6673    1.5640 C   0  0  0  0  0  0  0  0  0  0  0  0
   12.1896   -4.8653    2.9376 C   0  0  0  0  0  0  0  0  0  0  0  0
   12.7379   -6.2553    3.1193 C   0  0  0  0  0  0  0  0  0  0  0  0
   13.9225   -6.5443    3.2475 O   0  0  0  0  0  0  0  0  0  0  0  0
   11.7962   -7.2146    3.1249 O   0  0  0  0  0  0  0  0  0  0  0  0
   -2.8485    0.4788   -0.1665 N   0  3  0  0  0  0  0  0  0  0  0  0
   -3.2380    1.6538   -0.1943 O   0  0  0  0  0  0  0  0  0  0  0  0
   -3.5916   -0.5103   -0.2624 O   0  5  0  0  0  0  0  0  0  0  0  0
    0.7186   -2.3289   -0.1717 H   0  0  0  0  0  0  0  0  0  0  0  0
   -1.6116   -1.9259   -0.0861 H   0  0  0  0  0  0  0  0  0  0  0  0
   -0.8573    2.3366    0.0777 H   0  0  0  0  0  0  0  0  0  0  0  0
    1.5844    1.9005   -0.0034 H   0  0  0  0  0  0  0  0  0  0  0  0
    2.3295   -2.2047    2.3387 H   0  0  0  0  0  0  0  0  0  0  0  0
    4.2494   -4.0241    1.4891 H   0  0  0  0  0  0  0  0  0  0  0  0
    3.1055   -4.5109    0.2782 H   0  0  0  0  0  0  0  0  0  0  0  0
    5.3795   -5.1371   -0.4541 H   0  0  0  0  0  0  0  0  0  0  0  0
    4.6440   -4.0025   -1.5696 H   0  0  0  0  0  0  0  0  0  0  0  0
    6.9639   -3.3255   -1.1768 H   0  0  0  0  0  0  0  0  0  0  0  0
    5.8838   -2.0910   -0.5506 H   0  0  0  0  0  0  0  0  0  0  0  0
    8.6289   -3.7380    0.2149 H   0  0  0  0  0  0  0  0  0  0  0  0
    9.5000   -3.1292    2.4754 H   0  0  0  0  0  0  0  0  0  0  0  0
    7.9975   -3.7102    3.1625 H   0  0  0  0  0  0  0  0  0  0  0  0
    9.6169   -5.4919    3.4191 H   0  0  0  0  0  0  0  0  0  0  0  0
    8.4099   -6.0128    2.2730 H   0  0  0  0  0  0  0  0  0  0  0  0
   10.5792   -6.6037    1.3365 H   0  0  0  0  0  0  0  0  0  0  0  0
    9.9038   -5.3744    0.3445 H   0  0  0  0  0  0  0  0  0  0  0  0
   12.2736   -4.8676    0.7712 H   0  0  0  0  0  0  0  0  0  0  0  0
   11.2733   -3.6103    1.4467 H   0  0  0  0  0  0  0  0  0  0  0  0
   13.0159   -4.1542    3.0463 H   0  0  0  0  0  0  0  0  0  0  0  0
   11.5038   -4.6381    3.7608 H   0  0  0  0  0  0  0  0  0  0  0  0
   12.2694   -8.0719    3.1058 H   0  0  0  0  0  0  0  0  0  0  0  0
  1  2  2  0  0  0  0
  1  6  1  0  0  0  0
  1  8  1  0  0  0  0
  2  3  1  0  0  0  0
  2 28  1  0  0  0  0
  3  4  2  0  0  0  0
  3 29  1  0  0  0  0
  4  5  1  0  0  0  0
  4 25  1  0  0  0  0
  5  6  2  0  0  0  0
  5 30  1  0  0  0  0
  6 31  1  0  0  0  0
  7  8  1  0  0  0  0
  7  9  1  0  0  0  0
  7 10  2  6  0  0  0
  7 11  1  0  0  0  0
  9 32  1  0  0  0  0
 11 12  1  0  0  0  0
 11 33  1  0  0  0  0
 11 34  1  0  0  0  0
 12 13  1  0  0  0  0
 12 35  1  0  0  0  0
 12 36  1  0  0  0  0
 13 14  1  0  0  0  0
 13 37  1  0  0  0  0
 13 38  1  0  0  0  0
 14 15  1  0  0  0  0
 14 16  2  0  0  0  0
 15 17  1  0  0  0  0
 15 39  1  0  0  0  0
 17 18  1  0  0  0  0
 17 40  1  0  0  0  0
 17 41  1  0  0  0  0
 18 19  1  0  0  0  0
 18 42  1  0  0  0  0
 18 43  1  0  0  0  0
 19 20  1  0  0  0  0
 19 44  1  0  0  0  0
 19 45  1  0  0  0  0
 20 21  1  0  0  0  0
 20 46  1  0  0  0  0
 20 47  1  0  0  0  0
 21 22  1  0  0  0  0
 21 48  1  0  0  0  0
 21 49  1  0  0  0  0
 22 23  2  0  0  0  0
 22 24  1  0  0  0  0
 24 50  1  0  0  0  0
 25 26  2  0  0  0  0
 25 27  1  0  0  0  0
M  CHG  2  25   1  27  -1
M  END
>  <DRUGBANK_ID>
DB08412

>  <COMMON_NAME>
6-{4-[HYDROXY-(4-NITRO-PHENOXY)-PHOSPHORYL]-BUTYRYLAMINO}-HEXANOIC ACID

$$$$
