P9A
 OpenBabel10282417173D

 61 65  0  0  0  0  0  0  0  0999 V2000
    1.2735   -0.2479   -0.9576 O   0  0  0  0  0  0  0  0  0  0  0  0
   -1.3414    0.0054    2.3486 O   0  0  0  0  0  0  0  0  0  0  0  0
   -3.3751   -5.2979   -0.8912 O   0  0  0  0  0  0  0  0  0  0  0  0
   -1.1466   -2.4664    2.8470 O   0  0  0  0  0  0  0  0  0  0  0  0
    1.3229   -4.5094   -1.2797 O   0  0  0  0  0  0  0  0  0  0  0  0
    3.6272   -3.2381   -1.5816 O   0  0  0  0  0  0  0  0  0  0  0  0
    3.9444   -1.3310   -0.4472 O   0  0  0  0  0  0  0  0  0  0  0  0
   -1.2550   -4.3713   -0.5610 N   0  0  0  0  0  0  0  0  0  0  0  0
   -2.6553   -4.2781   -0.9336 C   0  0  0  0  0  0  0  0  0  0  0  0
   -3.3991   -2.9533   -1.1614 C   0  0  0  0  0  0  0  0  0  0  0  0
   -3.5531   -2.1540    0.1042 C   0  0  0  0  0  0  0  0  0  0  0  0
   -2.1440   -1.9029    0.7059 C   0  0  2  0  0  0  0  0  0  0  0  0
   -2.1259   -0.5712    1.6760 C   0  0  0  0  0  0  0  0  0  0  0  0
   -3.3591    0.1292    1.6121 C   0  0  0  0  0  0  0  0  0  0  0  0
   -2.8902    0.5660   -0.1166 C   0  0  0  0  0  0  0  0  0  0  0  0
   -1.3332    0.5339   -0.7856 C   0  0  2  0  0  0  0  0  0  0  0  0
   -1.0044   -0.9601   -0.4450 C   0  0  1  0  0  0  0  0  0  0  0  0
    0.3713   -0.5608    0.0754 C   0  0  2  0  0  0  0  0  0  0  0  0
    0.7551    0.5691    1.1426 C   0  0  0  0  0  0  0  0  0  0  0  0
    0.5187    1.7248    0.2810 C   0  0  2  0  0  0  0  0  0  0  0  0
   -0.9468    1.7985   -0.0183 C   0  0  0  0  0  0  0  0  0  0  0  0
   -0.0318    1.2711   -1.9498 C   0  0  0  0  0  0  0  0  0  0  0  0
    1.1908    1.1737   -0.9547 C   0  0  2  0  0  0  0  0  0  0  0  0
    2.6906    1.5421   -0.7809 C   0  0  0  0  0  0  0  0  0  0  0  0
   -2.3000   -3.6960    1.4820 C   0  0  0  0  0  0  0  0  0  0  0  0
    3.3236   -2.5292   -0.6957 C   0  0  0  0  0  0  0  0  0  0  0  0
    2.2381   -2.8690    0.2965 C   0  0  0  0  0  0  0  0  0  0  0  0
    1.1648   -3.6912   -0.1946 C   0  0  0  0  0  0  0  0  0  0  0  0
   -0.1204   -3.6042    0.3723 C   0  0  0  0  0  0  0  0  0  0  0  0
   -0.1374   -2.8352    1.7964 C   0  0  0  0  0  0  0  0  0  0  0  0
    0.9117   -2.0457    2.2116 C   0  0  0  0  0  0  0  0  0  0  0  0
    2.0984   -2.0432    1.4574 C   0  0  0  0  0  0  0  0  0  0  0  0
   -0.9455   -1.5470   -1.3983 H   0  0  0  0  0  0  0  0  0  0  0  0
    0.6319   -1.5337    0.1542 H   0  0  0  0  0  0  0  0  0  0  0  0
    0.8764    2.6672    0.6967 H   0  0  0  0  0  0  0  0  0  0  0  0
   -2.1230   -2.3196    2.7169 H   0  0  0  0  0  0  0  0  0  0  0  0
    2.2709   -4.4731   -1.5261 H   0  0  0  0  0  0  0  0  0  0  0  0
    4.6617   -1.2408   -1.1047 H   0  0  0  0  0  0  0  0  0  0  0  0
   -1.1432   -5.3559   -0.3089 H   0  0  0  0  0  0  0  0  0  0  0  0
   -4.4408   -3.1245   -1.4923 H   0  0  0  0  0  0  0  0  0  0  0  0
   -2.9061   -2.4065   -1.9593 H   0  0  0  0  0  0  0  0  0  0  0  0
   -4.1586   -2.6743    0.8642 H   0  0  0  0  0  0  0  0  0  0  0  0
   -4.2534   -1.3310   -0.0235 H   0  0  0  0  0  0  0  0  0  0  0  0
   -3.7584   -0.8046    2.1379 H   0  0  0  0  0  0  0  0  0  0  0  0
   -3.2765    0.8096    2.5040 H   0  0  0  0  0  0  0  0  0  0  0  0
   -3.2530   -0.2052   -0.7731 H   0  0  0  0  0  0  0  0  0  0  0  0
   -3.4811    1.3983   -0.4423 H   0  0  0  0  0  0  0  0  0  0  0  0
    1.7893    0.5727    1.5045 H   0  0  0  0  0  0  0  0  0  0  0  0
    0.3302    0.7931    2.1090 H   0  0  0  0  0  0  0  0  0  0  0  0
   -1.1744    2.6068   -0.7317 H   0  0  0  0  0  0  0  0  0  0  0  0
   -1.5480    2.0391    0.8469 H   0  0  0  0  0  0  0  0  0  0  0  0
    0.7681    0.8793   -2.6509 H   0  0  0  0  0  0  0  0  0  0  0  0
   -0.5220    0.8123   -2.8130 H   0  0  0  0  0  0  0  0  0  0  0  0
    3.0962    1.1279    0.1790 H   0  0  0  0  0  0  0  0  0  0  0  0
    3.3725    1.0793   -1.4979 H   0  0  0  0  0  0  0  0  0  0  0  0
    2.8486    2.6111   -0.6725 H   0  0  0  0  0  0  0  0  0  0  0  0
   -1.4284   -4.4093    1.6691 H   0  0  0  0  0  0  0  0  0  0  0  0
   -2.7012   -3.8343    2.4904 H   0  0  0  0  0  0  0  0  0  0  0  0
   -3.0246   -4.3267    1.0150 H   0  0  0  0  0  0  0  0  0  0  0  0
    0.4416   -1.0957    2.5259 H   0  0  0  0  0  0  0  0  0  0  0  0
    2.6175   -1.0777    1.3559 H   0  0  0  0  0  0  0  0  0  0  0  0
  2 13  2  0  0  0  0
  3  9  2  0  0  0  0
  4 30  1  0  0  0  0
  4 36  1  0  0  0  0
  5 28  1  0  0  0  0
  5 37  1  0  0  0  0
  6 26  2  0  0  0  0
  7 38  1  0  0  0  0
  8 29  1  0  0  0  0
  8 39  1  0  0  0  0
  9  8  1  0  0  0  0
 10  9  1  0  0  0  0
 10 11  1  0  0  0  0
 10 40  1  0  0  0  0
 10 41  1  0  0  0  0
 11 42  1  0  0  0  0
 11 43  1  0  0  0  0
 12 11  1  6  0  0  0
 12 25  1  0  0  0  0
 12 17  1  0  0  0  0
 13 12  1  0  0  0  0
 14 13  1  0  0  0  0
 14 15  1  0  0  0  0
 14 44  1  0  0  0  0
 14 45  1  0  0  0  0
 15 46  1  0  0  0  0
 15 47  1  0  0  0  0
 16 15  1  6  0  0  0
 16 21  1  0  0  0  0
 16 22  1  0  0  0  0
 16 17  1  0  0  0  0
 17 18  1  0  0  0  0
 17 33  1  6  0  0  0
 18  1  1  0  0  0  0
 18 19  1  0  0  0  0
 18 34  1  1  0  0  0
 19 48  1  0  0  0  0
 19 49  1  0  0  0  0
 20 19  1  0  0  0  0
 20 23  1  0  0  0  0
 20 35  1  1  0  0  0
 21 20  1  0  0  0  0
 21 50  1  0  0  0  0
 21 51  1  0  0  0  0
 22 23  1  0  0  0  0
 22 52  1  0  0  0  0
 22 53  1  0  0  0  0
 23  1  1  0  0  0  0
 23 24  1  6  0  0  0
 24 54  1  0  0  0  0
 24 55  1  0  0  0  0
 24 56  1  0  0  0  0
 25 57  1  0  0  0  0
 25 58  1  0  0  0  0
 25 59  1  0  0  0  0
 26  7  1  0  0  0  0
 27 26  1  0  0  0  0
 27 32  1  0  0  0  0
 28 27  2  0  0  0  0
 29 28  1  0  0  0  0
 29 30  2  0  0  0  0
 30 31  1  0  0  0  0
 31 32  2  0  0  0  0
 31 60  1  0  0  0  0
 32 61  1  0  0  0  0
M  END
>  <DRUGBANK_ID>
DB08366

>  <COMMON_NAME>
3-({3-[(1S,4aS,6S,7S,9S,9aR)-1,6-dimethyl-2-oxodecahydro-6,9-epoxy-4a,7-methanobenzo[7]annulen-1-yl]propanoyl}amino)-2,4-dihydroxybenzoic acid

$$$$
