
 OpenBabel10282417123D

 57 60  0  0  0  0  0  0  0  0999 V2000
    0.6314    2.4606   -1.3043 C   0  0  0  0  0  0  0  0  0  0  0  0
    0.2393    1.7810    0.0244 C   0  0  0  0  0  0  0  0  0  0  0  0
    0.8736    2.5381    1.2145 C   0  0  0  0  0  0  0  0  0  0  0  0
   -1.2764    1.9223    0.2431 C   0  0  0  0  0  0  0  0  0  0  0  0
   -2.1722    0.7838   -0.1748 C   0  0  0  0  0  0  0  0  0  0  0  0
   -1.6396   -0.6500   -0.0263 C   0  0  0  0  0  0  0  0  0  0  0  0
   -2.1666   -1.4026   -1.2777 C   0  0  0  0  0  0  0  0  0  0  0  0
   -2.2918   -1.2963    1.2213 C   0  0  0  0  0  0  0  0  0  0  0  0
   -0.1170   -0.7469    0.0321 C   0  0  0  0  0  0  0  0  0  0  0  0
    0.4628   -2.0309    0.0722 C   0  0  0  0  0  0  0  0  0  0  0  0
    1.8402   -2.2853    0.0373 C   0  0  0  0  0  0  0  0  0  0  0  0
    2.6689   -1.1683   -0.0591 C   0  0  0  0  0  0  0  0  0  0  0  0
    2.1317    0.1184   -0.0469 C   0  0  0  0  0  0  0  0  0  0  0  0
    0.7414    0.3514    0.0143 C   0  0  0  0  0  0  0  0  0  0  0  0
    2.4183   -3.6945    0.0561 C   0  0  0  0  0  0  0  0  0  0  0  0
    1.7714   -4.8324    0.0992 N   0  0  0  0  0  0  0  0  0  0  0  0
    0.3856   -4.7264    0.1662 O   0  0  0  0  0  0  0  0  0  0  0  0
    3.9193   -3.8390    0.0179 C   0  0  0  0  0  0  0  0  0  0  0  0
    4.7148   -3.2857    1.0257 C   0  0  0  0  0  0  0  0  0  0  0  0
    6.1049   -3.4187    0.9753 C   0  0  0  0  0  0  0  0  0  0  0  0
    6.7232   -4.1589   -0.0430 C   0  0  0  0  0  0  0  0  0  0  0  0
    8.1208   -4.3482   -0.0451 C   0  0  0  0  0  0  0  0  0  0  0  0
    8.7513   -5.0976   -1.0454 C   0  0  0  0  0  0  0  0  0  0  0  0
    7.9562   -5.6540   -2.0590 C   0  0  0  0  0  0  0  0  0  0  0  0
    6.5654   -5.4670   -2.0724 C   0  0  0  0  0  0  0  0  0  0  0  0
    5.9260   -4.7298   -1.0620 C   0  0  0  0  0  0  0  0  0  0  0  0
    4.5242   -4.5536   -1.0253 C   0  0  0  0  0  0  0  0  0  0  0  0
   10.2271   -5.3408   -1.1000 C   0  0  0  0  0  0  0  0  0  0  0  0
   10.9824   -4.8005   -0.1238 O   0  0  0  0  0  0  0  0  0  0  0  0
   10.7384   -6.0013   -1.9990 O   0  0  0  0  0  0  0  0  0  0  0  0
    1.7155    2.4667   -1.4690 H   0  0  0  0  0  0  0  0  0  0  0  0
    0.1748    1.9485   -2.1600 H   0  0  0  0  0  0  0  0  0  0  0  0
    0.3035    3.5051   -1.3208 H   0  0  0  0  0  0  0  0  0  0  0  0
    0.5808    2.0638    2.1621 H   0  0  0  0  0  0  0  0  0  0  0  0
    1.9658    2.5594    1.1919 H   0  0  0  0  0  0  0  0  0  0  0  0
    0.5196    3.5743    1.2392 H   0  0  0  0  0  0  0  0  0  0  0  0
   -1.4861    2.1163    1.3011 H   0  0  0  0  0  0  0  0  0  0  0  0
   -1.6322    2.8177   -0.2844 H   0  0  0  0  0  0  0  0  0  0  0  0
   -3.0940    0.8859    0.4143 H   0  0  0  0  0  0  0  0  0  0  0  0
   -2.4826    0.9670   -1.2095 H   0  0  0  0  0  0  0  0  0  0  0  0
   -2.0144   -2.4854   -1.2321 H   0  0  0  0  0  0  0  0  0  0  0  0
   -3.2442   -1.2362   -1.3969 H   0  0  0  0  0  0  0  0  0  0  0  0
   -1.6701   -1.0347   -2.1846 H   0  0  0  0  0  0  0  0  0  0  0  0
   -3.3791   -1.1496    1.2089 H   0  0  0  0  0  0  0  0  0  0  0  0
   -2.1343   -2.3807    1.2680 H   0  0  0  0  0  0  0  0  0  0  0  0
   -1.9043   -0.8618    2.1488 H   0  0  0  0  0  0  0  0  0  0  0  0
   -0.2495   -2.8368    0.1091 H   0  0  0  0  0  0  0  0  0  0  0  0
    3.7475   -1.2407   -0.1473 H   0  0  0  0  0  0  0  0  0  0  0  0
    2.8285    0.9535   -0.1013 H   0  0  0  0  0  0  0  0  0  0  0  0
    0.0685   -5.6438    0.2144 H   0  0  0  0  0  0  0  0  0  0  0  0
    4.2651   -2.7316    1.8461 H   0  0  0  0  0  0  0  0  0  0  0  0
    6.7027   -2.9445    1.7511 H   0  0  0  0  0  0  0  0  0  0  0  0
    8.6858   -3.9072    0.7668 H   0  0  0  0  0  0  0  0  0  0  0  0
    8.4150   -6.2483   -2.8501 H   0  0  0  0  0  0  0  0  0  0  0  0
    5.9843   -5.9155   -2.8770 H   0  0  0  0  0  0  0  0  0  0  0  0
    3.8956   -4.9782   -1.8061 H   0  0  0  0  0  0  0  0  0  0  0  0
   10.5511   -4.2851    0.5756 H   0  0  0  0  0  0  0  0  0  0  0  0
  1  2  1  0  0  0  0
  1 31  1  0  0  0  0
  1 32  1  0  0  0  0
  1 33  1  0  0  0  0
  2  3  1  0  0  0  0
  2  4  1  0  0  0  0
  2 14  1  0  0  0  0
  3 34  1  0  0  0  0
  3 35  1  0  0  0  0
  3 36  1  0  0  0  0
  4  5  1  0  0  0  0
  4 37  1  0  0  0  0
  4 38  1  0  0  0  0
  5  6  1  0  0  0  0
  5 39  1  0  0  0  0
  5 40  1  0  0  0  0
  6  7  1  0  0  0  0
  6  8  1  0  0  0  0
  6  9  1  0  0  0  0
  7 41  1  0  0  0  0
  7 42  1  0  0  0  0
  7 43  1  0  0  0  0
  8 44  1  0  0  0  0
  8 45  1  0  0  0  0
  8 46  1  0  0  0  0
  9 10  2  0  0  0  0
  9 14  1  0  0  0  0
 10 11  1  0  0  0  0
 10 47  1  0  0  0  0
 11 12  2  0  0  0  0
 11 15  1  0  0  0  0
 12 13  1  0  0  0  0
 12 48  1  0  0  0  0
 13 14  2  0  0  0  0
 13 49  1  0  0  0  0
 15 16  2  0  0  0  0
 15 18  1  0  0  0  0
 16 17  1  0  0  0  0
 17 50  1  0  0  0  0
 18 19  2  0  0  0  0
 18 27  1  0  0  0  0
 19 20  1  0  0  0  0
 19 51  1  0  0  0  0
 20 21  2  0  0  0  0
 20 52  1  0  0  0  0
 21 22  1  0  0  0  0
 21 26  1  0  0  0  0
 22 23  2  0  0  0  0
 22 53  1  0  0  0  0
 23 24  1  0  0  0  0
 23 28  1  0  0  0  0
 24 25  2  0  0  0  0
 24 54  1  0  0  0  0
 25 26  1  0  0  0  0
 25 55  1  0  0  0  0
 26 27  2  0  0  0  0
 27 56  1  0  0  0  0
 28 29  1  0  0  0  0
 28 30  2  0  0  0  0
 29 57  1  0  0  0  0
M  END
>  <DRUGBANK_ID>
DB02258

>  <SECONDARY_ACCESSION_NUMBERS>
EXPT00094

>  <COMMON_NAME>
SR11254

$$$$
