
 OpenBabel10282417103D

 65 68  0  0  1  0  0  0  0  0999 V2000
    1.0508   -0.1142   -1.5343 C   0  0  0  0  0  0  0  0  0  0  0  0
    0.4717   -0.8308   -2.7356 C   0  0  0  0  0  0  0  0  0  0  0  0
   -0.8270   -0.1921   -3.1550 C   0  0  0  0  0  0  0  0  0  0  0  0
   -1.5632    0.1217   -2.0587 C   0  0  0  0  0  0  0  0  0  0  0  0
   -1.2715   -0.7082   -0.8351 C   0  0  2  0  0  0  0  0  0  0  0  0
    0.2501   -0.7756   -0.7005 C   0  0  0  0  0  0  0  0  0  0  0  0
   -2.5413    1.2369   -1.9190 C   0  0  2  0  0  0  0  0  0  0  0  0
   -3.4620    1.1602   -0.6138 C   0  0  0  0  0  0  0  0  0  0  0  0
   -2.5670    1.0583    0.7814 C   0  0  2  0  0  0  0  0  0  0  0  0
   -1.8347   -0.2939    0.5279 C   0  0  2  0  0  0  0  0  0  0  0  0
   -3.1997    1.0685    2.5647 C   0  0  1  0  0  0  0  0  0  0  0  0
   -2.4730   -0.0752    2.9516 C   0  0  2  0  0  0  0  0  0  0  0  0
   -1.6955   -1.2808    2.6995 C   0  0  0  0  0  0  0  0  0  0  0  0
   -0.8392   -0.9230    1.5620 C   0  0  2  0  0  0  0  0  0  0  0  0
   -2.5260    0.6540    4.4941 C   0  0  0  0  0  0  0  0  0  0  0  0
   -3.1455   -0.5619    5.1634 C   0  0  2  0  0  0  0  0  0  0  0  0
   -3.9027   -0.2223    3.9964 C   0  0  1  0  0  0  0  0  0  0  0  0
    0.7574   -1.9948   -2.9997 O   0  0  0  0  0  0  0  0  0  0  0  0
   -1.9278   -2.1009   -1.0797 C   0  0  0  0  0  0  0  0  0  0  0  0
   -3.0053   -1.0739    0.6724 F   0  0  0  0  0  0  0  0  0  0  0  0
   -2.0093    1.9953    0.6359 H   0  0  0  0  0  0  0  0  0  0  0  0
    0.3778   -0.2656    1.9526 O   0  0  0  0  0  0  0  0  0  0  0  0
   -4.2822    1.0119    2.3824 H   0  0  0  0  0  0  0  0  0  0  0  0
   -1.2398    1.3318    2.8658 C   0  0  0  0  0  0  0  0  0  0  0  0
   -4.6044    1.3181    4.3932 O   0  0  0  0  0  0  0  0  0  0  0  0
   -3.8283   -0.4603    6.5175 C   0  0  0  0  0  0  0  0  0  0  0  0
   -3.2883    1.3258   -3.0513 F   0  0  0  0  0  0  0  0  0  0  0  0
   -4.9039   -1.2970    3.5675 C   0  0  0  0  0  0  0  0  0  0  0  0
   -4.7553   -1.9941    2.5758 O   0  0  0  0  0  0  0  0  0  0  0  0
   -6.2204   -1.5531    4.6959 S   0  0  0  0  0  0  0  0  0  0  0  0
   -6.7714   -3.1528    4.1389 C   0  0  0  0  0  0  0  0  0  0  0  0
   -7.4278   -2.9951    2.9651 F   0  0  0  0  0  0  0  0  0  0  0  0
   -4.1736    2.6754    4.5693 C   0  0  0  0  0  0  0  0  0  0  0  0
   -2.6431    3.2419    4.7805 C   0  0  0  0  0  0  0  0  0  0  0  0
   -2.0456    4.1772    3.7149 C   0  0  0  0  0  0  0  0  0  0  0  0
   -5.0542    3.5390    4.6101 O   0  0  0  0  0  0  0  0  0  0  0  0
    2.0806   -0.1452   -1.1961 H   0  0  0  0  0  0  0  0  0  0  0  0
   -0.9731    0.0951   -4.1819 H   0  0  0  0  0  0  0  0  0  0  0  0
    0.7291   -1.7065   -0.3624 H   0  0  0  0  0  0  0  0  0  0  0  0
   -1.9419    2.1582   -1.8751 H   0  0  0  0  0  0  0  0  0  0  0  0
   -4.0888    0.2722   -0.7701 H   0  0  0  0  0  0  0  0  0  0  0  0
   -4.1262    2.0285   -0.6466 H   0  0  0  0  0  0  0  0  0  0  0  0
   -1.0677   -1.5375    3.5543 H   0  0  0  0  0  0  0  0  0  0  0  0
   -2.3220   -2.1398    2.4508 H   0  0  0  0  0  0  0  0  0  0  0  0
   -0.4747   -1.8915    1.2371 H   0  0  0  0  0  0  0  0  0  0  0  0
   -2.6597    1.2947    5.3598 H   0  0  0  0  0  0  0  0  0  0  0  0
   -1.4448    0.4203    4.6622 H   0  0  0  0  0  0  0  0  0  0  0  0
   -2.4734   -1.4263    5.1541 H   0  0  0  0  0  0  0  0  0  0  0  0
   -1.6431   -2.5960   -2.0029 H   0  0  0  0  0  0  0  0  0  0  0  0
   -1.7209   -2.7803   -0.2445 H   0  0  0  0  0  0  0  0  0  0  0  0
   -3.0215   -1.9812   -1.1378 H   0  0  0  0  0  0  0  0  0  0  0  0
    0.4058    0.6831    1.7538 H   0  0  0  0  0  0  0  0  0  0  0  0
   -0.8739    1.7115    1.9186 H   0  0  0  0  0  0  0  0  0  0  0  0
   -1.7849    2.2266    3.0500 H   0  0  0  0  0  0  0  0  0  0  0  0
   -0.4168    1.3244    3.5731 H   0  0  0  0  0  0  0  0  0  0  0  0
   -4.4608   -1.3409    6.6600 H   0  0  0  0  0  0  0  0  0  0  0  0
   -3.1195   -0.4835    7.3481 H   0  0  0  0  0  0  0  0  0  0  0  0
   -4.4592    0.4253    6.6302 H   0  0  0  0  0  0  0  0  0  0  0  0
   -5.9730   -3.8952    4.0199 H   0  0  0  0  0  0  0  0  0  0  0  0
   -7.4820   -3.5286    4.8779 H   0  0  0  0  0  0  0  0  0  0  0  0
   -2.5415    3.5744    5.8208 H   0  0  0  0  0  0  0  0  0  0  0  0
   -1.7894    2.5677    4.8512 H   0  0  0  0  0  0  0  0  0  0  0  0
   -2.3354    5.2041    3.8517 H   0  0  0  0  0  0  0  0  0  0  0  0
   -0.9387    4.0792    3.7547 H   0  0  0  0  0  0  0  0  0  0  0  0
   -2.3010    3.9131    2.6768 H   0  0  0  0  0  0  0  0  0  0  0  0
  1  2  1  0  0  0  0
  1  6  2  0  0  0  0
  1 37  1  0  0  0  0
  2  3  1  0  0  0  0
  2 18  2  0  0  0  0
  3  4  2  0  0  0  0
  3 38  1  0  0  0  0
  4  5  1  0  0  0  0
  4  7  1  0  0  0  0
  5  6  1  0  0  0  0
  5 10  1  0  0  0  0
  5 19  1  1  0  0  0
  6 39  1  0  0  0  0
  7  8  1  0  0  0  0
  7 27  1  0  0  0  0
  7 40  1  1  0  0  0
  8  9  1  0  0  0  0
  8 41  1  0  0  0  0
  8 42  1  0  0  0  0
  9 10  1  0  0  0  0
  9 11  1  0  0  0  0
  9 21  1  6  0  0  0
 10 14  1  0  0  0  0
 10 20  1  1  0  0  0
 11 12  1  0  0  0  0
 11 15  1  0  0  0  0
 11 23  1  6  0  0  0
 12 13  1  0  0  0  0
 12 17  1  0  0  0  0
 12 24  1  1  0  0  0
 13 14  1  0  0  0  0
 13 43  1  0  0  0  0
 13 44  1  0  0  0  0
 14 22  1  0  0  0  0
 14 45  1  6  0  0  0
 15 16  1  0  0  0  0
 15 46  1  0  0  0  0
 15 47  1  0  0  0  0
 16 17  1  0  0  0  0
 16 26  1  0  0  0  0
 16 48  1  6  0  0  0
 17 25  1  1  0  0  0
 17 28  1  0  0  0  0
 19 49  1  0  0  0  0
 19 50  1  0  0  0  0
 19 51  1  0  0  0  0
 22 52  1  0  0  0  0
 24 53  1  0  0  0  0
 24 54  1  0  0  0  0
 24 55  1  0  0  0  0
 26 56  1  0  0  0  0
 26 57  1  0  0  0  0
 26 58  1  0  0  0  0
 28 29  2  0  0  0  0
 28 30  1  0  0  0  0
 30 31  1  0  0  0  0
 31 32  1  0  0  0  0
 31 59  1  0  0  0  0
 31 60  1  0  0  0  0
 33 34  1  0  0  0  0
 33 25  1  0  0  0  0
 33 36  2  0  0  0  0
 34 35  1  0  0  0  0
 34 61  1  0  0  0  0
 34 62  1  0  0  0  0
 35 63  1  0  0  0  0
 35 64  1  0  0  0  0
 35 65  1  0  0  0  0
M  END
>  <DRUGBANK_ID>
DB00588

>  <SECONDARY_ACCESSION_NUMBERS>
APRD00065

>  <COMMON_NAME>
Fluticasone propionate

>  <CAS_NUMBER>
80474-14-2

>  <UNII>
O2GMZ0LF5W

>  <SYNONYMS>
Fluticasone propionate

$$$$
