D2G
 OpenBabel10282417163D

 26 27  0  0  0  0  0  0  0  0999 V2000
    0.6999    1.2721    0.0782 C   0  0  0  0  0  0  0  0  0  0  0  0
    1.4305    0.0778    0.0430 C   0  0  0  0  0  0  0  0  0  0  0  0
    0.7698   -1.1499    0.0206 C   0  0  0  0  0  0  0  0  0  0  0  0
   -0.6137   -1.1462    0.0242 C   0  0  0  0  0  0  0  0  0  0  0  0
   -1.3588   -0.0192    0.0466 N   0  0  0  0  0  0  0  0  0  0  0  0
   -0.6845    1.1627    0.0752 C   0  0  0  0  0  0  0  0  0  0  0  0
    1.3829    2.5496   -0.0403 C   0  0  0  0  0  0  0  0  0  0  0  0
    2.2533    3.0205   -0.9976 C   0  0  0  0  0  0  0  0  0  0  0  0
    2.6427    4.3112   -0.5938 C   0  0  0  0  0  0  0  0  0  0  0  0
    1.9923    4.5684    0.5965 C   0  0  0  0  0  0  0  0  0  0  0  0
    1.2096    3.4908    0.9422 O   0  0  0  0  0  0  0  0  0  0  0  0
    2.0719    5.7566    1.5009 C   0  0  0  0  0  0  0  0  0  0  0  0
    0.7951    6.4593    1.6312 N   0  0  0  0  0  0  0  0  0  0  0  0
    0.9648    7.6898    2.3956 C   0  0  0  0  0  0  0  0  0  0  0  0
    2.5169    0.0981    0.0187 H   0  0  0  0  0  0  0  0  0  0  0  0
    1.3228   -2.0823   -0.0099 H   0  0  0  0  0  0  0  0  0  0  0  0
   -1.1748   -2.0771    0.0041 H   0  0  0  0  0  0  0  0  0  0  0  0
   -1.3191    2.0448    0.0503 H   0  0  0  0  0  0  0  0  0  0  0  0
    2.5625    2.4826   -1.8827 H   0  0  0  0  0  0  0  0  0  0  0  0
    3.3278    4.9792   -1.0939 H   0  0  0  0  0  0  0  0  0  0  0  0
    2.4535    5.4528    2.4820 H   0  0  0  0  0  0  0  0  0  0  0  0
    2.8104    6.4460    1.0670 H   0  0  0  0  0  0  0  0  0  0  0  0
    0.4446    6.6831    0.7012 H   0  0  0  0  0  0  0  0  0  0  0  0
    1.6482    8.3856    1.8957 H   0  0  0  0  0  0  0  0  0  0  0  0
   -0.0008    8.1929    2.5053 H   0  0  0  0  0  0  0  0  0  0  0  0
    1.3449    7.4838    3.4018 H   0  0  0  0  0  0  0  0  0  0  0  0
  1  2  2  0  0  0  0
  1  6  1  0  0  0  0
  1  7  1  0  0  0  0
  2  3  1  0  0  0  0
  2 15  1  0  0  0  0
  3  4  2  0  0  0  0
  3 16  1  0  0  0  0
  4  5  1  0  0  0  0
  4 17  1  0  0  0  0
  5  6  2  0  0  0  0
  6 18  1  0  0  0  0
  7  8  2  0  0  0  0
  7 11  1  0  0  0  0
  8  9  1  0  0  0  0
  8 19  1  0  0  0  0
  9 10  2  0  0  0  0
  9 20  1  0  0  0  0
 10 11  1  0  0  0  0
 10 12  1  0  0  0  0
 12 13  1  0  0  0  0
 12 21  1  0  0  0  0
 12 22  1  0  0  0  0
 13 14  1  0  0  0  0
 13 23  1  0  0  0  0
 14 24  1  0  0  0  0
 14 25  1  0  0  0  0
 14 26  1  0  0  0  0
M  END
>  <DRUGBANK_ID>
DB07617

>  <COMMON_NAME>
N-METHYL(5-(PYRIDIN-3-YL)FURAN-2-YL)METHANAMINE

>  <UNII>
9H3XGZ5L94

$$$$
