
 OpenBabel10282417203D

 51 52  0  0  0  0  0  0  0  0999 V2000
    1.2539    0.1611    0.1218 C   0  0  0  0  0  0  0  0  0  0  0  0
    0.6525    1.3771   -0.5793 C   0  0  0  0  0  0  0  0  0  0  0  0
    1.5321    1.6268   -1.8234 C   0  0  0  0  0  0  0  0  0  0  0  0
   -0.8182    1.2413   -0.7245 N   0  0  0  0  0  0  0  0  0  0  0  0
   -1.4821    2.4854   -1.2372 C   0  0  0  0  0  0  0  0  0  0  0  0
   -1.3070    2.9411   -2.7162 C   0  0  0  0  0  0  0  0  0  0  0  0
   -1.9138    2.0535   -3.8464 C   0  0  0  0  0  0  0  0  0  0  0  0
   -3.4005    1.9155   -3.7742 C   0  0  0  0  0  0  0  0  0  0  0  0
   -3.9757    0.6253   -3.6416 C   0  0  0  0  0  0  0  0  0  0  0  0
   -5.3217    0.5012   -3.3406 C   0  0  0  0  0  0  0  0  0  0  0  0
   -6.0575    1.6581   -3.1744 C   0  0  0  0  0  0  0  0  0  0  0  0
   -5.4767    2.9274   -3.2622 C   0  0  0  0  0  0  0  0  0  0  0  0
   -4.1409    3.0553   -3.6070 C   0  0  0  0  0  0  0  0  0  0  0  0
   -1.1971    2.1178   -5.1622 C   0  0  0  0  0  0  0  0  0  0  0  0
   -0.9459    3.3686   -5.7197 C   0  0  0  0  0  0  0  0  0  0  0  0
   -0.2791    3.4531   -6.9149 C   0  0  0  0  0  0  0  0  0  0  0  0
    0.2003    2.3087   -7.5635 C   0  0  0  0  0  0  0  0  0  0  0  0
    0.0461    1.0517   -6.9708 C   0  0  0  0  0  0  0  0  0  0  0  0
   -0.6678    0.9602   -5.7969 C   0  0  0  0  0  0  0  0  0  0  0  0
   -1.3517   -0.0089   -1.3182 C   0  0  0  0  0  0  0  0  0  0  0  0
   -0.6864   -0.3068   -2.6453 C   0  0  0  0  0  0  0  0  0  0  0  0
   -1.2590   -1.3767   -0.6447 C   0  0  0  0  0  0  0  0  0  0  0  0
    1.2737   -0.6965   -0.5513 H   0  0  0  0  0  0  0  0  0  0  0  0
    0.7127   -0.0950    1.0370 H   0  0  0  0  0  0  0  0  0  0  0  0
    2.3014    0.3387    0.3720 H   0  0  0  0  0  0  0  0  0  0  0  0
    0.8176    2.2319    0.0908 H   0  0  0  0  0  0  0  0  0  0  0  0
    1.4645    0.8491   -2.5828 H   0  0  0  0  0  0  0  0  0  0  0  0
    1.3538    2.5857   -2.2970 H   0  0  0  0  0  0  0  0  0  0  0  0
    2.5891    1.6301   -1.5552 H   0  0  0  0  0  0  0  0  0  0  0  0
   -2.5600    2.4534   -1.0144 H   0  0  0  0  0  0  0  0  0  0  0  0
   -1.1404    3.3264   -0.6087 H   0  0  0  0  0  0  0  0  0  0  0  0
   -1.7206    3.9568   -2.7893 H   0  0  0  0  0  0  0  0  0  0  0  0
   -0.2597    3.1362   -2.9239 H   0  0  0  0  0  0  0  0  0  0  0  0
   -1.7713    1.0302   -3.6875 H   0  0  0  0  0  0  0  0  0  0  0  0
   -3.3914   -0.2876   -3.6991 H   0  0  0  0  0  0  0  0  0  0  0  0
   -5.7502   -0.4882   -3.2190 H   0  0  0  0  0  0  0  0  0  0  0  0
   -7.1213    1.5812   -2.9676 H   0  0  0  0  0  0  0  0  0  0  0  0
   -6.0315    3.8245   -3.0497 H   0  0  0  0  0  0  0  0  0  0  0  0
   -3.6704    4.0298   -3.6683 H   0  0  0  0  0  0  0  0  0  0  0  0
   -1.2811    4.2553   -5.1891 H   0  0  0  0  0  0  0  0  0  0  0  0
   -0.1344    4.4377   -7.3570 H   0  0  0  0  0  0  0  0  0  0  0  0
    0.6827    2.3919   -8.5225 H   0  0  0  0  0  0  0  0  0  0  0  0
    0.4704    0.1644   -7.4389 H   0  0  0  0  0  0  0  0  0  0  0  0
   -0.7994   -0.0387   -5.3652 H   0  0  0  0  0  0  0  0  0  0  0  0
   -2.4343    0.1653   -1.4141 H   0  0  0  0  0  0  0  0  0  0  0  0
    0.2420   -0.8651   -2.6885 H   0  0  0  0  0  0  0  0  0  0  0  0
   -1.3916   -0.8146   -3.3076 H   0  0  0  0  0  0  0  0  0  0  0  0
   -0.3338    0.6382   -3.0215 H   0  0  0  0  0  0  0  0  0  0  0  0
   -1.5329   -1.3780    0.4059 H   0  0  0  0  0  0  0  0  0  0  0  0
   -1.9156   -2.0700   -1.1914 H   0  0  0  0  0  0  0  0  0  0  0  0
   -0.2683   -1.8194   -0.7694 H   0  0  0  0  0  0  0  0  0  0  0  0
  1  2  1  0  0  0  0
  1 23  1  0  0  0  0
  1 24  1  0  0  0  0
  1 25  1  0  0  0  0
  2  3  1  0  0  0  0
  2  4  1  0  0  0  0
  2 26  1  0  0  0  0
  3 27  1  0  0  0  0
  3 28  1  0  0  0  0
  3 29  1  0  0  0  0
  4  5  1  0  0  0  0
  4 20  1  0  0  0  0
  5  6  1  0  0  0  0
  5 30  1  0  0  0  0
  5 31  1  0  0  0  0
  6  7  1  0  0  0  0
  6 32  1  0  0  0  0
  6 33  1  0  0  0  0
  7  8  1  0  0  0  0
  7 14  1  0  0  0  0
  7 34  1  0  0  0  0
  8  9  2  0  0  0  0
  8 13  1  0  0  0  0
  9 10  1  0  0  0  0
  9 35  1  0  0  0  0
 10 11  2  0  0  0  0
 10 36  1  0  0  0  0
 11 12  1  0  0  0  0
 11 37  1  0  0  0  0
 12 13  2  0  0  0  0
 12 38  1  0  0  0  0
 13 39  1  0  0  0  0
 14 15  2  0  0  0  0
 14 19  1  0  0  0  0
 15 16  1  0  0  0  0
 15 40  1  0  0  0  0
 16 17  2  0  0  0  0
 16 41  1  0  0  0  0
 17 18  1  0  0  0  0
 17 42  1  0  0  0  0
 18 19  2  0  0  0  0
 18 43  1  0  0  0  0
 19 44  1  0  0  0  0
 20 21  1  0  0  0  0
 20 22  1  0  0  0  0
 20 45  1  0  0  0  0
 21 46  1  0  0  0  0
 21 47  1  0  0  0  0
 21 48  1  0  0  0  0
 22 49  1  0  0  0  0
 22 50  1  0  0  0  0
 22 51  1  0  0  0  0
M  END
>  <DRUGBANK_ID>
DB13476

>  <COMMON_NAME>
Diisopromine

>  <CAS_NUMBER>
5966-41-6

>  <UNII>
2825S6AW9U

>  <SYNONYMS>
Diisopromine

$$$$
