
 OpenBabel10282417173D

 33 33  0  0  0  0  0  0  0  0999 V2000
    0.6593   -0.0257    0.0919 C   0  0  0  0  0  0  0  0  0  0  0  0
    0.2732    4.8201   -0.3977 C   0  0  0  0  0  0  0  0  0  0  0  0
    7.3204    0.9977    3.0398 C   0  0  0  0  0  0  0  0  0  0  0  0
    0.4718    1.4049    0.5669 C   0  0  0  0  0  0  0  0  0  0  0  0
    0.1629    3.3918   -0.9218 C   0  0  0  0  0  0  0  0  0  0  0  0
    3.5356    0.4379   -0.1761 C   0  0  0  0  0  0  0  0  0  0  0  0
    4.2355   -0.4911    0.5905 C   0  0  0  0  0  0  0  0  0  0  0  0
    4.5352    2.2412    1.0202 C   0  0  0  0  0  0  0  0  0  0  0  0
    3.5179    1.7810    0.1728 C   0  0  0  0  0  0  0  0  0  0  0  0
    5.1842   -0.0516    1.4969 C   0  0  0  0  0  0  0  0  0  0  0  0
    5.4052    1.3245    1.6601 C   0  0  0  0  0  0  0  0  0  0  0  0
    2.4924    2.6752   -0.4434 C   0  0  0  0  0  0  0  0  0  0  0  0
    1.0998    2.4384   -0.2895 N   0  0  0  0  0  0  0  0  0  0  0  0
    5.8987   -0.9984    2.1759 O   0  0  0  0  0  0  0  0  0  0  0  0
    2.9352    3.6251   -1.1087 O   0  0  0  0  0  0  0  0  0  0  0  0
    6.4093    1.8955    2.4051 O   0  0  0  0  0  0  0  0  0  0  0  0
    0.6606   -0.1037   -1.0012 H   0  0  0  0  0  0  0  0  0  0  0  0
   -0.0596   -0.7326    0.5084 H   0  0  0  0  0  0  0  0  0  0  0  0
    1.5862   -0.4055    0.5002 H   0  0  0  0  0  0  0  0  0  0  0  0
    1.2534    5.2553   -0.6048 H   0  0  0  0  0  0  0  0  0  0  0  0
   -0.4712    5.4639   -0.8799 H   0  0  0  0  0  0  0  0  0  0  0  0
    0.1101    4.8577    0.6835 H   0  0  0  0  0  0  0  0  0  0  0  0
    6.8051    0.4022    3.8020 H   0  0  0  0  0  0  0  0  0  0  0  0
    7.8444    0.3668    2.3099 H   0  0  0  0  0  0  0  0  0  0  0  0
    8.0848    1.5791    3.5604 H   0  0  0  0  0  0  0  0  0  0  0  0
   -0.6112    1.5764    0.6086 H   0  0  0  0  0  0  0  0  0  0  0  0
    0.8582    1.5249    1.5820 H   0  0  0  0  0  0  0  0  0  0  0  0
    0.3277    3.3724   -2.0043 H   0  0  0  0  0  0  0  0  0  0  0  0
   -0.8715    3.0594   -0.7614 H   0  0  0  0  0  0  0  0  0  0  0  0
    2.9163    0.0894   -0.9952 H   0  0  0  0  0  0  0  0  0  0  0  0
    4.0100   -1.5470    0.4778 H   0  0  0  0  0  0  0  0  0  0  0  0
    4.6726    3.3112    1.1663 H   0  0  0  0  0  0  0  0  0  0  0  0
    5.6617   -1.8889    1.8727 H   0  0  0  0  0  0  0  0  0  0  0  0
  1 17  1  0  0  0  0
  1 18  1  0  0  0  0
  1 19  1  0  0  0  0
  2 20  1  0  0  0  0
  2 21  1  0  0  0  0
  2 22  1  0  0  0  0
  3 23  1  0  0  0  0
  3 24  1  0  0  0  0
  3 25  1  0  0  0  0
  4  1  1  0  0  0  0
  4 26  1  0  0  0  0
  4 27  1  0  0  0  0
  5  2  1  0  0  0  0
  5 28  1  0  0  0  0
  5 29  1  0  0  0  0
  6 30  1  0  0  0  0
  7  6  2  0  0  0  0
  7 31  1  0  0  0  0
  8 32  1  0  0  0  0
  9  6  1  0  0  0  0
  9  8  2  0  0  0  0
 10  7  1  0  0  0  0
 11  8  1  0  0  0  0
 11 10  2  0  0  0  0
 12  9  1  0  0  0  0
 13  4  1  0  0  0  0
 13  5  1  0  0  0  0
 13 12  1  0  0  0  0
 14 10  1  0  0  0  0
 14 33  1  0  0  0  0
 15 12  2  0  0  0  0
 16  3  1  0  0  0  0
 16 11  1  0  0  0  0
M  END
>  <DRUGBANK_ID>
DB08989

>  <COMMON_NAME>
Etamivan

>  <CAS_NUMBER>
304-84-7

>  <UNII>
M44O63YPV9

>  <SYNONYMS>
étamivan; Etamivan; etamiván; Etamivanum; Ethamivan

$$$$
