E6C
 OpenBabel10282417133D

 50 49  0  0  0  0  0  0  0  0999 V2000
    6.8274    2.8005    0.0056 O   0  0  0  0  0  0  0  0  0  0  0  0
    6.0053    0.9282    1.5889 C   0  0  0  0  0  0  0  0  0  0  0  0
    6.4469    1.4254    0.1882 C   0  0  1  0  0  0  0  0  0  0  0  0
    5.6524    0.7794   -0.9532 C   0  0  0  0  0  0  0  0  0  0  0  0
    6.2165   -0.0234   -1.7040 O   0  0  0  0  0  0  0  0  0  0  0  0
    4.3304    1.0596   -1.1666 N   0  0  0  0  0  0  0  0  0  0  0  0
    3.2993    1.8931   -0.4472 C   0  0  2  0  0  0  0  0  0  0  0  0
    2.3222    2.5204   -1.4114 C   0  0  0  0  0  0  0  0  0  0  0  0
    1.1226    2.2644   -1.3749 O   0  0  0  0  0  0  0  0  0  0  0  0
    2.8309    3.5126   -2.1963 N   0  0  0  0  0  0  0  0  0  0  0  0
    4.2313    3.9188   -2.2349 C   0  0  0  0  0  0  0  0  0  0  0  0
    4.8260    3.8552   -3.5828 C   0  0  0  0  0  0  0  0  0  0  0  0
    4.0711    4.8157   -4.4658 C   0  0  0  0  0  0  0  0  0  0  0  0
    4.1801    6.2530   -3.9470 C   0  0  0  0  0  0  0  0  0  0  0  0
    4.6530    4.6540   -5.8439 C   0  0  0  0  0  0  0  0  0  0  0  0
    4.5956    0.5025    1.8520 C   0  0  0  0  0  0  0  0  0  0  0  0
    3.9797   -0.5352    1.6347 O   0  0  0  0  0  0  0  0  0  0  0  0
    3.9158    1.5190    2.3150 O   0  0  0  0  0  0  0  0  0  0  0  0
    3.7914    3.0973    0.4417 C   0  0  0  0  0  0  0  0  0  0  0  0
    2.9959    3.8931    1.5167 C   0  0  0  0  0  0  0  0  0  0  0  0
    2.1552    3.2051    2.6313 C   0  0  0  0  0  0  0  0  0  0  0  0
    4.1136    4.7407    2.1921 C   0  0  0  0  0  0  0  0  0  0  0  0
    7.4498    0.9984    0.1156 H   0  0  0  0  0  0  0  0  0  0  0  0
    2.7183    1.1371    0.0778 H   0  0  0  0  0  0  0  0  0  0  0  0
    6.1235    3.4610    0.0380 H   0  0  0  0  0  0  0  0  0  0  0  0
    6.5207   -0.0036    1.8153 H   0  0  0  0  0  0  0  0  0  0  0  0
    6.2728    1.6734    2.3480 H   0  0  0  0  0  0  0  0  0  0  0  0
    3.9585    0.3846   -1.8400 H   0  0  0  0  0  0  0  0  0  0  0  0
    2.1138    4.0879   -2.6245 H   0  0  0  0  0  0  0  0  0  0  0  0
    4.3259    4.9072   -1.7719 H   0  0  0  0  0  0  0  0  0  0  0  0
    4.8854    3.2495   -1.6922 H   0  0  0  0  0  0  0  0  0  0  0  0
    5.8897    4.1170   -3.4993 H   0  0  0  0  0  0  0  0  0  0  0  0
    4.7710    2.8159   -3.9303 H   0  0  0  0  0  0  0  0  0  0  0  0
    3.0120    4.5321   -4.4946 H   0  0  0  0  0  0  0  0  0  0  0  0
    5.2291    6.5556   -3.8614 H   0  0  0  0  0  0  0  0  0  0  0  0
    3.6544    6.9379   -4.6115 H   0  0  0  0  0  0  0  0  0  0  0  0
    3.7244    6.3853   -2.9576 H   0  0  0  0  0  0  0  0  0  0  0  0
    4.5640    3.6080   -6.1600 H   0  0  0  0  0  0  0  0  0  0  0  0
    4.1155    5.2870   -6.5464 H   0  0  0  0  0  0  0  0  0  0  0  0
    5.7146    4.9182   -5.8358 H   0  0  0  0  0  0  0  0  0  0  0  0
    3.0336    1.3591    1.9189 H   0  0  0  0  0  0  0  0  0  0  0  0
    4.7232    2.8144    0.8786 H   0  0  0  0  0  0  0  0  0  0  0  0
    4.1525    3.9358   -0.1366 H   0  0  0  0  0  0  0  0  0  0  0  0
    2.3228    4.5490    0.9550 H   0  0  0  0  0  0  0  0  0  0  0  0
    2.7651    2.7767    3.4438 H   0  0  0  0  0  0  0  0  0  0  0  0
    1.5294    3.9044    3.1853 H   0  0  0  0  0  0  0  0  0  0  0  0
    1.5033    2.4133    2.2395 H   0  0  0  0  0  0  0  0  0  0  0  0
    4.7177    5.2974    1.4588 H   0  0  0  0  0  0  0  0  0  0  0  0
    3.6937    5.4501    2.8999 H   0  0  0  0  0  0  0  0  0  0  0  0
    4.8283    4.0945    2.7248 H   0  0  0  0  0  0  0  0  0  0  0  0
  1 25  1  0  0  0  0
  2  3  1  0  0  0  0
  2 16  1  0  0  0  0
  2 26  1  0  0  0  0
  2 27  1  0  0  0  0
  3  1  1  0  0  0  0
  3  4  1  0  0  0  0
  3 23  1  6  0  0  0
  4  5  2  0  0  0  0
  4  6  1  0  0  0  0
  6 28  1  0  0  0  0
  7 19  1  0  0  0  0
  7 24  1  1  0  0  0
  7  8  1  0  0  0  0
  7  6  1  0  0  0  0
  8  9  2  0  0  0  0
  8 10  1  0  0  0  0
 10 11  1  0  0  0  0
 10 29  1  0  0  0  0
 11 12  1  0  0  0  0
 11 30  1  0  0  0  0
 11 31  1  0  0  0  0
 12 13  1  0  0  0  0
 12 32  1  0  0  0  0
 12 33  1  0  0  0  0
 13 14  1  0  0  0  0
 13 15  1  0  0  0  0
 13 34  1  0  0  0  0
 14 35  1  0  0  0  0
 14 36  1  0  0  0  0
 14 37  1  0  0  0  0
 15 38  1  0  0  0  0
 15 39  1  0  0  0  0
 15 40  1  0  0  0  0
 16 17  2  0  0  0  0
 16 18  1  0  0  0  0
 18 41  1  0  0  0  0
 19 20  1  0  0  0  0
 19 42  1  0  0  0  0
 19 43  1  0  0  0  0
 20 21  1  0  0  0  0
 20 22  1  0  0  0  0
 20 44  1  0  0  0  0
 21 45  1  0  0  0  0
 21 46  1  0  0  0  0
 21 47  1  0  0  0  0
 22 48  1  0  0  0  0
 22 49  1  0  0  0  0
 22 50  1  0  0  0  0
M  END
>  <DRUGBANK_ID>
DB04126

>  <SECONDARY_ACCESSION_NUMBERS>
EXPT01318

>  <COMMON_NAME>
N-[1-Hydroxycarboxyethyl-Carbonyl]Leucylamino-2-Methyl-Butane

$$$$
