
 OpenBabel10282417213D

 31 33  0  0  0  0  0  0  0  0999 V2000
    0.7766   -0.1213   -0.0602 O   0  0  0  0  0  0  0  0  0  0  0  0
    0.2313   -0.3967    1.1358 C   0  0  0  0  0  0  0  0  0  0  0  0
    0.9112   -0.5925    2.1317 O   0  0  0  0  0  0  0  0  0  0  0  0
   -1.2455   -0.3705    1.0918 C   0  0  0  0  0  0  0  0  0  0  0  0
   -1.9393   -0.9552    0.0308 C   0  0  0  0  0  0  0  0  0  0  0  0
   -3.3423   -0.9606    0.0242 C   0  0  0  0  0  0  0  0  0  0  0  0
   -4.1126   -1.7057   -1.3377 Cl  0  0  0  0  0  0  0  0  0  0  0  0
   -4.0854   -0.3914    1.0777 C   0  0  0  0  0  0  0  0  0  0  0  0
   -3.3595    0.1988    2.1357 C   0  0  0  0  0  0  0  0  0  0  0  0
   -1.9556    0.2044    2.1484 C   0  0  0  0  0  0  0  0  0  0  0  0
   -5.5569   -0.4728    1.1587 C   0  0  0  0  0  0  0  0  0  0  0  0
   -6.2471    0.6974    1.1689 N   0  0  0  0  0  0  0  0  0  0  0  0
   -7.5969    0.6429    1.2537 C   0  0  0  0  0  0  0  0  0  0  0  0
   -8.3731    1.7830    1.0570 C   0  0  0  0  0  0  0  0  0  0  0  0
   -9.7762    1.7429    1.0871 C   0  0  0  0  0  0  0  0  0  0  0  0
  -10.4184    0.5417    1.3501 C   0  0  0  0  0  0  0  0  0  0  0  0
  -11.7761    0.4371    1.3729 O   0  0  0  0  0  0  0  0  0  0  0  0
   -9.6825   -0.6092    1.5775 C   0  0  0  0  0  0  0  0  0  0  0  0
   -8.2831   -0.5646    1.5058 C   0  0  0  0  0  0  0  0  0  0  0  0
   -7.5411   -1.7354    1.6057 C   0  0  0  0  0  0  0  0  0  0  0  0
   -6.1901   -1.7038    1.2998 C   0  0  0  0  0  0  0  0  0  0  0  0
    1.7460   -0.1100    0.0947 H   0  0  0  0  0  0  0  0  0  0  0  0
   -1.3916   -1.4265   -0.7814 H   0  0  0  0  0  0  0  0  0  0  0  0
   -3.8946    0.6400    2.9776 H   0  0  0  0  0  0  0  0  0  0  0  0
   -1.4226    0.6552    2.9842 H   0  0  0  0  0  0  0  0  0  0  0  0
   -7.8731    2.7237    0.8378 H   0  0  0  0  0  0  0  0  0  0  0  0
  -10.3388    2.6506    0.8931 H   0  0  0  0  0  0  0  0  0  0  0  0
  -12.1641    1.3097    1.1967 H   0  0  0  0  0  0  0  0  0  0  0  0
  -10.2023   -1.5484    1.7500 H   0  0  0  0  0  0  0  0  0  0  0  0
   -8.0098   -2.6783    1.8714 H   0  0  0  0  0  0  0  0  0  0  0  0
   -5.6479   -2.6346    1.1755 H   0  0  0  0  0  0  0  0  0  0  0  0
  1  2  1  0  0  0  0
  1 22  1  0  0  0  0
  2  3  2  0  0  0  0
  2  4  1  0  0  0  0
  4  5  2  0  0  0  0
  4 10  1  0  0  0  0
  5  6  1  0  0  0  0
  5 23  1  0  0  0  0
  6  7  1  0  0  0  0
  6  8  2  0  0  0  0
  8  9  1  0  0  0  0
  8 11  1  0  0  0  0
  9 10  2  0  0  0  0
  9 24  1  0  0  0  0
 10 25  1  0  0  0  0
 11 12  2  0  0  0  0
 11 21  1  0  0  0  0
 12 13  1  0  0  0  0
 13 14  2  0  0  0  0
 13 19  1  0  0  0  0
 14 15  1  0  0  0  0
 14 26  1  0  0  0  0
 15 16  2  0  0  0  0
 15 27  1  0  0  0  0
 16 17  1  0  0  0  0
 16 18  1  0  0  0  0
 17 28  1  0  0  0  0
 18 19  2  0  0  0  0
 18 29  1  0  0  0  0
 19 20  1  0  0  0  0
 20 21  2  0  0  0  0
 20 30  1  0  0  0  0
 21 31  1  0  0  0  0
M  END
>  <DRUGBANK_ID>
DB14775

>  <COMMON_NAME>
Cavosonstat

>  <CAS_NUMBER>
1371587-51-7

>  <UNII>
O2Z8Q22ZE4

>  <SYNONYMS>
Cavosonstat

$$$$
