
 OpenBabel10282417223D

 29 30  0  0  1  0  0  0  0  0999 V2000
    2.2015    4.6216    8.8760 N   0  0  0  0  0  0  0  0  0  0  0  0
    2.4871    3.8024    7.8485 C   0  0  0  0  0  0  0  0  0  0  0  0
    2.9021    4.3055    6.7365 N   0  0  0  0  0  0  0  0  0  0  0  0
    3.1892    3.4208    5.7004 C   0  0  0  0  0  0  0  0  0  0  0  0
    3.0667    2.0386    5.7780 C   0  0  0  0  0  0  0  0  0  0  0  0
    3.3745    1.1892    4.7583 N   0  0  0  0  0  0  0  0  0  0  0  0
    3.8418    1.7952    3.6337 C   0  0  0  0  0  0  0  0  0  0  0  0
    3.9257    3.1914    3.5687 C   0  0  0  0  0  0  0  0  0  0  0  0
    3.6095    4.0234    4.5786 N   0  0  0  0  0  0  0  0  0  0  0  0
    4.2846    0.9198    2.4754 C   0  0  2  0  0  0  0  0  0  0  0  0
    5.4990    0.2344    2.8255 O   0  0  0  0  0  0  0  0  0  0  0  0
    4.5195    1.7038    1.1657 C   0  0  2  0  0  0  0  0  0  0  0  0
    4.4108    0.7960    0.0573 O   0  0  0  0  0  0  0  0  0  0  0  0
    5.9248    2.3347    1.1176 C   0  0  0  0  0  0  0  0  0  0  0  0
    6.0169    3.1939   -0.0158 O   0  0  0  0  0  0  0  0  0  0  0  0
    2.5747    1.5070    7.0657 C   0  0  0  0  0  0  0  0  0  0  0  0
    2.3922    0.3209    7.2867 O   0  0  0  0  0  0  0  0  0  0  0  0
    2.3207    2.4623    8.0328 N   0  0  0  0  0  0  0  0  0  0  0  0
    1.8578    4.3160    9.7710 H   0  0  0  0  0  0  0  0  0  0  0  0
    2.3267    5.6154    8.7167 H   0  0  0  0  0  0  0  0  0  0  0  0
    4.2601    3.7297    2.6912 H   0  0  0  0  0  0  0  0  0  0  0  0
    3.5251    0.1431    2.3124 H   0  0  0  0  0  0  0  0  0  0  0  0
    5.7726   -0.2553    2.0281 H   0  0  0  0  0  0  0  0  0  0  0  0
    3.7368    2.4580    1.0095 H   0  0  0  0  0  0  0  0  0  0  0  0
    4.7263    1.2761   -0.7265 H   0  0  0  0  0  0  0  0  0  0  0  0
    6.1490    2.9342    2.0038 H   0  0  0  0  0  0  0  0  0  0  0  0
    6.7018    1.5686    1.0299 H   0  0  0  0  0  0  0  0  0  0  0  0
    6.1338    2.6461   -0.8087 H   0  0  0  0  0  0  0  0  0  0  0  0
    1.9901    2.1072    8.9148 H   0  0  0  0  0  0  0  0  0  0  0  0
  1  2  1  0  0  0  0
  1 19  1  0  0  0  0
  1 20  1  0  0  0  0
  2  3  2  0  0  0  0
  2 18  1  0  0  0  0
  3  4  1  0  0  0  0
  4  5  2  0  0  0  0
  4  9  1  0  0  0  0
  5  6  1  0  0  0  0
  5 16  1  0  0  0  0
  6  7  2  0  0  0  0
  7  8  1  0  0  0  0
  8  9  2  0  0  0  0
  8 21  1  0  0  0  0
 10 22  1  6  0  0  0
 10 11  1  0  0  0  0
 10  7  1  0  0  0  0
 11 23  1  0  0  0  0
 12 14  1  0  0  0  0
 12 24  1  6  0  0  0
 12 13  1  0  0  0  0
 12 10  1  0  0  0  0
 13 25  1  0  0  0  0
 14 15  1  0  0  0  0
 14 26  1  0  0  0  0
 14 27  1  0  0  0  0
 15 28  1  0  0  0  0
 16 17  2  0  0  0  0
 16 18  1  0  0  0  0
 18 29  1  0  0  0  0
M  END
>  <DRUGBANK_ID>
DB15050

>  <COMMON_NAME>
Neopterin

>  <CAS_NUMBER>
2009-64-5

>  <UNII>
9PLD60N7SO

$$$$
