
 OpenBabel10282417213D

  4  1  0  0  0  0  0  0  0  0999 V2000
    1.0677    0.0725   -0.0126 Fe  0  1  0  0  0  0  0  0  0  0  0  0
    0.9926   -0.0958    0.0278 O   0  5  0  0  0  0  0  0  0  0  0  0
    0.9271   -0.0098   -0.0677 O   0  6  0  0  0  0  0  0  0  0  0  0
    1.9926   -0.0958    0.0278 H   0  0  0  0  0  0  0  0  0  0  0  0
  2  4  1  0  0  0  0
M  CHG  3   1   3   2  -1   3  -2
M  END
>  <DRUGBANK_ID>
DB14695

>  <COMMON_NAME>
Ferric oxyhydroxide

>  <CAS_NUMBER>
20344-49-4

>  <UNII>
87PZU03K0K

>  <SYNONYMS>
Hydrated ferric oxide; Iron hydroxide oxide

$$$$
