
 OpenBabel10282417223D

 57 60  0  0  0  0  0  0  0  0999 V2000
    2.3937    1.7065   -0.8709 C   0  0  0  0  0  0  0  0  0  0  0  0
    0.9979    1.6239   -0.4969 C   0  0  1  0  0  0  0  0  0  0  0  0
   -2.5281   -0.6728   -0.2458 C   0  0  2  0  0  0  0  0  0  0  0  0
   -3.6852   -1.4308    0.4367 C   0  0  1  0  0  0  0  0  0  0  0  0
   -0.0094   -0.6242   -0.3025 C   0  0  2  0  0  0  0  0  0  0  0  0
    2.4947    0.0534   -0.5408 C   0  0  0  0  0  0  0  0  0  0  0  0
    1.4894   -0.8988   -0.2820 C   0  0  0  0  0  0  0  0  0  0  0  0
   -0.0281    0.7874    0.2110 C   0  0  2  0  0  0  0  0  0  0  0  0
   -1.2359   -1.4187    0.2402 C   0  0  2  0  0  0  0  0  0  0  0  0
    2.0639    2.9203   -1.7020 C   0  0  0  0  0  0  0  0  0  0  0  0
   -2.4991    0.7624    0.3328 C   0  0  0  0  0  0  0  0  0  0  0  0
   -3.1229   -1.4936    1.8958 C   0  0  0  0  0  0  0  0  0  0  0  0
   -4.9638   -0.7321    0.2068 O   0  0  0  0  0  0  0  0  0  0  0  0
   -1.3157    1.5360   -0.0195 C   0  0  0  0  0  0  0  0  0  0  0  0
   -1.5350   -1.5108    1.7532 C   0  0  0  0  0  0  0  0  0  0  0  0
    0.8256    1.1249   -2.2594 C   0  0  0  0  0  0  0  0  0  0  0  0
   -3.8052   -2.9283   -0.0592 C   0  0  0  0  0  0  0  0  0  0  0  0
   -5.2867    0.4818    0.7570 C   0  0  0  0  0  0  0  0  0  0  0  0
    0.3691    3.2242   -2.1002 C   0  0  0  0  0  0  0  0  0  0  0  0
   -4.7150    1.0377    1.6866 O   0  0  0  0  0  0  0  0  0  0  0  0
   -3.6817   -3.8787    0.7234 O   0  0  0  0  0  0  0  0  0  0  0  0
    4.0678   -0.5461   -0.0671 Cl  0  0  0  0  0  0  0  0  0  0  0  0
   -0.3242    4.1130   -1.7009 O   0  0  0  0  0  0  0  0  0  0  0  0
   -0.1251    2.0431   -2.8925 C   0  0  0  0  0  0  0  0  0  0  0  0
   -6.4424    1.1744    0.1035 C   0  0  0  0  0  0  0  0  0  0  0  0
   -4.0135   -3.2610   -1.5209 C   0  0  0  0  0  0  0  0  0  0  0  0
    0.1736    0.7454    1.2901 H   0  0  0  0  0  0  0  0  0  0  0  0
   -1.2045   -2.4365   -0.1768 H   0  0  0  0  0  0  0  0  0  0  0  0
   -0.2424   -0.7323   -1.3584 H   0  0  0  0  0  0  0  0  0  0  0  0
    1.1455    2.9193    0.5287 C   0  0  0  0  0  0  0  0  0  0  0  0
   -2.6750   -0.5642   -1.7667 C   0  0  0  0  0  0  0  0  0  0  0  0
    1.6962   -1.9425   -0.0369 H   0  0  0  0  0  0  0  0  0  0  0  0
    2.3437    3.2712   -2.7038 H   0  0  0  0  0  0  0  0  0  0  0  0
   -3.3156    1.3507   -0.0805 H   0  0  0  0  0  0  0  0  0  0  0  0
   -2.5050    0.8199    1.4223 H   0  0  0  0  0  0  0  0  0  0  0  0
   -3.3920   -0.6085    2.4775 H   0  0  0  0  0  0  0  0  0  0  0  0
   -3.5743   -2.2971    2.4851 H   0  0  0  0  0  0  0  0  0  0  0  0
   -1.5083    1.7806   -1.0410 H   0  0  0  0  0  0  0  0  0  0  0  0
   -1.3551    2.4968    0.4937 H   0  0  0  0  0  0  0  0  0  0  0  0
   -1.0049   -2.3532    2.2066 H   0  0  0  0  0  0  0  0  0  0  0  0
   -1.1516   -0.6271    2.2747 H   0  0  0  0  0  0  0  0  0  0  0  0
    1.7634    1.2318   -2.8814 H   0  0  0  0  0  0  0  0  0  0  0  0
    0.7908    0.0599   -2.4851 H   0  0  0  0  0  0  0  0  0  0  0  0
    0.0429    2.1689   -3.9485 H   0  0  0  0  0  0  0  0  0  0  0  0
   -1.1185    1.6617   -2.7381 H   0  0  0  0  0  0  0  0  0  0  0  0
   -6.3956    1.1771   -0.9879 H   0  0  0  0  0  0  0  0  0  0  0  0
   -7.3614    0.7330    0.4823 H   0  0  0  0  0  0  0  0  0  0  0  0
   -6.4135    2.2305    0.4144 H   0  0  0  0  0  0  0  0  0  0  0  0
   -4.8520   -2.7035   -1.9381 H   0  0  0  0  0  0  0  0  0  0  0  0
   -3.1046   -3.1306   -2.1020 H   0  0  0  0  0  0  0  0  0  0  0  0
   -4.1971   -4.3334   -1.6312 H   0  0  0  0  0  0  0  0  0  0  0  0
    1.3050    2.5984    1.5690 H   0  0  0  0  0  0  0  0  0  0  0  0
    2.0206    3.5868    0.3860 H   0  0  0  0  0  0  0  0  0  0  0  0
    0.2820    3.5709    0.4925 H   0  0  0  0  0  0  0  0  0  0  0  0
   -1.8995    0.0318   -2.2197 H   0  0  0  0  0  0  0  0  0  0  0  0
   -2.5146   -1.4924   -2.2886 H   0  0  0  0  0  0  0  0  0  0  0  0
   -3.6330   -0.1260   -2.0543 H   0  0  0  0  0  0  0  0  0  0  0  0
  2  1  1  0  0  0  0
  2 30  1  6  0  0  0
  3  9  1  0  0  0  0
  3 31  1  6  0  0  0
  4  3  1  0  0  0  0
  4 13  1  6  0  0  0
  4 17  1  0  0  0  0
  5  7  1  0  0  0  0
  5 29  1  6  0  0  0
  6  1  1  0  0  0  0
  7  6  2  0  0  0  0
  7 32  1  0  0  0  0
  8  2  1  0  0  0  0
  8 27  1  1  0  0  0
  8  5  1  0  0  0  0
  9  5  1  0  0  0  0
  9 28  1  1  0  0  0
 10  1  2  0  0  0  0
 10 33  1  0  0  0  0
 11 14  1  0  0  0  0
 11  3  1  0  0  0  0
 11 34  1  0  0  0  0
 11 35  1  0  0  0  0
 12 15  1  0  0  0  0
 12  4  1  0  0  0  0
 12 36  1  0  0  0  0
 12 37  1  0  0  0  0
 14  8  1  0  0  0  0
 14 38  1  0  0  0  0
 14 39  1  0  0  0  0
 15  9  1  0  0  0  0
 15 40  1  0  0  0  0
 15 41  1  0  0  0  0
 16  2  1  0  0  0  0
 16 42  1  0  0  0  0
 16 43  1  0  0  0  0
 18 13  1  0  0  0  0
 19 10  1  0  0  0  0
 20 18  2  0  0  0  0
 21 17  2  0  0  0  0
 22  6  1  0  0  0  0
 23 19  2  0  0  0  0
 24 19  1  0  0  0  0
 24 16  1  0  0  0  0
 24 44  1  0  0  0  0
 24 45  1  0  0  0  0
 25 18  1  0  0  0  0
 25 46  1  0  0  0  0
 25 47  1  0  0  0  0
 25 48  1  0  0  0  0
 26 17  1  0  0  0  0
 26 49  1  0  0  0  0
 26 50  1  0  0  0  0
 26 51  1  0  0  0  0
 30 52  1  0  0  0  0
 30 53  1  0  0  0  0
 30 54  1  0  0  0  0
 31 55  1  0  0  0  0
 31 56  1  0  0  0  0
 31 57  1  0  0  0  0
M  END
>  <DRUGBANK_ID>
DB15903

>  <COMMON_NAME>
Chlormadinone acetate

>  <CAS_NUMBER>
302-22-7

>  <UNII>
0SY050L61N

>  <SYNONYMS>
Chlormadinone acetate

$$$$
