1559
 OpenBabel10282417113D

 36 38  0  0  0  0  0  0  0  0999 V2000
   -2.0816   -0.1616   -0.2448 Cl  0  0  0  0  0  0  0  0  0  0  0  0
   -3.1143    3.7191    2.5809 S   0  0  0  0  0  0  0  0  0  0  0  0
   -0.7963    6.5150   -0.1699 O   0  0  0  0  0  0  0  0  0  0  0  0
   -2.3710    4.9348    0.3931 N   0  0  0  0  0  0  0  0  0  0  0  0
   -0.1352    3.2536   -1.0794 N   0  0  0  0  0  0  0  0  0  0  0  0
   -1.2636    2.7682    1.0473 C   0  0  0  0  0  0  0  0  0  0  0  0
   -2.1598    3.8129    1.1725 C   0  0  0  0  0  0  0  0  0  0  0  0
   -0.3696    2.4903   -0.0752 C   0  0  0  0  0  0  0  0  0  0  0  0
   -2.3288    2.3229    3.1022 C   0  0  0  0  0  0  0  0  0  0  0  0
   -1.3621    1.9254    2.2142 C   0  0  0  0  0  0  0  0  0  0  0  0
   -2.7489    1.6508    4.3565 C   0  0  0  0  0  0  0  0  0  0  0  0
   -0.8596    4.4619   -1.4262 C   0  0  0  0  0  0  0  0  0  0  0  0
   -1.2609    5.3921   -0.3019 C   0  0  0  0  0  0  0  0  0  0  0  0
    0.3339    1.1785   -0.0703 C   0  0  0  0  0  0  0  0  0  0  0  0
   -3.6008    5.7114    0.3786 C   0  0  0  0  0  0  0  0  0  0  0  0
   -3.3807    0.3073    4.0352 C   0  0  0  0  0  0  0  0  0  0  0  0
   -0.3588   -0.0444   -0.1151 C   0  0  0  0  0  0  0  0  0  0  0  0
    1.7331    1.1928   -0.0248 C   0  0  0  0  0  0  0  0  0  0  0  0
    0.3536   -1.2429   -0.0550 C   0  0  0  0  0  0  0  0  0  0  0  0
    2.4362   -0.0108    0.0105 C   0  0  0  0  0  0  0  0  0  0  0  0
    1.7476   -1.2249    0.0025 C   0  0  0  0  0  0  0  0  0  0  0  0
   -0.7928    1.0170    2.3731 H   0  0  0  0  0  0  0  0  0  0  0  0
   -1.8743    1.5213    5.0033 H   0  0  0  0  0  0  0  0  0  0  0  0
   -3.4678    2.2709    4.9035 H   0  0  0  0  0  0  0  0  0  0  0  0
   -1.7685    4.1821   -1.9710 H   0  0  0  0  0  0  0  0  0  0  0  0
   -0.2475    5.0445   -2.1227 H   0  0  0  0  0  0  0  0  0  0  0  0
   -4.3948    5.0376    0.0285 H   0  0  0  0  0  0  0  0  0  0  0  0
   -3.8628    6.0857    1.3713 H   0  0  0  0  0  0  0  0  0  0  0  0
   -3.5365    6.5487   -0.3193 H   0  0  0  0  0  0  0  0  0  0  0  0
   -2.6685   -0.3567    3.5319 H   0  0  0  0  0  0  0  0  0  0  0  0
   -3.7152   -0.1779    4.9538 H   0  0  0  0  0  0  0  0  0  0  0  0
   -4.2421    0.4303    3.3684 H   0  0  0  0  0  0  0  0  0  0  0  0
    2.2708    2.1388   -0.0163 H   0  0  0  0  0  0  0  0  0  0  0  0
   -0.1731   -2.1946   -0.0604 H   0  0  0  0  0  0  0  0  0  0  0  0
    3.5232   -0.0020    0.0428 H   0  0  0  0  0  0  0  0  0  0  0  0
    2.2979   -2.1623    0.0278 H   0  0  0  0  0  0  0  0  0  0  0  0
  1 17  1  0  0  0  0
  2  7  1  0  0  0  0
  2  9  1  0  0  0  0
  3 13  2  0  0  0  0
  4  7  1  0  0  0  0
  4 13  1  0  0  0  0
  4 15  1  0  0  0  0
  5  8  2  0  0  0  0
  5 12  1  0  0  0  0
  6  7  2  0  0  0  0
  6  8  1  0  0  0  0
  6 10  1  0  0  0  0
  8 14  1  0  0  0  0
  9 10  2  0  0  0  0
  9 11  1  0  0  0  0
 10 22  1  0  0  0  0
 11 16  1  0  0  0  0
 11 23  1  0  0  0  0
 11 24  1  0  0  0  0
 12 13  1  0  0  0  0
 12 25  1  0  0  0  0
 12 26  1  0  0  0  0
 14 17  1  0  0  0  0
 14 18  2  0  0  0  0
 15 27  1  0  0  0  0
 15 28  1  0  0  0  0
 15 29  1  0  0  0  0
 16 30  1  0  0  0  0
 16 31  1  0  0  0  0
 16 32  1  0  0  0  0
 17 19  2  0  0  0  0
 18 20  1  0  0  0  0
 18 33  1  0  0  0  0
 19 21  1  0  0  0  0
 19 34  1  0  0  0  0
 20 21  2  0  0  0  0
 20 35  1  0  0  0  0
 21 36  1  0  0  0  0
M  END
>  <DRUGBANK_ID>
DB01559

>  <COMMON_NAME>
Clotiazepam

>  <CAS_NUMBER>
33671-46-4

>  <UNII>
ZCN055599V

>  <SYNONYMS>
Clotiazepam; Clotiazepamum

$$$$
