
 OpenBabel10282417143D

 27 27  0  0  0  0  0  0  0  0999 V2000
    0.9189   -0.0507   -0.0015 C   0  0  0  0  0  0  0  0  0  0  0  0
    2.2819   -0.0260    0.0126 O   0  0  0  0  0  0  0  0  0  0  0  0
    0.2040   -1.2446   -0.0018 C   0  0  0  0  0  0  0  0  0  0  0  0
   -1.1923   -1.2073   -0.0189 C   0  0  0  0  0  0  0  0  0  0  0  0
   -1.8649    0.0160   -0.0429 C   0  0  0  0  0  0  0  0  0  0  0  0
   -1.1438    1.2207   -0.0392 C   0  0  0  0  0  0  0  0  0  0  0  0
   -1.8687    2.5637   -0.0110 C   0  0  1  0  0  0  0  0  0  0  0  0
   -1.5565    3.3251    1.2266 N   0  0  0  0  0  0  0  0  0  0  0  0
   -2.2384    4.6207    1.2621 C   0  0  0  0  0  0  0  0  0  0  0  0
   -1.9284    2.5656    2.4297 C   0  0  0  0  0  0  0  0  0  0  0  0
   -1.4913    3.3307   -1.2937 C   0  0  0  0  0  0  0  0  0  0  0  0
    0.2592    1.1684   -0.0095 C   0  0  0  0  0  0  0  0  0  0  0  0
    2.6117   -0.9370   -0.0144 H   0  0  0  0  0  0  0  0  0  0  0  0
    0.7106   -2.2025    0.0198 H   0  0  0  0  0  0  0  0  0  0  0  0
   -1.7606   -2.1346   -0.0067 H   0  0  0  0  0  0  0  0  0  0  0  0
   -2.9526    0.0265   -0.0446 H   0  0  0  0  0  0  0  0  0  0  0  0
   -2.9519    2.3807   -0.0500 H   0  0  0  0  0  0  0  0  0  0  0  0
   -3.3274    4.5088    1.2132 H   0  0  0  0  0  0  0  0  0  0  0  0
   -1.9861    5.1627    2.1802 H   0  0  0  0  0  0  0  0  0  0  0  0
   -1.9162    5.2724    0.4452 H   0  0  0  0  0  0  0  0  0  0  0  0
   -3.0021    2.3476    2.4583 H   0  0  0  0  0  0  0  0  0  0  0  0
   -1.3833    1.6190    2.5059 H   0  0  0  0  0  0  0  0  0  0  0  0
   -1.6642    3.1264    3.3332 H   0  0  0  0  0  0  0  0  0  0  0  0
   -1.7107    2.7295   -2.1835 H   0  0  0  0  0  0  0  0  0  0  0  0
   -2.0552    4.2616   -1.4004 H   0  0  0  0  0  0  0  0  0  0  0  0
   -0.4248    3.5832   -1.3196 H   0  0  0  0  0  0  0  0  0  0  0  0
    0.8384    2.0888    0.0299 H   0  0  0  0  0  0  0  0  0  0  0  0
  1  2  1  0  0  0  0
  1  3  2  0  0  0  0
  1 12  1  0  0  0  0
  2 13  1  0  0  0  0
  3 14  1  0  0  0  0
  4  3  1  0  0  0  0
  4 15  1  0  0  0  0
  5  4  2  0  0  0  0
  5 16  1  0  0  0  0
  6  5  1  0  0  0  0
  6  7  1  0  0  0  0
  7  8  1  0  0  0  0
  7 11  1  0  0  0  0
  7 17  1  6  0  0  0
  8  9  1  0  0  0  0
  8 10  1  0  0  0  0
  9 18  1  0  0  0  0
  9 19  1  0  0  0  0
  9 20  1  0  0  0  0
 10 21  1  0  0  0  0
 10 22  1  0  0  0  0
 10 23  1  0  0  0  0
 11 24  1  0  0  0  0
 11 25  1  0  0  0  0
 11 26  1  0  0  0  0
 12  6  2  0  0  0  0
 12 27  1  0  0  0  0
M  END
>  <DRUGBANK_ID>
DB04556

>  <SECONDARY_ACCESSION_NUMBERS>
EXPT02841

>  <COMMON_NAME>
NAP-226-90

>  <CAS_NUMBER>
139306-10-8

>  <UNII>
1608PLR9ZO

>  <SYNONYMS>
(-)-3-((1S)-1-(Dimethylamino)ethyl)phenol; 3-((1S)-1-(Dimethylamino)ethyl)phenol

$$$$
