
 OpenBabel10282417183D

 58 60  0  0  1  0  0  0  0  0999 V2000
    1.0218    0.0353   -0.0996 C   0  0  0  0  0  0  0  0  0  0  0  0
    0.4370    1.3672   -0.1975 N   0  0  0  0  0  0  0  0  0  0  0  0
    1.1760    2.4320   -0.9132 C   0  0  1  0  0  0  0  0  0  0  0  0
    0.5098    2.7511   -2.2712 C   0  0  0  0  0  0  0  0  0  0  0  0
    1.2431    3.8568   -2.8859 N   0  0  0  0  0  0  0  0  0  0  0  0
    1.6848    3.7567   -4.1733 C   0  0  0  0  0  0  0  0  0  0  0  0
    0.9411    3.0748   -5.0885 C   0  0  0  0  0  0  0  0  0  0  0  0
    1.4235    2.8999   -6.3576 C   0  0  0  0  0  0  0  0  0  0  0  0
    2.6566    3.3729   -6.8095 C   0  0  0  0  0  0  0  0  0  0  0  0
    3.4074    4.0866   -5.8701 C   0  0  0  0  0  0  0  0  0  0  0  0
    2.9118    4.2857   -4.5699 C   0  0  0  0  0  0  0  0  0  0  0  0
    3.2288    3.1963   -8.1935 C   0  0  0  0  0  0  0  0  0  0  0  0
    4.3274    3.6885   -8.4559 O   0  0  0  0  0  0  0  0  0  0  0  0
    2.5815    2.5178   -9.2022 N   0  0  0  0  0  0  0  0  0  0  0  0
    1.3467    1.7484   -9.2011 C   0  0  1  0  0  0  0  0  0  0  0  0
    0.2666    2.3688  -10.0823 C   0  0  0  0  0  0  0  0  0  0  0  0
    0.5431    2.2241  -11.5582 C   0  0  0  0  0  0  0  0  0  0  0  0
    0.6377    0.7914  -12.0206 C   0  0  0  0  0  0  0  0  0  0  0  0
   -0.4817    0.2912  -12.5755 O   0  0  0  0  0  0  0  0  0  0  0  0
    1.6433    0.1325  -11.9245 O   0  0  0  0  0  0  0  0  0  0  0  0
    1.5516    0.2262   -9.0071 C   0  0  0  0  0  0  0  0  0  0  0  0
    0.8074   -0.3393   -8.0186 O   0  0  0  0  0  0  0  0  0  0  0  0
    2.3822   -0.4445   -9.5883 O   0  0  0  0  0  0  0  0  0  0  0  0
    1.1149    3.7064   -0.0296 C   0  0  0  0  0  0  0  0  0  0  0  0
   -0.2927    4.0473    0.2498 N   0  0  0  0  0  0  0  0  0  0  0  0
   -1.2128    3.0240    0.4928 C   0  0  0  0  0  0  0  0  0  0  0  0
   -0.8310    1.7198    0.3388 C   0  0  0  0  0  0  0  0  0  0  0  0
   -1.8564    0.6489    0.7087 C   0  0  0  0  0  0  0  0  0  0  0  0
   -1.5942   -0.5418    0.5537 O   0  0  0  0  0  0  0  0  0  0  0  0
   -3.0773    1.0475    1.2018 N   0  0  0  0  0  0  0  0  0  0  0  0
   -3.3385    2.3085    1.2664 C   0  0  0  0  0  0  0  0  0  0  0  0
   -4.5432    2.7016    1.7233 N   0  0  0  0  0  0  0  0  0  0  0  0
   -2.4919    3.2970    0.8919 N   0  0  0  0  0  0  0  0  0  0  0  0
    0.6634   -0.6115   -0.9069 H   0  0  0  0  0  0  0  0  0  0  0  0
    0.7755   -0.4273    0.8629 H   0  0  0  0  0  0  0  0  0  0  0  0
    2.1164    0.0601   -0.1390 H   0  0  0  0  0  0  0  0  0  0  0  0
    2.2226    2.1484   -1.0918 H   0  0  0  0  0  0  0  0  0  0  0  0
    0.5212    1.8325   -2.8770 H   0  0  0  0  0  0  0  0  0  0  0  0
   -0.5519    3.0167   -2.1817 H   0  0  0  0  0  0  0  0  0  0  0  0
    1.1469    4.7922   -2.5102 H   0  0  0  0  0  0  0  0  0  0  0  0
   -0.0398    2.6614   -4.8639 H   0  0  0  0  0  0  0  0  0  0  0  0
    0.6529    2.3661   -6.8492 H   0  0  0  0  0  0  0  0  0  0  0  0
    4.3868    4.4890   -6.1264 H   0  0  0  0  0  0  0  0  0  0  0  0
    3.5183    4.8146   -3.8419 H   0  0  0  0  0  0  0  0  0  0  0  0
    3.1593    2.4194  -10.0338 H   0  0  0  0  0  0  0  0  0  0  0  0
    0.8629    1.9766   -8.3111 H   0  0  0  0  0  0  0  0  0  0  0  0
   -0.7244    1.9861   -9.8011 H   0  0  0  0  0  0  0  0  0  0  0  0
    0.2199    3.4519   -9.8472 H   0  0  0  0  0  0  0  0  0  0  0  0
   -0.2106    2.7667  -12.1321 H   0  0  0  0  0  0  0  0  0  0  0  0
    1.5062    2.6950  -11.7766 H   0  0  0  0  0  0  0  0  0  0  0  0
   -1.0397    0.9586  -13.0069 H   0  0  0  0  0  0  0  0  0  0  0  0
    0.7196    0.1764   -7.1965 H   0  0  0  0  0  0  0  0  0  0  0  0
    1.5974    3.4947    0.9293 H   0  0  0  0  0  0  0  0  0  0  0  0
    1.6535    4.5505   -0.4740 H   0  0  0  0  0  0  0  0  0  0  0  0
   -0.6425    4.9510   -0.0456 H   0  0  0  0  0  0  0  0  0  0  0  0
   -5.1693    1.9642    2.0280 H   0  0  0  0  0  0  0  0  0  0  0  0
   -4.8249    3.6553    1.8710 H   0  0  0  0  0  0  0  0  0  0  0  0
   -2.7219    4.2635    1.0474 H   0  0  0  0  0  0  0  0  0  0  0  0
  1  2  1  0  0  0  0
  1 34  1  0  0  0  0
  1 35  1  0  0  0  0
  1 36  1  0  0  0  0
  2  3  1  0  0  0  0
  2 27  1  0  0  0  0
  3  4  1  0  0  0  0
  3 24  1  0  0  0  0
  3 37  1  6  0  0  0
  4  5  1  0  0  0  0
  4 38  1  0  0  0  0
  4 39  1  0  0  0  0
  5  6  1  0  0  0  0
  5 40  1  0  0  0  0
  6  7  2  0  0  0  0
  6 11  1  0  0  0  0
  7  8  1  0  0  0  0
  7 41  1  0  0  0  0
  8  9  2  0  0  0  0
  8 42  1  0  0  0  0
  9 10  1  0  0  0  0
  9 12  1  0  0  0  0
 10 11  2  0  0  0  0
 10 43  1  0  0  0  0
 11 44  1  0  0  0  0
 12 13  2  0  0  0  0
 12 14  1  0  0  0  0
 14 45  1  0  0  0  0
 15 14  1  0  0  0  0
 15 16  1  0  0  0  0
 15 21  1  0  0  0  0
 15 46  1  1  0  0  0
 16 17  1  0  0  0  0
 16 47  1  0  0  0  0
 16 48  1  0  0  0  0
 17 18  1  0  0  0  0
 17 49  1  0  0  0  0
 17 50  1  0  0  0  0
 18 19  1  0  0  0  0
 18 20  2  0  0  0  0
 19 51  1  0  0  0  0
 21 22  1  0  0  0  0
 21 23  2  0  0  0  0
 22 52  1  0  0  0  0
 24 25  1  0  0  0  0
 24 53  1  0  0  0  0
 24 54  1  0  0  0  0
 25 26  1  0  0  0  0
 25 55  1  0  0  0  0
 26 27  2  0  0  0  0
 26 33  1  0  0  0  0
 27 28  1  0  0  0  0
 28 29  2  0  0  0  0
 28 30  1  0  0  0  0
 30 31  2  0  0  0  0
 31 32  1  0  0  0  0
 31 33  1  0  0  0  0
 32 56  1  0  0  0  0
 32 57  1  0  0  0  0
 33 58  1  0  0  0  0
M  END
>  <DRUGBANK_ID>
DB11256

>  <COMMON_NAME>
Levomefolic acid

>  <CAS_NUMBER>
31690-09-2

>  <UNII>
8S95DH25XC

>  <SYNONYMS>
(6S)-5-methyltetrahydrofolate; (6S)-5-Methyltetrahydrofolic acid; (6S)-5-MTHF; 5-methyl-(6S)-tetrahydrofolic acid; L-5-methyltetrahydrofolate; L-5-MTHF; L-methylfolate; Levomefolate; Levomefolic acid; LMSR; N-[4-[[[(6S)-2-Amino-3,4,5,6,7,8-hexahydro-5-methyl-4-oxo-6-pteridinyl]methyl]amino]benzoyl]-L-glutamic acid

$$$$
