
 OpenBabel10282417233D

 34 33  0  0  0  0  0  0  0  0999 V2000
    1.2427   -0.1100    0.1393 C   0  0  0  0  0  0  0  0  0  0  0  0
    1.2669   -0.7780    1.5363 C   0  0  0  0  0  0  0  0  0  0  0  0
    0.5934    1.2750   -0.0853 C   0  0  1  0  0  0  0  0  0  0  0  0
   -1.7330    0.7851    1.1299 N   0  3  0  0  0  0  0  0  0  0  0  0
    2.3752    2.0304   -1.5158 C   0  0  0  0  0  0  0  0  0  0  0  0
    1.0359    1.8078   -1.3853 O   0  0  0  0  0  0  0  0  0  0  0  0
    1.0264   -0.0289    2.5196 O   0  0  0  0  0  0  0  0  0  0  0  0
    1.2562   -2.0418    1.4975 O   0  5  0  0  0  0  0  0  0  0  0  0
    3.2100    1.8571   -0.6234 O   0  0  0  0  0  0  0  0  0  0  0  0
   -1.0001    1.3054   -0.1207 C   0  0  0  0  0  0  0  0  0  0  0  0
   -1.2272    1.5996    2.3365 C   0  0  0  0  0  0  0  0  0  0  0  0
   -3.2358    0.9105    1.1044 C   0  0  0  0  0  0  0  0  0  0  0  0
   -1.5623   -0.7272    1.2313 C   0  0  0  0  0  0  0  0  0  0  0  0
    2.7647    2.5946   -2.8510 C   0  0  0  0  0  0  0  0  0  0  0  0
    2.2905    1.7608   -4.0215 C   0  0  0  0  0  0  0  0  0  0  0  0
    0.7917   -0.7859   -0.6029 H   0  0  0  0  0  0  0  0  0  0  0  0
    2.2969   -0.1193   -0.1310 H   0  0  0  0  0  0  0  0  0  0  0  0
    0.9347    1.9992    0.6608 H   0  0  0  0  0  0  0  0  0  0  0  0
   -1.3431    2.3428   -0.2637 H   0  0  0  0  0  0  0  0  0  0  0  0
   -1.3881    0.7449   -0.9811 H   0  0  0  0  0  0  0  0  0  0  0  0
   -1.6503    2.6087    2.2435 H   0  0  0  0  0  0  0  0  0  0  0  0
   -1.5511    1.1305    3.2655 H   0  0  0  0  0  0  0  0  0  0  0  0
   -0.1532    1.7482    2.3171 H   0  0  0  0  0  0  0  0  0  0  0  0
   -3.6192    0.3254    0.2628 H   0  0  0  0  0  0  0  0  0  0  0  0
   -3.6070    0.4793    2.0453 H   0  0  0  0  0  0  0  0  0  0  0  0
   -3.5228    1.9560    1.0183 H   0  0  0  0  0  0  0  0  0  0  0  0
   -2.2341   -1.2277    0.5247 H   0  0  0  0  0  0  0  0  0  0  0  0
   -0.6473   -1.0018    0.7907 H   0  0  0  0  0  0  0  0  0  0  0  0
   -1.6772   -1.0717    2.2577 H   0  0  0  0  0  0  0  0  0  0  0  0
    2.4082    3.6267   -2.9179 H   0  0  0  0  0  0  0  0  0  0  0  0
    3.8619    2.6294   -2.8751 H   0  0  0  0  0  0  0  0  0  0  0  0
    1.1986    1.7333   -4.0719 H   0  0  0  0  0  0  0  0  0  0  0  0
    2.6664    2.1825   -4.9598 H   0  0  0  0  0  0  0  0  0  0  0  0
    2.6533    0.7308   -3.9418 H   0  0  0  0  0  0  0  0  0  0  0  0
  1 16  1  0  0  0  0
  1 17  1  0  0  0  0
  2  1  1  0  0  0  0
  3  1  1  0  0  0  0
  3  6  1  0  0  0  0
  3 18  1  1  0  0  0
  4 10  1  0  0  0  0
  5  6  1  0  0  0  0
  7  2  2  0  0  0  0
  8  2  1  0  0  0  0
  9  5  2  0  0  0  0
 10  3  1  0  0  0  0
 10 19  1  0  0  0  0
 10 20  1  0  0  0  0
 11  4  1  0  0  0  0
 11 21  1  0  0  0  0
 11 22  1  0  0  0  0
 11 23  1  0  0  0  0
 12  4  1  0  0  0  0
 12 24  1  0  0  0  0
 12 25  1  0  0  0  0
 12 26  1  0  0  0  0
 13  4  1  0  0  0  0
 13 27  1  0  0  0  0
 13 28  1  0  0  0  0
 13 29  1  0  0  0  0
 14  5  1  0  0  0  0
 14 30  1  0  0  0  0
 14 31  1  0  0  0  0
 15 14  1  0  0  0  0
 15 32  1  0  0  0  0
 15 33  1  0  0  0  0
 15 34  1  0  0  0  0
M  CHG  2   4   1   8  -1
M  END
>  <DRUGBANK_ID>
DB15980

>  <COMMON_NAME>
Levocarnitine propionate

>  <CAS_NUMBER>
20064-19-1

>  <UNII>
0HU2UI27HF

>  <SYNONYMS>
L-Carnitine propionate; Propionyl-L-carnitine

$$$$
