
 OpenBabel10282417143D

158163  0  0  0  0  0  0  0  0999 V2000
   -1.5427   -0.0071   -0.2005 C   0  0  1  0  0  0  0  0  0  0  0  0
   -0.2640    0.4528   -0.1454 C   0  0  2  0  0  0  0  0  0  0  0  0
   -1.7898    2.4347   -0.3247 C   0  0  0  0  0  0  0  0  0  0  0  0
   -3.8980    3.9855   -0.4726 N   0  0  0  0  0  0  0  0  0  0  0  0
   -2.4883    2.0679   -0.0018 C   0  0  2  0  0  0  0  0  0  0  0  0
   -5.9126    5.3715   -1.1098 C   0  0  0  0  0  0  0  0  0  0  0  0
   -7.8786    7.1052   -1.9722 C   0  0  1  0  0  0  0  0  0  0  0  0
   -8.5752    8.9368   -2.9121 N   0  0  0  0  0  0  0  0  0  0  0  0
   -7.9593    8.2020   -3.7219 C   0  0  0  0  0  0  0  0  0  0  0  0
   -6.5642    8.2205   -3.4585 C   0  0  1  0  0  0  0  0  0  0  0  0
   -7.0583    6.5563   -0.7718 O   0  0  0  0  0  0  0  0  0  0  0  0
  -10.0787    7.6453   -2.9001 C   0  0  0  0  0  0  0  0  0  0  0  0
  -11.6508    8.3404   -4.0957 O   0  0  0  0  0  0  0  0  0  0  0  0
   -8.7408    7.3770   -4.1145 O   0  0  0  0  0  0  0  0  0  0  0  0
    1.0566   -1.2976   -0.8535 C   0  0  0  0  0  0  0  0  0  0  0  0
   -1.1578   -1.1393   -1.5418 O   0  0  0  0  0  0  0  0  0  0  0  0
   -2.8885    0.7232   -0.4778 C   0  0  0  0  0  0  0  0  0  0  0  0
   -3.6786    1.0905    0.5987 N   0  0  0  0  0  0  0  0  0  0  0  0
   -2.7005    0.8181   -1.6840 O   0  0  0  0  0  0  0  0  0  0  0  0
   -4.8140    1.5302    0.0573 C   0  0  0  0  0  0  0  0  0  0  0  0
   -5.9608    0.6268    0.5532 C   0  0  3  0  0  0  0  0  0  0  0  0
   -5.9837    0.8593    1.9674 C   0  0  0  0  0  0  0  0  0  0  0  0
   -6.3609    2.2400    2.4390 C   0  0  1  0  0  0  0  0  0  0  0  0
   -7.5313    3.2064    1.7762 C   0  0  0  0  0  0  0  0  0  0  0  0
   -8.5164    3.3416    2.5764 O   0  0  0  0  0  0  0  0  0  0  0  0
   -7.8808    3.0984    0.3796 N   0  0  0  0  0  0  0  0  0  0  0  0
   -6.7970    2.5570   -0.7657 C   0  0  1  0  0  0  0  0  0  0  0  0
   -7.2142    1.2176   -1.6355 C   0  0  1  0  0  0  0  0  0  0  0  0
   -8.4533    1.5975   -2.2716 C   0  0  0  0  0  0  0  0  0  0  0  0
   -6.1259    0.7939   -2.3441 O   0  0  0  0  0  0  0  0  0  0  0  0
   -6.4101    3.5596   -1.5228 C   0  0  0  0  0  0  0  0  0  0  0  0
   -3.8097    3.0509   -1.8776 C   0  0  0  0  0  0  0  0  0  0  0  0
   -5.1497    3.9348   -1.6931 N   0  0  0  0  0  0  0  0  0  0  0  0
   -4.3375    5.6937   -1.3474 C   0  0  1  0  0  0  0  0  0  0  0  0
   -2.9905    5.6684   -1.2679 C   0  0  0  0  0  0  0  0  0  0  0  0
   -2.5930    4.3116   -1.9849 C   0  0  1  0  0  0  0  0  0  0  0  0
   -7.2928    4.0315   -2.1606 O   0  0  0  0  0  0  0  0  0  0  0  0
   -5.9270    7.5633   -2.3120 N   0  0  0  0  0  0  0  0  0  0  0  0
   -4.9933    6.5070   -2.5296 C   0  0  0  0  0  0  0  0  0  0  0  0
   -4.4972    6.1090   -3.5670 O   0  0  0  0  0  0  0  0  0  0  0  0
   -6.1334    7.5957   -4.7218 C   0  0  1  0  0  0  0  0  0  0  0  0
   -6.3962    6.0896   -4.7211 C   0  0  0  0  0  0  0  0  0  0  0  0
   -6.8960    8.1546   -5.7782 O   0  0  0  0  0  0  0  0  0  0  0  0
   -7.7437    5.6245   -4.4217 C   0  0  0  0  0  0  0  0  0  0  0  0
   -9.6764    5.6488   -2.8140 C   0  0  0  0  0  0  0  0  0  0  0  0
  -10.5045    5.3036   -3.8910 C   0  0  0  0  0  0  0  0  0  0  0  0
   -9.9578    5.1188   -5.1548 C   0  0  0  0  0  0  0  0  0  0  0  0
   -8.6002    5.2653   -5.3909 C   0  0  0  0  0  0  0  0  0  0  0  0
   -8.2851    5.6000   -3.1509 C   0  0  0  0  0  0  0  0  0  0  0  0
  -11.8745    5.3748   -3.7965 O   0  0  0  0  0  0  0  0  0  0  0  0
   -7.3346    0.9432    0.4289 N   0  0  0  0  0  0  0  0  0  0  0  0
   -6.4367    2.2622    3.9057 N   0  0  0  0  0  0  0  0  0  0  0  0
   -1.2977    3.9767   -1.5644 O   0  0  0  0  0  0  0  0  0  0  0  0
   -5.5734    3.0640    4.6807 C   0  0  0  0  0  0  0  0  0  0  0  0
   -5.6258    3.0995    5.9062 O   0  0  0  0  0  0  0  0  0  0  0  0
   -4.5363    3.8986    3.9710 C   0  0  0  0  0  0  0  0  0  0  0  0
   -4.9460    4.6510    2.8914 C   0  0  0  0  0  0  0  0  0  0  0  0
   -3.2087    3.9670    4.3424 C   0  0  0  0  0  0  0  0  0  0  0  0
   -2.4114    4.9414    3.7417 C   0  0  0  0  0  0  0  0  0  0  0  0
   -2.7824    5.6216    2.5986 C   0  0  0  0  0  0  0  0  0  0  0  0
   -4.0931    5.4944    2.2292 C   0  0  0  0  0  0  0  0  0  0  0  0
   -1.8093    6.3925    1.8427 C   0  0  0  0  0  0  0  0  0  0  0  0
   -1.9779    7.7072    1.6252 C   0  0  0  0  0  0  0  0  0  0  0  0
   -0.6496    5.7684    1.3675 C   0  0  0  0  0  0  0  0  0  0  0  0
   -0.8678    8.2646    1.1266 C   0  0  0  0  0  0  0  0  0  0  0  0
    0.3406    6.4661    0.6938 C   0  0  0  0  0  0  0  0  0  0  0  0
    0.2394    7.7875    0.5252 C   0  0  0  0  0  0  0  0  0  0  0  0
    1.2056    8.4603   -0.1474 O   0  0  0  0  0  0  0  0  0  0  0  0
    1.0856    9.8629   -0.3896 C   0  0  0  0  0  0  0  0  0  0  0  0
   -0.1073   10.1684   -1.2724 C   0  0  0  0  0  0  0  0  0  0  0  0
   -1.4044    9.7831   -0.6826 C   0  0  0  0  0  0  0  0  0  0  0  0
   -1.5833   10.6376    0.8080 C   0  0  0  0  0  0  0  0  0  0  0  0
   -1.6204   12.0108    0.5215 C   0  0  0  0  0  0  0  0  0  0  0  0
   -2.8276   12.2200   -0.3191 C   0  0  0  0  0  0  0  0  0  0  0  0
   -4.0746   11.7455    0.3979 C   0  0  0  0  0  0  0  0  0  0  0  0
   -4.2098   12.4642    1.7141 C   0  0  0  0  0  0  0  0  0  0  0  0
   -8.4784    0.2023    0.4261 C   0  0  0  0  0  0  0  0  0  0  0  0
   -8.6166    0.2378    1.8253 C   0  0  0  0  0  0  0  0  0  0  0  0
   -9.0233    1.3850    2.3846 N   0  0  0  0  0  0  0  0  0  0  0  0
   -1.3649   -1.4895    0.3576 H   0  0  0  0  0  0  0  0  0  0  0  0
    0.5483   -0.8729    0.7066 H   0  0  0  0  0  0  0  0  0  0  0  0
   -0.2917    1.8086    0.3063 H   0  0  0  0  0  0  0  0  0  0  0  0
   -0.1965    1.7772   -0.5653 H   0  0  0  0  0  0  0  0  0  0  0  0
   -1.6891    1.0565    1.0149 H   0  0  0  0  0  0  0  0  0  0  0  0
   -9.1505    8.1859   -2.6966 H   0  0  0  0  0  0  0  0  0  0  0  0
   -8.5243   10.1600   -3.2542 H   0  0  0  0  0  0  0  0  0  0  0  0
   -6.3625    9.2545   -3.3460 H   0  0  0  0  0  0  0  0  0  0  0  0
  -10.5800    7.0611   -3.9514 H   0  0  0  0  0  0  0  0  0  0  0  0
  -11.1976    7.5679   -2.4114 H   0  0  0  0  0  0  0  0  0  0  0  0
  -12.1624    9.1861   -3.8056 H   0  0  0  0  0  0  0  0  0  0  0  0
    1.3679   -2.8083   -0.7151 H   0  0  0  0  0  0  0  0  0  0  0  0
    0.9409   -1.6965   -1.9679 H   0  0  0  0  0  0  0  0  0  0  0  0
    2.3948   -1.4399   -1.0376 H   0  0  0  0  0  0  0  0  0  0  0  0
   -0.6510   -0.5890   -2.1551 H   0  0  0  0  0  0  0  0  0  0  0  0
   -3.4993    1.2037    1.5826 H   0  0  0  0  0  0  0  0  0  0  0  0
   -4.9467    2.6891    0.3979 H   0  0  0  0  0  0  0  0  0  0  0  0
   -4.8528    1.5921   -1.0462 H   0  0  0  0  0  0  0  0  0  0  0  0
   -5.7925   -0.3033    0.1155 H   0  0  0  0  0  0  0  0  0  0  0  0
   -6.5288    0.1232    2.3854 H   0  0  0  0  0  0  0  0  0  0  0  0
   -5.1199    0.4714    2.4018 H   0  0  0  0  0  0  0  0  0  0  0  0
   -5.5799    2.8370    2.1023 H   0  0  0  0  0  0  0  0  0  0  0  0
   -8.8357    3.0707    0.0023 H   0  0  0  0  0  0  0  0  0  0  0  0
   -6.2178    2.3211    0.0056 H   0  0  0  0  0  0  0  0  0  0  0  0
   -7.4480    0.2302   -1.1466 H   0  0  0  0  0  0  0  0  0  0  0  0
   -8.1883    2.4276   -2.8760 H   0  0  0  0  0  0  0  0  0  0  0  0
   -8.7505    0.7667   -2.8607 H   0  0  0  0  0  0  0  0  0  0  0  0
   -9.2446    1.8816   -1.5806 H   0  0  0  0  0  0  0  0  0  0  0  0
   -5.9030    1.5835   -2.8430 H   0  0  0  0  0  0  0  0  0  0  0  0
   -3.6325    2.6349   -0.5521 H   0  0  0  0  0  0  0  0  0  0  0  0
   -3.8146    2.1564   -2.2246 H   0  0  0  0  0  0  0  0  0  0  0  0
   -4.8741    6.0903   -0.2630 H   0  0  0  0  0  0  0  0  0  0  0  0
   -2.7065    6.5334   -1.7505 H   0  0  0  0  0  0  0  0  0  0  0  0
   -2.7660    5.7212   -0.2109 H   0  0  0  0  0  0  0  0  0  0  0  0
   -2.6936    4.3748   -3.0045 H   0  0  0  0  0  0  0  0  0  0  0  0
   -6.3665    7.7663   -1.3406 H   0  0  0  0  0  0  0  0  0  0  0  0
   -5.0741    7.8159   -4.8828 H   0  0  0  0  0  0  0  0  0  0  0  0
   -6.0114    5.6393   -5.5982 H   0  0  0  0  0  0  0  0  0  0  0  0
   -5.9927    5.5137   -3.9382 H   0  0  0  0  0  0  0  0  0  0  0  0
   -7.8485    7.9336   -5.5971 H   0  0  0  0  0  0  0  0  0  0  0  0
  -10.0854    6.2064   -1.9069 H   0  0  0  0  0  0  0  0  0  0  0  0
  -10.5958    4.7708   -5.9338 H   0  0  0  0  0  0  0  0  0  0  0  0
   -8.1792    5.0194   -6.3333 H   0  0  0  0  0  0  0  0  0  0  0  0
   -7.4692    5.9433   -2.5907 H   0  0  0  0  0  0  0  0  0  0  0  0
  -12.2442    5.6784   -2.9457 H   0  0  0  0  0  0  0  0  0  0  0  0
   -7.6442    1.8824    0.3633 H   0  0  0  0  0  0  0  0  0  0  0  0
   -7.1576    1.6867    4.3795 H   0  0  0  0  0  0  0  0  0  0  0  0
   -1.2458    3.9812   -0.5822 H   0  0  0  0  0  0  0  0  0  0  0  0
   -5.9500    4.5356    2.5368 H   0  0  0  0  0  0  0  0  0  0  0  0
   -2.7950    3.2833    5.0751 H   0  0  0  0  0  0  0  0  0  0  0  0
   -1.4718    5.2216    4.1763 H   0  0  0  0  0  0  0  0  0  0  0  0
   -4.4696    6.0825    1.4272 H   0  0  0  0  0  0  0  0  0  0  0  0
   -2.8562    8.2522    1.9227 H   0  0  0  0  0  0  0  0  0  0  0  0
   -0.5282    4.7154    1.5376 H   0  0  0  0  0  0  0  0  0  0  0  0
   -0.9492    9.1791    0.8416 H   0  0  0  0  0  0  0  0  0  0  0  0
    1.2134    5.9669    0.3362 H   0  0  0  0  0  0  0  0  0  0  0  0
    1.0259   10.3986    0.5531 H   0  0  0  0  0  0  0  0  0  0  0  0
    1.9911   10.2051   -0.8967 H   0  0  0  0  0  0  0  0  0  0  0  0
   -0.1745   11.2234   -1.4536 H   0  0  0  0  0  0  0  0  0  0  0  0
   -0.0219    9.6346   -2.2003 H   0  0  0  0  0  0  0  0  0  0  0  0
   -2.2908    9.8969   -1.1938 H   0  0  0  0  0  0  0  0  0  0  0  0
   -1.3978    8.6670   -0.5969 H   0  0  0  0  0  0  0  0  0  0  0  0
   -2.4122   10.1338    1.3224 H   0  0  0  0  0  0  0  0  0  0  0  0
   -0.6402   10.4134    1.4848 H   0  0  0  0  0  0  0  0  0  0  0  0
   -1.6766   12.4663    1.4813 H   0  0  0  0  0  0  0  0  0  0  0  0
   -0.7064   12.2771    0.0312 H   0  0  0  0  0  0  0  0  0  0  0  0
   -2.8906   13.2746   -0.5150 H   0  0  0  0  0  0  0  0  0  0  0  0
   -2.7350   11.7003   -1.2709 H   0  0  0  0  0  0  0  0  0  0  0  0
   -4.9425   11.9349   -0.2183 H   0  0  0  0  0  0  0  0  0  0  0  0
   -4.0225   10.6718    0.5754 H   0  0  0  0  0  0  0  0  0  0  0  0
   -4.2727   13.5342    1.5410 H   0  0  0  0  0  0  0  0  0  0  0  0
   -5.0956   12.1327    2.2370 H   0  0  0  0  0  0  0  0  0  0  0  0
   -3.3488   12.2665    2.3469 H   0  0  0  0  0  0  0  0  0  0  0  0
   -9.3287    0.6266   -0.0881 H   0  0  0  0  0  0  0  0  0  0  0  0
   -8.1975   -0.7389    0.0240 H   0  0  0  0  0  0  0  0  0  0  0  0
   -9.3045   -0.3833    2.1787 H   0  0  0  0  0  0  0  0  0  0  0  0
   -7.8428   -0.1475    2.3167 H   0  0  0  0  0  0  0  0  0  0  0  0
   -8.8301    1.6957    3.3257 H   0  0  0  0  0  0  0  0  0  0  0  0
   -8.3029    1.9423    2.0938 H   0  0  0  0  0  0  0  0  0  0  0  0
  1  2  1  0  0  0  0
  1  5  1  0  0  0  0
  1 16  1  0  0  0  0
  1 80  1  1  0  0  0
  2  3  1  0  0  0  0
  2 81  1  1  0  0  0
  2 15  1  0  0  0  0
  3  4  1  0  0  0  0
  3 82  1  0  0  0  0
  3 83  1  0  0  0  0
  4  5  1  0  0  0  0
  4  6  1  0  0  0  0
  5 17  1  0  0  0  0
  5 84  1  6  0  0  0
  6  7  1  0  0  0  0
  6 11  2  0  0  0  0
  7  8  1  0  0  0  0
  7 85  1  1  0  0  0
  7 12  1  0  0  0  0
  8  9  1  0  0  0  0
  8 86  1  0  0  0  0
  9 10  1  0  0  0  0
  9 14  2  0  0  0  0
 10 38  1  0  0  0  0
 10 87  1  6  0  0  0
 10 41  1  0  0  0  0
 12 13  1  0  0  0  0
 12 88  1  0  0  0  0
 12 89  1  0  0  0  0
 13 90  1  0  0  0  0
 15 91  1  0  0  0  0
 15 92  1  0  0  0  0
 15 93  1  0  0  0  0
 16 94  1  0  0  0  0
 17 18  1  0  0  0  0
 17 19  2  0  0  0  0
 18 20  1  0  0  0  0
 18 95  1  0  0  0  0
 20 21  1  0  0  0  0
 20 96  1  0  0  0  0
 20 97  1  0  0  0  0
 21 22  1  0  0  0  0
 21 51  1  0  0  0  0
 21 98  1  0  0  0  0
 22 23  1  0  0  0  0
 22 99  1  0  0  0  0
 22100  1  0  0  0  0
 23 24  1  0  0  0  0
 23 52  1  0  0  0  0
 23101  1  6  0  0  0
 24 25  2  0  0  0  0
 24 26  1  0  0  0  0
 26102  1  0  0  0  0
 27 26  1  0  0  0  0
 27 28  1  0  0  0  0
 27 31  1  0  0  0  0
 27103  1  1  0  0  0
 28 29  1  0  0  0  0
 28 30  1  0  0  0  0
 28104  1  1  0  0  0
 29105  1  0  0  0  0
 29106  1  0  0  0  0
 29107  1  0  0  0  0
 30108  1  0  0  0  0
 31 33  1  0  0  0  0
 31 37  2  0  0  0  0
 32 33  1  0  0  0  0
 32 36  1  0  0  0  0
 32109  1  0  0  0  0
 32110  1  0  0  0  0
 33 34  1  0  0  0  0
 34 35  1  0  0  0  0
 34 39  1  0  0  0  0
 34111  1  1  0  0  0
 35 36  1  0  0  0  0
 35112  1  0  0  0  0
 35113  1  0  0  0  0
 36 53  1  0  0  0  0
 36114  1  6  0  0  0
 38 39  1  0  0  0  0
 38115  1  0  0  0  0
 39 40  2  0  0  0  0
 41 42  1  0  0  0  0
 41 43  1  0  0  0  0
 41116  1  6  0  0  0
 42 44  1  0  0  0  0
 42117  1  0  0  0  0
 42118  1  0  0  0  0
 43119  1  0  0  0  0
 44 49  1  0  0  0  0
 45 46  1  0  0  0  0
 45 49  2  0  0  0  0
 45120  1  0  0  0  0
 46 47  2  0  0  0  0
 46 50  1  0  0  0  0
 47 48  1  0  0  0  0
 47121  1  0  0  0  0
 48 44  2  0  0  0  0
 48122  1  0  0  0  0
 49123  1  0  0  0  0
 50124  1  0  0  0  0
 51 77  1  0  0  0  0
 51125  1  0  0  0  0
 52 54  1  0  0  0  0
 52126  1  0  0  0  0
 53127  1  0  0  0  0
 54 55  2  0  0  0  0
 54 56  1  0  0  0  0
 56 58  1  0  0  0  0
 57 56  2  0  0  0  0
 57 61  1  0  0  0  0
 57128  1  0  0  0  0
 58 59  2  0  0  0  0
 58129  1  0  0  0  0
 59 60  1  0  0  0  0
 59130  1  0  0  0  0
 60 61  2  0  0  0  0
 60 62  1  0  0  0  0
 61131  1  0  0  0  0
 63 62  1  0  0  0  0
 63132  1  0  0  0  0
 64 62  2  0  0  0  0
 64133  1  0  0  0  0
 65 63  2  0  0  0  0
 65134  1  0  0  0  0
 66 64  1  0  0  0  0
 66135  1  0  0  0  0
 67 65  1  0  0  0  0
 67 66  2  0  0  0  0
 67 68  1  0  0  0  0
 68 69  1  0  0  0  0
 69 70  1  0  0  0  0
 69136  1  0  0  0  0
 69137  1  0  0  0  0
 70 71  1  0  0  0  0
 70138  1  0  0  0  0
 70139  1  0  0  0  0
 71 72  1  0  0  0  0
 71140  1  0  0  0  0
 71141  1  0  0  0  0
 72 73  1  0  0  0  0
 72142  1  0  0  0  0
 72143  1  0  0  0  0
 73 74  1  0  0  0  0
 73144  1  0  0  0  0
 73145  1  0  0  0  0
 74 75  1  0  0  0  0
 74146  1  0  0  0  0
 74147  1  0  0  0  0
 75 76  1  0  0  0  0
 75148  1  0  0  0  0
 75149  1  0  0  0  0
 76150  1  0  0  0  0
 76151  1  0  0  0  0
 76152  1  0  0  0  0
 77 78  1  0  0  0  0
 77153  1  0  0  0  0
 77154  1  0  0  0  0
 78 79  1  0  0  0  0
 78155  1  0  0  0  0
 78156  1  0  0  0  0
 79157  1  0  0  0  0
 79158  1  0  0  0  0
M  END
>  <DRUGBANK_ID>
DB05128

>  <COMMON_NAME>
Aminocandin

>  <CAS_NUMBER>
227472-48-2

$$$$
