
 OpenBabel10282417133D

 43 44  0  0  0  0  0  0  0  0999 V2000
   -4.0491   12.0335   -2.6442 N   0  0  0  0  0  0  0  0  0  0  0  0
   -5.0172   11.5141   -1.6868 C   0  0  1  0  0  0  0  0  0  0  0  0
   -3.6173   13.3339   -2.6942 C   0  0  0  0  0  0  0  0  0  0  0  0
   -3.4812   10.8395   -2.9197 C   0  0  0  0  0  0  0  0  0  0  0  0
   -4.6504   10.1166   -2.2244 C   0  0  1  0  0  0  0  0  0  0  0  0
   -4.4555   11.9532   -0.0293 S   0  0  0  0  0  0  0  0  0  0  0  0
   -3.9722   14.1765   -1.6864 C   0  0  0  0  0  0  0  0  0  0  0  0
   -2.7947   13.8173   -3.8805 C   0  0  0  0  0  0  0  0  0  0  0  0
   -2.4784   10.5715   -3.5473 O   0  0  0  0  0  0  0  0  0  0  0  0
   -4.3994    9.0343   -1.2494 N   0  0  0  0  0  0  0  0  0  0  0  0
   -4.6177   13.7266   -0.3805 C   0  0  0  0  0  0  0  0  0  0  0  0
   -3.7766   15.6773   -1.6649 C   0  0  0  0  0  0  0  0  0  0  0  0
   -2.6380   12.9485   -4.9001 O   0  0  0  0  0  0  0  0  0  0  0  0
   -2.3327   14.9434   -3.9849 O   0  0  0  0  0  0  0  0  0  0  0  0
   -5.0704    7.8562   -1.4027 C   0  0  0  0  0  0  0  0  0  0  0  0
   -4.8480    6.8289   -0.3199 C   0  0  0  0  0  0  0  0  0  0  0  0
   -5.7692    7.6413   -2.3956 O   0  0  0  0  0  0  0  0  0  0  0  0
   -6.1658    6.1984    0.1507 C   0  0  0  0  0  0  0  0  0  0  0  0
   -7.1011    5.6811   -0.9550 C   0  0  0  0  0  0  0  0  0  0  0  0
   -6.5260    4.5301   -1.8042 C   0  0  2  0  0  0  0  0  0  0  0  0
   -5.0164    4.5451   -2.1079 C   0  0  0  0  0  0  0  0  0  0  0  0
   -7.2587    4.4054   -3.0761 N   0  0  0  0  0  0  0  0  0  0  0  0
   -4.6222    5.4006   -3.0843 O   0  0  0  0  0  0  0  0  0  0  0  0
   -4.1981    3.9147   -1.4469 O   0  0  0  0  0  0  0  0  0  0  0  0
   -6.0619   11.7745   -1.8911 H   0  0  0  0  0  0  0  0  0  0  0  0
   -5.3720    9.7974   -2.9899 H   0  0  0  0  0  0  0  0  0  0  0  0
   -3.7406    9.1297   -0.4826 H   0  0  0  0  0  0  0  0  0  0  0  0
   -4.1345   14.2347    0.4601 H   0  0  0  0  0  0  0  0  0  0  0  0
   -5.6770   14.0042   -0.3814 H   0  0  0  0  0  0  0  0  0  0  0  0
   -4.7551   16.1599   -1.5632 H   0  0  0  0  0  0  0  0  0  0  0  0
   -3.1529   15.9691   -0.8144 H   0  0  0  0  0  0  0  0  0  0  0  0
   -3.3337   16.1212   -2.5502 H   0  0  0  0  0  0  0  0  0  0  0  0
   -2.7722   12.0034   -4.6973 H   0  0  0  0  0  0  0  0  0  0  0  0
   -4.1539    6.1093   -0.7400 H   0  0  0  0  0  0  0  0  0  0  0  0
   -4.2840    7.2213    0.5283 H   0  0  0  0  0  0  0  0  0  0  0  0
   -5.9550    5.3712    0.8387 H   0  0  0  0  0  0  0  0  0  0  0  0
   -6.7071    6.9560    0.7337 H   0  0  0  0  0  0  0  0  0  0  0  0
   -8.0370    5.3404   -0.4847 H   0  0  0  0  0  0  0  0  0  0  0  0
   -7.4518    6.5107   -1.5796 H   0  0  0  0  0  0  0  0  0  0  0  0
   -6.6810    3.6070   -1.2319 H   0  0  0  0  0  0  0  0  0  0  0  0
   -8.2419    4.2266   -2.8877 H   0  0  0  0  0  0  0  0  0  0  0  0
   -7.2188    5.2804   -3.5935 H   0  0  0  0  0  0  0  0  0  0  0  0
   -5.3239    6.0356   -3.3494 H   0  0  0  0  0  0  0  0  0  0  0  0
  1  2  1  0  0  0  0
  1  3  1  0  0  0  0
  1  4  1  0  0  0  0
  2  5  1  0  0  0  0
  2  6  1  0  0  0  0
  2 25  1  6  0  0  0
  3  7  2  0  0  0  0
  3  8  1  0  0  0  0
  4  9  2  0  0  0  0
  4  5  1  0  0  0  0
  5 10  1  0  0  0  0
  5 26  1  6  0  0  0
  6 11  1  0  0  0  0
  7 12  1  0  0  0  0
  7 11  1  0  0  0  0
  8 13  1  0  0  0  0
  8 14  2  0  0  0  0
 10 15  1  0  0  0  0
 10 27  1  0  0  0  0
 11 28  1  0  0  0  0
 11 29  1  0  0  0  0
 12 30  1  0  0  0  0
 12 31  1  0  0  0  0
 12 32  1  0  0  0  0
 13 33  1  0  0  0  0
 15 16  1  0  0  0  0
 15 17  2  0  0  0  0
 16 18  1  0  0  0  0
 16 34  1  0  0  0  0
 16 35  1  0  0  0  0
 18 19  1  0  0  0  0
 18 36  1  0  0  0  0
 18 37  1  0  0  0  0
 19 38  1  0  0  0  0
 19 39  1  0  0  0  0
 20 22  1  0  0  0  0
 20 40  1  1  0  0  0
 20 21  1  0  0  0  0
 20 19  1  0  0  0  0
 21 23  1  0  0  0  0
 21 24  2  0  0  0  0
 22 41  1  0  0  0  0
 22 42  1  0  0  0  0
 23 43  1  0  0  0  0
M  END
>  <DRUGBANK_ID>
DB03938

>  <SECONDARY_ACCESSION_NUMBERS>
EXPT02469

>  <COMMON_NAME>
Deacetoxycephalosporin C

>  <CAS_NUMBER>
26924-74-3

>  <SYNONYMS>
DAOC; De(acetyloxy)cephalosporin C; Deacetoxycephalosporin C; Deacetoxycephalosporin-C

$$$$
