ADL
 OpenBabel10282417123D

 33 35  0  0  0  0  0  0  0  0999 V2000
    3.6871    0.6997    0.0060 C   0  0  0  0  0  0  0  0  0  0  0  0
    2.4682    1.3561    0.0062 C   0  0  0  0  0  0  0  0  0  0  0  0
    1.2734    0.6241    0.0030 C   0  0  0  0  0  0  0  0  0  0  0  0
    1.2933   -0.7793    0.0038 C   0  0  0  0  0  0  0  0  0  0  0  0
    2.5316   -1.4326    0.0024 C   0  0  0  0  0  0  0  0  0  0  0  0
    3.7209   -0.6944    0.0038 C   0  0  0  0  0  0  0  0  0  0  0  0
   -0.0008   -1.5227    0.0001 C   0  0  0  0  0  0  0  0  0  0  0  0
   -1.2746   -0.7606    0.0024 C   0  0  0  0  0  0  0  0  0  0  0  0
   -1.2491    0.6378   -0.0008 C   0  0  0  0  0  0  0  0  0  0  0  0
    0.0144    1.4211   -0.0318 C   0  0  0  0  0  0  0  0  0  0  0  0
   -2.5095   -1.4215    0.0068 C   0  0  0  0  0  0  0  0  0  0  0  0
   -3.7020   -0.6867    0.0144 C   0  0  0  0  0  0  0  0  0  0  0  0
   -3.6558    0.7156   -0.0036 C   0  0  0  0  0  0  0  0  0  0  0  0
   -2.4393    1.3716   -0.0034 C   0  0  0  0  0  0  0  0  0  0  0  0
   -5.0444   -1.3630    0.0614 C   0  0  0  0  0  0  0  0  0  0  0  0
   -5.8335   -0.9615    1.2773 C   0  0  0  0  0  0  0  0  0  0  0  0
    2.5961   -2.7963   -0.0066 O   0  0  0  0  0  0  0  0  0  0  0  0
   -0.0708   -2.7493   -0.0029 O   0  0  0  0  0  0  0  0  0  0  0  0
   -2.6061   -2.7899    0.0000 O   0  0  0  0  0  0  0  0  0  0  0  0
   -6.9180   -0.3913    1.2675 O   0  0  0  0  0  0  0  0  0  0  0  0
   -5.2305   -1.2655    2.4433 O   0  0  0  0  0  0  0  0  0  0  0  0
    4.6043    1.2816    0.0024 H   0  0  0  0  0  0  0  0  0  0  0  0
    2.4349    2.4450    0.0011 H   0  0  0  0  0  0  0  0  0  0  0  0
    4.6864   -1.1892    0.0012 H   0  0  0  0  0  0  0  0  0  0  0  0
    0.0154    2.0081   -0.9588 H   0  0  0  0  0  0  0  0  0  0  0  0
    0.0135    2.1047    0.8266 H   0  0  0  0  0  0  0  0  0  0  0  0
   -4.5694    1.3068   -0.0062 H   0  0  0  0  0  0  0  0  0  0  0  0
   -2.4111    2.4597   -0.0072 H   0  0  0  0  0  0  0  0  0  0  0  0
   -5.6003   -1.0773   -0.8393 H   0  0  0  0  0  0  0  0  0  0  0  0
   -4.9710   -2.4541    0.0501 H   0  0  0  0  0  0  0  0  0  0  0  0
    3.5155   -3.1005   -0.0134 H   0  0  0  0  0  0  0  0  0  0  0  0
   -1.6910   -3.1577    0.0039 H   0  0  0  0  0  0  0  0  0  0  0  0
   -5.8285   -0.9297    3.1407 H   0  0  0  0  0  0  0  0  0  0  0  0
  1  2  2  0  0  0  0
  1  6  1  0  0  0  0
  1 22  1  0  0  0  0
  2  3  1  0  0  0  0
  2 23  1  0  0  0  0
  3  4  2  0  0  0  0
  3 10  1  0  0  0  0
  4  5  1  0  0  0  0
  4  7  1  0  0  0  0
  5  6  2  0  0  0  0
  5 17  1  0  0  0  0
  6 24  1  0  0  0  0
  7  8  1  0  0  0  0
  7 18  2  0  0  0  0
  8  9  2  0  0  0  0
  8 11  1  0  0  0  0
  9 10  1  0  0  0  0
  9 14  1  0  0  0  0
 10 25  1  0  0  0  0
 10 26  1  0  0  0  0
 11 12  2  0  0  0  0
 11 19  1  0  0  0  0
 12 13  1  0  0  0  0
 12 15  1  0  0  0  0
 13 14  2  0  0  0  0
 13 27  1  0  0  0  0
 14 28  1  0  0  0  0
 15 16  1  0  0  0  0
 15 29  1  0  0  0  0
 15 30  1  0  0  0  0
 16 20  2  0  0  0  0
 16 21  1  0  0  0  0
 17 31  1  0  0  0  0
 19 32  1  0  0  0  0
 21 33  1  0  0  0  0
M  END
>  <DRUGBANK_ID>
DB02019

>  <SECONDARY_ACCESSION_NUMBERS>
EXPT00432

>  <COMMON_NAME>
Acetyl Dithranol

$$$$
