
 OpenBabel10282417133D

 76 80  0  0  0  0  0  0  0  0999 V2000
    1.0476    0.0358    0.0843 C   0  0  0  0  0  0  0  0  0  0  0  0
    0.3317   -0.3351   -0.8608 O   0  0  0  0  0  0  0  0  0  0  0  0
    0.4163    0.4789    1.2176 N   0  0  0  0  0  0  0  0  0  0  0  0
    2.4248   -0.0855    0.1359 N   0  0  0  0  0  0  0  0  0  0  0  0
    0.7318    0.6891    3.6402 N   0  0  0  0  0  0  0  0  0  0  0  0
    1.5781    1.3134    4.5088 N   0  0  0  0  0  0  0  0  0  0  0  0
    2.1041    1.8537    2.3705 C   0  0  0  0  0  0  0  0  0  0  0  0
    2.4476    1.9744    3.7265 C   0  0  0  0  0  0  0  0  0  0  0  0
    1.0709    0.9593    2.3278 C   0  0  0  0  0  0  0  0  0  0  0  0
    3.6220    2.7593    4.2776 C   0  0  0  0  0  0  0  0  0  0  0  0
   -0.3793   -1.4941    3.5793 C   0  0  0  0  0  0  0  0  0  0  0  0
   -0.2680   -0.1981    4.1021 C   0  0  0  0  0  0  0  0  0  0  0  0
   -1.1717    0.2567    5.0633 C   0  0  0  0  0  0  0  0  0  0  0  0
   -2.2121   -0.5765    5.4798 C   0  0  0  0  0  0  0  0  0  0  0  0
   -2.3273   -1.8814    4.9816 C   0  0  0  0  0  0  0  0  0  0  0  0
   -1.3971   -2.3380    4.0372 C   0  0  0  0  0  0  0  0  0  0  0  0
   -3.4229   -2.7867    5.4659 C   0  0  0  0  0  0  0  0  0  0  0  0
    4.4139   -1.3304   -0.7789 C   0  0  0  0  0  0  0  0  0  0  0  0
    5.1477   -1.7686   -1.9479 C   0  0  0  0  0  0  0  0  0  0  0  0
    4.9155   -1.7196    0.4643 C   0  0  0  0  0  0  0  0  0  0  0  0
    6.3019   -2.5409   -1.8425 C   0  0  0  0  0  0  0  0  0  0  0  0
    4.7703   -1.3468   -3.2003 C   0  0  0  0  0  0  0  0  0  0  0  0
    3.2286   -0.5586   -0.9248 C   0  0  0  0  0  0  0  0  0  0  0  0
    2.9410   -0.0812   -2.1682 C   0  0  0  0  0  0  0  0  0  0  0  0
    3.8455   -0.3439   -3.1798 C   0  0  0  0  0  0  0  0  0  0  0  0
    6.7768   -2.8835   -0.5916 C   0  0  0  0  0  0  0  0  0  0  0  0
    6.0874   -2.4765    0.5502 C   0  0  0  0  0  0  0  0  0  0  0  0
    5.3501   -1.8120   -4.3537 O   0  0  0  0  0  0  0  0  0  0  0  0
    4.8015   -1.4395   -5.6428 C   0  0  0  0  0  0  0  0  0  0  0  0
    3.3647   -1.9255   -5.9504 C   0  0  0  0  0  0  0  0  0  0  0  0
    2.3328   -1.2370   -5.1655 N   0  0  0  0  0  0  0  0  0  0  0  0
    0.2652   -0.1681   -6.8507 O   0  0  0  0  0  0  0  0  0  0  0  0
    2.1584    0.2055   -5.4543 C   0  0  0  0  0  0  0  0  0  0  0  0
    1.0244   -1.8820   -5.2143 C   0  0  0  0  0  0  0  0  0  0  0  0
    0.3776   -1.5780   -6.5704 C   0  0  0  0  0  0  0  0  0  0  0  0
    1.5307    0.4765   -6.7846 C   0  0  0  0  0  0  0  0  0  0  0  0
    3.1346    3.8074    5.2862 C   0  0  0  0  0  0  0  0  0  0  0  0
    4.6345    1.8190    4.9563 C   0  0  0  0  0  0  0  0  0  0  0  0
    4.3646    3.4981    3.1357 C   0  0  0  0  0  0  0  0  0  0  0  0
   -0.5780    0.2817    1.2600 H   0  0  0  0  0  0  0  0  0  0  0  0
    2.8786    0.0330    1.0267 H   0  0  0  0  0  0  0  0  0  0  0  0
    2.5533    2.3473    1.5197 H   0  0  0  0  0  0  0  0  0  0  0  0
    0.3419   -1.8814    2.8623 H   0  0  0  0  0  0  0  0  0  0  0  0
   -1.1061    1.2714    5.4486 H   0  0  0  0  0  0  0  0  0  0  0  0
   -2.9367   -0.1977    6.1971 H   0  0  0  0  0  0  0  0  0  0  0  0
   -1.4596   -3.3571    3.6581 H   0  0  0  0  0  0  0  0  0  0  0  0
   -4.0392   -3.1251    4.6269 H   0  0  0  0  0  0  0  0  0  0  0  0
   -2.9970   -3.6561    5.9768 H   0  0  0  0  0  0  0  0  0  0  0  0
   -4.0801   -2.2717    6.1751 H   0  0  0  0  0  0  0  0  0  0  0  0
    4.4050   -1.4362    1.3780 H   0  0  0  0  0  0  0  0  0  0  0  0
    6.8572   -2.8317   -2.7340 H   0  0  0  0  0  0  0  0  0  0  0  0
    2.1024    0.5812   -2.3581 H   0  0  0  0  0  0  0  0  0  0  0  0
    3.8291    0.2839   -4.0255 H   0  0  0  0  0  0  0  0  0  0  0  0
    7.6891   -3.4650   -0.5169 H   0  0  0  0  0  0  0  0  0  0  0  0
    6.4641   -2.7578    1.5265 H   0  0  0  0  0  0  0  0  0  0  0  0
    4.9170   -0.3646   -5.8200 H   0  0  0  0  0  0  0  0  0  0  0  0
    5.4470   -1.9119   -6.3965 H   0  0  0  0  0  0  0  0  0  0  0  0
    3.1723   -1.7965   -7.0224 H   0  0  0  0  0  0  0  0  0  0  0  0
    3.3234   -3.0057   -5.7570 H   0  0  0  0  0  0  0  0  0  0  0  0
    1.5528    0.6393   -4.6434 H   0  0  0  0  0  0  0  0  0  0  0  0
    3.0854    0.7840   -5.4906 H   0  0  0  0  0  0  0  0  0  0  0  0
    0.4158   -1.4928   -4.3851 H   0  0  0  0  0  0  0  0  0  0  0  0
    1.1115   -2.9618   -5.0338 H   0  0  0  0  0  0  0  0  0  0  0  0
    0.9686   -2.0377   -7.3691 H   0  0  0  0  0  0  0  0  0  0  0  0
   -0.6255   -2.0002   -6.6006 H   0  0  0  0  0  0  0  0  0  0  0  0
    1.4232    1.5621   -6.8841 H   0  0  0  0  0  0  0  0  0  0  0  0
    2.2072    0.1357   -7.5756 H   0  0  0  0  0  0  0  0  0  0  0  0
    2.6360    3.3372    6.1409 H   0  0  0  0  0  0  0  0  0  0  0  0
    3.9702    4.4017    5.6706 H   0  0  0  0  0  0  0  0  0  0  0  0
    2.4173    4.4932    4.8204 H   0  0  0  0  0  0  0  0  0  0  0  0
    5.0145    1.0679    4.2530 H   0  0  0  0  0  0  0  0  0  0  0  0
    5.4952    2.3806    5.3383 H   0  0  0  0  0  0  0  0  0  0  0  0
    4.1855    1.2834    5.7997 H   0  0  0  0  0  0  0  0  0  0  0  0
    4.7547    2.7915    2.3909 H   0  0  0  0  0  0  0  0  0  0  0  0
    3.6943    4.1907    2.6109 H   0  0  0  0  0  0  0  0  0  0  0  0
    5.2125    4.0790    3.5105 H   0  0  0  0  0  0  0  0  0  0  0  0
  2  1  2  0  0  0  0
  3  1  1  0  0  0  0
  3 40  1  0  0  0  0
  4  1  1  0  0  0  0
  4 41  1  0  0  0  0
  6  5  1  0  0  0  0
  7 42  1  0  0  0  0
  8  6  2  0  0  0  0
  8  7  1  0  0  0  0
  9  3  1  0  0  0  0
  9  5  1  0  0  0  0
  9  7  2  0  0  0  0
 10  8  1  0  0  0  0
 10 37  1  0  0  0  0
 10 38  1  0  0  0  0
 10 39  1  0  0  0  0
 11 43  1  0  0  0  0
 12  5  1  0  0  0  0
 12 11  1  0  0  0  0
 13 12  2  0  0  0  0
 13 44  1  0  0  0  0
 14 13  1  0  0  0  0
 14 45  1  0  0  0  0
 15 14  2  0  0  0  0
 16 11  2  0  0  0  0
 16 15  1  0  0  0  0
 16 46  1  0  0  0  0
 17 15  1  0  0  0  0
 17 47  1  0  0  0  0
 17 48  1  0  0  0  0
 17 49  1  0  0  0  0
 19 18  2  0  0  0  0
 20 18  1  0  0  0  0
 20 50  1  0  0  0  0
 21 19  1  0  0  0  0
 21 51  1  0  0  0  0
 22 19  1  0  0  0  0
 23  4  1  0  0  0  0
 23 18  1  0  0  0  0
 24 23  2  0  0  0  0
 24 52  1  0  0  0  0
 25 22  2  0  0  0  0
 25 24  1  0  0  0  0
 25 53  1  0  0  0  0
 26 21  2  0  0  0  0
 26 54  1  0  0  0  0
 27 20  2  0  0  0  0
 27 26  1  0  0  0  0
 27 55  1  0  0  0  0
 28 22  1  0  0  0  0
 29 28  1  0  0  0  0
 29 56  1  0  0  0  0
 29 57  1  0  0  0  0
 30 29  1  0  0  0  0
 30 58  1  0  0  0  0
 30 59  1  0  0  0  0
 31 30  1  0  0  0  0
 33 31  1  0  0  0  0
 33 60  1  0  0  0  0
 33 61  1  0  0  0  0
 34 31  1  0  0  0  0
 34 62  1  0  0  0  0
 34 63  1  0  0  0  0
 35 32  1  0  0  0  0
 35 34  1  0  0  0  0
 35 64  1  0  0  0  0
 35 65  1  0  0  0  0
 36 32  1  0  0  0  0
 36 33  1  0  0  0  0
 36 66  1  0  0  0  0
 36 67  1  0  0  0  0
 37 68  1  0  0  0  0
 37 69  1  0  0  0  0
 37 70  1  0  0  0  0
 38 71  1  0  0  0  0
 38 72  1  0  0  0  0
 38 73  1  0  0  0  0
 39 74  1  0  0  0  0
 39 75  1  0  0  0  0
 39 76  1  0  0  0  0
M  END
>  <DRUGBANK_ID>
DB03044

>  <SECONDARY_ACCESSION_NUMBERS>
EXPT00616

>  <COMMON_NAME>
Doramapimod

>  <CAS_NUMBER>
285983-48-4

>  <UNII>
HO1A8B3YVV

>  <SYNONYMS>
Doramapimod

$$$$
