
 OpenBabel10282417153D

 49 50  0  0  1  0  0  0  0  0999 V2000
   -3.4536    2.3384   -0.0875 C   0  0  0  0  0  0  0  0  0  0  0  0
   -1.9269    2.2476   -0.0781 C   0  0  0  0  0  0  0  0  0  0  0  0
   -1.3995    3.0753    1.1044 C   0  0  0  0  0  0  0  0  0  0  0  0
   -1.4176    0.7937    0.0497 C   0  0  1  0  0  0  0  0  0  0  0  0
   -1.8402   -0.2107   -1.0326 C   0  0  0  0  0  0  0  0  0  0  0  0
   -1.0229   -1.0206   -1.4759 O   0  0  0  0  0  0  0  0  0  0  0  0
   -3.1292   -0.1045   -1.4258 O   0  0  0  0  0  0  0  0  0  0  0  0
   -3.6279   -0.8415   -2.5643 C   0  0  0  0  0  0  0  0  0  0  0  0
   -3.2516   -0.1854   -3.9027 C   0  0  0  0  0  0  0  0  0  0  0  0
   -1.7273   -0.1289   -4.1299 C   0  0  2  0  0  0  0  0  0  0  0  0
   -1.2043    1.2966   -3.8169 C   0  0  0  0  0  0  0  0  0  0  0  0
    0.1538    1.5626   -4.2196 N   0  0  0  0  0  0  0  0  0  0  0  0
    1.2588    0.9367   -3.6919 C   0  0  0  0  0  0  0  0  0  0  0  0
    2.3138    1.0960   -4.4631 N   0  0  0  0  0  0  0  0  0  0  0  0
    1.8816    1.9075   -5.4801 C   0  0  0  0  0  0  0  0  0  0  0  0
    0.5525    2.2390   -5.3419 C   0  0  0  0  0  0  0  0  0  0  0  0
   -0.2198    2.9699   -6.1874 N   0  0  0  0  0  0  0  0  0  0  0  0
    0.4303    3.4093   -7.2351 C   0  0  0  0  0  0  0  0  0  0  0  0
    1.7634    3.1377   -7.4758 N   0  0  0  0  0  0  0  0  0  0  0  0
    2.5757    2.3607   -6.6624 C   0  0  0  0  0  0  0  0  0  0  0  0
    3.7320    2.0974   -6.9592 O   0  0  0  0  0  0  0  0  0  0  0  0
   -0.1861    4.1698   -8.1706 N   0  0  0  0  0  0  0  0  0  0  0  0
   -1.3142   -0.7200   -5.4744 C   0  0  0  0  0  0  0  0  0  0  0  0
    0.0598   -1.0832   -5.4924 O   0  0  0  0  0  0  0  0  0  0  0  0
    0.0773    0.8260    0.0636 N   0  0  0  0  0  0  0  0  0  0  0  0
   -3.8729    1.8257    0.7837 H   0  0  0  0  0  0  0  0  0  0  0  0
   -3.8875    1.9031   -0.9888 H   0  0  0  0  0  0  0  0  0  0  0  0
   -3.7899    3.3786   -0.0817 H   0  0  0  0  0  0  0  0  0  0  0  0
   -1.5558    2.7117   -1.0010 H   0  0  0  0  0  0  0  0  0  0  0  0
   -1.7278    2.6339    2.0518 H   0  0  0  0  0  0  0  0  0  0  0  0
   -0.3051    3.1152    1.1142 H   0  0  0  0  0  0  0  0  0  0  0  0
   -1.7604    4.1064    1.0581 H   0  0  0  0  0  0  0  0  0  0  0  0
   -1.7499    0.3576    0.9970 H   0  0  0  0  0  0  0  0  0  0  0  0
   -3.3231   -1.8919   -2.5198 H   0  0  0  0  0  0  0  0  0  0  0  0
   -4.7240   -0.8260   -2.4869 H   0  0  0  0  0  0  0  0  0  0  0  0
   -3.7356   -0.7435   -4.7131 H   0  0  0  0  0  0  0  0  0  0  0  0
   -3.6784    0.8261   -3.9338 H   0  0  0  0  0  0  0  0  0  0  0  0
   -1.2629   -0.8508   -3.4713 H   0  0  0  0  0  0  0  0  0  0  0  0
   -1.8476    2.0587   -4.2676 H   0  0  0  0  0  0  0  0  0  0  0  0
   -1.2318    1.4983   -2.7454 H   0  0  0  0  0  0  0  0  0  0  0  0
    1.2064    0.2786   -2.8317 H   0  0  0  0  0  0  0  0  0  0  0  0
    2.2144    3.4829   -8.3046 H   0  0  0  0  0  0  0  0  0  0  0  0
   -1.1350    4.4736   -7.9906 H   0  0  0  0  0  0  0  0  0  0  0  0
    0.3105    4.6256   -8.9222 H   0  0  0  0  0  0  0  0  0  0  0  0
   -1.8282   -1.6762   -5.6034 H   0  0  0  0  0  0  0  0  0  0  0  0
   -1.5512   -0.0591   -6.3063 H   0  0  0  0  0  0  0  0  0  0  0  0
    0.6142   -0.2911   -5.5838 H   0  0  0  0  0  0  0  0  0  0  0  0
    0.4030   -0.1454    0.0022 H   0  0  0  0  0  0  0  0  0  0  0  0
    0.4092    1.2447   -0.8069 H   0  0  0  0  0  0  0  0  0  0  0  0
  1  2  1  0  0  0  0
  1 26  1  0  0  0  0
  1 27  1  0  0  0  0
  1 28  1  0  0  0  0
  2  3  1  0  0  0  0
  2  4  1  0  0  0  0
  2 29  1  0  0  0  0
  3 30  1  0  0  0  0
  3 31  1  0  0  0  0
  3 32  1  0  0  0  0
  4  5  1  0  0  0  0
  4 25  1  0  0  0  0
  4 33  1  1  0  0  0
  5  6  2  0  0  0  0
  5  7  1  0  0  0  0
  7  8  1  0  0  0  0
  8  9  1  0  0  0  0
  8 34  1  0  0  0  0
  8 35  1  0  0  0  0
  9 36  1  0  0  0  0
  9 37  1  0  0  0  0
 10 23  1  0  0  0  0
 10 38  1  1  0  0  0
 10 11  1  0  0  0  0
 10  9  1  0  0  0  0
 11 12  1  0  0  0  0
 11 39  1  0  0  0  0
 11 40  1  0  0  0  0
 12 13  1  0  0  0  0
 12 16  1  0  0  0  0
 13 14  2  0  0  0  0
 13 41  1  0  0  0  0
 14 15  1  0  0  0  0
 15 16  2  0  0  0  0
 15 20  1  0  0  0  0
 16 17  1  0  0  0  0
 17 18  2  0  0  0  0
 18 19  1  0  0  0  0
 18 22  1  0  0  0  0
 19 20  1  0  0  0  0
 19 42  1  0  0  0  0
 20 21  2  0  0  0  0
 22 43  1  0  0  0  0
 22 44  1  0  0  0  0
 23 24  1  0  0  0  0
 23 45  1  0  0  0  0
 23 46  1  0  0  0  0
 24 47  1  0  0  0  0
 25 48  1  0  0  0  0
 25 49  1  0  0  0  0
M  END
>  <DRUGBANK_ID>
DB06575

>  <COMMON_NAME>
Valomaciclovir

>  <CAS_NUMBER>
195157-34-7

>  <UNII>
F094Y61748

>  <SYNONYMS>
Valomaciclovir

$$$$
