
 OpenBabel03242509423D

 35 39  0  0  0  0  0  0  0  0999 V2000
   49.0940   66.4830   37.4830 C   0  0  0  0  0  3  0  0  0  0  0  0
   50.3020   67.2170   37.5860 C   0  0  0  0  0  3  0  0  0  0  0  0
   51.4630   66.6610   37.1170 C   0  0  0  0  0  0  0  0  0  0  0  0
   51.4120   65.4170   36.5640 N   0  0  0  0  0  0  0  0  0  0  0  0
   50.2450   64.7420   36.4810 C   0  0  0  0  0  0  0  0  0  0  0  0
   49.0990   65.2410   36.9230 N   0  0  0  0  0  0  0  0  0  0  0  0
   50.2920   63.3930   35.8620 C   0  0  0  0  0  0  0  0  0  0  0  0
   51.3800   62.6220   35.5890 C   0  0  0  0  0  3  0  0  0  0  0  0
   51.1410   61.4080   35.0110 C   0  0  0  0  0  3  0  0  0  0  0  0
   49.8370   61.0660   34.7530 C   0  0  0  0  0  0  0  0  0  0  0  0
   48.9240   62.4450   35.3210 S   0  0  0  0  0  0  0  0  0  0  0  0
   49.2900   59.9090   34.1770 N   0  0  0  0  0  0  0  0  0  0  0  0
   49.8510   58.6600   34.3230 C   0  0  0  0  0  0  0  0  0  0  0  0
   51.1320   58.4810   34.3460 N   0  0  0  0  0  0  0  0  0  0  0  0
   48.9560   57.5420   34.4490 N   0  0  0  0  0  0  0  0  0  0  0  0
   51.7910   59.2390   34.2380 H   0  0  0  0  0  0  0  0  0  0  0  0
   48.4280   59.9970   33.6190 H   0  0  0  0  0  0  0  0  0  0  0  0
   49.3340   56.5910   34.5600 H   0  0  0  0  0  0  0  0  0  0  0  0
   47.9380   57.6930   34.4280 H   0  0  0  0  0  0  0  0  0  0  0  0
   52.7200   67.3830   37.2040 C   0  0  0  0  0  0  0  0  0  0  0  0
   53.4950   67.5230   38.3240 C   0  0  0  0  0  3  0  0  0  0  0  0
   54.5890   68.2930   37.9060 C   0  0  0  0  0  3  0  0  0  0  0  0
   54.4140   68.5730   36.5620 C   0  0  0  0  0  0  0  0  0  0  0  0
   53.2960   67.9990   36.2450 O   0  0  0  0  0  0  0  0  0  0  0  0
   55.1490   69.2810   35.6170 N   0  0  0  0  0  0  0  0  0  0  0  0
   54.9200   70.6240   35.5630 C   0  0  0  0  0  3  0  0  0  0  0  0
   55.7870   71.1440   34.5840 C   0  0  0  0  0  3  0  0  0  0  0  0
   56.4860   70.0970   34.1010 N   0  0  0  0  0  0  0  0  0  0  0  0
   56.0900   68.9900   34.7300 C   0  0  0  0  0  0  0  0  0  0  0  0
   56.6110   67.6540   34.4480 C   0  0  0  0  0  3  0  0  0  0  0  0
   58.0600   67.5960   34.9010 C   0  0  0  0  0  2  0  0  0  0  0  0
   58.6670   66.2550   34.6610 C   0  0  0  0  0  2  0  0  0  0  0  0
   58.3920   65.6640   33.3150 C   0  0  0  0  0  2  0  0  0  0  0  0
   57.0510   65.9960   32.7440 C   0  0  0  0  0  2  0  0  0  0  0  0
   56.6730   67.4640   32.9220 C   0  0  0  0  0  2  0  0  0  0  0  0
  1  2  1  0  0  0  0
  3 20  1  0  0  0  0
  3  2  2  0  0  0  0
  4  3  1  0  0  0  0
  5  4  2  0  0  0  0
  5  6  1  0  0  0  0
  6  1  2  0  0  0  0
  7  5  1  0  0  0  0
  8  7  2  0  0  0  0
  9  8  1  0  0  0  0
 10  9  2  0  0  0  0
 10 11  1  0  0  0  0
 11  7  1  0  0  0  0
 12 13  1  0  0  0  0
 12 10  1  0  0  0  0
 13 14  2  0  0  0  0
 13 15  1  0  0  0  0
 15 18  1  0  0  0  0
 16 14  1  0  0  0  0
 17 12  1  0  0  0  0
 19 15  1  0  0  0  0
 20 21  2  0  0  0  0
 22 21  1  0  0  0  0
 23 22  2  0  0  0  0
 24 23  1  0  0  0  0
 24 20  1  0  0  0  0
 25 23  1  0  0  0  0
 26 25  1  0  0  0  0
 27 26  2  0  0  0  0
 28 27  1  0  0  0  0
 28 29  2  0  0  0  0
 29 25  1  0  0  0  0
 30 29  1  0  0  0  0
 30 31  1  0  0  0  0
 32 31  1  0  0  0  0
 33 32  1  0  0  0  0
 34 35  1  0  0  0  0
 34 33  1  0  0  0  0
 35 30  1  0  0  0  0
M  END
>  <minimizedAffinity>
-7.55409861

$$$$

 OpenBabel03242509423D

 35 39  0  0  0  0  0  0  0  0999 V2000
   54.8690   68.5460   36.3270 C   0  0  0  0  0  3  0  0  0  0  0  0
   55.3950   67.5930   35.4200 C   0  0  0  0  0  3  0  0  0  0  0  0
   55.0280   67.6540   34.1000 C   0  0  0  0  0  0  0  0  0  0  0  0
   54.1680   68.6360   33.7090 N   0  0  0  0  0  0  0  0  0  0  0  0
   53.6840   69.5300   34.5990 C   0  0  0  0  0  0  0  0  0  0  0  0
   54.0110   69.5070   35.8830 N   0  0  0  0  0  0  0  0  0  0  0  0
   52.7530   70.5620   34.0760 C   0  0  0  0  0  0  0  0  0  0  0  0
   53.0120   71.8650   33.7810 C   0  0  0  0  0  3  0  0  0  0  0  0
   51.9650   72.6050   33.3100 C   0  0  0  0  0  3  0  0  0  0  0  0
   50.7500   71.9830   33.1740 C   0  0  0  0  0  0  0  0  0  0  0  0
   51.0570   70.3460   33.7050 S   0  0  0  0  0  0  0  0  0  0  0  0
   49.5140   72.4750   32.7240 N   0  0  0  0  0  0  0  0  0  0  0  0
   48.9850   72.1610   31.4930 C   0  0  0  0  0  0  0  0  0  0  0  0
   49.7250   72.0290   30.4400 N   0  0  0  0  0  0  0  0  0  0  0  0
   47.5600   71.9850   31.4090 N   0  0  0  0  0  0  0  0  0  0  0  0
   50.7260   72.1670   30.4560 H   0  0  0  0  0  0  0  0  0  0  0  0
   48.9780   73.0990   33.3440 H   0  0  0  0  0  0  0  0  0  0  0  0
   47.1230   71.7500   30.5070 H   0  0  0  0  0  0  0  0  0  0  0  0
   46.9780   72.0940   32.2510 H   0  0  0  0  0  0  0  0  0  0  0  0
   55.5460   66.6970   33.1400 C   0  0  0  0  0  0  0  0  0  0  0  0
   56.6860   66.8390   32.3940 C   0  0  0  0  0  3  0  0  0  0  0  0
   56.7580   65.6670   31.6280 C   0  0  0  0  0  3  0  0  0  0  0  0
   55.6620   64.8860   31.9530 C   0  0  0  0  0  0  0  0  0  0  0  0
   55.0170   65.5740   32.8430 O   0  0  0  0  0  0  0  0  0  0  0  0
   55.2000   63.6440   31.5330 N   0  0  0  0  0  0  0  0  0  0  0  0
   55.7930   63.1290   30.4180 C   0  0  0  0  0  3  0  0  0  0  0  0
   55.2140   61.8660   30.1990 C   0  0  0  0  0  3  0  0  0  0  0  0
   54.3090   61.6860   31.1820 N   0  0  0  0  0  0  0  0  0  0  0  0
   54.3130   62.7610   31.9700 C   0  0  0  0  0  0  0  0  0  0  0  0
   53.4390   62.9330   33.1280 C   0  0  0  0  0  3  0  0  0  0  0  0
   53.0660   61.5600   33.6600 C   0  0  0  0  0  2  0  0  0  0  0  0
   52.1810   61.6450   34.8580 C   0  0  0  0  0  2  0  0  0  0  0  0
   51.0510   62.6180   34.7460 C   0  0  0  0  0  2  0  0  0  0  0  0
   51.3520   63.8430   33.9440 C   0  0  0  0  0  2  0  0  0  0  0  0
   52.1080   63.5410   32.6530 C   0  0  0  0  0  2  0  0  0  0  0  0
  2  1  1  0  0  0  0
  3  2  2  0  0  0  0
  4  3  1  0  0  0  0
  4  5  2  0  0  0  0
  5  6  1  0  0  0  0
  6  1  2  0  0  0  0
  7  5  1  0  0  0  0
  8  7  2  0  0  0  0
  9  8  1  0  0  0  0
 10  9  2  0  0  0  0
 10 11  1  0  0  0  0
 11  7  1  0  0  0  0
 12 10  1  0  0  0  0
 12 17  1  0  0  0  0
 13 12  1  0  0  0  0
 14 16  1  0  0  0  0
 14 13  2  0  0  0  0
 15 13  1  0  0  0  0
 15 19  1  0  0  0  0
 18 15  1  0  0  0  0
 20  3  1  0  0  0  0
 21 20  2  0  0  0  0
 22 23  2  0  0  0  0
 22 21  1  0  0  0  0
 23 24  1  0  0  0  0
 24 20  1  0  0  0  0
 25 23  1  0  0  0  0
 25 29  1  0  0  0  0
 26 25  1  0  0  0  0
 27 26  2  0  0  0  0
 27 28  1  0  0  0  0
 28 29  2  0  0  0  0
 29 30  1  0  0  0  0
 30 31  1  0  0  0  0
 31 32  1  0  0  0  0
 33 32  1  0  0  0  0
 34 33  1  0  0  0  0
 35 30  1  0  0  0  0
 35 34  1  0  0  0  0
M  END
>  <minimizedAffinity>
-6.8265748

$$$$

 OpenBabel03242509423D

 35 39  0  0  0  0  0  0  0  0999 V2000
   50.3600   66.3500   37.7360 C   0  0  0  0  0  3  0  0  0  0  0  0
   51.1620   67.2640   37.0080 C   0  0  0  0  0  3  0  0  0  0  0  0
   51.8010   66.8340   35.8740 C   0  0  0  0  0  0  0  0  0  0  0  0
   51.6380   65.5380   35.4870 N   0  0  0  0  0  0  0  0  0  0  0  0
   50.8670   64.6910   36.2030 C   0  0  0  0  0  0  0  0  0  0  0  0
   50.2320   65.0640   37.3050 N   0  0  0  0  0  0  0  0  0  0  0  0
   50.7510   63.2980   35.7000 C   0  0  0  0  0  0  0  0  0  0  0  0
   51.7410   62.3920   35.4800 C   0  0  0  0  0  3  0  0  0  0  0  0
   51.3580   61.1680   35.0100 C   0  0  0  0  0  3  0  0  0  0  0  0
   50.0190   60.9540   34.7980 C   0  0  0  0  0  0  0  0  0  0  0  0
   49.2760   62.4680   35.2580 S   0  0  0  0  0  0  0  0  0  0  0  0
   49.3350   59.8210   34.3290 N   0  0  0  0  0  0  0  0  0  0  0  0
   49.8750   58.5550   34.3540 C   0  0  0  0  0  0  0  0  0  0  0  0
   51.1300   58.3380   34.1280 N   0  0  0  0  0  0  0  0  0  0  0  0
   48.9870   57.4610   34.6410 N   0  0  0  0  0  0  0  0  0  0  0  0
   51.7800   59.0780   33.9010 H   0  0  0  0  0  0  0  0  0  0  0  0
   48.3860   59.9420   33.9480 H   0  0  0  0  0  0  0  0  0  0  0  0
   49.3480   56.4980   34.6700 H   0  0  0  0  0  0  0  0  0  0  0  0
   47.9880   57.6420   34.8180 H   0  0  0  0  0  0  0  0  0  0  0  0
   52.6300   67.7400   35.1000 C   0  0  0  0  0  0  0  0  0  0  0  0
   53.7840   67.4130   34.4380 C   0  0  0  0  0  3  0  0  0  0  0  0
   54.2100   68.6120   33.8500 C   0  0  0  0  0  3  0  0  0  0  0  0
   53.2920   69.5920   34.1880 C   0  0  0  0  0  0  0  0  0  0  0  0
   52.4100   68.9840   34.9180 O   0  0  0  0  0  0  0  0  0  0  0  0
   53.1790   70.9500   33.9080 N   0  0  0  0  0  0  0  0  0  0  0  0
   54.3280   71.6780   33.9960 C   0  0  0  0  0  3  0  0  0  0  0  0
   54.0000   72.9970   33.6350 C   0  0  0  0  0  3  0  0  0  0  0  0
   52.6820   72.9980   33.3530 N   0  0  0  0  0  0  0  0  0  0  0  0
   52.2060   71.7640   33.5230 C   0  0  0  0  0  0  0  0  0  0  0  0
   50.8070   71.3900   33.3330 C   0  0  0  0  0  3  0  0  0  0  0  0
   50.2700   72.1280   32.1190 C   0  0  0  0  0  2  0  0  0  0  0  0
   48.8440   71.7910   31.8440 C   0  0  0  0  0  2  0  0  0  0  0  0
   47.9480   71.7910   33.0420 C   0  0  0  0  0  2  0  0  0  0  0  0
   48.5960   71.3440   34.3120 C   0  0  0  0  0  2  0  0  0  0  0  0
   49.9870   71.9380   34.5140 C   0  0  0  0  0  2  0  0  0  0  0  0
  2  1  1  0  0  0  0
  3  2  2  0  0  0  0
  4  3  1  0  0  0  0
  4  5  2  0  0  0  0
  5  6  1  0  0  0  0
  6  1  2  0  0  0  0
  7  5  1  0  0  0  0
  8  7  2  0  0  0  0
  9  8  1  0  0  0  0
 10  9  2  0  0  0  0
 10 11  1  0  0  0  0
 11  7  1  0  0  0  0
 12 13  1  0  0  0  0
 12 10  1  0  0  0  0
 13 15  1  0  0  0  0
 14 13  2  0  0  0  0
 15 18  1  0  0  0  0
 15 19  1  0  0  0  0
 16 14  1  0  0  0  0
 17 12  1  0  0  0  0
 20  3  1  0  0  0  0
 21 20  2  0  0  0  0
 22 23  2  0  0  0  0
 22 21  1  0  0  0  0
 23 24  1  0  0  0  0
 24 20  1  0  0  0  0
 25 26  1  0  0  0  0
 25 23  1  0  0  0  0
 27 26  2  0  0  0  0
 28 29  2  0  0  0  0
 28 27  1  0  0  0  0
 29 25  1  0  0  0  0
 30 29  1  0  0  0  0
 30 35  1  0  0  0  0
 31 30  1  0  0  0  0
 32 31  1  0  0  0  0
 32 33  1  0  0  0  0
 33 34  1  0  0  0  0
 34 35  1  0  0  0  0
M  END
>  <minimizedAffinity>
-6.80734539

$$$$

 OpenBabel03242509423D

 35 39  0  0  0  0  0  0  0  0999 V2000
   56.1960   66.7450   31.4640 C   0  0  0  0  0  3  0  0  0  0  0  0
   55.3780   65.5990   31.3030 C   0  0  0  0  0  3  0  0  0  0  0  0
   54.4440   65.3070   32.2640 C   0  0  0  0  0  0  0  0  0  0  0  0
   54.3370   66.1340   33.3400 N   0  0  0  0  0  0  0  0  0  0  0  0
   55.1320   67.2190   33.4640 C   0  0  0  0  0  0  0  0  0  0  0  0
   56.0480   67.5380   32.5610 N   0  0  0  0  0  0  0  0  0  0  0  0
   54.9390   68.0600   34.6730 C   0  0  0  0  0  0  0  0  0  0  0  0
   54.5130   69.3500   34.7490 C   0  0  0  0  0  3  0  0  0  0  0  0
   54.4230   69.8930   35.9990 C   0  0  0  0  0  3  0  0  0  0  0  0
   54.7660   69.1020   37.0670 C   0  0  0  0  0  0  0  0  0  0  0  0
   55.2200   67.5820   36.3320 S   0  0  0  0  0  0  0  0  0  0  0  0
   54.7760   69.3760   38.4440 N   0  0  0  0  0  0  0  0  0  0  0  0
   54.2030   68.5440   39.3790 C   0  0  0  0  0  0  0  0  0  0  0  0
   53.1040   67.9030   39.1460 N   0  0  0  0  0  0  0  0  0  0  0  0
   54.8720   68.4080   40.6440 N   0  0  0  0  0  0  0  0  0  0  0  0
   52.5930   67.9910   38.2780 H   0  0  0  0  0  0  0  0  0  0  0  0
   55.2330   70.2400   38.7700 H   0  0  0  0  0  0  0  0  0  0  0  0
   54.4780   67.7960   41.3720 H   0  0  0  0  0  0  0  0  0  0  0  0
   55.7450   68.9230   40.8220 H   0  0  0  0  0  0  0  0  0  0  0  0
   53.5850   64.1430   32.1350 C   0  0  0  0  0  0  0  0  0  0  0  0
   53.3910   63.4050   30.9970 C   0  0  0  0  0  3  0  0  0  0  0  0
   52.4880   62.4010   31.3740 C   0  0  0  0  0  3  0  0  0  0  0  0
   52.1890   62.5880   32.7130 C   0  0  0  0  0  0  0  0  0  0  0  0
   52.8790   63.6290   33.0650 O   0  0  0  0  0  0  0  0  0  0  0  0
   51.3730   61.9270   33.6240 N   0  0  0  0  0  0  0  0  0  0  0  0
   51.2690   60.5760   33.4640 C   0  0  0  0  0  3  0  0  0  0  0  0
   50.4440   60.1090   34.5030 C   0  0  0  0  0  3  0  0  0  0  0  0
   50.0930   61.1910   35.2270 N   0  0  0  0  0  0  0  0  0  0  0  0
   50.6580   62.2700   34.6850 C   0  0  0  0  0  0  0  0  0  0  0  0
   50.4790   63.6300   35.1880 C   0  0  0  0  0  3  0  0  0  0  0  0
   51.3840   63.8220   36.3930 C   0  0  0  0  0  2  0  0  0  0  0  0
   51.2720   65.1970   36.9630 C   0  0  0  0  0  2  0  0  0  0  0  0
   49.8760   65.7080   37.1210 C   0  0  0  0  0  2  0  0  0  0  0  0
   48.9140   65.2480   36.0730 C   0  0  0  0  0  2  0  0  0  0  0  0
   49.0520   63.7630   35.7480 C   0  0  0  0  0  2  0  0  0  0  0  0
  1  6  2  0  0  0  0
  2  1  1  0  0  0  0
  2  3  2  0  0  0  0
  3  4  1  0  0  0  0
  4  5  2  0  0  0  0
  5  7  1  0  0  0  0
  6  5  1  0  0  0  0
  7  8  2  0  0  0  0
  7 11  1  0  0  0  0
  8  9  1  0  0  0  0
  9 10  2  0  0  0  0
 10 12  1  0  0  0  0
 11 10  1  0  0  0  0
 12 17  1  0  0  0  0
 12 13  1  0  0  0  0
 13 15  1  0  0  0  0
 14 13  2  0  0  0  0
 15 19  1  0  0  0  0
 15 18  1  0  0  0  0
 16 14  1  0  0  0  0
 20  3  1  0  0  0  0
 20 24  1  0  0  0  0
 21 22  1  0  0  0  0
 21 20  2  0  0  0  0
 22 23  2  0  0  0  0
 23 24  1  0  0  0  0
 23 25  1  0  0  0  0
 25 29  1  0  0  0  0
 26 25  1  0  0  0  0
 26 27  2  0  0  0  0
 27 28  1  0  0  0  0
 29 30  1  0  0  0  0
 29 28  2  0  0  0  0
 30 35  1  0  0  0  0
 30 31  1  0  0  0  0
 31 32  1  0  0  0  0
 32 33  1  0  0  0  0
 34 33  1  0  0  0  0
 35 34  1  0  0  0  0
M  END
>  <minimizedAffinity>
-6.70793343

$$$$

 OpenBabel03242509423D

 35 39  0  0  0  0  0  0  0  0999 V2000
   52.3860   61.6610   32.3710 C   0  0  0  0  0  3  0  0  0  0  0  0
   52.4640   62.7050   33.3250 C   0  0  0  0  0  3  0  0  0  0  0  0
   51.3790   62.9610   34.1240 C   0  0  0  0  0  0  0  0  0  0  0  0
   50.2630   62.1960   33.9700 N   0  0  0  0  0  0  0  0  0  0  0  0
   50.2200   61.2070   33.0510 C   0  0  0  0  0  0  0  0  0  0  0  0
   51.2450   60.9260   32.2570 N   0  0  0  0  0  0  0  0  0  0  0  0
   48.9590   60.4280   32.9590 C   0  0  0  0  0  0  0  0  0  0  0  0
   48.8000   59.0780   32.8970 C   0  0  0  0  0  3  0  0  0  0  0  0
   47.5170   58.6160   32.8170 C   0  0  0  0  0  3  0  0  0  0  0  0
   46.5020   59.5410   32.8040 C   0  0  0  0  0  0  0  0  0  0  0  0
   47.3350   61.0750   32.9060 S   0  0  0  0  0  0  0  0  0  0  0  0
   45.1100   59.3730   32.7300 N   0  0  0  0  0  0  0  0  0  0  0  0
   44.2630   59.6600   33.7760 C   0  0  0  0  0  0  0  0  0  0  0  0
   44.5890   59.4320   35.0070 N   0  0  0  0  0  0  0  0  0  0  0  0
   42.9820   60.2280   33.4540 N   0  0  0  0  0  0  0  0  0  0  0  0
   45.4700   59.0130   35.2700 H   0  0  0  0  0  0  0  0  0  0  0  0
   44.7040   59.0180   31.8520 H   0  0  0  0  0  0  0  0  0  0  0  0
   42.3170   60.4590   34.2050 H   0  0  0  0  0  0  0  0  0  0  0  0
   42.7300   60.4050   32.4710 H   0  0  0  0  0  0  0  0  0  0  0  0
   51.4200   64.0220   35.1150 C   0  0  0  0  0  0  0  0  0  0  0  0
   50.9960   63.9300   36.4140 C   0  0  0  0  0  3  0  0  0  0  0  0
   51.2390   65.1990   36.9580 C   0  0  0  0  0  3  0  0  0  0  0  0
   51.7950   65.9820   35.9610 C   0  0  0  0  0  0  0  0  0  0  0  0
   51.8590   65.2050   34.9250 O   0  0  0  0  0  0  0  0  0  0  0  0
   52.2370   67.2990   35.8990 N   0  0  0  0  0  0  0  0  0  0  0  0
   51.3540   68.2490   36.3210 C   0  0  0  0  0  3  0  0  0  0  0  0
   52.0110   69.4880   36.2160 C   0  0  0  0  0  3  0  0  0  0  0  0
   53.2440   69.2260   35.7380 N   0  0  0  0  0  0  0  0  0  0  0  0
   53.3610   67.9100   35.5520 C   0  0  0  0  0  0  0  0  0  0  0  0
   54.5550   67.2600   35.0180 C   0  0  0  0  0  3  0  0  0  0  0  0
   55.7770   68.0180   35.5050 C   0  0  0  0  0  2  0  0  0  0  0  0
   57.0460   67.4080   35.0130 C   0  0  0  0  0  2  0  0  0  0  0  0
   57.0560   67.0400   33.5640 C   0  0  0  0  0  2  0  0  0  0  0  0
   55.7410   66.5800   33.0230 C   0  0  0  0  0  2  0  0  0  0  0  0
   54.5690   67.4390   33.4890 C   0  0  0  0  0  2  0  0  0  0  0  0
  1  2  1  0  0  0  0
  2  3  2  0  0  0  0
  3 20  1  0  0  0  0
  4  3  1  0  0  0  0
  5  4  2  0  0  0  0
  6  1  2  0  0  0  0
  6  5  1  0  0  0  0
  7  5  1  0  0  0  0
  8  7  2  0  0  0  0
  9  8  1  0  0  0  0
 10  9  2  0  0  0  0
 10 11  1  0  0  0  0
 11  7  1  0  0  0  0
 12 10  1  0  0  0  0
 12 13  1  0  0  0  0
 13 14  2  0  0  0  0
 14 16  1  0  0  0  0
 15 13  1  0  0  0  0
 15 18  1  0  0  0  0
 17 12  1  0  0  0  0
 19 15  1  0  0  0  0
 20 21  2  0  0  0  0
 21 22  1  0  0  0  0
 23 22  2  0  0  0  0
 24 20  1  0  0  0  0
 24 23  1  0  0  0  0
 25 23  1  0  0  0  0
 25 26  1  0  0  0  0
 27 26  2  0  0  0  0
 28 27  1  0  0  0  0
 29 28  2  0  0  0  0
 29 25  1  0  0  0  0
 30 31  1  0  0  0  0
 30 29  1  0  0  0  0
 32 31  1  0  0  0  0
 33 32  1  0  0  0  0
 34 35  1  0  0  0  0
 34 33  1  0  0  0  0
 35 30  1  0  0  0  0
M  END
>  <minimizedAffinity>
-6.6258812

$$$$

 OpenBabel03242509423D

 35 39  0  0  0  0  0  0  0  0999 V2000
   55.6750   64.2700   30.7460 C   0  0  0  0  0  3  0  0  0  0  0  0
   55.4410   65.4830   31.4420 C   0  0  0  0  0  3  0  0  0  0  0  0
   54.5070   65.5070   32.4440 C   0  0  0  0  0  0  0  0  0  0  0  0
   53.8370   64.3570   32.7370 N   0  0  0  0  0  0  0  0  0  0  0  0
   54.0830   63.2180   32.0560 C   0  0  0  0  0  0  0  0  0  0  0  0
   54.9760   63.1490   31.0790 N   0  0  0  0  0  0  0  0  0  0  0  0
   53.3010   62.0170   32.4490 C   0  0  0  0  0  0  0  0  0  0  0  0
   52.8860   60.9830   31.6670 C   0  0  0  0  0  3  0  0  0  0  0  0
   52.1750   59.9950   32.2860 C   0  0  0  0  0  3  0  0  0  0  0  0
   51.9390   60.1220   33.6320 C   0  0  0  0  0  0  0  0  0  0  0  0
   52.7140   61.6330   34.0510 S   0  0  0  0  0  0  0  0  0  0  0  0
   51.2520   59.2850   34.5250 N   0  0  0  0  0  0  0  0  0  0  0  0
   49.9150   58.9850   34.3950 C   0  0  0  0  0  0  0  0  0  0  0  0
   49.0530   59.8550   33.9800 N   0  0  0  0  0  0  0  0  0  0  0  0
   49.4980   57.6540   34.7420 N   0  0  0  0  0  0  0  0  0  0  0  0
   49.3050   60.8060   33.7490 H   0  0  0  0  0  0  0  0  0  0  0  0
   51.7720   58.8760   35.3150 H   0  0  0  0  0  0  0  0  0  0  0  0
   48.5070   57.3870   34.6600 H   0  0  0  0  0  0  0  0  0  0  0  0
   50.1900   56.9670   35.0730 H   0  0  0  0  0  0  0  0  0  0  0  0
   54.2390   66.7290   33.1810 C   0  0  0  0  0  0  0  0  0  0  0  0
   53.0790   67.0370   33.8400 C   0  0  0  0  0  3  0  0  0  0  0  0
   53.3060   68.3080   34.3870 C   0  0  0  0  0  3  0  0  0  0  0  0
   54.5870   68.6940   34.0290 C   0  0  0  0  0  0  0  0  0  0  0  0
   55.0480   67.7060   33.3270 O   0  0  0  0  0  0  0  0  0  0  0  0
   55.3590   69.8260   34.2680 N   0  0  0  0  0  0  0  0  0  0  0  0
   56.6760   69.6050   34.5420 C   0  0  0  0  0  3  0  0  0  0  0  0
   57.2730   70.8690   34.7060 C   0  0  0  0  0  3  0  0  0  0  0  0
   56.2930   71.7780   34.5270 N   0  0  0  0  0  0  0  0  0  0  0  0
   55.1540   71.1350   34.2670 C   0  0  0  0  0  0  0  0  0  0  0  0
   53.8710   71.7960   34.0430 C   0  0  0  0  0  3  0  0  0  0  0  0
   54.1340   73.2400   33.6520 C   0  0  0  0  0  2  0  0  0  0  0  0
   52.8700   73.9880   33.3900 C   0  0  0  0  0  2  0  0  0  0  0  0
   51.7890   73.7850   34.4040 C   0  0  0  0  0  2  0  0  0  0  0  0
   51.7440   72.4200   35.0110 C   0  0  0  0  0  2  0  0  0  0  0  0
   53.1240   71.8870   35.3860 C   0  0  0  0  0  2  0  0  0  0  0  0
  1  6  2  0  0  0  0
  1  2  1  0  0  0  0
  2  3  2  0  0  0  0
  3  4  1  0  0  0  0
  3 20  1  0  0  0  0
  5  7  1  0  0  0  0
  5  4  2  0  0  0  0
  6  5  1  0  0  0  0
  7 11  1  0  0  0  0
  8  9  1  0  0  0  0
  8  7  2  0  0  0  0
  9 10  2  0  0  0  0
 10 11  1  0  0  0  0
 10 12  1  0  0  0  0
 12 17  1  0  0  0  0
 13 12  1  0  0  0  0
 13 15  1  0  0  0  0
 14 13  2  0  0  0  0
 15 19  1  0  0  0  0
 16 14  1  0  0  0  0
 18 15  1  0  0  0  0
 20 24  1  0  0  0  0
 20 21  2  0  0  0  0
 21 22  1  0  0  0  0
 23 25  1  0  0  0  0
 23 22  2  0  0  0  0
 24 23  1  0  0  0  0
 25 26  1  0  0  0  0
 26 27  2  0  0  0  0
 28 27  1  0  0  0  0
 29 25  1  0  0  0  0
 29 28  2  0  0  0  0
 30 29  1  0  0  0  0
 30 35  1  0  0  0  0
 31 30  1  0  0  0  0
 32 31  1  0  0  0  0
 32 33  1  0  0  0  0
 33 34  1  0  0  0  0
 34 35  1  0  0  0  0
M  END
>  <minimizedAffinity>
-6.61194897

$$$$

 OpenBabel03242509423D

 35 39  0  0  0  0  0  0  0  0999 V2000
   56.4720   65.4340   31.0930 C   0  0  0  0  0  3  0  0  0  0  0  0
   56.7110   66.6290   31.8180 C   0  0  0  0  0  3  0  0  0  0  0  0
   55.8590   66.9730   32.8350 C   0  0  0  0  0  0  0  0  0  0  0  0
   54.8110   66.1500   33.1130 N   0  0  0  0  0  0  0  0  0  0  0  0
   54.6090   65.0180   32.4030 C   0  0  0  0  0  0  0  0  0  0  0  0
   55.4070   64.6470   31.4110 N   0  0  0  0  0  0  0  0  0  0  0  0
   53.4390   64.1860   32.7820 C   0  0  0  0  0  0  0  0  0  0  0  0
   52.3480   64.5410   33.5140 C   0  0  0  0  0  3  0  0  0  0  0  0
   51.4070   63.5730   33.7180 C   0  0  0  0  0  3  0  0  0  0  0  0
   51.6340   62.3330   33.1750 C   0  0  0  0  0  0  0  0  0  0  0  0
   53.1740   62.5070   32.3660 S   0  0  0  0  0  0  0  0  0  0  0  0
   50.8630   61.1600   33.2140 N   0  0  0  0  0  0  0  0  0  0  0  0
   50.7790   60.3550   34.3280 C   0  0  0  0  0  0  0  0  0  0  0  0
   51.7920   60.1470   35.1040 N   0  0  0  0  0  0  0  0  0  0  0  0
   49.5100   59.7380   34.6050 N   0  0  0  0  0  0  0  0  0  0  0  0
   52.7050   60.5450   34.9290 H   0  0  0  0  0  0  0  0  0  0  0  0
   50.3370   60.8890   32.3710 H   0  0  0  0  0  0  0  0  0  0  0  0
   49.4020   59.1290   35.4270 H   0  0  0  0  0  0  0  0  0  0  0  0
   48.7090   59.9070   33.9800 H   0  0  0  0  0  0  0  0  0  0  0  0
   56.0720   68.1880   33.6020 C   0  0  0  0  0  0  0  0  0  0  0  0
   56.8490   68.3090   34.7220 C   0  0  0  0  0  3  0  0  0  0  0  0
   56.7350   69.6570   35.0910 C   0  0  0  0  0  3  0  0  0  0  0  0
   55.8980   70.2710   34.1750 C   0  0  0  0  0  0  0  0  0  0  0  0
   55.5640   69.3310   33.3470 O   0  0  0  0  0  0  0  0  0  0  0  0
   55.4190   71.5680   34.0200 N   0  0  0  0  0  0  0  0  0  0  0  0
   56.3560   72.5580   34.0270 C   0  0  0  0  0  3  0  0  0  0  0  0
   55.6680   73.7670   33.8150 C   0  0  0  0  0  3  0  0  0  0  0  0
   54.3640   73.4470   33.6950 N   0  0  0  0  0  0  0  0  0  0  0  0
   54.2330   72.1260   33.8220 C   0  0  0  0  0  0  0  0  0  0  0  0
   52.9560   71.4190   33.7730 C   0  0  0  0  0  3  0  0  0  0  0  0
   51.9030   72.3630   33.2190 C   0  0  0  0  0  2  0  0  0  0  0  0
   50.5640   71.7130   33.1220 C   0  0  0  0  0  2  0  0  0  0  0  0
   50.1500   70.9260   34.3250 C   0  0  0  0  0  2  0  0  0  0  0  0
   51.2680   70.2430   35.0450 C   0  0  0  0  0  2  0  0  0  0  0  0
   52.4990   71.1300   35.2140 C   0  0  0  0  0  2  0  0  0  0  0  0
  1  6  2  0  0  0  0
  1  2  1  0  0  0  0
  2  3  2  0  0  0  0
  3  4  1  0  0  0  0
  3 20  1  0  0  0  0
  5  7  1  0  0  0  0
  5  4  2  0  0  0  0
  6  5  1  0  0  0  0
  7  8  2  0  0  0  0
  8  9  1  0  0  0  0
 10 12  1  0  0  0  0
 10  9  2  0  0  0  0
 11  7  1  0  0  0  0
 11 10  1  0  0  0  0
 12 13  1  0  0  0  0
 13 15  1  0  0  0  0
 13 14  2  0  0  0  0
 15 18  1  0  0  0  0
 16 14  1  0  0  0  0
 17 12  1  0  0  0  0
 19 15  1  0  0  0  0
 20 21  2  0  0  0  0
 21 22  1  0  0  0  0
 23 22  2  0  0  0  0
 24 20  1  0  0  0  0
 24 23  1  0  0  0  0
 25 26  1  0  0  0  0
 25 23  1  0  0  0  0
 27 26  2  0  0  0  0
 28 27  1  0  0  0  0
 28 29  2  0  0  0  0
 29 25  1  0  0  0  0
 30 29  1  0  0  0  0
 30 35  1  0  0  0  0
 31 30  1  0  0  0  0
 32 31  1  0  0  0  0
 32 33  1  0  0  0  0
 33 34  1  0  0  0  0
 34 35  1  0  0  0  0
M  END
>  <minimizedAffinity>
-6.601933

$$$$

 OpenBabel03242509423D

 35 39  0  0  0  0  0  0  0  0999 V2000
   52.6540   67.7780   37.5990 C   0  0  0  0  0  3  0  0  0  0  0  0
   52.0690   66.5170   37.3240 C   0  0  0  0  0  3  0  0  0  0  0  0
   51.2660   66.3810   36.2210 C   0  0  0  0  0  0  0  0  0  0  0  0
   51.0630   67.4680   35.4250 N   0  0  0  0  0  0  0  0  0  0  0  0
   51.6360   68.6560   35.7150 C   0  0  0  0  0  0  0  0  0  0  0  0
   52.4170   68.8330   36.7710 N   0  0  0  0  0  0  0  0  0  0  0  0
   51.3550   69.7820   34.7870 C   0  0  0  0  0  0  0  0  0  0  0  0
   52.2330   70.6550   34.2240 C   0  0  0  0  0  3  0  0  0  0  0  0
   51.7060   71.6070   33.3990 C   0  0  0  0  0  3  0  0  0  0  0  0
   50.3470   71.6070   33.2060 C   0  0  0  0  0  0  0  0  0  0  0  0
   49.7870   70.2680   34.1810 S   0  0  0  0  0  0  0  0  0  0  0  0
   49.5310   72.4460   32.4300 N   0  0  0  0  0  0  0  0  0  0  0  0
   49.1270   72.1270   31.1530 C   0  0  0  0  0  0  0  0  0  0  0  0
   49.9010   71.5060   30.3230 N   0  0  0  0  0  0  0  0  0  0  0  0
   47.7990   72.5140   30.7620 N   0  0  0  0  0  0  0  0  0  0  0  0
   50.8470   71.2390   30.5540 H   0  0  0  0  0  0  0  0  0  0  0  0
   49.2200   73.3400   32.8340 H   0  0  0  0  0  0  0  0  0  0  0  0
   47.4560   72.2960   29.8160 H   0  0  0  0  0  0  0  0  0  0  0  0
   47.1900   73.0100   31.4290 H   0  0  0  0  0  0  0  0  0  0  0  0
   50.6490   65.1050   35.9040 C   0  0  0  0  0  0  0  0  0  0  0  0
   49.3530   64.7480   36.1650 C   0  0  0  0  0  3  0  0  0  0  0  0
   49.2400   63.4380   35.6790 C   0  0  0  0  0  3  0  0  0  0  0  0
   50.4690   63.0790   35.1540 C   0  0  0  0  0  0  0  0  0  0  0  0
   51.2240   64.1180   35.3340 O   0  0  0  0  0  0  0  0  0  0  0  0
   50.9630   61.9300   34.5450 N   0  0  0  0  0  0  0  0  0  0  0  0
   50.4160   60.7510   34.9560 C   0  0  0  0  0  3  0  0  0  0  0  0
   51.0190   59.7360   34.1910 C   0  0  0  0  0  3  0  0  0  0  0  0
   51.8940   60.3490   33.3680 N   0  0  0  0  0  0  0  0  0  0  0  0
   51.8480   61.6630   33.5950 C   0  0  0  0  0  0  0  0  0  0  0  0
   52.6800   62.6450   32.9040 C   0  0  0  0  0  3  0  0  0  0  0  0
   52.1900   62.7700   31.4710 C   0  0  0  0  0  2  0  0  0  0  0  0
   52.9810   63.7680   30.6950 C   0  0  0  0  0  2  0  0  0  0  0  0
   54.4650   63.6710   30.8600 C   0  0  0  0  0  2  0  0  0  0  0  0
   54.9200   63.2410   32.2170 C   0  0  0  0  0  2  0  0  0  0  0  0
   54.1060   62.0800   32.7800 C   0  0  0  0  0  2  0  0  0  0  0  0
  2  1  1  0  0  0  0
  3  2  2  0  0  0  0
  4  5  2  0  0  0  0
  4  3  1  0  0  0  0
  5  6  1  0  0  0  0
  6  1  2  0  0  0  0
  7  5  1  0  0  0  0
  8  7  2  0  0  0  0
  9  8  1  0  0  0  0
 10  9  2  0  0  0  0
 10 11  1  0  0  0  0
 11  7  1  0  0  0  0
 12 17  1  0  0  0  0
 12 10  1  0  0  0  0
 13 12  1  0  0  0  0
 14 16  1  0  0  0  0
 14 13  2  0  0  0  0
 15 13  1  0  0  0  0
 15 19  1  0  0  0  0
 18 15  1  0  0  0  0
 20 21  2  0  0  0  0
 20  3  1  0  0  0  0
 22 21  1  0  0  0  0
 23 24  1  0  0  0  0
 23 22  2  0  0  0  0
 24 20  1  0  0  0  0
 25 26  1  0  0  0  0
 25 23  1  0  0  0  0
 27 26  2  0  0  0  0
 28 29  2  0  0  0  0
 28 27  1  0  0  0  0
 29 25  1  0  0  0  0
 30 29  1  0  0  0  0
 31 30  1  0  0  0  0
 32 33  1  0  0  0  0
 32 31  1  0  0  0  0
 33 34  1  0  0  0  0
 34 35  1  0  0  0  0
 35 30  1  0  0  0  0
M  END
>  <minimizedAffinity>
-6.52514553

$$$$

 OpenBabel03242509423D

 35 39  0  0  0  0  0  0  0  0999 V2000
   53.8340   74.1910   33.6020 C   0  0  0  0  0  3  0  0  0  0  0  0
   52.4560   73.8840   33.4730 C   0  0  0  0  0  3  0  0  0  0  0  0
   52.0530   72.5770   33.5640 C   0  0  0  0  0  0  0  0  0  0  0  0
   52.9960   71.6180   33.7780 N   0  0  0  0  0  0  0  0  0  0  0  0
   54.3020   71.9430   33.8960 C   0  0  0  0  0  0  0  0  0  0  0  0
   54.7370   73.1920   33.8140 N   0  0  0  0  0  0  0  0  0  0  0  0
   55.2550   70.8270   34.1280 C   0  0  0  0  0  0  0  0  0  0  0  0
   56.5460   70.8900   34.5530 C   0  0  0  0  0  3  0  0  0  0  0  0
   57.2050   69.7010   34.6840 C   0  0  0  0  0  3  0  0  0  0  0  0
   56.5210   68.5510   34.3810 C   0  0  0  0  0  0  0  0  0  0  0  0
   54.9380   69.1210   33.9070 S   0  0  0  0  0  0  0  0  0  0  0  0
   56.9250   67.2070   34.4180 N   0  0  0  0  0  0  0  0  0  0  0  0
   57.3640   66.5240   33.3070 C   0  0  0  0  0  0  0  0  0  0  0  0
   56.8480   66.7140   32.1360 N   0  0  0  0  0  0  0  0  0  0  0  0
   58.4290   65.5760   33.4900 N   0  0  0  0  0  0  0  0  0  0  0  0
   56.0840   67.3540   31.9730 H   0  0  0  0  0  0  0  0  0  0  0  0
   56.8910   66.7080   35.3190 H   0  0  0  0  0  0  0  0  0  0  0  0
   58.7880   65.0430   32.6850 H   0  0  0  0  0  0  0  0  0  0  0  0
   58.8330   65.4300   34.4260 H   0  0  0  0  0  0  0  0  0  0  0  0
   50.6510   72.2220   33.4390 C   0  0  0  0  0  0  0  0  0  0  0  0
   49.7600   72.0750   34.4690 C   0  0  0  0  0  3  0  0  0  0  0  0
   48.5510   71.7330   33.8480 C   0  0  0  0  0  3  0  0  0  0  0  0
   48.7780   71.6920   32.4830 C   0  0  0  0  0  0  0  0  0  0  0  0
   50.0320   71.9920   32.3460 O   0  0  0  0  0  0  0  0  0  0  0  0
   47.9810   71.4170   31.3770 N   0  0  0  0  0  0  0  0  0  0  0  0
   48.4360   70.4410   30.5400 C   0  0  0  0  0  3  0  0  0  0  0  0
   47.4700   70.2950   29.5270 C   0  0  0  0  0  3  0  0  0  0  0  0
   46.4940   71.1840   29.8010 N   0  0  0  0  0  0  0  0  0  0  0  0
   46.8180   71.8480   30.9110 C   0  0  0  0  0  0  0  0  0  0  0  0
   46.0070   72.9120   31.4980 C   0  0  0  0  0  3  0  0  0  0  0  0
   44.5470   72.6390   31.1770 C   0  0  0  0  0  2  0  0  0  0  0  0
   43.6440   73.6760   31.7540 C   0  0  0  0  0  2  0  0  0  0  0  0
   44.0900   75.0890   31.5560 C   0  0  0  0  0  2  0  0  0  0  0  0
   45.5720   75.2890   31.5700 C   0  0  0  0  0  2  0  0  0  0  0  0
   46.3250   74.2300   30.7710 C   0  0  0  0  0  2  0  0  0  0  0  0
  1  6  2  0  0  0  0
  2  3  2  0  0  0  0
  2  1  1  0  0  0  0
  3  4  1  0  0  0  0
  4  5  2  0  0  0  0
  5  7  1  0  0  0  0
  6  5  1  0  0  0  0
  7  8  2  0  0  0  0
  8  9  1  0  0  0  0
 10 12  1  0  0  0  0
 10  9  2  0  0  0  0
 11  7  1  0  0  0  0
 11 10  1  0  0  0  0
 12 17  1  0  0  0  0
 13 15  1  0  0  0  0
 13 12  1  0  0  0  0
 14 13  2  0  0  0  0
 15 19  1  0  0  0  0
 16 14  1  0  0  0  0
 18 15  1  0  0  0  0
 20  3  1  0  0  0  0
 20 21  2  0  0  0  0
 22 21  1  0  0  0  0
 23 22  2  0  0  0  0
 24 23  1  0  0  0  0
 24 20  1  0  0  0  0
 25 23  1  0  0  0  0
 26 25  1  0  0  0  0
 27 28  1  0  0  0  0
 27 26  2  0  0  0  0
 28 29  2  0  0  0  0
 29 25  1  0  0  0  0
 29 30  1  0  0  0  0
 31 30  1  0  0  0  0
 31 32  1  0  0  0  0
 33 34  1  0  0  0  0
 33 32  1  0  0  0  0
 35 30  1  0  0  0  0
 35 34  1  0  0  0  0
M  END
>  <minimizedAffinity>
-6.51452255

$$$$
