./init_pose/1_0.pdbqt
 OpenBabel03232521043D

  6  6  0  0  0  0  0  0  0  0999 V2000
   38.2640   29.0830   43.2840 C   0  0  0  0  0  0  0  0  0  0  0  0
   37.6190   27.8910   43.6800 C   0  0  0  0  0  0  0  0  0  0  0  0
   36.5590   27.4270   42.8870 C   0  0  0  0  0  0  0  0  0  0  0  0
   36.2110   28.1550   41.7850 N   0  0  0  0  0  0  0  0  0  0  0  0
   36.8530   29.2930   41.4370 C   0  0  0  0  0  0  0  0  0  0  0  0
   37.8760   29.7500   42.1840 N   0  0  0  0  0  0  0  0  0  0  0  0
  1  2  1  0  0  0  0
  3  2  2  0  0  0  0
  4  3  1  0  0  0  0
  5  4  2  0  0  0  0
  5  6  1  0  0  0  0
  6  1  2  0  0  0  0
M  END
>  <MODEL>
1

>  <REMARK>
 minimizedAffinity -2.33830738REMARK  Name = 7
  0 active torsions:
  status: ('A' for Active; 'I' for Inactive)
                            x       y       z     vdW  Elec       q    Type
                         _______ _______ _______ _____ _____    ______ ____

>  <TORSDO>
F 0

$$$$
