MODEL 2
REMARK minimizedAffinity -2.31700039REMARK  Name = 7
REMARK  0 active torsions:
REMARK  status: ('A' for Active; 'I' for Inactive)
REMARK                            x       y       z     vdW  Elec       q    Type
REMARK                         _______ _______ _______ _____ _____    ______ ____
ROOT
ATOM      1  C   UNL     1      37.660  28.122  43.678  0.00  0.00    +0.000 A 
ATOM      2  C   UNL     1      36.663  27.521  42.879  0.00  0.00    +0.000 A 
ATOM      3  C   UNL     1      36.330  28.146  41.668  0.00  0.00    +0.000 A 
ATOM      4  N   UNL     1      36.984  29.297  41.335  0.00  0.00    +0.000 NA
ATOM      5  C   UNL     1      37.936  29.843  42.126  0.00  0.00    +0.000 A 
ATOM      6  N   UNL     1      38.271  29.254  43.289  0.00  0.00    +0.000 NA
ENDROOT
TORSDOF 0
ENDMDL
