./init_pose/1_1.pdbqt
 OpenBabel03232521043D

  6  6  0  0  0  0  0  0  0  0999 V2000
   37.6600   28.1220   43.6780 C   0  0  0  0  0  0  0  0  0  0  0  0
   36.6630   27.5210   42.8790 C   0  0  0  0  0  0  0  0  0  0  0  0
   36.3300   28.1460   41.6680 C   0  0  0  0  0  0  0  0  0  0  0  0
   36.9840   29.2970   41.3350 N   0  0  0  0  0  0  0  0  0  0  0  0
   37.9360   29.8430   42.1260 C   0  0  0  0  0  0  0  0  0  0  0  0
   38.2710   29.2540   43.2890 N   0  0  0  0  0  0  0  0  0  0  0  0
  2  1  2  0  0  0  0
  3  2  1  0  0  0  0
  4  3  2  0  0  0  0
  4  5  1  0  0  0  0
  5  6  2  0  0  0  0
  6  1  1  0  0  0  0
M  END
>  <MODEL>
2

>  <REMARK>
 minimizedAffinity -2.31700039REMARK  Name = 7
  0 active torsions:
  status: ('A' for Active; 'I' for Inactive)
                            x       y       z     vdW  Elec       q    Type
                         _______ _______ _______ _____ _____    ______ ____

>  <TORSDO>
F 0

$$$$
