./init_pose/1_2.pdbqt
 OpenBabel03232521043D

  6  6  0  0  0  0  0  0  0  0999 V2000
   36.2810   28.1480   41.6790 C   0  0  0  0  0  0  0  0  0  0  0  0
   36.5770   27.4200   42.8520 C   0  0  0  0  0  0  0  0  0  0  0  0
   37.6020   27.9000   43.6800 C   0  0  0  0  0  0  0  0  0  0  0  0
   38.2540   29.0390   43.3030 N   0  0  0  0  0  0  0  0  0  0  0  0
   37.9420   29.7110   42.1720 C   0  0  0  0  0  0  0  0  0  0  0  0
   36.9580   29.2670   41.3680 N   0  0  0  0  0  0  0  0  0  0  0  0
  1  2  1  0  0  0  0
  2  3  2  0  0  0  0
  4  3  1  0  0  0  0
  5  4  2  0  0  0  0
  6  1  2  0  0  0  0
  6  5  1  0  0  0  0
M  END
>  <MODEL>
3

>  <REMARK>
 minimizedAffinity -2.30654073REMARK  Name = 7
  0 active torsions:
  status: ('A' for Active; 'I' for Inactive)
                            x       y       z     vdW  Elec       q    Type
                         _______ _______ _______ _____ _____    ______ ____

>  <TORSDO>
F 0

$$$$
