./init_pose/1_2.pdbqt
     RDKit          3D

 10 10  0  0  0  0  0  0  0  0999 V2000
   36.2810   28.1480   41.6790 C   0  0  0  0  0  0  0  0  0  0  0  0
   36.5770   27.4200   42.8520 C   0  0  0  0  0  0  0  0  0  0  0  0
   37.6020   27.9000   43.6800 C   0  0  0  0  0  0  0  0  0  0  0  0
   38.2540   29.0390   43.3030 N   0  0  0  0  0  0  0  0  0  0  0  0
   37.9420   29.7110   42.1720 C   0  0  0  0  0  0  0  0  0  0  0  0
   36.9580   29.2670   41.3680 N   0  0  0  0  0  0  0  0  0  0  0  0
   35.4837   27.7939   41.0089 H   0  0  0  0  0  0  0  0  0  0  0  0
   36.0215   26.5058   43.1081 H   0  0  0  0  0  0  0  0  0  0  0  0
   37.8731   27.3738   44.6071 H   0  0  0  0  0  0  0  0  0  0  0  0
   38.4947   30.6246   41.9077 H   0  0  0  0  0  0  0  0  0  0  0  0
  1  2  2  0
  2  3  1  0
  4  3  2  0
  5  4  1  0
  6  1  1  0
  6  5  2  0
  1  7  1  0
  2  8  1  0
  3  9  1  0
  5 10  1  0
M  END
>  <MODEL>  (1) 
3

>  <REMARK>  (1) 
 minimizedAffinity -2.30654073REMARK  Name = 7
  0 active torsions:
  status: ('A' for Active; 'I' for Inactive)
                            x       y       z     vdW  Elec       q    Type
                         _______ _______ _______ _____ _____    ______ ____

>  <TORSDO>  (1) 
F 0

$$$$
