./init_pose/1_3.pdbqt
 OpenBabel03232521043D

  6  6  0  0  0  0  0  0  0  0999 V2000
   38.8840   28.0980   43.2410 C   0  0  0  0  0  0  0  0  0  0  0  0
   37.5570   28.3100   43.6710 C   0  0  0  0  0  0  0  0  0  0  0  0
   36.5930   27.3550   43.3140 C   0  0  0  0  0  0  0  0  0  0  0  0
   36.9930   26.2810   42.5720 N   0  0  0  0  0  0  0  0  0  0  0  0
   38.2760   26.1100   42.1800 C   0  0  0  0  0  0  0  0  0  0  0  0
   39.2150   27.0150   42.5170 N   0  0  0  0  0  0  0  0  0  0  0  0
  1  2  1  0  0  0  0
  3  2  2  0  0  0  0
  4  3  1  0  0  0  0
  5  6  1  0  0  0  0
  5  4  2  0  0  0  0
  6  1  2  0  0  0  0
M  END
>  <MODEL>
4

>  <REMARK>
 minimizedAffinity -2.17909789REMARK  Name = 7
  0 active torsions:
  status: ('A' for Active; 'I' for Inactive)
                            x       y       z     vdW  Elec       q    Type
                         _______ _______ _______ _____ _____    ______ ____

>  <TORSDO>
F 0

$$$$
