./init_pose/1_3.pdbqt
     RDKit          3D

 10 10  0  0  0  0  0  0  0  0999 V2000
   38.8840   28.0980   43.2410 C   0  0  0  0  0  0  0  0  0  0  0  0
   37.5570   28.3100   43.6710 C   0  0  0  0  0  0  0  0  0  0  0  0
   36.5930   27.3550   43.3140 C   0  0  0  0  0  0  0  0  0  0  0  0
   36.9930   26.2810   42.5720 N   0  0  0  0  0  0  0  0  0  0  0  0
   38.2760   26.1100   42.1800 C   0  0  0  0  0  0  0  0  0  0  0  0
   39.2150   27.0150   42.5170 N   0  0  0  0  0  0  0  0  0  0  0  0
   39.6609   28.8315   43.5027 H   0  0  0  0  0  0  0  0  0  0  0  0
   37.2871   29.1947   44.2664 H   0  0  0  0  0  0  0  0  0  0  0  0
   35.5436   27.4685   43.6235 H   0  0  0  0  0  0  0  0  0  0  0  0
   38.5538   25.2284   41.5836 H   0  0  0  0  0  0  0  0  0  0  0  0
  1  2  2  0
  3  2  1  0
  4  3  2  0
  5  6  2  0
  5  4  1  0
  6  1  1  0
  1  7  1  0
  2  8  1  0
  3  9  1  0
  5 10  1  0
M  END
>  <MODEL>  (1) 
4

>  <REMARK>  (1) 
 minimizedAffinity -2.17909789REMARK  Name = 7
  0 active torsions:
  status: ('A' for Active; 'I' for Inactive)
                            x       y       z     vdW  Elec       q    Type
                         _______ _______ _______ _____ _____    ______ ____

>  <TORSDO>  (1) 
F 0

$$$$
