MODEL 5
REMARK minimizedAffinity -2.1722002REMARK  Name = 7
REMARK  0 active torsions:
REMARK  status: ('A' for Active; 'I' for Inactive)
REMARK                            x       y       z     vdW  Elec       q    Type
REMARK                         _______ _______ _______ _____ _____    ______ ____
ROOT
ATOM      1  C   UNL     1      38.522  26.693  42.971  0.00  0.00    +0.000 A 
ATOM      2  C   UNL     1      39.240  27.878  43.240  0.00  0.00    +0.000 A 
ATOM      3  C   UNL     1      38.582  29.101  43.037  0.00  0.00    +0.000 A 
ATOM      4  N   UNL     1      37.292  29.073  42.590  0.00  0.00    +0.000 NA
ATOM      5  C   UNL     1      36.636  27.916  42.345  0.00  0.00    +0.000 A 
ATOM      6  N   UNL     1      37.250  26.734  42.538  0.00  0.00    +0.000 NA
ENDROOT
TORSDOF 0
ENDMDL
