./init_pose/1_4.pdbqt
     RDKit          3D

 10 10  0  0  0  0  0  0  0  0999 V2000
   38.5220   26.6930   42.9710 C   0  0  0  0  0  0  0  0  0  0  0  0
   39.2400   27.8780   43.2400 C   0  0  0  0  0  0  0  0  0  0  0  0
   38.5820   29.1010   43.0370 C   0  0  0  0  0  0  0  0  0  0  0  0
   37.2920   29.0730   42.5900 N   0  0  0  0  0  0  0  0  0  0  0  0
   36.6360   27.9160   42.3450 C   0  0  0  0  0  0  0  0  0  0  0  0
   37.2500   26.7340   42.5380 N   0  0  0  0  0  0  0  0  0  0  0  0
   39.0117   25.7191   43.1182 H   0  0  0  0  0  0  0  0  0  0  0  0
   40.2800   27.8442   43.5967 H   0  0  0  0  0  0  0  0  0  0  0  0
   39.0916   30.0560   43.2326 H   0  0  0  0  0  0  0  0  0  0  0  0
   35.5964   27.9411   41.9865 H   0  0  0  0  0  0  0  0  0  0  0  0
  1  2  2  0
  3  2  1  0
  4  3  2  0
  5  6  2  0
  5  4  1  0
  6  1  1  0
  1  7  1  0
  2  8  1  0
  3  9  1  0
  5 10  1  0
M  END
>  <MODEL>  (1) 
5

>  <REMARK>  (1) 
 minimizedAffinity -2.1722002REMARK  Name = 7
  0 active torsions:
  status: ('A' for Active; 'I' for Inactive)
                            x       y       z     vdW  Elec       q    Type
                         _______ _______ _______ _____ _____    ______ ____

>  <TORSDO>  (1) 
F 0

$$$$
