./init_pose/1_5.pdbqt
 OpenBabel03232521043D

  6  6  0  0  0  0  0  0  0  0999 V2000
   35.4700   28.9100   40.7030 C   0  0  0  0  0  0  0  0  0  0  0  0
   35.8050   30.2240   40.3140 C   0  0  0  0  0  0  0  0  0  0  0  0
   36.9050   30.8310   40.9390 C   0  0  0  0  0  0  0  0  0  0  0  0
   37.5830   30.1180   41.8860 N   0  0  0  0  0  0  0  0  0  0  0  0
   37.2330   28.8580   42.2310 C   0  0  0  0  0  0  0  0  0  0  0  0
   36.1830   28.2590   41.6390 N   0  0  0  0  0  0  0  0  0  0  0  0
  1  6  1  0  0  0  0
  2  1  2  0  0  0  0
  2  3  1  0  0  0  0
  3  4  2  0  0  0  0
  4  5  1  0  0  0  0
  6  5  2  0  0  0  0
M  END
>  <MODEL>
6

>  <REMARK>
 minimizedAffinity -2.14290524REMARK  Name = 7
  0 active torsions:
  status: ('A' for Active; 'I' for Inactive)
                            x       y       z     vdW  Elec       q    Type
                         _______ _______ _______ _____ _____    ______ ____

>  <TORSDO>
F 0

$$$$
