./init_pose/1_5.pdbqt
     RDKit          3D

 10 10  0  0  0  0  0  0  0  0999 V2000
   35.4700   28.9100   40.7030 C   0  0  0  0  0  0  0  0  0  0  0  0
   35.8050   30.2240   40.3140 C   0  0  0  0  0  0  0  0  0  0  0  0
   36.9050   30.8310   40.9390 C   0  0  0  0  0  0  0  0  0  0  0  0
   37.5830   30.1180   41.8860 N   0  0  0  0  0  0  0  0  0  0  0  0
   37.2330   28.8580   42.2310 C   0  0  0  0  0  0  0  0  0  0  0  0
   36.1830   28.2590   41.6390 N   0  0  0  0  0  0  0  0  0  0  0  0
   34.6109   28.4094   40.2326 H   0  0  0  0  0  0  0  0  0  0  0  0
   35.2232   30.7551   39.5462 H   0  0  0  0  0  0  0  0  0  0  0  0
   37.2127   31.8531   40.6734 H   0  0  0  0  0  0  0  0  0  0  0  0
   37.8089   28.3204   42.9987 H   0  0  0  0  0  0  0  0  0  0  0  0
  1  6  2  0
  2  1  1  0
  2  3  2  0
  3  4  1  0
  4  5  2  0
  6  5  1  0
  1  7  1  0
  2  8  1  0
  3  9  1  0
  5 10  1  0
M  END
>  <MODEL>  (1) 
6

>  <REMARK>  (1) 
 minimizedAffinity -2.14290524REMARK  Name = 7
  0 active torsions:
  status: ('A' for Active; 'I' for Inactive)
                            x       y       z     vdW  Elec       q    Type
                         _______ _______ _______ _____ _____    ______ ____

>  <TORSDO>  (1) 
F 0

$$$$
