MODEL 7
REMARK minimizedAffinity -2.12685037REMARK  Name = 7
REMARK  0 active torsions:
REMARK  status: ('A' for Active; 'I' for Inactive)
REMARK                            x       y       z     vdW  Elec       q    Type
REMARK                         _______ _______ _______ _____ _____    ______ ____
ROOT
ATOM      1  C   UNL     1      37.377  28.479  43.678  0.00  0.00    +0.000 A 
ATOM      2  C   UNL     1      38.676  28.684  43.164  0.00  0.00    +0.000 A 
ATOM      3  C   UNL     1      39.196  27.712  42.297  0.00  0.00    +0.000 A 
ATOM      4  N   UNL     1      38.420  26.627  42.003  0.00  0.00    +0.000 NA
ATOM      5  C   UNL     1      37.179  26.466  42.515  0.00  0.00    +0.000 A 
ATOM      6  N   UNL     1      36.662  27.391  43.345  0.00  0.00    +0.000 NA
ENDROOT
TORSDOF 0
ENDMDL
