./init_pose/1_6.pdbqt
 OpenBabel03232521043D

  6  6  0  0  0  0  0  0  0  0999 V2000
   37.3770   28.4790   43.6780 C   0  0  0  0  0  0  0  0  0  0  0  0
   38.6760   28.6840   43.1640 C   0  0  0  0  0  0  0  0  0  0  0  0
   39.1960   27.7120   42.2970 C   0  0  0  0  0  0  0  0  0  0  0  0
   38.4200   26.6270   42.0030 N   0  0  0  0  0  0  0  0  0  0  0  0
   37.1790   26.4660   42.5150 C   0  0  0  0  0  0  0  0  0  0  0  0
   36.6620   27.3910   43.3450 N   0  0  0  0  0  0  0  0  0  0  0  0
  2  1  2  0  0  0  0
  3  2  1  0  0  0  0
  4  3  2  0  0  0  0
  4  5  1  0  0  0  0
  5  6  2  0  0  0  0
  6  1  1  0  0  0  0
M  END
>  <MODEL>
7

>  <REMARK>
 minimizedAffinity -2.12685037REMARK  Name = 7
  0 active torsions:
  status: ('A' for Active; 'I' for Inactive)
                            x       y       z     vdW  Elec       q    Type
                         _______ _______ _______ _____ _____    ______ ____

>  <TORSDO>
F 0

$$$$
