./init_pose/1_7.pdbqt
 OpenBabel03232521043D

  6  6  0  0  0  0  0  0  0  0999 V2000
   37.9330   27.2530   41.4550 C   0  0  0  0  0  0  0  0  0  0  0  0
   37.0090   26.7920   42.4180 C   0  0  0  0  0  0  0  0  0  0  0  0
   36.8060   27.5820   43.5590 C   0  0  0  0  0  0  0  0  0  0  0  0
   37.5130   28.7440   43.6740 N   0  0  0  0  0  0  0  0  0  0  0  0
   38.3900   29.1540   42.7290 C   0  0  0  0  0  0  0  0  0  0  0  0
   38.5940   28.4110   41.6250 N   0  0  0  0  0  0  0  0  0  0  0  0
  1  6  2  0  0  0  0
  1  2  1  0  0  0  0
  2  3  2  0  0  0  0
  3  4  1  0  0  0  0
  5  4  2  0  0  0  0
  6  5  1  0  0  0  0
M  END
>  <MODEL>
8

>  <REMARK>
 minimizedAffinity -2.12260938REMARK  Name = 7
  0 active torsions:
  status: ('A' for Active; 'I' for Inactive)
                            x       y       z     vdW  Elec       q    Type
                         _______ _______ _______ _____ _____    ______ ____

>  <TORSDO>
F 0

$$$$
