MODEL 8
REMARK minimizedAffinity -2.12260938REMARK  Name = 7
REMARK  0 active torsions:
REMARK  status: ('A' for Active; 'I' for Inactive)
REMARK                            x       y       z     vdW  Elec       q    Type
REMARK                         _______ _______ _______ _____ _____    ______ ____
ROOT
ATOM      1  C   UNL     1      37.933  27.253  41.455  0.00  0.00    +0.000 A 
ATOM      2  C   UNL     1      37.009  26.792  42.418  0.00  0.00    +0.000 A 
ATOM      3  C   UNL     1      36.806  27.582  43.559  0.00  0.00    +0.000 A 
ATOM      4  N   UNL     1      37.513  28.744  43.674  0.00  0.00    +0.000 NA
ATOM      5  C   UNL     1      38.390  29.154  42.729  0.00  0.00    +0.000 A 
ATOM      6  N   UNL     1      38.594  28.411  41.625  0.00  0.00    +0.000 NA
ENDROOT
TORSDOF 0
ENDMDL
