./init_pose/1_7.pdbqt
     RDKit          3D

 10 10  0  0  0  0  0  0  0  0999 V2000
   37.9330   27.2530   41.4550 C   0  0  0  0  0  0  0  0  0  0  0  0
   37.0090   26.7920   42.4180 C   0  0  0  0  0  0  0  0  0  0  0  0
   36.8060   27.5820   43.5590 C   0  0  0  0  0  0  0  0  0  0  0  0
   37.5130   28.7440   43.6740 N   0  0  0  0  0  0  0  0  0  0  0  0
   38.3900   29.1540   42.7290 C   0  0  0  0  0  0  0  0  0  0  0  0
   38.5940   28.4110   41.6250 N   0  0  0  0  0  0  0  0  0  0  0  0
   38.1150   26.6543   40.5503 H   0  0  0  0  0  0  0  0  0  0  0  0
   36.4667   25.8453   42.2781 H   0  0  0  0  0  0  0  0  0  0  0  0
   36.0959   27.2734   44.3404 H   0  0  0  0  0  0  0  0  0  0  0  0
   38.9385   30.0980   42.8632 H   0  0  0  0  0  0  0  0  0  0  0  0
  1  6  2  0
  1  2  1  0
  2  3  2  0
  3  4  1  0
  5  4  2  0
  6  5  1  0
  1  7  1  0
  2  8  1  0
  3  9  1  0
  5 10  1  0
M  END
>  <MODEL>  (1) 
8

>  <REMARK>  (1) 
 minimizedAffinity -2.12260938REMARK  Name = 7
  0 active torsions:
  status: ('A' for Active; 'I' for Inactive)
                            x       y       z     vdW  Elec       q    Type
                         _______ _______ _______ _____ _____    ______ ____

>  <TORSDO>  (1) 
F 0

$$$$
