./init_pose/1_8.pdbqt
     RDKit          3D

 10 10  0  0  0  0  0  0  0  0999 V2000
   36.3220   30.7870   41.0060 C   0  0  0  0  0  0  0  0  0  0  0  0
   37.0440   31.8640   40.4480 C   0  0  0  0  0  0  0  0  0  0  0  0
   38.4160   31.9460   40.7310 C   0  0  0  0  0  0  0  0  0  0  0  0
   38.9690   30.9860   41.5280 N   0  0  0  0  0  0  0  0  0  0  0  0
   38.2440   29.9670   42.0430 C   0  0  0  0  0  0  0  0  0  0  0  0
   36.9280   29.8700   41.7780 N   0  0  0  0  0  0  0  0  0  0  0  0
   35.2442   30.6971   40.8051 H   0  0  0  0  0  0  0  0  0  0  0  0
   36.5482   32.6132   39.8132 H   0  0  0  0  0  0  0  0  0  0  0  0
   39.0293   32.7621   40.3214 H   0  0  0  0  0  0  0  0  0  0  0  0
   38.7316   29.2149   42.6807 H   0  0  0  0  0  0  0  0  0  0  0  0
  1  6  2  0
  2  3  2  0
  2  1  1  0
  3  4  1  0
  4  5  2  0
  6  5  1  0
  1  7  1  0
  2  8  1  0
  3  9  1  0
  5 10  1  0
M  END
>  <MODEL>  (1) 
9

>  <REMARK>  (1) 
 minimizedAffinity -2.10850191REMARK  Name = 7
  0 active torsions:
  status: ('A' for Active; 'I' for Inactive)
                            x       y       z     vdW  Elec       q    Type
                         _______ _______ _______ _____ _____    ______ ____

>  <TORSDO>  (1) 
F 0

$$$$
