
     RDKit          3D

 42 45  0  0  1  0  0  0  0  0999 V2000
   39.1190   30.7860   46.4490 C   0  0  2  0  0  0  0  0  0  0  0  0
   40.1740   31.6760   46.0180 C   0  0  0  0  0  0  0  0  0  0  0  0
   40.9730   31.1810   44.8610 C   0  0  0  0  0  0  0  0  0  0  0  0
   40.1580   30.6260   43.7640 C   0  0  0  0  0  0  0  0  0  0  0  0
   39.0050   29.8330   44.1850 C   0  0  0  0  0  0  0  0  0  0  0  0
   38.1780   30.5100   45.3380 C   0  0  2  0  0  0  0  0  0  0  0  0
   38.6040   32.5070   48.2910 C   0  0  0  0  0  0  0  0  0  0  0  0
   38.3930   31.2450   47.6290 C   0  0  0  0  0  0  0  0  0  0  0  0
   37.4480   30.4030   48.1040 C   0  0  0  0  0  0  0  0  0  0  0  0
   36.7290   30.8040   49.2070 N   0  0  0  0  0  0  0  0  0  0  0  0
   36.9540   32.0190   49.8200 C   0  0  0  0  0  0  0  0  0  0  0  0
   37.9070   32.8720   49.3450 N   0  0  0  0  0  0  0  0  0  0  0  0
   37.6030   31.7070   44.7400 C   0  0  0  0  0  0  0  0  0  0  0  0
   37.9770   32.9160   44.9510 O   0  0  0  0  0  0  0  0  0  0  0  0
   36.5760   31.4740   43.8910 O   0  0  0  0  0  0  0  0  0  0  0  0
   36.3910   32.3350   42.7810 C   0  0  0  0  0  0  0  0  0  0  0  0
   35.2440   33.1280   42.6230 C   0  0  0  0  0  0  0  0  0  0  0  0
   35.4560   33.7990   41.4470 C   0  0  0  0  0  0  0  0  0  0  0  0
   36.6610   33.4430   40.9080 N   0  0  0  0  0  0  0  0  0  0  0  0
   37.1970   32.5600   41.7390 N   0  0  0  0  0  0  0  0  0  0  0  0
   37.2310   33.9300   39.6840 C   0  0  0  0  0  0  0  0  0  0  0  0
   36.4070   34.6890   38.7870 C   0  0  0  0  0  0  0  0  0  0  0  0
   37.5910   35.0560   37.4220 S   0  0  0  0  0  0  0  0  0  0  0  0
   38.9850   34.1160   38.3130 C   0  0  0  0  0  0  0  0  0  0  0  0
   38.4760   33.7550   39.2700 N   0  0  0  0  0  0  0  0  0  0  0  0
   39.6231   29.8553   46.7485 H   0  0  0  0  0  0  0  0  0  0  0  0
   39.7178   32.6357   45.7337 H   0  0  0  0  0  0  0  0  0  0  0  0
   40.8723   31.7622   46.8635 H   0  0  0  0  0  0  0  0  0  0  0  0
   41.5630   32.0200   44.4636 H   0  0  0  0  0  0  0  0  0  0  0  0
   41.6031   30.3611   45.2362 H   0  0  0  0  0  0  0  0  0  0  0  0
   40.8064   29.9841   43.1495 H   0  0  0  0  0  0  0  0  0  0  0  0
   39.7512   31.4903   43.2186 H   0  0  0  0  0  0  0  0  0  0  0  0
   38.3437   29.6893   43.3178 H   0  0  0  0  0  0  0  0  0  0  0  0
   39.3883   28.8781   44.5738 H   0  0  0  0  0  0  0  0  0  0  0  0
   37.3655   29.8976   45.7561 H   0  0  0  0  0  0  0  0  0  0  0  0
   39.3745   33.1887   47.9016 H   0  0  0  0  0  0  0  0  0  0  0  0
   37.2601   29.4306   47.6253 H   0  0  0  0  0  0  0  0  0  0  0  0
   36.3591   32.3030   50.7006 H   0  0  0  0  0  0  0  0  0  0  0  0
   34.3728   33.1956   43.2912 H   0  0  0  0  0  0  0  0  0  0  0  0
   34.7565   34.5210   41.0005 H   0  0  0  0  0  0  0  0  0  0  0  0
   35.3498   34.9757   38.8872 H   0  0  0  0  0  0  0  0  0  0  0  0
   40.0239   33.9590   37.9873 H   0  0  0  0  0  0  0  0  0  0  0  0
  1  8  1  0
  2  1  1  0
  3  2  1  0
  4  5  1  0
  4  3  1  0
  5  6  1  0
  6  1  1  0
  7 12  2  0
  8  9  2  0
  8  7  1  0
  9 10  1  0
 10 11  2  0
 12 11  1  0
 13 14  2  0
 13  6  1  0
 15 13  1  0
 16 15  1  0
 17 16  1  0
 18 17  2  0
 19 18  1  0
 19 20  1  0
 20 16  2  0
 21 19  1  0
 22 21  2  0
 23 24  1  0
 23 22  1  0
 24 25  2  0
 25 21  1  0
  1 26  1  1
  2 27  1  0
  2 28  1  0
  3 29  1  0
  3 30  1  0
  4 31  1  0
  4 32  1  0
  5 33  1  0
  5 34  1  0
  6 35  1  1
  7 36  1  0
  9 37  1  0
 11 38  1  0
 17 39  1  0
 18 40  1  0
 22 41  1  0
 24 42  1  0
M  ISO  8  26  13  27  13  28  13  29  13  30  13  31  13  32  13  33  13
M  ISO  8  34  13  35  13  36  14  37  14  38  14  39  14  40  14  41  14
M  ISO  1  42  14
M  END
>  <minimizedAffinity>  (1) 
-5.29018021

>  <minimizedRMSD>  (1) 
1.23496449

$$$$
