
     RDKit          3D

 29 30  0  0  1  0  0  0  0  0999 V2000
   38.5910   31.6510   46.8040 C   0  0  2  0  0  0  0  0  0  0  0  0
   39.5190   32.8060   47.0390 C   0  0  0  0  0  0  0  0  0  0  0  0
   40.4560   32.8700   45.8280 C   0  0  0  0  0  0  0  0  0  0  0  0
   39.6100   33.3430   44.7050 C   0  0  0  0  0  0  0  0  0  0  0  0
   38.3920   32.5040   44.4530 C   0  0  0  0  0  0  0  0  0  0  0  0
   37.7760   31.8260   45.6200 C   0  0  1  0  0  0  0  0  0  0  0  0
   38.3790   31.3450   49.2520 C   0  0  0  0  0  0  0  0  0  0  0  0
   37.8140   31.2920   47.9740 C   0  0  0  0  0  0  0  0  0  0  0  0
   36.5080   30.8540   47.8540 C   0  0  0  0  0  0  0  0  0  0  0  0
   35.8040   30.4880   48.9610 N   0  0  0  0  0  0  0  0  0  0  0  0
   36.3850   30.5500   50.1980 C   0  0  0  0  0  0  0  0  0  0  0  0
   37.6640   30.9770   50.3330 N   0  0  0  0  0  0  0  0  0  0  0  0
   37.4160   30.4130   45.1210 C   0  0  0  0  0  0  0  0  0  0  0  0
   39.2385   30.7838   46.6071 H   0  0  0  0  0  0  0  0  0  0  0  0
   38.9463   33.7412   47.1253 H   0  0  0  0  0  0  0  0  0  0  0  0
   40.0863   32.6749   47.9723 H   0  0  0  0  0  0  0  0  0  0  0  0
   41.2792   33.5754   46.0143 H   0  0  0  0  0  0  0  0  0  0  0  0
   40.9163   31.8944   45.6128 H   0  0  0  0  0  0  0  0  0  0  0  0
   39.2814   34.3685   44.9295 H   0  0  0  0  0  0  0  0  0  0  0  0
   40.2283   33.2810   43.7973 H   0  0  0  0  0  0  0  0  0  0  0  0
   37.6268   33.1582   44.0098 H   0  0  0  0  0  0  0  0  0  0  0  0
   38.7428   31.6865   43.8059 H   0  0  0  0  0  0  0  0  0  0  0  0
   36.9476   32.4722   45.9457 H   0  0  0  0  0  0  0  0  0  0  0  0
   39.4161   31.6901   49.3758 H   0  0  0  0  0  0  0  0  0  0  0  0
   36.0363   30.8010   46.8617 H   0  0  0  0  0  0  0  0  0  0  0  0
   35.8110   30.2517   51.0877 H   0  0  0  0  0  0  0  0  0  0  0  0
   37.2474   29.7514   45.9835 H   0  0  0  0  0  0  0  0  0  0  0  0
   36.5015   30.4613   44.5117 H   0  0  0  0  0  0  0  0  0  0  0  0
   38.2421   30.0178   44.5117 H   0  0  0  0  0  0  0  0  0  0  0  0
  1  2  1  0
  1  8  1  0
  3  2  1  0
  4  3  1  0
  5  4  1  0
  5  6  1  0
  6  1  1  0
  7 12  2  0
  8  7  1  0
  9  8  2  0
  9 10  1  0
 10 11  2  0
 11 12  1  0
 13  6  1  0
  1 14  1  6
  2 15  1  0
  2 16  1  0
  3 17  1  0
  3 18  1  0
  4 19  1  0
  4 20  1  0
  5 21  1  0
  5 22  1  0
  6 23  1  1
  7 24  1  0
  9 25  1  0
 11 26  1  0
 13 27  1  0
 13 28  1  0
 13 29  1  0
M  ISO  8  14  13  15  13  16  13  17  13  18  13  19  13  20  13  21  13
M  ISO  8  22  13  23  13  24  14  25  14  26  14  27   8  28   8  29   8
M  END
>  <minimizedAffinity>  (1) 
-4.58439827

>  <minimizedRMSD>  (1) 
1.45315385

$$$$
