
     RDKit          3D

 41 43  0  0  0  0  0  0  0  0999 V2000
   37.0960   30.7010   50.3390 C   0  0  0  0  0  0  0  0  0  0  0  0
   35.9060   28.6500   49.7140 C   0  0  0  0  0  0  0  0  0  0  0  0
   35.9620   30.0500   49.8070 C   0  0  0  0  0  0  0  0  0  0  0  0
   34.8750   30.7460   49.3430 C   0  0  0  0  0  0  0  0  0  0  0  0
   33.8060   30.0920   48.8180 N   0  0  0  0  0  0  0  0  0  0  0  0
   33.7750   28.7600   48.7380 C   0  0  0  0  0  0  0  0  0  0  0  0
   34.8040   28.0810   49.1780 N   0  0  0  0  0  0  0  0  0  0  0  0
   32.6190   28.0580   48.1720 C   0  0  0  0  0  0  0  0  0  0  0  0
   32.3390   28.1350   46.9550 O   0  0  0  0  0  0  0  0  0  0  0  0
   31.7950   27.2800   48.9710 O   0  0  0  0  0  0  0  0  0  0  0  0
   30.4290   27.4230   48.9880 C   0  0  0  0  0  0  0  0  0  0  0  0
   29.5400   26.9030   48.0450 C   0  0  0  0  0  0  0  0  0  0  0  0
   28.1920   27.1470   48.2210 C   0  0  0  0  0  0  0  0  0  0  0  0
   27.7110   27.8570   49.2560 N   0  0  0  0  0  0  0  0  0  0  0  0
   28.5920   28.3450   50.1470 C   0  0  0  0  0  0  0  0  0  0  0  0
   29.9090   28.1230   49.9980 N   0  0  0  0  0  0  0  0  0  0  0  0
   37.3410   32.0190   49.7210 C   0  0  0  0  0  0  0  0  0  0  0  0
   38.0350   31.8000   48.4310 C   0  0  0  0  0  0  0  0  0  0  0  0
   37.9380   30.6090   47.8030 C   0  0  0  0  0  0  0  0  0  0  0  0
   38.6330   30.4000   46.6100 C   0  0  0  0  0  0  0  0  0  0  0  0
   39.3870   31.4220   46.1250 N   0  0  0  0  0  0  0  0  0  0  0  0
   39.4650   32.5810   46.7590 C   0  0  0  0  0  0  0  0  0  0  0  0
   38.8060   32.8050   47.9090 N   0  0  0  0  0  0  0  0  0  0  0  0
   40.2740   33.6920   46.2060 C   0  0  0  0  0  0  0  0  0  0  0  0
   40.1290   33.7260   44.6680 C   0  0  0  0  0  0  0  0  0  0  0  0
   36.9458   30.8419   51.4195 H   0  0  0  0  0  0  0  0  0  0  0  0
   37.9707   30.0683   50.1279 H   0  0  0  0  0  0  0  0  0  0  0  0
   36.7417   28.0296   50.0700 H   0  0  0  0  0  0  0  0  0  0  0  0
   34.8686   31.8447   49.3965 H   0  0  0  0  0  0  0  0  0  0  0  0
   29.9024   26.3167   47.1878 H   0  0  0  0  0  0  0  0  0  0  0  0
   27.4826   26.7435   47.4835 H   0  0  0  0  0  0  0  0  0  0  0  0
   28.2315   28.9310   51.0053 H   0  0  0  0  0  0  0  0  0  0  0  0
   36.3842   32.5330   49.5471 H   0  0  0  0  0  0  0  0  0  0  0  0
   37.9579   32.6426   50.3848 H   0  0  0  0  0  0  0  0  0  0  0  0
   37.3154   29.8081   48.2284 H   0  0  0  0  0  0  0  0  0  0  0  0
   38.5723   29.4384   46.0792 H   0  0  0  0  0  0  0  0  0  0  0  0
   39.9227   34.6453   46.6276 H   0  0  0  0  0  0  0  0  0  0  0  0
   41.3311   33.5392   46.4691 H   0  0  0  0  0  0  0  0  0  0  0  0
   39.0896   33.9697   44.4030 H   0  0  0  0  0  0  0  0  0  0  0  0
   40.8021   34.4907   44.2531 H   0  0  0  0  0  0  0  0  0  0  0  0
   40.3921   32.7418   44.2531 H   0  0  0  0  0  0  0  0  0  0  0  0
  2  3  2  0
  3  1  1  0
  4  3  1  0
  5  4  2  0
  6  5  1  0
  6  7  2  0
  7  2  1  0
  8  6  1  0
  8 10  1  0
  9  8  2  0
 10 11  1  0
 11 16  2  0
 12 13  2  0
 12 11  1  0
 13 14  1  0
 14 15  2  0
 16 15  1  0
 17  1  1  0
 18 17  1  0
 19 18  2  0
 20 19  1  0
 21 20  2  0
 21 22  1  0
 22 23  2  0
 23 18  1  0
 24 22  1  0
 25 24  1  0
  1 26  1  0
  1 27  1  0
  2 28  1  0
  4 29  1  0
 12 30  1  0
 13 31  1  0
 15 32  1  0
 17 33  1  0
 17 34  1  0
 19 35  1  0
 20 36  1  0
 24 37  1  0
 24 38  1  0
 25 39  1  0
 25 40  1  0
 25 41  1  0
M  ISO  8  26   8  27   8  28  14  29  14  30  14  31  14  32  14  33   8
M  ISO  8  34   8  35  14  36  14  37   8  38   8  39   8  40   8  41   8
M  END
>  <minimizedAffinity>  (1) 
-5.60995865

>  <minimizedRMSD>  (1) 
1.13087606

$$$$
