
     RDKit          3D

 41 43  0  0  1  0  0  0  0  0999 V2000
   36.9170   30.5360   45.9730 C   0  0  0  0  0  0  0  0  0  0  0  0
   37.8520   30.3550   46.7810 O   0  0  0  0  0  0  0  0  0  0  0  0
   37.2810   31.2810   44.8060 N   0  0  0  0  0  0  0  0  0  0  0  0
   36.8030   30.7520   43.5450 C   0  0  0  0  0  0  0  0  0  0  0  0
   37.5710   31.3240   42.3770 C   0  0  0  0  0  0  0  0  0  0  0  0
   38.8620   31.5570   42.8060 O   0  0  0  0  0  0  0  0  0  0  0  0
   38.8230   32.7420   43.5870 C   0  0  0  0  0  0  0  0  0  0  0  0
   38.0850   32.5040   44.8620 C   0  0  2  0  0  0  0  0  0  0  0  0
   33.9120   29.1950   47.8040 C   0  0  0  0  0  0  0  0  0  0  0  0
   35.2190   29.7140   47.5580 C   0  0  0  0  0  0  0  0  0  0  0  0
   35.5950   30.0080   46.2550 C   0  0  0  0  0  0  0  0  0  0  0  0
   34.6630   29.7750   45.2770 N   0  0  0  0  0  0  0  0  0  0  0  0
   33.4530   29.2900   45.5420 C   0  0  0  0  0  0  0  0  0  0  0  0
   33.0820   29.0060   46.7770 N   0  0  0  0  0  0  0  0  0  0  0  0
   32.5790   29.1030   44.3500 C   0  0  0  0  0  0  0  0  0  0  0  0
   32.8230   30.1030   43.4090 F   0  0  0  0  0  0  0  0  0  0  0  0
   32.9050   27.9210   43.7100 F   0  0  0  0  0  0  0  0  0  0  0  0
   31.2350   29.0170   44.6670 F   0  0  0  0  0  0  0  0  0  0  0  0
   33.5600   28.9100   49.1130 O   0  0  0  0  0  0  0  0  0  0  0  0
   34.0470   29.5930   50.2260 C   0  0  0  0  0  0  0  0  0  0  0  0
   35.0390   28.8880   50.8950 F   0  0  0  0  0  0  0  0  0  0  0  0
   34.4370   30.8750   49.9840 F   0  0  0  0  0  0  0  0  0  0  0  0
   32.9350   29.6650   51.0960 F   0  0  0  0  0  0  0  0  0  0  0  0
   39.0610   32.2300   45.8340 O   0  0  0  0  0  0  0  0  0  0  0  0
   39.2200   32.8800   47.0300 C   0  0  0  0  0  0  0  0  0  0  0  0
   38.5830   32.6250   48.2030 C   0  0  0  0  0  0  0  0  0  0  0  0
   38.8040   33.3310   49.3690 C   0  0  0  0  0  0  0  0  0  0  0  0
   39.7130   34.3310   49.3110 N   0  0  0  0  0  0  0  0  0  0  0  0
   40.3620   34.6030   48.1490 C   0  0  0  0  0  0  0  0  0  0  0  0
   40.1240   33.8910   47.0200 N   0  0  0  0  0  0  0  0  0  0  0  0
   36.9207   29.6583   43.5488 H   0  0  0  0  0  0  0  0  0  0  0  0
   35.7452   31.0321   43.4324 H   0  0  0  0  0  0  0  0  0  0  0  0
   37.1083   32.2662   42.0481 H   0  0  0  0  0  0  0  0  0  0  0  0
   37.5642   30.6247   41.5279 H   0  0  0  0  0  0  0  0  0  0  0  0
   39.8513   33.0576   43.8175 H   0  0  0  0  0  0  0  0  0  0  0  0
   38.3041   33.5267   43.0169 H   0  0  0  0  0  0  0  0  0  0  0  0
   37.4440   33.3752   45.0627 H   0  0  0  0  0  0  0  0  0  0  0  0
   35.9189   29.8787   48.3905 H   0  0  0  0  0  0  0  0  0  0  0  0
   37.8474   31.8074   48.2250 H   0  0  0  0  0  0  0  0  0  0  0  0
   38.2674   33.0920   50.2990 H   0  0  0  0  0  0  0  0  0  0  0  0
   41.0979   35.4202   48.1235 H   0  0  0  0  0  0  0  0  0  0  0  0
  1 11  1  0
  1  2  2  0
  3  8  1  0
  3  1  1  0
  4  3  1  0
  5  6  1  0
  5  4  1  0
  6  7  1  0
  7  8  1  0
  8 24  1  0
  9 19  1  0
 10  9  2  0
 11 10  1  0
 12 13  1  0
 12 11  2  0
 13 14  2  0
 14  9  1  0
 15 18  1  0
 15 13  1  0
 16 15  1  0
 17 15  1  0
 19 20  1  0
 20 21  1  0
 20 23  1  0
 22 20  1  0
 24 25  1  0
 25 26  2  0
 26 27  1  0
 28 27  2  0
 29 28  1  0
 30 25  1  0
 30 29  2  0
  4 31  1  0
  4 32  1  0
  5 33  1  0
  5 34  1  0
  7 35  1  0
  7 36  1  0
  8 37  1  1
 10 38  1  0
 26 39  1  0
 27 40  1  0
 29 41  1  0
M  ISO  8  31  13  32  13  33  13  34  13  35  13  36  13  37  13  38  14
M  ISO  3  39  14  40  14  41  14
M  END
>  <minimizedAffinity>  (1) 
-5.43226385

>  <minimizedRMSD>  (1) 
1.99544668

$$$$
