
     RDKit          3D

 43 46  0  0  1  0  0  0  0  0999 V2000
   39.1110   30.7670   46.4280 C   0  0  2  0  0  0  0  0  0  0  0  0
   40.1790   31.6470   46.0080 C   0  0  0  0  0  0  0  0  0  0  0  0
   40.9720   31.1530   44.8460 C   0  0  0  0  0  0  0  0  0  0  0  0
   40.1510   30.6130   43.7460 C   0  0  0  0  0  0  0  0  0  0  0  0
   38.9860   29.8350   44.1570 C   0  0  0  0  0  0  0  0  0  0  0  0
   38.1680   30.5160   45.3150 C   0  0  2  0  0  0  0  0  0  0  0  0
   38.6350   32.4690   48.3010 C   0  0  0  0  0  0  0  0  0  0  0  0
   38.3900   31.2300   47.6130 C   0  0  0  0  0  0  0  0  0  0  0  0
   37.4140   30.4110   48.0620 C   0  0  0  0  0  0  0  0  0  0  0  0
   36.6990   30.8140   49.1660 N   0  0  0  0  0  0  0  0  0  0  0  0
   36.9570   32.0070   49.8060 C   0  0  0  0  0  0  0  0  0  0  0  0
   37.9470   32.8420   49.3550 N   0  0  0  0  0  0  0  0  0  0  0  0
   37.6110   31.7260   44.7260 C   0  0  0  0  0  0  0  0  0  0  0  0
   37.9590   32.9310   44.9960 O   0  0  0  0  0  0  0  0  0  0  0  0
   36.6320   31.5030   43.8180 O   0  0  0  0  0  0  0  0  0  0  0  0
   36.4610   32.4350   42.7570 C   0  0  0  0  0  0  0  0  0  0  0  0
   37.3840   32.5340   41.7100 C   0  0  0  0  0  0  0  0  0  0  0  0
   36.8740   33.5320   40.8980 C   0  0  0  0  0  0  0  0  0  0  0  0
   35.7110   34.0010   41.4310 N   0  0  0  0  0  0  0  0  0  0  0  0
   35.4940   33.3220   42.5420 N   0  0  0  0  0  0  0  0  0  0  0  0
   34.8890   35.0280   40.8890 C   0  0  0  0  0  0  0  0  0  0  0  0
   34.2930   35.3120   39.6770 C   0  0  0  0  0  0  0  0  0  0  0  0
   33.6130   36.5060   39.8390 C   0  0  0  0  0  0  0  0  0  0  0  0
   33.8230   36.9000   41.1470 C   0  0  0  0  0  0  0  0  0  0  0  0
   34.5800   36.0050   41.7390 O   0  0  0  0  0  0  0  0  0  0  0  0
   39.5994   29.8248   46.7173 H   0  0  0  0  0  0  0  0  0  0  0  0
   39.7368   32.6162   45.7340 H   0  0  0  0  0  0  0  0  0  0  0  0
   40.8776   31.7144   46.8550 H   0  0  0  0  0  0  0  0  0  0  0  0
   41.5689   31.9896   44.4537 H   0  0  0  0  0  0  0  0  0  0  0  0
   41.5949   30.3247   45.2147 H   0  0  0  0  0  0  0  0  0  0  0  0
   40.7922   29.9645   43.1309 H   0  0  0  0  0  0  0  0  0  0  0  0
   39.7567   31.4862   43.2056 H   0  0  0  0  0  0  0  0  0  0  0  0
   38.3241   29.7095   43.2875 H   0  0  0  0  0  0  0  0  0  0  0  0
   39.3528   28.8702   44.5373 H   0  0  0  0  0  0  0  0  0  0  0  0
   37.3454   29.9135   45.7278 H   0  0  0  0  0  0  0  0  0  0  0  0
   39.4310   33.1308   47.9290 H   0  0  0  0  0  0  0  0  0  0  0  0
   37.1985   29.4551   47.5622 H   0  0  0  0  0  0  0  0  0  0  0  0
   36.3632   32.2921   50.6870 H   0  0  0  0  0  0  0  0  0  0  0  0
   38.3055   31.9511   41.5652 H   0  0  0  0  0  0  0  0  0  0  0  0
   37.3360   33.8910   39.9665 H   0  0  0  0  0  0  0  0  0  0  0  0
   34.3479   34.7066   38.7602 H   0  0  0  0  0  0  0  0  0  0  0  0
   33.0223   37.0365   39.0777 H   0  0  0  0  0  0  0  0  0  0  0  0
   33.4226   37.8117   41.6144 H   0  0  0  0  0  0  0  0  0  0  0  0
  1  8  1  0
  2  1  1  0
  3  2  1  0
  4  5  1  0
  4  3  1  0
  5  6  1  0
  6  1  1  0
  7 12  2  0
  8  9  2  0
  8  7  1  0
  9 10  1  0
 10 11  2  0
 12 11  1  0
 13 14  2  0
 13  6  1  0
 15 13  1  0
 16 15  1  0
 17 16  1  0
 18 19  1  0
 18 17  2  0
 19 20  1  0
 20 16  2  0
 21 19  1  0
 21 25  1  0
 22 23  1  0
 22 21  2  0
 23 24  2  0
 24 25  1  0
  1 26  1  1
  2 27  1  0
  2 28  1  0
  3 29  1  0
  3 30  1  0
  4 31  1  0
  4 32  1  0
  5 33  1  0
  5 34  1  0
  6 35  1  1
  7 36  1  0
  9 37  1  0
 11 38  1  0
 17 39  1  0
 18 40  1  0
 22 41  1  0
 23 42  1  0
 24 43  1  0
M  ISO  8  26  13  27  13  28  13  29  13  30  13  31  13  32  13  33  13
M  ISO  8  34  13  35  13  36  14  37  14  38  14  39  14  40  14  41  14
M  ISO  2  42  14  43  14
M  END
>  <minimizedAffinity>  (1) 
-5.53336763

>  <minimizedRMSD>  (1) 
1.54556549

$$$$
