
     RDKit          3D

 19 19  0  0  0  0  0  0  0  0999 V2000
   37.0930   30.1500   49.9070 C   0  0  0  0  0  0  0  0  0  0  0  0
   38.0060   31.1930   49.7510 C   0  0  0  0  0  0  0  0  0  0  0  0
   38.0690   31.8260   48.5090 C   0  0  0  0  0  0  0  0  0  0  0  0
   37.2420   31.3960   47.5210 N   0  0  0  0  0  0  0  0  0  0  0  0
   36.3670   30.3780   47.7150 C   0  0  0  0  0  0  0  0  0  0  0  0
   36.2990   29.7640   48.9040 N   0  0  0  0  0  0  0  0  0  0  0  0
   37.0150   29.4600   51.2410 C   0  0  0  0  0  0  0  0  0  0  0  0
   35.6930   29.1410   51.5250 F   0  0  0  0  0  0  0  0  0  0  0  0
   37.8510   28.3770   51.2070 F   0  0  0  0  0  0  0  0  0  0  0  0
   37.4490   30.3640   52.1950 F   0  0  0  0  0  0  0  0  0  0  0  0
   38.9980   32.9430   48.2240 C   0  0  0  0  0  0  0  0  0  0  0  0
   39.1620   33.8090   49.4760 C   0  0  0  0  0  0  0  0  0  0  0  0
   38.6560   31.5067   50.5811 H   0  0  0  0  0  0  0  0  0  0  0  0
   35.7108   30.0553   46.8933 H   0  0  0  0  0  0  0  0  0  0  0  0
   39.9771   32.5381   47.9285 H   0  0  0  0  0  0  0  0  0  0  0  0
   38.5906   33.5566   47.4070 H   0  0  0  0  0  0  0  0  0  0  0  0
   39.0435   33.1832   50.3728 H   0  0  0  0  0  0  0  0  0  0  0  0
   40.1626   34.2659   49.4773 H   0  0  0  0  0  0  0  0  0  0  0  0
   38.3977   34.6001   49.4773 H   0  0  0  0  0  0  0  0  0  0  0  0
  1  7  1  0
  2  1  2  0
  3  2  1  0
  4  5  1  0
  4  3  2  0
  5  6  2  0
  6  1  1  0
  7  8  1  0
  7 10  1  0
  9  7  1  0
 11  3  1  0
 11 12  1  0
  2 13  1  0
  5 14  1  0
 11 15  1  0
 11 16  1  0
 12 17  1  0
 12 18  1  0
 12 19  1  0
M  ISO  7  13  14  14  14  15   8  16   8  17   8  18   8  19   8
M  END
>  <minimizedAffinity>  (1) 
-5.03541231

>  <minimizedRMSD>  (1) 
0.511900902

$$$$
