
     RDKit          3D

 36 38  0  0  0  0  0  0  0  0999 V2000
   32.8010   27.7990   48.5690 C   0  0  0  0  0  0  0  0  0  0  0  0
   31.6750   28.2090   49.2270 C   0  0  0  0  0  0  0  0  0  0  0  0
   30.4540   27.5690   49.1600 C   0  0  0  0  0  0  0  0  0  0  0  0
   30.4120   26.4440   48.3620 C   0  0  0  0  0  0  0  0  0  0  0  0
   31.5130   25.9910   47.6820 C   0  0  0  0  0  0  0  0  0  0  0  0
   32.7160   26.6600   47.7760 C   0  0  0  0  0  0  0  0  0  0  0  0
   36.0980   28.9290   49.7010 C   0  0  0  0  0  0  0  0  0  0  0  0
   36.4140   29.9360   48.7550 C   0  0  0  0  0  0  0  0  0  0  0  0
   35.4800   30.1840   47.7680 C   0  0  0  0  0  0  0  0  0  0  0  0
   34.3130   29.4560   47.7510 N   0  0  0  0  0  0  0  0  0  0  0  0
   34.0580   28.5060   48.6750 C   0  0  0  0  0  0  0  0  0  0  0  0
   34.9440   28.2590   49.6270 N   0  0  0  0  0  0  0  0  0  0  0  0
   37.6780   30.7090   48.7900 C   0  0  0  0  0  0  0  0  0  0  0  0
   38.4900   30.4860   47.7160 F   0  0  0  0  0  0  0  0  0  0  0  0
   38.4160   30.4220   49.9240 F   0  0  0  0  0  0  0  0  0  0  0  0
   37.3810   32.0780   48.8070 F   0  0  0  0  0  0  0  0  0  0  0  0
   33.9200   26.2320   47.0810 C   0  0  0  0  0  0  0  0  0  0  0  0
   34.0410   24.7620   46.8270 C   0  0  0  0  0  0  0  0  0  0  0  0
   35.0000   24.4160   45.8300 N   0  0  0  0  0  0  0  0  0  0  0  0
   36.0370   23.5990   45.7490 C   0  0  0  0  0  0  0  0  0  0  0  0
   36.6540   23.6470   44.4970 C   0  0  0  0  0  0  0  0  0  0  0  0
   35.9270   24.5550   43.8020 N   0  0  0  0  0  0  0  0  0  0  0  0
   34.9300   25.0160   44.6100 C   0  0  0  0  0  0  0  0  0  0  0  0
   31.7471   29.1108   49.8527 H   0  0  0  0  0  0  0  0  0  0  0  0
   29.5716   27.9322   49.7072 H   0  0  0  0  0  0  0  0  0  0  0  0
   29.4646   25.8929   48.2684 H   0  0  0  0  0  0  0  0  0  0  0  0
   31.4367   25.0886   47.0576 H   0  0  0  0  0  0  0  0  0  0  0  0
   36.8110   28.6962   50.5056 H   0  0  0  0  0  0  0  0  0  0  0  0
   35.6671   30.9541   47.0051 H   0  0  0  0  0  0  0  0  0  0  0  0
   33.9483   26.7454   46.1086 H   0  0  0  0  0  0  0  0  0  0  0  0
   34.7559   26.4884   47.7485 H   0  0  0  0  0  0  0  0  0  0  0  0
   34.3308   24.2724   47.7684 H   0  0  0  0  0  0  0  0  0  0  0  0
   33.0627   24.4252   46.4536 H   0  0  0  0  0  0  0  0  0  0  0  0
   36.3751   22.9548   46.5741 H   0  0  0  0  0  0  0  0  0  0  0  0
   37.5302   23.0776   44.1535 H   0  0  0  0  0  0  0  0  0  0  0  0
   34.1782   25.7642   44.3183 H   0  0  0  0  0  0  0  0  0  0  0  0
  1 11  1  0
  1  2  2  0
  3  2  1  0
  4  3  2  0
  5  6  2  0
  5  4  1  0
  6  1  1  0
  8 13  1  0
  8  7  2  0
  9  8  1  0
 10  9  2  0
 10 11  1  0
 11 12  2  0
 12  7  1  0
 13 16  1  0
 13 15  1  0
 14 13  1  0
 17  6  1  0
 18 17  1  0
 19 18  1  0
 20 19  1  0
 21 20  2  0
 22 21  1  0
 22 23  2  0
 23 19  1  0
  2 24  1  0
  3 25  1  0
  4 26  1  0
  5 27  1  0
  7 28  1  0
  9 29  1  0
 17 30  1  0
 17 31  1  0
 18 32  1  0
 18 33  1  0
 20 34  1  0
 21 35  1  0
 23 36  1  0
M  ISO  8  24  14  25  14  26  14  27  14  28  14  29  14  30   8  31   8
M  ISO  5  32   8  33   8  34  14  35  14  36  14
M  END
>  <minimizedAffinity>  (1) 
-4.97919893

>  <minimizedRMSD>  (1) 
0.359231502

$$$$
