
     RDKit          3D

 41 44  0  0  0  0  0  0  0  0999 V2000
   32.2810   30.1750   46.0890 C   0  0  0  0  0  0  0  0  0  0  0  0
   31.9010   28.8280   46.1040 C   0  0  0  0  0  0  0  0  0  0  0  0
   32.7870   27.9020   46.6830 C   0  0  0  0  0  0  0  0  0  0  0  0
   33.9600   28.3460   47.1960 N   0  0  0  0  0  0  0  0  0  0  0  0
   34.3020   29.6600   47.1680 C   0  0  0  0  0  0  0  0  0  0  0  0
   33.4630   30.5660   46.6160 N   0  0  0  0  0  0  0  0  0  0  0  0
   35.5820   30.0380   47.7450 C   0  0  0  0  0  0  0  0  0  0  0  0
   36.6270   30.5880   47.0130 C   0  0  0  0  0  0  0  0  0  0  0  0
   37.6650   30.8260   47.8240 N   0  0  0  0  0  0  0  0  0  0  0  0
   37.3260   30.4450   49.0670 C   0  0  0  0  0  0  0  0  0  0  0  0
   38.0260   30.4730   50.2760 C   0  0  0  0  0  0  0  0  0  0  0  0
   37.3920   29.9980   51.4250 C   0  0  0  0  0  0  0  0  0  0  0  0
   36.1100   29.5200   51.3460 C   0  0  0  0  0  0  0  0  0  0  0  0
   35.3760   29.4740   50.1600 C   0  0  0  0  0  0  0  0  0  0  0  0
   36.0330   29.9540   49.0310 C   0  0  0  0  0  0  0  0  0  0  0  0
   32.4390   26.4890   46.7220 C   0  0  0  0  0  0  0  0  0  0  0  0
   33.2540   25.6200   47.3970 C   0  0  0  0  0  0  0  0  0  0  0  0
   32.8560   24.2960   47.3890 C   0  0  0  0  0  0  0  0  0  0  0  0
   31.7330   23.8790   46.7580 N   0  0  0  0  0  0  0  0  0  0  0  0
   30.9420   24.7740   46.0940 C   0  0  0  0  0  0  0  0  0  0  0  0
   31.3250   26.0790   46.0950 N   0  0  0  0  0  0  0  0  0  0  0  0
   29.7070   24.3250   45.3970 C   0  0  0  0  0  0  0  0  0  0  0  0
   28.5270   25.0720   45.9280 C   0  0  0  0  0  0  0  0  0  0  0  0
   29.6080   22.8360   45.6470 C   0  0  0  0  0  0  0  0  0  0  0  0
   31.6101   30.9242   45.6433 H   0  0  0  0  0  0  0  0  0  0  0  0
   30.9405   28.5042   45.6768 H   0  0  0  0  0  0  0  0  0  0  0  0
   36.6048   30.7959   45.9331 H   0  0  0  0  0  0  0  0  0  0  0  0
   38.5691   31.2318   47.5431 H   0  0  0  0  0  0  0  0  0  0  0  0
   39.0543   30.8610   50.3212 H   0  0  0  0  0  0  0  0  0  0  0  0
   37.9193   30.0072   52.3904 H   0  0  0  0  0  0  0  0  0  0  0  0
   35.6339   29.1528   52.2671 H   0  0  0  0  0  0  0  0  0  0  0  0
   34.3479   29.0848   50.1202 H   0  0  0  0  0  0  0  0  0  0  0  0
   34.1666   25.9538   47.9124 H   0  0  0  0  0  0  0  0  0  0  0  0
   33.4747   23.5538   47.9148 H   0  0  0  0  0  0  0  0  0  0  0  0
   29.7343   24.5243   44.3155 H   0  0  0  0  0  0  0  0  0  0  0  0
   28.5488   25.0582   47.0277 H   0  0  0  0  0  0  0  0  0  0  0  0
   28.5621   26.1128   45.5736 H   0  0  0  0  0  0  0  0  0  0  0  0
   27.6013   24.5950   45.5736 H   0  0  0  0  0  0  0  0  0  0  0  0
   29.5954   22.6461   46.7304 H   0  0  0  0  0  0  0  0  0  0  0  0
   28.6822   22.4493   45.1962 H   0  0  0  0  0  0  0  0  0  0  0  0
   30.4745   22.3301   45.1962 H   0  0  0  0  0  0  0  0  0  0  0  0
  1  2  2  0
  1  6  1  0
  2  3  1  0
  3 16  1  0
  3  4  2  0
  5  4  1  0
  5  7  1  0
  6  5  2  0
  7 15  1  0
  8  7  2  0
  8  9  1  0
  9 10  1  0
 10 11  2  0
 11 12  1  0
 13 12  2  0
 14 13  1  0
 15 10  1  0
 15 14  2  0
 16 17  2  0
 18 17  1  0
 19 18  2  0
 20 21  2  0
 20 19  1  0
 21 16  1  0
 22 24  1  0
 22 23  1  0
 22 20  1  0
  1 25  1  0
  2 26  1  0
  8 27  1  0
  9 28  1  0
 11 29  1  0
 12 30  1  0
 13 31  1  0
 14 32  1  0
 17 33  1  0
 18 34  1  0
 22 35  1  0
 23 36  1  0
 23 37  1  0
 23 38  1  0
 24 39  1  0
 24 40  1  0
 24 41  1  0
M  ISO  8  25  14  26  14  27  14  28   9  29  14  30  14  31  14  32  14
M  ISO  8  33  14  34  14  35   8  36   8  37   8  38   8  39   8  40   8
M  ISO  1  41   8
M  END
>  <minimizedAffinity>  (1) 
-5.96453524

>  <minimizedRMSD>  (1) 
0.443926811

$$$$
