
     RDKit          3D

 32 34  0  0  0  0  0  0  0  0999 V2000
   36.7530   31.2340   48.7650 N   0  0  0  0  0  0  0  0  0  0  0  0
   36.8420   32.1070   49.7980 C   0  0  0  0  0  0  0  0  0  0  0  0
   37.8330   32.9920   49.5170 N   0  0  0  0  0  0  0  0  0  0  0  0
   38.3340   32.6510   48.3240 C   0  0  0  0  0  0  0  0  0  0  0  0
   39.3430   33.1680   47.5280 C   0  0  0  0  0  0  0  0  0  0  0  0
   39.6480   32.6130   46.3380 N   0  0  0  0  0  0  0  0  0  0  0  0
   38.9880   31.5260   45.8600 C   0  0  0  0  0  0  0  0  0  0  0  0
   38.0120   31.0390   46.6480 N   0  0  0  0  0  0  0  0  0  0  0  0
   37.6700   31.5470   47.8310 C   0  0  0  0  0  0  0  0  0  0  0  0
   40.0700   34.2870   47.9490 N   0  0  0  0  0  0  0  0  0  0  0  0
   34.7690   30.2370   47.7860 C   0  0  0  0  0  0  0  0  0  0  0  0
   35.8140   30.1620   48.7170 C   0  0  0  0  0  0  0  0  0  0  0  0
   35.8380   29.0290   49.5180 C   0  0  0  0  0  0  0  0  0  0  0  0
   34.8830   28.0770   49.3740 N   0  0  0  0  0  0  0  0  0  0  0  0
   33.8980   28.1830   48.4740 C   0  0  0  0  0  0  0  0  0  0  0  0
   33.8460   29.2690   47.6800 N   0  0  0  0  0  0  0  0  0  0  0  0
   32.8520   27.1590   48.3020 C   0  0  0  0  0  0  0  0  0  0  0  0
   31.5520   27.7220   47.7730 C   0  0  0  0  0  0  0  0  0  0  0  0
   33.3490   26.1350   47.2730 C   0  0  0  0  0  0  0  0  0  0  0  0
   36.2202   32.0999   50.7054 H   0  0  0  0  0  0  0  0  0  0  0  0
   39.2360   31.0722   44.8892 H   0  0  0  0  0  0  0  0  0  0  0  0
   40.8194   34.6680   47.3539 H   0  0  0  0  0  0  0  0  0  0  0  0
   39.8558   34.7297   48.8540 H   0  0  0  0  0  0  0  0  0  0  0  0
   34.7038   31.1133   47.1243 H   0  0  0  0  0  0  0  0  0  0  0  0
   36.6314   28.9032   50.2695 H   0  0  0  0  0  0  0  0  0  0  0  0
   32.6613   26.7208   49.2928 H   0  0  0  0  0  0  0  0  0  0  0  0
   30.9039   28.0027   48.6163 H   0  0  0  0  0  0  0  0  0  0  0  0
   31.7602   28.6106   47.1590 H   0  0  0  0  0  0  0  0  0  0  0  0
   31.0463   26.9622   47.1590 H   0  0  0  0  0  0  0  0  0  0  0  0
   33.7714   25.2646   47.7964 H   0  0  0  0  0  0  0  0  0  0  0  0
   32.5079   25.8110   46.6424 H   0  0  0  0  0  0  0  0  0  0  0  0
   34.1239   26.5953   46.6424 H   0  0  0  0  0  0  0  0  0  0  0  0
  1  2  1  0
  3  2  2  0
  4  3  1  0
  5 10  1  0
  5  4  2  0
  6  5  1  0
  7  6  2  0
  7  8  1  0
  8  9  2  0
  9  4  1  0
  9  1  1  0
 11 12  2  0
 12  1  1  0
 12 13  1  0
 14 13  2  0
 15 14  1  0
 16 11  1  0
 16 15  2  0
 17 15  1  0
 18 17  1  0
 19 17  1  0
  2 20  1  0
  7 21  1  0
 10 22  1  0
 10 23  1  0
 11 24  1  0
 13 25  1  0
 17 26  1  0
 18 27  1  0
 18 28  1  0
 18 29  1  0
 19 30  1  0
 19 31  1  0
 19 32  1  0
M  ISO  8  20  14  21  14  24  14  25  14  26   8  27   8  28   8  29   8
M  ISO  3  30   8  31   8  32   8
M  END
>  <minimizedAffinity>  (1) 
-5.61961317

>  <minimizedRMSD>  (1) 
2.65817618

$$$$
