
     RDKit          3D

 42 44  0  0  0  0  0  0  0  0999 V2000
   32.8020   27.7890   48.5520 C   0  0  0  0  0  0  0  0  0  0  0  0
   31.6880   28.1990   49.2180 C   0  0  0  0  0  0  0  0  0  0  0  0
   30.4600   27.5600   49.1590 C   0  0  0  0  0  0  0  0  0  0  0  0
   30.4150   26.4340   48.3540 C   0  0  0  0  0  0  0  0  0  0  0  0
   31.5150   25.9950   47.6710 C   0  0  0  0  0  0  0  0  0  0  0  0
   32.7140   26.6530   47.7550 C   0  0  0  0  0  0  0  0  0  0  0  0
   36.1180   28.9210   49.6560 C   0  0  0  0  0  0  0  0  0  0  0  0
   36.4240   29.9210   48.6940 C   0  0  0  0  0  0  0  0  0  0  0  0
   35.4790   30.1630   47.7070 C   0  0  0  0  0  0  0  0  0  0  0  0
   34.3070   29.4390   47.6990 N   0  0  0  0  0  0  0  0  0  0  0  0
   34.0710   28.4960   48.6480 C   0  0  0  0  0  0  0  0  0  0  0  0
   34.9640   28.2520   49.6010 N   0  0  0  0  0  0  0  0  0  0  0  0
   37.6890   30.6900   48.7140 C   0  0  0  0  0  0  0  0  0  0  0  0
   38.4800   30.4690   47.6300 F   0  0  0  0  0  0  0  0  0  0  0  0
   38.4510   30.3870   49.8340 F   0  0  0  0  0  0  0  0  0  0  0  0
   37.4050   32.0520   48.7670 F   0  0  0  0  0  0  0  0  0  0  0  0
   33.9050   26.2110   47.0390 C   0  0  0  0  0  0  0  0  0  0  0  0
   33.6820   25.2710   45.9070 C   0  0  0  0  0  0  0  0  0  0  0  0
   34.9060   24.6850   45.3970 N   0  0  0  0  0  0  0  0  0  0  0  0
   35.6380   23.7560   46.0390 C   0  0  0  0  0  0  0  0  0  0  0  0
   36.7820   23.2910   45.4290 C   0  0  0  0  0  0  0  0  0  0  0  0
   37.6110   22.2640   46.1150 C   0  0  0  0  0  0  0  0  0  0  0  0
   37.1780   23.7550   44.1900 C   0  0  0  0  0  0  0  0  0  0  0  0
   38.2190   23.3110   43.6680 O   0  0  0  0  0  0  0  0  0  0  0  0
   36.4140   24.6910   43.5740 N   0  0  0  0  0  0  0  0  0  0  0  0
   35.3170   25.1260   44.1790 C   0  0  0  0  0  0  0  0  0  0  0  0
   34.6820   25.9990   43.5100 O   0  0  0  0  0  0  0  0  0  0  0  0
   31.7681   29.0988   49.8457 H   0  0  0  0  0  0  0  0  0  0  0  0
   29.5815   27.9220   49.7133 H   0  0  0  0  0  0  0  0  0  0  0  0
   29.4700   25.8786   48.2618 H   0  0  0  0  0  0  0  0  0  0  0  0
   31.4360   25.0962   47.0419 H   0  0  0  0  0  0  0  0  0  0  0  0
   36.8399   28.6956   50.4548 H   0  0  0  0  0  0  0  0  0  0  0  0
   35.6642   30.9267   46.9373 H   0  0  0  0  0  0  0  0  0  0  0  0
   34.4067   27.1045   46.6390 H   0  0  0  0  0  0  0  0  0  0  0  0
   34.4984   25.6487   47.7751 H   0  0  0  0  0  0  0  0  0  0  0  0
   33.0240   24.4597   46.2516 H   0  0  0  0  0  0  0  0  0  0  0  0
   33.2324   25.8502   45.0870 H   0  0  0  0  0  0  0  0  0  0  0  0
   35.3307   23.3779   47.0252 H   0  0  0  0  0  0  0  0  0  0  0  0
   37.5149   22.3830   47.2043 H   0  0  0  0  0  0  0  0  0  0  0  0
   37.2667   21.2606   45.8240 H   0  0  0  0  0  0  0  0  0  0  0  0
   38.6644   22.3889   45.8240 H   0  0  0  0  0  0  0  0  0  0  0  0
   36.6818   25.0586   42.6499 H   0  0  0  0  0  0  0  0  0  0  0  0
  1 11  1  0
  1  2  2  0
  3  2  1  0
  4  3  2  0
  5  6  2  0
  5  4  1  0
  6  1  1  0
  8 13  1  0
  8  7  2  0
  9  8  1  0
 10  9  2  0
 10 11  1  0
 11 12  2  0
 12  7  1  0
 13 16  1  0
 13 15  1  0
 14 13  1  0
 17  6  1  0
 18 17  1  0
 19 18  1  0
 19 20  1  0
 21 20  2  0
 21 22  1  0
 23 21  1  0
 24 23  2  0
 25 26  1  0
 25 23  1  0
 26 19  1  0
 27 26  2  0
  2 28  1  0
  3 29  1  0
  4 30  1  0
  5 31  1  0
  7 32  1  0
  9 33  1  0
 17 34  1  0
 17 35  1  0
 18 36  1  0
 18 37  1  0
 20 38  1  0
 22 39  1  0
 22 40  1  0
 22 41  1  0
 25 42  1  0
M  ISO  8  28  14  29  14  30  14  31  14  32  14  33  14  34   8  35   8
M  ISO  7  36   8  37   8  38  14  39   8  40   8  41   8  42   9
M  END
>  <minimizedAffinity>  (1) 
-5.34380627

>  <minimizedRMSD>  (1) 
0.480328619

$$$$
