
     RDKit          3D

 30 32  0  0  0  0  0  0  0  0999 V2000
   37.9760   32.9180   48.9550 C   0  0  0  0  0  0  0  0  0  0  0  0
   38.7300   32.8790   47.6930 N   0  0  0  0  0  0  0  0  0  0  0  0
   39.8910   33.5230   47.4330 C   0  0  0  0  0  0  0  0  0  0  0  0
   40.3230   33.2860   46.1960 N   0  0  0  0  0  0  0  0  0  0  0  0
   39.4130   32.4580   45.6310 C   0  0  0  0  0  0  0  0  0  0  0  0
   39.2680   31.8520   44.4070 C   0  0  0  0  0  0  0  0  0  0  0  0
   40.1360   32.0430   43.5160 O   0  0  0  0  0  0  0  0  0  0  0  0
   38.2420   31.0550   44.0910 N   0  0  0  0  0  0  0  0  0  0  0  0
   37.3090   30.8480   45.0440 C   0  0  0  0  0  0  0  0  0  0  0  0
   36.1960   29.9970   44.7340 N   0  0  0  0  0  0  0  0  0  0  0  0
   37.3480   31.3910   46.2790 N   0  0  0  0  0  0  0  0  0  0  0  0
   38.4100   32.1950   46.5560 C   0  0  0  0  0  0  0  0  0  0  0  0
   38.4420   31.6800   49.7220 C   0  0  0  0  0  0  0  0  0  0  0  0
   37.3420   30.0690   51.2150 C   0  0  0  0  0  0  0  0  0  0  0  0
   37.2720   30.9090   50.0760 C   0  0  0  0  0  0  0  0  0  0  0  0
   36.0710   30.9330   49.3730 C   0  0  0  0  0  0  0  0  0  0  0  0
   35.0440   30.1550   49.8140 N   0  0  0  0  0  0  0  0  0  0  0  0
   35.1450   29.3640   50.9070 C   0  0  0  0  0  0  0  0  0  0  0  0
   36.3010   29.3230   51.6070 N   0  0  0  0  0  0  0  0  0  0  0  0
   36.8940   32.8709   48.7624 H   0  0  0  0  0  0  0  0  0  0  0  0
   38.1516   33.8472   49.5170 H   0  0  0  0  0  0  0  0  0  0  0  0
   40.4150   34.1651   48.1563 H   0  0  0  0  0  0  0  0  0  0  0  0
   38.1670   30.6182   43.1612 H   0  0  0  0  0  0  0  0  0  0  0  0
   35.4690   29.8214   45.4422 H   0  0  0  0  0  0  0  0  0  0  0  0
   36.1241   29.5618   43.8033 H   0  0  0  0  0  0  0  0  0  0  0  0
   39.1090   31.0771   49.0883 H   0  0  0  0  0  0  0  0  0  0  0  0
   38.9938   31.9754   50.6266 H   0  0  0  0  0  0  0  0  0  0  0  0
   38.2770   30.0285   51.7931 H   0  0  0  0  0  0  0  0  0  0  0  0
   35.9540   31.5662   48.4812 H   0  0  0  0  0  0  0  0  0  0  0  0
   34.2868   28.7544   51.2261 H   0  0  0  0  0  0  0  0  0  0  0  0
  1 13  1  0
  2  1  1  0
  3  2  1  0
  4  3  2  0
  5  4  1  0
  5 12  2  0
  6  5  1  0
  7  6  2  0
  8  6  1  0
  8  9  1  0
  9 11  2  0
 10  9  1  0
 11 12  1  0
 12  2  1  0
 13 15  1  0
 14 19  2  0
 15 14  1  0
 16 17  1  0
 16 15  2  0
 17 18  2  0
 18 19  1  0
  1 20  1  0
  1 21  1  0
  3 22  1  0
  8 23  1  0
 10 24  1  0
 10 25  1  0
 13 26  1  0
 13 27  1  0
 14 28  1  0
 16 29  1  0
 18 30  1  0
M  ISO  8  20   8  21   8  22  14  23   9  26   8  27   8  28  14  29  14
M  ISO  1  30  14
M  END
>  <minimizedAffinity>  (1) 
-5.16357851

>  <minimizedRMSD>  (1) 
3.49096823

$$$$
