
     RDKit          3D

 46 48  0  0  1  0  0  0  0  0999 V2000
   31.7060   27.9370   46.7280 C   0  0  2  0  0  0  0  0  0  0  0  0
   35.0120   29.4190   48.6060 C   0  0  0  0  0  0  0  0  0  0  0  0
   34.5210   28.2430   49.1580 C   0  0  0  0  0  0  0  0  0  0  0  0
   33.4230   27.6960   48.5990 C   0  0  0  0  0  0  0  0  0  0  0  0
   32.8820   28.3020   47.5700 C   0  0  0  0  0  0  0  0  0  0  0  0
   33.8790   29.7920   47.2260 S   0  0  0  0  0  0  0  0  0  0  0  0
   37.8070   30.6630   50.6260 C   0  0  0  0  0  0  0  0  0  0  0  0
   38.4080   31.6120   49.7850 C   0  0  0  0  0  0  0  0  0  0  0  0
   37.8490   31.8220   48.5330 C   0  0  0  0  0  0  0  0  0  0  0  0
   36.7500   31.1000   48.1820 N   0  0  0  0  0  0  0  0  0  0  0  0
   36.2200   30.2060   49.0320 C   0  0  0  0  0  0  0  0  0  0  0  0
   36.7040   29.9310   50.2890 N   0  0  0  0  0  0  0  0  0  0  0  0
   31.6250   28.7990   45.5700 C   0  0  0  0  0  0  0  0  0  0  0  0
   30.4810   27.9210   47.6360 C   0  0  0  0  0  0  0  0  0  0  0  0
   29.8540   26.7250   47.6660 O   0  0  0  0  0  0  0  0  0  0  0  0
   29.2150   26.2020   46.5560 C   0  0  0  0  0  0  0  0  0  0  0  0
   29.1170   25.0190   45.8600 C   0  0  0  0  0  0  0  0  0  0  0  0
   28.2530   25.2720   44.8120 C   0  0  0  0  0  0  0  0  0  0  0  0
   27.8600   26.5810   44.9040 C   0  0  0  0  0  0  0  0  0  0  0  0
   28.4650   27.0810   45.9580 O   0  0  0  0  0  0  0  0  0  0  0  0
   26.9210   27.2030   43.9290 C   0  0  0  0  0  0  0  0  0  0  0  0
   27.7330   28.1000   43.0270 C   0  0  0  0  0  0  0  0  0  0  0  0
   25.8670   28.0310   44.6360 C   0  0  0  0  0  0  0  0  0  0  0  0
   26.1880   26.1530   43.1290 C   0  0  0  0  0  0  0  0  0  0  0  0
   31.7920   26.9304   46.2928 H   0  0  0  0  0  0  0  0  0  0  0  0
   35.0120   27.7733   50.0230 H   0  0  0  0  0  0  0  0  0  0  0  0
   32.9920   26.7651   48.9961 H   0  0  0  0  0  0  0  0  0  0  0  0
   38.2518   30.4983   51.6185 H   0  0  0  0  0  0  0  0  0  0  0  0
   39.2968   32.1732   50.1092 H   0  0  0  0  0  0  0  0  0  0  0  0
   38.2844   32.5560   47.8390 H   0  0  0  0  0  0  0  0  0  0  0  0
   31.5268   29.8446   45.8974 H   0  0  0  0  0  0  0  0  0  0  0  0
   32.5375   28.6881   44.9658 H   0  0  0  0  0  0  0  0  0  0  0  0
   30.7491   28.5201   44.9658 H   0  0  0  0  0  0  0  0  0  0  0  0
   30.8005   28.1735   48.6579 H   0  0  0  0  0  0  0  0  0  0  0  0
   29.7665   28.6535   47.2323 H   0  0  0  0  0  0  0  0  0  0  0  0
   29.6217   24.0691   46.0902 H   0  0  0  0  0  0  0  0  0  0  0  0
   27.9376   24.5521   44.0425 H   0  0  0  0  0  0  0  0  0  0  0  0
   28.3463   28.7775   43.6393 H   0  0  0  0  0  0  0  0  0  0  0  0
   28.3881   27.4854   42.3921 H   0  0  0  0  0  0  0  0  0  0  0  0
   27.0564   28.6909   42.3921 H   0  0  0  0  0  0  0  0  0  0  0  0
   25.9925   27.9324   45.7244 H   0  0  0  0  0  0  0  0  0  0  0  0
   25.9766   29.0871   44.3484 H   0  0  0  0  0  0  0  0  0  0  0  0
   24.8669   27.6745   44.3484 H   0  0  0  0  0  0  0  0  0  0  0  0
   25.6955   25.4475   43.8143 H   0  0  0  0  0  0  0  0  0  0  0  0
   25.4308   26.6374   42.4949 H   0  0  0  0  0  0  0  0  0  0  0  0
   26.9037   25.6092   42.4949 H   0  0  0  0  0  0  0  0  0  0  0  0
  1  5  1  0
  1 14  1  0
  2 11  1  0
  2  3  2  0
  4  3  1  0
  5  4  2  0
  6  5  1  0
  6  2  1  0
  8  7  2  0
  9  8  1  0
 10  9  2  0
 10 11  1  0
 11 12  2  0
 12  7  1  0
 13  1  1  0
 14 15  1  0
 16 15  1  0
 17 16  2  0
 18 19  2  0
 18 17  1  0
 19 20  1  0
 20 16  1  0
 21 23  1  0
 21 19  1  0
 22 21  1  0
 24 21  1  0
  1 25  1  6
  3 26  1  0
  4 27  1  0
  7 28  1  0
  8 29  1  0
  9 30  1  0
 13 31  1  0
 13 32  1  0
 13 33  1  0
 14 34  1  0
 14 35  1  0
 17 36  1  0
 18 37  1  0
 22 38  1  0
 22 39  1  0
 22 40  1  0
 23 41  1  0
 23 42  1  0
 23 43  1  0
 24 44  1  0
 24 45  1  0
 24 46  1  0
M  ISO  8  25   8  26  14  27  14  28  14  29  14  30  14  31   8  32   8
M  ISO  8  33   8  34   8  35   8  36  14  37  14  38   8  39   8  40   8
M  ISO  6  41   8  42   8  43   8  44   8  45   8  46   8
M  END
>  <minimizedAffinity>  (1) 
-4.9271946

>  <minimizedRMSD>  (1) 
0.575960636

$$$$
