
     RDKit          3D

 35 39  0  0  0  0  0  0  0  0999 V2000
   37.5760   33.0630   49.8380 C   0  0  0  0  0  0  0  0  0  0  0  0
   38.4150   33.2800   48.7420 C   0  0  0  0  0  0  0  0  0  0  0  0
   38.4160   32.3110   47.7420 C   0  0  0  0  0  0  0  0  0  0  0  0
   37.6190   31.2230   47.8700 N   0  0  0  0  0  0  0  0  0  0  0  0
   36.8280   31.0560   48.9420 C   0  0  0  0  0  0  0  0  0  0  0  0
   36.7990   31.9770   49.9370 N   0  0  0  0  0  0  0  0  0  0  0  0
   36.0020   29.8830   49.0310 N   0  0  0  0  0  0  0  0  0  0  0  0
   36.0210   28.7710   49.7890 C   0  0  0  0  0  0  0  0  0  0  0  0
   34.9720   28.0090   49.4160 N   0  0  0  0  0  0  0  0  0  0  0  0
   34.3030   28.6390   48.4330 C   0  0  0  0  0  0  0  0  0  0  0  0
   33.1720   28.2310   47.7550 C   0  0  0  0  0  0  0  0  0  0  0  0
   32.6830   29.0330   46.8080 N   0  0  0  0  0  0  0  0  0  0  0  0
   33.2950   30.2060   46.5400 C   0  0  0  0  0  0  0  0  0  0  0  0
   34.3980   30.6020   47.2010 N   0  0  0  0  0  0  0  0  0  0  0  0
   34.9470   29.8390   48.1720 C   0  0  0  0  0  0  0  0  0  0  0  0
   39.2690   32.4580   46.5520 C   0  0  0  0  0  0  0  0  0  0  0  0
   40.2330   33.3220   46.1990 N   0  0  0  0  0  0  0  0  0  0  0  0
   40.6920   33.0190   45.0180 O   0  0  0  0  0  0  0  0  0  0  0  0
   40.0450   31.9670   44.5890 C   0  0  0  0  0  0  0  0  0  0  0  0
   39.1310   31.5670   45.5180 N   0  0  0  0  0  0  0  0  0  0  0  0
   40.2150   31.2840   43.3420 N   0  0  0  0  0  0  0  0  0  0  0  0
   39.8940   31.8560   42.1680 N   0  0  0  0  0  0  0  0  0  0  0  0
   40.1670   30.9710   41.1850 C   0  0  0  0  0  0  0  0  0  0  0  0
   40.6700   29.8240   41.7930 C   0  0  0  0  0  0  0  0  0  0  0  0
   40.6970   30.0340   43.1700 C   0  0  0  0  0  0  0  0  0  0  0  0
   32.4880   27.0150   47.9900 N   0  0  0  0  0  0  0  0  0  0  0  0
   37.5530   33.8089   50.6462 H   0  0  0  0  0  0  0  0  0  0  0  0
   39.0473   34.1774   48.6721 H   0  0  0  0  0  0  0  0  0  0  0  0
   36.7570   28.5280   50.5696 H   0  0  0  0  0  0  0  0  0  0  0  0
   32.8793   30.8578   45.7575 H   0  0  0  0  0  0  0  0  0  0  0  0
   40.0196   31.1272   40.1062 H   0  0  0  0  0  0  0  0  0  0  0  0
   40.9912   28.9084   41.2747 H   0  0  0  0  0  0  0  0  0  0  0  0
   41.0368   29.3343   43.9477 H   0  0  0  0  0  0  0  0  0  0  0  0
   31.6486   26.7818   47.4405 H   0  0  0  0  0  0  0  0  0  0  0  0
   32.8294   26.3630   48.7106 H   0  0  0  0  0  0  0  0  0  0  0  0
  1  6  2  0
  2  1  1  0
  3  4  1  0
  3  2  2  0
  4  5  2  0
  5  7  1  0
  5  6  1  0
  7  8  1  0
  9  8  2  0
 10  9  1  0
 11 26  1  0
 11 10  2  0
 12 11  1  0
 13 12  2  0
 13 14  1  0
 14 15  2  0
 15 10  1  0
 15  7  1  0
 16  3  1  0
 17 16  2  0
 18 17  1  0
 19 18  1  0
 19 20  2  0
 20 16  1  0
 21 19  1  0
 22 21  1  0
 23 24  1  0
 23 22  2  0
 24 25  2  0
 25 21  1  0
  1 27  1  0
  2 28  1  0
  8 29  1  0
 13 30  1  0
 23 31  1  0
 24 32  1  0
 25 33  1  0
 26 34  1  0
 26 35  1  0
M  END
>  <minimizedAffinity>  (1) 
-7.3048377

>  <minimizedRMSD>  (1) 
2.09809875

$$$$
