
     RDKit          3D

 23 24  0  0  0  0  0  0  0  0999 V2000
   36.4290   29.7950   49.6170 C   0  0  0  0  0  0  0  0  0  0  0  0
   37.3070   30.6050   48.8910 C   0  0  0  0  0  0  0  0  0  0  0  0
   36.9790   30.8790   47.5630 C   0  0  0  0  0  0  0  0  0  0  0  0
   35.8350   30.3520   47.0520 N   0  0  0  0  0  0  0  0  0  0  0  0
   35.0130   29.5730   47.7920 C   0  0  0  0  0  0  0  0  0  0  0  0
   35.3220   29.3020   49.0750 N   0  0  0  0  0  0  0  0  0  0  0  0
   37.8840   31.6970   46.8550 N   0  0  0  0  0  0  0  0  0  0  0  0
   37.7210   31.6100   45.5110 C   0  0  0  0  0  0  0  0  0  0  0  0
   38.5270   32.3480   44.6590 C   0  0  0  0  0  0  0  0  0  0  0  0
   39.4790   33.1550   45.2580 C   0  0  0  0  0  0  0  0  0  0  0  0
   40.2310   33.8410   44.5170 O   0  0  0  0  0  0  0  0  0  0  0  0
   39.6420   33.2440   46.5950 N   0  0  0  0  0  0  0  0  0  0  0  0
   38.8290   32.5020   47.3760 C   0  0  0  0  0  0  0  0  0  0  0  0
   38.9040   32.5150   48.6490 O   0  0  0  0  0  0  0  0  0  0  0  0
   36.7650   29.4860   51.0560 C   0  0  0  0  0  0  0  0  0  0  0  0
   35.6180   29.1360   51.7460 F   0  0  0  0  0  0  0  0  0  0  0  0
   37.7400   28.5390   51.0790 F   0  0  0  0  0  0  0  0  0  0  0  0
   37.2510   30.6640   51.6290 F   0  0  0  0  0  0  0  0  0  0  0  0
   38.2211   31.0106   49.3491 H   0  0  0  0  0  0  0  0  0  0  0  0
   34.0947   29.1619   47.3473 H   0  0  0  0  0  0  0  0  0  0  0  0
   36.9451   30.9503   45.0955 H   0  0  0  0  0  0  0  0  0  0  0  0
   38.4163   32.2954   43.5658 H   0  0  0  0  0  0  0  0  0  0  0  0
   40.3615   33.8566   47.0047 H   0  0  0  0  0  0  0  0  0  0  0  0
  1 15  1  0
  2  1  2  0
  3  2  1  0
  4  3  2  0
  4  5  1  0
  5  6  2  0
  6  1  1  0
  7 13  1  0
  7  3  1  0
  8  7  1  0
  9 10  1  0
  9  8  2  0
 10 12  1  0
 11 10  2  0
 12 13  1  0
 13 14  2  0
 15 17  1  0
 15 18  1  0
 15 16  1  0
  2 19  1  0
  5 20  1  0
  8 21  1  0
  9 22  1  0
 12 23  1  0
M  ISO  5  19  14  20  14  21  14  22  14  23   9
M  END
>  <minimizedAffinity>  (1) 
-6.80102253

>  <minimizedRMSD>  (1) 
2.86658812

$$$$
