
     RDKit          3D

 30 32  0  0  1  0  0  0  0  0999 V2000
   36.3200   30.2490   50.2120 C   0  0  2  0  0  0  0  0  0  0  0  0
   35.5530   29.2880   51.0440 C   0  0  0  0  0  0  0  0  0  0  0  0
   35.8590   28.9350   49.6250 C   0  0  1  0  0  0  0  0  0  0  0  0
   34.7790   28.8960   48.6680 N   0  0  0  0  0  0  0  0  0  0  0  0
   33.7400   28.1450   49.1140 C   0  0  0  0  0  0  0  0  0  0  0  0
   32.5940   27.9640   48.3650 C   0  0  0  0  0  0  0  0  0  0  0  0
   32.5170   28.5810   47.1110 C   0  0  0  0  0  0  0  0  0  0  0  0
   31.5120   28.4880   46.3270 O   0  0  0  0  0  0  0  0  0  0  0  0
   33.5750   29.3150   46.7170 N   0  0  0  0  0  0  0  0  0  0  0  0
   34.6820   29.4760   47.4650 C   0  0  0  0  0  0  0  0  0  0  0  0
   35.6880   30.1450   47.1460 O   0  0  0  0  0  0  0  0  0  0  0  0
   37.8230   30.3470   50.3830 C   0  0  0  0  0  0  0  0  0  0  0  0
   38.9490   33.5420   48.9180 C   0  0  0  0  0  0  0  0  0  0  0  0
   39.2150   33.1920   47.5960 C   0  0  0  0  0  0  0  0  0  0  0  0
   39.0100   31.8680   47.2090 C   0  0  0  0  0  0  0  0  0  0  0  0
   38.5590   30.9970   48.1560 N   0  0  0  0  0  0  0  0  0  0  0  0
   38.3090   31.3570   49.4250 C   0  0  0  0  0  0  0  0  0  0  0  0
   38.5080   32.6330   49.7920 N   0  0  0  0  0  0  0  0  0  0  0  0
   36.1946   31.3214   50.0017 H   0  0  0  0  0  0  0  0  0  0  0  0
   36.0547   28.7504   51.8621 H   0  0  0  0  0  0  0  0  0  0  0  0
   34.6325   29.3487   51.6432 H   0  0  0  0  0  0  0  0  0  0  0  0
   36.3581   28.1041   49.1049 H   0  0  0  0  0  0  0  0  0  0  0  0
   33.8130   27.6662   50.1016 H   0  0  0  0  0  0  0  0  0  0  0  0
   31.7632   27.3508   48.7441 H   0  0  0  0  0  0  0  0  0  0  0  0
   33.5349   29.7763   45.7970 H   0  0  0  0  0  0  0  0  0  0  0  0
   38.0655   30.6556   51.4106 H   0  0  0  0  0  0  0  0  0  0  0  0
   38.3001   29.3734   50.1975 H   0  0  0  0  0  0  0  0  0  0  0  0
   39.1041   34.5803   49.2464 H   0  0  0  0  0  0  0  0  0  0  0  0
   39.5773   33.9406   46.8761 H   0  0  0  0  0  0  0  0  0  0  0  0
   39.2050   31.5385   46.1778 H   0  0  0  0  0  0  0  0  0  0  0  0
  1 12  1  0
  1  2  1  0
  3  1  1  0
  3  2  1  0
  4  5  1  0
  4  3  1  0
  6  5  2  0
  7  6  1  0
  8  7  2  0
  9  7  1  0
  9 10  1  0
 10  4  1  0
 11 10  2  0
 13 18  2  0
 14 13  1  0
 15 14  2  0
 15 16  1  0
 16 17  2  0
 17 18  1  0
 17 12  1  0
  1 19  1  6
  2 20  1  0
  2 21  1  0
  3 22  1  1
  5 23  1  0
  6 24  1  0
  9 25  1  0
 12 26  1  0
 12 27  1  0
 13 28  1  0
 14 29  1  0
 15 30  1  0
M  ISO  8  19  13  20  13  21  13  22  13  23  14  24  14  25   9  26   8
M  ISO  4  27   8  28  14  29  14  30  14
M  END
>  <minimizedAffinity>  (1) 
-5.33730364

>  <minimizedRMSD>  (1) 
1.86789787

$$$$
