
     RDKit          3D

 33 35  0  0  0  0  0  0  0  0999 V2000
   36.0110   30.2630   46.5780 C   0  0  0  0  0  0  0  0  0  0  0  0
   34.7730   29.6490   46.5760 C   0  0  0  0  0  0  0  0  0  0  0  0
   34.1260   29.1990   45.4470 C   0  0  0  0  0  0  0  0  0  0  0  0
   34.7460   29.3660   44.2260 C   0  0  0  0  0  0  0  0  0  0  0  0
   36.0020   29.9840   44.1820 C   0  0  0  0  0  0  0  0  0  0  0  0
   36.6080   30.4190   45.3570 C   0  0  0  0  0  0  0  0  0  0  0  0
   37.8850   31.0420   45.2690 N   0  0  0  0  0  0  0  0  0  0  0  0
   38.9400   30.4030   45.8510 C   0  0  0  0  0  0  0  0  0  0  0  0
   40.2170   30.9270   45.8190 C   0  0  0  0  0  0  0  0  0  0  0  0
   40.4520   32.1460   45.1760 C   0  0  0  0  0  0  0  0  0  0  0  0
   41.5950   32.6620   45.1200 O   0  0  0  0  0  0  0  0  0  0  0  0
   39.3780   32.7400   44.6140 N   0  0  0  0  0  0  0  0  0  0  0  0
   38.1190   32.2210   44.6480 C   0  0  0  0  0  0  0  0  0  0  0  0
   37.1430   32.8010   44.1160 O   0  0  0  0  0  0  0  0  0  0  0  0
   37.1050   30.3290   50.0570 C   0  0  0  0  0  0  0  0  0  0  0  0
   37.7380   31.5640   50.1630 C   0  0  0  0  0  0  0  0  0  0  0  0
   37.7880   32.3790   49.0260 C   0  0  0  0  0  0  0  0  0  0  0  0
   37.2170   31.9200   47.8890 N   0  0  0  0  0  0  0  0  0  0  0  0
   36.6040   30.7010   47.8250 C   0  0  0  0  0  0  0  0  0  0  0  0
   36.5570   29.9260   48.9040 N   0  0  0  0  0  0  0  0  0  0  0  0
   37.0490   29.4460   51.2820 C   0  0  0  0  0  0  0  0  0  0  0  0
   35.7440   29.1020   51.5400 F   0  0  0  0  0  0  0  0  0  0  0  0
   37.8610   28.3740   51.0600 F   0  0  0  0  0  0  0  0  0  0  0  0
   37.5240   30.2010   52.3560 F   0  0  0  0  0  0  0  0  0  0  0  0
   34.2693   29.5101   47.5440 H   0  0  0  0  0  0  0  0  0  0  0  0
   33.1391   28.7182   45.5169 H   0  0  0  0  0  0  0  0  0  0  0  0
   34.2614   29.0192   43.3014 H   0  0  0  0  0  0  0  0  0  0  0  0
   36.5105   30.1259   43.2170 H   0  0  0  0  0  0  0  0  0  0  0  0
   38.7687   29.4431   46.3602 H   0  0  0  0  0  0  0  0  0  0  0  0
   41.0470   30.3870   46.2980 H   0  0  0  0  0  0  0  0  0  0  0  0
   39.5188   33.6387   44.1309 H   0  0  0  0  0  0  0  0  0  0  0  0
   38.1862   31.8903   51.1131 H   0  0  0  0  0  0  0  0  0  0  0  0
   38.2773   33.3637   49.0563 H   0  0  0  0  0  0  0  0  0  0  0  0
  1 19  1  0
  2  1  2  0
  3  2  1  0
  4  3  2  0
  5  4  1  0
  5  6  2  0
  6  1  1  0
  7  6  1  0
  7  8  1  0
  9  8  2  0
 10  9  1  0
 11 10  2  0
 12 13  1  0
 12 10  1  0
 13  7  1  0
 14 13  2  0
 15 16  2  0
 15 21  1  0
 17 16  1  0
 18 17  2  0
 19 18  1  0
 19 20  2  0
 20 15  1  0
 21 22  1  0
 21 24  1  0
 23 21  1  0
  2 25  1  0
  3 26  1  0
  4 27  1  0
  5 28  1  0
  8 29  1  0
  9 30  1  0
 12 31  1  0
 16 32  1  0
 17 33  1  0
M  ISO  8  25  14  26  14  27  14  28  14  29  14  30  14  31   9  32  14
M  ISO  1  33  14
M  END
>  <minimizedAffinity>  (1) 
-6.42413568

>  <minimizedRMSD>  (1) 
0.712208033

$$$$
