
     RDKit          3D

 37 40  0  0  0  0  0  0  0  0999 V2000
   38.6920   32.4150   46.6160 N   0  0  0  0  0  0  0  0  0  0  0  0
   39.8290   32.9960   46.2430 C   0  0  0  0  0  0  0  0  0  0  0  0
   40.4010   32.9040   45.0040 C   0  0  0  0  0  0  0  0  0  0  0  0
   39.7890   32.1640   44.0400 C   0  0  0  0  0  0  0  0  0  0  0  0
   40.2420   32.0270   42.8790 O   0  0  0  0  0  0  0  0  0  0  0  0
   38.6610   31.5710   44.3640 N   0  0  0  0  0  0  0  0  0  0  0  0
   38.1270   31.6850   45.5970 C   0  0  0  0  0  0  0  0  0  0  0  0
   37.0370   31.0750   45.8110 O   0  0  0  0  0  0  0  0  0  0  0  0
   38.0860   27.4710   42.1570 N   0  0  0  0  0  0  0  0  0  0  0  0
   39.0540   27.4180   43.0910 C   0  0  0  0  0  0  0  0  0  0  0  0
   39.1710   28.6310   43.6910 N   0  0  0  0  0  0  0  0  0  0  0  0
   38.2760   29.4620   43.1400 C   0  0  0  0  0  0  0  0  0  0  0  0
   37.9830   30.7840   43.3790 C   0  0  0  0  0  0  0  0  0  0  0  0
   36.9960   31.3580   42.6360 N   0  0  0  0  0  0  0  0  0  0  0  0
   36.3180   30.6630   41.6890 C   0  0  0  0  0  0  0  0  0  0  0  0
   36.6400   29.3650   41.4870 N   0  0  0  0  0  0  0  0  0  0  0  0
   37.6050   28.7290   42.1850 C   0  0  0  0  0  0  0  0  0  0  0  0
   38.0310   32.4500   47.8540 C   0  0  0  0  0  0  0  0  0  0  0  0
   38.5980   31.7400   49.0100 C   0  0  0  0  0  0  0  0  0  0  0  0
   35.5370   29.7510   50.0210 C   0  0  0  0  0  0  0  0  0  0  0  0
   36.4250   30.5460   49.2470 C   0  0  0  0  0  0  0  0  0  0  0  0
   37.6380   30.9190   49.7610 C   0  0  0  0  0  0  0  0  0  0  0  0
   37.9440   30.5020   51.0210 N   0  0  0  0  0  0  0  0  0  0  0  0
   37.1190   29.7610   51.7450 C   0  0  0  0  0  0  0  0  0  0  0  0
   35.9190   29.3800   51.2620 N   0  0  0  0  0  0  0  0  0  0  0  0
   40.3543   33.6025   46.9955 H   0  0  0  0  0  0  0  0  0  0  0  0
   41.3466   33.4232   44.7890 H   0  0  0  0  0  0  0  0  0  0  0  0
   37.7755   26.7037   41.5440 H   0  0  0  0  0  0  0  0  0  0  0  0
   39.6569   26.5298   43.3311 H   0  0  0  0  0  0  0  0  0  0  0  0
   35.5243   31.1441   41.0986 H   0  0  0  0  0  0  0  0  0  0  0  0
   37.9491   33.5089   48.1405 H   0  0  0  0  0  0  0  0  0  0  0  0
   37.0955   31.9059   47.6568 H   0  0  0  0  0  0  0  0  0  0  0  0
   39.4008   31.0815   48.6469 H   0  0  0  0  0  0  0  0  0  0  0  0
   38.9530   32.5149   49.7054 H   0  0  0  0  0  0  0  0  0  0  0  0
   34.5603   29.4447   49.6182 H   0  0  0  0  0  0  0  0  0  0  0  0
   36.1374   30.8622   48.2334 H   0  0  0  0  0  0  0  0  0  0  0  0
   37.4176   29.4511   52.7573 H   0  0  0  0  0  0  0  0  0  0  0  0
  1 18  1  0
  2  1  1  0
  3  2  2  0
  4  6  1  0
  4  3  1  0
  5  4  2  0
  6  7  1  0
  7  8  2  0
  7  1  1  0
  9 17  1  0
  9 10  1  0
 10 11  2  0
 12 13  2  0
 12 11  1  0
 13  6  1  0
 14 13  1  0
 15 14  2  0
 16 15  1  0
 16 17  2  0
 17 12  1  0
 18 19  1  0
 19 22  1  0
 20 25  2  0
 21 22  2  0
 21 20  1  0
 22 23  1  0
 23 24  2  0
 25 24  1  0
  2 26  1  0
  3 27  1  0
  9 28  1  0
 10 29  1  0
 15 30  1  0
 18 31  1  0
 18 32  1  0
 19 33  1  0
 19 34  1  0
 20 35  1  0
 21 36  1  0
 24 37  1  0
M  ISO  8  26  14  27  14  28   9  29  14  30  14  31   8  32   8  33   8
M  ISO  4  34   8  35  14  36  14  37  14
M  END
>  <minimizedAffinity>  (1) 
-5.8414712

>  <minimizedRMSD>  (1) 
3.30425286

$$$$
