
     RDKit          3D

 28 29  0  0  0  0  0  0  0  0999 V2000
   37.5820   30.8620   44.5560 C   0  0  0  0  0  0  0  0  0  0  0  0
   37.0650   30.4120   45.8100 C   0  0  0  0  0  0  0  0  0  0  0  0
   37.6450   30.9470   46.9460 C   0  0  0  0  0  0  0  0  0  0  0  0
   38.6520   31.8520   46.8220 N   0  0  0  0  0  0  0  0  0  0  0  0
   39.1090   32.2480   45.6260 C   0  0  0  0  0  0  0  0  0  0  0  0
   38.5830   31.7610   44.5010 N   0  0  0  0  0  0  0  0  0  0  0  0
   37.1350   30.5040   48.1980 N   0  0  0  0  0  0  0  0  0  0  0  0
   37.9050   30.1950   49.2620 C   0  0  0  0  0  0  0  0  0  0  0  0
   37.3190   29.7710   50.4410 C   0  0  0  0  0  0  0  0  0  0  0  0
   35.9390   29.6830   50.4700 C   0  0  0  0  0  0  0  0  0  0  0  0
   35.3750   29.2420   51.7050 N   0  0  0  0  0  0  0  0  0  0  0  0
   35.1670   29.9900   49.4110 N   0  0  0  0  0  0  0  0  0  0  0  0
   35.7800   30.3960   48.2900 C   0  0  0  0  0  0  0  0  0  0  0  0
   35.0190   30.6770   47.3110 O   0  0  0  0  0  0  0  0  0  0  0  0
   40.2130   33.2410   45.6590 C   0  0  0  0  0  0  0  0  0  0  0  0
   40.2650   33.8550   46.9230 F   0  0  0  0  0  0  0  0  0  0  0  0
   41.4110   32.6050   45.4890 F   0  0  0  0  0  0  0  0  0  0  0  0
   40.0880   34.1990   44.6600 F   0  0  0  0  0  0  0  0  0  0  0  0
   37.0160   30.3390   43.4050 O   0  0  0  0  0  0  0  0  0  0  0  0
   35.7440   30.6460   42.9340 C   0  0  0  0  0  0  0  0  0  0  0  0
   34.7860   29.6850   43.2570 F   0  0  0  0  0  0  0  0  0  0  0  0
   35.2900   31.8970   43.3000 F   0  0  0  0  0  0  0  0  0  0  0  0
   35.8570   30.6480   41.5410 F   0  0  0  0  0  0  0  0  0  0  0  0
   36.2479   29.6779   45.8688 H   0  0  0  0  0  0  0  0  0  0  0  0
   38.9994   30.2803   49.1918 H   0  0  0  0  0  0  0  0  0  0  0  0
   37.9267   29.5139   51.3211 H   0  0  0  0  0  0  0  0  0  0  0  0
   34.3535   29.1520   51.8016 H   0  0  0  0  0  0  0  0  0  0  0  0
   35.9896   29.0138   52.4995 H   0  0  0  0  0  0  0  0  0  0  0  0
  1  2  2  0
  2  3  1  0
  3  7  1  0
  4  3  2  0
  5 15  1  0
  5  4  1  0
  6  1  1  0
  6  5  2  0
  7 13  1  0
  7  8  1  0
  8  9  2  0
  9 10  1  0
 10 11  1  0
 12 10  2  0
 13 12  1  0
 14 13  2  0
 15 16  1  0
 17 15  1  0
 18 15  1  0
 19  1  1  0
 20 21  1  0
 20 22  1  0
 20 19  1  0
 23 20  1  0
  2 24  1  0
  8 25  1  0
  9 26  1  0
 11 27  1  0
 11 28  1  0
M  ISO  3  24  14  25  14  26  14
M  END
>  <minimizedAffinity>  (1) 
-5.71144867

>  <minimizedRMSD>  (1) 
5.41069508

$$$$
