
     RDKit          3D

 31 32  0  0  0  0  0  0  0  0999 V2000
   36.9410   29.9320   49.8990 C   0  0  0  0  0  0  0  0  0  0  0  0
   38.0340   30.6560   49.4620 C   0  0  0  0  0  0  0  0  0  0  0  0
   38.0500   31.1020   48.1310 C   0  0  0  0  0  0  0  0  0  0  0  0
   36.9860   30.7960   47.3460 N   0  0  0  0  0  0  0  0  0  0  0  0
   35.9380   30.0860   47.8100 C   0  0  0  0  0  0  0  0  0  0  0  0
   35.9170   29.6580   49.0830 N   0  0  0  0  0  0  0  0  0  0  0  0
   39.1330   31.8410   47.6310 N   0  0  0  0  0  0  0  0  0  0  0  0
   39.0150   32.5920   46.4290 C   0  0  0  0  0  0  0  0  0  0  0  0
   37.9320   32.5120   45.7510 N   0  0  0  0  0  0  0  0  0  0  0  0
   40.1060   33.4130   46.0130 N   0  0  0  0  0  0  0  0  0  0  0  0
   37.9190   32.9530   44.7940 H   0  0  0  0  0  0  0  0  0  0  0  0
   34.9110   29.8560   46.8520 N   0  0  0  0  0  0  0  0  0  0  0  0
   33.6610   29.4700   47.1940 C   0  0  0  0  0  0  0  0  0  0  0  0
   32.7090   29.2630   46.2120 C   0  0  0  0  0  0  0  0  0  0  0  0
   33.0600   29.4580   44.8830 C   0  0  0  0  0  0  0  0  0  0  0  0
   32.1000   29.2540   43.8280 N   0  0  0  0  0  0  0  0  0  0  0  0
   34.3030   29.8430   44.5400 N   0  0  0  0  0  0  0  0  0  0  0  0
   35.2020   30.0340   45.5330 C   0  0  0  0  0  0  0  0  0  0  0  0
   36.3600   30.3940   45.1830 O   0  0  0  0  0  0  0  0  0  0  0  0
   36.8920   29.4420   51.3140 C   0  0  0  0  0  0  0  0  0  0  0  0
   35.5960   29.1750   51.6990 F   0  0  0  0  0  0  0  0  0  0  0  0
   37.7690   28.4130   51.4520 F   0  0  0  0  0  0  0  0  0  0  0  0
   37.3280   30.5140   52.1180 F   0  0  0  0  0  0  0  0  0  0  0  0
   38.8710   30.8774   50.1405 H   0  0  0  0  0  0  0  0  0  0  0  0
   40.0271   31.8395   48.1423 H   0  0  0  0  0  0  0  0  0  0  0  0
   40.0351   33.9626   45.1448 H   0  0  0  0  0  0  0  0  0  0  0  0
   40.9641   33.4558   46.5810 H   0  0  0  0  0  0  0  0  0  0  0  0
   33.4013   29.3207   48.2524 H   0  0  0  0  0  0  0  0  0  0  0  0
   31.6895   28.9487   46.4800 H   0  0  0  0  0  0  0  0  0  0  0  0
   32.3743   29.4024   42.8463 H   0  0  0  0  0  0  0  0  0  0  0  0
   31.1395   28.9598   44.0555 H   0  0  0  0  0  0  0  0  0  0  0  0
  1 20  1  0
  2  1  2  0
  3  2  1  0
  4  5  1  0
  4  3  2  0
  5  6  2  0
  6  1  1  0
  7  3  1  0
  8  7  1  0
  9  8  2  0
 10  8  1  0
 11  9  1  0
 12 13  1  0
 12  5  1  0
 14 13  2  0
 15 14  1  0
 16 15  1  0
 17 15  2  0
 17 18  1  0
 18 12  1  0
 19 18  2  0
 20 22  1  0
 20 21  1  0
 20 23  1  0
  2 24  1  0
  7 25  1  0
 10 26  1  0
 10 27  1  0
 13 28  1  0
 14 29  1  0
 16 30  1  0
 16 31  1  0
M  ISO  3  24  14  28  14  29  14
M  END
>  <minimizedAffinity>  (1) 
-7.12756205

>  <minimizedRMSD>  (1) 
0.167688474

$$$$
