
     RDKit          3D

 25 26  0  0  0  0  0  0  0  0999 V2000
   37.5680   30.3540   49.1210 C   0  0  0  0  0  0  0  0  0  0  0  0
   37.8330   31.4400   49.9870 C   0  0  0  0  0  0  0  0  0  0  0  0
   38.5330   32.5390   49.4600 C   0  0  0  0  0  0  0  0  0  0  0  0
   38.9160   32.5030   48.1560 N   0  0  0  0  0  0  0  0  0  0  0  0
   38.6400   31.4500   47.3800 C   0  0  0  0  0  0  0  0  0  0  0  0
   37.9750   30.3820   47.8400 N   0  0  0  0  0  0  0  0  0  0  0  0
   39.0440   31.4190   46.0160 N   0  0  0  0  0  0  0  0  0  0  0  0
   38.6590   30.3520   45.2910 C   0  0  0  0  0  0  0  0  0  0  0  0
   39.0580   30.3330   43.9700 C   0  0  0  0  0  0  0  0  0  0  0  0
   39.8050   31.3970   43.5190 C   0  0  0  0  0  0  0  0  0  0  0  0
   40.2370   31.4190   42.1650 N   0  0  0  0  0  0  0  0  0  0  0  0
   40.1610   32.4350   44.2840 N   0  0  0  0  0  0  0  0  0  0  0  0
   39.7750   32.4670   45.5900 C   0  0  0  0  0  0  0  0  0  0  0  0
   40.0730   33.4100   46.3650 O   0  0  0  0  0  0  0  0  0  0  0  0
   36.8830   29.2770   49.6310 O   0  0  0  0  0  0  0  0  0  0  0  0
   35.5910   29.3230   50.1840 C   0  0  0  0  0  0  0  0  0  0  0  0
   35.5920   29.2990   51.5680 F   0  0  0  0  0  0  0  0  0  0  0  0
   34.8250   30.3570   49.7150 F   0  0  0  0  0  0  0  0  0  0  0  0
   34.9630   28.1380   49.7570 F   0  0  0  0  0  0  0  0  0  0  0  0
   37.5029   31.4252   51.0362 H   0  0  0  0  0  0  0  0  0  0  0  0
   38.7662   33.4103   50.0897 H   0  0  0  0  0  0  0  0  0  0  0  0
   38.0592   29.5398   45.7276 H   0  0  0  0  0  0  0  0  0  0  0  0
   38.7894   29.5000   43.3037 H   0  0  0  0  0  0  0  0  0  0  0  0
   40.7967   32.2100   41.8158 H   0  0  0  0  0  0  0  0  0  0  0  0
   39.9904   30.6439   41.5331 H   0  0  0  0  0  0  0  0  0  0  0  0
  1 15  1  0
  1  2  2  0
  3  2  1  0
  4  3  2  0
  5  6  2  0
  5  4  1  0
  6  1  1  0
  7  5  1  0
  8  7  1  0
  9  8  2  0
 10  9  1  0
 10 12  2  0
 11 10  1  0
 12 13  1  0
 13  7  1  0
 13 14  2  0
 15 16  1  0
 16 17  1  0
 18 16  1  0
 19 16  1  0
  2 20  1  0
  3 21  1  0
  8 22  1  0
  9 23  1  0
 11 24  1  0
 11 25  1  0
M  ISO  4  20  14  21  14  22  14  23  14
M  END
>  <minimizedAffinity>  (1) 
-6.47415876

>  <minimizedRMSD>  (1) 
1.30167389

$$$$
