
     RDKit          3D

 35 38  0  0  0  0  0  0  0  0999 V2000
   32.4340   30.1040   46.0960 C   0  0  0  0  0  0  0  0  0  0  0  0
   32.1570   28.7390   46.0520 C   0  0  0  0  0  0  0  0  0  0  0  0
   33.0900   27.8410   46.6000 C   0  0  0  0  0  0  0  0  0  0  0  0
   34.2340   28.3610   47.1520 N   0  0  0  0  0  0  0  0  0  0  0  0
   34.4710   29.6810   47.1780 C   0  0  0  0  0  0  0  0  0  0  0  0
   33.5810   30.5470   46.6550 N   0  0  0  0  0  0  0  0  0  0  0  0
   35.7090   30.1210   47.7850 C   0  0  0  0  0  0  0  0  0  0  0  0
   36.7380   30.7460   47.1050 C   0  0  0  0  0  0  0  0  0  0  0  0
   37.7490   31.0310   47.9410 N   0  0  0  0  0  0  0  0  0  0  0  0
   37.4080   30.6060   49.1650 C   0  0  0  0  0  0  0  0  0  0  0  0
   38.0680   30.6430   50.3930 C   0  0  0  0  0  0  0  0  0  0  0  0
   37.4420   30.1080   51.5150 C   0  0  0  0  0  0  0  0  0  0  0  0
   36.1950   29.5570   51.3960 C   0  0  0  0  0  0  0  0  0  0  0  0
   35.4960   29.4980   50.1850 C   0  0  0  0  0  0  0  0  0  0  0  0
   36.1380   30.0330   49.0980 C   0  0  0  0  0  0  0  0  0  0  0  0
   32.8220   26.4440   46.5640 N   0  0  0  0  0  0  0  0  0  0  0  0
   33.2950   25.7040   45.5180 C   0  0  0  0  0  0  0  0  0  0  0  0
   33.0530   24.3350   45.4470 C   0  0  0  0  0  0  0  0  0  0  0  0
   32.3220   23.7230   46.4540 C   0  0  0  0  0  0  0  0  0  0  0  0
   31.9890   22.3370   46.5270 N   0  0  0  0  0  0  0  0  0  0  0  0
   31.8780   24.4810   47.4560 N   0  0  0  0  0  0  0  0  0  0  0  0
   32.1070   25.8050   47.5330 C   0  0  0  0  0  0  0  0  0  0  0  0
   31.7130   26.5710   48.4550 O   0  0  0  0  0  0  0  0  0  0  0  0
   31.7163   30.8230   45.6742 H   0  0  0  0  0  0  0  0  0  0  0  0
   31.2257   28.3708   45.5970 H   0  0  0  0  0  0  0  0  0  0  0  0
   36.7294   30.9773   46.0296 H   0  0  0  0  0  0  0  0  0  0  0  0
   38.6324   31.4952   47.6860 H   0  0  0  0  0  0  0  0  0  0  0  0
   39.0702   31.0892   50.4737 H   0  0  0  0  0  0  0  0  0  0  0  0
   37.9468   30.1279   52.4921 H   0  0  0  0  0  0  0  0  0  0  0  0
   35.7190   29.1403   52.2958 H   0  0  0  0  0  0  0  0  0  0  0  0
   34.4940   29.0503   50.1099 H   0  0  0  0  0  0  0  0  0  0  0  0
   33.8740   26.1956   44.7223 H   0  0  0  0  0  0  0  0  0  0  0  0
   33.4373   23.7453   44.6016 H   0  0  0  0  0  0  0  0  0  0  0  0
   31.4387   21.9807   47.3214 H   0  0  0  0  0  0  0  0  0  0  0  0
   32.2990   21.6931   45.7852 H   0  0  0  0  0  0  0  0  0  0  0  0
  1  6  2  0
  2  1  1  0
  2  3  2  0
  3  4  1  0
  4  5  2  0
  5  7  1  0
  6  5  1  0
  7 15  1  0
  8  7  2  0
  8  9  1  0
  9 10  1  0
 10 11  2  0
 11 12  1  0
 13 12  2  0
 14 13  1  0
 15 10  1  0
 15 14  2  0
 16  3  1  0
 16 22  1  0
 17 16  1  0
 18 17  2  0
 18 19  1  0
 19 20  1  0
 19 21  2  0
 21 22  1  0
 22 23  2  0
  1 24  1  0
  2 25  1  0
  8 26  1  0
  9 27  1  0
 11 28  1  0
 12 29  1  0
 13 30  1  0
 14 31  1  0
 17 32  1  0
 18 33  1  0
 20 34  1  0
 20 35  1  0
M  ISO  8  24  14  25  14  26  14  27   9  28  14  29  14  30  14  31  14
M  ISO  2  32  14  33  14
M  END
>  <minimizedAffinity>  (1) 
-5.86215496

>  <minimizedRMSD>  (1) 
0.481457531

$$$$
