
     RDKit          3D

 35 38  0  0  1  0  0  0  0  0999 V2000
   38.6070   32.2240   48.0160 C   0  0  1  0  0  0  0  0  0  0  0  0
   37.9430   31.2760   48.9090 C   0  0  0  0  0  0  0  0  0  0  0  0
   38.4320   31.0980   50.1360 N   0  0  0  0  0  0  0  0  0  0  0  0
   37.8870   30.2330   51.0290 C   0  0  0  0  0  0  0  0  0  0  0  0
   36.8160   29.4950   50.7410 N   0  0  0  0  0  0  0  0  0  0  0  0
   36.2360   29.6010   49.5190 C   0  0  0  0  0  0  0  0  0  0  0  0
   35.1410   28.8520   49.1990 C   0  0  0  0  0  0  0  0  0  0  0  0
   34.5540   28.9470   47.9700 C   0  0  0  0  0  0  0  0  0  0  0  0
   35.1240   29.8340   47.0820 C   0  0  0  0  0  0  0  0  0  0  0  0
   36.2270   30.5690   47.4420 C   0  0  0  0  0  0  0  0  0  0  0  0
   36.8350   30.4910   48.6670 C   0  0  0  0  0  0  0  0  0  0  0  0
   39.1090   32.1250   46.6760 C   0  0  0  0  0  0  0  0  0  0  0  0
   39.8020   33.2950   46.3170 C   0  0  0  0  0  0  0  0  0  0  0  0
   40.5070   33.3380   45.0590 C   0  0  0  0  0  0  0  0  0  0  0  0
   40.4380   32.2120   44.3080 N   0  0  0  0  0  0  0  0  0  0  0  0
   39.7520   31.1050   44.6960 C   0  0  0  0  0  0  0  0  0  0  0  0
   39.1040   31.0600   45.8470 N   0  0  0  0  0  0  0  0  0  0  0  0
   39.6940   29.9340   43.8850 N   0  0  0  0  0  0  0  0  0  0  0  0
   38.9010   28.8450   43.8780 C   0  0  0  0  0  0  0  0  0  0  0  0
   39.2930   28.0020   42.8530 C   0  0  0  0  0  0  0  0  0  0  0  0
   40.3220   28.5980   42.2510 N   0  0  0  0  0  0  0  0  0  0  0  0
   40.5830   29.7860   42.8700 C   0  0  0  0  0  0  0  0  0  0  0  0
   38.2430   33.4010   48.5240 O   0  0  0  0  0  0  0  0  0  0  0  0
   39.6044   31.7860   47.8631 H   0  0  0  0  0  0  0  0  0  0  0  0
   38.3454   30.1382   52.0244 H   0  0  0  0  0  0  0  0  0  0  0  0
   34.7238   28.1593   49.9447 H   0  0  0  0  0  0  0  0  0  0  0  0
   33.6719   28.3468   47.7023 H   0  0  0  0  0  0  0  0  0  0  0  0
   34.6922   29.9541   46.0774 H   0  0  0  0  0  0  0  0  0  0  0  0
   36.6484   31.2636   46.7004 H   0  0  0  0  0  0  0  0  0  0  0  0
   39.8064   34.1670   46.9875 H   0  0  0  0  0  0  0  0  0  0  0  0
   41.0646   34.2275   44.7305 H   0  0  0  0  0  0  0  0  0  0  0  0
   38.0727   28.6558   44.5767 H   0  0  0  0  0  0  0  0  0  0  0  0
   38.8447   27.0331   42.5879 H   0  0  0  0  0  0  0  0  0  0  0  0
   41.3747   30.4984   42.5947 H   0  0  0  0  0  0  0  0  0  0  0  0
   38.2580   33.3525   49.5127 H   0  0  0  0  0  0  0  0  0  0  0  0
  1 23  1  0
  1  2  1  0
  2  3  2  0
  3  4  1  0
  5  4  2  0
  6  5  1  0
  7  6  2  0
  8  7  1  0
  9 10  1  0
  9  8  2  0
 10 11  2  0
 11  2  1  0
 11  6  1  0
 12  1  1  0
 13 12  2  0
 14 13  1  0
 15 16  1  0
 15 14  2  0
 16 17  2  0
 17 12  1  0
 18 16  1  0
 19 18  1  0
 20 19  2  0
 21 20  1  0
 21 22  2  0
 22 18  1  0
  1 24  1  1
  4 25  1  0
  7 26  1  0
  8 27  1  0
  9 28  1  0
 10 29  1  0
 13 30  1  0
 14 31  1  0
 19 32  1  0
 20 33  1  0
 22 34  1  0
 23 35  1  0
M  END
>  <minimizedAffinity>  (1) 
-7.28412342

>  <minimizedRMSD>  (1) 
0.732033372

$$$$
