
     RDKit          3D

 43 46  0  0  0  0  0  0  0  0999 V2000
   31.7230   26.2760   47.6170 C   0  0  0  0  0  0  0  0  0  0  0  0
   31.4750   25.1380   46.9310 C   0  0  0  0  0  0  0  0  0  0  0  0
   32.4580   24.3730   46.3460 C   0  0  0  0  0  0  0  0  0  0  0  0
   33.7580   24.8280   46.4920 C   0  0  0  0  0  0  0  0  0  0  0  0
   34.0310   25.9820   47.1860 C   0  0  0  0  0  0  0  0  0  0  0  0
   33.0200   26.7210   47.7570 C   0  0  0  0  0  0  0  0  0  0  0  0
   29.2800   27.6280   50.0270 C   0  0  0  0  0  0  0  0  0  0  0  0
   28.6010   28.6030   49.2500 C   0  0  0  0  0  0  0  0  0  0  0  0
   29.0070   28.7630   47.9220 C   0  0  0  0  0  0  0  0  0  0  0  0
   30.0330   27.9750   47.4420 N   0  0  0  0  0  0  0  0  0  0  0  0
   30.6450   27.0610   48.2250 C   0  0  0  0  0  0  0  0  0  0  0  0
   30.2620   26.9060   49.4900 N   0  0  0  0  0  0  0  0  0  0  0  0
   27.5020   29.4340   49.7940 C   0  0  0  0  0  0  0  0  0  0  0  0
   27.9210   30.6410   50.2780 F   0  0  0  0  0  0  0  0  0  0  0  0
   26.8320   28.7820   50.8140 F   0  0  0  0  0  0  0  0  0  0  0  0
   26.5700   29.6950   48.7680 F   0  0  0  0  0  0  0  0  0  0  0  0
   33.2720   27.9650   48.5090 C   0  0  0  0  0  0  0  0  0  0  0  0
   33.8030   29.0890   47.6920 C   0  0  0  0  0  0  0  0  0  0  0  0
   35.0710   29.5700   48.2390 C   0  0  0  0  0  0  0  0  0  0  0  0
   35.7510   28.9300   49.2610 C   0  0  0  0  0  0  0  0  0  0  0  0
   36.9050   29.6280   49.5490 C   0  0  0  0  0  0  0  0  0  0  0  0
   36.8890   30.6900   48.6770 N   0  0  0  0  0  0  0  0  0  0  0  0
   35.8140   30.6520   47.9100 N   0  0  0  0  0  0  0  0  0  0  0  0
   37.7770   31.7790   48.4490 C   0  0  0  0  0  0  0  0  0  0  0  0
   38.0390   32.6130   49.5210 C   0  0  0  0  0  0  0  0  0  0  0  0
   38.9230   33.5910   49.0590 C   0  0  0  0  0  0  0  0  0  0  0  0
   39.1600   33.3180   47.7430 N   0  0  0  0  0  0  0  0  0  0  0  0
   38.4760   32.2400   47.3890 N   0  0  0  0  0  0  0  0  0  0  0  0
   30.4309   24.8054   46.8352 H   0  0  0  0  0  0  0  0  0  0  0  0
   32.2243   23.4512   45.7931 H   0  0  0  0  0  0  0  0  0  0  0  0
   34.5849   24.2565   46.0453 H   0  0  0  0  0  0  0  0  0  0  0  0
   35.0729   26.3202   47.2867 H   0  0  0  0  0  0  0  0  0  0  0  0
   28.9939   27.4681   51.0770 H   0  0  0  0  0  0  0  0  0  0  0  0
   28.5178   29.5032   47.2718 H   0  0  0  0  0  0  0  0  0  0  0  0
   32.3237   28.2892   48.9624 H   0  0  0  0  0  0  0  0  0  0  0  0
   34.0480   27.7272   49.2515 H   0  0  0  0  0  0  0  0  0  0  0  0
   33.0736   29.9124   47.6928 H   0  0  0  0  0  0  0  0  0  0  0  0
   33.9729   28.7315   46.6657 H   0  0  0  0  0  0  0  0  0  0  0  0
   35.4223   28.0089   49.7645 H   0  0  0  0  0  0  0  0  0  0  0  0
   37.6664   29.3887   50.3059 H   0  0  0  0  0  0  0  0  0  0  0  0
   37.6309   32.5236   50.5386 H   0  0  0  0  0  0  0  0  0  0  0  0
   39.3465   34.4212   49.6433 H   0  0  0  0  0  0  0  0  0  0  0  0
   39.7742   33.8643   47.1224 H   0  0  0  0  0  0  0  0  0  0  0  0
  1  6  1  0
  1 11  1  0
  2  1  2  0
  3  4  2  0
  3  2  1  0
  4  5  1  0
  5  6  2  0
  6 17  1  0
  8 13  1  0
  8  7  2  0
  9  8  1  0
 10  9  2  0
 10 11  1  0
 11 12  2  0
 12  7  1  0
 13 14  1  0
 13 15  1  0
 16 13  1  0
 18 19  1  0
 18 17  1  0
 19 20  1  0
 20 21  2  0
 22 21  1  0
 23 19  2  0
 23 22  1  0
 24 22  1  0
 24 25  1  0
 26 25  2  0
 27 26  1  0
 28 27  1  0
 28 24  2  0
  2 29  1  0
  3 30  1  0
  4 31  1  0
  5 32  1  0
  7 33  1  0
  9 34  1  0
 17 35  1  0
 17 36  1  0
 18 37  1  0
 18 38  1  0
 20 39  1  0
 21 40  1  0
 25 41  1  0
 26 42  1  0
 27 43  1  0
M  END
>  <minimizedAffinity>  (1) 
-7.42590904

>  <minimizedRMSD>  (1) 
1.03126645

$$$$
