
     RDKit          3D

 32 34  0  0  1  0  0  0  0  0999 V2000
   38.3550   31.1340   47.8780 C   0  0  0  0  0  0  0  0  0  0  0  0
   38.8020   32.4770   47.9510 C   0  0  0  0  0  0  0  0  0  0  0  0
   39.6220   32.7560   46.3260 S   0  0  0  0  0  0  0  0  0  0  0  0
   39.2010   30.9590   45.8270 C   0  0  0  0  0  0  0  0  0  0  0  0
   38.6600   30.5540   46.7210 N   0  0  0  0  0  0  0  0  0  0  0  0
   38.0300   30.8480   50.3090 C   0  0  0  0  0  0  0  0  0  0  0  0
   37.6330   30.5340   49.0020 C   0  0  0  0  0  0  0  0  0  0  0  0
   36.5570   29.6600   48.8690 C   0  0  0  0  0  0  0  0  0  0  0  0
   35.9600   29.1670   49.9700 N   0  0  0  0  0  0  0  0  0  0  0  0
   36.3680   29.4910   51.2080 C   0  0  0  0  0  0  0  0  0  0  0  0
   37.4160   30.3410   51.3790 N   0  0  0  0  0  0  0  0  0  0  0  0
   39.5710   30.3690   44.4990 C   0  0  2  0  0  0  0  0  0  0  0  0
   40.2820   31.4240   43.7200 C   0  0  0  0  0  0  0  0  0  0  0  0
   38.2940   29.9380   43.7920 C   0  0  0  0  0  0  0  0  0  0  0  0
   38.6850   28.8290   42.8890 C   0  0  0  0  0  0  0  0  0  0  0  0
   39.1370   27.5960   43.1980 C   0  0  0  0  0  0  0  0  0  0  0  0
   39.4420   26.7170   42.1950 C   0  0  0  0  0  0  0  0  0  0  0  0
   39.2500   27.1970   40.8640 C   0  0  0  0  0  0  0  0  0  0  0  0
   38.6190   28.9460   41.1620 S   0  0  0  0  0  0  0  0  0  0  0  0
   38.6862   33.1866   48.7835 H   0  0  0  0  0  0  0  0  0  0  0  0
   38.8760   31.5353   50.4572 H   0  0  0  0  0  0  0  0  0  0  0  0
   36.1970   29.3741   47.8697 H   0  0  0  0  0  0  0  0  0  0  0  0
   35.8542   29.0686   52.0842 H   0  0  0  0  0  0  0  0  0  0  0  0
   40.2251   29.4913   44.6076 H   0  0  0  0  0  0  0  0  0  0  0  0
   40.7594   32.1324   44.4130 H   0  0  0  0  0  0  0  0  0  0  0  0
   41.0502   30.9568   43.0863 H   0  0  0  0  0  0  0  0  0  0  0  0
   39.5606   31.9607   43.0863 H   0  0  0  0  0  0  0  0  0  0  0  0
   37.5496   29.5913   44.5239 H   0  0  0  0  0  0  0  0  0  0  0  0
   37.8391   30.7709   43.2358 H   0  0  0  0  0  0  0  0  0  0  0  0
   39.2596   27.2992   44.2501 H   0  0  0  0  0  0  0  0  0  0  0  0
   39.8126   25.7021   42.4014 H   0  0  0  0  0  0  0  0  0  0  0  0
   39.4255   26.6785   39.9099 H   0  0  0  0  0  0  0  0  0  0  0  0
  1  2  2  0
  1  7  1  0
  3  2  1  0
  4  3  1  0
  4  5  2  0
  5  1  1  0
  6 11  2  0
  7  6  1  0
  8  7  2  0
  8  9  1  0
  9 10  2  0
 10 11  1  0
 12  4  1  0
 13 12  1  0
 14 12  1  0
 15 16  2  0
 15 14  1  0
 17 16  1  0
 18 19  1  0
 18 17  2  0
 19 15  1  0
  2 20  1  0
  6 21  1  0
  8 22  1  0
 10 23  1  0
 12 24  1  1
 13 25  1  0
 13 26  1  0
 13 27  1  0
 14 28  1  0
 14 29  1  0
 16 30  1  0
 17 31  1  0
 18 32  1  0
M  ISO  8  20  14  21  14  22  14  23  14  24   8  25   8  26   8  27   8
M  ISO  5  28   8  29   8  30  14  31  14  32  14
M  END
>  <minimizedAffinity>  (1) 
-5.14575386

>  <minimizedRMSD>  (1) 
0.943408489

$$$$
