
     RDKit          3D

 34 36  0  0  1  0  0  0  0  0999 V2000
   35.2210   29.8550   48.3120 C   0  0  0  0  0  0  0  0  0  0  0  0
   35.0060   28.8110   49.2220 C   0  0  0  0  0  0  0  0  0  0  0  0
   33.8900   28.0770   49.0510 C   0  0  0  0  0  0  0  0  0  0  0  0
   33.0580   28.3620   48.0520 C   0  0  0  0  0  0  0  0  0  0  0  0
   33.7920   29.7640   47.2020 S   0  0  0  0  0  0  0  0  0  0  0  0
   37.7260   32.3190   49.4450 C   0  0  0  0  0  0  0  0  0  0  0  0
   38.4810   32.5150   48.2410 C   0  0  0  0  0  0  0  0  0  0  0  0
   38.1220   31.8090   47.0820 C   0  0  0  0  0  0  0  0  0  0  0  0
   37.0640   30.9760   47.1910 N   0  0  0  0  0  0  0  0  0  0  0  0
   36.3680   30.7950   48.3020 C   0  0  0  0  0  0  0  0  0  0  0  0
   36.6840   31.4550   49.4290 N   0  0  0  0  0  0  0  0  0  0  0  0
   31.7760   27.7660   47.5980 C   0  0  2  0  0  0  0  0  0  0  0  0
   31.0560   28.7560   46.7290 C   0  0  0  0  0  0  0  0  0  0  0  0
   31.0160   27.2840   48.7870 C   0  0  0  0  0  0  0  0  0  0  0  0
   29.5700   27.4850   48.7460 C   0  0  0  0  0  0  0  0  0  0  0  0
   28.6160   26.8840   47.9730 C   0  0  0  0  0  0  0  0  0  0  0  0
   27.2750   27.1970   48.0660 C   0  0  0  0  0  0  0  0  0  0  0  0
   26.9130   28.1450   48.9710 N   0  0  0  0  0  0  0  0  0  0  0  0
   27.8420   28.7510   49.7450 C   0  0  0  0  0  0  0  0  0  0  0  0
   29.1620   28.4300   49.6410 N   0  0  0  0  0  0  0  0  0  0  0  0
   35.7147   28.6013   50.0367 H   0  0  0  0  0  0  0  0  0  0  0  0
   33.6668   27.2447   49.7347 H   0  0  0  0  0  0  0  0  0  0  0  0
   37.9892   32.8613   50.3651 H   0  0  0  0  0  0  0  0  0  0  0  0
   39.3324   33.2113   48.2262 H   0  0  0  0  0  0  0  0  0  0  0  0
   38.6720   31.9275   46.1368 H   0  0  0  0  0  0  0  0  0  0  0  0
   31.9276   26.8779   46.9668 H   0  0  0  0  0  0  0  0  0  0  0  0
   30.5270   29.4833   47.3624 H   0  0  0  0  0  0  0  0  0  0  0  0
   31.7831   29.2833   46.0939 H   0  0  0  0  0  0  0  0  0  0  0  0
   30.3303   28.2268   46.0939 H   0  0  0  0  0  0  0  0  0  0  0  0
   31.2032   26.2051   48.8916 H   0  0  0  0  0  0  0  0  0  0  0  0
   31.3758   27.8869   49.6338 H   0  0  0  0  0  0  0  0  0  0  0  0
   28.9300   26.1195   47.2471 H   0  0  0  0  0  0  0  0  0  0  0  0
   26.5272   26.6983   47.4318 H   0  0  0  0  0  0  0  0  0  0  0  0
   27.5267   29.5155   50.4703 H   0  0  0  0  0  0  0  0  0  0  0  0
  1  2  2  0
  3  2  1  0
  4  3  2  0
  5  4  1  0
  5  1  1  0
  7  6  2  0
  8  9  2  0
  8  7  1  0
  9 10  1  0
 10  1  1  0
 10 11  2  0
 11  6  1  0
 12  4  1  0
 12 14  1  0
 13 12  1  0
 15 14  1  0
 15 20  2  0
 16 17  2  0
 16 15  1  0
 17 18  1  0
 18 19  2  0
 20 19  1  0
  2 21  1  0
  3 22  1  0
  6 23  1  0
  7 24  1  0
  8 25  1  0
 12 26  1  6
 13 27  1  0
 13 28  1  0
 13 29  1  0
 14 30  1  0
 14 31  1  0
 16 32  1  0
 17 33  1  0
 19 34  1  0
M  ISO  8  21  14  22  14  23  14  24  14  25  14  26   8  27   8  28   8
M  ISO  6  29   8  30   8  31   8  32  14  33  14  34  14
M  END
>  <minimizedAffinity>  (1) 
-5.51414537

>  <minimizedRMSD>  (1) 
1.74905455

$$$$
