
     RDKit          3D

 51 54  0  0  0  0  0  0  0  0999 V2000
   31.7060   26.2470   47.5800 C   0  0  0  0  0  0  0  0  0  0  0  0
   31.4340   25.1480   46.8400 C   0  0  0  0  0  0  0  0  0  0  0  0
   32.4010   24.3760   46.2390 C   0  0  0  0  0  0  0  0  0  0  0  0
   33.7100   24.7810   46.4290 C   0  0  0  0  0  0  0  0  0  0  0  0
   34.0090   25.8870   47.1730 C   0  0  0  0  0  0  0  0  0  0  0  0
   33.0160   26.6390   47.7600 C   0  0  0  0  0  0  0  0  0  0  0  0
   29.2970   27.5820   50.0270 C   0  0  0  0  0  0  0  0  0  0  0  0
   28.6300   28.5860   49.2770 C   0  0  0  0  0  0  0  0  0  0  0  0
   29.0370   28.7700   47.9490 C   0  0  0  0  0  0  0  0  0  0  0  0
   30.0440   27.9810   47.4470 N   0  0  0  0  0  0  0  0  0  0  0  0
   30.6440   27.0410   48.2030 C   0  0  0  0  0  0  0  0  0  0  0  0
   30.2640   26.8580   49.4660 N   0  0  0  0  0  0  0  0  0  0  0  0
   27.5470   29.4190   49.8470 C   0  0  0  0  0  0  0  0  0  0  0  0
   27.9870   30.6040   50.3640 F   0  0  0  0  0  0  0  0  0  0  0  0
   26.8590   28.7480   50.8390 F   0  0  0  0  0  0  0  0  0  0  0  0
   26.6250   29.7350   48.8270 F   0  0  0  0  0  0  0  0  0  0  0  0
   33.2940   27.8410   48.5720 C   0  0  0  0  0  0  0  0  0  0  0  0
   33.8150   29.0010   47.8030 C   0  0  0  0  0  0  0  0  0  0  0  0
   35.0910   29.4560   48.3560 C   0  0  0  0  0  0  0  0  0  0  0  0
   35.7010   28.8640   49.4460 C   0  0  0  0  0  0  0  0  0  0  0  0
   36.8830   29.5200   49.7200 C   0  0  0  0  0  0  0  0  0  0  0  0
   36.9530   30.5110   48.7680 N   0  0  0  0  0  0  0  0  0  0  0  0
   35.8980   30.4650   47.9720 N   0  0  0  0  0  0  0  0  0  0  0  0
   39.6120   33.6390   47.9710 N   0  0  0  0  0  0  0  0  0  0  0  0
   39.2880   32.7250   46.9460 C   0  0  0  0  0  0  0  0  0  0  0  0
   38.0360   31.9510   47.1020 C   0  0  0  0  0  0  0  0  0  0  0  0
   37.9810   31.5100   48.5680 C   0  0  0  0  0  0  0  0  0  0  0  0
   37.7220   32.7660   49.3390 C   0  0  0  0  0  0  0  0  0  0  0  0
   38.9020   33.6690   49.1710 C   0  0  0  0  0  0  0  0  0  0  0  0
   30.3814   24.8554   46.7117 H   0  0  0  0  0  0  0  0  0  0  0  0
   32.1479   23.4877   45.6417 H   0  0  0  0  0  0  0  0  0  0  0  0
   34.5257   24.2014   45.9723 H   0  0  0  0  0  0  0  0  0  0  0  0
   35.0605   26.1817   47.3054 H   0  0  0  0  0  0  0  0  0  0  0  0
   29.0143   27.4015   51.0746 H   0  0  0  0  0  0  0  0  0  0  0  0
   28.5582   29.5336   47.3184 H   0  0  0  0  0  0  0  0  0  0  0  0
   32.3584   28.1472   49.0628 H   0  0  0  0  0  0  0  0  0  0  0  0
   34.0835   27.5598   49.2845 H   0  0  0  0  0  0  0  0  0  0  0  0
   33.0863   29.8235   47.8519 H   0  0  0  0  0  0  0  0  0  0  0  0
   33.9717   28.6921   46.7590 H   0  0  0  0  0  0  0  0  0  0  0  0
   35.3057   28.0044   50.0070 H   0  0  0  0  0  0  0  0  0  0  0  0
   37.6063   29.3005   50.5191 H   0  0  0  0  0  0  0  0  0  0  0  0
   39.5272   34.5794   47.5594 H   0  0  0  0  0  0  0  0  0  0  0  0
   40.1157   32.0043   46.8712 H   0  0  0  0  0  0  0  0  0  0  0  0
   39.1286   33.3457   46.0520 H   0  0  0  0  0  0  0  0  0  0  0  0
   37.1668   32.5806   46.8611 H   0  0  0  0  0  0  0  0  0  0  0  0
   38.0148   31.0853   46.4237 H   0  0  0  0  0  0  0  0  0  0  0  0
   38.9126   31.0296   48.9017 H   0  0  0  0  0  0  0  0  0  0  0  0
   36.8176   33.2596   48.9538 H   0  0  0  0  0  0  0  0  0  0  0  0
   37.5696   32.5339   50.4034 H   0  0  0  0  0  0  0  0  0  0  0  0
   39.6136   33.4217   49.9726 H   0  0  0  0  0  0  0  0  0  0  0  0
   38.4663   34.6788   49.1940 H   0  0  0  0  0  0  0  0  0  0  0  0
  1  6  1  0
  1 11  1  0
  2  1  2  0
  3  4  2  0
  3  2  1  0
  4  5  1  0
  5  6  2  0
  6 17  1  0
  8 13  1  0
  8  7  2  0
  9  8  1  0
 10  9  2  0
 10 11  1  0
 11 12  2  0
 12  7  1  0
 13 14  1  0
 13 15  1  0
 16 13  1  0
 18 19  1  0
 18 17  1  0
 19 20  1  0
 20 21  2  0
 22 21  1  0
 23 19  2  0
 23 22  1  0
 24 29  1  0
 25 26  1  0
 25 24  1  0
 26 27  1  0
 27 22  1  0
 27 28  1  0
 29 28  1  0
  2 30  1  0
  3 31  1  0
  4 32  1  0
  5 33  1  0
  7 34  1  0
  9 35  1  0
 17 36  1  0
 17 37  1  0
 18 38  1  0
 18 39  1  0
 20 40  1  0
 21 41  1  0
 24 42  1  0
 25 43  1  0
 25 44  1  0
 26 45  1  0
 26 46  1  0
 27 47  1  0
 28 48  1  0
 28 49  1  0
 29 50  1  0
 29 51  1  0
M  END
>  <minimizedAffinity>  (1) 
-7.28170681

>  <minimizedRMSD>  (1) 
1.12221134

$$$$
