
     RDKit          3D

 28 30  0  0  0  0  0  0  0  0999 V2000
   37.5610   30.3450   49.1630 C   0  0  0  0  0  0  0  0  0  0  0  0
   37.8090   31.4470   50.0140 C   0  0  0  0  0  0  0  0  0  0  0  0
   38.5040   32.5450   49.5060 C   0  0  0  0  0  0  0  0  0  0  0  0
   38.9150   32.5040   48.2120 N   0  0  0  0  0  0  0  0  0  0  0  0
   38.6610   31.4410   47.4330 C   0  0  0  0  0  0  0  0  0  0  0  0
   37.9990   30.3730   47.8830 N   0  0  0  0  0  0  0  0  0  0  0  0
   39.1320   31.4920   46.0900 N   0  0  0  0  0  0  0  0  0  0  0  0
   40.4090   31.0930   45.8220 C   0  0  0  0  0  0  0  0  0  0  0  0
   40.6630   31.2150   44.5060 N   0  0  0  0  0  0  0  0  0  0  0  0
   39.5740   31.6870   43.9120 C   0  0  0  0  0  0  0  0  0  0  0  0
   39.1780   32.0290   42.6270 C   0  0  0  0  0  0  0  0  0  0  0  0
   40.0580   31.8690   41.7270 O   0  0  0  0  0  0  0  0  0  0  0  0
   37.9330   32.4940   42.4200 N   0  0  0  0  0  0  0  0  0  0  0  0
   37.0520   32.6400   43.4160 C   0  0  0  0  0  0  0  0  0  0  0  0
   35.8000   33.1460   42.9600 N   0  0  0  0  0  0  0  0  0  0  0  0
   37.3930   32.3170   44.6930 N   0  0  0  0  0  0  0  0  0  0  0  0
   38.6420   31.8510   44.9060 C   0  0  0  0  0  0  0  0  0  0  0  0
   36.8770   29.2730   49.6700 O   0  0  0  0  0  0  0  0  0  0  0  0
   35.5830   29.3150   50.2000 C   0  0  0  0  0  0  0  0  0  0  0  0
   35.5540   29.2860   51.5790 F   0  0  0  0  0  0  0  0  0  0  0  0
   34.8180   30.3530   49.7210 F   0  0  0  0  0  0  0  0  0  0  0  0
   34.9520   28.1450   49.7650 F   0  0  0  0  0  0  0  0  0  0  0  0
   37.4604   31.4386   51.0573 H   0  0  0  0  0  0  0  0  0  0  0  0
   38.7137   33.4212   50.1371 H   0  0  0  0  0  0  0  0  0  0  0  0
   41.1255   30.7256   46.5714 H   0  0  0  0  0  0  0  0  0  0  0  0
   37.6485   32.7461   41.4627 H   0  0  0  0  0  0  0  0  0  0  0  0
   35.0337   33.3043   43.6298 H   0  0  0  0  0  0  0  0  0  0  0  0
   35.6615   33.3533   41.9606 H   0  0  0  0  0  0  0  0  0  0  0  0
  1 18  1  0
  1  2  2  0
  3  2  1  0
  4  3  2  0
  5  6  2  0
  5  4  1  0
  6  1  1  0
  7  5  1  0
  8  7  1  0
  9  8  2  0
 10  9  1  0
 10 17  2  0
 11 10  1  0
 12 11  2  0
 13 11  1  0
 13 14  1  0
 14 16  2  0
 15 14  1  0
 16 17  1  0
 17  7  1  0
 18 19  1  0
 19 20  1  0
 21 19  1  0
 22 19  1  0
  2 23  1  0
  3 24  1  0
  8 25  1  0
 13 26  1  0
 15 27  1  0
 15 28  1  0
M  ISO  4  23  14  24  14  25  14  26   9
M  END
>  <minimizedAffinity>  (1) 
-7.21832895

>  <minimizedRMSD>  (1) 
1.53095865

$$$$
