
     RDKit          3D

 40 44  0  0  0  0  0  0  0  0999 V2000
   33.6070   26.7700   47.7030 C   0  0  0  0  0  0  0  0  0  0  0  0
   32.6850   27.3480   46.8450 C   0  0  0  0  0  0  0  0  0  0  0  0
   32.7130   28.7260   46.7860 C   0  0  0  0  0  0  0  0  0  0  0  0
   33.6080   29.3780   47.5430 N   0  0  0  0  0  0  0  0  0  0  0  0
   34.4870   28.8530   48.3600 C   0  0  0  0  0  0  0  0  0  0  0  0
   34.4460   27.5170   48.4050 N   0  0  0  0  0  0  0  0  0  0  0  0
   35.4960   29.4040   49.2260 C   0  0  0  0  0  0  0  0  0  0  0  0
   35.5630   29.1470   50.6070 C   0  0  0  0  0  0  0  0  0  0  0  0
   36.5160   29.6620   51.4480 C   0  0  0  0  0  0  0  0  0  0  0  0
   37.4830   30.4840   50.9560 C   0  0  0  0  0  0  0  0  0  0  0  0
   37.4880   30.7870   49.6090 C   0  0  0  0  0  0  0  0  0  0  0  0
   38.4820   31.6190   49.1620 C   0  0  0  0  0  0  0  0  0  0  0  0
   38.5440   31.9560   47.8450 C   0  0  0  0  0  0  0  0  0  0  0  0
   37.5800   31.4340   47.0020 C   0  0  0  0  0  0  0  0  0  0  0  0
   36.6080   30.6050   47.5050 C   0  0  0  0  0  0  0  0  0  0  0  0
   36.5130   30.2460   48.8070 C   0  0  0  0  0  0  0  0  0  0  0  0
   31.8600   29.5350   45.9750 N   0  0  0  0  0  0  0  0  0  0  0  0
   32.2930   30.2900   44.9410 C   0  0  0  0  0  0  0  0  0  0  0  0
   31.2500   30.9370   44.3750 N   0  0  0  0  0  0  0  0  0  0  0  0
   30.1420   30.5930   45.0500 C   0  0  0  0  0  0  0  0  0  0  0  0
   28.7890   30.9100   44.9610 C   0  0  0  0  0  0  0  0  0  0  0  0
   28.4160   31.7080   44.0570 O   0  0  0  0  0  0  0  0  0  0  0  0
   27.9380   30.3490   45.8490 N   0  0  0  0  0  0  0  0  0  0  0  0
   28.3360   29.4990   46.8130 C   0  0  0  0  0  0  0  0  0  0  0  0
   27.2900   29.0170   47.6470 N   0  0  0  0  0  0  0  0  0  0  0  0
   29.6470   29.1460   46.9560 N   0  0  0  0  0  0  0  0  0  0  0  0
   30.5090   29.7110   46.0610 C   0  0  0  0  0  0  0  0  0  0  0  0
   33.6427   25.6751   47.8026 H   0  0  0  0  0  0  0  0  0  0  0  0
   31.9789   26.7488   46.2514 H   0  0  0  0  0  0  0  0  0  0  0  0
   34.7982   28.4873   51.0427 H   0  0  0  0  0  0  0  0  0  0  0  0
   36.4990   29.4111   52.5189 H   0  0  0  0  0  0  0  0  0  0  0  0
   38.2511   30.9018   51.6234 H   0  0  0  0  0  0  0  0  0  0  0  0
   39.2284   32.0136   49.8671 H   0  0  0  0  0  0  0  0  0  0  0  0
   39.3335   32.6206   47.4642 H   0  0  0  0  0  0  0  0  0  0  0  0
   37.5919   31.6825   45.9305 H   0  0  0  0  0  0  0  0  0  0  0  0
   35.8583   30.2070   46.8053 H   0  0  0  0  0  0  0  0  0  0  0  0
   33.3390   30.3666   44.6093 H   0  0  0  0  0  0  0  0  0  0  0  0
   26.9371   30.5835   45.7845 H   0  0  0  0  0  0  0  0  0  0  0  0
   27.5023   28.3611   48.4123 H   0  0  0  0  0  0  0  0  0  0  0  0
   26.3200   29.3237   47.4858 H   0  0  0  0  0  0  0  0  0  0  0  0
  1  6  2  0
  2  1  1  0
  3  2  2  0
  3  4  1  0
  4  5  2  0
  5  6  1  0
  5  7  1  0
  7  8  2  0
  8  9  1  0
 10  9  2  0
 11 10  1  0
 12 11  2  0
 13 12  1  0
 14 15  1  0
 14 13  2  0
 15 16  2  0
 16  7  1  0
 16 11  1  0
 17 27  1  0
 17  3  1  0
 18 17  1  0
 19 18  2  0
 19 20  1  0
 20 27  2  0
 21 20  1  0
 21 23  1  0
 22 21  2  0
 23 24  1  0
 24 26  2  0
 24 25  1  0
 27 26  1  0
  1 28  1  0
  2 29  1  0
  8 30  1  0
  9 31  1  0
 10 32  1  0
 12 33  1  0
 13 34  1  0
 14 35  1  0
 15 36  1  0
 18 37  1  0
 23 38  1  0
 25 39  1  0
 25 40  1  0
M  END
>  <minimizedAffinity>  (1) 
-7.6261754

>  <minimizedRMSD>  (1) 
1.15273106

$$$$
