
     RDKit          3D

 44 47  0  0  1  0  0  0  0  0999 V2000
   34.7240   29.6890   44.9830 C   0  0  0  0  0  0  0  0  0  0  0  0
   35.8550   29.2370   44.6610 O   0  0  0  0  0  0  0  0  0  0  0  0
   34.2120   30.6870   44.1030 N   0  0  0  0  0  0  0  0  0  0  0  0
   32.8230   30.5350   43.7370 C   0  0  0  0  0  0  0  0  0  0  0  0
   32.4750   31.3700   42.5110 C   0  0  0  0  0  0  0  0  0  0  0  0
   33.6090   31.3740   41.6960 O   0  0  0  0  0  0  0  0  0  0  0  0
   34.5020   32.2870   42.2800 C   0  0  0  0  0  0  0  0  0  0  0  0
   35.0070   31.7880   43.5950 C   0  0  2  0  0  0  0  0  0  0  0  0
   34.0760   28.5390   48.5140 C   0  0  0  0  0  0  0  0  0  0  0  0
   34.7710   29.0430   47.3650 C   0  0  0  0  0  0  0  0  0  0  0  0
   34.0580   29.1820   46.1730 C   0  0  0  0  0  0  0  0  0  0  0  0
   32.7440   28.8270   46.1870 N   0  0  0  0  0  0  0  0  0  0  0  0
   32.1370   28.3620   47.2800 C   0  0  0  0  0  0  0  0  0  0  0  0
   32.7920   28.2210   48.4210 N   0  0  0  0  0  0  0  0  0  0  0  0
   30.6880   28.0250   47.0980 C   0  0  0  0  0  0  0  0  0  0  0  0
   29.9190   29.1880   47.0720 F   0  0  0  0  0  0  0  0  0  0  0  0
   30.4990   27.4370   45.8660 F   0  0  0  0  0  0  0  0  0  0  0  0
   30.2220   27.1290   48.0470 F   0  0  0  0  0  0  0  0  0  0  0  0
   34.8020   28.4070   49.6930 O   0  0  0  0  0  0  0  0  0  0  0  0
   35.6020   29.3980   50.2420 C   0  0  0  0  0  0  0  0  0  0  0  0
   36.9410   29.2720   49.9180 F   0  0  0  0  0  0  0  0  0  0  0  0
   35.1660   30.6830   50.0130 F   0  0  0  0  0  0  0  0  0  0  0  0
   35.4990   29.2060   51.6400 F   0  0  0  0  0  0  0  0  0  0  0  0
   36.2750   31.2140   43.3240 O   0  0  0  0  0  0  0  0  0  0  0  0
   39.4560   32.9290   46.2020 N   0  0  0  0  0  0  0  0  0  0  0  0
   38.5000   32.2490   46.8850 C   0  0  0  0  0  0  0  0  0  0  0  0
   37.6050   31.7750   45.9940 N   0  0  0  0  0  0  0  0  0  0  0  0
   37.9640   32.1370   44.7310 C   0  0  0  0  0  0  0  0  0  0  0  0
   37.4530   31.9440   43.4860 C   0  0  0  0  0  0  0  0  0  0  0  0
   38.0420   32.4360   42.3750 N   0  0  0  0  0  0  0  0  0  0  0  0
   39.1880   33.1460   42.5470 C   0  0  0  0  0  0  0  0  0  0  0  0
   39.7330   33.3620   43.7750 N   0  0  0  0  0  0  0  0  0  0  0  0
   39.1390   32.8680   44.8810 C   0  0  0  0  0  0  0  0  0  0  0  0
   32.6252   29.4757   43.5161 H   0  0  0  0  0  0  0  0  0  0  0  0
   32.2042   30.8813   44.5779 H   0  0  0  0  0  0  0  0  0  0  0  0
   31.6246   30.9224   41.9758 H   0  0  0  0  0  0  0  0  0  0  0  0
   32.1878   32.3928   42.7962 H   0  0  0  0  0  0  0  0  0  0  0  0
   35.3553   32.4370   41.6022 H   0  0  0  0  0  0  0  0  0  0  0  0
   33.9684   33.2338   42.4499 H   0  0  0  0  0  0  0  0  0  0  0  0
   34.9990   32.6187   44.3161 H   0  0  0  0  0  0  0  0  0  0  0  0
   35.8360   29.3124   47.4215 H   0  0  0  0  0  0  0  0  0  0  0  0
   40.2732   33.4048   46.6103 H   0  0  0  0  0  0  0  0  0  0  0  0
   38.4618   32.1089   47.9754 H   0  0  0  0  0  0  0  0  0  0  0  0
   39.6929   33.5608   41.6621 H   0  0  0  0  0  0  0  0  0  0  0  0
  1 11  1  0
  2  1  2  0
  3  1  1  0
  4  3  1  0
  5  4  1  0
  6  7  1  0
  6  5  1  0
  7  8  1  0
  8  3  1  0
  9 19  1  0
 10  9  2  0
 11 12  2  0
 11 10  1  0
 12 13  1  0
 13 14  2  0
 14  9  1  0
 15 13  1  0
 15 18  1  0
 16 15  1  0
 17 15  1  0
 19 20  1  0
 20 23  1  0
 21 20  1  0
 22 20  1  0
 24 29  1  0
 24  8  1  0
 25 26  1  0
 27 26  2  0
 28 33  2  0
 28 27  1  0
 29 28  1  0
 30 31  1  0
 30 29  2  0
 31 32  2  0
 32 33  1  0
 33 25  1  0
  4 34  1  0
  4 35  1  0
  5 36  1  0
  5 37  1  0
  7 38  1  0
  7 39  1  0
  8 40  1  1
 10 41  1  0
 25 42  1  0
 26 43  1  0
 31 44  1  0
M  ISO  8  34  13  35  13  36  13  37  13  38  13  39  13  40  13  41  14
M  ISO  3  42   9  43  14  44  14
M  END
>  <minimizedAffinity>  (1) 
-5.82745409

>  <minimizedRMSD>  (1) 
4.70061731

$$$$
