
     RDKit          3D

 47 52  0  0  1  0  0  0  0  0999 V2000
   33.8440   29.7550   47.3480 C   0  0  0  0  0  0  0  0  0  0  0  0
   34.7260   29.3980   48.3510 C   0  0  0  0  0  0  0  0  0  0  0  0
   34.3510   28.2240   49.0790 C   0  0  0  0  0  0  0  0  0  0  0  0
   33.2070   27.5590   48.7590 N   0  0  0  0  0  0  0  0  0  0  0  0
   32.4060   27.9740   47.7680 C   0  0  0  0  0  0  0  0  0  0  0  0
   32.7340   29.0600   47.0810 N   0  0  0  0  0  0  0  0  0  0  0  0
   35.9600   30.0220   48.7830 C   0  0  0  0  0  0  0  0  0  0  0  0
   36.1120   29.9490   50.1440 C   0  0  0  0  0  0  0  0  0  0  0  0
   37.2330   30.4880   50.7780 C   0  0  0  0  0  0  0  0  0  0  0  0
   38.2110   31.1100   50.0120 C   0  0  0  0  0  0  0  0  0  0  0  0
   38.0430   31.1750   48.6390 C   0  0  0  0  0  0  0  0  0  0  0  0
   38.9650   31.7770   47.7820 C   0  0  0  0  0  0  0  0  0  0  0  0
   38.7350   31.8080   46.4200 C   0  0  0  0  0  0  0  0  0  0  0  0
   37.6120   31.2590   45.8670 C   0  0  0  0  0  0  0  0  0  0  0  0
   36.6860   30.6560   46.7080 C   0  0  0  0  0  0  0  0  0  0  0  0
   36.9350   30.6380   48.0450 C   0  0  0  0  0  0  0  0  0  0  0  0
   31.1710   27.1950   47.4750 C   0  0  1  0  0  0  0  0  0  0  0  0
   30.4970   27.4110   46.1560 C   0  0  0  0  0  0  0  0  0  0  0  0
   31.2090   26.1200   46.4330 C   0  0  1  0  0  0  0  0  0  0  0  0
   32.5190   25.8440   45.9210 N   0  0  0  0  0  0  0  0  0  0  0  0
   33.2490   26.4120   44.9480 C   0  0  0  0  0  0  0  0  0  0  0  0
   34.4470   25.7650   44.8550 N   0  0  0  0  0  0  0  0  0  0  0  0
   34.4530   24.7860   45.7840 C   0  0  0  0  0  0  0  0  0  0  0  0
   35.4140   23.8330   46.1230 C   0  0  0  0  0  0  0  0  0  0  0  0
   36.5100   23.7490   45.5540 O   0  0  0  0  0  0  0  0  0  0  0  0
   35.1550   22.9550   47.1110 N   0  0  0  0  0  0  0  0  0  0  0  0
   33.9810   23.0000   47.7640 C   0  0  0  0  0  0  0  0  0  0  0  0
   33.6310   22.1030   48.8250 N   0  0  0  0  0  0  0  0  0  0  0  0
   33.0520   23.9200   47.4370 N   0  0  0  0  0  0  0  0  0  0  0  0
   33.2610   24.8320   46.4460 C   0  0  0  0  0  0  0  0  0  0  0  0
   34.0649   30.6479   46.7448 H   0  0  0  0  0  0  0  0  0  0  0  0
   34.9880   27.8587   49.8980 H   0  0  0  0  0  0  0  0  0  0  0  0
   35.3357   29.4563   50.7478 H   0  0  0  0  0  0  0  0  0  0  0  0
   37.3406   30.4210   51.8707 H   0  0  0  0  0  0  0  0  0  0  0  0
   39.1031   31.5432   50.4878 H   0  0  0  0  0  0  0  0  0  0  0  0
   39.8797   32.2292   48.1929 H   0  0  0  0  0  0  0  0  0  0  0  0
   39.4756   32.2874   45.7630 H   0  0  0  0  0  0  0  0  0  0  0  0
   37.4455   31.2941   44.7802 H   0  0  0  0  0  0  0  0  0  0  0  0
   35.7701   30.2023   46.3013 H   0  0  0  0  0  0  0  0  0  0  0  0
   30.8619   27.2336   48.5300 H   0  0  0  0  0  0  0  0  0  0  0  0
   30.9171   28.1270   45.4343 H   0  0  0  0  0  0  0  0  0  0  0  0
   29.4808   27.6863   45.8374 H   0  0  0  0  0  0  0  0  0  0  0  0
   30.8959   25.0719   46.3166 H   0  0  0  0  0  0  0  0  0  0  0  0
   32.9325   27.2621   44.3258 H   0  0  0  0  0  0  0  0  0  0  0  0
   35.8583   22.2473   47.3668 H   0  0  0  0  0  0  0  0  0  0  0  0
   32.7150   22.1862   49.2887 H   0  0  0  0  0  0  0  0  0  0  0  0
   34.2953   21.3749   49.1241 H   0  0  0  0  0  0  0  0  0  0  0  0
  1  2  2  0
  2  7  1  0
  2  3  1  0
  4  3  2  0
  5  4  1  0
  6  1  1  0
  6  5  2  0
  7  8  2  0
  8  9  1  0
 10  9  2  0
 11 10  1  0
 12 11  2  0
 13 12  1  0
 14 13  2  0
 14 15  1  0
 15 16  2  0
 16 11  1  0
 16  7  1  0
 17  5  1  0
 18 19  1  0
 18 17  1  0
 19 17  1  0
 20 19  1  0
 20 30  1  0
 21 20  1  0
 22 21  2  0
 22 23  1  0
 23 24  1  0
 23 30  2  0
 24 26  1  0
 25 24  2  0
 26 27  1  0
 27 28  1  0
 29 27  2  0
 30 29  1  0
  1 31  1  0
  3 32  1  0
  8 33  1  0
  9 34  1  0
 10 35  1  0
 12 36  1  0
 13 37  1  0
 14 38  1  0
 15 39  1  0
 17 40  1  1
 18 41  1  0
 18 42  1  0
 19 43  1  1
 21 44  1  0
 26 45  1  0
 28 46  1  0
 28 47  1  0
M  ISO  8  31  14  32  14  33  14  34  14  35  14  36  14  37  14  38  14
M  ISO  7  39  14  40  13  41  13  42  13  43  13  44  14  45   9
M  END
>  <minimizedAffinity>  (1) 
-6.88769197

>  <minimizedRMSD>  (1) 
3.12577128

$$$$
