
     RDKit          3D

 52 55  0  0  0  0  0  0  0  0999 V2000
   31.6080   26.1670   47.9250 C   0  0  0  0  0  0  0  0  0  0  0  0
   31.7380   24.8440   47.6930 C   0  0  0  0  0  0  0  0  0  0  0  0
   32.9100   24.2670   47.2330 C   0  0  0  0  0  0  0  0  0  0  0  0
   33.9640   25.1190   47.0150 C   0  0  0  0  0  0  0  0  0  0  0  0
   33.8540   26.4690   47.2430 C   0  0  0  0  0  0  0  0  0  0  0  0
   32.6740   27.0120   47.7010 C   0  0  0  0  0  0  0  0  0  0  0  0
   28.9940   27.5290   50.1380 C   0  0  0  0  0  0  0  0  0  0  0  0
   27.9450   27.8150   49.2230 C   0  0  0  0  0  0  0  0  0  0  0  0
   28.1780   27.5290   47.8740 C   0  0  0  0  0  0  0  0  0  0  0  0
   29.3920   26.9920   47.5040 N   0  0  0  0  0  0  0  0  0  0  0  0
   30.3540   26.7400   48.4110 C   0  0  0  0  0  0  0  0  0  0  0  0
   30.1320   27.0130   49.6960 N   0  0  0  0  0  0  0  0  0  0  0  0
   26.6500   28.3910   49.6510 C   0  0  0  0  0  0  0  0  0  0  0  0
   26.6320   29.7580   49.6320 F   0  0  0  0  0  0  0  0  0  0  0  0
   26.3150   27.9860   50.9340 F   0  0  0  0  0  0  0  0  0  0  0  0
   25.6380   27.9420   48.7820 F   0  0  0  0  0  0  0  0  0  0  0  0
   32.5060   28.4570   47.9600 C   0  0  0  0  0  0  0  0  0  0  0  0
   33.4790   29.3320   47.2570 C   0  0  0  0  0  0  0  0  0  0  0  0
   34.6030   29.6580   48.1350 C   0  0  0  0  0  0  0  0  0  0  0  0
   34.4860   29.8470   49.4990 C   0  0  0  0  0  0  0  0  0  0  0  0
   35.7280   30.1410   50.0230 C   0  0  0  0  0  0  0  0  0  0  0  0
   36.5720   30.1200   48.9380 N   0  0  0  0  0  0  0  0  0  0  0  0
   35.9060   29.8360   47.8310 N   0  0  0  0  0  0  0  0  0  0  0  0
   37.9990   30.3790   49.0180 C   0  0  0  0  0  0  0  0  0  0  0  0
   38.5090   30.8550   47.7000 C   0  0  0  0  0  0  0  0  0  0  0  0
   38.2340   32.2950   47.4050 C   0  0  0  0  0  0  0  0  0  0  0  0
   38.5490   33.2250   48.5320 C   0  0  0  0  0  0  0  0  0  0  0  0
   37.8950   32.7490   49.7910 C   0  0  0  0  0  0  0  0  0  0  0  0
   38.3450   31.3400   50.1170 C   0  0  0  0  0  0  0  0  0  0  0  0
   30.8713   24.1924   47.8782 H   0  0  0  0  0  0  0  0  0  0  0  0
   32.9918   23.1850   47.0522 H   0  0  0  0  0  0  0  0  0  0  0  0
   34.9181   24.7114   46.6495 H   0  0  0  0  0  0  0  0  0  0  0  0
   34.7181   27.1239   47.0577 H   0  0  0  0  0  0  0  0  0  0  0  0
   28.8619   27.7353   51.2104 H   0  0  0  0  0  0  0  0  0  0  0  0
   27.4034   27.7298   47.1192 H   0  0  0  0  0  0  0  0  0  0  0  0
   31.4934   28.7464   47.6422 H   0  0  0  0  0  0  0  0  0  0  0  0
   32.6803   28.6015   49.0364 H   0  0  0  0  0  0  0  0  0  0  0  0
   33.8560   28.8104   46.3649 H   0  0  0  0  0  0  0  0  0  0  0  0
   32.9731   30.2644   46.9659 H   0  0  0  0  0  0  0  0  0  0  0  0
   33.5517   29.7746   50.0750 H   0  0  0  0  0  0  0  0  0  0  0  0
   35.9851   30.3461   51.0727 H   0  0  0  0  0  0  0  0  0  0  0  0
   38.4965   29.4305   49.2686 H   0  0  0  0  0  0  0  0  0  0  0  0
   39.5983   30.7033   47.6794 H   0  0  0  0  0  0  0  0  0  0  0  0
   37.9757   30.2741   46.9331 H   0  0  0  0  0  0  0  0  0  0  0  0
   38.8394   32.5902   46.5353 H   0  0  0  0  0  0  0  0  0  0  0  0
   37.1526   32.3779   47.2212 H   0  0  0  0  0  0  0  0  0  0  0  0
   39.6384   33.2616   48.6796 H   0  0  0  0  0  0  0  0  0  0  0  0
   38.1700   34.2282   48.2870 H   0  0  0  0  0  0  0  0  0  0  0  0
   38.1710   33.4187   50.6188 H   0  0  0  0  0  0  0  0  0  0  0  0
   36.8040   32.7527   49.6509 H   0  0  0  0  0  0  0  0  0  0  0  0
   37.8516   31.0137   51.0444 H   0  0  0  0  0  0  0  0  0  0  0  0
   39.4387   31.3477   50.2342 H   0  0  0  0  0  0  0  0  0  0  0  0
  1 11  1  0
  2  1  2  0
  3  2  1  0
  4  3  2  0
  4  5  1  0
  5  6  2  0
  6  1  1  0
  6 17  1  0
  8 13  1  0
  8  7  2  0
  9  8  1  0
 10  9  2  0
 10 11  1  0
 11 12  2  0
 12  7  1  0
 13 15  1  0
 14 13  1  0
 16 13  1  0
 18 17  1  0
 18 19  1  0
 19 20  1  0
 20 21  2  0
 22 24  1  0
 22 21  1  0
 23 19  2  0
 23 22  1  0
 24 29  1  0
 25 24  1  0
 26 25  1  0
 26 27  1  0
 27 28  1  0
 28 29  1  0
  2 30  1  0
  3 31  1  0
  4 32  1  0
  5 33  1  0
  7 34  1  0
  9 35  1  0
 17 36  1  0
 17 37  1  0
 18 38  1  0
 18 39  1  0
 20 40  1  0
 21 41  1  0
 24 42  1  0
 25 43  1  0
 25 44  1  0
 26 45  1  0
 26 46  1  0
 27 47  1  0
 27 48  1  0
 28 49  1  0
 28 50  1  0
 29 51  1  0
 29 52  1  0
M  ISO  8  30  14  31  14  32  14  33  14  34  14  35  14  36   8  37   8
M  ISO  8  38   8  39   8  40  14  41  14  42  13  43  13  44  13  45  13
M  ISO  7  46  13  47  13  48  13  49  13  50  13  51  13  52  13
M  END
>  <minimizedAffinity>  (1) 
-7.06145668

>  <minimizedRMSD>  (1) 
1.74995589

$$$$
