
     RDKit          3D

 35 38  0  0  1  0  0  0  0  0999 V2000
   38.5960   32.2000   48.0160 C   0  0  1  0  0  0  0  0  0  0  0  0
   37.9260   31.2700   48.9250 C   0  0  0  0  0  0  0  0  0  0  0  0
   38.4190   31.1040   50.1520 N   0  0  0  0  0  0  0  0  0  0  0  0
   37.8700   30.2570   51.0600 C   0  0  0  0  0  0  0  0  0  0  0  0
   36.7920   29.5250   50.7870 N   0  0  0  0  0  0  0  0  0  0  0  0
   36.2190   29.6200   49.5810 C   0  0  0  0  0  0  0  0  0  0  0  0
   35.1040   28.8750   49.2500 C   0  0  0  0  0  0  0  0  0  0  0  0
   34.5150   28.9570   48.0230 C   0  0  0  0  0  0  0  0  0  0  0  0
   35.0900   29.8270   47.1270 C   0  0  0  0  0  0  0  0  0  0  0  0
   36.1990   30.5580   47.4760 C   0  0  0  0  0  0  0  0  0  0  0  0
   36.8080   30.4920   48.6950 C   0  0  0  0  0  0  0  0  0  0  0  0
   39.0910   32.0790   46.6740 C   0  0  0  0  0  0  0  0  0  0  0  0
   39.7940   33.2370   46.2980 C   0  0  0  0  0  0  0  0  0  0  0  0
   40.4950   33.2690   45.0430 C   0  0  0  0  0  0  0  0  0  0  0  0
   40.4120   32.1370   44.3050 N   0  0  0  0  0  0  0  0  0  0  0  0
   39.7180   31.0360   44.7020 C   0  0  0  0  0  0  0  0  0  0  0  0
   39.0760   31.0070   45.8530 N   0  0  0  0  0  0  0  0  0  0  0  0
   39.6730   29.8750   43.8650 N   0  0  0  0  0  0  0  0  0  0  0  0
   40.6500   29.9170   42.9450 N   0  0  0  0  0  0  0  0  0  0  0  0
   40.5770   28.8040   42.1710 C   0  0  0  0  0  0  0  0  0  0  0  0
   39.4980   28.0680   42.6650 C   0  0  0  0  0  0  0  0  0  0  0  0
   38.9410   28.7660   43.7370 C   0  0  0  0  0  0  0  0  0  0  0  0
   38.2500   33.3860   48.5130 O   0  0  0  0  0  0  0  0  0  0  0  0
   39.5859   31.7472   47.8575 H   0  0  0  0  0  0  0  0  0  0  0  0
   38.3315   30.1727   52.0549 H   0  0  0  0  0  0  0  0  0  0  0  0
   34.6774   28.1934   50.0006 H   0  0  0  0  0  0  0  0  0  0  0  0
   33.6283   28.3598   47.7641 H   0  0  0  0  0  0  0  0  0  0  0  0
   34.6579   29.9385   46.1216 H   0  0  0  0  0  0  0  0  0  0  0  0
   36.6233   31.2403   46.7247 H   0  0  0  0  0  0  0  0  0  0  0  0
   39.8077   34.1147   46.9610 H   0  0  0  0  0  0  0  0  0  0  0  0
   41.0591   34.1512   44.7062 H   0  0  0  0  0  0  0  0  0  0  0  0
   41.2324   28.5371   41.3288 H   0  0  0  0  0  0  0  0  0  0  0  0
   39.1466   27.1014   42.2749 H   0  0  0  0  0  0  0  0  0  0  0  0
   38.0782   28.4651   44.3493 H   0  0  0  0  0  0  0  0  0  0  0  0
   38.2618   33.3455   49.5021 H   0  0  0  0  0  0  0  0  0  0  0  0
  1 23  1  0
  1  2  1  0
  2  3  2  0
  3  4  1  0
  5  4  2  0
  6  5  1  0
  7  6  2  0
  8  7  1  0
  9 10  1  0
  9  8  2  0
 10 11  2  0
 11  2  1  0
 11  6  1  0
 12  1  1  0
 13 12  2  0
 14 13  1  0
 15 16  1  0
 15 14  2  0
 16 17  2  0
 17 12  1  0
 18 16  1  0
 19 18  1  0
 20 21  1  0
 20 19  2  0
 21 22  2  0
 22 18  1  0
  1 24  1  1
  4 25  1  0
  7 26  1  0
  8 27  1  0
  9 28  1  0
 10 29  1  0
 13 30  1  0
 14 31  1  0
 20 32  1  0
 21 33  1  0
 22 34  1  0
 23 35  1  0
M  END
>  <minimizedAffinity>  (1) 
-7.44211626

>  <minimizedRMSD>  (1) 
0.673546851

$$$$
