
     RDKit          3D

 35 37  0  0  0  0  0  0  0  0999 V2000
   33.6710   28.4890   48.0950 C   0  0  0  0  0  0  0  0  0  0  0  0
   34.9470   28.8660   48.6480 C   0  0  0  0  0  0  0  0  0  0  0  0
   35.7660   29.7040   47.8950 C   0  0  0  0  0  0  0  0  0  0  0  0
   35.2910   30.1010   46.6910 N   0  0  0  0  0  0  0  0  0  0  0  0
   34.1090   29.7380   46.2040 C   0  0  0  0  0  0  0  0  0  0  0  0
   33.3150   28.9480   46.8910 N   0  0  0  0  0  0  0  0  0  0  0  0
   33.7840   30.2870   44.8660 C   0  0  0  0  0  0  0  0  0  0  0  0
   32.8180   31.3020   44.9700 F   0  0  0  0  0  0  0  0  0  0  0  0
   34.8780   30.8830   44.3110 F   0  0  0  0  0  0  0  0  0  0  0  0
   33.3410   29.2980   43.9800 F   0  0  0  0  0  0  0  0  0  0  0  0
   37.0770   30.1170   48.4210 C   0  0  0  0  0  0  0  0  0  0  0  0
   37.3390   29.7990   49.6230 O   0  0  0  0  0  0  0  0  0  0  0  0
   37.9760   30.8550   47.5420 C   0  0  0  0  0  0  0  0  0  0  0  0
   38.3070   30.4150   46.2730 C   0  0  0  0  0  0  0  0  0  0  0  0
   39.1570   31.0670   45.4080 C   0  0  0  0  0  0  0  0  0  0  0  0
   39.7400   32.2600   45.8240 C   0  0  0  0  0  0  0  0  0  0  0  0
   39.4540   32.7550   47.0800 C   0  0  0  0  0  0  0  0  0  0  0  0
   40.0230   33.9390   47.5050 C   0  0  0  0  0  0  0  0  0  0  0  0
   39.7640   34.4690   48.7440 C   0  0  0  0  0  0  0  0  0  0  0  0
   38.9010   33.7750   49.5760 C   0  0  0  0  0  0  0  0  0  0  0  0
   38.3480   32.5970   49.1220 C   0  0  0  0  0  0  0  0  0  0  0  0
   38.5910   32.0410   47.8840 C   0  0  0  0  0  0  0  0  0  0  0  0
   32.8630   27.6580   48.8460 O   0  0  0  0  0  0  0  0  0  0  0  0
   31.4800   27.7000   48.8600 C   0  0  0  0  0  0  0  0  0  0  0  0
   30.9420   28.2260   50.0250 F   0  0  0  0  0  0  0  0  0  0  0  0
   30.9160   28.3240   47.7750 F   0  0  0  0  0  0  0  0  0  0  0  0
   31.0770   26.3510   48.8160 F   0  0  0  0  0  0  0  0  0  0  0  0
   35.2651   28.5025   49.6363 H   0  0  0  0  0  0  0  0  0  0  0  0
   37.8568   29.4723   45.9287 H   0  0  0  0  0  0  0  0  0  0  0  0
   39.3703   30.6542   44.4109 H   0  0  0  0  0  0  0  0  0  0  0  0
   40.4240   32.8046   45.1565 H   0  0  0  0  0  0  0  0  0  0  0  0
   40.7057   34.4745   46.8289 H   0  0  0  0  0  0  0  0  0  0  0  0
   40.2264   35.4138   49.0658 H   0  0  0  0  0  0  0  0  0  0  0  0
   38.6617   34.1566   50.5795 H   0  0  0  0  0  0  0  0  0  0  0  0
   37.6632   32.0617   49.7962 H   0  0  0  0  0  0  0  0  0  0  0  0
  1  2  2  0
  1 23  1  0
  3 11  1  0
  3  2  1  0
  4  3  2  0
  5  4  1  0
  5  6  2  0
  6  1  1  0
  7  8  1  0
  7  5  1  0
  9  7  1  0
 10  7  1  0
 11 12  2  0
 13 22  1  0
 13 11  1  0
 14 13  2  0
 15 16  2  0
 15 14  1  0
 16 17  1  0
 17 18  1  0
 17 22  2  0
 18 19  2  0
 19 20  1  0
 21 20  2  0
 22 21  1  0
 23 24  1  0
 24 25  1  0
 26 24  1  0
 27 24  1  0
  2 28  1  0
 14 29  1  0
 15 30  1  0
 16 31  1  0
 18 32  1  0
 19 33  1  0
 20 34  1  0
 21 35  1  0
M  ISO  8  28  14  29  14  30  14  31  14  32  14  33  14  34  14  35  14
M  END
>  <minimizedAffinity>  (1) 
-6.58395338

>  <minimizedRMSD>  (1) 
4.76469755

$$$$
