
     RDKit          3D

 22 23  0  0  0  0  0  0  0  0999 V2000
   38.2500   32.7200   48.4700 C   0  0  0  0  0  0  0  0  0  0  0  0
   39.8720   33.1240   46.6550 C   0  0  0  0  0  0  0  0  0  0  0  0
   38.9620   32.2470   47.3080 C   0  0  0  0  0  0  0  0  0  0  0  0
   38.8360   30.9780   46.7490 C   0  0  0  0  0  0  0  0  0  0  0  0
   39.5610   30.6650   45.6570 N   0  0  0  0  0  0  0  0  0  0  0  0
   40.4090   31.5090   45.0630 C   0  0  0  0  0  0  0  0  0  0  0  0
   40.5650   32.7560   45.5720 N   0  0  0  0  0  0  0  0  0  0  0  0
   38.5020   31.7590   49.5970 C   0  0  0  0  0  0  0  0  0  0  0  0
   37.2620   30.9900   49.9060 C   0  0  0  0  0  0  0  0  0  0  0  0
   37.2720   29.9960   51.0300 C   0  0  0  0  0  0  0  0  0  0  0  0
   35.5530   29.3460   50.9910 S   0  0  0  0  0  0  0  0  0  0  0  0
   35.1200   30.4610   49.5390 C   0  0  0  0  0  0  0  0  0  0  0  0
   36.0730   31.0390   49.3170 N   0  0  0  0  0  0  0  0  0  0  0  0
   37.1725   32.7660   48.2535 H   0  0  0  0  0  0  0  0  0  0  0  0
   38.5963   33.7274   48.7444 H   0  0  0  0  0  0  0  0  0  0  0  0
   40.0104   34.1395   47.0545 H   0  0  0  0  0  0  0  0  0  0  0  0
   38.1526   30.2395   47.1936 H   0  0  0  0  0  0  0  0  0  0  0  0
   40.9736   31.1963   44.1722 H   0  0  0  0  0  0  0  0  0  0  0  0
   39.3001   31.0599   49.3066 H   0  0  0  0  0  0  0  0  0  0  0  0
   38.8048   32.3252   50.4902 H   0  0  0  0  0  0  0  0  0  0  0  0
   38.0973   29.7254   51.7050 H   0  0  0  0  0  0  0  0  0  0  0  0
   34.1542   30.5370   49.0180 H   0  0  0  0  0  0  0  0  0  0  0  0
  1  8  1  0
  2  3  2  0
  3  1  1  0
  4  3  1  0
  5  4  2  0
  6  7  2  0
  6  5  1  0
  7  2  1  0
  8  9  1  0
  9 10  2  0
 11 10  1  0
 12 11  1  0
 13 12  2  0
 13  9  1  0
  1 14  1  0
  1 15  1  0
  2 16  1  0
  4 17  1  0
  6 18  1  0
  8 19  1  0
  8 20  1  0
 10 21  1  0
 12 22  1  0
M  ISO  8  14   8  15   8  16  14  17  14  18  14  19   8  20   8  21  14
M  ISO  1  22  14
M  END
>  <minimizedAffinity>  (1) 
-4.3879056

>  <minimizedRMSD>  (1) 
5.04674387

$$$$
