
     RDKit          3D

 27 29  0  0  1  0  0  0  0  0999 V2000
   35.4760   29.4360   49.0420 C   0  0  2  0  0  0  0  0  0  0  0  0
   34.4050   29.9170   49.9390 C   0  0  0  0  0  0  0  0  0  0  0  0
   34.5190   28.4630   49.7050 C   0  0  1  0  0  0  0  0  0  0  0  0
   33.6210   27.7740   48.7950 N   0  0  0  0  0  0  0  0  0  0  0  0
   32.2970   27.9140   48.8230 N   0  0  0  0  0  0  0  0  0  0  0  0
   31.7230   27.1470   47.8550 C   0  0  0  0  0  0  0  0  0  0  0  0
   32.7480   26.5090   47.2060 C   0  0  0  0  0  0  0  0  0  0  0  0
   33.9210   26.9160   47.8090 C   0  0  0  0  0  0  0  0  0  0  0  0
   36.8940   29.3380   49.5290 C   0  0  0  0  0  0  0  0  0  0  0  0
   38.4160   32.6950   49.3890 C   0  0  0  0  0  0  0  0  0  0  0  0
   38.9250   32.7340   48.0690 C   0  0  0  0  0  0  0  0  0  0  0  0
   38.7470   31.6170   47.2350 C   0  0  0  0  0  0  0  0  0  0  0  0
   38.0830   30.5530   47.7670 N   0  0  0  0  0  0  0  0  0  0  0  0
   37.6050   30.5490   49.0430 C   0  0  0  0  0  0  0  0  0  0  0  0
   37.7740   31.6150   49.8420 N   0  0  0  0  0  0  0  0  0  0  0  0
   35.7824   29.7194   48.0242 H   0  0  0  0  0  0  0  0  0  0  0  0
   34.6647   30.3325   50.9239 H   0  0  0  0  0  0  0  0  0  0  0  0
   33.5901   30.6488   49.8371 H   0  0  0  0  0  0  0  0  0  0  0  0
   34.5676   27.5991   50.3842 H   0  0  0  0  0  0  0  0  0  0  0  0
   30.6486   27.0572   47.6370 H   0  0  0  0  0  0  0  0  0  0  0  0
   32.6537   25.8065   46.3648 H   0  0  0  0  0  0  0  0  0  0  0  0
   34.9334   26.5907   47.5276 H   0  0  0  0  0  0  0  0  0  0  0  0
   36.9144   29.3037   50.6283 H   0  0  0  0  0  0  0  0  0  0  0  0
   37.3756   28.4230   49.1537 H   0  0  0  0  0  0  0  0  0  0  0  0
   38.5507   33.5643   50.0495 H   0  0  0  0  0  0  0  0  0  0  0  0
   39.4526   33.6263   47.7010 H   0  0  0  0  0  0  0  0  0  0  0  0
   39.1256   31.6025   46.2023 H   0  0  0  0  0  0  0  0  0  0  0  0
  1  9  1  0
  1  3  1  0
  1  2  1  0
  3  2  1  0
  4  5  1  0
  4  3  1  0
  6  5  2  0
  7  8  2  0
  7  6  1  0
  8  4  1  0
 10 15  2  0
 11 10  1  0
 12 13  1  0
 12 11  2  0
 13 14  2  0
 14  9  1  0
 14 15  1  0
  1 16  1  6
  2 17  1  0
  2 18  1  0
  3 19  1  1
  6 20  1  0
  7 21  1  0
  8 22  1  0
  9 23  1  0
  9 24  1  0
 10 25  1  0
 11 26  1  0
 12 27  1  0
M  ISO  8  16  13  17  13  18  13  19  13  20  14  21  14  22  14  23   8
M  ISO  4  24   8  25  14  26  14  27  14
M  END
>  <minimizedAffinity>  (1) 
-4.72123957

>  <minimizedRMSD>  (1) 
0.565700948

$$$$
