
     RDKit          3D

 22 24  0  0  0  0  0  0  0  0999 V2000
   38.3990   31.1330   47.8160 C   0  0  0  0  0  0  0  0  0  0  0  0
   38.8440   32.4730   47.8750 C   0  0  0  0  0  0  0  0  0  0  0  0
   39.6380   32.7850   46.2560 S   0  0  0  0  0  0  0  0  0  0  0  0
   39.2220   30.9890   45.7490 C   0  0  0  0  0  0  0  0  0  0  0  0
   38.6960   30.5850   46.6540 N   0  0  0  0  0  0  0  0  0  0  0  0
   39.5380   30.3520   44.4730 N   0  0  0  0  0  0  0  0  0  0  0  0
   38.9540   29.3880   43.7780 C   0  0  0  0  0  0  0  0  0  0  0  0
   39.6890   29.1960   42.6490 N   0  0  0  0  0  0  0  0  0  0  0  0
   40.7280   30.0680   42.6810 C   0  0  0  0  0  0  0  0  0  0  0  0
   40.6270   30.7850   43.8220 N   0  0  0  0  0  0  0  0  0  0  0  0
   38.1330   30.8860   50.2610 C   0  0  0  0  0  0  0  0  0  0  0  0
   37.7200   30.5550   48.9560 C   0  0  0  0  0  0  0  0  0  0  0  0
   36.6650   29.6690   48.8610 C   0  0  0  0  0  0  0  0  0  0  0  0
   36.0830   29.1660   49.9690 N   0  0  0  0  0  0  0  0  0  0  0  0
   36.5110   29.5130   51.2080 C   0  0  0  0  0  0  0  0  0  0  0  0
   37.5420   30.3770   51.3410 N   0  0  0  0  0  0  0  0  0  0  0  0
   38.7363   33.1769   48.7134 H   0  0  0  0  0  0  0  0  0  0  0  0
   38.0419   28.8424   44.0614 H   0  0  0  0  0  0  0  0  0  0  0  0
   41.5115   30.1725   41.9160 H   0  0  0  0  0  0  0  0  0  0  0  0
   38.9703   31.5872   50.3928 H   0  0  0  0  0  0  0  0  0  0  0  0
   36.2947   29.3697   47.8694 H   0  0  0  0  0  0  0  0  0  0  0  0
   36.0220   29.0938   52.0997 H   0  0  0  0  0  0  0  0  0  0  0  0
  1  2  2  0
  1 12  1  0
  3  2  1  0
  4  3  1  0
  4  5  2  0
  5  1  1  0
  6  4  1  0
  7  6  1  0
  8  9  1  0
  8  7  2  0
  9 10  2  0
 10  6  1  0
 11 16  2  0
 12 11  1  0
 13 12  2  0
 13 14  1  0
 14 15  2  0
 15 16  1  0
  2 17  1  0
  7 18  1  0
  9 19  1  0
 11 20  1  0
 13 21  1  0
 15 22  1  0
M  ISO  6  17  14  18  14  19  14  20  14  21  14  22  14
M  END
>  <minimizedAffinity>  (1) 
-5.49003363

>  <minimizedRMSD>  (1) 
0.158235878

$$$$
