
     RDKit          3D

 20 20  0  0  0  0  0  0  0  0999 V2000
   37.6260   30.5590   49.2740 C   0  0  0  0  0  0  0  0  0  0  0  0
   38.2160   31.8050   49.6740 C   0  0  0  0  0  0  0  0  0  0  0  0
   38.7550   32.6290   48.6880 C   0  0  0  0  0  0  0  0  0  0  0  0
   38.6850   32.1890   47.3990 N   0  0  0  0  0  0  0  0  0  0  0  0
   38.1310   31.0240   47.0530 C   0  0  0  0  0  0  0  0  0  0  0  0
   37.6100   30.2250   47.9860 N   0  0  0  0  0  0  0  0  0  0  0  0
   38.1510   30.7220   45.6120 C   0  0  0  0  0  0  0  0  0  0  0  0
   38.4460   31.8870   44.8750 F   0  0  0  0  0  0  0  0  0  0  0  0
   39.1350   29.8210   45.3240 F   0  0  0  0  0  0  0  0  0  0  0  0
   36.9480   30.1620   45.1700 F   0  0  0  0  0  0  0  0  0  0  0  0
   39.3580   33.8960   49.0670 C   0  0  0  0  0  0  0  0  0  0  0  0
   39.6300   34.1210   50.2680 O   0  0  0  0  0  0  0  0  0  0  0  0
   39.6950   34.9580   48.2470 O   0  0  0  0  0  0  0  0  0  0  0  0
   37.0930   29.7450   50.2430 O   0  0  0  0  0  0  0  0  0  0  0  0
   35.7470   29.4860   50.4160 C   0  0  0  0  0  0  0  0  0  0  0  0
   35.3960   29.1710   51.7260 F   0  0  0  0  0  0  0  0  0  0  0  0
   34.9080   30.4660   49.9340 F   0  0  0  0  0  0  0  0  0  0  0  0
   35.4950   28.3270   49.6610 F   0  0  0  0  0  0  0  0  0  0  0  0
   38.2420   32.1020   50.7328 H   0  0  0  0  0  0  0  0  0  0  0  0
   40.1038   35.7722   48.6344 H   0  0  0  0  0  0  0  0  0  0  0  0
  1  2  2  0
  1 14  1  0
  3 11  1  0
  3  2  1  0
  4  3  2  0
  5  4  1  0
  5  6  2  0
  6  1  1  0
  7  5  1  0
  8  7  1  0
  9  7  1  0
 10  7  1  0
 11 12  2  0
 13 11  1  0
 14 15  1  0
 15 16  1  0
 17 15  1  0
 18 15  1  0
  2 19  1  0
 13 20  1  0
M  ISO  2  19  14  20   3
M  END
>  <minimizedAffinity>  (1) 
-5.8659358

>  <minimizedRMSD>  (1) 
0.202927321

$$$$
