
     RDKit          3D

 39 41  0  0  1  0  0  0  0  0999 V2000
   35.2250   29.4400   49.0590 C   0  0  2  0  0  0  0  0  0  0  0  0
   34.0810   29.2550   49.9630 C   0  0  0  0  0  0  0  0  0  0  0  0
   34.5150   28.0800   49.2140 C   0  0  1  0  0  0  0  0  0  0  0  0
   36.6190   29.4320   49.6820 C   0  0  0  0  0  0  0  0  0  0  0  0
   37.9040   32.8550   49.4410 C   0  0  0  0  0  0  0  0  0  0  0  0
   38.6760   32.8160   48.2690 C   0  0  0  0  0  0  0  0  0  0  0  0
   38.7460   31.6000   47.5680 C   0  0  0  0  0  0  0  0  0  0  0  0
   38.0550   30.5240   48.0720 N   0  0  0  0  0  0  0  0  0  0  0  0
   37.3340   30.6110   49.1920 C   0  0  0  0  0  0  0  0  0  0  0  0
   37.2640   31.7810   49.8690 N   0  0  0  0  0  0  0  0  0  0  0  0
   33.5970   27.6570   48.1030 C   0  0  0  0  0  0  0  0  0  0  0  0
   33.9200   26.5350   47.5470 O   0  0  0  0  0  0  0  0  0  0  0  0
   32.4800   28.3400   47.6560 O   0  0  0  0  0  0  0  0  0  0  0  0
   31.2080   27.7630   47.6380 C   0  0  0  0  0  0  0  0  0  0  0  0
   30.8550   27.1200   48.9560 C   0  0  0  0  0  0  0  0  0  0  0  0
   30.0300   27.9970   49.8580 C   0  0  0  0  0  0  0  0  0  0  0  0
   28.7560   28.4600   49.2260 C   0  0  0  0  0  0  0  0  0  0  0  0
   28.7650   28.3130   47.7220 C   0  0  0  0  0  0  0  0  0  0  0  0
   30.1160   28.6750   47.1340 C   0  0  0  0  0  0  0  0  0  0  0  0
   35.4566   30.1601   48.2604 H   0  0  0  0  0  0  0  0  0  0  0  0
   34.2409   29.2914   51.0507 H   0  0  0  0  0  0  0  0  0  0  0  0
   33.1136   29.7669   50.0735 H   0  0  0  0  0  0  0  0  0  0  0  0
   34.8412   27.0568   49.4521 H   0  0  0  0  0  0  0  0  0  0  0  0
   36.5392   29.4715   50.7784 H   0  0  0  0  0  0  0  0  0  0  0  0
   37.1580   28.5135   49.4066 H   0  0  0  0  0  0  0  0  0  0  0  0
   37.8308   33.7929   50.0111 H   0  0  0  0  0  0  0  0  0  0  0  0
   39.2092   33.7090   47.9108 H   0  0  0  0  0  0  0  0  0  0  0  0
   39.3360   31.5120   46.6438 H   0  0  0  0  0  0  0  0  0  0  0  0
   31.2716   26.9610   46.8879 H   0  0  0  0  0  0  0  0  0  0  0  0
   30.2869   26.2004   48.7521 H   0  0  0  0  0  0  0  0  0  0  0  0
   31.8019   26.9226   49.4798 H   0  0  0  0  0  0  0  0  0  0  0  0
   29.7830   27.4291   50.7671 H   0  0  0  0  0  0  0  0  0  0  0  0
   30.6289   28.8926   50.0799 H   0  0  0  0  0  0  0  0  0  0  0  0
   27.9248   27.8654   49.6329 H   0  0  0  0  0  0  0  0  0  0  0  0
   28.6407   29.5297   49.4550 H   0  0  0  0  0  0  0  0  0  0  0  0
   28.5312   27.2696   47.4638 H   0  0  0  0  0  0  0  0  0  0  0  0
   28.0130   28.9987   47.3046 H   0  0  0  0  0  0  0  0  0  0  0  0
   30.3599   29.7107   47.4128 H   0  0  0  0  0  0  0  0  0  0  0  0
   30.0546   28.5643   46.0413 H   0  0  0  0  0  0  0  0  0  0  0  0
  1  3  1  0
  1  4  1  0
  1  2  1  0
  3  2  1  0
  5 10  2  0
  6  5  1  0
  7  8  1  0
  7  6  2  0
  8  9  2  0
  9  4  1  0
  9 10  1  0
 11  3  1  0
 12 11  2  0
 13 11  1  0
 14 13  1  0
 14 15  1  0
 15 16  1  0
 17 16  1  0
 18 17  1  0
 19 14  1  0
 19 18  1  0
  1 20  1  6
  2 21  1  0
  2 22  1  0
  3 23  1  1
  4 24  1  0
  4 25  1  0
  5 26  1  0
  6 27  1  0
  7 28  1  0
 14 29  1  0
 15 30  1  0
 15 31  1  0
 16 32  1  0
 16 33  1  0
 17 34  1  0
 17 35  1  0
 18 36  1  0
 18 37  1  0
 19 38  1  0
 19 39  1  0
M  ISO  8  20  13  21  13  22  13  23  13  24   8  25   8  26  14  27  14
M  ISO  8  28  14  29  13  30  13  31  13  32  13  33  13  34  13  35  13
M  ISO  4  36  13  37  13  38  13  39  13
M  END
>  <minimizedAffinity>  (1) 
-5.45152473

>  <minimizedRMSD>  (1) 
0.768462181

$$$$
