
     RDKit          3D

 27 28  0  0  0  0  0  0  0  0999 V2000
   36.9290   29.9220   49.8690 C   0  0  0  0  0  0  0  0  0  0  0  0
   38.0170   30.6650   49.4400 C   0  0  0  0  0  0  0  0  0  0  0  0
   38.0080   31.1160   48.1090 C   0  0  0  0  0  0  0  0  0  0  0  0
   36.9430   30.7990   47.3280 N   0  0  0  0  0  0  0  0  0  0  0  0
   35.9130   30.0720   47.8040 C   0  0  0  0  0  0  0  0  0  0  0  0
   35.9100   29.6350   49.0740 N   0  0  0  0  0  0  0  0  0  0  0  0
   39.0790   31.8770   47.6020 N   0  0  0  0  0  0  0  0  0  0  0  0
   38.9600   32.6050   46.3920 C   0  0  0  0  0  0  0  0  0  0  0  0
   37.9220   32.4000   45.6670 N   0  0  0  0  0  0  0  0  0  0  0  0
   39.9840   33.5230   46.0320 N   0  0  0  0  0  0  0  0  0  0  0  0
   37.8090   32.9920   44.8010 H   0  0  0  0  0  0  0  0  0  0  0  0
   34.7760   29.7490   46.9290 C   0  0  0  0  0  0  0  0  0  0  0  0
   33.5870   29.1960   47.3990 C   0  0  0  0  0  0  0  0  0  0  0  0
   32.5750   28.9230   46.5220 C   0  0  0  0  0  0  0  0  0  0  0  0
   32.7670   29.2180   45.1180 C   0  0  0  0  0  0  0  0  0  0  0  0
   34.5430   29.9280   45.1650 S   0  0  0  0  0  0  0  0  0  0  0  0
   36.9310   29.4360   51.2950 C   0  0  0  0  0  0  0  0  0  0  0  0
   35.6150   29.1650   51.6890 F   0  0  0  0  0  0  0  0  0  0  0  0
   37.7840   28.4070   51.4220 F   0  0  0  0  0  0  0  0  0  0  0  0
   37.3390   30.5230   52.0920 F   0  0  0  0  0  0  0  0  0  0  0  0
   38.8552   30.8930   50.1149 H   0  0  0  0  0  0  0  0  0  0  0  0
   39.9678   31.9051   48.1217 H   0  0  0  0  0  0  0  0  0  0  0  0
   39.9105   34.0588   45.1554 H   0  0  0  0  0  0  0  0  0  0  0  0
   40.7995   33.6523   46.6478 H   0  0  0  0  0  0  0  0  0  0  0  0
   33.4633   28.9802   48.4705 H   0  0  0  0  0  0  0  0  0  0  0  0
   31.6300   28.4862   46.8773 H   0  0  0  0  0  0  0  0  0  0  0  0
   32.0857   29.0747   44.2664 H   0  0  0  0  0  0  0  0  0  0  0  0
  1 17  1  0
  2  1  2  0
  3  2  1  0
  4  5  1  0
  4  3  2  0
  5  6  2  0
  6  1  1  0
  7  3  1  0
  8  7  1  0
  9  8  2  0
 10  8  1  0
 11  9  1  0
 12 13  2  0
 12  5  1  0
 14 13  1  0
 15 16  1  0
 15 14  2  0
 16 12  1  0
 17 19  1  0
 17 18  1  0
 17 20  1  0
  2 21  1  0
  7 22  1  0
 10 23  1  0
 10 24  1  0
 13 25  1  0
 14 26  1  0
 15 27  1  0
M  ISO  4  21  14  25  14  26  14  27  14
M  END
>  <minimizedAffinity>  (1) 
-6.45434761

>  <minimizedRMSD>  (1) 
0.219583794

$$$$
