
     RDKit          3D

 20 21  0  0  0  0  0  0  0  0999 V2000
   36.7260   29.8780   49.4670 C   0  0  0  0  0  0  0  0  0  0  0  0
   37.7990   30.4400   48.7800 C   0  0  0  0  0  0  0  0  0  0  0  0
   37.6010   30.7900   47.4330 C   0  0  0  0  0  0  0  0  0  0  0  0
   36.3910   30.5630   46.8850 N   0  0  0  0  0  0  0  0  0  0  0  0
   35.3670   30.0140   47.5840 C   0  0  0  0  0  0  0  0  0  0  0  0
   35.5450   29.6750   48.8730 N   0  0  0  0  0  0  0  0  0  0  0  0
   38.6470   31.3700   46.6590 C   0  0  0  0  0  0  0  0  0  0  0  0
   39.2920   32.5760   46.7800 C   0  0  0  0  0  0  0  0  0  0  0  0
   40.2770   32.8620   45.8660 C   0  0  0  0  0  0  0  0  0  0  0  0
   40.5720   31.9580   44.8930 C   0  0  0  0  0  0  0  0  0  0  0  0
   39.4020   30.5810   45.2450 S   0  0  0  0  0  0  0  0  0  0  0  0
   36.9310   29.5040   50.9020 C   0  0  0  0  0  0  0  0  0  0  0  0
   35.7110   29.1740   51.4860 F   0  0  0  0  0  0  0  0  0  0  0  0
   37.8450   28.5040   50.9700 F   0  0  0  0  0  0  0  0  0  0  0  0
   37.3960   30.6440   51.5710 F   0  0  0  0  0  0  0  0  0  0  0  0
   38.7679   30.6044   49.2742 H   0  0  0  0  0  0  0  0  0  0  0  0
   34.3943   29.8466   47.0984 H   0  0  0  0  0  0  0  0  0  0  0  0
   39.0301   33.2861   47.5782 H   0  0  0  0  0  0  0  0  0  0  0  0
   40.8233   33.8152   45.9205 H   0  0  0  0  0  0  0  0  0  0  0  0
   41.3239   32.0317   44.0935 H   0  0  0  0  0  0  0  0  0  0  0  0
  1 12  1  0
  2  1  2  0
  3  2  1  0
  4  3  2  0
  4  5  1  0
  5  6  2  0
  6  1  1  0
  7  8  2  0
  7  3  1  0
  9  8  1  0
 10 11  1  0
 10  9  2  0
 11  7  1  0
 12 14  1  0
 12 13  1  0
 12 15  1  0
  2 16  1  0
  5 17  1  0
  8 18  1  0
  9 19  1  0
 10 20  1  0
M  ISO  5  16  14  17  14  18  14  19  14  20  14
M  END
>  <minimizedAffinity>  (1) 
-5.61945009

>  <minimizedRMSD>  (1) 
2.49363399

$$$$
