
     RDKit          3D

 42 45  0  0  0  0  0  0  0  0999 V2000
   39.2970   32.1810   46.3730 N   0  0  0  0  0  0  0  0  0  0  0  0
   39.8610   33.3090   45.9660 C   0  0  0  0  0  0  0  0  0  0  0  0
   39.9820   33.7190   44.6680 C   0  0  0  0  0  0  0  0  0  0  0  0
   39.4940   32.9310   43.6660 C   0  0  0  0  0  0  0  0  0  0  0  0
   39.5660   33.2370   42.4580 O   0  0  0  0  0  0  0  0  0  0  0  0
   38.9250   31.7980   44.0320 N   0  0  0  0  0  0  0  0  0  0  0  0
   38.8220   31.4270   45.3180 C   0  0  0  0  0  0  0  0  0  0  0  0
   38.2590   30.3200   45.5600 O   0  0  0  0  0  0  0  0  0  0  0  0
   38.3980   30.9410   43.0110 C   0  0  0  0  0  0  0  0  0  0  0  0
   37.0540   31.0170   42.6820 C   0  0  0  0  0  0  0  0  0  0  0  0
   36.5840   30.1710   41.6890 C   0  0  0  0  0  0  0  0  0  0  0  0
   37.4540   29.3060   41.0790 C   0  0  0  0  0  0  0  0  0  0  0  0
   38.7820   29.2060   41.3790 C   0  0  0  0  0  0  0  0  0  0  0  0
   39.5870   28.3050   40.7160 C   0  0  0  0  0  0  0  0  0  0  0  0
   40.9070   28.3060   41.1130 C   0  0  0  0  0  0  0  0  0  0  0  0
   41.4440   29.1150   42.0900 C   0  0  0  0  0  0  0  0  0  0  0  0
   40.5920   29.9990   42.7230 C   0  0  0  0  0  0  0  0  0  0  0  0
   39.2460   30.0500   42.3700 C   0  0  0  0  0  0  0  0  0  0  0  0
   39.1250   31.6740   47.6730 C   0  0  0  0  0  0  0  0  0  0  0  0
   38.1300   32.2890   48.5650 C   0  0  0  0  0  0  0  0  0  0  0  0
   35.5410   29.9630   50.0160 C   0  0  0  0  0  0  0  0  0  0  0  0
   36.1610   30.8730   49.1330 C   0  0  0  0  0  0  0  0  0  0  0  0
   37.4130   31.3390   49.4300 C   0  0  0  0  0  0  0  0  0  0  0  0
   38.0030   30.8920   50.5780 N   0  0  0  0  0  0  0  0  0  0  0  0
   37.4210   30.0380   51.4060 C   0  0  0  0  0  0  0  0  0  0  0  0
   36.1970   29.5650   51.1430 N   0  0  0  0  0  0  0  0  0  0  0  0
   40.2679   33.9743   46.7418 H   0  0  0  0  0  0  0  0  0  0  0  0
   40.4690   34.6768   44.4325 H   0  0  0  0  0  0  0  0  0  0  0  0
   36.3829   31.7243   43.1912 H   0  0  0  0  0  0  0  0  0  0  0  0
   35.5245   30.1941   41.3943 H   0  0  0  0  0  0  0  0  0  0  0  0
   37.0551   28.6470   40.2938 H   0  0  0  0  0  0  0  0  0  0  0  0
   39.2054   27.6364   39.9303 H   0  0  0  0  0  0  0  0  0  0  0  0
   41.5869   27.6036   40.6086 H   0  0  0  0  0  0  0  0  0  0  0  0
   42.5099   29.0592   42.3558 H   0  0  0  0  0  0  0  0  0  0  0  0
   40.9782   30.6650   43.5087 H   0  0  0  0  0  0  0  0  0  0  0  0
   38.8497   30.6141   47.5691 H   0  0  0  0  0  0  0  0  0  0  0  0
   40.0839   31.8944   48.1650 H   0  0  0  0  0  0  0  0  0  0  0  0
   38.6484   33.0151   49.2085 H   0  0  0  0  0  0  0  0  0  0  0  0
   37.3727   32.7519   47.9153 H   0  0  0  0  0  0  0  0  0  0  0  0
   34.5346   29.5772   49.7962 H   0  0  0  0  0  0  0  0  0  0  0  0
   35.6452   31.2029   48.2192 H   0  0  0  0  0  0  0  0  0  0  0  0
   37.9473   29.7151   52.3164 H   0  0  0  0  0  0  0  0  0  0  0  0
  1 19  1  0
  2  1  1  0
  3  2  2  0
  4  6  1  0
  4  3  1  0
  5  4  2  0
  6  7  1  0
  7  8  2  0
  7  1  1  0
  9  6  1  0
 10  9  2  0
 11 10  1  0
 12 13  1  0
 12 11  2  0
 13 18  2  0
 14 15  2  0
 14 13  1  0
 15 16  1  0
 16 17  2  0
 18 17  1  0
 18  9  1  0
 19 20  1  0
 20 23  1  0
 21 26  2  0
 22 23  2  0
 22 21  1  0
 23 24  1  0
 24 25  2  0
 26 25  1  0
  2 27  1  0
  3 28  1  0
 10 29  1  0
 11 30  1  0
 12 31  1  0
 14 32  1  0
 15 33  1  0
 16 34  1  0
 17 35  1  0
 19 36  1  0
 19 37  1  0
 20 38  1  0
 20 39  1  0
 21 40  1  0
 22 41  1  0
 25 42  1  0
M  ISO  8  27  14  28  14  29  14  30  14  31  14  32  14  33  14  34  14
M  ISO  8  35  14  36   8  37   8  38   8  39   8  40  14  41  14  42  14
M  END
>  <minimizedAffinity>  (1) 
-6.14226723

>  <minimizedRMSD>  (1) 
2.40890551

$$$$
