
     RDKit          3D

 52 56  0  0  0  0  0  0  0  0999 V2000
   33.2810   27.9020   48.5950 C   0  0  0  0  0  0  0  0  0  0  0  0
   31.6700   26.3130   47.6320 C   0  0  0  0  0  0  0  0  0  0  0  0
   31.3810   25.1970   46.9380 C   0  0  0  0  0  0  0  0  0  0  0  0
   32.3410   24.3650   46.3950 C   0  0  0  0  0  0  0  0  0  0  0  0
   33.6590   24.7400   46.6030 C   0  0  0  0  0  0  0  0  0  0  0  0
   33.9730   25.8740   47.3070 C   0  0  0  0  0  0  0  0  0  0  0  0
   32.9830   26.6760   47.8320 C   0  0  0  0  0  0  0  0  0  0  0  0
   29.2670   27.8720   49.9560 C   0  0  0  0  0  0  0  0  0  0  0  0
   28.6250   28.8260   49.1270 C   0  0  0  0  0  0  0  0  0  0  0  0
   29.0440   28.9030   47.7920 C   0  0  0  0  0  0  0  0  0  0  0  0
   30.0410   28.0600   47.3580 N   0  0  0  0  0  0  0  0  0  0  0  0
   30.6190   27.1660   48.1900 C   0  0  0  0  0  0  0  0  0  0  0  0
   30.2240   27.0900   49.4610 N   0  0  0  0  0  0  0  0  0  0  0  0
   27.5540   29.7200   49.6230 C   0  0  0  0  0  0  0  0  0  0  0  0
   28.0050   30.6960   50.4680 F   0  0  0  0  0  0  0  0  0  0  0  0
   26.5680   29.0150   50.2870 F   0  0  0  0  0  0  0  0  0  0  0  0
   26.9510   30.3710   48.5260 F   0  0  0  0  0  0  0  0  0  0  0  0
   33.5650   29.1040   47.7680 C   0  0  0  0  0  0  0  0  0  0  0  0
   34.9590   29.5200   47.9240 C   0  0  0  0  0  0  0  0  0  0  0  0
   35.7450   29.1660   49.0070 C   0  0  0  0  0  0  0  0  0  0  0  0
   37.0010   29.7130   48.8570 C   0  0  0  0  0  0  0  0  0  0  0  0
   36.9350   30.3960   47.6640 N   0  0  0  0  0  0  0  0  0  0  0  0
   35.7370   30.2800   47.1180 N   0  0  0  0  0  0  0  0  0  0  0  0
   38.0380   31.1300   47.1060 C   0  0  0  0  0  0  0  0  0  0  0  0
   38.5540   30.6560   45.8950 C   0  0  0  0  0  0  0  0  0  0  0  0
   39.6120   31.2610   45.2470 C   0  0  0  0  0  0  0  0  0  0  0  0
   40.1620   32.3790   45.8410 C   0  0  0  0  0  0  0  0  0  0  0  0
   39.6810   32.8700   47.0280 C   0  0  0  0  0  0  0  0  0  0  0  0
   40.2490   33.9950   47.6090 C   0  0  0  0  0  0  0  0  0  0  0  0
   39.7340   34.4670   48.8180 C   0  0  0  0  0  0  0  0  0  0  0  0
   38.6680   33.8120   49.4180 C   0  0  0  0  0  0  0  0  0  0  0  0
   38.1200   32.7000   48.8280 C   0  0  0  0  0  0  0  0  0  0  0  0
   38.6280   32.2480   47.6510 C   0  0  0  0  0  0  0  0  0  0  0  0
   32.4142   28.1250   49.2344 H   0  0  0  0  0  0  0  0  0  0  0  0
   34.2007   27.6950   49.1619 H   0  0  0  0  0  0  0  0  0  0  0  0
   30.3228   24.9328   46.7952 H   0  0  0  0  0  0  0  0  0  0  0  0
   32.0751   23.4588   45.8311 H   0  0  0  0  0  0  0  0  0  0  0  0
   34.4683   24.1162   46.1957 H   0  0  0  0  0  0  0  0  0  0  0  0
   35.0283   26.1469   47.4545 H   0  0  0  0  0  0  0  0  0  0  0  0
   28.9734   27.7775   51.0119 H   0  0  0  0  0  0  0  0  0  0  0  0
   28.5833   29.6256   47.1023 H   0  0  0  0  0  0  0  0  0  0  0  0
   32.9053   29.9250   48.0853 H   0  0  0  0  0  0  0  0  0  0  0  0
   33.3851   28.8574   46.7112 H   0  0  0  0  0  0  0  0  0  0  0  0
   35.4183   28.5454   49.8544 H   0  0  0  0  0  0  0  0  0  0  0  0
   37.8613   29.6239   49.5367 H   0  0  0  0  0  0  0  0  0  0  0  0
   38.0977   29.7643   45.4405 H   0  0  0  0  0  0  0  0  0  0  0  0
   40.0010   30.8682   44.2960 H   0  0  0  0  0  0  0  0  0  0  0  0
   41.0053   32.8878   45.3512 H   0  0  0  0  0  0  0  0  0  0  0  0
   41.0929   34.5076   47.1240 H   0  0  0  0  0  0  0  0  0  0  0  0
   40.1726   35.3565   49.2939 H   0  0  0  0  0  0  0  0  0  0  0  0
   38.2607   34.1849   50.3694 H   0  0  0  0  0  0  0  0  0  0  0  0
   37.2764   32.1789   49.3041 H   0  0  0  0  0  0  0  0  0  0  0  0
  2  7  1  0
  2 12  1  0
  3  2  2  0
  4  5  2  0
  4  3  1  0
  5  6  1  0
  6  7  2  0
  7  1  1  0
  9 14  1  0
  9  8  2  0
 10  9  1  0
 11 10  2  0
 11 12  1  0
 12 13  2  0
 13  8  1  0
 14 16  1  0
 14 15  1  0
 17 14  1  0
 18 19  1  0
 18  1  1  0
 19 20  1  0
 21 20  2  0
 22 21  1  0
 23 22  1  0
 23 19  2  0
 24 33  1  0
 24 22  1  0
 25 24  2  0
 26 27  2  0
 26 25  1  0
 27 28  1  0
 28 29  1  0
 28 33  2  0
 29 30  2  0
 30 31  1  0
 32 31  2  0
 33 32  1  0
  1 34  1  0
  1 35  1  0
  3 36  1  0
  4 37  1  0
  5 38  1  0
  6 39  1  0
  8 40  1  0
 10 41  1  0
 18 42  1  0
 18 43  1  0
 20 44  1  0
 21 45  1  0
 25 46  1  0
 26 47  1  0
 27 48  1  0
 29 49  1  0
 30 50  1  0
 31 51  1  0
 32 52  1  0
M  ISO  8  34   8  35   8  36  14  37  14  38  14  39  14  40  14  41  14
M  ISO  8  42   8  43   8  44  14  45  14  46  14  47  14  48  14  49  14
M  ISO  3  50  14  51  14  52  14
M  END
>  <minimizedAffinity>  (1) 
-8.11972713

>  <minimizedRMSD>  (1) 
2.64982915

$$$$
