
     RDKit          3D

 38 41  0  0  1  0  0  0  0  0999 V2000
   35.2500   29.1420   48.5290 C   0  0  2  0  0  0  0  0  0  0  0  0
   34.0020   29.3740   49.2500 C   0  0  0  0  0  0  0  0  0  0  0  0
   34.3220   27.9930   49.0470 C   0  0  1  0  0  0  0  0  0  0  0  0
   36.5360   29.2030   49.3700 C   0  0  0  0  0  0  0  0  0  0  0  0
   37.5510   32.7020   49.6100 C   0  0  0  0  0  0  0  0  0  0  0  0
   38.4470   32.8360   48.5250 C   0  0  0  0  0  0  0  0  0  0  0  0
   38.6850   31.6960   47.7230 C   0  0  0  0  0  0  0  0  0  0  0  0
   38.0320   30.5340   48.0470 N   0  0  0  0  0  0  0  0  0  0  0  0
   37.1960   30.4640   49.0830 C   0  0  0  0  0  0  0  0  0  0  0  0
   36.9630   31.5560   49.8580 N   0  0  0  0  0  0  0  0  0  0  0  0
   33.5030   27.2770   47.9930 C   0  0  0  0  0  0  0  0  0  0  0  0
   33.8650   26.0490   47.8160 O   0  0  0  0  0  0  0  0  0  0  0  0
   32.4530   27.8170   47.2610 O   0  0  0  0  0  0  0  0  0  0  0  0
   31.2150   28.0650   47.7730 C   0  0  0  0  0  0  0  0  0  0  0  0
   30.7580   27.6290   49.1040 C   0  0  0  0  0  0  0  0  0  0  0  0
   29.5060   27.9280   49.5260 C   0  0  0  0  0  0  0  0  0  0  0  0
   28.6410   28.6630   48.6730 C   0  0  0  0  0  0  0  0  0  0  0  0
   29.6750   28.9570   47.1530 S   0  0  0  0  0  0  0  0  0  0  0  0
   27.3620   29.0980   48.8250 C   0  0  0  0  0  0  0  0  0  0  0  0
   26.3310   28.2650   49.2170 C   0  0  0  0  0  0  0  0  0  0  0  0
   25.0280   28.6980   49.3760 C   0  0  0  0  0  0  0  0  0  0  0  0
   24.7910   30.0090   49.1240 N   0  0  0  0  0  0  0  0  0  0  0  0
   25.7730   30.8490   48.7390 C   0  0  0  0  0  0  0  0  0  0  0  0
   27.0310   30.3810   48.5990 N   0  0  0  0  0  0  0  0  0  0  0  0
   35.6719   29.5114   47.5827 H   0  0  0  0  0  0  0  0  0  0  0  0
   34.0426   29.7875   50.2685 H   0  0  0  0  0  0  0  0  0  0  0  0
   33.1089   29.9725   49.0175 H   0  0  0  0  0  0  0  0  0  0  0  0
   34.4458   27.1068   49.6868 H   0  0  0  0  0  0  0  0  0  0  0  0
   36.2863   29.1466   50.4398 H   0  0  0  0  0  0  0  0  0  0  0  0
   37.1967   28.3591   49.1226 H   0  0  0  0  0  0  0  0  0  0  0  0
   37.3443   33.5693   50.2542 H   0  0  0  0  0  0  0  0  0  0  0  0
   38.9424   33.7947   48.3117 H   0  0  0  0  0  0  0  0  0  0  0  0
   39.3727   31.7396   46.8656 H   0  0  0  0  0  0  0  0  0  0  0  0
   31.4354   27.0591   49.7569 H   0  0  0  0  0  0  0  0  0  0  0  0
   29.1628   27.6046   50.5198 H   0  0  0  0  0  0  0  0  0  0  0  0
   26.5584   27.2065   49.4118 H   0  0  0  0  0  0  0  0  0  0  0  0
   24.2253   28.0148   49.6905 H   0  0  0  0  0  0  0  0  0  0  0  0
   25.5504   31.9078   48.5405 H   0  0  0  0  0  0  0  0  0  0  0  0
  1  3  1  0
  1  2  1  0
  1  4  1  0
  3  2  1  0
  5 10  2  0
  6  5  1  0
  7  8  1  0
  7  6  2  0
  8  9  2  0
  9  4  1  0
  9 10  1  0
 11  3  1  0
 12 11  2  0
 13 14  1  0
 13 11  1  0
 14 15  2  0
 15 16  1  0
 17 19  1  0
 17 16  2  0
 18 14  1  0
 18 17  1  0
 19 20  2  0
 20 21  1  0
 22 21  2  0
 23 22  1  0
 24 23  2  0
 24 19  1  0
  1 25  1  6
  2 26  1  0
  2 27  1  0
  3 28  1  1
  4 29  1  0
  4 30  1  0
  5 31  1  0
  6 32  1  0
  7 33  1  0
 15 34  1  0
 16 35  1  0
 20 36  1  0
 21 37  1  0
 23 38  1  0
M  ISO  8  25  13  26  13  27  13  28  13  29   8  30   8  31  14  32  14
M  ISO  6  33  14  34  14  35  14  36  14  37  14  38  14
M  END
>  <minimizedAffinity>  (1) 
-6.50124931

>  <minimizedRMSD>  (1) 
1.90644622

$$$$
