
     RDKit          3D

 24 25  0  0  0  0  0  0  0  0999 V2000
   37.6160   32.5190   49.1610 C   0  0  0  0  0  0  0  0  0  0  0  0
   35.2280   29.7590   50.2190 C   0  0  0  0  0  0  0  0  0  0  0  0
   35.7440   30.8450   49.4800 C   0  0  0  0  0  0  0  0  0  0  0  0
   36.9620   31.3870   49.8410 C   0  0  0  0  0  0  0  0  0  0  0  0
   37.5920   30.8360   50.8940 N   0  0  0  0  0  0  0  0  0  0  0  0
   37.1050   29.8070   51.5980 C   0  0  0  0  0  0  0  0  0  0  0  0
   35.9110   29.2610   51.2580 N   0  0  0  0  0  0  0  0  0  0  0  0
   38.8510   32.0970   48.4220 C   0  0  0  0  0  0  0  0  0  0  0  0
   38.7280   32.2690   46.9550 C   0  0  0  0  0  0  0  0  0  0  0  0
   37.8100   31.8790   46.0230 C   0  0  0  0  0  0  0  0  0  0  0  0
   38.0030   32.2100   44.7030 C   0  0  0  0  0  0  0  0  0  0  0  0
   39.0660   32.9110   44.2750 N   0  0  0  0  0  0  0  0  0  0  0  0
   39.9750   33.2950   45.2080 C   0  0  0  0  0  0  0  0  0  0  0  0
   39.8070   32.9810   46.5180 N   0  0  0  0  0  0  0  0  0  0  0  0
   36.9072   32.9596   48.4444 H   0  0  0  0  0  0  0  0  0  0  0  0
   37.9136   33.2486   49.9285 H   0  0  0  0  0  0  0  0  0  0  0  0
   34.2592   29.3190   49.9401 H   0  0  0  0  0  0  0  0  0  0  0  0
   35.1831   31.2547   48.6271 H   0  0  0  0  0  0  0  0  0  0  0  0
   37.6720   29.4050   52.4506 H   0  0  0  0  0  0  0  0  0  0  0  0
   39.6977   32.7027   48.7773 H   0  0  0  0  0  0  0  0  0  0  0  0
   39.0055   31.0258   48.6186 H   0  0  0  0  0  0  0  0  0  0  0  0
   36.9225   31.3042   46.3261 H   0  0  0  0  0  0  0  0  0  0  0  0
   37.2543   31.8867   43.9648 H   0  0  0  0  0  0  0  0  0  0  0  0
   40.8606   33.8690   44.8976 H   0  0  0  0  0  0  0  0  0  0  0  0
  1  4  1  0
  2  7  2  0
  3  4  2  0
  3  2  1  0
  4  5  1  0
  5  6  2  0
  7  6  1  0
  8  1  1  0
  9  8  1  0
 10  9  2  0
 11 10  1  0
 12 11  2  0
 12 13  1  0
 13 14  2  0
 14  9  1  0
  1 15  1  0
  1 16  1  0
  2 17  1  0
  3 18  1  0
  6 19  1  0
  8 20  1  0
  8 21  1  0
 10 22  1  0
 11 23  1  0
 13 24  1  0
M  ISO  8  15   8  16   8  17  14  18  14  19  14  20   8  21   8  22  14
M  ISO  2  23  14  24  14
M  END
>  <minimizedAffinity>  (1) 
-4.88663435

>  <minimizedRMSD>  (1) 
3.47486973

$$$$
