
     RDKit          3D

 37 39  0  0  1  0  0  0  0  0999 V2000
   31.7330   28.0780   46.9170 C   0  0  2  0  0  0  0  0  0  0  0  0
   35.1560   29.5400   48.6070 C   0  0  0  0  0  0  0  0  0  0  0  0
   34.7140   28.3430   49.1770 C   0  0  0  0  0  0  0  0  0  0  0  0
   33.5860   27.8020   48.6730 C   0  0  0  0  0  0  0  0  0  0  0  0
   32.9640   28.4150   47.6820 C   0  0  0  0  0  0  0  0  0  0  0  0
   33.9410   29.9130   47.3170 S   0  0  0  0  0  0  0  0  0  0  0  0
   38.0250   30.8290   50.4960 C   0  0  0  0  0  0  0  0  0  0  0  0
   38.5750   31.7930   49.6380 C   0  0  0  0  0  0  0  0  0  0  0  0
   37.9520   31.9820   48.4300 C   0  0  0  0  0  0  0  0  0  0  0  0
   36.8640   31.2340   48.1560 N   0  0  0  0  0  0  0  0  0  0  0  0
   36.3670   30.3390   48.9740 C   0  0  0  0  0  0  0  0  0  0  0  0
   36.9150   30.0680   50.2130 N   0  0  0  0  0  0  0  0  0  0  0  0
   31.4360   29.1470   45.9590 C   0  0  0  0  0  0  0  0  0  0  0  0
   30.6290   27.7990   47.9120 C   0  0  0  0  0  0  0  0  0  0  0  0
   29.9000   26.7000   47.6030 O   0  0  0  0  0  0  0  0  0  0  0  0
   29.1320   26.4230   46.4940 C   0  0  0  0  0  0  0  0  0  0  0  0
   29.4120   25.1310   46.0340 C   0  0  0  0  0  0  0  0  0  0  0  0
   28.7570   24.6090   44.9120 C   0  0  0  0  0  0  0  0  0  0  0  0
   27.8280   25.3820   44.2590 C   0  0  0  0  0  0  0  0  0  0  0  0
   27.5570   26.6500   44.7140 C   0  0  0  0  0  0  0  0  0  0  0  0
   28.1950   27.1750   45.8170 C   0  0  0  0  0  0  0  0  0  0  0  0
   31.8570   27.1710   46.3071 H   0  0  0  0  0  0  0  0  0  0  0  0
   35.2623   27.8629   50.0009 H   0  0  0  0  0  0  0  0  0  0  0  0
   33.1887   26.8615   49.0824 H   0  0  0  0  0  0  0  0  0  0  0  0
   38.5178   30.6701   51.4665 H   0  0  0  0  0  0  0  0  0  0  0  0
   39.4665   32.3719   49.9211 H   0  0  0  0  0  0  0  0  0  0  0  0
   38.3286   32.7210   47.7074 H   0  0  0  0  0  0  0  0  0  0  0  0
   31.1803   30.0674   46.5043 H   0  0  0  0  0  0  0  0  0  0  0  0
   32.3178   29.3283   45.3269 H   0  0  0  0  0  0  0  0  0  0  0  0
   30.5871   28.8475   45.3269 H   0  0  0  0  0  0  0  0  0  0  0  0
   31.0809   27.6517   48.9040 H   0  0  0  0  0  0  0  0  0  0  0  0
   29.9460   28.6611   47.8942 H   0  0  0  0  0  0  0  0  0  0  0  0
   30.1571   24.5172   46.5614 H   0  0  0  0  0  0  0  0  0  0  0  0
   28.9835   23.5925   44.5578 H   0  0  0  0  0  0  0  0  0  0  0  0
   27.3035   24.9878   43.3761 H   0  0  0  0  0  0  0  0  0  0  0  0
   26.8118   27.2616   44.1843 H   0  0  0  0  0  0  0  0  0  0  0  0
   27.9569   28.1936   46.1573 H   0  0  0  0  0  0  0  0  0  0  0  0
  1  5  1  0
  1 14  1  0
  2 11  1  0
  2  3  2  0
  4  3  1  0
  5  4  2  0
  6  5  1  0
  6  2  1  0
  8  7  2  0
  9  8  1  0
 10  9  2  0
 10 11  1  0
 11 12  2  0
 12  7  1  0
 13  1  1  0
 15 14  1  0
 16 15  1  0
 17 16  2  0
 18 17  1  0
 19 20  1  0
 19 18  2  0
 20 21  2  0
 21 16  1  0
  1 22  1  6
  3 23  1  0
  4 24  1  0
  7 25  1  0
  8 26  1  0
  9 27  1  0
 13 28  1  0
 13 29  1  0
 13 30  1  0
 14 31  1  0
 14 32  1  0
 17 33  1  0
 18 34  1  0
 19 35  1  0
 20 36  1  0
 21 37  1  0
M  ISO  8  22   8  23  14  24  14  25  14  26  14  27  14  28   8  29   8
M  ISO  8  30   8  31   8  32   8  33  14  34  14  35  14  36  14  37  14
M  END
>  <minimizedAffinity>  (1) 
-4.74430895

>  <minimizedRMSD>  (1) 
1.10104859

$$$$
