
     RDKit          3D

 46 48  0  0  0  0  0  0  0  0999 V2000
   36.8110   30.6450   50.1060 C   0  0  0  0  0  0  0  0  0  0  0  0
   35.6370   28.5150   49.7850 C   0  0  0  0  0  0  0  0  0  0  0  0
   35.7370   29.8980   49.5710 C   0  0  0  0  0  0  0  0  0  0  0  0
   34.7620   30.4850   48.8020 C   0  0  0  0  0  0  0  0  0  0  0  0
   33.7560   29.7370   48.2790 N   0  0  0  0  0  0  0  0  0  0  0  0
   33.6800   28.4230   48.4940 C   0  0  0  0  0  0  0  0  0  0  0  0
   34.6010   27.8530   49.2270 N   0  0  0  0  0  0  0  0  0  0  0  0
   32.5900   27.6200   47.9280 C   0  0  0  0  0  0  0  0  0  0  0  0
   32.5510   27.3420   46.7060 O   0  0  0  0  0  0  0  0  0  0  0  0
   31.5640   27.1420   48.7270 O   0  0  0  0  0  0  0  0  0  0  0  0
   27.9110   29.0710   48.9190 C   0  0  0  0  0  0  0  0  0  0  0  0
   28.5820   28.9910   47.7200 C   0  0  0  0  0  0  0  0  0  0  0  0
   29.7990   28.3330   47.7250 C   0  0  0  0  0  0  0  0  0  0  0  0
   30.3430   27.7660   48.8760 C   0  0  0  0  0  0  0  0  0  0  0  0
   29.6250   27.8720   50.0690 C   0  0  0  0  0  0  0  0  0  0  0  0
   28.4130   28.5230   50.0940 C   0  0  0  0  0  0  0  0  0  0  0  0
   26.3870   29.8880   48.9480 S   0  0  0  0  0  0  0  0  0  0  0  0
   26.3140   30.8310   47.7960 O   0  0  0  0  0  0  0  0  0  0  0  0
   25.2410   28.9040   48.8600 O   0  0  0  0  0  0  0  0  0  0  0  0
   36.9970   31.9480   49.4390 C   0  0  0  0  0  0  0  0  0  0  0  0
   37.8410   31.7350   48.2420 C   0  0  0  0  0  0  0  0  0  0  0  0
   37.8650   30.5250   47.6400 C   0  0  0  0  0  0  0  0  0  0  0  0
   38.6990   30.3190   46.5410 C   0  0  0  0  0  0  0  0  0  0  0  0
   39.4600   31.3640   46.1150 N   0  0  0  0  0  0  0  0  0  0  0  0
   39.4170   32.5360   46.7170 C   0  0  0  0  0  0  0  0  0  0  0  0
   38.6210   32.7550   47.7800 N   0  0  0  0  0  0  0  0  0  0  0  0
   40.2330   33.6690   46.2240 C   0  0  0  0  0  0  0  0  0  0  0  0
   40.1460   33.7430   44.6830 C   0  0  0  0  0  0  0  0  0  0  0  0
   36.6164   30.8227   51.1740 H   0  0  0  0  0  0  0  0  0  0  0  0
   37.7292   30.0605   49.9471 H   0  0  0  0  0  0  0  0  0  0  0  0
   36.3842   27.9832   50.3924 H   0  0  0  0  0  0  0  0  0  0  0  0
   34.7960   31.5673   48.6085 H   0  0  0  0  0  0  0  0  0  0  0  0
   28.1695   29.4302   46.7997 H   0  0  0  0  0  0  0  0  0  0  0  0
   30.3601   28.2542   46.7821 H   0  0  0  0  0  0  0  0  0  0  0  0
   30.0301   27.4332   50.9928 H   0  0  0  0  0  0  0  0  0  0  0  0
   27.8474   28.6089   51.0335 H   0  0  0  0  0  0  0  0  0  0  0  0
   26.2826   30.5716   50.1306 H   0  0  0  0  0  0  0  0  0  0  0  0
   36.0206   32.3561   49.1390 H   0  0  0  0  0  0  0  0  0  0  0  0
   37.4793   32.6613   50.1235 H   0  0  0  0  0  0  0  0  0  0  0  0
   37.2308   29.7079   48.0144 H   0  0  0  0  0  0  0  0  0  0  0  0
   38.7403   29.3433   46.0348 H   0  0  0  0  0  0  0  0  0  0  0  0
   39.8553   34.6071   46.6569 H   0  0  0  0  0  0  0  0  0  0  0  0
   41.2811   33.5196   46.5225 H   0  0  0  0  0  0  0  0  0  0  0  0
   39.3375   34.4307   44.3940 H   0  0  0  0  0  0  0  0  0  0  0  0
   41.1012   34.1096   44.2790 H   0  0  0  0  0  0  0  0  0  0  0  0
   39.9374   32.7414   44.2790 H   0  0  0  0  0  0  0  0  0  0  0  0
  3  2  2  0
  3  1  1  0
  4  3  1  0
  5  6  1  0
  5  4  2  0
  6  7  2  0
  7  2  1  0
  8  6  1  0
  8 10  1  0
  9  8  2  0
 10 14  1  0
 11 17  1  0
 11 16  2  0
 12 13  2  0
 12 11  1  0
 13 14  1  0
 14 15  2  0
 15 16  1  0
 18 17  2  0
 19 17  2  0
 20  1  1  0
 21 20  1  0
 22 21  2  0
 23 22  1  0
 24 23  2  0
 24 25  1  0
 25 26  2  0
 26 21  1  0
 27 25  1  0
 28 27  1  0
  1 29  1  0
  1 30  1  0
  2 31  1  0
  4 32  1  0
 12 33  1  0
 13 34  1  0
 15 35  1  0
 16 36  1  0
 17 37  1  0
 20 38  1  0
 20 39  1  0
 22 40  1  0
 23 41  1  0
 27 42  1  0
 27 43  1  0
 28 44  1  0
 28 45  1  0
 28 46  1  0
M  ISO  8  29   8  30   8  31  14  32  14  33  14  34  14  35  14  36  14
M  ISO  8  37  11  38   8  39   8  40  14  41  14  42   8  43   8  44   8
M  ISO  2  45   8  46   8
M  END
>  <minimizedAffinity>  (1) 
-6.21669579

>  <minimizedRMSD>  (1) 
1.81595397

$$$$
