
     RDKit          3D

 19 19  0  0  0  0  0  0  0  0999 V2000
   37.0150   30.0560   50.4280 C   0  0  0  0  0  0  0  0  0  0  0  0
   37.2500   30.2740   51.6390 O   0  0  0  0  0  0  0  0  0  0  0  0
   36.0940   29.0010   50.1120 N   0  0  0  0  0  0  0  0  0  0  0  0
   34.7880   29.3600   49.6840 C   0  0  0  0  0  0  0  0  0  0  0  0
   34.3680   30.5720   49.5580 N   0  0  0  0  0  0  0  0  0  0  0  0
   33.8930   28.2950   49.3770 N   0  0  0  0  0  0  0  0  0  0  0  0
   33.4000   30.7960   49.2400 H   0  0  0  0  0  0  0  0  0  0  0  0
   37.6060   30.7900   49.3180 C   0  0  0  0  0  0  0  0  0  0  0  0
   38.2150   32.0120   49.6310 C   0  0  0  0  0  0  0  0  0  0  0  0
   38.7900   32.7310   48.5670 C   0  0  0  0  0  0  0  0  0  0  0  0
   38.7250   32.2140   47.3180 N   0  0  0  0  0  0  0  0  0  0  0  0
   38.1220   31.0270   47.0730 C   0  0  0  0  0  0  0  0  0  0  0  0
   37.5600   30.3060   48.0590 N   0  0  0  0  0  0  0  0  0  0  0  0
   36.3721   28.0126   50.1933 H   0  0  0  0  0  0  0  0  0  0  0  0
   32.9344   28.5024   49.0623 H   0  0  0  0  0  0  0  0  0  0  0  0
   34.2045   27.3176   49.4698 H   0  0  0  0  0  0  0  0  0  0  0  0
   38.2425   32.3926   50.6627 H   0  0  0  0  0  0  0  0  0  0  0  0
   39.2841   33.6971   48.7473 H   0  0  0  0  0  0  0  0  0  0  0  0
   38.0911   30.6431   46.0426 H   0  0  0  0  0  0  0  0  0  0  0  0
  1  2  2  0
  3  1  1  0
  4  3  1  0
  5  4  2  0
  6  4  1  0
  7  5  1  0
  8  9  2  0
  8  1  1  0
 10  9  1  0
 11 10  2  0
 12 11  1  0
 12 13  2  0
 13  8  1  0
  3 14  1  0
  6 15  1  0
  6 16  1  0
  9 17  1  0
 10 18  1  0
 12 19  1  0
M  ISO  3  17  14  18  14  19  14
M  END
>  <minimizedAffinity>  (1) 
-4.68335485

>  <minimizedRMSD>  (1) 
1.30429375

$$$$
