
     RDKit          3D

 29 30  0  0  0  0  0  0  0  0999 V2000
   36.9140   29.9380   49.8800 C   0  0  0  0  0  0  0  0  0  0  0  0
   38.0130   30.6600   49.4380 C   0  0  0  0  0  0  0  0  0  0  0  0
   38.0170   31.0880   48.1020 C   0  0  0  0  0  0  0  0  0  0  0  0
   36.9600   30.7750   47.3300 N   0  0  0  0  0  0  0  0  0  0  0  0
   35.9000   30.0620   47.8090 C   0  0  0  0  0  0  0  0  0  0  0  0
   35.8970   29.6580   49.0710 N   0  0  0  0  0  0  0  0  0  0  0  0
   39.1010   31.8260   47.5860 N   0  0  0  0  0  0  0  0  0  0  0  0
   38.9740   32.5650   46.3860 C   0  0  0  0  0  0  0  0  0  0  0  0
   37.8680   32.4880   45.7090 N   0  0  0  0  0  0  0  0  0  0  0  0
   40.0640   33.3740   45.9500 N   0  0  0  0  0  0  0  0  0  0  0  0
   37.8440   32.9490   44.7740 H   0  0  0  0  0  0  0  0  0  0  0  0
   34.7900   29.7630   46.9080 C   0  0  0  0  0  0  0  0  0  0  0  0
   34.9030   29.9640   45.5530 C   0  0  0  0  0  0  0  0  0  0  0  0
   33.8500   29.6820   44.6840 C   0  0  0  0  0  0  0  0  0  0  0  0
   32.7040   29.1930   45.2810 C   0  0  0  0  0  0  0  0  0  0  0  0
   32.5570   28.9780   46.6540 C   0  0  0  0  0  0  0  0  0  0  0  0
   33.6260   29.2830   47.3840 N   0  0  0  0  0  0  0  0  0  0  0  0
   36.8930   29.4640   51.3200 C   0  0  0  0  0  0  0  0  0  0  0  0
   35.5990   29.1620   51.6900 F   0  0  0  0  0  0  0  0  0  0  0  0
   37.7610   28.4160   51.4220 F   0  0  0  0  0  0  0  0  0  0  0  0
   37.3400   30.5240   52.0960 F   0  0  0  0  0  0  0  0  0  0  0  0
   38.8520   30.8889   50.1116 H   0  0  0  0  0  0  0  0  0  0  0  0
   39.9993   31.8275   48.0900 H   0  0  0  0  0  0  0  0  0  0  0  0
   39.9857   33.9174   45.0785 H   0  0  0  0  0  0  0  0  0  0  0  0
   40.9297   33.4151   46.5065 H   0  0  0  0  0  0  0  0  0  0  0  0
   35.8461   30.3564   45.1448 H   0  0  0  0  0  0  0  0  0  0  0  0
   33.9263   29.8381   43.5978 H   0  0  0  0  0  0  0  0  0  0  0  0
   31.8486   28.9567   44.6310 H   0  0  0  0  0  0  0  0  0  0  0  0
   31.6291   28.5868   47.0966 H   0  0  0  0  0  0  0  0  0  0  0  0
  1 18  1  0
  2  1  2  0
  3  2  1  0
  4  5  1  0
  4  3  2  0
  5  6  2  0
  6  1  1  0
  7  3  1  0
  8  7  1  0
  9  8  2  0
 10  8  1  0
 11  9  1  0
 12 17  1  0
 12  5  1  0
 13 12  2  0
 14 15  2  0
 14 13  1  0
 15 16  1  0
 16 17  2  0
 18 20  1  0
 18 19  1  0
 18 21  1  0
  2 22  1  0
  7 23  1  0
 10 24  1  0
 10 25  1  0
 13 26  1  0
 14 27  1  0
 15 28  1  0
 16 29  1  0
M  ISO  5  22  14  26  14  27  14  28  14  29  14
M  END
>  <minimizedAffinity>  (1) 
-6.60675621

>  <minimizedRMSD>  (1) 
0.402043611

$$$$
