
     RDKit          3D

 36 38  0  0  1  0  0  0  0  0999 V2000
   35.6670   29.1070   48.9490 C   0  0  0  0  0  0  0  0  0  0  0  0
   34.8430   29.3680   47.8240 C   0  0  0  0  0  0  0  0  0  0  0  0
   34.9240   30.0250   46.6260 C   0  0  0  0  0  0  0  0  0  0  0  0
   33.7770   29.9340   45.9120 N   0  0  0  0  0  0  0  0  0  0  0  0
   32.9220   29.2120   46.6320 C   0  0  0  0  0  0  0  0  0  0  0  0
   33.5670   28.8690   47.7900 N   0  0  0  0  0  0  0  0  0  0  0  0
   32.8620   28.0560   48.7940 C   0  0  0  0  0  0  0  0  0  0  0  0
   31.4420   27.7770   48.4480 C   0  0  0  0  0  0  0  0  0  0  0  0
   30.4090   27.7500   49.5410 C   0  0  0  0  0  0  0  0  0  0  0  0
   30.7310   26.5270   48.6980 C   0  0  0  0  0  0  0  0  0  0  0  0
   35.9840   30.1770   49.8790 C   0  0  2  0  0  0  0  0  0  0  0  0
   37.0380   31.1190   49.3400 C   0  0  0  0  0  0  0  0  0  0  0  0
   37.0630   32.4100   49.8580 C   0  0  0  0  0  0  0  0  0  0  0  0
   38.0460   33.2550   49.3070 C   0  0  0  0  0  0  0  0  0  0  0  0
   38.8760   32.7880   48.3460 N   0  0  0  0  0  0  0  0  0  0  0  0
   38.8180   31.4980   47.8600 C   0  0  0  0  0  0  0  0  0  0  0  0
   37.8780   30.6620   48.3760 N   0  0  0  0  0  0  0  0  0  0  0  0
   36.5790   29.5170   51.1810 C   0  0  0  0  0  0  0  0  0  0  0  0
   36.6244   28.7290   48.5610 H   0  0  0  0  0  0  0  0  0  0  0  0
   35.0598   28.4171   49.5535 H   0  0  0  0  0  0  0  0  0  0  0  0
   35.8185   30.5652   46.2825 H   0  0  0  0  0  0  0  0  0  0  0  0
   31.8934   28.9422   46.3506 H   0  0  0  0  0  0  0  0  0  0  0  0
   33.3895   27.0962   48.8962 H   0  0  0  0  0  0  0  0  0  0  0  0
   32.8571   28.6341   49.7298 H   0  0  0  0  0  0  0  0  0  0  0  0
   31.6221   28.3405   47.5206 H   0  0  0  0  0  0  0  0  0  0  0  0
   30.7149   27.7941   50.5967 H   0  0  0  0  0  0  0  0  0  0  0  0
   29.5040   28.3242   49.7883 H   0  0  0  0  0  0  0  0  0  0  0  0
   29.9980   26.1572   47.9659 H   0  0  0  0  0  0  0  0  0  0  0  0
   31.0361   25.4934   48.9182 H   0  0  0  0  0  0  0  0  0  0  0  0
   35.0631   30.7500   50.0624 H   0  0  0  0  0  0  0  0  0  0  0  0
   36.3664   32.7460   50.6402 H   0  0  0  0  0  0  0  0  0  0  0  0
   38.1388   34.2935   49.6576 H   0  0  0  0  0  0  0  0  0  0  0  0
   39.5119   31.1559   47.0780 H   0  0  0  0  0  0  0  0  0  0  0  0
   36.1438   29.9997   52.0685 H   0  0  0  0  0  0  0  0  0  0  0  0
   36.3371   28.4440   51.1915 H   0  0  0  0  0  0  0  0  0  0  0  0
   37.6713   29.6467   51.1915 H   0  0  0  0  0  0  0  0  0  0  0  0
  1 11  1  0
  2  1  1  0
  3  2  2  0
  4  3  1  0
  4  5  2  0
  5  6  1  0
  6  2  1  0
  6  7  1  0
  8 10  1  0
  8  7  1  0
  8  9  1  0
 10  9  1  0
 11 18  1  0
 12 13  2  0
 12 11  1  0
 14 13  1  0
 15 14  2  0
 16 15  1  0
 16 17  2  0
 17 12  1  0
  1 19  1  0
  1 20  1  0
  3 21  1  0
  5 22  1  0
  7 23  1  0
  7 24  1  0
  8 25  1  0
  9 26  1  0
  9 27  1  0
 10 28  1  0
 10 29  1  0
 11 30  1  1
 13 31  1  0
 14 32  1  0
 16 33  1  0
 18 34  1  0
 18 35  1  0
 18 36  1  0
M  ISO  8  19   8  20   8  21  14  22  14  23   8  24   8  25  13  26  13
M  ISO  8  27  13  28  13  29  13  30   8  31  14  32  14  33  14  34   8
M  ISO  2  35   8  36   8
M  END
>  <minimizedAffinity>  (1) 
-5.05063152

>  <minimizedRMSD>  (1) 
1.03109384

$$$$
