
     RDKit          3D

 35 38  0  0  0  0  0  0  0  0999 V2000
   36.3470   30.2850   47.6390 N   0  0  0  0  0  0  0  0  0  0  0  0
   35.0980   29.9650   47.2150 C   0  0  0  0  0  0  0  0  0  0  0  0
   34.7500   30.0670   45.8820 C   0  0  0  0  0  0  0  0  0  0  0  0
   35.7560   30.5070   45.0660 C   0  0  0  0  0  0  0  0  0  0  0  0
   35.4770   30.6150   43.8250 O   0  0  0  0  0  0  0  0  0  0  0  0
   37.0220   30.8420   45.4220 N   0  0  0  0  0  0  0  0  0  0  0  0
   37.2520   30.7030   46.7530 C   0  0  0  0  0  0  0  0  0  0  0  0
   38.3940   30.9890   47.1590 O   0  0  0  0  0  0  0  0  0  0  0  0
   37.0970   31.3520   49.5940 C   0  0  0  0  0  0  0  0  0  0  0  0
   36.6220   30.1580   48.9990 C   0  0  0  0  0  0  0  0  0  0  0  0
   36.4970   29.0330   49.8000 C   0  0  0  0  0  0  0  0  0  0  0  0
   36.8270   29.1030   51.1110 N   0  0  0  0  0  0  0  0  0  0  0  0
   37.2840   30.2620   51.6640 C   0  0  0  0  0  0  0  0  0  0  0  0
   37.4160   31.3870   50.8940 N   0  0  0  0  0  0  0  0  0  0  0  0
   37.9530   31.2830   44.4810 C   0  0  0  0  0  0  0  0  0  0  0  0
   38.3960   32.5550   44.2650 C   0  0  0  0  0  0  0  0  0  0  0  0
   39.3130   32.9040   43.3190 C   0  0  0  0  0  0  0  0  0  0  0  0
   39.8330   31.9090   42.5230 C   0  0  0  0  0  0  0  0  0  0  0  0
   39.3930   30.5920   42.7250 C   0  0  0  0  0  0  0  0  0  0  0  0
   38.4820   30.3310   43.6830 N   0  0  0  0  0  0  0  0  0  0  0  0
   39.9370   29.5000   41.8780 C   0  0  0  0  0  0  0  0  0  0  0  0
   39.1290   28.4220   41.4870 C   0  0  0  0  0  0  0  0  0  0  0  0
   40.2610   27.3910   40.4820 S   0  0  0  0  0  0  0  0  0  0  0  0
   41.6740   28.6300   40.7700 C   0  0  0  0  0  0  0  0  0  0  0  0
   41.1780   29.4110   41.4120 N   0  0  0  0  0  0  0  0  0  0  0  0
   34.3509   29.6189   47.9444 H   0  0  0  0  0  0  0  0  0  0  0  0
   33.7468   29.8152   45.5076 H   0  0  0  0  0  0  0  0  0  0  0  0
   37.2050   32.2597   48.9822 H   0  0  0  0  0  0  0  0  0  0  0  0
   36.1313   28.0879   49.3720 H   0  0  0  0  0  0  0  0  0  0  0  0
   37.5475   30.2939   52.7315 H   0  0  0  0  0  0  0  0  0  0  0  0
   37.9845   33.3547   44.8984 H   0  0  0  0  0  0  0  0  0  0  0  0
   39.6283   33.9506   43.1953 H   0  0  0  0  0  0  0  0  0  0  0  0
   40.5765   32.1409   41.7462 H   0  0  0  0  0  0  0  0  0  0  0  0
   38.0709   28.2399   41.7263 H   0  0  0  0  0  0  0  0  0  0  0  0
   42.7105   28.5934   40.4034 H   0  0  0  0  0  0  0  0  0  0  0  0
  1 10  1  0
  2  1  1  0
  3  2  2  0
  4  6  1  0
  4  3  1  0
  5  4  2  0
  6  7  1  0
  7  8  2  0
  7  1  1  0
  9 14  2  0
 10  9  1  0
 10 11  2  0
 11 12  1  0
 12 13  2  0
 14 13  1  0
 15  6  1  0
 16 15  2  0
 17 16  1  0
 18 19  1  0
 18 17  2  0
 19 20  2  0
 20 15  1  0
 21 19  1  0
 22 21  2  0
 23 24  1  0
 23 22  1  0
 24 25  2  0
 25 21  1  0
  2 26  1  0
  3 27  1  0
  9 28  1  0
 11 29  1  0
 13 30  1  0
 16 31  1  0
 17 32  1  0
 18 33  1  0
 22 34  1  0
 24 35  1  0
M  ISO  8  26  14  27  14  28  14  29  14  30  14  31  14  32  14  33  14
M  ISO  2  34  14  35  14
M  END
>  <minimizedAffinity>  (1) 
-5.43406296

>  <minimizedRMSD>  (1) 
0.610657871

$$$$
