
     RDKit          3D

 37 40  0  0  1  0  0  0  0  0999 V2000
   37.5390   31.3860   48.6400 N   0  0  0  0  0  0  0  0  0  0  0  0
   38.3900   31.6600   49.7850 C   0  0  0  0  0  0  0  0  0  0  0  0
   38.7220   33.1150   49.5730 C   0  0  0  0  0  0  0  0  0  0  0  0
   39.0620   33.0940   48.1030 C   0  0  0  0  0  0  0  0  0  0  0  0
   37.8920   32.2960   47.5850 C   0  0  1  0  0  0  0  0  0  0  0  0
   36.4380   29.2910   49.3980 C   0  0  0  0  0  0  0  0  0  0  0  0
   36.5330   30.4080   48.5390 C   0  0  0  0  0  0  0  0  0  0  0  0
   35.5730   30.5680   47.5140 C   0  0  0  0  0  0  0  0  0  0  0  0
   34.5910   29.6280   47.4040 N   0  0  0  0  0  0  0  0  0  0  0  0
   34.5280   28.5600   48.2530 C   0  0  0  0  0  0  0  0  0  0  0  0
   35.4420   28.3970   49.2360 N   0  0  0  0  0  0  0  0  0  0  0  0
   38.2780   31.6570   46.3280 C   0  0  0  0  0  0  0  0  0  0  0  0
   38.9570   30.4480   46.1120 C   0  0  0  0  0  0  0  0  0  0  0  0
   39.2320   30.0330   44.8390 C   0  0  0  0  0  0  0  0  0  0  0  0
   38.8500   30.7850   43.8150 N   0  0  0  0  0  0  0  0  0  0  0  0
   38.2030   31.9410   43.9860 C   0  0  0  0  0  0  0  0  0  0  0  0
   37.9330   32.3480   45.2470 N   0  0  0  0  0  0  0  0  0  0  0  0
   37.8180   32.7090   42.8050 C   0  0  0  0  0  0  0  0  0  0  0  0
   36.5920   33.0030   42.2640 C   0  0  0  0  0  0  0  0  0  0  0  0
   36.8400   33.7640   41.1440 C   0  0  0  0  0  0  0  0  0  0  0  0
   38.2180   33.8870   41.0730 C   0  0  0  0  0  0  0  0  0  0  0  0
   38.7710   33.2430   42.0830 O   0  0  0  0  0  0  0  0  0  0  0  0
   37.8518   31.5047   50.7317 H   0  0  0  0  0  0  0  0  0  0  0  0
   39.2710   31.0051   49.8553 H   0  0  0  0  0  0  0  0  0  0  0  0
   37.8602   33.7654   49.7835 H   0  0  0  0  0  0  0  0  0  0  0  0
   39.5140   33.5097   50.2264 H   0  0  0  0  0  0  0  0  0  0  0  0
   39.0894   34.1066   47.6742 H   0  0  0  0  0  0  0  0  0  0  0  0
   40.0525   32.6828   47.8586 H   0  0  0  0  0  0  0  0  0  0  0  0
   37.0053   32.9000   47.3419 H   0  0  0  0  0  0  0  0  0  0  0  0
   37.1775   29.1503   50.2001 H   0  0  0  0  0  0  0  0  0  0  0  0
   35.6166   31.4249   46.8257 H   0  0  0  0  0  0  0  0  0  0  0  0
   33.7215   27.8213   48.1353 H   0  0  0  0  0  0  0  0  0  0  0  0
   39.2686   29.8329   46.9691 H   0  0  0  0  0  0  0  0  0  0  0  0
   39.7641   29.0860   44.6655 H   0  0  0  0  0  0  0  0  0  0  0  0
   35.6089   32.6931   42.6479 H   0  0  0  0  0  0  0  0  0  0  0  0
   36.0984   34.1864   40.4500 H   0  0  0  0  0  0  0  0  0  0  0  0
   38.7667   34.4370   40.2943 H   0  0  0  0  0  0  0  0  0  0  0  0
  1  2  1  0
  3  2  1  0
  4  3  1  0
  5  4  1  0
  5  1  1  0
  7  1  1  0
  7  6  2  0
  8  7  1  0
  9  8  2  0
  9 10  1  0
 10 11  2  0
 11  6  1  0
 12  5  1  0
 13 12  2  0
 14 13  1  0
 15 16  1  0
 15 14  2  0
 16 17  2  0
 17 12  1  0
 18 16  1  0
 19 18  2  0
 20 19  1  0
 21 20  2  0
 21 22  1  0
 22 18  1  0
  2 23  1  0
  2 24  1  0
  3 25  1  0
  3 26  1  0
  4 27  1  0
  4 28  1  0
  5 29  1  6
  6 30  1  0
  8 31  1  0
 10 32  1  0
 13 33  1  0
 14 34  1  0
 19 35  1  0
 20 36  1  0
 21 37  1  0
M  ISO  8  23  13  24  13  25  13  26  13  27  13  28  13  29  13  30  14
M  ISO  7  31  14  32  14  33  14  34  14  35  14  36  14  37  14
M  END
>  <minimizedAffinity>  (1) 
-5.72740746

>  <minimizedRMSD>  (1) 
0.568078518

$$$$
