
     RDKit          3D

 43 46  0  0  1  0  0  0  0  0999 V2000
   29.9140   27.6590   45.3890 C   0  0  2  0  0  0  0  0  0  0  0  0
   29.1380   23.6430   45.5110 C   0  0  0  0  0  0  0  0  0  0  0  0
   30.4480   23.9740   45.9170 C   0  0  0  0  0  0  0  0  0  0  0  0
   30.7870   25.2750   45.9030 C   0  0  0  0  0  0  0  0  0  0  0  0
   29.8690   26.1690   45.5080 C   0  0  0  0  0  0  0  0  0  0  0  0
   28.3580   25.2300   45.0930 S   0  0  0  0  0  0  0  0  0  0  0  0
   28.2610   20.1880   46.4110 C   0  0  0  0  0  0  0  0  0  0  0  0
   27.4060   19.8040   45.3410 C   0  0  0  0  0  0  0  0  0  0  0  0
   27.1530   20.7360   44.3390 C   0  0  0  0  0  0  0  0  0  0  0  0
   27.7320   21.9530   44.4400 N   0  0  0  0  0  0  0  0  0  0  0  0
   28.5180   22.2840   45.4370 C   0  0  0  0  0  0  0  0  0  0  0  0
   28.8310   21.4270   46.4800 N   0  0  0  0  0  0  0  0  0  0  0  0
   30.5530   28.0390   44.1300 C   0  0  0  0  0  0  0  0  0  0  0  0
   30.5860   28.1750   46.6470 C   0  0  0  0  0  0  0  0  0  0  0  0
   29.8010   28.6490   47.5740 O   0  0  0  0  0  0  0  0  0  0  0  0
   28.5840   28.9650   47.9750 C   0  0  0  0  0  0  0  0  0  0  0  0
   27.5720   29.7550   47.4810 C   0  0  0  0  0  0  0  0  0  0  0  0
   26.3370   29.9810   48.0380 C   0  0  0  0  0  0  0  0  0  0  0  0
   26.1200   29.3260   49.2290 C   0  0  0  0  0  0  0  0  0  0  0  0
   27.0480   28.5090   49.8280 C   0  0  0  0  0  0  0  0  0  0  0  0
   26.6820   27.9240   51.0190 C   0  0  0  0  0  0  0  0  0  0  0  0
   27.5950   27.1050   51.6330 C   0  0  0  0  0  0  0  0  0  0  0  0
   28.8240   26.8800   51.0800 C   0  0  0  0  0  0  0  0  0  0  0  0
   29.1330   27.4900   49.8890 C   0  0  0  0  0  0  0  0  0  0  0  0
   28.2780   28.3370   49.1900 C   0  0  0  0  0  0  0  0  0  0  0  0
   28.9183   28.1232   45.3329 H   0  0  0  0  0  0  0  0  0  0  0  0
   31.1627   23.1994   46.2321 H   0  0  0  0  0  0  0  0  0  0  0  0
   31.7932   25.5982   46.2082 H   0  0  0  0  0  0  0  0  0  0  0  0
   28.4702   19.4619   47.2104 H   0  0  0  0  0  0  0  0  0  0  0  0
   26.9580   18.8000   45.3066 H   0  0  0  0  0  0  0  0  0  0  0  0
   26.5002   20.4891   43.4888 H   0  0  0  0  0  0  0  0  0  0  0  0
   31.4808   28.5907   44.3416 H   0  0  0  0  0  0  0  0  0  0  0  0
   30.7885   27.1341   43.5506 H   0  0  0  0  0  0  0  0  0  0  0  0
   29.8704   28.6780   43.5506 H   0  0  0  0  0  0  0  0  0  0  0  0
   31.1570   27.3435   47.0858 H   0  0  0  0  0  0  0  0  0  0  0  0
   31.1986   29.0283   46.3204 H   0  0  0  0  0  0  0  0  0  0  0  0
   27.7757   30.2656   46.5282 H   0  0  0  0  0  0  0  0  0  0  0  0
   25.5834   30.6319   47.5707 H   0  0  0  0  0  0  0  0  0  0  0  0
   25.1499   29.4643   49.7288 H   0  0  0  0  0  0  0  0  0  0  0  0
   25.6922   28.1069   51.4627 H   0  0  0  0  0  0  0  0  0  0  0  0
   27.3336   26.6216   52.5859 H   0  0  0  0  0  0  0  0  0  0  0  0
   29.5517   26.2231   51.5790 H   0  0  0  0  0  0  0  0  0  0  0  0
   30.1259   27.2955   49.4572 H   0  0  0  0  0  0  0  0  0  0  0  0
  1  5  1  0
  1 14  1  0
  2  3  2  0
  4  3  1  0
  5  4  2  0
  6  5  1  0
  6  2  1  0
  7 12  2  0
  8  7  1  0
  9 10  1  0
  9  8  2  0
 10 11  2  0
 11  2  1  0
 11 12  1  0
 13  1  1  0
 14 15  1  0
 15 16  1  0
 16 25  1  0
 17 16  2  0
 17 18  1  0
 18 19  2  0
 19 20  1  0
 20 21  1  0
 21 22  2  0
 23 22  1  0
 24 23  2  0
 25 20  2  0
 25 24  1  0
  1 26  1  6
  3 27  1  0
  4 28  1  0
  7 29  1  0
  8 30  1  0
  9 31  1  0
 13 32  1  0
 13 33  1  0
 13 34  1  0
 14 35  1  0
 14 36  1  0
 17 37  1  0
 18 38  1  0
 19 39  1  0
 21 40  1  0
 22 41  1  0
 23 42  1  0
 24 43  1  0
M  ISO  8  26   8  27  14  28  14  29  14  30  14  31  14  32   8  33   8
M  ISO  8  34   8  35   8  36   8  37  14  38  14  39  14  40  14  41  14
M  ISO  2  42  14  43  14
M  END
>  <minimizedAffinity>  (1) 
-5.44599867

>  <minimizedRMSD>  (1) 
8.84776211

$$$$
