
     RDKit          3D

 37 40  0  0  1  0  0  0  0  0999 V2000
   35.2450   29.1960   48.6070 C   0  0  2  0  0  0  0  0  0  0  0  0
   34.0300   29.3130   49.4060 C   0  0  0  0  0  0  0  0  0  0  0  0
   34.3870   27.9690   49.0610 C   0  0  1  0  0  0  0  0  0  0  0  0
   36.5720   29.2330   49.3820 C   0  0  0  0  0  0  0  0  0  0  0  0
   37.6220   32.7260   49.5630 C   0  0  0  0  0  0  0  0  0  0  0  0
   38.4910   32.8460   48.4650 C   0  0  0  0  0  0  0  0  0  0  0  0
   38.7020   31.6970   47.6680 C   0  0  0  0  0  0  0  0  0  0  0  0
   38.0510   30.5410   48.0120 N   0  0  0  0  0  0  0  0  0  0  0  0
   37.2370   30.4870   49.0660 C   0  0  0  0  0  0  0  0  0  0  0  0
   37.0310   31.5890   49.8360 N   0  0  0  0  0  0  0  0  0  0  0  0
   33.5390   27.3220   47.9830 C   0  0  0  0  0  0  0  0  0  0  0  0
   33.8730   26.0920   47.7530 O   0  0  0  0  0  0  0  0  0  0  0  0
   32.4940   27.9240   47.2810 O   0  0  0  0  0  0  0  0  0  0  0  0
   31.2380   28.0790   47.8060 C   0  0  0  0  0  0  0  0  0  0  0  0
   30.7950   27.5920   49.1340 C   0  0  0  0  0  0  0  0  0  0  0  0
   29.5200   27.8290   49.4990 C   0  0  0  0  0  0  0  0  0  0  0  0
   28.6200   28.5160   48.6640 C   0  0  0  0  0  0  0  0  0  0  0  0
   29.6510   28.8940   47.1640 S   0  0  0  0  0  0  0  0  0  0  0  0
   27.3010   28.8830   48.7880 C   0  0  0  0  0  0  0  0  0  0  0  0
   26.2080   28.0520   48.8950 C   0  0  0  0  0  0  0  0  0  0  0  0
   25.0800   28.8780   48.9990 C   0  0  0  0  0  0  0  0  0  0  0  0
   25.5880   30.1810   48.9430 C   0  0  0  0  0  0  0  0  0  0  0  0
   26.8940   30.1280   48.8200 O   0  0  0  0  0  0  0  0  0  0  0  0
   35.6031   29.6661   47.6792 H   0  0  0  0  0  0  0  0  0  0  0  0
   34.1095   29.6342   50.4550 H   0  0  0  0  0  0  0  0  0  0  0  0
   33.1057   29.8945   49.2737 H   0  0  0  0  0  0  0  0  0  0  0  0
   34.5746   27.0342   49.6095 H   0  0  0  0  0  0  0  0  0  0  0  0
   36.3757   29.1756   50.4628 H   0  0  0  0  0  0  0  0  0  0  0  0
   37.2061   28.3800   49.0987 H   0  0  0  0  0  0  0  0  0  0  0  0
   37.4351   33.6006   50.2034 H   0  0  0  0  0  0  0  0  0  0  0  0
   38.9890   33.7992   48.2339 H   0  0  0  0  0  0  0  0  0  0  0  0
   39.3708   31.7302   46.7953 H   0  0  0  0  0  0  0  0  0  0  0  0
   31.4854   27.0541   49.8004 H   0  0  0  0  0  0  0  0  0  0  0  0
   29.1719   27.4743   50.4803 H   0  0  0  0  0  0  0  0  0  0  0  0
   26.2181   26.9521   48.8982 H   0  0  0  0  0  0  0  0  0  0  0  0
   24.0289   28.5703   49.1018 H   0  0  0  0  0  0  0  0  0  0  0  0
   24.9888   31.1021   48.9939 H   0  0  0  0  0  0  0  0  0  0  0  0
  1  3  1  0
  1  4  1  0
  1  2  1  0
  3  2  1  0
  5 10  2  0
  6  5  1  0
  7  8  1  0
  7  6  2  0
  8  9  2  0
  9  4  1  0
  9 10  1  0
 11  3  1  0
 12 11  2  0
 13 14  1  0
 13 11  1  0
 14 15  2  0
 15 16  1  0
 17 19  1  0
 17 16  2  0
 18 14  1  0
 18 17  1  0
 19 23  1  0
 19 20  2  0
 20 21  1  0
 22 21  2  0
 23 22  1  0
  1 24  1  6
  2 25  1  0
  2 26  1  0
  3 27  1  1
  4 28  1  0
  4 29  1  0
  5 30  1  0
  6 31  1  0
  7 32  1  0
 15 33  1  0
 16 34  1  0
 20 35  1  0
 21 36  1  0
 22 37  1  0
M  ISO  8  24  13  25  13  26  13  27  13  28   8  29   8  30  14  31  14
M  ISO  6  32  14  33  14  34  14  35  14  36  14  37  14
M  END
>  <minimizedAffinity>  (1) 
-6.29651403

>  <minimizedRMSD>  (1) 
1.58476329

$$$$
