
     RDKit          3D

 30 31  0  0  1  0  0  0  0  0999 V2000
   34.9200   29.4150   48.5860 C   0  0  0  0  0  0  0  0  0  0  0  0
   34.4240   28.2440   49.1780 C   0  0  0  0  0  0  0  0  0  0  0  0
   33.3160   27.7120   48.6140 C   0  0  0  0  0  0  0  0  0  0  0  0
   32.7700   28.3020   47.5650 C   0  0  0  0  0  0  0  0  0  0  0  0
   33.7990   29.7590   47.2190 S   0  0  0  0  0  0  0  0  0  0  0  0
   37.7400   30.6280   50.6100 C   0  0  0  0  0  0  0  0  0  0  0  0
   38.3610   31.5520   49.7580 C   0  0  0  0  0  0  0  0  0  0  0  0
   37.8040   31.7570   48.4970 C   0  0  0  0  0  0  0  0  0  0  0  0
   36.6950   31.0460   48.1780 N   0  0  0  0  0  0  0  0  0  0  0  0
   36.1320   30.1840   48.9960 C   0  0  0  0  0  0  0  0  0  0  0  0
   36.6290   29.9430   50.2400 N   0  0  0  0  0  0  0  0  0  0  0  0
   31.6040   27.9570   46.7310 C   0  0  2  0  0  0  0  0  0  0  0  0
   31.6490   28.6730   45.4560 C   0  0  0  0  0  0  0  0  0  0  0  0
   30.3480   28.1790   47.5450 C   0  0  0  0  0  0  0  0  0  0  0  0
   29.7350   27.0030   47.9030 O   0  0  0  0  0  0  0  0  0  0  0  0
   28.4730   26.6670   47.4350 C   0  0  0  0  0  0  0  0  0  0  0  0
   28.2760   25.8400   46.5050 O   0  0  0  0  0  0  0  0  0  0  0  0
   27.2220   27.1090   47.8300 O   0  0  0  0  0  0  0  0  0  0  0  0
   34.9090   27.7844   50.0518 H   0  0  0  0  0  0  0  0  0  0  0  0
   32.8719   26.7938   49.0258 H   0  0  0  0  0  0  0  0  0  0  0  0
   38.1665   30.4531   51.6088 H   0  0  0  0  0  0  0  0  0  0  0  0
   39.2611   32.0989   50.0753 H   0  0  0  0  0  0  0  0  0  0  0  0
   38.2482   32.4698   47.7866 H   0  0  0  0  0  0  0  0  0  0  0  0
   31.6145   26.8942   46.4475 H   0  0  0  0  0  0  0  0  0  0  0  0
   31.7170   29.7545   45.6450 H   0  0  0  0  0  0  0  0  0  0  0  0
   32.5283   28.3451   44.8822 H   0  0  0  0  0  0  0  0  0  0  0  0
   30.7356   28.4578   44.8822 H   0  0  0  0  0  0  0  0  0  0  0  0
   30.6136   28.7302   48.4591 H   0  0  0  0  0  0  0  0  0  0  0  0
   29.6420   28.7455   46.9199 H   0  0  0  0  0  0  0  0  0  0  0  0
   26.4101   26.7611   47.3829 H   0  0  0  0  0  0  0  0  0  0  0  0
  1 10  1  0
  1  2  2  0
  3  2  1  0
  4  3  2  0
  5  4  1  0
  5  1  1  0
  7  6  2  0
  8  7  1  0
  9  8  2  0
  9 10  1  0
 10 11  2  0
 11  6  1  0
 12 14  1  0
 12  4  1  0
 13 12  1  0
 14 15  1  0
 16 18  1  0
 16 15  1  0
 17 16  2  0
  2 19  1  0
  3 20  1  0
  6 21  1  0
  7 22  1  0
  8 23  1  0
 12 24  1  6
 13 25  1  0
 13 26  1  0
 13 27  1  0
 14 28  1  0
 14 29  1  0
 18 30  1  0
M  ISO  8  19  14  20  14  21  14  22  14  23  14  24   8  25   8  26   8
M  ISO  4  27   8  28   8  29   8  30   3
M  END
>  <minimizedAffinity>  (1) 
-4.36785698

>  <minimizedRMSD>  (1) 
1.28414977

$$$$
