
     RDKit          3D

 28 30  0  0  0  0  0  0  0  0999 V2000
   37.1740   30.1150   49.4460 C   0  0  0  0  0  0  0  0  0  0  0  0
   37.9510   30.9640   50.2520 C   0  0  0  0  0  0  0  0  0  0  0  0
   38.6410   31.9850   49.6180 C   0  0  0  0  0  0  0  0  0  0  0  0
   38.5340   32.1120   48.2830 N   0  0  0  0  0  0  0  0  0  0  0  0
   37.7950   31.3010   47.5310 C   0  0  0  0  0  0  0  0  0  0  0  0
   37.1370   30.3260   48.1390 N   0  0  0  0  0  0  0  0  0  0  0  0
   37.5530   31.2840   46.0790 C   0  0  0  0  0  0  0  0  0  0  0  0
   36.5700   30.5530   45.4770 N   0  0  0  0  0  0  0  0  0  0  0  0
   36.3350   30.5240   44.1750 C   0  0  0  0  0  0  0  0  0  0  0  0
   37.0720   31.2360   43.3090 N   0  0  0  0  0  0  0  0  0  0  0  0
   38.0580   31.9820   43.8030 C   0  0  0  0  0  0  0  0  0  0  0  0
   38.8050   32.7090   42.9120 C   0  0  0  0  0  0  0  0  0  0  0  0
   39.8500   33.5120   43.3430 C   0  0  0  0  0  0  0  0  0  0  0  0
   40.0790   33.5290   44.7150 C   0  0  0  0  0  0  0  0  0  0  0  0
   39.3030   32.7840   45.5680 C   0  0  0  0  0  0  0  0  0  0  0  0
   38.2810   31.9960   45.1560 C   0  0  0  0  0  0  0  0  0  0  0  0
   36.4720   29.0850   50.0410 O   0  0  0  0  0  0  0  0  0  0  0  0
   35.1500   29.1400   50.4500 C   0  0  0  0  0  0  0  0  0  0  0  0
   35.0020   29.0530   51.8230 F   0  0  0  0  0  0  0  0  0  0  0  0
   34.4600   30.2140   49.9680 F   0  0  0  0  0  0  0  0  0  0  0  0
   34.5410   27.9910   49.9040 F   0  0  0  0  0  0  0  0  0  0  0  0
   38.0092   30.8240   51.3415 H   0  0  0  0  0  0  0  0  0  0  0  0
   39.2662   32.6805   50.1971 H   0  0  0  0  0  0  0  0  0  0  0  0
   35.5139   29.8998   43.7927 H   0  0  0  0  0  0  0  0  0  0  0  0
   38.5715   32.6543   41.8385 H   0  0  0  0  0  0  0  0  0  0  0  0
   40.4610   34.1000   42.6424 H   0  0  0  0  0  0  0  0  0  0  0  0
   40.8926   34.1475   45.1218 H   0  0  0  0  0  0  0  0  0  0  0  0
   39.5231   32.8294   46.6448 H   0  0  0  0  0  0  0  0  0  0  0  0
  1 17  1  0
  1  2  2  0
  3  2  1  0
  4  3  2  0
  5  6  2  0
  5  4  1  0
  6  1  1  0
  7  5  1  0
  8  7  2  0
  9  8  1  0
 10 11  1  0
 10  9  2  0
 11 16  2  0
 12 13  2  0
 12 11  1  0
 13 14  1  0
 14 15  2  0
 16 15  1  0
 16  7  1  0
 17 18  1  0
 18 19  1  0
 20 18  1  0
 21 18  1  0
  2 22  1  0
  3 23  1  0
  9 24  1  0
 12 25  1  0
 13 26  1  0
 14 27  1  0
 15 28  1  0
M  ISO  7  22  14  23  14  24  14  25  14  26  14  27  14  28  14
M  END
>  <minimizedAffinity>  (1) 
-6.23192215

>  <minimizedRMSD>  (1) 
1.59269869

$$$$
