
     RDKit          3D

 48 50  0  0  0  0  0  0  0  0999 V2000
   36.6650   30.8380   44.6670 C   0  0  0  0  0  0  0  0  0  0  0  0
   33.5570   28.9040   45.5380 C   0  0  0  0  0  0  0  0  0  0  0  0
   34.5660   29.5750   44.7930 C   0  0  0  0  0  0  0  0  0  0  0  0
   35.6340   30.1530   45.4100 C   0  0  0  0  0  0  0  0  0  0  0  0
   35.6800   30.0550   46.7760 N   0  0  0  0  0  0  0  0  0  0  0  0
   34.7460   29.4330   47.4640 C   0  0  0  0  0  0  0  0  0  0  0  0
   33.6960   28.8590   46.9050 N   0  0  0  0  0  0  0  0  0  0  0  0
   34.8290   29.3440   48.9630 C   0  0  0  0  0  0  0  0  0  0  0  0
   34.7440   30.7190   49.5720 C   0  0  0  0  0  0  0  0  0  0  0  0
   35.9670   30.9290   50.4360 C   0  0  0  0  0  0  0  0  0  0  0  0
   36.8990   31.9830   49.9510 C   0  0  0  0  0  0  0  0  0  0  0  0
   38.2440   31.3460   49.8010 C   0  0  0  0  0  0  0  0  0  0  0  0
   38.0520   29.8690   49.8740 C   0  0  0  0  0  0  0  0  0  0  0  0
   36.7530   29.6380   50.5730 C   0  0  0  0  0  0  0  0  0  0  0  0
   37.7360   29.9970   44.1150 C   0  0  0  0  0  0  0  0  0  0  0  0
   38.4230   30.4110   42.9590 N   0  0  0  0  0  0  0  0  0  0  0  0
   38.1630   31.4480   42.1590 C   0  0  0  0  0  0  0  0  0  0  0  0
   38.8830   31.7990   41.0470 C   0  0  0  0  0  0  0  0  0  0  0  0
   39.9670   31.0490   40.6920 C   0  0  0  0  0  0  0  0  0  0  0  0
   40.6720   31.2990   39.7000 O   0  0  0  0  0  0  0  0  0  0  0  0
   40.2430   30.0220   41.4660 N   0  0  0  0  0  0  0  0  0  0  0  0
   39.5350   29.6990   42.5360 C   0  0  0  0  0  0  0  0  0  0  0  0
   39.8760   28.6850   43.2260 O   0  0  0  0  0  0  0  0  0  0  0  0
   41.4010   29.2050   41.1080 C   0  0  0  0  0  0  0  0  0  0  0  0
   42.0880   28.8230   42.2460 F   0  0  0  0  0  0  0  0  0  0  0  0
   42.2350   29.9740   40.3330 F   0  0  0  0  0  0  0  0  0  0  0  0
   40.9540   28.1130   40.4250 F   0  0  0  0  0  0  0  0  0  0  0  0
   36.1826   31.3605   43.8278 H   0  0  0  0  0  0  0  0  0  0  0  0
   37.1575   31.5026   45.3921 H   0  0  0  0  0  0  0  0  0  0  0  0
   32.6956   28.4374   45.0378 H   0  0  0  0  0  0  0  0  0  0  0  0
   34.4822   29.6282   43.6975 H   0  0  0  0  0  0  0  0  0  0  0  0
   33.9971   28.7291   49.3370 H   0  0  0  0  0  0  0  0  0  0  0  0
   35.7897   28.8868   49.2424 H   0  0  0  0  0  0  0  0  0  0  0  0
   34.7155   31.4777   48.7761 H   0  0  0  0  0  0  0  0  0  0  0  0
   33.8304   30.8107   50.1777 H   0  0  0  0  0  0  0  0  0  0  0  0
   35.5652   31.2660   51.4029 H   0  0  0  0  0  0  0  0  0  0  0  0
   36.5559   32.3729   48.9813 H   0  0  0  0  0  0  0  0  0  0  0  0
   36.9410   32.8241   50.6586 H   0  0  0  0  0  0  0  0  0  0  0  0
   38.9094   31.6786   50.6113 H   0  0  0  0  0  0  0  0  0  0  0  0
   38.7020   31.6299   48.8420 H   0  0  0  0  0  0  0  0  0  0  0  0
   38.0187   29.4407   48.8613 H   0  0  0  0  0  0  0  0  0  0  0  0
   38.8818   29.3888   50.4133 H   0  0  0  0  0  0  0  0  0  0  0  0
   36.9262   29.4071   51.6345 H   0  0  0  0  0  0  0  0  0  0  0  0
   36.2080   28.7872   50.1382 H   0  0  0  0  0  0  0  0  0  0  0  0
   38.4890   29.8785   44.9080 H   0  0  0  0  0  0  0  0  0  0  0  0
   37.2059   29.0908   43.7866 H   0  0  0  0  0  0  0  0  0  0  0  0
   37.2959   32.0748   42.4146 H   0  0  0  0  0  0  0  0  0  0  0  0
   38.5911   32.6742   40.4480 H   0  0  0  0  0  0  0  0  0  0  0  0
  1  4  1  0
  2  7  2  0
  3  4  2  0
  3  2  1  0
  4  5  1  0
  5  6  2  0
  6  8  1  0
  7  6  1  0
  8  9  1  0
  9 10  1  0
 10 14  1  0
 11 10  1  0
 12 13  1  0
 12 11  1  0
 13 14  1  0
 15  1  1  0
 16 15  1  0
 17 16  1  0
 18 17  2  0
 19 18  1  0
 19 21  1  0
 20 19  2  0
 21 22  1  0
 22 16  1  0
 22 23  2  0
 24 21  1  0
 24 25  1  0
 26 24  1  0
 27 24  1  0
  1 28  1  0
  1 29  1  0
  2 30  1  0
  3 31  1  0
  8 32  1  0
  8 33  1  0
  9 34  1  0
  9 35  1  0
 10 36  1  0
 11 37  1  0
 11 38  1  0
 12 39  1  0
 12 40  1  0
 13 41  1  0
 13 42  1  0
 14 43  1  0
 14 44  1  0
 15 45  1  0
 15 46  1  0
 17 47  1  0
 18 48  1  0
M  ISO  8  28   8  29   8  30  14  31  14  32   8  33   8  34   8  35   8
M  ISO  8  36  13  37  13  38  13  39  13  40  13  41  13  42  13  43  13
M  ISO  5  44  13  45   8  46   8  47  14  48  14
M  END
>  <minimizedAffinity>  (1) 
-5.31413031

>  <minimizedRMSD>  (1) 
4.25729465

$$$$
