
     RDKit          3D

 33 35  0  0  1  0  0  0  0  0999 V2000
   35.8580   29.8820   49.8490 C   0  0  2  0  0  0  0  0  0  0  0  0
   35.0960   29.1580   50.8770 C   0  0  0  0  0  0  0  0  0  0  0  0
   35.1270   28.5560   49.5540 C   0  0  1  0  0  0  0  0  0  0  0  0
   37.3780   29.7100   49.8650 C   0  0  0  0  0  0  0  0  0  0  0  0
   38.6970   33.0750   49.2720 C   0  0  0  0  0  0  0  0  0  0  0  0
   39.0500   33.0440   47.9130 C   0  0  0  0  0  0  0  0  0  0  0  0
   38.8250   31.8460   47.2120 C   0  0  0  0  0  0  0  0  0  0  0  0
   38.2820   30.7950   47.8930 N   0  0  0  0  0  0  0  0  0  0  0  0
   37.9610   30.8720   49.1890 C   0  0  0  0  0  0  0  0  0  0  0  0
   38.1720   32.0180   49.8740 N   0  0  0  0  0  0  0  0  0  0  0  0
   33.8510   28.6340   48.7690 C   0  0  0  0  0  0  0  0  0  0  0  0
   33.9660   29.2080   47.6180 O   0  0  0  0  0  0  0  0  0  0  0  0
   32.6240   28.1420   49.1820 O   0  0  0  0  0  0  0  0  0  0  0  0
   31.8600   27.3470   48.3740 C   0  0  0  0  0  0  0  0  0  0  0  0
   30.5530   27.8330   48.2370 C   0  0  0  0  0  0  0  0  0  0  0  0
   29.6340   27.1430   47.4430 C   0  0  0  0  0  0  0  0  0  0  0  0
   30.0160   25.9830   46.7950 C   0  0  0  0  0  0  0  0  0  0  0  0
   31.3080   25.5030   46.9300 C   0  0  0  0  0  0  0  0  0  0  0  0
   32.2080   26.2010   47.7230 C   0  0  0  0  0  0  0  0  0  0  0  0
   35.8570   30.9189   49.4819 H   0  0  0  0  0  0  0  0  0  0  0  0
   35.6334   28.6710   51.7041 H   0  0  0  0  0  0  0  0  0  0  0  0
   34.2808   29.4468   51.5567 H   0  0  0  0  0  0  0  0  0  0  0  0
   35.4189   27.5838   49.1301 H   0  0  0  0  0  0  0  0  0  0  0  0
   37.7391   29.6592   50.9028 H   0  0  0  0  0  0  0  0  0  0  0  0
   37.6675   28.7797   49.3544 H   0  0  0  0  0  0  0  0  0  0  0  0
   38.8600   33.9971   49.8492 H   0  0  0  0  0  0  0  0  0  0  0  0
   39.4858   33.9232   47.4160 H   0  0  0  0  0  0  0  0  0  0  0  0
   39.0793   31.7583   46.1454 H   0  0  0  0  0  0  0  0  0  0  0  0
   30.2512   28.7560   48.7537 H   0  0  0  0  0  0  0  0  0  0  0  0
   28.6073   27.5222   47.3334 H   0  0  0  0  0  0  0  0  0  0  0  0
   29.2916   25.4398   46.1704 H   0  0  0  0  0  0  0  0  0  0  0  0
   31.6167   24.5810   46.4156 H   0  0  0  0  0  0  0  0  0  0  0  0
   33.2336   25.8177   47.8295 H   0  0  0  0  0  0  0  0  0  0  0  0
  1  4  1  0
  1  2  1  0
  3  1  1  0
  3  2  1  0
  5 10  2  0
  6  5  1  0
  7  8  1  0
  7  6  2  0
  8  9  2  0
  9  4  1  0
  9 10  1  0
 11 13  1  0
 11  3  1  0
 12 11  2  0
 14 13  1  0
 15 14  2  0
 16 15  1  0
 17 18  1  0
 17 16  2  0
 18 19  2  0
 19 14  1  0
  1 20  1  6
  2 21  1  0
  2 22  1  0
  3 23  1  1
  4 24  1  0
  4 25  1  0
  5 26  1  0
  6 27  1  0
  7 28  1  0
 15 29  1  0
 16 30  1  0
 17 31  1  0
 18 32  1  0
 19 33  1  0
M  ISO  8  20  13  21  13  22  13  23  13  24   8  25   8  26  14  27  14
M  ISO  6  28  14  29  14  30  14  31  14  32  14  33  14
M  END
>  <minimizedAffinity>  (1) 
-5.07229948

>  <minimizedRMSD>  (1) 
1.15014803

$$$$
