
     RDKit          3D

 39 41  0  0  1  0  0  0  0  0999 V2000
   35.0540   29.8690   48.3970 C   0  0  0  0  0  0  0  0  0  0  0  0
   34.7680   28.9540   49.4470 C   0  0  0  0  0  0  0  0  0  0  0  0
   33.6290   28.2200   49.2810 C   0  0  0  0  0  0  0  0  0  0  0  0
   32.8850   28.3960   48.1970 C   0  0  0  0  0  0  0  0  0  0  0  0
   33.7080   29.6780   47.2000 S   0  0  0  0  0  0  0  0  0  0  0  0
   37.7080   32.2330   49.3530 C   0  0  0  0  0  0  0  0  0  0  0  0
   38.4460   32.3630   48.1580 C   0  0  0  0  0  0  0  0  0  0  0  0
   38.0220   31.6460   47.0550 C   0  0  0  0  0  0  0  0  0  0  0  0
   36.9210   30.8610   47.1870 N   0  0  0  0  0  0  0  0  0  0  0  0
   36.2410   30.7590   48.3360 C   0  0  0  0  0  0  0  0  0  0  0  0
   36.6000   31.4320   49.4560 N   0  0  0  0  0  0  0  0  0  0  0  0
   31.6720   27.6620   47.8230 C   0  0  2  0  0  0  0  0  0  0  0  0
   31.1580   28.3030   46.5480 C   0  0  0  0  0  0  0  0  0  0  0  0
   30.6530   27.6280   48.8980 C   0  0  0  0  0  0  0  0  0  0  0  0
   29.3190   28.1980   48.6670 C   0  0  0  0  0  0  0  0  0  0  0  0
   28.3570   26.9810   48.5260 C   0  0  0  0  0  0  0  0  0  0  0  0
   28.0240   26.7680   49.9900 C   0  0  0  0  0  0  0  0  0  0  0  0
   27.9760   28.1240   50.6490 C   0  0  0  0  0  0  0  0  0  0  0  0
   28.6390   29.0480   49.6560 C   0  0  0  0  0  0  0  0  0  0  0  0
   35.4170   28.8455   50.3285 H   0  0  0  0  0  0  0  0  0  0  0  0
   33.3294   27.4855   50.0431 H   0  0  0  0  0  0  0  0  0  0  0  0
   38.0348   32.7975   50.2387 H   0  0  0  0  0  0  0  0  0  0  0  0
   39.3309   33.0143   48.1055 H   0  0  0  0  0  0  0  0  0  0  0  0
   38.5605   31.7091   46.0979 H   0  0  0  0  0  0  0  0  0  0  0  0
   31.9072   26.6002   47.6578 H   0  0  0  0  0  0  0  0  0  0  0  0
   30.4884   29.1381   46.8016 H   0  0  0  0  0  0  0  0  0  0  0  0
   32.0071   28.6798   45.9589 H   0  0  0  0  0  0  0  0  0  0  0  0
   30.6057   27.5560   45.9589 H   0  0  0  0  0  0  0  0  0  0  0  0
   30.5046   26.5702   49.1609 H   0  0  0  0  0  0  0  0  0  0  0  0
   31.0784   28.2873   49.6689 H   0  0  0  0  0  0  0  0  0  0  0  0
   29.5154   28.8741   47.8219 H   0  0  0  0  0  0  0  0  0  0  0  0
   27.4646   27.2278   47.9321 H   0  0  0  0  0  0  0  0  0  0  0  0
   28.7745   26.1070   48.0047 H   0  0  0  0  0  0  0  0  0  0  0  0
   27.0474   26.2706   50.0840 H   0  0  0  0  0  0  0  0  0  0  0  0
   28.7823   26.1319   50.4700 H   0  0  0  0  0  0  0  0  0  0  0  0
   26.9357   28.4312   50.8320 H   0  0  0  0  0  0  0  0  0  0  0  0
   28.4769   28.1321   51.6283 H   0  0  0  0  0  0  0  0  0  0  0  0
   29.3700   29.6912   50.1679 H   0  0  0  0  0  0  0  0  0  0  0  0
   27.8980   29.7001   49.1705 H   0  0  0  0  0  0  0  0  0  0  0  0
  1  2  2  0
  3  2  1  0
  4  3  2  0
  5  4  1  0
  5  1  1  0
  6 11  2  0
  7  6  1  0
  8  9  1  0
  8  7  2  0
  9 10  2  0
 10  1  1  0
 10 11  1  0
 12  4  1  0
 12 14  1  0
 13 12  1  0
 15 14  1  0
 15 19  1  0
 16 15  1  0
 16 17  1  0
 17 18  1  0
 19 18  1  0
  2 20  1  0
  3 21  1  0
  6 22  1  0
  7 23  1  0
  8 24  1  0
 12 25  1  6
 13 26  1  0
 13 27  1  0
 13 28  1  0
 14 29  1  0
 14 30  1  0
 15 31  1  0
 16 32  1  0
 16 33  1  0
 17 34  1  0
 17 35  1  0
 18 36  1  0
 18 37  1  0
 19 38  1  0
 19 39  1  0
M  ISO  8  20  14  21  14  22  14  23  14  24  14  25   8  26   8  27   8
M  ISO  8  28   8  29   8  30   8  31  13  32  13  33  13  34  13  35  13
M  ISO  4  36  13  37  13  38  13  39  13
M  END
>  <minimizedAffinity>  (1) 
-5.23536491

>  <minimizedRMSD>  (1) 
1.88777828

$$$$
