
     RDKit          3D

 26 27  0  0  0  0  0  0  0  0999 V2000
   38.5150   31.7670   49.6150 C   0  0  0  0  0  0  0  0  0  0  0  0
   37.4850   30.2040   51.1680 C   0  0  0  0  0  0  0  0  0  0  0  0
   37.3780   30.9770   50.0110 C   0  0  0  0  0  0  0  0  0  0  0  0
   36.1810   30.9340   49.3080 C   0  0  0  0  0  0  0  0  0  0  0  0
   35.1780   30.1400   49.7850 N   0  0  0  0  0  0  0  0  0  0  0  0
   35.2980   29.3990   50.9050 C   0  0  0  0  0  0  0  0  0  0  0  0
   36.4590   29.4330   51.5990 N   0  0  0  0  0  0  0  0  0  0  0  0
   38.0920   32.6910   48.4850 C   0  0  0  0  0  0  0  0  0  0  0  0
   38.9180   32.2770   47.2920 C   0  0  0  0  0  0  0  0  0  0  0  0
   38.9170   31.0130   46.7420 C   0  0  0  0  0  0  0  0  0  0  0  0
   39.7220   30.7510   45.6420 C   0  0  0  0  0  0  0  0  0  0  0  0
   40.5250   31.7300   45.0850 C   0  0  0  0  0  0  0  0  0  0  0  0
   40.5210   32.9830   45.6370 C   0  0  0  0  0  0  0  0  0  0  0  0
   39.7240   33.2390   46.7240 C   0  0  0  0  0  0  0  0  0  0  0  0
   38.8678   32.3634   50.4693 H   0  0  0  0  0  0  0  0  0  0  0  0
   39.3308   31.1102   49.2786 H   0  0  0  0  0  0  0  0  0  0  0  0
   38.4231   30.2215   51.7421 H   0  0  0  0  0  0  0  0  0  0  0  0
   36.0445   31.5247   48.3901 H   0  0  0  0  0  0  0  0  0  0  0  0
   34.4615   28.7739   51.2506 H   0  0  0  0  0  0  0  0  0  0  0  0
   37.0199   32.5696   48.2706 H   0  0  0  0  0  0  0  0  0  0  0  0
   38.2506   33.7485   48.7428 H   0  0  0  0  0  0  0  0  0  0  0  0
   38.2853   30.2208   47.1701 H   0  0  0  0  0  0  0  0  0  0  0  0
   39.7214   29.7422   45.2034 H   0  0  0  0  0  0  0  0  0  0  0  0
   41.1565   31.5055   44.2128 H   0  0  0  0  0  0  0  0  0  0  0  0
   41.1517   33.7779   45.2124 H   0  0  0  0  0  0  0  0  0  0  0  0
   39.7288   34.2498   47.1580 H   0  0  0  0  0  0  0  0  0  0  0  0
  1  3  1  0
  2  7  2  0
  3  2  1  0
  4  5  1  0
  4  3  2  0
  5  6  2  0
  6  7  1  0
  8  1  1  0
  9  8  1  0
 10  9  2  0
 11 10  1  0
 12 13  1  0
 12 11  2  0
 13 14  2  0
 14  9  1  0
  1 15  1  0
  1 16  1  0
  2 17  1  0
  4 18  1  0
  6 19  1  0
  8 20  1  0
  8 21  1  0
 10 22  1  0
 11 23  1  0
 12 24  1  0
 13 25  1  0
 14 26  1  0
M  ISO  8  15   8  16   8  17  14  18  14  19  14  20   8  21   8  22  14
M  ISO  4  23  14  24  14  25  14  26  14
M  END
>  <minimizedAffinity>  (1) 
-5.34516764

>  <minimizedRMSD>  (1) 
2.83788633

$$$$
