
     RDKit          3D

 45 47  0  0  1  0  0  0  0  0999 V2000
   35.8140   30.1130   48.1710 C   0  0  0  0  0  0  0  0  0  0  0  0
   37.0350   30.3130   47.5820 C   0  0  0  0  0  0  0  0  0  0  0  0
   37.0680   30.5890   46.1860 C   0  0  0  0  0  0  0  0  0  0  0  0
   35.8770   30.6330   45.5350 N   0  0  0  0  0  0  0  0  0  0  0  0
   34.7110   30.4360   46.1280 C   0  0  0  0  0  0  0  0  0  0  0  0
   34.6860   30.1750   47.4530 N   0  0  0  0  0  0  0  0  0  0  0  0
   33.5060   30.4970   45.3840 N   0  0  0  0  0  0  0  0  0  0  0  0
   33.4280   29.8210   44.1250 C   0  0  0  0  0  0  0  0  0  0  0  0
   34.2320   28.8230   43.8560 N   0  0  0  0  0  0  0  0  0  0  0  0
   32.4400   30.2920   43.1970 N   0  0  0  0  0  0  0  0  0  0  0  0
   34.1650   28.3520   42.9260 H   0  0  0  0  0  0  0  0  0  0  0  0
   38.3290   30.8010   45.5560 N   0  0  0  0  0  0  0  0  0  0  0  0
   38.3380   30.7490   44.1190 C   0  0  0  0  0  0  0  0  0  0  0  0
   39.7360   30.7130   43.5360 C   0  0  0  0  0  0  0  0  0  0  0  0
   40.5270   31.7610   44.3190 C   0  0  0  0  0  0  0  0  0  0  0  0
   40.7570   31.2060   45.6880 C   0  0  0  0  0  0  0  0  0  0  0  0
   39.4620   31.0440   46.3950 C   0  0  1  0  0  0  0  0  0  0  0  0
   39.3120   32.2170   47.2980 C   0  0  0  0  0  0  0  0  0  0  0  0
   39.9660   33.4060   47.0480 C   0  0  0  0  0  0  0  0  0  0  0  0
   39.6830   34.3260   48.0010 N   0  0  0  0  0  0  0  0  0  0  0  0
   38.8390   33.7060   48.8650 C   0  0  0  0  0  0  0  0  0  0  0  0
   38.6150   32.4470   48.4480 N   0  0  0  0  0  0  0  0  0  0  0  0
   35.7480   29.8330   49.5870 C   0  0  0  0  0  0  0  0  0  0  0  0
   35.0960   28.8550   50.0350 O   0  0  0  0  0  0  0  0  0  0  0  0
   36.4330   30.6800   50.4790 O   0  0  0  0  0  0  0  0  0  0  0  0
   37.5300   30.1180   51.1550 C   0  0  0  0  0  0  0  0  0  0  0  0
   37.2860   29.9590   52.4980 F   0  0  0  0  0  0  0  0  0  0  0  0
   38.6430   30.9330   50.9340 F   0  0  0  0  0  0  0  0  0  0  0  0
   37.8570   28.8890   50.6240 F   0  0  0  0  0  0  0  0  0  0  0  0
   37.9627   30.2617   48.1709 H   0  0  0  0  0  0  0  0  0  0  0  0
   32.6964   31.0215   45.7451 H   0  0  0  0  0  0  0  0  0  0  0  0
   32.3416   29.8407   42.2764 H   0  0  0  0  0  0  0  0  0  0  0  0
   31.8292   31.0813   43.4515 H   0  0  0  0  0  0  0  0  0  0  0  0
   37.8010   29.8444   43.7977 H   0  0  0  0  0  0  0  0  0  0  0  0
   37.8530   31.6663   43.7538 H   0  0  0  0  0  0  0  0  0  0  0  0
   40.1825   29.7162   43.6669 H   0  0  0  0  0  0  0  0  0  0  0  0
   39.7354   30.9222   42.4561 H   0  0  0  0  0  0  0  0  0  0  0  0
   41.4899   31.9547   43.8237 H   0  0  0  0  0  0  0  0  0  0  0  0
   39.9749   32.7111   44.3694 H   0  0  0  0  0  0  0  0  0  0  0  0
   41.2519   30.2271   45.6057 H   0  0  0  0  0  0  0  0  0  0  0  0
   41.3940   31.8998   46.2563 H   0  0  0  0  0  0  0  0  0  0  0  0
   39.4880   30.1121   46.9789 H   0  0  0  0  0  0  0  0  0  0  0  0
   40.6293   33.5833   46.1886 H   0  0  0  0  0  0  0  0  0  0  0  0
   38.4053   34.1628   49.7668 H   0  0  0  0  0  0  0  0  0  0  0  0
   38.0104   31.7621   48.9236 H   0  0  0  0  0  0  0  0  0  0  0  0
  1 23  1  0
  2  1  2  0
  3  2  1  0
  4  5  1  0
  4  3  2  0
  5  6  2  0
  6  1  1  0
  7  5  1  0
  8  7  1  0
  9  8  2  0
 10  8  1  0
 11  9  1  0
 12  3  1  0
 12 17  1  0
 13 12  1  0
 14 13  1  0
 14 15  1  0
 15 16  1  0
 16 17  1  0
 17 18  1  0
 18 22  1  0
 19 18  2  0
 19 20  1  0
 20 21  2  0
 22 21  1  0
 23 24  2  0
 23 25  1  0
 25 26  1  0
 26 27  1  0
 28 26  1  0
 29 26  1  0
  2 30  1  0
  7 31  1  0
 10 32  1  0
 10 33  1  0
 13 34  1  0
 13 35  1  0
 14 36  1  0
 14 37  1  0
 15 38  1  0
 15 39  1  0
 16 40  1  0
 16 41  1  0
 17 42  1  1
 19 43  1  0
 21 44  1  0
 22 45  1  0
M  ISO  8  30  14  34  13  35  13  36  13  37  13  38  13  39  13  40  13
M  ISO  5  41  13  42  13  43  14  44  14  45   9
M  END
>  <minimizedAffinity>  (1) 
-6.57431459

>  <minimizedRMSD>  (1) 
1.32602489

$$$$
