
     RDKit          3D

 43 45  0  0  1  0  0  0  0  0999 V2000
   35.7220   29.8950   48.3050 C   0  0  0  0  0  0  0  0  0  0  0  0
   36.9390   30.1540   47.7190 C   0  0  0  0  0  0  0  0  0  0  0  0
   36.9500   30.6110   46.3770 C   0  0  0  0  0  0  0  0  0  0  0  0
   35.7380   30.7590   45.7640 N   0  0  0  0  0  0  0  0  0  0  0  0
   34.5760   30.4970   46.3610 C   0  0  0  0  0  0  0  0  0  0  0  0
   34.5830   30.0640   47.6370 N   0  0  0  0  0  0  0  0  0  0  0  0
   33.3550   30.6720   45.6680 N   0  0  0  0  0  0  0  0  0  0  0  0
   33.2280   30.2140   44.3370 C   0  0  0  0  0  0  0  0  0  0  0  0
   34.0060   29.2550   43.8990 N   0  0  0  0  0  0  0  0  0  0  0  0
   32.2390   30.8250   43.5030 N   0  0  0  0  0  0  0  0  0  0  0  0
   33.9070   28.9160   42.9190 H   0  0  0  0  0  0  0  0  0  0  0  0
   38.1730   30.8940   45.7310 N   0  0  0  0  0  0  0  0  0  0  0  0
   38.1600   31.0340   44.3000 C   0  0  0  0  0  0  0  0  0  0  0  0
   39.5250   31.1110   43.6910 C   0  0  0  0  0  0  0  0  0  0  0  0
   40.3570   32.0290   44.6010 C   0  0  0  0  0  0  0  0  0  0  0  0
   40.6110   31.2270   45.8410 C   0  0  0  0  0  0  0  0  0  0  0  0
   39.3350   31.0220   46.5610 C   0  0  1  0  0  0  0  0  0  0  0  0
   39.1250   32.2110   47.4340 C   0  0  0  0  0  0  0  0  0  0  0  0
   39.9420   33.2790   47.2990 N   0  0  0  0  0  0  0  0  0  0  0  0
   39.6310   34.2270   48.1240 O   0  0  0  0  0  0  0  0  0  0  0  0
   38.5970   33.7780   48.8130 C   0  0  0  0  0  0  0  0  0  0  0  0
   38.2640   32.5440   48.4090 N   0  0  0  0  0  0  0  0  0  0  0  0
   35.7120   29.4230   49.6850 C   0  0  0  0  0  0  0  0  0  0  0  0
   35.2930   28.2800   49.9580 O   0  0  0  0  0  0  0  0  0  0  0  0
   36.1730   30.2520   50.7070 O   0  0  0  0  0  0  0  0  0  0  0  0
   37.4330   29.9120   51.2770 C   0  0  0  0  0  0  0  0  0  0  0  0
   37.3800   29.8630   52.6510 F   0  0  0  0  0  0  0  0  0  0  0  0
   38.3700   30.8490   50.8370 F   0  0  0  0  0  0  0  0  0  0  0  0
   37.8610   28.6930   50.8260 F   0  0  0  0  0  0  0  0  0  0  0  0
   37.8769   30.0107   48.2756 H   0  0  0  0  0  0  0  0  0  0  0  0
   32.5596   31.1326   46.1329 H   0  0  0  0  0  0  0  0  0  0  0  0
   32.1228   30.5126   42.5284 H   0  0  0  0  0  0  0  0  0  0  0  0
   31.6432   31.5773   43.8772 H   0  0  0  0  0  0  0  0  0  0  0  0
   37.6366   30.1669   43.8709 H   0  0  0  0  0  0  0  0  0  0  0  0
   37.6531   31.9838   44.0743 H   0  0  0  0  0  0  0  0  0  0  0  0
   39.9778   30.1096   43.6451 H   0  0  0  0  0  0  0  0  0  0  0  0
   39.4812   31.5023   42.6639 H   0  0  0  0  0  0  0  0  0  0  0  0
   41.3061   32.2975   44.1141 H   0  0  0  0  0  0  0  0  0  0  0  0
   39.8355   32.9722   44.8209 H   0  0  0  0  0  0  0  0  0  0  0  0
   41.0387   30.2515   45.5664 H   0  0  0  0  0  0  0  0  0  0  0  0
   41.3176   31.7655   46.4897 H   0  0  0  0  0  0  0  0  0  0  0  0
   39.4350   30.0687   47.1007 H   0  0  0  0  0  0  0  0  0  0  0  0
   38.0816   34.3383   49.6070 H   0  0  0  0  0  0  0  0  0  0  0  0
  1 23  1  0
  2  1  2  0
  3  2  1  0
  4  5  1  0
  4  3  2  0
  5  6  2  0
  6  1  1  0
  7  5  1  0
  8  7  1  0
  9  8  2  0
 10  8  1  0
 11  9  1  0
 12  3  1  0
 12 17  1  0
 13 12  1  0
 14 13  1  0
 14 15  1  0
 15 16  1  0
 16 17  1  0
 17 18  1  0
 18 22  1  0
 19 18  2  0
 19 20  1  0
 20 21  1  0
 22 21  2  0
 23 24  2  0
 23 25  1  0
 25 26  1  0
 26 27  1  0
 28 26  1  0
 29 26  1  0
  2 30  1  0
  7 31  1  0
 10 32  1  0
 10 33  1  0
 13 34  1  0
 13 35  1  0
 14 36  1  0
 14 37  1  0
 15 38  1  0
 15 39  1  0
 16 40  1  0
 16 41  1  0
 17 42  1  1
 21 43  1  0
M  ISO  8  30  14  34  13  35  13  36  13  37  13  38  13  39  13  40  13
M  ISO  3  41  13  42  13  43  14
M  END
>  <minimizedAffinity>  (1) 
-6.40952063

>  <minimizedRMSD>  (1) 
1.39854324

$$$$
