
     RDKit          3D

 42 45  0  0  0  0  0  0  0  0999 V2000
   36.8560   30.8110   46.0840 C   0  0  0  0  0  0  0  0  0  0  0  0
   35.8300   30.0470   46.6380 C   0  0  0  0  0  0  0  0  0  0  0  0
   35.5130   29.9910   47.9570 C   0  0  0  0  0  0  0  0  0  0  0  0
   36.2300   30.7270   48.8590 C   0  0  0  0  0  0  0  0  0  0  0  0
   37.2370   31.4910   48.3980 C   0  0  0  0  0  0  0  0  0  0  0  0
   37.9550   32.2300   49.3140 C   0  0  0  0  0  0  0  0  0  0  0  0
   38.9890   33.0270   48.9280 C   0  0  0  0  0  0  0  0  0  0  0  0
   39.3070   33.0790   47.5800 C   0  0  0  0  0  0  0  0  0  0  0  0
   38.5720   32.3330   46.7050 C   0  0  0  0  0  0  0  0  0  0  0  0
   37.5460   31.5350   47.0520 C   0  0  0  0  0  0  0  0  0  0  0  0
   36.1560   31.3660   42.6030 C   0  0  0  0  0  0  0  0  0  0  0  0
   37.3280   31.0430   41.9180 C   0  0  0  0  0  0  0  0  0  0  0  0
   38.3940   30.6210   42.6590 C   0  0  0  0  0  0  0  0  0  0  0  0
   38.2030   30.5640   43.9580 N   0  0  0  0  0  0  0  0  0  0  0  0
   37.1600   30.8420   44.6740 C   0  0  0  0  0  0  0  0  0  0  0  0
   36.1420   31.2480   43.9250 N   0  0  0  0  0  0  0  0  0  0  0  0
   39.6400   30.2520   42.1140 N   0  0  0  0  0  0  0  0  0  0  0  0
   40.7600   29.9240   42.9140 C   0  0  0  0  0  0  0  0  0  0  0  0
   40.9770   30.6320   43.9820 N   0  0  0  0  0  0  0  0  0  0  0  0
   41.6140   28.8500   42.5610 N   0  0  0  0  0  0  0  0  0  0  0  0
   41.7070   30.4950   44.6680 H   0  0  0  0  0  0  0  0  0  0  0  0
   37.4050   31.1550   40.4700 C   0  0  0  0  0  0  0  0  0  0  0  0
   37.9220   30.1770   39.7100 N   0  0  0  0  0  0  0  0  0  0  0  0
   37.9000   30.4660   38.4480 O   0  0  0  0  0  0  0  0  0  0  0  0
   37.3650   31.6540   38.3070 C   0  0  0  0  0  0  0  0  0  0  0  0
   37.0690   32.0610   39.5480 N   0  0  0  0  0  0  0  0  0  0  0  0
   35.8880   30.6530   50.1920 O   0  0  0  0  0  0  0  0  0  0  0  0
   36.4090   29.6310   51.0170 C   0  0  0  0  0  0  0  0  0  0  0  0
   37.2260   28.7290   50.3920 F   0  0  0  0  0  0  0  0  0  0  0  0
   37.1890   30.2340   51.9910 F   0  0  0  0  0  0  0  0  0  0  0  0
   35.3090   28.9740   51.5790 F   0  0  0  0  0  0  0  0  0  0  0  0
   35.2265   29.4383   45.9486 H   0  0  0  0  0  0  0  0  0  0  0  0
   34.6824   29.3559   48.2987 H   0  0  0  0  0  0  0  0  0  0  0  0
   37.6867   32.1745   50.3793 H   0  0  0  0  0  0  0  0  0  0  0  0
   39.5564   33.6135   49.6656 H   0  0  0  0  0  0  0  0  0  0  0  0
   40.1350   33.7088   47.2227 H   0  0  0  0  0  0  0  0  0  0  0  0
   38.8377   32.3882   45.6390 H   0  0  0  0  0  0  0  0  0  0  0  0
   35.2638   31.7106   42.0597 H   0  0  0  0  0  0  0  0  0  0  0  0
   39.7397   30.2197   41.0893 H   0  0  0  0  0  0  0  0  0  0  0  0
   42.4259   28.6219   43.1523 H   0  0  0  0  0  0  0  0  0  0  0  0
   41.4229   28.2973   41.7131 H   0  0  0  0  0  0  0  0  0  0  0  0
   37.1950   32.2011   37.3680 H   0  0  0  0  0  0  0  0  0  0  0  0
  1  2  2  0
  1 10  1  0
  2  3  1  0
  3  4  2  0
  4 27  1  0
  5  4  1  0
  5  6  2  0
  7  6  1  0
  8  7  2  0
  9 10  2  0
  9  8  1  0
 10  5  1  0
 11 16  2  0
 12 11  1  0
 12 13  2  0
 13 14  1  0
 14 15  2  0
 15  1  1  0
 16 15  1  0
 17 13  1  0
 17 18  1  0
 18 19  2  0
 19 21  1  0
 20 18  1  0
 22 12  1  0
 23 22  2  0
 24 23  1  0
 25 24  1  0
 25 26  2  0
 26 22  1  0
 27 28  1  0
 28 31  1  0
 28 30  1  0
 29 28  1  0
  2 32  1  0
  3 33  1  0
  6 34  1  0
  7 35  1  0
  8 36  1  0
  9 37  1  0
 11 38  1  0
 17 39  1  0
 20 40  1  0
 20 41  1  0
 25 42  1  0
M  ISO  8  32  14  33  14  34  14  35  14  36  14  37  14  38  14  42  14
M  END
>  <minimizedAffinity>  (1) 
-7.3636322

>  <minimizedRMSD>  (1) 
0.109168619

$$$$
