
     RDKit          3D

 34 37  0  0  0  0  0  0  0  0999 V2000
   36.3590   30.2950   47.5150 N   0  0  0  0  0  0  0  0  0  0  0  0
   35.1110   29.9640   47.0980 C   0  0  0  0  0  0  0  0  0  0  0  0
   34.7590   30.0560   45.7650 C   0  0  0  0  0  0  0  0  0  0  0  0
   35.7520   30.4950   44.9400 C   0  0  0  0  0  0  0  0  0  0  0  0
   35.4720   30.5950   43.7020 O   0  0  0  0  0  0  0  0  0  0  0  0
   37.0170   30.8410   45.3000 N   0  0  0  0  0  0  0  0  0  0  0  0
   37.2670   30.7180   46.6200 C   0  0  0  0  0  0  0  0  0  0  0  0
   38.4030   31.0140   47.0240 O   0  0  0  0  0  0  0  0  0  0  0  0
   36.8550   31.4000   49.5290 C   0  0  0  0  0  0  0  0  0  0  0  0
   36.6570   30.1800   48.8750 C   0  0  0  0  0  0  0  0  0  0  0  0
   36.7820   29.0020   49.6110 C   0  0  0  0  0  0  0  0  0  0  0  0
   37.0910   29.0710   50.9270 N   0  0  0  0  0  0  0  0  0  0  0  0
   37.2810   30.2730   51.5420 C   0  0  0  0  0  0  0  0  0  0  0  0
   37.1590   31.4370   50.8300 N   0  0  0  0  0  0  0  0  0  0  0  0
   37.9450   31.2840   44.3460 C   0  0  0  0  0  0  0  0  0  0  0  0
   38.2600   32.5980   44.0520 C   0  0  0  0  0  0  0  0  0  0  0  0
   39.1750   32.9610   43.1070 C   0  0  0  0  0  0  0  0  0  0  0  0
   39.8260   31.9760   42.4020 C   0  0  0  0  0  0  0  0  0  0  0  0
   39.5070   30.6640   42.7000 C   0  0  0  0  0  0  0  0  0  0  0  0
   38.5910   30.3220   43.6470 N   0  0  0  0  0  0  0  0  0  0  0  0
   40.1990   29.6180   41.9500 C   0  0  0  0  0  0  0  0  0  0  0  0
   41.5280   29.4720   41.7990 N   0  0  0  0  0  0  0  0  0  0  0  0
   41.8100   28.4470   41.0790 O   0  0  0  0  0  0  0  0  0  0  0  0
   40.6760   27.8830   40.7330 C   0  0  0  0  0  0  0  0  0  0  0  0
   39.6400   28.5830   41.2570 N   0  0  0  0  0  0  0  0  0  0  0  0
   34.3685   29.6173   47.8319 H   0  0  0  0  0  0  0  0  0  0  0  0
   33.7554   29.7953   45.3978 H   0  0  0  0  0  0  0  0  0  0  0  0
   36.7594   32.3403   48.9662 H   0  0  0  0  0  0  0  0  0  0  0  0
   36.6309   28.0260   49.1266 H   0  0  0  0  0  0  0  0  0  0  0  0
   37.5328   30.3081   52.6122 H   0  0  0  0  0  0  0  0  0  0  0  0
   37.7450   33.3938   44.6102 H   0  0  0  0  0  0  0  0  0  0  0  0
   39.3880   34.0225   42.9126 H   0  0  0  0  0  0  0  0  0  0  0  0
   40.5712   32.2222   41.6313 H   0  0  0  0  0  0  0  0  0  0  0  0
   40.5810   26.9798   40.1123 H   0  0  0  0  0  0  0  0  0  0  0  0
  1 10  1  0
  2  1  1  0
  3  2  2  0
  4  6  1  0
  4  3  1  0
  5  4  2  0
  6  7  1  0
  7  8  2  0
  7  1  1  0
  9 14  2  0
 10  9  1  0
 10 11  2  0
 11 12  1  0
 12 13  2  0
 14 13  1  0
 15  6  1  0
 16 15  2  0
 17 16  1  0
 18 19  1  0
 18 17  2  0
 19 20  2  0
 20 15  1  0
 21 19  1  0
 22 21  2  0
 23 22  1  0
 24 23  1  0
 24 25  2  0
 25 21  1  0
  2 26  1  0
  3 27  1  0
  9 28  1  0
 11 29  1  0
 13 30  1  0
 16 31  1  0
 17 32  1  0
 18 33  1  0
 24 34  1  0
M  ISO  8  26  14  27  14  28  14  29  14  30  14  31  14  32  14  33  14
M  ISO  1  34  14
M  END
>  <minimizedAffinity>  (1) 
-5.47584581

>  <minimizedRMSD>  (1) 
0.582906961

$$$$
