
     RDKit          3D

 31 34  0  0  0  0  0  0  0  0999 V2000
   35.6090   29.5040   49.4170 C   0  0  0  0  0  0  0  0  0  0  0  0
   35.6600   29.1670   50.7810 C   0  0  0  0  0  0  0  0  0  0  0  0
   36.6130   29.6370   51.6450 C   0  0  0  0  0  0  0  0  0  0  0  0
   37.5840   30.4810   51.2010 C   0  0  0  0  0  0  0  0  0  0  0  0
   37.5920   30.8480   49.8920 C   0  0  0  0  0  0  0  0  0  0  0  0
   38.5930   31.7050   49.4830 C   0  0  0  0  0  0  0  0  0  0  0  0
   38.6660   32.1170   48.1870 C   0  0  0  0  0  0  0  0  0  0  0  0
   37.7000   31.6430   47.3000 C   0  0  0  0  0  0  0  0  0  0  0  0
   36.7280   30.7920   47.7650 C   0  0  0  0  0  0  0  0  0  0  0  0
   36.6170   30.3570   49.0420 C   0  0  0  0  0  0  0  0  0  0  0  0
   33.6090   26.9520   47.8610 C   0  0  0  0  0  0  0  0  0  0  0  0
   32.7670   27.5780   46.9540 C   0  0  0  0  0  0  0  0  0  0  0  0
   32.8880   28.9500   46.8680 C   0  0  0  0  0  0  0  0  0  0  0  0
   33.7850   29.5610   47.6460 N   0  0  0  0  0  0  0  0  0  0  0  0
   34.5950   29.0000   48.5110 C   0  0  0  0  0  0  0  0  0  0  0  0
   34.4620   27.6720   48.5790 N   0  0  0  0  0  0  0  0  0  0  0  0
   32.0960   29.7980   45.9770 C   0  0  0  0  0  0  0  0  0  0  0  0
   31.0490   29.5360   45.1620 N   0  0  0  0  0  0  0  0  0  0  0  0
   30.6750   30.6280   44.5600 O   0  0  0  0  0  0  0  0  0  0  0  0
   31.4390   31.6310   44.9420 C   0  0  0  0  0  0  0  0  0  0  0  0
   32.3370   31.1330   45.8310 N   0  0  0  0  0  0  0  0  0  0  0  0
   34.8909   28.4873   51.1766 H   0  0  0  0  0  0  0  0  0  0  0  0
   36.5936   29.3313   52.7015 H   0  0  0  0  0  0  0  0  0  0  0  0
   38.3514   30.8608   51.8915 H   0  0  0  0  0  0  0  0  0  0  0  0
   39.3387   32.0586   50.2102 H   0  0  0  0  0  0  0  0  0  0  0  0
   39.4599   32.8004   47.8513 H   0  0  0  0  0  0  0  0  0  0  0  0
   37.7165   31.9466   46.2428 H   0  0  0  0  0  0  0  0  0  0  0  0
   35.9797   30.4352   47.0420 H   0  0  0  0  0  0  0  0  0  0  0  0
   33.5699   25.8597   47.9852 H   0  0  0  0  0  0  0  0  0  0  0  0
   32.0472   27.0156   46.3411 H   0  0  0  0  0  0  0  0  0  0  0  0
   31.3638   32.6752   44.6045 H   0  0  0  0  0  0  0  0  0  0  0  0
  1  2  2  0
  2  3  1  0
  4  3  2  0
  5  4  1  0
  6  5  2  0
  7  6  1  0
  8  9  1  0
  8  7  2  0
  9 10  2  0
 10  1  1  0
 10  5  1  0
 11 16  2  0
 12 11  1  0
 13 12  2  0
 13 14  1  0
 14 15  2  0
 15 16  1  0
 15  1  1  0
 17 13  1  0
 18 17  2  0
 19 20  1  0
 19 18  1  0
 20 21  2  0
 21 17  1  0
  2 22  1  0
  3 23  1  0
  4 24  1  0
  6 25  1  0
  7 26  1  0
  8 27  1  0
  9 28  1  0
 11 29  1  0
 12 30  1  0
 20 31  1  0
M  ISO  8  22  14  23  14  24  14  25  14  26  14  27  14  28  14  29  14
M  ISO  2  30  14  31  14
M  END
>  <minimizedAffinity>  (1) 
-6.664855

>  <minimizedRMSD>  (1) 
0.397521615

$$$$
