
     RDKit          3D

 31 33  0  0  0  0  0  0  0  0999 V2000
   36.4670   30.5740   46.5310 C   0  0  0  0  0  0  0  0  0  0  0  0
   35.2040   30.0020   46.4870 C   0  0  0  0  0  0  0  0  0  0  0  0
   34.5590   29.6840   45.3080 C   0  0  0  0  0  0  0  0  0  0  0  0
   35.1770   29.9370   44.1100 C   0  0  0  0  0  0  0  0  0  0  0  0
   36.4350   30.5060   44.1340 C   0  0  0  0  0  0  0  0  0  0  0  0
   37.0820   30.8260   45.3310 C   0  0  0  0  0  0  0  0  0  0  0  0
   37.4400   30.3380   50.0390 C   0  0  0  0  0  0  0  0  0  0  0  0
   38.2200   31.4770   50.2260 C   0  0  0  0  0  0  0  0  0  0  0  0
   38.4100   32.3360   49.1220 C   0  0  0  0  0  0  0  0  0  0  0  0
   37.8280   32.0020   47.9600 N   0  0  0  0  0  0  0  0  0  0  0  0
   37.0720   30.8780   47.8210 C   0  0  0  0  0  0  0  0  0  0  0  0
   36.8890   30.0640   48.8570 N   0  0  0  0  0  0  0  0  0  0  0  0
   37.2430   29.4250   51.2300 C   0  0  0  0  0  0  0  0  0  0  0  0
   35.8800   29.1820   51.3720 F   0  0  0  0  0  0  0  0  0  0  0  0
   37.9580   28.2960   51.0180 F   0  0  0  0  0  0  0  0  0  0  0  0
   37.6810   30.1110   52.3530 F   0  0  0  0  0  0  0  0  0  0  0  0
   38.4100   31.4270   45.3250 C   0  0  0  0  0  0  0  0  0  0  0  0
   39.4780   30.5430   45.4950 C   0  0  0  0  0  0  0  0  0  0  0  0
   40.7520   31.0770   45.4940 C   0  0  0  0  0  0  0  0  0  0  0  0
   41.0080   32.4060   45.3380 N   0  0  0  0  0  0  0  0  0  0  0  0
   39.9490   33.2170   45.1780 C   0  0  0  0  0  0  0  0  0  0  0  0
   38.7200   32.7320   45.1760 N   0  0  0  0  0  0  0  0  0  0  0  0
   34.6914   29.7915   47.4372 H   0  0  0  0  0  0  0  0  0  0  0  0
   33.5568   29.2311   45.3296 H   0  0  0  0  0  0  0  0  0  0  0  0
   34.6845   29.6935   43.1570 H   0  0  0  0  0  0  0  0  0  0  0  0
   36.9439   30.7140   43.1812 H   0  0  0  0  0  0  0  0  0  0  0  0
   38.6735   31.7000   51.2030 H   0  0  0  0  0  0  0  0  0  0  0  0
   39.0157   33.2498   49.2114 H   0  0  0  0  0  0  0  0  0  0  0  0
   39.3111   29.4635   45.6246 H   0  0  0  0  0  0  0  0  0  0  0  0
   41.6039   30.3938   45.6260 H   0  0  0  0  0  0  0  0  0  0  0  0
   40.1070   34.2977   45.0471 H   0  0  0  0  0  0  0  0  0  0  0  0
  1 11  1  0
  2  1  2  0
  3  2  1  0
  4  5  1  0
  4  3  2  0
  5  6  2  0
  6  1  1  0
  7  8  2  0
  7 13  1  0
  9  8  1  0
 10  9  2  0
 11 10  1  0
 11 12  2  0
 12  7  1  0
 13 14  1  0
 13 16  1  0
 15 13  1  0
 17  6  1  0
 17 18  2  0
 19 18  1  0
 20 19  2  0
 21 20  1  0
 22 21  2  0
 22 17  1  0
  2 23  1  0
  3 24  1  0
  4 25  1  0
  5 26  1  0
  8 27  1  0
  9 28  1  0
 18 29  1  0
 19 30  1  0
 21 31  1  0
M  ISO  8  23  14  24  14  25  14  26  14  27  14  28  14  29  14  30  14
M  ISO  1  31  14
M  END
>  <minimizedAffinity>  (1) 
-6.98052979

>  <minimizedRMSD>  (1) 
0.459607393

$$$$
