
     RDKit          3D

 24 25  0  0  0  0  0  0  0  0999 V2000
   37.7500   32.1190   48.8600 C   0  0  0  0  0  0  0  0  0  0  0  0
   38.3320   33.1450   49.5810 C   0  0  0  0  0  0  0  0  0  0  0  0
   39.3230   33.9080   48.9400 C   0  0  0  0  0  0  0  0  0  0  0  0
   39.6550   33.6030   47.6620 N   0  0  0  0  0  0  0  0  0  0  0  0
   39.0650   32.5970   46.9950 C   0  0  0  0  0  0  0  0  0  0  0  0
   38.1140   31.8530   47.5890 N   0  0  0  0  0  0  0  0  0  0  0  0
   39.4430   32.2930   45.6190 C   0  0  0  0  0  0  0  0  0  0  0  0
   40.2590   31.2190   45.3300 C   0  0  0  0  0  0  0  0  0  0  0  0
   40.6420   30.8960   44.0300 C   0  0  0  0  0  0  0  0  0  0  0  0
   40.1980   31.6670   43.0080 N   0  0  0  0  0  0  0  0  0  0  0  0
   39.4020   32.7160   43.2970 C   0  0  0  0  0  0  0  0  0  0  0  0
   39.0180   33.0450   44.5620 N   0  0  0  0  0  0  0  0  0  0  0  0
   36.7280   31.3220   49.5030 C   0  0  0  0  0  0  0  0  0  0  0  0
   35.7920   30.7980   48.8310 O   0  0  0  0  0  0  0  0  0  0  0  0
   36.7620   31.1210   50.8720 O   0  0  0  0  0  0  0  0  0  0  0  0
   36.9740   29.7900   51.3130 C   0  0  0  0  0  0  0  0  0  0  0  0
   35.7870   29.1050   51.4920 F   0  0  0  0  0  0  0  0  0  0  0  0
   37.7040   29.8490   52.4950 F   0  0  0  0  0  0  0  0  0  0  0  0
   37.7200   29.0770   50.3950 F   0  0  0  0  0  0  0  0  0  0  0  0
   38.0307   33.3563   50.6176 H   0  0  0  0  0  0  0  0  0  0  0  0
   39.8197   34.7369   49.4656 H   0  0  0  0  0  0  0  0  0  0  0  0
   40.6216   30.5929   46.1586 H   0  0  0  0  0  0  0  0  0  0  0  0
   41.2931   30.0307   43.8367 H   0  0  0  0  0  0  0  0  0  0  0  0
   39.0429   33.3405   42.4658 H   0  0  0  0  0  0  0  0  0  0  0  0
  1 13  1  0
  1  2  2  0
  3  2  1  0
  4  3  2  0
  5  6  2  0
  5  4  1  0
  6  1  1  0
  7  5  1  0
  8  7  2  0
  9  8  1  0
 10 11  1  0
 10  9  2  0
 11 12  2  0
 12  7  1  0
 13 15  1  0
 14 13  2  0
 15 16  1  0
 16 17  1  0
 16 18  1  0
 19 16  1  0
  2 20  1  0
  3 21  1  0
  8 22  1  0
  9 23  1  0
 11 24  1  0
M  ISO  5  20  14  21  14  22  14  23  14  24  14
M  END
>  <minimizedAffinity>  (1) 
-6.08756781

>  <minimizedRMSD>  (1) 
1.9118886

$$$$
