
     RDKit          3D

 30 32  0  0  1  0  0  0  0  0999 V2000
   37.0860   30.6380   45.8800 N   0  0  0  0  0  0  0  0  0  0  0  0
   37.6990   31.2220   44.6850 C   0  0  0  0  0  0  0  0  0  0  0  0
   38.3520   32.4390   45.2540 C   0  0  0  0  0  0  0  0  0  0  0  0
   38.9740   31.9070   46.4990 C   0  0  0  0  0  0  0  0  0  0  0  0
   38.1590   30.6830   46.8430 C   0  0  1  0  0  0  0  0  0  0  0  0
   35.7430   30.1590   45.9810 C   0  0  0  0  0  0  0  0  0  0  0  0
   35.1220   29.4460   44.9460 C   0  0  0  0  0  0  0  0  0  0  0  0
   33.7880   29.0220   45.1580 C   0  0  0  0  0  0  0  0  0  0  0  0
   33.1860   29.3250   46.3380 N   0  0  0  0  0  0  0  0  0  0  0  0
   33.8190   30.0160   47.3140 C   0  0  0  0  0  0  0  0  0  0  0  0
   35.0860   30.4140   47.1020 N   0  0  0  0  0  0  0  0  0  0  0  0
   37.7170   30.7140   48.2580 C   0  0  0  0  0  0  0  0  0  0  0  0
   37.6370   29.6370   49.1080 C   0  0  0  0  0  0  0  0  0  0  0  0
   37.2230   29.7230   50.4190 C   0  0  0  0  0  0  0  0  0  0  0  0
   36.8800   30.9410   50.8860 N   0  0  0  0  0  0  0  0  0  0  0  0
   36.9420   32.0290   50.0880 C   0  0  0  0  0  0  0  0  0  0  0  0
   37.3500   31.8880   48.8220 N   0  0  0  0  0  0  0  0  0  0  0  0
   36.9415   31.4864   43.9325 H   0  0  0  0  0  0  0  0  0  0  0  0
   38.3885   30.5466   44.1573 H   0  0  0  0  0  0  0  0  0  0  0  0
   39.1123   32.8415   44.5685 H   0  0  0  0  0  0  0  0  0  0  0  0
   37.6568   33.2734   45.4285 H   0  0  0  0  0  0  0  0  0  0  0  0
   40.0252   31.6357   46.3219 H   0  0  0  0  0  0  0  0  0  0  0  0
   38.9756   32.6476   47.3123 H   0  0  0  0  0  0  0  0  0  0  0  0
   38.7427   29.7531   46.7745 H   0  0  0  0  0  0  0  0  0  0  0  0
   35.6501   29.2248   44.0067 H   0  0  0  0  0  0  0  0  0  0  0  0
   33.2491   28.4581   44.3824 H   0  0  0  0  0  0  0  0  0  0  0  0
   33.3083   30.2472   48.2604 H   0  0  0  0  0  0  0  0  0  0  0  0
   37.9203   28.6480   48.7185 H   0  0  0  0  0  0  0  0  0  0  0  0
   37.1739   28.8313   51.0613 H   0  0  0  0  0  0  0  0  0  0  0  0
   36.6602   33.0195   50.4747 H   0  0  0  0  0  0  0  0  0  0  0  0
  1  6  1  0
  1  5  1  0
  2  3  1  0
  2  1  1  0
  3  4  1  0
  4  5  1  0
  5 12  1  0
  6 11  2  0
  7  8  2  0
  7  6  1  0
  8  9  1  0
  9 10  2  0
 11 10  1  0
 12 17  1  0
 12 13  2  0
 13 14  1  0
 14 15  2  0
 16 15  1  0
 17 16  2  0
  2 18  1  0
  2 19  1  0
  3 20  1  0
  3 21  1  0
  4 22  1  0
  4 23  1  0
  5 24  1  1
  7 25  1  0
  8 26  1  0
 10 27  1  0
 13 28  1  0
 14 29  1  0
 16 30  1  0
M  ISO  8  18  13  19  13  20  13  21  13  22  13  23  13  24  13  25  14
M  ISO  5  26  14  27  14  28  14  29  14  30  14
M  END
>  <minimizedAffinity>  (1) 
-4.16111708

>  <minimizedRMSD>  (1) 
3.84462023

$$$$
