
     RDKit          3D

 35 39  0  0  1  0  0  0  0  0999 V2000
   35.7860   30.4650   47.0760 C   0  0  0  0  0  0  0  0  0  0  0  0
   36.9470   30.5420   47.8380 C   0  0  0  0  0  0  0  0  0  0  0  0
   37.0100   29.7860   48.9840 C   0  0  0  0  0  0  0  0  0  0  0  0
   35.9180   29.0030   49.2980 N   0  0  0  0  0  0  0  0  0  0  0  0
   34.8280   28.9510   48.5510 C   0  0  0  0  0  0  0  0  0  0  0  0
   34.7530   29.6840   47.4280 N   0  0  0  0  0  0  0  0  0  0  0  0
   37.9960   31.3560   47.4460 N   0  0  0  0  0  0  0  0  0  0  0  0
   38.4460   32.4580   48.1000 C   0  0  0  0  0  0  0  0  0  0  0  0
   39.4750   33.0360   47.4740 N   0  0  0  0  0  0  0  0  0  0  0  0
   39.7150   32.2970   46.3690 C   0  0  0  0  0  0  0  0  0  0  0  0
   40.6170   32.3730   45.3480 C   0  0  0  0  0  0  0  0  0  0  0  0
   40.6600   31.4860   44.3250 N   0  0  0  0  0  0  0  0  0  0  0  0
   39.7390   30.4870   44.3580 C   0  0  0  0  0  0  0  0  0  0  0  0
   38.8650   30.4180   45.3530 N   0  0  0  0  0  0  0  0  0  0  0  0
   38.7850   31.2570   46.3710 C   0  0  0  0  0  0  0  0  0  0  0  0
   33.6900   28.0690   48.9870 C   0  0  2  0  0  0  0  0  0  0  0  0
   33.4760   26.8670   48.0000 C   0  0  0  0  0  0  0  0  0  0  0  0
   32.4870   27.9500   48.1480 C   0  0  1  0  0  0  0  0  0  0  0  0
   31.1620   27.6670   48.6880 C   0  0  0  0  0  0  0  0  0  0  0  0
   30.1650   26.9220   48.0510 C   0  0  0  0  0  0  0  0  0  0  0  0
   29.0910   26.9100   48.9140 C   0  0  0  0  0  0  0  0  0  0  0  0
   29.4110   27.6050   50.0120 N   0  0  0  0  0  0  0  0  0  0  0  0
   30.6660   28.0620   49.8700 N   0  0  0  0  0  0  0  0  0  0  0  0
   35.7122   31.0631   46.1558 H   0  0  0  0  0  0  0  0  0  0  0  0
   37.9008   29.8045   49.6291 H   0  0  0  0  0  0  0  0  0  0  0  0
   38.0122   32.8323   49.0390 H   0  0  0  0  0  0  0  0  0  0  0  0
   41.3463   33.1964   45.3560 H   0  0  0  0  0  0  0  0  0  0  0  0
   39.7185   29.7334   43.5569 H   0  0  0  0  0  0  0  0  0  0  0  0
   33.8325   28.2568   50.0614 H   0  0  0  0  0  0  0  0  0  0  0  0
   33.2608   25.8604   48.3878 H   0  0  0  0  0  0  0  0  0  0  0  0
   34.0376   26.4169   47.1681 H   0  0  0  0  0  0  0  0  0  0  0  0
   32.0062   28.6528   47.4517 H   0  0  0  0  0  0  0  0  0  0  0  0
   30.2257   26.4432   47.0626 H   0  0  0  0  0  0  0  0  0  0  0  0
   28.1281   26.4108   48.7305 H   0  0  0  0  0  0  0  0  0  0  0  0
   28.7999   27.7624   50.8261 H   0  0  0  0  0  0  0  0  0  0  0  0
  1  6  2  0
  1  2  1  0
  2  3  2  0
  3  4  1  0
  5 16  1  0
  5  4  2  0
  6  5  1  0
  7  2  1  0
  7  8  1  0
  9  8  2  0
 10 15  2  0
 10  9  1  0
 11 10  1  0
 12 13  1  0
 12 11  2  0
 13 14  2  0
 14 15  1  0
 15  7  1  0
 17 18  1  0
 17 16  1  0
 18 19  1  0
 18 16  1  0
 19 23  2  0
 20 19  1  0
 20 21  2  0
 21 22  1  0
 23 22  1  0
  1 24  1  0
  3 25  1  0
  8 26  1  0
 11 27  1  0
 13 28  1  0
 16 29  1  1
 17 30  1  0
 17 31  1  0
 18 32  1  6
 20 33  1  0
 21 34  1  0
 22 35  1  0
M  ISO  8  24  14  25  14  26  14  27  14  28  14  29  13  30  13  31  13
M  ISO  4  32  13  33  14  34  14  35   9
M  END
>  <minimizedAffinity>  (1) 
-6.22930479

>  <minimizedRMSD>  (1) 
0.324431449

$$$$
