
     RDKit          3D

 46 49  0  0  1  0  0  0  0  0999 V2000
   35.2560   29.4570   49.0220 C   0  0  2  0  0  0  0  0  0  0  0  0
   34.1150   29.2700   49.9120 C   0  0  0  0  0  0  0  0  0  0  0  0
   34.5630   28.0740   49.2610 C   0  0  1  0  0  0  0  0  0  0  0  0
   36.6410   29.4790   49.6910 C   0  0  0  0  0  0  0  0  0  0  0  0
   37.9480   32.8800   49.4330 C   0  0  0  0  0  0  0  0  0  0  0  0
   38.7060   32.8300   48.2480 C   0  0  0  0  0  0  0  0  0  0  0  0
   38.7540   31.6030   47.5490 C   0  0  0  0  0  0  0  0  0  0  0  0
   38.0640   30.5340   48.0580 N   0  0  0  0  0  0  0  0  0  0  0  0
   37.3550   30.6460   49.2000 C   0  0  0  0  0  0  0  0  0  0  0  0
   37.3050   31.8210   49.8770 N   0  0  0  0  0  0  0  0  0  0  0  0
   33.6800   27.5790   48.1340 C   0  0  0  0  0  0  0  0  0  0  0  0
   33.9040   26.3380   47.8320 O   0  0  0  0  0  0  0  0  0  0  0  0
   32.7060   28.3160   47.4530 O   0  0  0  0  0  0  0  0  0  0  0  0
   31.3630   28.1210   47.6470 C   0  0  0  0  0  0  0  0  0  0  0  0
   30.7430   27.6260   48.8940 C   0  0  0  0  0  0  0  0  0  0  0  0
   29.4000   27.4910   48.9160 C   0  0  0  0  0  0  0  0  0  0  0  0
   28.5930   27.8060   47.8020 C   0  0  0  0  0  0  0  0  0  0  0  0
   29.8400   28.3650   46.5430 S   0  0  0  0  0  0  0  0  0  0  0  0
   27.1920   27.7690   47.5340 C   0  0  0  0  0  0  0  0  0  0  0  0
   26.3880   27.5700   48.7680 C   0  0  0  0  0  0  0  0  0  0  0  0
   25.5560   28.7390   49.2000 C   0  0  0  0  0  0  0  0  0  0  0  0
   26.1330   30.0820   48.9380 C   0  0  0  0  0  0  0  0  0  0  0  0
   26.7080   30.2450   47.5590 C   0  0  0  0  0  0  0  0  0  0  0  0
   26.7040   28.9730   46.7660 C   0  0  0  0  0  0  0  0  0  0  0  0
   35.4801   30.1462   48.1945 H   0  0  0  0  0  0  0  0  0  0  0  0
   34.2614   29.3743   50.9972 H   0  0  0  0  0  0  0  0  0  0  0  0
   33.1319   29.7596   49.9741 H   0  0  0  0  0  0  0  0  0  0  0  0
   34.8888   27.0728   49.5795 H   0  0  0  0  0  0  0  0  0  0  0  0
   36.5276   29.5423   50.7833 H   0  0  0  0  0  0  0  0  0  0  0  0
   37.1970   28.5605   49.4518 H   0  0  0  0  0  0  0  0  0  0  0  0
   37.8920   33.8218   49.9985 H   0  0  0  0  0  0  0  0  0  0  0  0
   39.2428   33.7162   47.8786 H   0  0  0  0  0  0  0  0  0  0  0  0
   39.3318   31.5080   46.6178 H   0  0  0  0  0  0  0  0  0  0  0  0
   31.3546   27.3763   49.7735 H   0  0  0  0  0  0  0  0  0  0  0  0
   28.9182   27.1228   49.8338 H   0  0  0  0  0  0  0  0  0  0  0  0
   27.0426   26.8922   46.8867 H   0  0  0  0  0  0  0  0  0  0  0  0
   25.7118   26.7195   48.5967 H   0  0  0  0  0  0  0  0  0  0  0  0
   27.1164   27.4069   49.5760 H   0  0  0  0  0  0  0  0  0  0  0  0
   24.5920   28.6786   48.6737 H   0  0  0  0  0  0  0  0  0  0  0  0
   25.4778   28.6586   50.2943 H   0  0  0  0  0  0  0  0  0  0  0  0
   25.3388   30.8312   49.0718 H   0  0  0  0  0  0  0  0  0  0  0  0
   26.9648   30.2132   49.6458 H   0  0  0  0  0  0  0  0  0  0  0  0
   26.1136   30.9964   47.0185 H   0  0  0  0  0  0  0  0  0  0  0  0
   27.7568   30.5555   47.6756 H   0  0  0  0  0  0  0  0  0  0  0  0
   27.3535   29.1102   45.8889 H   0  0  0  0  0  0  0  0  0  0  0  0
   25.6578   28.7726   46.4914 H   0  0  0  0  0  0  0  0  0  0  0  0
  1  3  1  0
  1  4  1  0
  1  2  1  0
  3  2  1  0
  5 10  2  0
  6  5  1  0
  7  8  1  0
  7  6  2  0
  8  9  2  0
  9  4  1  0
  9 10  1  0
 11  3  1  0
 12 11  2  0
 13 14  1  0
 13 11  1  0
 14 15  2  0
 15 16  1  0
 17 16  2  0
 18 14  1  0
 18 17  1  0
 19 17  1  0
 19 20  1  0
 20 21  1  0
 22 21  1  0
 23 22  1  0
 24 19  1  0
 24 23  1  0
  1 25  1  6
  2 26  1  0
  2 27  1  0
  3 28  1  1
  4 29  1  0
  4 30  1  0
  5 31  1  0
  6 32  1  0
  7 33  1  0
 15 34  1  0
 16 35  1  0
 19 36  1  0
 20 37  1  0
 20 38  1  0
 21 39  1  0
 21 40  1  0
 22 41  1  0
 22 42  1  0
 23 43  1  0
 23 44  1  0
 24 45  1  0
 24 46  1  0
M  ISO  8  25  13  26  13  27  13  28  13  29   8  30   8  31  14  32  14
M  ISO  8  33  14  34  14  35  14  36  13  37  13  38  13  39  13  40  13
M  ISO  6  41  13  42  13  43  13  44  13  45  13  46  13
M  END
>  <minimizedAffinity>  (1) 
-6.58913565

>  <minimizedRMSD>  (1) 
0.997694671

$$$$
