
     RDKit          3D

 42 44  0  0  0  0  0  0  0  0999 V2000
   37.1040   30.5160   43.8750 C   0  0  0  0  0  0  0  0  0  0  0  0
   38.1100   30.7000   42.9210 N   0  0  0  0  0  0  0  0  0  0  0  0
   39.3050   31.2610   43.0480 C   0  0  0  0  0  0  0  0  0  0  0  0
   40.2310   31.3970   42.0420 C   0  0  0  0  0  0  0  0  0  0  0  0
   39.9370   30.9290   40.7880 C   0  0  0  0  0  0  0  0  0  0  0  0
   40.7240   31.0180   39.8280 O   0  0  0  0  0  0  0  0  0  0  0  0
   38.7540   30.3690   40.6420 N   0  0  0  0  0  0  0  0  0  0  0  0
   37.8710   30.2480   41.6320 C   0  0  0  0  0  0  0  0  0  0  0  0
   36.7630   29.6920   41.3780 O   0  0  0  0  0  0  0  0  0  0  0  0
   38.4110   29.8610   39.3150 C   0  0  0  0  0  0  0  0  0  0  0  0
   37.6120   28.7400   39.4360 F   0  0  0  0  0  0  0  0  0  0  0  0
   39.6090   29.4530   38.7210 F   0  0  0  0  0  0  0  0  0  0  0  0
   37.8180   30.8620   38.6060 F   0  0  0  0  0  0  0  0  0  0  0  0
   37.3630   30.8430   45.2990 C   0  0  0  0  0  0  0  0  0  0  0  0
   34.1230   29.5580   46.7500 C   0  0  0  0  0  0  0  0  0  0  0  0
   35.1170   29.8720   45.8060 C   0  0  0  0  0  0  0  0  0  0  0  0
   36.2770   30.4800   46.2070 C   0  0  0  0  0  0  0  0  0  0  0  0
   36.4030   30.7500   47.5350 N   0  0  0  0  0  0  0  0  0  0  0  0
   35.4730   30.4560   48.4200 C   0  0  0  0  0  0  0  0  0  0  0  0
   34.3350   29.8650   48.0630 N   0  0  0  0  0  0  0  0  0  0  0  0
   35.6870   30.7840   49.8620 C   0  0  0  0  0  0  0  0  0  0  0  0
   35.8860   29.5060   50.6310 C   0  0  0  0  0  0  0  0  0  0  0  0
   37.3810   29.3350   50.7700 C   0  0  0  0  0  0  0  0  0  0  0  0
   38.0170   30.6300   50.3200 C   0  0  0  0  0  0  0  0  0  0  0  0
   36.8980   31.6210   50.1160 C   0  0  0  0  0  0  0  0  0  0  0  0
   36.8231   29.4531   43.8393 H   0  0  0  0  0  0  0  0  0  0  0  0
   36.3400   31.2511   43.5817 H   0  0  0  0  0  0  0  0  0  0  0  0
   39.5773   31.6494   44.0405 H   0  0  0  0  0  0  0  0  0  0  0  0
   41.2002   31.8775   42.2415 H   0  0  0  0  0  0  0  0  0  0  0  0
   38.2702   30.3077   45.6158 H   0  0  0  0  0  0  0  0  0  0  0  0
   37.4693   31.9363   45.3566 H   0  0  0  0  0  0  0  0  0  0  0  0
   33.1880   29.0719   46.4347 H   0  0  0  0  0  0  0  0  0  0  0  0
   34.9627   29.6290   44.7443 H   0  0  0  0  0  0  0  0  0  0  0  0
   34.7978   31.3494   50.1777 H   0  0  0  0  0  0  0  0  0  0  0  0
   35.4154   29.5788   51.6226 H   0  0  0  0  0  0  0  0  0  0  0  0
   35.4276   28.6490   50.1158 H   0  0  0  0  0  0  0  0  0  0  0  0
   37.6420   29.1303   51.8188 H   0  0  0  0  0  0  0  0  0  0  0  0
   37.7379   28.4902   50.1625 H   0  0  0  0  0  0  0  0  0  0  0  0
   38.7119   30.9974   51.0895 H   0  0  0  0  0  0  0  0  0  0  0  0
   38.5888   30.4856   49.3914 H   0  0  0  0  0  0  0  0  0  0  0  0
   37.1081   32.2701   49.2532 H   0  0  0  0  0  0  0  0  0  0  0  0
   36.7688   32.2850   50.9834 H   0  0  0  0  0  0  0  0  0  0  0  0
  1 14  1  0
  2  3  1  0
  2  1  1  0
  4  3  2  0
  5  4  1  0
  6  5  2  0
  7  5  1  0
  7  8  1  0
  8  2  1  0
  9  8  2  0
 10 11  1  0
 10  7  1  0
 12 10  1  0
 13 10  1  0
 14 17  1  0
 15 20  2  0
 16 17  2  0
 16 15  1  0
 17 18  1  0
 18 19  2  0
 19 21  1  0
 20 19  1  0
 21 25  1  0
 21 22  1  0
 22 23  1  0
 24 23  1  0
 25 24  1  0
  1 26  1  0
  1 27  1  0
  3 28  1  0
  4 29  1  0
 14 30  1  0
 14 31  1  0
 15 32  1  0
 16 33  1  0
 21 34  1  0
 22 35  1  0
 22 36  1  0
 23 37  1  0
 23 38  1  0
 24 39  1  0
 24 40  1  0
 25 41  1  0
 25 42  1  0
M  ISO  8  26   8  27   8  28  14  29  14  30   8  31   8  32  14  33  14
M  ISO  8  34  13  35  13  36  13  37  13  38  13  39  13  40  13  41  13
M  ISO  1  42  13
M  END
>  <minimizedAffinity>  (1) 
-5.16498852

>  <minimizedRMSD>  (1) 
3.66051793

$$$$
