
     RDKit          3D

 34 37  0  0  0  0  0  0  0  0999 V2000
   34.9980   29.6380   48.1070 N   0  0  0  0  0  0  0  0  0  0  0  0
   35.4460   29.9280   49.3400 C   0  0  0  0  0  0  0  0  0  0  0  0
   36.5570   30.6750   49.2930 N   0  0  0  0  0  0  0  0  0  0  0  0
   36.8380   30.8750   47.9950 C   0  0  0  0  0  0  0  0  0  0  0  0
   37.8240   31.5430   47.3300 C   0  0  0  0  0  0  0  0  0  0  0  0
   37.9050   31.6080   45.9810 N   0  0  0  0  0  0  0  0  0  0  0  0
   36.9290   30.9580   45.3020 C   0  0  0  0  0  0  0  0  0  0  0  0
   35.9640   30.3050   45.9570 N   0  0  0  0  0  0  0  0  0  0  0  0
   35.8490   30.2170   47.2790 C   0  0  0  0  0  0  0  0  0  0  0  0
   32.9260   29.3340   46.8780 C   0  0  0  0  0  0  0  0  0  0  0  0
   33.8630   28.8780   47.7990 C   0  0  0  0  0  0  0  0  0  0  0  0
   33.6400   27.6380   48.4110 C   0  0  0  0  0  0  0  0  0  0  0  0
   32.5060   26.9510   48.0600 N   0  0  0  0  0  0  0  0  0  0  0  0
   31.6230   27.4190   47.1680 C   0  0  0  0  0  0  0  0  0  0  0  0
   31.8320   28.6100   46.5760 N   0  0  0  0  0  0  0  0  0  0  0  0
   38.8830   32.2470   48.1020 C   0  0  0  0  0  0  0  0  0  0  0  0
   38.2480   33.2310   49.0700 C   0  0  0  0  0  0  0  0  0  0  0  0
   39.3970   34.1700   49.3450 C   0  0  0  0  0  0  0  0  0  0  0  0
   40.0040   34.3530   47.9620 C   0  0  0  0  0  0  0  0  0  0  0  0
   39.8050   33.0470   47.2290 C   0  0  0  0  0  0  0  0  0  0  0  0
   34.9621   29.5945   50.2698 H   0  0  0  0  0  0  0  0  0  0  0  0
   36.9309   30.9678   44.2020 H   0  0  0  0  0  0  0  0  0  0  0  0
   33.0819   30.3057   46.3865 H   0  0  0  0  0  0  0  0  0  0  0  0
   34.3488   27.2299   49.1466 H   0  0  0  0  0  0  0  0  0  0  0  0
   30.7276   26.8305   46.9193 H   0  0  0  0  0  0  0  0  0  0  0  0
   39.4554   31.4613   48.6168 H   0  0  0  0  0  0  0  0  0  0  0  0
   37.4003   33.7583   48.6080 H   0  0  0  0  0  0  0  0  0  0  0  0
   37.8267   32.7630   49.9719 H   0  0  0  0  0  0  0  0  0  0  0  0
   39.0404   35.1271   49.7534 H   0  0  0  0  0  0  0  0  0  0  0  0
   40.1089   33.7882   50.0916 H   0  0  0  0  0  0  0  0  0  0  0  0
   39.4949   35.1693   47.4287 H   0  0  0  0  0  0  0  0  0  0  0  0
   41.0707   34.6135   48.0274 H   0  0  0  0  0  0  0  0  0  0  0  0
   39.3487   33.2225   46.2436 H   0  0  0  0  0  0  0  0  0  0  0  0
   40.7568   32.5263   47.0475 H   0  0  0  0  0  0  0  0  0  0  0  0
  1  2  1  0
  3  2  2  0
  4  3  1  0
  5  4  2  0
  5 16  1  0
  6  5  1  0
  7  8  1  0
  7  6  2  0
  8  9  2  0
  9  4  1  0
  9  1  1  0
 10 11  2  0
 11  1  1  0
 11 12  1  0
 13 12  2  0
 14 13  1  0
 15 10  1  0
 15 14  2  0
 16 17  1  0
 17 18  1  0
 19 18  1  0
 20 19  1  0
 20 16  1  0
  2 21  1  0
  7 22  1  0
 10 23  1  0
 12 24  1  0
 14 25  1  0
 16 26  1  0
 17 27  1  0
 17 28  1  0
 18 29  1  0
 18 30  1  0
 19 31  1  0
 19 32  1  0
 20 33  1  0
 20 34  1  0
M  ISO  8  21  14  22  14  23  14  24  14  25  14  26  13  27  13  28  13
M  ISO  6  29  13  30  13  31  13  32  13  33  13  34  13
M  END
>  <minimizedAffinity>  (1) 
-5.44230795

>  <minimizedRMSD>  (1) 
3.98769569

$$$$
