
     RDKit          3D

 28 30  0  0  0  0  0  0  0  0999 V2000
   38.3940   31.4950   48.2040 C   0  0  0  0  0  0  0  0  0  0  0  0
   38.9930   32.7050   48.2030 N   0  0  0  0  0  0  0  0  0  0  0  0
   39.4430   32.9710   47.0250 O   0  0  0  0  0  0  0  0  0  0  0  0
   39.1650   31.9750   46.2350 C   0  0  0  0  0  0  0  0  0  0  0  0
   38.5080   31.0360   46.9440 N   0  0  0  0  0  0  0  0  0  0  0  0
   37.3200   30.1270   51.5410 C   0  0  0  0  0  0  0  0  0  0  0  0
   38.0220   30.9080   50.6160 C   0  0  0  0  0  0  0  0  0  0  0  0
   37.7290   30.7360   49.2690 C   0  0  0  0  0  0  0  0  0  0  0  0
   36.7770   29.8240   48.8830 N   0  0  0  0  0  0  0  0  0  0  0  0
   36.1310   29.0960   49.8380 C   0  0  0  0  0  0  0  0  0  0  0  0
   36.3930   29.2410   51.1460 N   0  0  0  0  0  0  0  0  0  0  0  0
   40.0660   31.3220   42.1360 C   0  0  0  0  0  0  0  0  0  0  0  0
   39.5250   32.5170   42.5180 C   0  0  0  0  0  0  0  0  0  0  0  0
   39.2200   32.7610   43.8440 C   0  0  0  0  0  0  0  0  0  0  0  0
   39.4620   31.7910   44.7990 C   0  0  0  0  0  0  0  0  0  0  0  0
   40.0140   30.5700   44.4160 C   0  0  0  0  0  0  0  0  0  0  0  0
   40.3110   30.3480   43.0800 C   0  0  0  0  0  0  0  0  0  0  0  0
   40.4710   30.9600   40.4720 S   0  0  0  0  0  0  0  0  0  0  0  0
   41.6610   30.0350   40.5150 O   0  0  0  0  0  0  0  0  0  0  0  0
   39.3220   30.3480   39.7330 O   0  0  0  0  0  0  0  0  0  0  0  0
   37.5326   30.2418   52.6141 H   0  0  0  0  0  0  0  0  0  0  0  0
   38.7804   31.6338   50.9445 H   0  0  0  0  0  0  0  0  0  0  0  0
   35.3699   28.3657   49.5258 H   0  0  0  0  0  0  0  0  0  0  0  0
   39.3302   33.2927   41.7628 H   0  0  0  0  0  0  0  0  0  0  0  0
   38.7847   33.7270   44.1394 H   0  0  0  0  0  0  0  0  0  0  0  0
   40.2121   29.7902   45.1661 H   0  0  0  0  0  0  0  0  0  0  0  0
   40.7460   29.3861   42.7707 H   0  0  0  0  0  0  0  0  0  0  0  0
   40.7666   32.1095   39.7877 H   0  0  0  0  0  0  0  0  0  0  0  0
  1  8  1  0
  2  1  2  0
  3  2  1  0
  4  5  2  0
  4  3  1  0
  5  1  1  0
  7  6  2  0
  8  7  1  0
  9  8  2  0
  9 10  1  0
 10 11  2  0
 11  6  1  0
 12 13  2  0
 12 17  1  0
 13 14  1  0
 14 15  2  0
 15  4  1  0
 16 15  1  0
 17 16  2  0
 18 19  2  0
 18 12  1  0
 20 18  2  0
  6 21  1  0
  7 22  1  0
 10 23  1  0
 13 24  1  0
 14 25  1  0
 16 26  1  0
 17 27  1  0
 18 28  1  0
M  ISO  8  21  14  22  14  23  14  24  14  25  14  26  14  27  14  28  11
M  END
>  <minimizedAffinity>  (1) 
-5.66015673

>  <minimizedRMSD>  (1) 
0.590769291

$$$$
