
     RDKit          3D

 36 39  0  0  0  0  0  0  0  0999 V2000
   38.0590   32.8530   49.7080 C   0  0  0  0  0  0  0  0  0  0  0  0
   38.8170   33.0810   48.5580 C   0  0  0  0  0  0  0  0  0  0  0  0
   38.6240   32.2520   47.4550 C   0  0  0  0  0  0  0  0  0  0  0  0
   37.6980   31.2360   47.5190 N   0  0  0  0  0  0  0  0  0  0  0  0
   36.9960   31.0710   48.6660 C   0  0  0  0  0  0  0  0  0  0  0  0
   37.1570   31.8540   49.7530 N   0  0  0  0  0  0  0  0  0  0  0  0
   36.0400   30.0200   48.7280 N   0  0  0  0  0  0  0  0  0  0  0  0
   35.3370   29.5630   47.5460 C   0  0  0  0  0  0  0  0  0  0  0  0
   33.8630   29.3780   47.7940 C   0  0  0  0  0  0  0  0  0  0  0  0
   33.5170   28.9610   49.1110 N   0  0  0  0  0  0  0  0  0  0  0  0
   34.2250   29.5980   50.1770 C   0  0  0  0  0  0  0  0  0  0  0  0
   35.7270   29.3580   49.9820 C   0  0  0  0  0  0  0  0  0  0  0  0
   39.3630   32.4200   46.2110 C   0  0  0  0  0  0  0  0  0  0  0  0
   40.2270   33.3860   45.7950 N   0  0  0  0  0  0  0  0  0  0  0  0
   40.6430   33.1140   44.5930 O   0  0  0  0  0  0  0  0  0  0  0  0
   40.0830   32.0120   44.2140 C   0  0  0  0  0  0  0  0  0  0  0  0
   39.2610   31.5270   45.2010 N   0  0  0  0  0  0  0  0  0  0  0  0
   40.2290   31.3080   42.9610 N   0  0  0  0  0  0  0  0  0  0  0  0
   39.7670   31.8330   41.8130 N   0  0  0  0  0  0  0  0  0  0  0  0
   40.0470   30.9540   40.8170 C   0  0  0  0  0  0  0  0  0  0  0  0
   40.6950   29.8740   41.4000 C   0  0  0  0  0  0  0  0  0  0  0  0
   40.8030   30.1170   42.7710 C   0  0  0  0  0  0  0  0  0  0  0  0
   38.2003   33.4973   50.5883 H   0  0  0  0  0  0  0  0  0  0  0  0
   39.5519   33.8988   48.5234 H   0  0  0  0  0  0  0  0  0  0  0  0
   35.7660   28.6010   47.2290 H   0  0  0  0  0  0  0  0  0  0  0  0
   35.4536   30.3308   46.7669 H   0  0  0  0  0  0  0  0  0  0  0  0
   33.3620   30.3375   47.5983 H   0  0  0  0  0  0  0  0  0  0  0  0
   33.5400   28.5685   47.1229 H   0  0  0  0  0  0  0  0  0  0  0  0
   32.5125   29.1448   49.2459 H   0  0  0  0  0  0  0  0  0  0  0  0
   34.0182   30.6783   50.1652 H   0  0  0  0  0  0  0  0  0  0  0  0
   33.9013   29.1827   51.1428 H   0  0  0  0  0  0  0  0  0  0  0  0
   35.9439   28.2815   49.9183 H   0  0  0  0  0  0  0  0  0  0  0  0
   36.3252   29.7446   50.8203 H   0  0  0  0  0  0  0  0  0  0  0  0
   39.8061   31.0748   39.7505 H   0  0  0  0  0  0  0  0  0  0  0  0
   41.0606   28.9804   40.8729 H   0  0  0  0  0  0  0  0  0  0  0  0
   41.2620   29.4674   43.5308 H   0  0  0  0  0  0  0  0  0  0  0  0
  1  6  2  0
  2  1  1  0
  3  4  1  0
  3  2  2  0
  4  5  2  0
  5  7  1  0
  5  6  1  0
  7 12  1  0
  8  9  1  0
  8  7  1  0
  9 10  1  0
 10 11  1  0
 12 11  1  0
 13  3  1  0
 14 13  2  0
 15 14  1  0
 16 15  1  0
 16 17  2  0
 17 13  1  0
 18 16  1  0
 19 18  1  0
 20 21  1  0
 20 19  2  0
 21 22  2  0
 22 18  1  0
  1 23  1  0
  2 24  1  0
  8 25  1  0
  8 26  1  0
  9 27  1  0
  9 28  1  0
 10 29  1  0
 11 30  1  0
 11 31  1  0
 12 32  1  0
 12 33  1  0
 20 34  1  0
 21 35  1  0
 22 36  1  0
M  ISO  8  23  14  24  14  25  13  26  13  27  13  28  13  29   5  30  13
M  ISO  6  31  13  32  13  33  13  34  14  35  14  36  14
M  END
>  <minimizedAffinity>  (1) 
-6.71415186

>  <minimizedRMSD>  (1) 
2.41571188

$$$$
