
     RDKit          3D

 44 46  0  0  0  0  0  0  0  0999 V2000
   37.0060   31.6480   48.6680 C   0  0  0  0  0  0  0  0  0  0  0  0
   37.9960   31.5420   47.5350 C   0  0  0  0  0  0  0  0  0  0  0  0
   38.1990   30.3690   46.8700 C   0  0  0  0  0  0  0  0  0  0  0  0
   39.1170   30.2870   45.8530 C   0  0  0  0  0  0  0  0  0  0  0  0
   39.8190   31.4050   45.5270 N   0  0  0  0  0  0  0  0  0  0  0  0
   39.6260   32.5480   46.1690 C   0  0  0  0  0  0  0  0  0  0  0  0
   38.7290   32.6240   47.1590 N   0  0  0  0  0  0  0  0  0  0  0  0
   40.3860   33.7860   45.8250 C   0  0  0  0  0  0  0  0  0  0  0  0
   40.1860   34.1140   44.3440 C   0  0  0  0  0  0  0  0  0  0  0  0
   36.9840   30.2950   49.3010 C   0  0  0  0  0  0  0  0  0  0  0  0
   35.4930   28.3900   49.6850 C   0  0  0  0  0  0  0  0  0  0  0  0
   35.8040   29.5650   49.0060 C   0  0  0  0  0  0  0  0  0  0  0  0
   34.9150   29.9910   48.0660 C   0  0  0  0  0  0  0  0  0  0  0  0
   33.7660   29.2840   47.8070 N   0  0  0  0  0  0  0  0  0  0  0  0
   33.4850   28.1570   48.4690 C   0  0  0  0  0  0  0  0  0  0  0  0
   34.3450   27.7430   49.3790 N   0  0  0  0  0  0  0  0  0  0  0  0
   32.2940   27.4220   48.2030 N   0  0  0  0  0  0  0  0  0  0  0  0
   31.0560   27.6760   48.9180 C   0  0  0  0  0  0  0  0  0  0  0  0
   30.0970   28.2540   47.8880 C   0  0  0  0  0  0  0  0  0  0  0  0
   30.3460   27.6110   46.6230 N   0  0  0  0  0  0  0  0  0  0  0  0
   30.8300   26.2350   46.7810 C   0  0  0  0  0  0  0  0  0  0  0  0
   32.3030   26.3830   47.1900 C   0  0  0  0  0  0  0  0  0  0  0  0
   36.0088   31.9103   48.2849 H   0  0  0  0  0  0  0  0  0  0  0  0
   37.2876   32.4320   49.3863 H   0  0  0  0  0  0  0  0  0  0  0  0
   37.6198   29.4774   47.1521 H   0  0  0  0  0  0  0  0  0  0  0  0
   39.2806   29.3413   45.3155 H   0  0  0  0  0  0  0  0  0  0  0  0
   40.0203   34.6228   46.4382 H   0  0  0  0  0  0  0  0  0  0  0  0
   41.4560   33.6256   46.0231 H   0  0  0  0  0  0  0  0  0  0  0  0
   39.6154   35.0497   44.2495 H   0  0  0  0  0  0  0  0  0  0  0  0
   41.1662   34.2316   43.8589 H   0  0  0  0  0  0  0  0  0  0  0  0
   39.6325   33.2965   43.8589 H   0  0  0  0  0  0  0  0  0  0  0  0
   37.8503   29.7233   48.9368 H   0  0  0  0  0  0  0  0  0  0  0  0
   37.0174   30.4406   50.3908 H   0  0  0  0  0  0  0  0  0  0  0  0
   36.1692   27.9945   50.4572 H   0  0  0  0  0  0  0  0  0  0  0  0
   35.1202   30.9151   47.5058 H   0  0  0  0  0  0  0  0  0  0  0  0
   30.6541   26.7401   49.3335 H   0  0  0  0  0  0  0  0  0  0  0  0
   31.2086   28.3646   49.7621 H   0  0  0  0  0  0  0  0  0  0  0  0
   29.0591   28.0679   48.2013 H   0  0  0  0  0  0  0  0  0  0  0  0
   30.2501   29.3395   47.7966 H   0  0  0  0  0  0  0  0  0  0  0  0
   31.0548   28.1541   46.1097 H   0  0  0  0  0  0  0  0  0  0  0  0
   30.2611   25.7114   47.5634 H   0  0  0  0  0  0  0  0  0  0  0  0
   30.7115   25.6444   45.8606 H   0  0  0  0  0  0  0  0  0  0  0  0
   32.6887   25.4395   47.6036 H   0  0  0  0  0  0  0  0  0  0  0  0
   32.9515   26.6342   46.3377 H   0  0  0  0  0  0  0  0  0  0  0  0
  1 10  1  0
  2  1  1  0
  3  2  2  0
  4  3  1  0
  5  4  2  0
  5  6  1  0
  6  7  2  0
  7  2  1  0
  8  6  1  0
  9  8  1  0
 12 10  1  0
 12 11  2  0
 13 12  1  0
 14 13  2  0
 14 15  1  0
 15 16  2  0
 16 11  1  0
 17 15  1  0
 17 18  1  0
 19 18  1  0
 20 21  1  0
 20 19  1  0
 21 22  1  0
 22 17  1  0
  1 23  1  0
  1 24  1  0
  3 25  1  0
  4 26  1  0
  8 27  1  0
  8 28  1  0
  9 29  1  0
  9 30  1  0
  9 31  1  0
 10 32  1  0
 10 33  1  0
 11 34  1  0
 13 35  1  0
 18 36  1  0
 18 37  1  0
 19 38  1  0
 19 39  1  0
 20 40  1  0
 21 41  1  0
 21 42  1  0
 22 43  1  0
 22 44  1  0
M  ISO  8  23   8  24   8  25  14  26  14  27   8  28   8  29   8  30   8
M  ISO  8  31   8  32   8  33   8  34  14  35  14  36  13  37  13  38  13
M  ISO  6  39  13  40   5  41  13  42  13  43  13  44  13
M  END
>  <minimizedAffinity>  (1) 
-4.71912098

>  <minimizedRMSD>  (1) 
2.3130579

$$$$
