
     RDKit          3D

 34 36  0  0  1  0  0  0  0  0999 V2000
   35.3680   29.5590   49.2320 C   0  0  2  0  0  0  0  0  0  0  0  0
   34.2850   29.4150   50.2530 C   0  0  0  0  0  0  0  0  0  0  0  0
   34.5280   28.3050   49.3140 C   0  0  1  0  0  0  0  0  0  0  0  0
   33.5360   28.0390   48.3330 N   0  0  0  0  0  0  0  0  0  0  0  0
   32.2120   27.8690   48.8590 C   0  0  0  0  0  0  0  0  0  0  0  0
   31.2570   27.4750   47.7850 C   0  0  0  0  0  0  0  0  0  0  0  0
   31.3350   28.3140   46.6090 N   0  0  0  0  0  0  0  0  0  0  0  0
   32.6650   28.5930   46.1900 C   0  0  0  0  0  0  0  0  0  0  0  0
   33.4960   29.1110   47.3680 C   0  0  0  0  0  0  0  0  0  0  0  0
   36.8070   29.3860   49.6230 C   0  0  0  0  0  0  0  0  0  0  0  0
   38.3910   32.7040   49.3860 C   0  0  0  0  0  0  0  0  0  0  0  0
   38.9150   32.7000   48.0930 C   0  0  0  0  0  0  0  0  0  0  0  0
   38.7330   31.5710   47.2960 C   0  0  0  0  0  0  0  0  0  0  0  0
   38.0430   30.5290   47.8450 N   0  0  0  0  0  0  0  0  0  0  0  0
   37.5420   30.5580   49.1050 C   0  0  0  0  0  0  0  0  0  0  0  0
   37.7220   31.6480   49.8680 N   0  0  0  0  0  0  0  0  0  0  0  0
   35.6073   30.3343   48.4892 H   0  0  0  0  0  0  0  0  0  0  0  0
   34.5469   29.2998   51.3151 H   0  0  0  0  0  0  0  0  0  0  0  0
   33.4029   30.0109   50.5302 H   0  0  0  0  0  0  0  0  0  0  0  0
   34.7641   27.2338   49.3969 H   0  0  0  0  0  0  0  0  0  0  0  0
   32.2293   27.0849   49.6303 H   0  0  0  0  0  0  0  0  0  0  0  0
   31.8804   28.8256   49.2891 H   0  0  0  0  0  0  0  0  0  0  0  0
   31.4745   26.4383   47.4885 H   0  0  0  0  0  0  0  0  0  0  0  0
   30.2428   27.5865   48.1961 H   0  0  0  0  0  0  0  0  0  0  0  0
   30.8446   27.8387   45.8379 H   0  0  0  0  0  0  0  0  0  0  0  0
   33.1232   27.6722   45.7998 H   0  0  0  0  0  0  0  0  0  0  0  0
   32.6387   29.3629   45.4048 H   0  0  0  0  0  0  0  0  0  0  0  0
   34.5137   29.3631   47.0354 H   0  0  0  0  0  0  0  0  0  0  0  0
   33.0567   30.0228   47.7989 H   0  0  0  0  0  0  0  0  0  0  0  0
   36.8972   29.3380   50.7182 H   0  0  0  0  0  0  0  0  0  0  0  0
   37.2159   28.4529   49.2082 H   0  0  0  0  0  0  0  0  0  0  0  0
   38.5297   33.5909   50.0217 H   0  0  0  0  0  0  0  0  0  0  0  0
   39.4626   33.5732   47.7089 H   0  0  0  0  0  0  0  0  0  0  0  0
   39.1278   31.5219   46.2705 H   0  0  0  0  0  0  0  0  0  0  0  0
  1  3  1  0
  1 10  1  0
  1  2  1  0
  3  2  1  0
  4  5  1  0
  4  3  1  0
  6  5  1  0
  7  6  1  0
  8  7  1  0
  8  9  1  0
  9  4  1  0
 11 16  2  0
 12 11  1  0
 13 14  1  0
 13 12  2  0
 14 15  2  0
 15 10  1  0
 15 16  1  0
  1 17  1  6
  2 18  1  0
  2 19  1  0
  3 20  1  1
  5 21  1  0
  5 22  1  0
  6 23  1  0
  6 24  1  0
  7 25  1  0
  8 26  1  0
  8 27  1  0
  9 28  1  0
  9 29  1  0
 10 30  1  0
 10 31  1  0
 11 32  1  0
 12 33  1  0
 13 34  1  0
M  ISO  8  17  13  18  13  19  13  20  13  21  13  22  13  23  13  24  13
M  ISO  8  25   5  26  13  27  13  28  13  29  13  30   8  31   8  32  14
M  ISO  2  33  14  34  14
M  END
>  <minimizedAffinity>  (1) 
-4.787395

>  <minimizedRMSD>  (1) 
0.402730137

$$$$
