
     RDKit          3D

 40 43  0  0  0  0  0  0  0  0999 V2000
   35.6080   29.4300   49.2110 C   0  0  0  0  0  0  0  0  0  0  0  0
   35.5980   29.1210   50.5790 C   0  0  0  0  0  0  0  0  0  0  0  0
   36.4950   29.6360   51.4780 C   0  0  0  0  0  0  0  0  0  0  0  0
   37.4670   30.5010   51.0660 C   0  0  0  0  0  0  0  0  0  0  0  0
   37.5320   30.8420   49.7500 C   0  0  0  0  0  0  0  0  0  0  0  0
   38.5220   31.7140   49.3720 C   0  0  0  0  0  0  0  0  0  0  0  0
   38.6460   32.1000   48.0640 C   0  0  0  0  0  0  0  0  0  0  0  0
   37.7440   31.5820   47.1540 C   0  0  0  0  0  0  0  0  0  0  0  0
   36.7690   30.7120   47.5840 C   0  0  0  0  0  0  0  0  0  0  0  0
   36.6130   30.3050   48.8700 C   0  0  0  0  0  0  0  0  0  0  0  0
   33.6020   26.8340   47.7320 C   0  0  0  0  0  0  0  0  0  0  0  0
   32.8790   27.4050   46.6900 C   0  0  0  0  0  0  0  0  0  0  0  0
   33.0920   28.7530   46.4840 C   0  0  0  0  0  0  0  0  0  0  0  0
   33.9550   29.4040   47.2780 N   0  0  0  0  0  0  0  0  0  0  0  0
   34.6510   28.8740   48.2740 C   0  0  0  0  0  0  0  0  0  0  0  0
   34.4240   27.5880   48.4420 N   0  0  0  0  0  0  0  0  0  0  0  0
   32.4510   29.5190   45.4710 N   0  0  0  0  0  0  0  0  0  0  0  0
   32.8830   29.5030   44.0700 C   0  0  0  0  0  0  0  0  0  0  0  0
   33.5230   30.8650   43.8130 C   0  0  0  0  0  0  0  0  0  0  0  0
   32.8370   31.9020   44.5290 N   0  0  0  0  0  0  0  0  0  0  0  0
   31.4530   31.5750   44.7740 C   0  0  0  0  0  0  0  0  0  0  0  0
   31.3150   30.3860   45.7140 C   0  0  0  0  0  0  0  0  0  0  0  0
   34.8287   28.4279   50.9503 H   0  0  0  0  0  0  0  0  0  0  0  0
   36.4312   29.3504   52.5384 H   0  0  0  0  0  0  0  0  0  0  0  0
   38.1869   30.9162   51.7866 H   0  0  0  0  0  0  0  0  0  0  0  0
   39.2212   32.1058   50.1254 H   0  0  0  0  0  0  0  0  0  0  0  0
   39.4357   32.7978   47.7487 H   0  0  0  0  0  0  0  0  0  0  0  0
   37.8053   31.8636   46.0924 H   0  0  0  0  0  0  0  0  0  0  0  0
   36.0670   30.3187   46.8340 H   0  0  0  0  0  0  0  0  0  0  0  0
   33.4909   25.7644   47.9634 H   0  0  0  0  0  0  0  0  0  0  0  0
   32.1829   26.8204   46.0706 H   0  0  0  0  0  0  0  0  0  0  0  0
   33.6153   28.6990   43.9047 H   0  0  0  0  0  0  0  0  0  0  0  0
   32.0386   29.3191   43.3894 H   0  0  0  0  0  0  0  0  0  0  0  0
   34.5727   30.8362   44.1407 H   0  0  0  0  0  0  0  0  0  0  0  0
   33.4596   31.0831   42.7367 H   0  0  0  0  0  0  0  0  0  0  0  0
   33.3081   32.0475   45.4333 H   0  0  0  0  0  0  0  0  0  0  0  0
   30.9550   32.4460   45.2250 H   0  0  0  0  0  0  0  0  0  0  0  0
   30.9875   31.3094   43.8134 H   0  0  0  0  0  0  0  0  0  0  0  0
   30.3781   29.8479   45.5073 H   0  0  0  0  0  0  0  0  0  0  0  0
   31.2906   30.7160   46.7631 H   0  0  0  0  0  0  0  0  0  0  0  0
  1  2  2  0
  2  3  1  0
  4  3  2  0
  5  4  1  0
  6  5  2  0
  7  6  1  0
  8  9  1  0
  8  7  2  0
  9 10  2  0
 10  1  1  0
 10  5  1  0
 11 16  2  0
 12 11  1  0
 13 12  2  0
 13 14  1  0
 14 15  2  0
 15 16  1  0
 15  1  1  0
 17 22  1  0
 17 13  1  0
 18 17  1  0
 19 18  1  0
 19 20  1  0
 20 21  1  0
 21 22  1  0
  2 23  1  0
  3 24  1  0
  4 25  1  0
  6 26  1  0
  7 27  1  0
  8 28  1  0
  9 29  1  0
 11 30  1  0
 12 31  1  0
 18 32  1  0
 18 33  1  0
 19 34  1  0
 19 35  1  0
 20 36  1  0
 21 37  1  0
 21 38  1  0
 22 39  1  0
 22 40  1  0
M  ISO  8  23  14  24  14  25  14  26  14  27  14  28  14  29  14  30  14
M  ISO  8  31  14  32  13  33  13  34  13  35  13  36   5  37  13  38  13
M  ISO  2  39  13  40  13
M  END
>  <minimizedAffinity>  (1) 
-6.85314512

>  <minimizedRMSD>  (1) 
0.547829449

$$$$
