
     RDKit          3D

 24 26  0  0  0  0  0  0  0  0999 V2000
   38.1460   32.1400   48.8040 C   0  0  0  0  0  0  0  0  0  0  0  0
   38.5060   33.4080   49.1620 C   0  0  0  0  0  0  0  0  0  0  0  0
   39.2920   33.9310   48.1970 N   0  0  0  0  0  0  0  0  0  0  0  0
   39.4430   33.0080   47.2160 C   0  0  0  0  0  0  0  0  0  0  0  0
   40.1430   33.0350   46.0150 C   0  0  0  0  0  0  0  0  0  0  0  0
   40.1530   31.9600   45.1640 C   0  0  0  0  0  0  0  0  0  0  0  0
   39.4470   30.8460   45.5270 C   0  0  0  0  0  0  0  0  0  0  0  0
   38.7410   30.7860   46.7140 C   0  0  0  0  0  0  0  0  0  0  0  0
   38.7270   31.8700   47.5820 C   0  0  0  0  0  0  0  0  0  0  0  0
   36.9910   29.7130   51.4060 C   0  0  0  0  0  0  0  0  0  0  0  0
   37.8220   30.6120   50.7040 C   0  0  0  0  0  0  0  0  0  0  0  0
   37.3050   31.2050   49.5480 C   0  0  0  0  0  0  0  0  0  0  0  0
   36.0290   30.8870   49.1580 N   0  0  0  0  0  0  0  0  0  0  0  0
   35.2750   30.0180   49.8680 C   0  0  0  0  0  0  0  0  0  0  0  0
   35.7400   29.4340   50.9790 N   0  0  0  0  0  0  0  0  0  0  0  0
   38.2042   33.9204   50.0874 H   0  0  0  0  0  0  0  0  0  0  0  0
   39.7073   34.8735   48.2049 H   0  0  0  0  0  0  0  0  0  0  0  0
   40.7027   33.9414   45.7407 H   0  0  0  0  0  0  0  0  0  0  0  0
   40.7122   31.9924   44.2173 H   0  0  0  0  0  0  0  0  0  0  0  0
   39.4409   29.9743   44.8562 H   0  0  0  0  0  0  0  0  0  0  0  0
   38.1859   29.8724   46.9731 H   0  0  0  0  0  0  0  0  0  0  0  0
   37.3693   29.2299   52.3189 H   0  0  0  0  0  0  0  0  0  0  0  0
   38.8401   30.8382   51.0537 H   0  0  0  0  0  0  0  0  0  0  0  0
   34.2561   29.7856   49.5248 H   0  0  0  0  0  0  0  0  0  0  0  0
  1  2  2  0
  1 12  1  0
  3  2  1  0
  4  9  2  0
  4  3  1  0
  5  4  1  0
  6  7  1  0
  6  5  2  0
  7  8  2  0
  8  9  1  0
  9  1  1  0
 11 10  2  0
 12 11  1  0
 13 12  2  0
 13 14  1  0
 14 15  2  0
 15 10  1  0
  2 16  1  0
  3 17  1  0
  5 18  1  0
  6 19  1  0
  7 20  1  0
  8 21  1  0
 10 22  1  0
 11 23  1  0
 14 24  1  0
M  ISO  8  16  14  17   9  18  14  19  14  20  14  21  14  22  14  23  14
M  ISO  1  24  14
M  END
>  <minimizedAffinity>  (1) 
-6.36586857

>  <minimizedRMSD>  (1) 
1.84555972

$$$$
