
     RDKit          3D

 27 29  0  0  0  0  0  0  0  0999 V2000
   37.5250   29.6150   50.4170 C   0  0  0  0  0  0  0  0  0  0  0  0
   38.2210   30.8460   50.3490 C   0  0  0  0  0  0  0  0  0  0  0  0
   37.9120   31.7120   49.2910 C   0  0  0  0  0  0  0  0  0  0  0  0
   36.9640   31.3260   48.3880 N   0  0  0  0  0  0  0  0  0  0  0  0
   36.3250   30.1360   48.4970 C   0  0  0  0  0  0  0  0  0  0  0  0
   36.5980   29.2940   49.4900 N   0  0  0  0  0  0  0  0  0  0  0  0
   35.3190   29.7880   47.4920 C   0  0  0  0  0  0  0  0  0  0  0  0
   35.3510   30.0990   46.1470 C   0  0  0  0  0  0  0  0  0  0  0  0
   34.2300   29.5910   45.5860 N   0  0  0  0  0  0  0  0  0  0  0  0
   33.4920   28.9700   46.5310 C   0  0  0  0  0  0  0  0  0  0  0  0
   32.2830   28.3000   46.4870 C   0  0  0  0  0  0  0  0  0  0  0  0
   31.7460   27.7490   47.6330 C   0  0  0  0  0  0  0  0  0  0  0  0
   32.3970   27.8470   48.8680 C   0  0  0  0  0  0  0  0  0  0  0  0
   33.5980   28.5220   48.8710 C   0  0  0  0  0  0  0  0  0  0  0  0
   34.1540   29.0830   47.7230 C   0  0  0  0  0  0  0  0  0  0  0  0
   38.5810   33.0330   49.1210 C   0  0  0  0  0  0  0  0  0  0  0  0
   37.6680   34.0870   49.1250 F   0  0  0  0  0  0  0  0  0  0  0  0
   39.4280   33.2930   50.2030 F   0  0  0  0  0  0  0  0  0  0  0  0
   39.2530   33.0710   47.9250 F   0  0  0  0  0  0  0  0  0  0  0  0
   37.7422   28.9121   51.2347 H   0  0  0  0  0  0  0  0  0  0  0  0
   38.9782   31.1137   51.1006 H   0  0  0  0  0  0  0  0  0  0  0  0
   36.1432   30.6576   45.6270 H   0  0  0  0  0  0  0  0  0  0  0  0
   33.9778   29.6663   44.5902 H   0  0  0  0  0  0  0  0  0  0  0  0
   31.7455   28.2055   45.5319 H   0  0  0  0  0  0  0  0  0  0  0  0
   30.7833   27.2202   47.5742 H   0  0  0  0  0  0  0  0  0  0  0  0
   31.9737   27.4099   49.7844 H   0  0  0  0  0  0  0  0  0  0  0  0
   34.1421   28.6225   49.8217 H   0  0  0  0  0  0  0  0  0  0  0  0
  2  1  2  0
  3  2  1  0
  4  5  1  0
  4  3  2  0
  5  6  2  0
  6  1  1  0
  7 15  1  0
  7  5  1  0
  8  7  2  0
  9  8  1  0
  9 10  1  0
 10 15  2  0
 11 10  1  0
 11 12  2  0
 12 13  1  0
 13 14  2  0
 15 14  1  0
 16 17  1  0
 16  3  1  0
 16 18  1  0
 19 16  1  0
  1 20  1  0
  2 21  1  0
  8 22  1  0
  9 23  1  0
 11 24  1  0
 12 25  1  0
 13 26  1  0
 14 27  1  0
M  ISO  8  20  14  21  14  22  14  23   9  24  14  25  14  26  14  27  14
M  END
>  <minimizedAffinity>  (1) 
-6.09435558

>  <minimizedRMSD>  (1) 
1.94132602

$$$$
