
     RDKit          3D

 33 36  0  0  0  0  0  0  0  0999 V2000
   36.0470   30.4100   48.7050 C   0  0  0  0  0  0  0  0  0  0  0  0
   35.9320   29.3900   49.6820 C   0  0  0  0  0  0  0  0  0  0  0  0
   34.8640   28.5570   49.5780 C   0  0  0  0  0  0  0  0  0  0  0  0
   33.9880   28.7280   48.5860 C   0  0  0  0  0  0  0  0  0  0  0  0
   34.6150   30.1180   47.6890 S   0  0  0  0  0  0  0  0  0  0  0  0
   32.8410   27.8250   48.4850 C   0  0  0  0  0  0  0  0  0  0  0  0
   31.6380   28.0360   49.1140 C   0  0  0  0  0  0  0  0  0  0  0  0
   30.5730   27.2090   49.0250 C   0  0  0  0  0  0  0  0  0  0  0  0
   30.6170   26.0710   48.2840 C   0  0  0  0  0  0  0  0  0  0  0  0
   31.7950   25.7970   47.6260 C   0  0  0  0  0  0  0  0  0  0  0  0
   31.8460   24.6580   46.8800 C   0  0  0  0  0  0  0  0  0  0  0  0
   32.9760   24.2910   46.1810 C   0  0  0  0  0  0  0  0  0  0  0  0
   34.0740   25.1430   46.2720 C   0  0  0  0  0  0  0  0  0  0  0  0
   33.9610   26.2700   47.0350 C   0  0  0  0  0  0  0  0  0  0  0  0
   32.8670   26.6740   47.7410 C   0  0  0  0  0  0  0  0  0  0  0  0
   38.2260   33.2690   49.5150 C   0  0  0  0  0  0  0  0  0  0  0  0
   39.1190   33.2820   48.4290 C   0  0  0  0  0  0  0  0  0  0  0  0
   38.9550   32.3020   47.4330 C   0  0  0  0  0  0  0  0  0  0  0  0
   37.9430   31.3990   47.5750 N   0  0  0  0  0  0  0  0  0  0  0  0
   37.1170   31.4240   48.6240 C   0  0  0  0  0  0  0  0  0  0  0  0
   37.2290   32.3470   49.6160 N   0  0  0  0  0  0  0  0  0  0  0  0
   36.6731   29.2780   50.4871 H   0  0  0  0  0  0  0  0  0  0  0  0
   34.7221   27.7460   50.3075 H   0  0  0  0  0  0  0  0  0  0  0  0
   31.5346   28.9399   49.7323 H   0  0  0  0  0  0  0  0  0  0  0  0
   29.6490   27.4630   49.5650 H   0  0  0  0  0  0  0  0  0  0  0  0
   29.7497   25.3982   48.2129 H   0  0  0  0  0  0  0  0  0  0  0  0
   30.9576   24.0110   46.8341 H   0  0  0  0  0  0  0  0  0  0  0  0
   33.0089   23.3700   45.5805 H   0  0  0  0  0  0  0  0  0  0  0  0
   35.0101   24.9136   45.7418 H   0  0  0  0  0  0  0  0  0  0  0  0
   34.8465   26.9207   47.0852 H   0  0  0  0  0  0  0  0  0  0  0  0
   38.3359   34.0255   50.3059 H   0  0  0  0  0  0  0  0  0  0  0  0
   39.9193   34.0335   48.3604 H   0  0  0  0  0  0  0  0  0  0  0  0
   39.6259   32.2651   46.5620 H   0  0  0  0  0  0  0  0  0  0  0  0
  1  2  2  0
  3  2  1  0
  4  3  2  0
  5  4  1  0
  5  1  1  0
  6  4  1  0
  6  7  2  0
  8  7  1  0
  9  8  2  0
 10 15  2  0
 10  9  1  0
 11 10  1  0
 12 13  1  0
 12 11  2  0
 13 14  2  0
 14 15  1  0
 15  6  1  0
 16 21  2  0
 17 16  1  0
 18 19  1  0
 18 17  2  0
 19 20  2  0
 20  1  1  0
 20 21  1  0
  2 22  1  0
  3 23  1  0
  7 24  1  0
  8 25  1  0
  9 26  1  0
 11 27  1  0
 12 28  1  0
 13 29  1  0
 14 30  1  0
 16 31  1  0
 17 32  1  0
 18 33  1  0
M  ISO  8  22  14  23  14  24  14  25  14  26  14  27  14  28  14  29  14
M  ISO  4  30  14  31  14  32  14  33  14
M  END
>  <minimizedAffinity>  (1) 
-5.91825294

>  <minimizedRMSD>  (1) 
2.5169096

$$$$
