
     RDKit          3D

 53 57  0  0  0  0  0  0  0  0999 V2000
   35.9320   31.0240   42.7900 C   0  0  0  0  0  0  0  0  0  0  0  0
   37.1000   30.7420   42.0500 C   0  0  0  0  0  0  0  0  0  0  0  0
   38.2170   30.4350   42.7450 C   0  0  0  0  0  0  0  0  0  0  0  0
   38.1040   30.4300   44.0650 N   0  0  0  0  0  0  0  0  0  0  0  0
   37.0910   30.6710   44.8240 C   0  0  0  0  0  0  0  0  0  0  0  0
   36.0000   30.9710   44.1250 N   0  0  0  0  0  0  0  0  0  0  0  0
   36.8550   30.7000   46.2520 C   0  0  0  0  0  0  0  0  0  0  0  0
   35.8930   29.9490   46.8960 C   0  0  0  0  0  0  0  0  0  0  0  0
   35.6590   29.9670   48.2370 C   0  0  0  0  0  0  0  0  0  0  0  0
   36.4060   30.7710   49.0540 C   0  0  0  0  0  0  0  0  0  0  0  0
   37.3590   31.5270   48.4910 C   0  0  0  0  0  0  0  0  0  0  0  0
   38.1110   32.3400   49.3220 C   0  0  0  0  0  0  0  0  0  0  0  0
   39.0990   33.1420   48.8380 C   0  0  0  0  0  0  0  0  0  0  0  0
   39.3400   33.1260   47.4720 C   0  0  0  0  0  0  0  0  0  0  0  0
   38.5800   32.3130   46.6820 C   0  0  0  0  0  0  0  0  0  0  0  0
   37.5910   31.5060   47.1340 C   0  0  0  0  0  0  0  0  0  0  0  0
   36.1470   30.7680   50.4110 O   0  0  0  0  0  0  0  0  0  0  0  0
   36.5860   29.6900   51.2220 C   0  0  0  0  0  0  0  0  0  0  0  0
   37.3900   28.7800   50.6080 F   0  0  0  0  0  0  0  0  0  0  0  0
   37.3490   30.2370   52.2500 F   0  0  0  0  0  0  0  0  0  0  0  0
   35.4370   29.0760   51.7160 F   0  0  0  0  0  0  0  0  0  0  0  0
   37.1330   30.7740   40.5860 C   0  0  0  0  0  0  0  0  0  0  0  0
   36.8780   29.5570   39.9840 C   0  0  0  0  0  0  0  0  0  0  0  0
   36.8810   29.4610   38.6250 C   0  0  0  0  0  0  0  0  0  0  0  0
   37.1290   30.5360   37.7760 C   0  0  0  0  0  0  0  0  0  0  0  0
   37.3800   31.7370   38.4130 C   0  0  0  0  0  0  0  0  0  0  0  0
   37.6370   32.8570   37.6580 C   0  0  0  0  0  0  0  0  0  0  0  0
   37.8880   34.0620   38.3020 C   0  0  0  0  0  0  0  0  0  0  0  0
   37.8880   34.1670   39.6800 C   0  0  0  0  0  0  0  0  0  0  0  0
   37.6290   33.0460   40.4580 C   0  0  0  0  0  0  0  0  0  0  0  0
   37.3860   31.8750   39.7880 C   0  0  0  0  0  0  0  0  0  0  0  0
   39.4640   30.1180   42.1450 N   0  0  0  0  0  0  0  0  0  0  0  0
   40.6460   29.9160   42.9010 C   0  0  0  0  0  0  0  0  0  0  0  0
   40.8630   30.7170   43.8960 N   0  0  0  0  0  0  0  0  0  0  0  0
   41.5520   28.8790   42.5830 N   0  0  0  0  0  0  0  0  0  0  0  0
   41.6510   30.7110   44.5300 H   0  0  0  0  0  0  0  0  0  0  0  0
   34.9904   31.2806   42.2825 H   0  0  0  0  0  0  0  0  0  0  0  0
   35.2683   29.2860   46.2795 H   0  0  0  0  0  0  0  0  0  0  0  0
   34.8677   29.3338   48.6646 H   0  0  0  0  0  0  0  0  0  0  0  0
   37.9046   32.3379   50.4025 H   0  0  0  0  0  0  0  0  0  0  0  0
   39.6884   33.7833   49.5099 H   0  0  0  0  0  0  0  0  0  0  0  0
   40.1281   33.7562   47.0341 H   0  0  0  0  0  0  0  0  0  0  0  0
   38.7854   32.3133   45.6014 H   0  0  0  0  0  0  0  0  0  0  0  0
   36.6733   28.6687   40.5997 H   0  0  0  0  0  0  0  0  0  0  0  0
   36.6760   28.4792   38.1734 H   0  0  0  0  0  0  0  0  0  0  0  0
   37.1255   30.4372   36.6804 H   0  0  0  0  0  0  0  0  0  0  0  0
   37.6438   32.7997   36.5595 H   0  0  0  0  0  0  0  0  0  0  0  0
   38.0926   34.9582   37.6979 H   0  0  0  0  0  0  0  0  0  0  0  0
   38.0926   35.1357   40.1593 H   0  0  0  0  0  0  0  0  0  0  0  0
   37.6193   33.0953   41.5569 H   0  0  0  0  0  0  0  0  0  0  0  0
   39.5118   30.0314   41.1198 H   0  0  0  0  0  0  0  0  0  0  0  0
   42.4051   28.7499   43.1456 H   0  0  0  0  0  0  0  0  0  0  0  0
   41.3592   28.2523   41.7886 H   0  0  0  0  0  0  0  0  0  0  0  0
  1  6  2  0
  2  3  2  0
  2  1  1  0
  3  4  1  0
  4  5  2  0
  5  7  1  0
  6  5  1  0
  7  8  2  0
  7 16  1  0
  8  9  1  0
  9 10  2  0
 10 17  1  0
 11 10  1  0
 11 12  2  0
 13 12  1  0
 14 13  2  0
 15 16  2  0
 15 14  1  0
 16 11  1  0
 17 18  1  0
 18 21  1  0
 18 20  1  0
 19 18  1  0
 22  2  1  0
 23 22  2  0
 24 23  1  0
 25 26  1  0
 25 24  2  0
 26 31  2  0
 27 28  2  0
 27 26  1  0
 28 29  1  0
 29 30  2  0
 31 30  1  0
 31 22  1  0
 32  3  1  0
 32 33  1  0
 33 34  2  0
 34 36  1  0
 35 33  1  0
  1 37  1  0
  8 38  1  0
  9 39  1  0
 12 40  1  0
 13 41  1  0
 14 42  1  0
 15 43  1  0
 23 44  1  0
 24 45  1  0
 25 46  1  0
 27 47  1  0
 28 48  1  0
 29 49  1  0
 30 50  1  0
 32 51  1  0
 35 52  1  0
 35 53  1  0
M  END
>  <minimizedAffinity>  (1) 
-7.62632322

>  <minimizedRMSD>  (1) 
1.11331999

$$$$
