
     RDKit          3D

 40 44  0  0  0  0  0  0  0  0999 V2000
   32.2620   30.0840   46.1310 C   0  0  0  0  0  0  0  0  0  0  0  0
   31.9440   28.7320   46.1090 C   0  0  0  0  0  0  0  0  0  0  0  0
   32.8430   27.8050   46.6410 C   0  0  0  0  0  0  0  0  0  0  0  0
   33.9950   28.3330   47.1490 N   0  0  0  0  0  0  0  0  0  0  0  0
   34.3010   29.6330   47.1680 C   0  0  0  0  0  0  0  0  0  0  0  0
   33.4290   30.4880   46.6600 N   0  0  0  0  0  0  0  0  0  0  0  0
   35.5780   30.0220   47.7470 C   0  0  0  0  0  0  0  0  0  0  0  0
   36.6120   30.5730   47.0230 C   0  0  0  0  0  0  0  0  0  0  0  0
   37.6590   30.8260   47.8290 N   0  0  0  0  0  0  0  0  0  0  0  0
   37.3210   30.4460   49.0680 C   0  0  0  0  0  0  0  0  0  0  0  0
   38.0180   30.4810   50.2710 C   0  0  0  0  0  0  0  0  0  0  0  0
   37.3920   30.0070   51.4150 C   0  0  0  0  0  0  0  0  0  0  0  0
   36.1060   29.5130   51.3450 C   0  0  0  0  0  0  0  0  0  0  0  0
   35.3740   29.4600   50.1660 C   0  0  0  0  0  0  0  0  0  0  0  0
   36.0250   29.9410   49.0420 C   0  0  0  0  0  0  0  0  0  0  0  0
   32.7550   26.3660   46.6600 C   0  0  0  0  0  0  0  0  0  0  0  0
   33.8760   25.6870   47.1670 C   0  0  0  0  0  0  0  0  0  0  0  0
   33.9760   24.3210   47.2750 C   0  0  0  0  0  0  0  0  0  0  0  0
   32.9300   23.5320   46.8730 C   0  0  0  0  0  0  0  0  0  0  0  0
   31.8010   24.1300   46.3720 C   0  0  0  0  0  0  0  0  0  0  0  0
   30.7100   23.3820   45.9890 C   0  0  0  0  0  0  0  0  0  0  0  0
   29.5280   23.9500   45.5100 C   0  0  0  0  0  0  0  0  0  0  0  0
   29.5240   25.3470   45.4450 C   0  0  0  0  0  0  0  0  0  0  0  0
   30.6260   26.0740   45.8310 C   0  0  0  0  0  0  0  0  0  0  0  0
   31.7730   25.4900   46.2940 C   0  0  0  0  0  0  0  0  0  0  0  0
   31.5599   30.8222   45.7162 H   0  0  0  0  0  0  0  0  0  0  0  0
   30.9911   28.3940   45.6757 H   0  0  0  0  0  0  0  0  0  0  0  0
   36.5856   30.7767   45.9423 H   0  0  0  0  0  0  0  0  0  0  0  0
   38.5591   31.2380   47.5443 H   0  0  0  0  0  0  0  0  0  0  0  0
   39.0437   30.8760   50.3146 H   0  0  0  0  0  0  0  0  0  0  0  0
   37.9218   30.0252   52.3788 H   0  0  0  0  0  0  0  0  0  0  0  0
   35.6371   29.1428   52.2686 H   0  0  0  0  0  0  0  0  0  0  0  0
   34.3486   29.0636   50.1275 H   0  0  0  0  0  0  0  0  0  0  0  0
   34.7327   26.2910   47.5005 H   0  0  0  0  0  0  0  0  0  0  0  0
   34.8900   23.8634   47.6816 H   0  0  0  0  0  0  0  0  0  0  0  0
   32.9944   22.4366   46.9507 H   0  0  0  0  0  0  0  0  0  0  0  0
   30.7727   22.2863   46.0639 H   0  0  0  0  0  0  0  0  0  0  0  0
   28.6627   23.3428   45.2058 H   0  0  0  0  0  0  0  0  0  0  0  0
   28.6282   25.8711   45.0805 H   0  0  0  0  0  0  0  0  0  0  0  0
   30.5831   27.1712   45.7646 H   0  0  0  0  0  0  0  0  0  0  0  0
  1  6  2  0
  2  1  1  0
  2  3  2  0
  3 16  1  0
  3  4  1  0
  4  5  2  0
  5  7  1  0
  6  5  1  0
  7 15  1  0
  8  7  2  0
  8  9  1  0
  9 10  1  0
 10 11  2  0
 11 12  1  0
 13 12  2  0
 14 13  1  0
 15 10  1  0
 15 14  2  0
 16 17  2  0
 17 18  1  0
 19 18  2  0
 20 19  1  0
 21 20  2  0
 22 21  1  0
 23 22  2  0
 23 24  1  0
 24 25  2  0
 25 20  1  0
 25 16  1  0
  1 26  1  0
  2 27  1  0
  8 28  1  0
  9 29  1  0
 11 30  1  0
 12 31  1  0
 13 32  1  0
 14 33  1  0
 17 34  1  0
 18 35  1  0
 19 36  1  0
 21 37  1  0
 22 38  1  0
 23 39  1  0
 24 40  1  0
M  ISO  8  26  14  27  14  28  14  29   9  30  14  31  14  32  14  33  14
M  ISO  7  34  14  35  14  36  14  37  14  38  14  39  14  40  14
M  END
>  <minimizedAffinity>  (1) 
-6.30724287

>  <minimizedRMSD>  (1) 
0.311782867

$$$$
