
     RDKit          3D

 36 39  0  0  0  0  0  0  0  0999 V2000
   35.6420   29.5390   49.3660 C   0  0  0  0  0  0  0  0  0  0  0  0
   35.7350   29.2160   50.7340 C   0  0  0  0  0  0  0  0  0  0  0  0
   36.6970   29.6690   51.5870 C   0  0  0  0  0  0  0  0  0  0  0  0
   37.6730   30.5140   51.1040 C   0  0  0  0  0  0  0  0  0  0  0  0
   37.6490   30.8710   49.7920 C   0  0  0  0  0  0  0  0  0  0  0  0
   38.6470   31.7150   49.3650 C   0  0  0  0  0  0  0  0  0  0  0  0
   38.6930   32.1190   48.0630 C   0  0  0  0  0  0  0  0  0  0  0  0
   37.7080   31.6510   47.2030 C   0  0  0  0  0  0  0  0  0  0  0  0
   36.7350   30.8080   47.6920 C   0  0  0  0  0  0  0  0  0  0  0  0
   36.6570   30.3850   48.9770 C   0  0  0  0  0  0  0  0  0  0  0  0
   33.6410   27.0120   47.8080 C   0  0  0  0  0  0  0  0  0  0  0  0
   32.7370   27.6400   46.9660 C   0  0  0  0  0  0  0  0  0  0  0  0
   32.8230   29.0130   46.9360 C   0  0  0  0  0  0  0  0  0  0  0  0
   33.7420   29.6010   47.6960 N   0  0  0  0  0  0  0  0  0  0  0  0
   34.6080   29.0370   48.4980 C   0  0  0  0  0  0  0  0  0  0  0  0
   34.5160   27.7100   48.5210 N   0  0  0  0  0  0  0  0  0  0  0  0
   31.9440   29.8220   46.1020 C   0  0  0  0  0  0  0  0  0  0  0  0
   32.2910   31.0130   45.5130 C   0  0  0  0  0  0  0  0  0  0  0  0
   31.4320   31.7520   44.7300 C   0  0  0  0  0  0  0  0  0  0  0  0
   30.1610   31.3090   44.5060 C   0  0  0  0  0  0  0  0  0  0  0  0
   29.7570   30.1350   45.0630 C   0  0  0  0  0  0  0  0  0  0  0  0
   30.6540   29.4110   45.8520 C   0  0  0  0  0  0  0  0  0  0  0  0
   34.9690   28.5435   51.1476 H   0  0  0  0  0  0  0  0  0  0  0  0
   36.6944   29.3650   52.6441 H   0  0  0  0  0  0  0  0  0  0  0  0
   38.4607   30.8945   51.7708 H   0  0  0  0  0  0  0  0  0  0  0  0
   39.4104   32.0653   50.0753 H   0  0  0  0  0  0  0  0  0  0  0  0
   39.4848   32.7938   47.7056 H   0  0  0  0  0  0  0  0  0  0  0  0
   37.7051   31.9500   46.1444 H   0  0  0  0  0  0  0  0  0  0  0  0
   35.9666   30.4528   46.9896 H   0  0  0  0  0  0  0  0  0  0  0  0
   33.6331   25.9149   47.8868 H   0  0  0  0  0  0  0  0  0  0  0  0
   32.0040   27.0815   46.3653 H   0  0  0  0  0  0  0  0  0  0  0  0
   33.3089   31.3972   45.6751 H   0  0  0  0  0  0  0  0  0  0  0  0
   31.7706   32.6994   44.2852 H   0  0  0  0  0  0  0  0  0  0  0  0
   29.4702   31.8947   43.8817 H   0  0  0  0  0  0  0  0  0  0  0  0
   28.7365   29.7607   44.8940 H   0  0  0  0  0  0  0  0  0  0  0  0
   30.3123   28.4644   46.2961 H   0  0  0  0  0  0  0  0  0  0  0  0
  1  2  2  0
  2  3  1  0
  4  3  2  0
  5  4  1  0
  6  5  2  0
  7  6  1  0
  8  9  1  0
  8  7  2  0
  9 10  2  0
 10  1  1  0
 10  5  1  0
 11 16  2  0
 12 11  1  0
 13 12  2  0
 13 14  1  0
 14 15  2  0
 15 16  1  0
 15  1  1  0
 17 13  1  0
 18 17  2  0
 19 18  1  0
 20 19  2  0
 20 21  1  0
 21 22  2  0
 22 17  1  0
  2 23  1  0
  3 24  1  0
  4 25  1  0
  6 26  1  0
  7 27  1  0
  8 28  1  0
  9 29  1  0
 11 30  1  0
 12 31  1  0
 18 32  1  0
 19 33  1  0
 20 34  1  0
 21 35  1  0
 22 36  1  0
M  ISO  8  23  14  24  14  25  14  26  14  27  14  28  14  29  14  30  14
M  ISO  6  31  14  32  14  33  14  34  14  35  14  36  14
M  END
>  <minimizedAffinity>  (1) 
-6.82595587

>  <minimizedRMSD>  (1) 
0.598390281

$$$$
