
     RDKit          3D

 23 24  0  0  0  0  0  0  0  0999 V2000
   35.7990   29.7050   50.3240 C   0  0  0  0  0  0  0  0  0  0  0  0
   36.2720   30.6370   49.3720 C   0  0  0  0  0  0  0  0  0  0  0  0
   35.7670   30.5180   48.0640 C   0  0  0  0  0  0  0  0  0  0  0  0
   34.8640   29.5350   47.7760 N   0  0  0  0  0  0  0  0  0  0  0  0
   34.4430   28.6610   48.7400 C   0  0  0  0  0  0  0  0  0  0  0  0
   34.9130   28.7630   49.9790 N   0  0  0  0  0  0  0  0  0  0  0  0
   33.4790   27.6330   48.3670 C   0  0  0  0  0  0  0  0  0  0  0  0
   33.9090   26.5370   47.6610 C   0  0  0  0  0  0  0  0  0  0  0  0
   32.9760   25.5850   47.3230 C   0  0  0  0  0  0  0  0  0  0  0  0
   31.6550   25.7750   47.7080 C   0  0  0  0  0  0  0  0  0  0  0  0
   31.2190   26.8740   48.4160 C   0  0  0  0  0  0  0  0  0  0  0  0
   32.1480   27.8190   48.7510 C   0  0  0  0  0  0  0  0  0  0  0  0
   37.2470   31.6980   49.6910 C   0  0  0  0  0  0  0  0  0  0  0  0
   37.8370   32.2510   48.5880 F   0  0  0  0  0  0  0  0  0  0  0  0
   38.2500   31.2480   50.5000 F   0  0  0  0  0  0  0  0  0  0  0  0
   36.5880   32.7440   50.3350 F   0  0  0  0  0  0  0  0  0  0  0  0
   36.1635   29.7546   51.3607 H   0  0  0  0  0  0  0  0  0  0  0  0
   36.0977   31.2129   47.2780 H   0  0  0  0  0  0  0  0  0  0  0  0
   34.9652   26.4240   47.3751 H   0  0  0  0  0  0  0  0  0  0  0  0
   33.2707   24.6886   46.7576 H   0  0  0  0  0  0  0  0  0  0  0  0
   30.9172   25.0069   47.4330 H   0  0  0  0  0  0  0  0  0  0  0  0
   30.1625   26.9865   48.7010 H   0  0  0  0  0  0  0  0  0  0  0  0
   31.8517   28.7151   49.3160 H   0  0  0  0  0  0  0  0  0  0  0  0
  2 13  1  0
  2  1  2  0
  3  2  1  0
  4  3  2  0
  4  5  1  0
  5  6  2  0
  6  1  1  0
  7  5  1  0
  7 12  1  0
  8  7  2  0
  9  8  1  0
  9 10  2  0
 10 11  1  0
 11 12  2  0
 13 16  1  0
 13 15  1  0
 14 13  1  0
  1 17  1  0
  3 18  1  0
  8 19  1  0
  9 20  1  0
 10 21  1  0
 11 22  1  0
 12 23  1  0
M  ISO  7  17  14  18  14  19  14  20  14  21  14  22  14  23  14
M  END
>  <minimizedAffinity>  (1) 
-5.40985298

>  <minimizedRMSD>  (1) 
1.4022876

$$$$
