
     RDKit          3D

 30 32  0  0  1  0  0  0  0  0999 V2000
   36.3600   30.3700   50.4230 C   0  0  2  0  0  0  0  0  0  0  0  0
   35.6570   29.3400   51.2480 C   0  0  0  0  0  0  0  0  0  0  0  0
   36.0050   29.0280   49.8300 C   0  0  1  0  0  0  0  0  0  0  0  0
   34.9430   28.9260   48.8160 C   0  0  0  0  0  0  0  0  0  0  0  0
   35.0840   29.6880   47.6630 C   0  0  0  0  0  0  0  0  0  0  0  0
   34.1310   29.6630   46.6380 C   0  0  0  0  0  0  0  0  0  0  0  0
   33.0200   28.8540   46.7850 C   0  0  0  0  0  0  0  0  0  0  0  0
   32.8840   28.0900   47.9460 C   0  0  0  0  0  0  0  0  0  0  0  0
   33.8350   28.1210   48.9590 C   0  0  0  0  0  0  0  0  0  0  0  0
   37.8490   30.5870   50.6370 C   0  0  0  0  0  0  0  0  0  0  0  0
   39.0350   33.5510   48.7960 C   0  0  0  0  0  0  0  0  0  0  0  0
   39.2020   33.0770   47.4960 C   0  0  0  0  0  0  0  0  0  0  0  0
   38.9030   31.7260   47.2550 C   0  0  0  0  0  0  0  0  0  0  0  0
   38.4710   30.9770   48.3080 N   0  0  0  0  0  0  0  0  0  0  0  0
   38.3250   31.4760   49.5490 C   0  0  0  0  0  0  0  0  0  0  0  0
   38.6070   32.7670   49.7960 N   0  0  0  0  0  0  0  0  0  0  0  0
   36.1577   31.4284   50.2020 H   0  0  0  0  0  0  0  0  0  0  0  0
   36.1909   28.8359   52.0671 H   0  0  0  0  0  0  0  0  0  0  0  0
   34.7293   29.3231   51.8388 H   0  0  0  0  0  0  0  0  0  0  0  0
   36.5642   28.2285   49.3220 H   0  0  0  0  0  0  0  0  0  0  0  0
   35.9705   30.3298   47.5523 H   0  0  0  0  0  0  0  0  0  0  0  0
   34.2636   30.2750   45.7336 H   0  0  0  0  0  0  0  0  0  0  0  0
   32.2529   28.8125   45.9977 H   0  0  0  0  0  0  0  0  0  0  0  0
   31.9998   27.4459   48.0619 H   0  0  0  0  0  0  0  0  0  0  0  0
   33.7042   27.5098   49.8642 H   0  0  0  0  0  0  0  0  0  0  0  0
   38.0239   31.0608   51.6142 H   0  0  0  0  0  0  0  0  0  0  0  0
   38.3888   29.6287   50.6217 H   0  0  0  0  0  0  0  0  0  0  0  0
   39.2624   34.6059   49.0092 H   0  0  0  0  0  0  0  0  0  0  0  0
   39.5547   33.7362   46.6891 H   0  0  0  0  0  0  0  0  0  0  0  0
   39.0136   31.2882   46.2519 H   0  0  0  0  0  0  0  0  0  0  0  0
  1 10  1  0
  1  2  1  0
  3  1  1  0
  3  2  1  0
  4  9  1  0
  4  3  1  0
  5  4  2  0
  6  7  2  0
  6  5  1  0
  7  8  1  0
  8  9  2  0
 11 16  2  0
 12 11  1  0
 13 12  2  0
 13 14  1  0
 14 15  2  0
 15 16  1  0
 15 10  1  0
  1 17  1  6
  2 18  1  0
  2 19  1  0
  3 20  1  1
  5 21  1  0
  6 22  1  0
  7 23  1  0
  8 24  1  0
  9 25  1  0
 10 26  1  0
 10 27  1  0
 11 28  1  0
 12 29  1  0
 13 30  1  0
M  ISO  8  17  13  18  13  19  13  20  13  21  14  22  14  23  14  24  14
M  ISO  6  25  14  26   8  27   8  28  14  29  14  30  14
M  END
>  <minimizedAffinity>  (1) 
-5.60271883

>  <minimizedRMSD>  (1) 
1.65751362

$$$$
