
     RDKit          3D

 28 29  0  0  0  0  0  0  0  0999 V2000
   37.0560   30.9710   48.7340 C   0  0  0  0  0  0  0  0  0  0  0  0
   38.1850   31.2240   47.9420 C   0  0  0  0  0  0  0  0  0  0  0  0
   38.0720   31.0330   46.5700 C   0  0  0  0  0  0  0  0  0  0  0  0
   36.8930   30.6150   46.0580 N   0  0  0  0  0  0  0  0  0  0  0  0
   35.8100   30.3780   46.8620 C   0  0  0  0  0  0  0  0  0  0  0  0
   35.9050   30.5580   48.1890 N   0  0  0  0  0  0  0  0  0  0  0  0
   39.1880   31.2770   45.7240 N   0  0  0  0  0  0  0  0  0  0  0  0
   39.5420   30.3550   44.6890 C   0  0  0  0  0  0  0  0  0  0  0  0
   40.4600   31.1220   43.7340 C   0  0  0  0  0  0  0  0  0  0  0  0
   39.7580   32.4450   43.4540 C   0  0  0  0  0  0  0  0  0  0  0  0
   39.7860   33.3330   44.6790 C   0  0  0  0  0  0  0  0  0  0  0  0
   39.9720   32.4810   45.9230 C   0  0  0  0  0  0  0  0  0  0  0  0
   37.1420   31.1660   50.2160 C   0  0  0  0  0  0  0  0  0  0  0  0
   36.3560   30.2320   50.8650 F   0  0  0  0  0  0  0  0  0  0  0  0
   38.4420   31.1780   50.5870 F   0  0  0  0  0  0  0  0  0  0  0  0
   36.5650   32.4160   50.4870 F   0  0  0  0  0  0  0  0  0  0  0  0
   39.1298   31.5628   48.3921 H   0  0  0  0  0  0  0  0  0  0  0  0
   34.8612   30.0398   46.4200 H   0  0  0  0  0  0  0  0  0  0  0  0
   40.0706   29.4888   45.1136 H   0  0  0  0  0  0  0  0  0  0  0  0
   38.6512   29.9720   44.1697 H   0  0  0  0  0  0  0  0  0  0  0  0
   41.4385   31.2998   44.2039 H   0  0  0  0  0  0  0  0  0  0  0  0
   40.6425   30.5572   42.8079 H   0  0  0  0  0  0  0  0  0  0  0  0
   40.2686   32.9567   42.6249 H   0  0  0  0  0  0  0  0  0  0  0  0
   38.7103   32.2410   43.1880 H   0  0  0  0  0  0  0  0  0  0  0  0
   40.6199   34.0455   44.5955 H   0  0  0  0  0  0  0  0  0  0  0  0
   38.8365   33.8836   44.7524 H   0  0  0  0  0  0  0  0  0  0  0  0
   39.6152   33.0234   46.8109 H   0  0  0  0  0  0  0  0  0  0  0  0
   41.0334   32.2404   46.0830 H   0  0  0  0  0  0  0  0  0  0  0  0
  1 13  1  0
  2  1  2  0
  3  2  1  0
  4  3  2  0
  4  5  1  0
  5  6  2  0
  6  1  1  0
  7 12  1  0
  7  3  1  0
  8  7  1  0
  9  8  1  0
 10  9  1  0
 10 11  1  0
 11 12  1  0
 13 16  1  0
 13 15  1  0
 13 14  1  0
  2 17  1  0
  5 18  1  0
  8 19  1  0
  8 20  1  0
  9 21  1  0
  9 22  1  0
 10 23  1  0
 10 24  1  0
 11 25  1  0
 11 26  1  0
 12 27  1  0
 12 28  1  0
M  ISO  8  17  14  18  14  19  13  20  13  21  13  22  13  23  13  24  13
M  ISO  4  25  13  26  13  27  13  28  13
M  END
>  <minimizedAffinity>  (1) 
-5.84201527

>  <minimizedRMSD>  (1) 
3.4357512

$$$$
