
     RDKit          3D

 31 32  0  0  0  0  0  0  0  0999 V2000
   37.8640   30.4890   47.7540 C   0  0  0  0  0  0  0  0  0  0  0  0
   37.2570   30.1060   51.4880 C   0  0  0  0  0  0  0  0  0  0  0  0
   37.8950   30.4840   50.2890 C   0  0  0  0  0  0  0  0  0  0  0  0
   37.2950   30.1540   49.0750 C   0  0  0  0  0  0  0  0  0  0  0  0
   36.1140   29.4790   49.1270 N   0  0  0  0  0  0  0  0  0  0  0  0
   35.5110   29.1220   50.2600 C   0  0  0  0  0  0  0  0  0  0  0  0
   36.0840   29.4370   51.4450 N   0  0  0  0  0  0  0  0  0  0  0  0
   38.1480   31.9640   47.6070 C   0  0  0  0  0  0  0  0  0  0  0  0
   38.5450   32.2600   46.2430 N   0  0  0  0  0  0  0  0  0  0  0  0
   39.7910   32.9330   46.2630 C   0  0  0  0  0  0  0  0  0  0  0  0
   40.4890   33.0250   44.9340 C   0  0  0  0  0  0  0  0  0  0  0  0
   40.1750   31.9330   43.9690 C   0  0  0  0  0  0  0  0  0  0  0  0
   39.7980   30.7140   44.7830 C   0  0  0  0  0  0  0  0  0  0  0  0
   38.5280   31.0300   45.4990 C   0  0  0  0  0  0  0  0  0  0  0  0
   38.8044   29.9335   47.6233 H   0  0  0  0  0  0  0  0  0  0  0  0
   37.1228   30.2124   46.9897 H   0  0  0  0  0  0  0  0  0  0  0  0
   37.7136   30.3554   52.4572 H   0  0  0  0  0  0  0  0  0  0  0  0
   38.8497   31.0299   50.3112 H   0  0  0  0  0  0  0  0  0  0  0  0
   34.5563   28.5763   50.2327 H   0  0  0  0  0  0  0  0  0  0  0  0
   37.2416   32.5358   47.8547 H   0  0  0  0  0  0  0  0  0  0  0  0
   38.9642   32.2441   48.2892 H   0  0  0  0  0  0  0  0  0  0  0  0
   39.6197   33.9560   46.6292 H   0  0  0  0  0  0  0  0  0  0  0  0
   40.4493   32.3386   46.9137 H   0  0  0  0  0  0  0  0  0  0  0  0
   40.2070   33.9808   44.4682 H   0  0  0  0  0  0  0  0  0  0  0  0
   41.5641   32.9382   45.1501 H   0  0  0  0  0  0  0  0  0  0  0  0
   41.0558   31.7140   43.3475 H   0  0  0  0  0  0  0  0  0  0  0  0
   39.3527   32.2265   43.3000 H   0  0  0  0  0  0  0  0  0  0  0  0
   39.6500   29.8497   44.1189 H   0  0  0  0  0  0  0  0  0  0  0  0
   40.5950   30.4636   45.4986 H   0  0  0  0  0  0  0  0  0  0  0  0
   37.7214   31.0921   44.7537 H   0  0  0  0  0  0  0  0  0  0  0  0
   38.3788   30.2256   46.2343 H   0  0  0  0  0  0  0  0  0  0  0  0
  1  4  1  0
  3  2  2  0
  4  5  2  0
  4  3  1  0
  5  6  1  0
  6  7  2  0
  7  2  1  0
  8  1  1  0
  9 10  1  0
  9  8  1  0
 11 10  1  0
 12 13  1  0
 12 11  1  0
 13 14  1  0
 14  9  1  0
  1 15  1  0
  1 16  1  0
  2 17  1  0
  3 18  1  0
  6 19  1  0
  8 20  1  0
  8 21  1  0
 10 22  1  0
 10 23  1  0
 11 24  1  0
 11 25  1  0
 12 26  1  0
 12 27  1  0
 13 28  1  0
 13 29  1  0
 14 30  1  0
 14 31  1  0
M  ISO  8  15   8  16   8  17  14  18  14  19  14  20   8  21   8  22  13
M  ISO  8  23  13  24  13  25  13  26  13  27  13  28  13  29  13  30  13
M  ISO  1  31  13
M  END
>  <minimizedAffinity>  (1) 
-4.89587498

>  <minimizedRMSD>  (1) 
1.78384054

$$$$
