
     RDKit          3D

 50 53  0  0  0  0  0  0  0  0999 V2000
   36.9390   30.8300   46.0700 C   0  0  0  0  0  0  0  0  0  0  0  0
   35.9100   30.0510   46.5930 C   0  0  0  0  0  0  0  0  0  0  0  0
   35.5690   29.9930   47.9090 C   0  0  0  0  0  0  0  0  0  0  0  0
   36.2570   30.7370   48.8280 C   0  0  0  0  0  0  0  0  0  0  0  0
   37.2610   31.5080   48.3860 C   0  0  0  0  0  0  0  0  0  0  0  0
   37.9530   32.2570   49.3210 C   0  0  0  0  0  0  0  0  0  0  0  0
   38.9880   33.0690   48.9600 C   0  0  0  0  0  0  0  0  0  0  0  0
   39.3330   33.1240   47.6190 C   0  0  0  0  0  0  0  0  0  0  0  0
   38.6230   32.3680   46.7270 C   0  0  0  0  0  0  0  0  0  0  0  0
   37.5980   31.5590   47.0510 C   0  0  0  0  0  0  0  0  0  0  0  0
   36.2690   31.3040   42.5680 C   0  0  0  0  0  0  0  0  0  0  0  0
   37.4880   31.0470   41.9040 C   0  0  0  0  0  0  0  0  0  0  0  0
   38.5570   30.7050   42.6740 C   0  0  0  0  0  0  0  0  0  0  0  0
   38.3450   30.6480   43.9800 N   0  0  0  0  0  0  0  0  0  0  0  0
   37.2720   30.8650   44.6680 C   0  0  0  0  0  0  0  0  0  0  0  0
   36.2430   31.1970   43.8890 N   0  0  0  0  0  0  0  0  0  0  0  0
   39.8400   30.4150   42.1640 N   0  0  0  0  0  0  0  0  0  0  0  0
   40.9100   29.9650   42.9810 C   0  0  0  0  0  0  0  0  0  0  0  0
   41.0480   30.5140   44.1500 N   0  0  0  0  0  0  0  0  0  0  0  0
   41.7890   28.9490   42.5220 N   0  0  0  0  0  0  0  0  0  0  0  0
   41.7400   30.2660   44.8470 H   0  0  0  0  0  0  0  0  0  0  0  0
   37.6340   31.1320   40.4800 N   0  0  0  0  0  0  0  0  0  0  0  0
   38.0220   32.2400   39.6240 C   0  0  0  0  0  0  0  0  0  0  0  0
   39.2670   31.7780   38.8660 C   0  0  0  0  0  0  0  0  0  0  0  0
   39.1800   30.4720   38.4520 O   0  0  0  0  0  0  0  0  0  0  0  0
   37.8860   30.0170   38.3940 C   0  0  0  0  0  0  0  0  0  0  0  0
   37.3310   29.8710   39.8130 C   0  0  0  0  0  0  0  0  0  0  0  0
   35.8920   30.6600   50.1510 O   0  0  0  0  0  0  0  0  0  0  0  0
   36.4090   29.6440   50.9880 C   0  0  0  0  0  0  0  0  0  0  0  0
   37.2300   28.7380   50.3750 F   0  0  0  0  0  0  0  0  0  0  0  0
   37.1840   30.2570   51.9590 F   0  0  0  0  0  0  0  0  0  0  0  0
   35.3160   29.0040   51.5610 F   0  0  0  0  0  0  0  0  0  0  0  0
   35.3292   29.4364   45.8894 H   0  0  0  0  0  0  0  0  0  0  0  0
   34.7397   29.3475   48.2341 H   0  0  0  0  0  0  0  0  0  0  0  0
   37.6619   32.1963   50.3800 H   0  0  0  0  0  0  0  0  0  0  0  0
   39.5319   33.6618   49.7102 H   0  0  0  0  0  0  0  0  0  0  0  0
   40.1613   33.7628   47.2786 H   0  0  0  0  0  0  0  0  0  0  0  0
   38.9113   32.4258   45.6670 H   0  0  0  0  0  0  0  0  0  0  0  0
   35.3666   31.5850   42.0053 H   0  0  0  0  0  0  0  0  0  0  0  0
   40.0076   30.5350   41.1548 H   0  0  0  0  0  0  0  0  0  0  0  0
   42.5629   28.6282   43.1212 H   0  0  0  0  0  0  0  0  0  0  0  0
   41.6528   28.5327   41.5898 H   0  0  0  0  0  0  0  0  0  0  0  0
   37.2125   32.4783   38.9183 H   0  0  0  0  0  0  0  0  0  0  0  0
   38.2241   33.1482   40.2109 H   0  0  0  0  0  0  0  0  0  0  0  0
   39.3994   32.4194   37.9822 H   0  0  0  0  0  0  0  0  0  0  0  0
   40.1221   31.8526   39.5540 H   0  0  0  0  0  0  0  0  0  0  0  0
   37.2702   30.7344   37.8317 H   0  0  0  0  0  0  0  0  0  0  0  0
   37.8639   29.0396   37.8899 H   0  0  0  0  0  0  0  0  0  0  0  0
   36.2445   29.7017   39.7856 H   0  0  0  0  0  0  0  0  0  0  0  0
   37.7751   29.0132   40.3393 H   0  0  0  0  0  0  0  0  0  0  0  0
  1  2  2  0
  1 10  1  0
  2  3  1  0
  3  4  2  0
  4 28  1  0
  5  4  1  0
  5  6  2  0
  7  6  1  0
  8  7  2  0
  9 10  2  0
  9  8  1  0
 10  5  1  0
 11 16  2  0
 12 11  1  0
 12 13  2  0
 13 14  1  0
 14 15  2  0
 15  1  1  0
 16 15  1  0
 17 13  1  0
 17 18  1  0
 18 19  2  0
 19 21  1  0
 20 18  1  0
 22 12  1  0
 23 22  1  0
 24 23  1  0
 25 24  1  0
 26 25  1  0
 26 27  1  0
 27 22  1  0
 28 29  1  0
 29 32  1  0
 29 31  1  0
 30 29  1  0
  2 33  1  0
  3 34  1  0
  6 35  1  0
  7 36  1  0
  8 37  1  0
  9 38  1  0
 11 39  1  0
 17 40  1  0
 20 41  1  0
 20 42  1  0
 23 43  1  0
 23 44  1  0
 24 45  1  0
 24 46  1  0
 26 47  1  0
 26 48  1  0
 27 49  1  0
 27 50  1  0
M  ISO  8  33  14  34  14  35  14  36  14  37  14  38  14  39  14  43  13
M  ISO  7  44  13  45  13  46  13  47  13  48  13  49  13  50  13
M  END
>  <minimizedAffinity>  (1) 
-7.49542332

>  <minimizedRMSD>  (1) 
0.785182536

$$$$
