
     RDKit          3D

 34 37  0  0  0  0  0  0  0  0999 V2000
   37.8140   30.8810   47.5550 N   0  0  0  0  0  0  0  0  0  0  0  0
   38.9340   31.5010   47.1770 C   0  0  0  0  0  0  0  0  0  0  0  0
   38.9270   31.7530   45.8680 N   0  0  0  0  0  0  0  0  0  0  0  0
   37.7790   31.2900   45.3690 C   0  0  0  0  0  0  0  0  0  0  0  0
   37.1970   31.2450   44.1370 C   0  0  0  0  0  0  0  0  0  0  0  0
   35.9830   30.7030   43.8830 N   0  0  0  0  0  0  0  0  0  0  0  0
   35.3420   30.1820   44.9530 C   0  0  0  0  0  0  0  0  0  0  0  0
   35.8990   30.2180   46.1660 N   0  0  0  0  0  0  0  0  0  0  0  0
   37.0950   30.7470   46.4460 C   0  0  0  0  0  0  0  0  0  0  0  0
   37.8540   31.7880   42.9990 N   0  0  0  0  0  0  0  0  0  0  0  0
   37.7130   31.3140   41.6500 C   0  0  0  0  0  0  0  0  0  0  0  0
   37.3130   32.3630   40.6620 C   0  0  0  0  0  0  0  0  0  0  0  0
   37.6380   33.6340   41.1140 O   0  0  0  0  0  0  0  0  0  0  0  0
   38.9320   33.5460   41.6770 C   0  0  0  0  0  0  0  0  0  0  0  0
   38.7680   32.9080   43.0420 C   0  0  0  0  0  0  0  0  0  0  0  0
   36.5080   29.4940   49.0700 C   0  0  0  0  0  0  0  0  0  0  0  0
   37.5000   30.4730   48.8660 C   0  0  0  0  0  0  0  0  0  0  0  0
   38.1340   31.0030   49.9730 C   0  0  0  0  0  0  0  0  0  0  0  0
   37.7550   30.5360   51.2070 N   0  0  0  0  0  0  0  0  0  0  0  0
   36.8110   29.6060   51.3680 C   0  0  0  0  0  0  0  0  0  0  0  0
   36.1790   29.0770   50.3030 N   0  0  0  0  0  0  0  0  0  0  0  0
   39.7559   31.7691   47.8572 H   0  0  0  0  0  0  0  0  0  0  0  0
   34.3507   29.7234   44.8230 H   0  0  0  0  0  0  0  0  0  0  0  0
   38.6778   30.8923   41.3315 H   0  0  0  0  0  0  0  0  0  0  0  0
   36.9018   30.5712   41.6629 H   0  0  0  0  0  0  0  0  0  0  0  0
   36.2263   32.3073   40.5011 H   0  0  0  0  0  0  0  0  0  0  0  0
   37.8564   32.1798   39.7233 H   0  0  0  0  0  0  0  0  0  0  0  0
   39.5804   32.9237   41.0426 H   0  0  0  0  0  0  0  0  0  0  0  0
   39.3982   34.5391   41.7568 H   0  0  0  0  0  0  0  0  0  0  0  0
   38.3781   33.6604   43.7434 H   0  0  0  0  0  0  0  0  0  0  0  0
   39.7508   32.5381   43.3696 H   0  0  0  0  0  0  0  0  0  0  0  0
   35.9917   29.0618   48.2002 H   0  0  0  0  0  0  0  0  0  0  0  0
   38.9143   31.7714   49.8694 H   0  0  0  0  0  0  0  0  0  0  0  0
   36.5467   29.2683   52.3810 H   0  0  0  0  0  0  0  0  0  0  0  0
  1 17  1  0
  2  1  1  0
  3  2  2  0
  4  3  1  0
  4  9  2  0
  5  4  1  0
  6  5  2  0
  6  7  1  0
  7  8  2  0
  8  9  1  0
  9  1  1  0
 10 15  1  0
 10  5  1  0
 11 10  1  0
 12 13  1  0
 12 11  1  0
 13 14  1  0
 14 15  1  0
 16 21  2  0
 17 16  1  0
 17 18  2  0
 18 19  1  0
 19 20  2  0
 21 20  1  0
  2 22  1  0
  7 23  1  0
 11 24  1  0
 11 25  1  0
 12 26  1  0
 12 27  1  0
 14 28  1  0
 14 29  1  0
 15 30  1  0
 15 31  1  0
 16 32  1  0
 18 33  1  0
 20 34  1  0
M  ISO  8  22  14  23  14  24  13  25  13  26  13  27  13  28  13  29  13
M  ISO  5  30  13  31  13  32  14  33  14  34  14
M  END
>  <minimizedAffinity>  (1) 
-5.2804842

>  <minimizedRMSD>  (1) 
3.42748237

$$$$
