
     RDKit          3D

 48 51  0  0  1  0  0  0  0  0999 V2000
   31.5790   26.5140   47.7730 C   0  0  0  0  0  0  0  0  0  0  0  0
   31.3320   25.3300   47.1790 C   0  0  0  0  0  0  0  0  0  0  0  0
   32.3320   24.4710   46.7450 C   0  0  0  0  0  0  0  0  0  0  0  0
   33.6300   24.8960   46.9540 C   0  0  0  0  0  0  0  0  0  0  0  0
   33.9010   26.1000   47.5580 C   0  0  0  0  0  0  0  0  0  0  0  0
   32.8800   26.9240   47.9750 C   0  0  0  0  0  0  0  0  0  0  0  0
   29.0650   28.2260   49.8560 C   0  0  0  0  0  0  0  0  0  0  0  0
   28.4400   29.0910   48.9200 C   0  0  0  0  0  0  0  0  0  0  0  0
   28.9070   29.0550   47.6020 C   0  0  0  0  0  0  0  0  0  0  0  0
   29.9330   28.1940   47.2840 N   0  0  0  0  0  0  0  0  0  0  0  0
   30.4930   27.3910   48.2170 C   0  0  0  0  0  0  0  0  0  0  0  0
   30.0530   27.4230   49.4710 N   0  0  0  0  0  0  0  0  0  0  0  0
   27.3360   30.0060   49.2920 C   0  0  0  0  0  0  0  0  0  0  0  0
   27.7160   30.9960   50.1540 F   0  0  0  0  0  0  0  0  0  0  0  0
   26.2830   29.3230   49.8740 F   0  0  0  0  0  0  0  0  0  0  0  0
   26.8460   30.6350   48.1310 F   0  0  0  0  0  0  0  0  0  0  0  0
   33.1270   28.2230   48.6280 C   0  0  0  0  0  0  0  0  0  0  0  0
   33.9500   29.1750   47.8350 C   0  0  0  0  0  0  0  0  0  0  0  0
   35.1840   29.5060   48.5470 C   0  0  0  0  0  0  0  0  0  0  0  0
   35.6360   28.8090   49.6540 C   0  0  0  0  0  0  0  0  0  0  0  0
   36.8190   29.3640   50.0940 C   0  0  0  0  0  0  0  0  0  0  0  0
   37.0520   30.4010   49.2200 N   0  0  0  0  0  0  0  0  0  0  0  0
   36.0920   30.4810   48.3150 N   0  0  0  0  0  0  0  0  0  0  0  0
   38.9630   31.2950   48.0650 N   0  0  0  0  0  0  0  0  0  0  0  0
   39.0790   32.6610   47.6160 C   0  0  0  0  0  0  0  0  0  0  0  0
   38.9090   33.4780   48.8760 C   0  0  0  0  0  0  0  0  0  0  0  0
   37.8420   32.7000   49.6090 C   0  0  0  0  0  0  0  0  0  0  0  0
   38.2150   31.2890   49.2990 C   0  0  1  0  0  0  0  0  0  0  0  0
   30.2845   25.0289   47.0305 H   0  0  0  0  0  0  0  0  0  0  0  0
   32.1046   23.5087   46.2631 H   0  0  0  0  0  0  0  0  0  0  0  0
   34.4644   24.2567   46.6299 H   0  0  0  0  0  0  0  0  0  0  0  0
   34.9457   26.4090   47.7101 H   0  0  0  0  0  0  0  0  0  0  0  0
   28.7309   28.2197   50.9040 H   0  0  0  0  0  0  0  0  0  0  0  0
   28.4621   29.7035   46.8329 H   0  0  0  0  0  0  0  0  0  0  0  0
   32.1541   28.6959   48.8273 H   0  0  0  0  0  0  0  0  0  0  0  0
   33.7001   28.0056   49.5414 H   0  0  0  0  0  0  0  0  0  0  0  0
   33.3732   30.0959   47.6640 H   0  0  0  0  0  0  0  0  0  0  0  0
   34.2098   28.7048   46.8751 H   0  0  0  0  0  0  0  0  0  0  0  0
   35.1300   27.9462   50.1117 H   0  0  0  0  0  0  0  0  0  0  0  0
   37.4358   29.0495   50.9488 H   0  0  0  0  0  0  0  0  0  0  0  0
   39.9006   30.8991   48.2235 H   0  0  0  0  0  0  0  0  0  0  0  0
   40.0654   32.8411   47.1638 H   0  0  0  0  0  0  0  0  0  0  0  0
   38.3384   32.9163   46.8438 H   0  0  0  0  0  0  0  0  0  0  0  0
   39.8432   33.5195   49.4552 H   0  0  0  0  0  0  0  0  0  0  0  0
   38.6452   34.5299   48.6919 H   0  0  0  0  0  0  0  0  0  0  0  0
   37.8787   32.8941   50.6911 H   0  0  0  0  0  0  0  0  0  0  0  0
   36.8172   32.9631   49.3081 H   0  0  0  0  0  0  0  0  0  0  0  0
   38.8289   30.8871   50.1186 H   0  0  0  0  0  0  0  0  0  0  0  0
  1  6  1  0
  1 11  1  0
  2  1  2  0
  3  4  2  0
  3  2  1  0
  4  5  1  0
  5  6  2  0
  6 17  1  0
  8 13  1  0
  8  7  2  0
  9  8  1  0
 10  9  2  0
 10 11  1  0
 11 12  2  0
 12  7  1  0
 13 15  1  0
 13 14  1  0
 16 13  1  0
 18 19  1  0
 18 17  1  0
 19 20  1  0
 20 21  2  0
 22 21  1  0
 23 19  2  0
 23 22  1  0
 24 28  1  0
 25 24  1  0
 25 26  1  0
 26 27  1  0
 28 22  1  0
 28 27  1  0
  2 29  1  0
  3 30  1  0
  4 31  1  0
  5 32  1  0
  7 33  1  0
  9 34  1  0
 17 35  1  0
 17 36  1  0
 18 37  1  0
 18 38  1  0
 20 39  1  0
 21 40  1  0
 24 41  1  0
 25 42  1  0
 25 43  1  0
 26 44  1  0
 26 45  1  0
 27 46  1  0
 27 47  1  0
 28 48  1  1
M  END
>  <minimizedAffinity>  (1) 
-7.33574772

>  <minimizedRMSD>  (1) 
0.966196418

$$$$
