
     RDKit          3D

 32 33  0  0  1  0  0  0  0  0999 V2000
   35.3840   29.4440   49.1170 C   0  0  2  0  0  0  0  0  0  0  0  0
   34.2840   29.4700   50.0910 C   0  0  0  0  0  0  0  0  0  0  0  0
   34.5810   28.1810   49.4860 C   0  0  1  0  0  0  0  0  0  0  0  0
   36.8120   29.3930   49.6600 C   0  0  0  0  0  0  0  0  0  0  0  0
   38.3850   32.6940   49.3940 C   0  0  0  0  0  0  0  0  0  0  0  0
   38.8890   32.6930   48.0850 C   0  0  0  0  0  0  0  0  0  0  0  0
   38.6830   31.5450   47.2990 C   0  0  0  0  0  0  0  0  0  0  0  0
   37.9990   30.4930   47.8580 N   0  0  0  0  0  0  0  0  0  0  0  0
   37.5370   30.5400   49.1090 C   0  0  0  0  0  0  0  0  0  0  0  0
   37.7360   31.6450   49.8650 N   0  0  0  0  0  0  0  0  0  0  0  0
   33.5730   27.6960   48.4820 C   0  0  0  0  0  0  0  0  0  0  0  0
   34.0420   26.8480   47.6210 O   0  0  0  0  0  0  0  0  0  0  0  0
   32.2390   28.0660   48.4220 O   0  0  0  0  0  0  0  0  0  0  0  0
   31.1680   27.2000   48.6260 C   0  0  0  0  0  0  0  0  0  0  0  0
   30.3550   27.1580   47.3320 C   0  0  0  0  0  0  0  0  0  0  0  0
   30.2680   27.8330   49.6670 C   0  0  0  0  0  0  0  0  0  0  0  0
   35.6225   30.0380   48.2225 H   0  0  0  0  0  0  0  0  0  0  0  0
   34.5094   29.6313   51.1555 H   0  0  0  0  0  0  0  0  0  0  0  0
   33.3664   30.0702   50.1790 H   0  0  0  0  0  0  0  0  0  0  0  0
   34.8388   27.1734   49.8441 H   0  0  0  0  0  0  0  0  0  0  0  0
   36.7978   29.4508   50.7584 H   0  0  0  0  0  0  0  0  0  0  0  0
   37.3017   28.4515   49.3707 H   0  0  0  0  0  0  0  0  0  0  0  0
   38.5317   33.5766   50.0339 H   0  0  0  0  0  0  0  0  0  0  0  0
   39.4291   33.5639   47.6852 H   0  0  0  0  0  0  0  0  0  0  0  0
   39.0587   31.4911   46.2666 H   0  0  0  0  0  0  0  0  0  0  0  0
   31.5196   26.2022   48.9273 H   0  0  0  0  0  0  0  0  0  0  0  0
   29.2834   27.1026   47.5739 H   0  0  0  0  0  0  0  0  0  0  0  0
   30.5520   28.0675   46.7455 H   0  0  0  0  0  0  0  0  0  0  0  0
   30.6447   26.2736   46.7455 H   0  0  0  0  0  0  0  0  0  0  0  0
   30.6331   27.5762   50.6723 H   0  0  0  0  0  0  0  0  0  0  0  0
   30.2753   28.9259   49.5423 H   0  0  0  0  0  0  0  0  0  0  0  0
   29.2419   27.4566   49.5423 H   0  0  0  0  0  0  0  0  0  0  0  0
  1  3  1  0
  1  4  1  0
  1  2  1  0
  3  2  1  0
  5 10  2  0
  6  5  1  0
  7  8  1  0
  7  6  2  0
  8  9  2  0
  9  4  1  0
  9 10  1  0
 11  3  1  0
 12 11  2  0
 13 11  1  0
 13 14  1  0
 14 16  1  0
 15 14  1  0
  1 17  1  6
  2 18  1  0
  2 19  1  0
  3 20  1  1
  4 21  1  0
  4 22  1  0
  5 23  1  0
  6 24  1  0
  7 25  1  0
 14 26  1  0
 15 27  1  0
 15 28  1  0
 15 29  1  0
 16 30  1  0
 16 31  1  0
 16 32  1  0
M  ISO  8  17  13  18  13  19  13  20  13  21   8  22   8  23  14  24  14
M  ISO  8  25  14  26   8  27   8  28   8  29   8  30   8  31   8  32   8
M  END
>  <minimizedAffinity>  (1) 
-4.82946587

>  <minimizedRMSD>  (1) 
0.798738778

$$$$
