
     RDKit          3D

 25 27  0  0  0  0  0  0  0  0999 V2000
   38.2620   31.5960   48.5300 C   0  0  0  0  0  0  0  0  0  0  0  0
   38.8790   32.8060   48.5940 N   0  0  0  0  0  0  0  0  0  0  0  0
   39.3840   33.0960   47.4270 O   0  0  0  0  0  0  0  0  0  0  0  0
   39.1190   32.1200   46.6130 C   0  0  0  0  0  0  0  0  0  0  0  0
   38.4080   31.1450   47.2630 N   0  0  0  0  0  0  0  0  0  0  0  0
   39.4740   31.9960   45.2300 N   0  0  0  0  0  0  0  0  0  0  0  0
   38.9520   32.7910   44.2980 N   0  0  0  0  0  0  0  0  0  0  0  0
   39.4640   32.4500   43.0890 C   0  0  0  0  0  0  0  0  0  0  0  0
   40.3360   31.3920   43.3310 C   0  0  0  0  0  0  0  0  0  0  0  0
   40.3230   31.1260   44.6820 C   0  0  0  0  0  0  0  0  0  0  0  0
   37.2470   29.9150   51.7330 C   0  0  0  0  0  0  0  0  0  0  0  0
   38.0150   30.6870   50.8510 C   0  0  0  0  0  0  0  0  0  0  0  0
   37.5450   30.8170   49.5350 C   0  0  0  0  0  0  0  0  0  0  0  0
   36.3840   30.2020   49.1650 N   0  0  0  0  0  0  0  0  0  0  0  0
   35.6900   29.4680   50.0720 C   0  0  0  0  0  0  0  0  0  0  0  0
   36.1110   29.3220   51.3450 N   0  0  0  0  0  0  0  0  0  0  0  0
   34.4510   28.8190   49.6580 C   0  0  0  0  0  0  0  0  0  0  0  0
   34.4710   27.7660   48.9700 O   0  0  0  0  0  0  0  0  0  0  0  0
   33.2190   29.3530   50.0190 O   0  0  0  0  0  0  0  0  0  0  0  0
   39.2370   32.9138   42.1177 H   0  0  0  0  0  0  0  0  0  0  0  0
   40.9319   30.8608   42.5743 H   0  0  0  0  0  0  0  0  0  0  0  0
   40.8993   30.3491   45.2058 H   0  0  0  0  0  0  0  0  0  0  0  0
   37.5866   29.7929   52.7721 H   0  0  0  0  0  0  0  0  0  0  0  0
   38.9476   31.1710   51.1766 H   0  0  0  0  0  0  0  0  0  0  0  0
   32.3830   28.9060   49.7337 H   0  0  0  0  0  0  0  0  0  0  0  0
  1  2  2  0
  1 13  1  0
  3  2  1  0
  4  5  2  0
  4  3  1  0
  5  1  1  0
  6  4  1  0
  7  6  1  0
  8  9  1  0
  8  7  2  0
  9 10  2  0
 10  6  1  0
 12 11  2  0
 13 12  1  0
 14 13  2  0
 14 15  1  0
 15 16  2  0
 16 11  1  0
 17 19  1  0
 17 15  1  0
 18 17  2  0
  8 20  1  0
  9 21  1  0
 10 22  1  0
 11 23  1  0
 12 24  1  0
 19 25  1  0
M  ISO  6  20  14  21  14  22  14  23  14  24  14  25   3
M  END
>  <minimizedAffinity>  (1) 
-6.31553364

>  <minimizedRMSD>  (1) 
0.824754

$$$$
