
     RDKit          3D

 35 37  0  0  1  0  0  0  0  0999 V2000
   35.2720   29.4610   49.0790 C   0  0  2  0  0  0  0  0  0  0  0  0
   34.2310   29.4930   50.1150 C   0  0  0  0  0  0  0  0  0  0  0  0
   34.4760   28.2060   49.4870 C   0  0  1  0  0  0  0  0  0  0  0  0
   36.7260   29.3910   49.5530 C   0  0  0  0  0  0  0  0  0  0  0  0
   37.9000   32.8630   49.4170 C   0  0  0  0  0  0  0  0  0  0  0  0
   38.6540   32.8820   48.2340 C   0  0  0  0  0  0  0  0  0  0  0  0
   38.7560   31.7010   47.4920 C   0  0  0  0  0  0  0  0  0  0  0  0
   38.1080   30.5850   47.9660 N   0  0  0  0  0  0  0  0  0  0  0  0
   37.4000   30.6080   49.0960 C   0  0  0  0  0  0  0  0  0  0  0  0
   37.3040   31.7530   49.8110 N   0  0  0  0  0  0  0  0  0  0  0  0
   33.4180   27.7180   48.5440 C   0  0  0  0  0  0  0  0  0  0  0  0
   33.8510   26.9490   47.6020 O   0  0  0  0  0  0  0  0  0  0  0  0
   32.0690   28.0160   48.6190 O   0  0  0  0  0  0  0  0  0  0  0  0
   30.0890   27.0950   49.5770 N   0  0  0  0  0  0  0  0  0  0  0  0
   29.2310   28.2130   49.3220 C   0  0  0  0  0  0  0  0  0  0  0  0
   29.4040   28.5220   47.8490 C   0  0  0  0  0  0  0  0  0  0  0  0
   30.2150   27.3440   47.3450 C   0  0  0  0  0  0  0  0  0  0  0  0
   31.0820   27.0440   48.5560 C   0  0  1  0  0  0  0  0  0  0  0  0
   35.4669   30.0543   48.1734 H   0  0  0  0  0  0  0  0  0  0  0  0
   34.5198   29.6444   51.1656 H   0  0  0  0  0  0  0  0  0  0  0  0
   33.3274   30.1034   50.2596 H   0  0  0  0  0  0  0  0  0  0  0  0
   34.7396   27.1936   49.8270 H   0  0  0  0  0  0  0  0  0  0  0  0
   36.7602   29.3331   50.6509 H   0  0  0  0  0  0  0  0  0  0  0  0
   37.2226   28.4982   49.1452 H   0  0  0  0  0  0  0  0  0  0  0  0
   37.8049   33.7783   50.0197 H   0  0  0  0  0  0  0  0  0  0  0  0
   39.1527   33.8032   47.8984 H   0  0  0  0  0  0  0  0  0  0  0  0
   39.3365   31.6661   46.5583 H   0  0  0  0  0  0  0  0  0  0  0  0
   30.5410   27.2065   50.4958 H   0  0  0  0  0  0  0  0  0  0  0  0
   28.1847   27.9535   49.5409 H   0  0  0  0  0  0  0  0  0  0  0  0
   29.4838   29.0766   49.9546 H   0  0  0  0  0  0  0  0  0  0  0  0
   28.4304   28.5781   47.3400 H   0  0  0  0  0  0  0  0  0  0  0  0
   29.8885   29.4921   47.6641 H   0  0  0  0  0  0  0  0  0  0  0  0
   29.5701   26.4903   47.0893 H   0  0  0  0  0  0  0  0  0  0  0  0
   30.7805   27.5461   46.4234 H   0  0  0  0  0  0  0  0  0  0  0  0
   31.6440   26.0991   48.5917 H   0  0  0  0  0  0  0  0  0  0  0  0
  1  3  1  0
  1  4  1  0
  1  2  1  0
  3  2  1  0
  5 10  2  0
  6  5  1  0
  7  8  1  0
  7  6  2  0
  8  9  2  0
  9  4  1  0
  9 10  1  0
 11 13  1  0
 11  3  1  0
 12 11  2  0
 15 14  1  0
 16 15  1  0
 17 16  1  0
 17 18  1  0
 18 13  1  0
 18 14  1  0
  1 19  1  6
  2 20  1  0
  2 21  1  0
  3 22  1  1
  4 23  1  0
  4 24  1  0
  5 25  1  0
  6 26  1  0
  7 27  1  0
 14 28  1  0
 15 29  1  0
 15 30  1  0
 16 31  1  0
 16 32  1  0
 17 33  1  0
 17 34  1  0
 18 35  1  6
M  ISO  8  19  13  20  13  21  13  22  13  23   8  24   8  25  14  26  14
M  ISO  8  27  14  28   5  29  13  30  13  31  13  32  13  33  13  34  13
M  ISO  1  35  13
M  END
>  <minimizedAffinity>  (1) 
-5.16795206

>  <minimizedRMSD>  (1) 
0.972030282

$$$$
