
     RDKit          3D

 36 38  0  0  1  0  0  0  0  0999 V2000
   31.9880   27.9190   47.3310 C   0  0  2  0  0  0  0  0  0  0  0  0
   35.3950   29.7210   48.6360 C   0  0  0  0  0  0  0  0  0  0  0  0
   35.0600   28.5530   49.3470 C   0  0  0  0  0  0  0  0  0  0  0  0
   33.9370   27.9080   48.9790 C   0  0  0  0  0  0  0  0  0  0  0  0
   33.2260   28.3970   47.9920 C   0  0  0  0  0  0  0  0  0  0  0  0
   34.0760   29.9060   47.4130 S   0  0  0  0  0  0  0  0  0  0  0  0
   38.2960   31.3300   50.2060 C   0  0  0  0  0  0  0  0  0  0  0  0
   38.8100   32.1350   49.1730 C   0  0  0  0  0  0  0  0  0  0  0  0
   38.1450   32.1140   47.9600 C   0  0  0  0  0  0  0  0  0  0  0  0
   37.0430   31.3300   47.8210 N   0  0  0  0  0  0  0  0  0  0  0  0
   36.6050   30.5840   48.8500 C   0  0  0  0  0  0  0  0  0  0  0  0
   37.1870   30.5310   50.0920 N   0  0  0  0  0  0  0  0  0  0  0  0
   31.5840   28.8110   46.2690 C   0  0  0  0  0  0  0  0  0  0  0  0
   30.9530   27.6760   48.4260 C   0  0  0  0  0  0  0  0  0  0  0  0
   30.1650   26.6030   48.2020 O   0  0  0  0  0  0  0  0  0  0  0  0
   29.2910   26.5380   47.1370 C   0  0  0  0  0  0  0  0  0  0  0  0
   29.0460   25.7460   46.0330 C   0  0  0  0  0  0  0  0  0  0  0  0
   27.9630   26.3130   45.3880 C   0  0  0  0  0  0  0  0  0  0  0  0
   27.5970   27.4260   46.1300 C   0  0  0  0  0  0  0  0  0  0  0  0
   28.4210   27.5000   47.1470 O   0  0  0  0  0  0  0  0  0  0  0  0
   26.4710   28.2900   45.7480 C   0  0  0  0  0  0  0  0  0  0  0  0
   25.7970   27.9820   44.7570 O   0  0  0  0  0  0  0  0  0  0  0  0
   32.1383   26.9636   46.8070 H   0  0  0  0  0  0  0  0  0  0  0  0
   35.6898   28.1827   50.1693 H   0  0  0  0  0  0  0  0  0  0  0  0
   33.6224   26.9894   49.4959 H   0  0  0  0  0  0  0  0  0  0  0  0
   38.8203   31.3422   51.1729 H   0  0  0  0  0  0  0  0  0  0  0  0
   39.7051   32.7564   49.3238 H   0  0  0  0  0  0  0  0  0  0  0  0
   38.5036   32.7244   47.1181 H   0  0  0  0  0  0  0  0  0  0  0  0
   31.1669   29.7319   46.7025 H   0  0  0  0  0  0  0  0  0  0  0  0
   32.4569   29.0607   45.6479 H   0  0  0  0  0  0  0  0  0  0  0  0
   30.8206   28.3196   45.6479 H   0  0  0  0  0  0  0  0  0  0  0  0
   31.4838   27.5240   49.3774 H   0  0  0  0  0  0  0  0  0  0  0  0
   30.2956   28.5577   48.4470 H   0  0  0  0  0  0  0  0  0  0  0  0
   29.6004   24.8461   45.7284 H   0  0  0  0  0  0  0  0  0  0  0  0
   27.4846   25.9518   44.4657 H   0  0  0  0  0  0  0  0  0  0  0  0
   26.2324   29.1918   46.3310 H   0  0  0  0  0  0  0  0  0  0  0  0
  1  5  1  0
  1 14  1  0
  2 11  1  0
  2  3  2  0
  4  3  1  0
  5  4  2  0
  6  5  1  0
  6  2  1  0
  8  7  2  0
  9  8  1  0
 10  9  2  0
 10 11  1  0
 11 12  2  0
 12  7  1  0
 13  1  1  0
 15 14  1  0
 16 20  1  0
 16 15  1  0
 17 16  2  0
 18 17  1  0
 18 19  2  0
 19 20  1  0
 21 19  1  0
 22 21  2  0
  1 23  1  6
  3 24  1  0
  4 25  1  0
  7 26  1  0
  8 27  1  0
  9 28  1  0
 13 29  1  0
 13 30  1  0
 13 31  1  0
 14 32  1  0
 14 33  1  0
 17 34  1  0
 18 35  1  0
 21 36  1  0
M  ISO  8  23   8  24  14  25  14  26  14  27  14  28  14  29   8  30   8
M  ISO  6  31   8  32   8  33   8  34  14  35  14  36   6
M  END
>  <minimizedAffinity>  (1) 
-4.83674812

>  <minimizedRMSD>  (1) 
0.661543012

$$$$
