
     RDKit          3D

 54 58  0  0  0  0  0  0  0  0999 V2000
   37.3590   33.5550   40.1160 N   0  0  0  0  0  0  0  0  0  0  0  0
   37.8110   34.7450   39.8140 N   0  0  0  0  0  0  0  0  0  0  0  0
   39.1130   34.8250   40.2040 C   0  0  0  0  0  0  0  0  0  0  0  0
   39.3820   33.5780   40.7540 C   0  0  0  0  0  0  0  0  0  0  0  0
   38.2220   32.7750   40.6840 C   0  0  0  0  0  0  0  0  0  0  0  0
   38.2510   31.4750   41.2370 C   0  0  0  0  0  0  0  0  0  0  0  0
   39.2870   31.1050   42.0460 N   0  0  0  0  0  0  0  0  0  0  0  0
   39.4170   29.9530   42.6620 C   0  0  0  0  0  0  0  0  0  0  0  0
   38.5140   28.9740   42.5620 N   0  0  0  0  0  0  0  0  0  0  0  0
   37.4350   29.2180   41.7820 C   0  0  0  0  0  0  0  0  0  0  0  0
   36.4730   28.2640   41.6230 C   0  0  0  0  0  0  0  0  0  0  0  0
   35.3640   28.4650   40.8280 C   0  0  0  0  0  0  0  0  0  0  0  0
   35.2780   29.7110   40.1870 C   0  0  0  0  0  0  0  0  0  0  0  0
   36.2840   30.6100   40.4010 C   0  0  0  0  0  0  0  0  0  0  0  0
   37.3760   30.4480   41.1720 C   0  0  0  0  0  0  0  0  0  0  0  0
   40.3450   36.1360   40.1750 S   0  0  0  0  0  0  0  0  0  0  0  0
   43.7330   34.0950   40.3840 C   0  0  0  0  0  0  0  0  0  0  0  0
   44.3270   34.5380   41.5950 C   0  0  0  0  0  0  0  0  0  0  0  0
   43.6450   35.4800   42.3600 C   0  0  0  0  0  0  0  0  0  0  0  0
   42.4530   35.9230   41.9060 N   0  0  0  0  0  0  0  0  0  0  0  0
   41.9150   35.4860   40.7530 C   0  0  0  0  0  0  0  0  0  0  0  0
   42.5470   34.5900   40.0120 N   0  0  0  0  0  0  0  0  0  0  0  0
   44.3550   35.9000   43.5530 C   0  0  0  0  0  0  0  0  0  0  0  0
   45.4290   35.0630   44.0680 C   0  0  0  0  0  0  0  0  0  0  0  0
   45.1360   34.0230   45.1050 C   0  0  0  0  0  0  0  0  0  0  0  0
   45.7780   34.3670   46.4390 C   0  0  0  0  0  0  0  0  0  0  0  0
   46.9900   33.5730   46.7730 C   0  0  0  0  0  0  0  0  0  0  0  0
   46.6840   32.0750   46.5880 C   0  0  0  0  0  0  0  0  0  0  0  0
   46.5000   31.9440   45.0690 C   0  0  0  0  0  0  0  0  0  0  0  0
   45.1910   32.5900   44.7550 C   0  0  0  0  0  0  0  0  0  0  0  0
   36.3919   33.2616   39.9173 H   0  0  0  0  0  0  0  0  0  0  0  0
   40.3476   33.2648   41.1778 H   0  0  0  0  0  0  0  0  0  0  0  0
   40.3070   29.7871   43.2868 H   0  0  0  0  0  0  0  0  0  0  0  0
   36.5854   27.3028   42.1460 H   0  0  0  0  0  0  0  0  0  0  0  0
   34.5907   27.6927   40.7033 H   0  0  0  0  0  0  0  0  0  0  0  0
   34.4278   29.9556   39.5333 H   0  0  0  0  0  0  0  0  0  0  0  0
   36.1914   31.5768   39.8844 H   0  0  0  0  0  0  0  0  0  0  0  0
   44.2441   33.3503   39.7562 H   0  0  0  0  0  0  0  0  0  0  0  0
   45.3020   34.1465   41.9207 H   0  0  0  0  0  0  0  0  0  0  0  0
   44.7907   36.8869   43.3379 H   0  0  0  0  0  0  0  0  0  0  0  0
   43.5896   35.8613   44.3421 H   0  0  0  0  0  0  0  0  0  0  0  0
   45.8636   34.5373   43.2050 H   0  0  0  0  0  0  0  0  0  0  0  0
   46.0730   35.7777   44.6014 H   0  0  0  0  0  0  0  0  0  0  0  0
   44.0426   34.1064   45.1915 H   0  0  0  0  0  0  0  0  0  0  0  0
   46.0606   35.4299   46.4184 H   0  0  0  0  0  0  0  0  0  0  0  0
   45.0313   34.1303   47.2112 H   0  0  0  0  0  0  0  0  0  0  0  0
   47.8153   33.8645   46.1068 H   0  0  0  0  0  0  0  0  0  0  0  0
   47.2794   33.7638   47.8169 H   0  0  0  0  0  0  0  0  0  0  0  0
   47.5213   31.4543   46.9396 H   0  0  0  0  0  0  0  0  0  0  0  0
   45.8076   31.7380   47.1611 H   0  0  0  0  0  0  0  0  0  0  0  0
   47.3162   32.4574   44.5396 H   0  0  0  0  0  0  0  0  0  0  0  0
   46.5159   30.8911   44.7509 H   0  0  0  0  0  0  0  0  0  0  0  0
   45.0042   32.4890   43.6757 H   0  0  0  0  0  0  0  0  0  0  0  0
   44.4282   32.0816   45.3631 H   0  0  0  0  0  0  0  0  0  0  0  0
  1  5  1  0
  2  1  1  0
  2  3  2  0
  3  4  1  0
  5  4  2  0
  5  6  1  0
  6  7  2  0
  7  8  1  0
  9  8  2  0
 10  9  1  0
 11 10  2  0
 12 11  1  0
 13 14  1  0
 13 12  2  0
 14 15  2  0
 15  6  1  0
 15 10  1  0
 16  3  1  0
 16 21  1  0
 17 18  2  0
 18 19  1  0
 19 23  1  0
 20 19  2  0
 21 20  1  0
 22 17  1  0
 22 21  2  0
 23 24  1  0
 24 25  1  0
 25 26  1  0
 26 27  1  0
 28 27  1  0
 29 28  1  0
 30 29  1  0
 30 25  1  0
  1 31  1  0
  4 32  1  0
  8 33  1  0
 11 34  1  0
 12 35  1  0
 13 36  1  0
 14 37  1  0
 17 38  1  0
 18 39  1  0
 23 40  1  0
 23 41  1  0
 24 42  1  0
 24 43  1  0
 25 44  1  0
 26 45  1  0
 26 46  1  0
 27 47  1  0
 27 48  1  0
 28 49  1  0
 28 50  1  0
 29 51  1  0
 29 52  1  0
 30 53  1  0
 30 54  1  0
M  END
>  <Score>  (1) 
-7.30791

$$$$
