
     RDKit          3D

 43 47  0  0  0  0  0  0  0  0999 V2000
   37.4590   28.0460   43.2670 C   0  0  0  0  0  0  0  0  0  0  0  0
   38.4070   26.9350   43.2060 C   0  0  0  0  0  0  0  0  0  0  0  0
   39.5900   26.9100   43.9610 C   0  0  0  0  0  0  0  0  0  0  0  0
   40.4590   25.8490   43.8790 C   0  0  0  0  0  0  0  0  0  0  0  0
   40.1570   24.8030   43.0420 C   0  0  0  0  0  0  0  0  0  0  0  0
   39.0140   24.7990   42.2950 C   0  0  0  0  0  0  0  0  0  0  0  0
   38.6840   23.7440   41.4470 C   0  0  0  0  0  0  0  0  0  0  0  0
   37.5360   23.7530   40.7180 C   0  0  0  0  0  0  0  0  0  0  0  0
   36.6410   24.8010   40.7750 C   0  0  0  0  0  0  0  0  0  0  0  0
   36.9810   25.8540   41.6270 C   0  0  0  0  0  0  0  0  0  0  0  0
   38.1290   25.8850   42.3830 C   0  0  0  0  0  0  0  0  0  0  0  0
   39.0490   29.9650   42.8660 C   0  0  0  0  0  0  0  0  0  0  0  0
   37.8820   29.2770   42.5550 C   0  0  0  0  0  0  0  0  0  0  0  0
   37.1150   29.8020   41.5200 C   0  0  0  0  0  0  0  0  0  0  0  0
   37.5300   30.9130   40.8960 N   0  0  0  0  0  0  0  0  0  0  0  0
   38.6400   31.5520   41.2030 C   0  0  0  0  0  0  0  0  0  0  0  0
   39.4030   31.0710   42.1970 N   0  0  0  0  0  0  0  0  0  0  0  0
   39.2520   32.7730   40.6330 C   0  0  0  0  0  0  0  0  0  0  0  0
   38.9570   34.0340   41.0440 N   0  0  0  0  0  0  0  0  0  0  0  0
   39.5060   35.1390   40.5360 C   0  0  0  0  0  0  0  0  0  0  0  0
   40.4140   35.0930   39.5520 N   0  0  0  0  0  0  0  0  0  0  0  0
   40.7660   33.8890   39.0840 C   0  0  0  0  0  0  0  0  0  0  0  0
   41.6960   33.8680   38.0810 C   0  0  0  0  0  0  0  0  0  0  0  0
   42.1130   32.6720   37.5430 C   0  0  0  0  0  0  0  0  0  0  0  0
   41.5440   31.5070   38.0700 C   0  0  0  0  0  0  0  0  0  0  0  0
   40.6130   31.5950   39.0790 C   0  0  0  0  0  0  0  0  0  0  0  0
   40.1880   32.7620   39.6230 C   0  0  0  0  0  0  0  0  0  0  0  0
   36.5094   27.7076   42.8269 H   0  0  0  0  0  0  0  0  0  0  0  0
   37.3780   28.3202   44.3292 H   0  0  0  0  0  0  0  0  0  0  0  0
   39.8248   27.7524   44.6282 H   0  0  0  0  0  0  0  0  0  0  0  0
   41.3833   25.8375   44.4752 H   0  0  0  0  0  0  0  0  0  0  0  0
   40.8497   23.9514   42.9719 H   0  0  0  0  0  0  0  0  0  0  0  0
   39.3667   22.8853   41.3654 H   0  0  0  0  0  0  0  0  0  0  0  0
   37.3143   22.8979   40.0625 H   0  0  0  0  0  0  0  0  0  0  0  0
   35.7134   24.8070   40.1838 H   0  0  0  0  0  0  0  0  0  0  0  0
   36.2907   26.7076   41.6973 H   0  0  0  0  0  0  0  0  0  0  0  0
   39.6941   29.5948   43.6764 H   0  0  0  0  0  0  0  0  0  0  0  0
   36.1785   29.3108   41.2172 H   0  0  0  0  0  0  0  0  0  0  0  0
   39.2038   36.1176   40.9374 H   0  0  0  0  0  0  0  0  0  0  0  0
   42.1130   34.8128   37.7022 H   0  0  0  0  0  0  0  0  0  0  0  0
   42.8593   32.6334   36.7358 H   0  0  0  0  0  0  0  0  0  0  0  0
   41.8406   30.5229   37.6782 H   0  0  0  0  0  0  0  0  0  0  0  0
   40.1863   30.6592   39.4692 H   0  0  0  0  0  0  0  0  0  0  0  0
  2  1  1  0
  2  3  2  0
  4  3  1  0
  5  4  2  0
  6 11  2  0
  6  5  1  0
  7  6  1  0
  8  9  1  0
  8  7  2  0
  9 10  2  0
 10 11  1  0
 11  2  1  0
 13 12  2  0
 13  1  1  0
 14 13  1  0
 15 16  1  0
 15 14  2  0
 16 17  2  0
 17 12  1  0
 18 19  2  0
 18 16  1  0
 20 19  1  0
 21 20  2  0
 22 21  1  0
 22 27  2  0
 23 22  1  0
 24 25  1  0
 24 23  2  0
 25 26  2  0
 26 27  1  0
 27 18  1  0
  1 28  1  0
  1 29  1  0
  3 30  1  0
  4 31  1  0
  5 32  1  0
  7 33  1  0
  8 34  1  0
  9 35  1  0
 10 36  1  0
 12 37  1  0
 14 38  1  0
 20 39  1  0
 23 40  1  0
 24 41  1  0
 25 42  1  0
 26 43  1  0
M  END
>  <Score>  (1) 
-7.53665

$$$$
