
     RDKit          3D

 51 56  0  0  1  0  0  0  0  0999 V2000
   38.2410   30.6070   39.5150 C   0  0  1  0  0  0  0  0  0  0  0  0
   37.6560   30.6720   38.0820 C   0  0  0  0  0  0  0  0  0  0  0  0
   36.2450   30.1540   38.3310 C   0  0  0  0  0  0  0  0  0  0  0  0
   36.2970   29.3420   39.6020 C   0  0  0  0  0  0  0  0  0  0  0  0
   37.7940   29.2250   39.9140 C   0  0  2  0  0  0  0  0  0  0  0  0
   40.8140   35.3860   39.7000 C   0  0  0  0  0  0  0  0  0  0  0  0
   39.5360   35.8540   40.0590 C   0  0  0  0  0  0  0  0  0  0  0  0
   38.5460   34.9090   40.2700 C   0  0  0  0  0  0  0  0  0  0  0  0
   38.8700   33.6000   40.1200 N   0  0  0  0  0  0  0  0  0  0  0  0
   40.0730   33.1630   39.7820 C   0  0  0  0  0  0  0  0  0  0  0  0
   41.0570   34.0700   39.5700 N   0  0  0  0  0  0  0  0  0  0  0  0
   40.4480   31.8030   39.6040 N   0  0  0  0  0  0  0  0  0  0  0  0
   41.7460   31.5430   39.5390 N   0  0  0  0  0  0  0  0  0  0  0  0
   41.9080   30.1960   39.3520 C   0  0  0  0  0  0  0  0  0  0  0  0
   40.6150   29.6780   39.3110 C   0  0  0  0  0  0  0  0  0  0  0  0
   39.7050   30.7150   39.4730 C   0  0  0  0  0  0  0  0  0  0  0  0
   37.9190   28.9240   41.3100 N   0  0  0  0  0  0  0  0  0  0  0  0
   37.6100   29.7150   42.3430 N   0  0  0  0  0  0  0  0  0  0  0  0
   37.8570   29.0940   43.5170 C   0  0  0  0  0  0  0  0  0  0  0  0
   38.3470   27.8450   43.1590 C   0  0  0  0  0  0  0  0  0  0  0  0
   38.3790   27.7550   41.7920 C   0  0  0  0  0  0  0  0  0  0  0  0
   38.8540   26.5070   41.2510 C   0  0  0  0  0  0  0  0  0  0  0  0
   40.1490   26.1640   40.9490 C   0  0  0  0  0  0  0  0  0  0  0  0
   40.3070   24.9180   40.4720 N   0  0  0  0  0  0  0  0  0  0  0  0
   39.0710   24.3690   40.4400 C   0  0  0  0  0  0  0  0  0  0  0  0
   38.6400   23.1170   40.0440 C   0  0  0  0  0  0  0  0  0  0  0  0
   37.3080   22.8230   40.1210 C   0  0  0  0  0  0  0  0  0  0  0  0
   36.3990   23.7340   40.5790 C   0  0  0  0  0  0  0  0  0  0  0  0
   36.9150   24.9480   40.9500 C   0  0  0  0  0  0  0  0  0  0  0  0
   38.2340   25.3350   40.9070 C   0  0  0  0  0  0  0  0  0  0  0  0
   37.9200   31.4052   40.2005 H   0  0  0  0  0  0  0  0  0  0  0  0
   38.2098   30.0227   37.3880 H   0  0  0  0  0  0  0  0  0  0  0  0
   37.7020   31.6664   37.6140 H   0  0  0  0  0  0  0  0  0  0  0  0
   35.5474   30.9964   38.4480 H   0  0  0  0  0  0  0  0  0  0  0  0
   35.8938   29.5432   37.4863 H   0  0  0  0  0  0  0  0  0  0  0  0
   35.7681   29.8585   40.4166 H   0  0  0  0  0  0  0  0  0  0  0  0
   35.8115   28.3608   39.4948 H   0  0  0  0  0  0  0  0  0  0  0  0
   38.3836   28.4446   39.4107 H   0  0  0  0  0  0  0  0  0  0  0  0
   41.6256   36.1072   39.5233 H   0  0  0  0  0  0  0  0  0  0  0  0
   39.3315   36.9293   40.1678 H   0  0  0  0  0  0  0  0  0  0  0  0
   37.5263   35.2109   40.5511 H   0  0  0  0  0  0  0  0  0  0  0  0
   42.8539   29.6428   39.2552 H   0  0  0  0  0  0  0  0  0  0  0  0
   40.3564   28.6178   39.1725 H   0  0  0  0  0  0  0  0  0  0  0  0
   37.7039   29.4900   44.5318 H   0  0  0  0  0  0  0  0  0  0  0  0
   38.6588   27.0559   43.8591 H   0  0  0  0  0  0  0  0  0  0  0  0
   40.9925   26.8565   41.0871 H   0  0  0  0  0  0  0  0  0  0  0  0
   41.1905   24.4711   40.1881 H   0  0  0  0  0  0  0  0  0  0  0  0
   39.3572   22.3699   39.6731 H   0  0  0  0  0  0  0  0  0  0  0  0
   36.9590   21.8284   39.8065 H   0  0  0  0  0  0  0  0  0  0  0  0
   35.3245   23.5081   40.6456 H   0  0  0  0  0  0  0  0  0  0  0  0
   36.1968   25.6934   41.3224 H   0  0  0  0  0  0  0  0  0  0  0  0
  1  5  1  0
  2  3  1  0
  2  1  1  0
  3  4  1  0
  4  5  1  0
  5 17  1  0
  6  7  2  0
  7  8  1  0
  9  8  2  0
 10  9  1  0
 11  6  1  0
 11 10  2  0
 12 10  1  0
 13 12  1  0
 14 13  2  0
 15 14  1  0
 15 16  2  0
 16  1  1  0
 16 12  1  0
 17 21  1  0
 17 18  1  0
 18 19  2  0
 20 19  1  0
 21 20  2  0
 22 21  1  0
 23 22  2  0
 24 23  1  0
 25 24  1  0
 25 30  2  0
 26 27  2  0
 26 25  1  0
 27 28  1  0
 28 29  2  0
 30 29  1  0
 30 22  1  0
  1 31  1  1
  2 32  1  0
  2 33  1  0
  3 34  1  0
  3 35  1  0
  4 36  1  0
  4 37  1  0
  5 38  1  6
  6 39  1  0
  7 40  1  0
  8 41  1  0
 14 42  1  0
 15 43  1  0
 19 44  1  0
 20 45  1  0
 23 46  1  0
 24 47  1  0
 26 48  1  0
 27 49  1  0
 28 50  1  0
 29 51  1  0
M  END
>  <Score>  (1) 
-7.01361

$$$$
