
     RDKit          3D

 47 51  0  0  0  0  0  0  0  0999 V2000
   40.6630   29.6070   41.4760 C   0  0  0  0  0  0  0  0  0  0  0  0
   39.3440   29.8380   41.7680 C   0  0  0  0  0  0  0  0  0  0  0  0
   38.7400   30.8370   41.0120 C   0  0  0  0  0  0  0  0  0  0  0  0
   39.4500   31.4950   40.0790 N   0  0  0  0  0  0  0  0  0  0  0  0
   40.7100   31.2410   39.8320 C   0  0  0  0  0  0  0  0  0  0  0  0
   41.3630   30.2640   40.5460 N   0  0  0  0  0  0  0  0  0  0  0  0
   41.3070   32.0350   38.8150 N   0  0  0  0  0  0  0  0  0  0  0  0
   41.9790   31.7850   37.7150 N   0  0  0  0  0  0  0  0  0  0  0  0
   42.3180   32.9370   37.1240 C   0  0  0  0  0  0  0  0  0  0  0  0
   41.8420   33.9590   37.8820 C   0  0  0  0  0  0  0  0  0  0  0  0
   41.1910   33.3730   38.9680 C   0  0  0  0  0  0  0  0  0  0  0  0
   38.6800   29.0450   42.8200 C   0  0  0  0  0  0  0  0  0  0  0  0
   38.9890   27.6460   42.9050 C   0  0  0  0  0  0  0  0  0  0  0  0
   40.0100   27.2380   43.7910 C   0  0  0  0  0  0  0  0  0  0  0  0
   40.3640   25.9300   43.9390 C   0  0  0  0  0  0  0  0  0  0  0  0
   39.6790   24.9780   43.1780 C   0  0  0  0  0  0  0  0  0  0  0  0
   38.6950   25.3620   42.3230 C   0  0  0  0  0  0  0  0  0  0  0  0
   38.0020   24.4040   41.5640 C   0  0  0  0  0  0  0  0  0  0  0  0
   37.0180   24.7780   40.7150 C   0  0  0  0  0  0  0  0  0  0  0  0
   36.6500   26.1190   40.5560 C   0  0  0  0  0  0  0  0  0  0  0  0
   37.3590   27.0670   41.3290 C   0  0  0  0  0  0  0  0  0  0  0  0
   38.3390   26.6940   42.1750 C   0  0  0  0  0  0  0  0  0  0  0  0
   40.5830   34.1630   39.9420 O   0  0  0  0  0  0  0  0  0  0  0  0
   41.3430   34.9080   40.8180 C   0  0  0  0  0  0  0  0  0  0  0  0
   42.4940   34.3110   41.2950 C   0  0  0  0  0  0  0  0  0  0  0  0
   43.3530   34.9420   42.1810 C   0  0  0  0  0  0  0  0  0  0  0  0
   43.0660   36.2290   42.6230 C   0  0  0  0  0  0  0  0  0  0  0  0
   41.9190   36.7980   42.1360 C   0  0  0  0  0  0  0  0  0  0  0  0
   41.0530   36.1880   41.2550 C   0  0  0  0  0  0  0  0  0  0  0  0
   41.1830   28.8246   42.0482 H   0  0  0  0  0  0  0  0  0  0  0  0
   37.6820   31.0886   41.1773 H   0  0  0  0  0  0  0  0  0  0  0  0
   42.8842   33.0387   36.1864 H   0  0  0  0  0  0  0  0  0  0  0  0
   41.9487   35.0350   37.6797 H   0  0  0  0  0  0  0  0  0  0  0  0
   38.9444   29.4978   43.7870 H   0  0  0  0  0  0  0  0  0  0  0  0
   37.6129   29.0752   42.5547 H   0  0  0  0  0  0  0  0  0  0  0  0
   40.5375   28.0014   44.3817 H   0  0  0  0  0  0  0  0  0  0  0  0
   41.1627   25.6331   44.6346 H   0  0  0  0  0  0  0  0  0  0  0  0
   39.9378   23.9130   43.2718 H   0  0  0  0  0  0  0  0  0  0  0  0
   38.2623   23.3397   41.6613 H   0  0  0  0  0  0  0  0  0  0  0  0
   36.4921   24.0067   40.1331 H   0  0  0  0  0  0  0  0  0  0  0  0
   35.8494   26.4202   39.8644 H   0  0  0  0  0  0  0  0  0  0  0  0
   37.1047   28.1333   41.2376 H   0  0  0  0  0  0  0  0  0  0  0  0
   42.7388   33.2930   40.9577 H   0  0  0  0  0  0  0  0  0  0  0  0
   44.2586   34.4266   42.5334 H   0  0  0  0  0  0  0  0  0  0  0  0
   43.7243   36.7611   43.3255 H   0  0  0  0  0  0  0  0  0  0  0  0
   41.6715   37.8155   42.4727 H   0  0  0  0  0  0  0  0  0  0  0  0
   40.1489   36.7085   40.9061 H   0  0  0  0  0  0  0  0  0  0  0  0
  1  2  2  0
  2 12  1  0
  3  2  1  0
  4  3  2  0
  5  4  1  0
  5  6  2  0
  6  1  1  0
  7 11  1  0
  7  5  1  0
  8  7  1  0
  9  8  2  0
  9 10  1  0
 10 11  2  0
 11 23  1  0
 12 13  1  0
 13 14  2  0
 14 15  1  0
 16 15  2  0
 17 16  1  0
 18 17  2  0
 19 18  1  0
 20 19  2  0
 20 21  1  0
 21 22  2  0
 22 17  1  0
 22 13  1  0
 23 24  1  0
 24 29  1  0
 24 25  2  0
 25 26  1  0
 26 27  2  0
 28 27  1  0
 29 28  2  0
  1 30  1  0
  3 31  1  0
  9 32  1  0
 10 33  1  0
 12 34  1  0
 12 35  1  0
 14 36  1  0
 15 37  1  0
 16 38  1  0
 18 39  1  0
 19 40  1  0
 20 41  1  0
 21 42  1  0
 25 43  1  0
 26 44  1  0
 27 45  1  0
 28 46  1  0
 29 47  1  0
M  END
>  <Score>  (1) 
-7.11821

$$$$
