
     RDKit          3D

 40 43  0  0  0  0  0  0  0  0999 V2000
   37.4190   33.7380   40.0400 N   0  0  0  0  0  0  0  0  0  0  0  0
   37.8140   34.9610   39.7980 N   0  0  0  0  0  0  0  0  0  0  0  0
   39.0730   35.1150   40.2930 C   0  0  0  0  0  0  0  0  0  0  0  0
   39.3780   33.8750   40.8380 C   0  0  0  0  0  0  0  0  0  0  0  0
   38.2820   33.0010   40.6590 C   0  0  0  0  0  0  0  0  0  0  0  0
   38.3510   31.6930   41.1860 C   0  0  0  0  0  0  0  0  0  0  0  0
   39.4110   31.3400   41.9690 N   0  0  0  0  0  0  0  0  0  0  0  0
   39.5860   30.1730   42.5580 C   0  0  0  0  0  0  0  0  0  0  0  0
   38.7040   29.1740   42.4430 N   0  0  0  0  0  0  0  0  0  0  0  0
   37.6080   29.3990   41.6910 C   0  0  0  0  0  0  0  0  0  0  0  0
   36.6680   28.4190   41.5340 C   0  0  0  0  0  0  0  0  0  0  0  0
   35.5250   28.6200   40.7620 C   0  0  0  0  0  0  0  0  0  0  0  0
   35.3960   29.8770   40.1570 C   0  0  0  0  0  0  0  0  0  0  0  0
   36.3860   30.7980   40.3690 C   0  0  0  0  0  0  0  0  0  0  0  0
   37.4990   30.6360   41.1100 C   0  0  0  0  0  0  0  0  0  0  0  0
   40.2120   36.5060   40.3910 S   0  0  0  0  0  0  0  0  0  0  0  0
   43.3700   34.4680   41.6460 C   0  0  0  0  0  0  0  0  0  0  0  0
   43.9140   35.2700   42.6590 C   0  0  0  0  0  0  0  0  0  0  0  0
   43.3050   36.4510   42.9700 C   0  0  0  0  0  0  0  0  0  0  0  0
   42.1920   36.7820   42.2670 N   0  0  0  0  0  0  0  0  0  0  0  0
   41.6790   36.0090   41.2990 C   0  0  0  0  0  0  0  0  0  0  0  0
   42.2650   34.8730   41.0020 N   0  0  0  0  0  0  0  0  0  0  0  0
   43.9060   37.2670   44.0490 C   0  0  0  0  0  0  0  0  0  0  0  0
   43.5110   36.8880   45.4160 C   0  0  0  0  0  0  0  0  0  0  0  0
   44.4020   36.1080   46.1910 N   0  0  0  0  0  0  0  0  0  0  0  0
   36.4916   33.3889   39.7590 H   0  0  0  0  0  0  0  0  0  0  0  0
   40.3253   33.6136   41.3322 H   0  0  0  0  0  0  0  0  0  0  0  0
   40.4895   30.0156   43.1655 H   0  0  0  0  0  0  0  0  0  0  0  0
   36.8173   27.4481   42.0290 H   0  0  0  0  0  0  0  0  0  0  0  0
   34.7656   27.8344   40.6347 H   0  0  0  0  0  0  0  0  0  0  0  0
   34.5246   30.1167   39.5300 H   0  0  0  0  0  0  0  0  0  0  0  0
   36.2590   31.7759   39.8817 H   0  0  0  0  0  0  0  0  0  0  0  0
   43.8462   33.5125   41.3808 H   0  0  0  0  0  0  0  0  0  0  0  0
   44.8197   34.9516   43.1960 H   0  0  0  0  0  0  0  0  0  0  0  0
   44.9998   37.1780   43.9739 H   0  0  0  0  0  0  0  0  0  0  0  0
   43.5370   38.2922   43.8979 H   0  0  0  0  0  0  0  0  0  0  0  0
   43.3310   37.8206   45.9709 H   0  0  0  0  0  0  0  0  0  0  0  0
   42.6408   36.2313   45.2693 H   0  0  0  0  0  0  0  0  0  0  0  0
   44.2180   36.2691   47.1916 H   0  0  0  0  0  0  0  0  0  0  0  0
   44.2643   35.1109   45.9727 H   0  0  0  0  0  0  0  0  0  0  0  0
  1  5  1  0
  2  1  1  0
  2  3  2  0
  3 16  1  0
  3  4  1  0
  5  4  2  0
  5  6  1  0
  6  7  2  0
  7  8  1  0
  9  8  2  0
 10  9  1  0
 11 10  2  0
 12 11  1  0
 13 14  1  0
 13 12  2  0
 14 15  2  0
 15  6  1  0
 15 10  1  0
 16 21  1  0
 17 18  2  0
 18 19  1  0
 19 23  1  0
 20 19  2  0
 21 20  1  0
 22 21  2  0
 22 17  1  0
 23 24  1  0
 24 25  1  0
  1 26  1  0
  4 27  1  0
  8 28  1  0
 11 29  1  0
 12 30  1  0
 13 31  1  0
 14 32  1  0
 17 33  1  0
 18 34  1  0
 23 35  1  0
 23 36  1  0
 24 37  1  0
 24 38  1  0
 25 39  1  0
 25 40  1  0
M  END
>  <Score>  (1) 
-7.41773

$$$$
