
     RDKit          3D

 35 38  0  0  0  0  0  0  0  0999 V2000
   37.3630   33.7140   40.0130 N   0  0  0  0  0  0  0  0  0  0  0  0
   37.7730   34.9410   39.7610 N   0  0  0  0  0  0  0  0  0  0  0  0
   39.0140   35.0990   40.2590 C   0  0  0  0  0  0  0  0  0  0  0  0
   39.3080   33.8790   40.8190 C   0  0  0  0  0  0  0  0  0  0  0  0
   38.2450   32.9860   40.6630 C   0  0  0  0  0  0  0  0  0  0  0  0
   38.3220   31.6620   41.1960 C   0  0  0  0  0  0  0  0  0  0  0  0
   39.3820   31.3230   41.9660 N   0  0  0  0  0  0  0  0  0  0  0  0
   39.5760   30.1490   42.5460 C   0  0  0  0  0  0  0  0  0  0  0  0
   38.7000   29.1480   42.4170 N   0  0  0  0  0  0  0  0  0  0  0  0
   37.5980   29.3690   41.6670 C   0  0  0  0  0  0  0  0  0  0  0  0
   36.6690   28.3760   41.5040 C   0  0  0  0  0  0  0  0  0  0  0  0
   35.5290   28.5730   40.7410 C   0  0  0  0  0  0  0  0  0  0  0  0
   35.3780   29.8240   40.1520 C   0  0  0  0  0  0  0  0  0  0  0  0
   36.3490   30.7670   40.3590 C   0  0  0  0  0  0  0  0  0  0  0  0
   37.4750   30.6080   41.1020 C   0  0  0  0  0  0  0  0  0  0  0  0
   40.1460   36.4780   40.3020 S   0  0  0  0  0  0  0  0  0  0  0  0
   43.4630   34.6090   41.4700 C   0  0  0  0  0  0  0  0  0  0  0  0
   43.8770   35.3220   42.5930 C   0  0  0  0  0  0  0  0  0  0  0  0
   43.1230   36.4120   43.0150 C   0  0  0  0  0  0  0  0  0  0  0  0
   42.0080   36.7280   42.3010 N   0  0  0  0  0  0  0  0  0  0  0  0
   41.6350   36.0020   41.2040 C   0  0  0  0  0  0  0  0  0  0  0  0
   42.3610   34.9710   40.8170 N   0  0  0  0  0  0  0  0  0  0  0  0
   43.4130   37.2830   44.1830 C   0  0  0  0  0  0  0  0  0  0  0  0
   36.4392   33.3587   39.7279 H   0  0  0  0  0  0  0  0  0  0  0  0
   40.2552   33.6375   41.3235 H   0  0  0  0  0  0  0  0  0  0  0  0
   40.4820   29.9933   43.1500 H   0  0  0  0  0  0  0  0  0  0  0  0
   36.8310   27.4019   41.9887 H   0  0  0  0  0  0  0  0  0  0  0  0
   34.7799   27.7786   40.6076 H   0  0  0  0  0  0  0  0  0  0  0  0
   34.4974   30.0509   39.5331 H   0  0  0  0  0  0  0  0  0  0  0  0
   36.2035   31.7456   39.8783 H   0  0  0  0  0  0  0  0  0  0  0  0
   44.0481   33.7449   41.1221 H   0  0  0  0  0  0  0  0  0  0  0  0
   44.7862   35.0275   43.1376 H   0  0  0  0  0  0  0  0  0  0  0  0
   43.2270   36.7243   45.1121 H   0  0  0  0  0  0  0  0  0  0  0  0
   44.4655   37.6011   44.1509 H   0  0  0  0  0  0  0  0  0  0  0  0
   42.7612   38.1685   44.1509 H   0  0  0  0  0  0  0  0  0  0  0  0
  1  5  1  0
  2  1  1  0
  2  3  2  0
  3 16  1  0
  3  4  1  0
  5  4  2  0
  5  6  1  0
  6  7  2  0
  7  8  1  0
  9  8  2  0
 10  9  1  0
 11 10  2  0
 12 11  1  0
 13 14  1  0
 13 12  2  0
 14 15  2  0
 15  6  1  0
 15 10  1  0
 16 21  1  0
 17 18  2  0
 18 19  1  0
 19 23  1  0
 20 19  2  0
 21 20  1  0
 22 21  2  0
 22 17  1  0
  1 24  1  0
  4 25  1  0
  8 26  1  0
 11 27  1  0
 12 28  1  0
 13 29  1  0
 14 30  1  0
 17 31  1  0
 18 32  1  0
 23 33  1  0
 23 34  1  0
 23 35  1  0
M  END
>  <Score>  (1) 
-7.11305

$$$$
