
     RDKit          3D

 56 61  0  0  1  0  0  0  0  0999 V2000
   43.1750   34.4580   41.9740 C   0  0  2  0  0  0  0  0  0  0  0  0
   43.4880   35.9210   42.4740 C   0  0  0  0  0  0  0  0  0  0  0  0
   44.4610   33.7480   41.7750 C   0  0  0  0  0  0  0  0  0  0  0  0
   44.7500   33.0060   42.9930 N   0  0  0  0  0  0  0  0  0  0  0  0
   45.9390   33.0380   43.6430 C   0  0  0  0  0  0  0  0  0  0  0  0
   45.8690   32.2350   44.7340 N   0  0  0  0  0  0  0  0  0  0  0  0
   44.6100   31.7030   44.7480 C   0  0  0  0  0  0  0  0  0  0  0  0
   43.9620   32.2000   43.6680 N   0  0  0  0  0  0  0  0  0  0  0  0
   44.2740   30.7960   45.8320 C   0  0  0  0  0  0  0  0  0  0  0  0
   44.4000   31.1890   47.1450 C   0  0  0  0  0  0  0  0  0  0  0  0
   44.0910   30.3560   48.2090 C   0  0  0  0  0  0  0  0  0  0  0  0
   43.6360   29.0790   47.9990 C   0  0  0  0  0  0  0  0  0  0  0  0
   43.4960   28.6480   46.6980 C   0  0  0  0  0  0  0  0  0  0  0  0
   43.0390   27.3650   46.4810 C   0  0  0  0  0  0  0  0  0  0  0  0
   42.8770   26.8750   45.2020 C   0  0  0  0  0  0  0  0  0  0  0  0
   43.1970   27.7340   44.1440 C   0  0  0  0  0  0  0  0  0  0  0  0
   43.6480   29.0040   44.4220 C   0  0  0  0  0  0  0  0  0  0  0  0
   43.8160   29.5120   45.6760 C   0  0  0  0  0  0  0  0  0  0  0  0
   42.4690   34.6580   40.7640 O   0  0  0  0  0  0  0  0  0  0  0  0
   38.9670   35.4010   40.2460 C   0  0  0  0  0  0  0  0  0  0  0  0
   40.3420   35.6580   40.3930 C   0  0  0  0  0  0  0  0  0  0  0  0
   41.1660   34.5300   40.6100 C   0  0  0  0  0  0  0  0  0  0  0  0
   40.5520   33.3610   40.6490 N   0  0  0  0  0  0  0  0  0  0  0  0
   39.2790   33.0800   40.5170 C   0  0  0  0  0  0  0  0  0  0  0  0
   38.5200   34.1500   40.3140 N   0  0  0  0  0  0  0  0  0  0  0  0
   38.5150   31.8430   40.5470 C   0  0  0  0  0  0  0  0  0  0  0  0
   38.2720   31.1380   41.6600 N   0  0  0  0  0  0  0  0  0  0  0  0
   37.5810   30.0090   41.7180 C   0  0  0  0  0  0  0  0  0  0  0  0
   37.0600   29.4770   40.6350 N   0  0  0  0  0  0  0  0  0  0  0  0
   37.2280   30.0860   39.4370 C   0  0  0  0  0  0  0  0  0  0  0  0
   36.6860   29.5360   38.3050 C   0  0  0  0  0  0  0  0  0  0  0  0
   36.8340   30.1250   37.0810 C   0  0  0  0  0  0  0  0  0  0  0  0
   37.5770   31.3400   37.0140 C   0  0  0  0  0  0  0  0  0  0  0  0
   38.0870   31.8240   38.1940 C   0  0  0  0  0  0  0  0  0  0  0  0
   37.9540   31.2580   39.4210 C   0  0  0  0  0  0  0  0  0  0  0  0
   42.5860   33.8453   42.6724 H   0  0  0  0  0  0  0  0  0  0  0  0
   43.4920   35.9396   43.5738 H   0  0  0  0  0  0  0  0  0  0  0  0
   44.4734   36.2339   42.0984 H   0  0  0  0  0  0  0  0  0  0  0  0
   42.7169   36.6097   42.0984 H   0  0  0  0  0  0  0  0  0  0  0  0
   44.3786   33.0549   40.9248 H   0  0  0  0  0  0  0  0  0  0  0  0
   45.2674   34.4646   41.5600 H   0  0  0  0  0  0  0  0  0  0  0  0
   46.8193   33.6214   43.3352 H   0  0  0  0  0  0  0  0  0  0  0  0
   44.7607   32.2059   47.3588 H   0  0  0  0  0  0  0  0  0  0  0  0
   44.2126   30.7248   49.2382 H   0  0  0  0  0  0  0  0  0  0  0  0
   43.3903   28.4190   48.8440 H   0  0  0  0  0  0  0  0  0  0  0  0
   42.8000   26.7226   47.3413 H   0  0  0  0  0  0  0  0  0  0  0  0
   42.5121   25.8532   45.0211 H   0  0  0  0  0  0  0  0  0  0  0  0
   43.0892   27.3976   43.1023 H   0  0  0  0  0  0  0  0  0  0  0  0
   43.8906   29.6568   43.5706 H   0  0  0  0  0  0  0  0  0  0  0  0
   38.2648   36.2304   40.0757 H   0  0  0  0  0  0  0  0  0  0  0  0
   40.7523   36.6773   40.3421 H   0  0  0  0  0  0  0  0  0  0  0  0
   37.4412   29.5091   42.6878 H   0  0  0  0  0  0  0  0  0  0  0  0
   36.1179   28.5974   38.3836 H   0  0  0  0  0  0  0  0  0  0  0  0
   36.3946   29.6768   36.1776 H   0  0  0  0  0  0  0  0  0  0  0  0
   37.7346   31.8658   36.0608 H   0  0  0  0  0  0  0  0  0  0  0  0
   38.6592   32.7619   38.1396 H   0  0  0  0  0  0  0  0  0  0  0  0
  1  2  1  0
  3  1  1  0
  3  4  1  0
  4  5  1  0
  4  8  1  0
  5  6  2  0
  6  7  1  0
  7  9  1  0
  8  7  2  0
  9 10  2  0
 10 11  1  0
 12 11  2  0
 13 12  1  0
 14 13  2  0
 15 14  1  0
 16 17  1  0
 16 15  2  0
 17 18  2  0
 18  9  1  0
 18 13  1  0
 19  1  1  0
 20 25  2  0
 20 21  1  0
 21 22  2  0
 22 23  1  0
 22 19  1  0
 24 26  1  0
 24 23  2  0
 25 24  1  0
 26 27  2  0
 27 28  1  0
 29 28  2  0
 30 29  1  0
 31 30  2  0
 32 31  1  0
 33 32  2  0
 33 34  1  0
 34 35  2  0
 35 30  1  0
 35 26  1  0
  1 36  1  1
  2 37  1  0
  2 38  1  0
  2 39  1  0
  3 40  1  0
  3 41  1  0
  5 42  1  0
 10 43  1  0
 11 44  1  0
 12 45  1  0
 14 46  1  0
 15 47  1  0
 16 48  1  0
 17 49  1  0
 20 50  1  0
 21 51  1  0
 28 52  1  0
 31 53  1  0
 32 54  1  0
 33 55  1  0
 34 56  1  0
M  END
>  <Score>  (1) 
-7.90786

$$$$
