
     RDKit          3D

 45 49  0  0  0  0  0  0  0  0999 V2000
   36.5600   29.0350   39.5670 N   0  0  0  0  0  0  0  0  0  0  0  0
   37.7550   29.5660   39.1680 C   0  0  0  0  0  0  0  0  0  0  0  0
   38.0320   30.8950   39.4820 C   0  0  0  0  0  0  0  0  0  0  0  0
   37.1050   31.6360   40.1790 C   0  0  0  0  0  0  0  0  0  0  0  0
   37.3670   32.9830   40.5050 N   0  0  0  0  0  0  0  0  0  0  0  0
   35.9300   31.0600   40.5520 N   0  0  0  0  0  0  0  0  0  0  0  0
   35.6810   29.7820   40.2430 C   0  0  0  0  0  0  0  0  0  0  0  0
   34.6120   29.1720   40.5530 O   0  0  0  0  0  0  0  0  0  0  0  0
   39.1180   26.1410   42.8350 C   0  0  0  0  0  0  0  0  0  0  0  0
   38.6740   27.0920   43.7820 C   0  0  0  0  0  0  0  0  0  0  0  0
   37.5990   27.9280   43.4270 C   0  0  0  0  0  0  0  0  0  0  0  0
   37.0640   27.7590   42.1880 N   0  0  0  0  0  0  0  0  0  0  0  0
   37.5190   26.8360   41.3110 C   0  0  0  0  0  0  0  0  0  0  0  0
   38.5440   26.0280   41.6290 N   0  0  0  0  0  0  0  0  0  0  0  0
   36.8840   26.7410   40.0340 N   0  0  0  0  0  0  0  0  0  0  0  0
   36.6520   25.5670   39.4770 N   0  0  0  0  0  0  0  0  0  0  0  0
   36.0540   25.6770   38.2890 C   0  0  0  0  0  0  0  0  0  0  0  0
   35.8950   27.0120   38.0770 C   0  0  0  0  0  0  0  0  0  0  0  0
   36.4190   27.6690   39.1760 C   0  0  0  0  0  0  0  0  0  0  0  0
   40.2470   25.2540   43.1910 C   0  0  0  0  0  0  0  0  0  0  0  0
   39.8280   23.9910   43.5120 F   0  0  0  0  0  0  0  0  0  0  0  0
   40.9870   25.8070   44.2580 F   0  0  0  0  0  0  0  0  0  0  0  0
   41.0930   25.1800   42.0940 F   0  0  0  0  0  0  0  0  0  0  0  0
   39.2830   31.4550   39.0660 N   0  0  0  0  0  0  0  0  0  0  0  0
   39.4890   31.6910   37.7420 C   0  0  0  0  0  0  0  0  0  0  0  0
   40.7000   32.2130   37.5120 N   0  0  0  0  0  0  0  0  0  0  0  0
   41.2920   32.3170   38.7160 C   0  0  0  0  0  0  0  0  0  0  0  0
   42.5240   32.7670   39.1950 C   0  0  0  0  0  0  0  0  0  0  0  0
   43.3630   33.2060   38.3660 O   0  0  0  0  0  0  0  0  0  0  0  0
   42.7490   32.7070   40.5220 N   0  0  0  0  0  0  0  0  0  0  0  0
   41.8570   32.2400   41.4150 C   0  0  0  0  0  0  0  0  0  0  0  0
   42.2430   32.2410   42.7850 N   0  0  0  0  0  0  0  0  0  0  0  0
   40.6380   31.7870   40.9990 N   0  0  0  0  0  0  0  0  0  0  0  0
   40.4170   31.8490   39.6750 C   0  0  0  0  0  0  0  0  0  0  0  0
   38.4823   28.9571   38.6110 H   0  0  0  0  0  0  0  0  0  0  0  0
   36.6688   33.5318   41.0268 H   0  0  0  0  0  0  0  0  0  0  0  0
   38.2565   33.4179   40.2212 H   0  0  0  0  0  0  0  0  0  0  0  0
   39.1548   27.1761   44.7678 H   0  0  0  0  0  0  0  0  0  0  0  0
   37.2081   28.6858   44.1219 H   0  0  0  0  0  0  0  0  0  0  0  0
   35.7520   24.8581   37.6196 H   0  0  0  0  0  0  0  0  0  0  0  0
   35.4350   27.4817   37.1951 H   0  0  0  0  0  0  0  0  0  0  0  0
   38.7498   31.4785   36.9556 H   0  0  0  0  0  0  0  0  0  0  0  0
   43.6584   33.0385   40.8742 H   0  0  0  0  0  0  0  0  0  0  0  0
   41.5925   31.8927   43.5036 H   0  0  0  0  0  0  0  0  0  0  0  0
   43.1729   32.5900   43.0578 H   0  0  0  0  0  0  0  0  0  0  0  0
  1  7  1  0
  2  3  2  0
  2  1  1  0
  3  4  1  0
  4  5  1  0
  4  6  2  0
  7  6  1  0
  7  8  2  0
  9 20  1  0
  9 10  2  0
 11 10  1  0
 12 11  2  0
 13 14  2  0
 13 12  1  0
 14  9  1  0
 15 13  1  0
 16 15  1  0
 17 16  2  0
 18 17  1  0
 18 19  2  0
 19  1  1  0
 19 15  1  0
 20 21  1  0
 20 22  1  0
 23 20  1  0
 24  3  1  0
 24 34  1  0
 25 24  1  0
 26 25  2  0
 26 27  1  0
 27 28  1  0
 27 34  2  0
 28 30  1  0
 29 28  2  0
 30 31  1  0
 31 32  1  0
 33 31  2  0
 34 33  1  0
  2 35  1  0
  5 36  1  0
  5 37  1  0
 10 38  1  0
 11 39  1  0
 17 40  1  0
 18 41  1  0
 25 42  1  0
 30 43  1  0
 32 44  1  0
 32 45  1  0
M  END
>  <Score>  (1) 
-7.93091

$$$$
