
     RDKit          3D

 44 48  0  0  0  0  0  0  0  0999 V2000
   39.6350   34.5330   40.5030 C   0  0  0  0  0  0  0  0  0  0  0  0
   39.9550   33.2530   40.8450 C   0  0  0  0  0  0  0  0  0  0  0  0
   39.0610   32.2090   40.6520 C   0  0  0  0  0  0  0  0  0  0  0  0
   37.8320   32.4420   40.1100 C   0  0  0  0  0  0  0  0  0  0  0  0
   37.4980   33.7160   39.7620 C   0  0  0  0  0  0  0  0  0  0  0  0
   38.3900   34.7740   39.9540 C   0  0  0  0  0  0  0  0  0  0  0  0
   35.7740   29.6690   39.1030 C   0  0  0  0  0  0  0  0  0  0  0  0
   35.4420   29.8880   40.4170 N   0  0  0  0  0  0  0  0  0  0  0  0
   36.1280   30.8790   40.8960 O   0  0  0  0  0  0  0  0  0  0  0  0
   36.9280   31.3410   39.9240 C   0  0  0  0  0  0  0  0  0  0  0  0
   36.7080   30.5940   38.8240 N   0  0  0  0  0  0  0  0  0  0  0  0
   34.9160   26.4310   37.5460 C   0  0  0  0  0  0  0  0  0  0  0  0
   33.7660   26.7840   36.8330 C   0  0  0  0  0  0  0  0  0  0  0  0
   33.3080   28.1180   36.8980 C   0  0  0  0  0  0  0  0  0  0  0  0
   34.0280   28.9970   37.6640 N   0  0  0  0  0  0  0  0  0  0  0  0
   35.1360   28.6000   38.3350 C   0  0  0  0  0  0  0  0  0  0  0  0
   35.5830   27.3250   38.2800 N   0  0  0  0  0  0  0  0  0  0  0  0
   40.8090   35.8300   40.7200 S   0  0  0  0  0  0  0  0  0  0  0  0
   40.6770   36.7400   39.5370 O   0  0  0  0  0  0  0  0  0  0  0  0
   40.4110   36.6250   41.9610 O   0  0  0  0  0  0  0  0  0  0  0  0
   42.3840   35.1480   40.9350 C   0  0  0  0  0  0  0  0  0  0  0  0
   43.0280   34.1790   40.1970 C   0  0  0  0  0  0  0  0  0  0  0  0
   44.2810   33.7340   40.4860 C   0  0  0  0  0  0  0  0  0  0  0  0
   44.9820   34.2430   41.5590 C   0  0  0  0  0  0  0  0  0  0  0  0
   44.3620   35.2220   42.3250 C   0  0  0  0  0  0  0  0  0  0  0  0
   45.1130   35.6890   43.3790 C   0  0  0  0  0  0  0  0  0  0  0  0
   44.5760   36.6620   44.1930 C   0  0  0  0  0  0  0  0  0  0  0  0
   43.3110   37.1350   43.9280 C   0  0  0  0  0  0  0  0  0  0  0  0
   42.5730   36.6540   42.8670 C   0  0  0  0  0  0  0  0  0  0  0  0
   43.0760   35.6800   42.0280 C   0  0  0  0  0  0  0  0  0  0  0  0
   40.9420   33.0431   41.2829 H   0  0  0  0  0  0  0  0  0  0  0  0
   39.3463   31.1860   40.9385 H   0  0  0  0  0  0  0  0  0  0  0  0
   36.5095   33.9151   39.3225 H   0  0  0  0  0  0  0  0  0  0  0  0
   38.1019   35.7966   39.6688 H   0  0  0  0  0  0  0  0  0  0  0  0
   35.2792   25.3937   37.5012 H   0  0  0  0  0  0  0  0  0  0  0  0
   33.2279   26.0359   36.2323 H   0  0  0  0  0  0  0  0  0  0  0  0
   32.4074   28.4395   36.3544 H   0  0  0  0  0  0  0  0  0  0  0  0
   42.5042   33.7443   39.3329 H   0  0  0  0  0  0  0  0  0  0  0  0
   44.7406   32.9584   39.8557 H   0  0  0  0  0  0  0  0  0  0  0  0
   45.9946   33.8869   41.7994 H   0  0  0  0  0  0  0  0  0  0  0  0
   46.1219   35.2934   43.5679 H   0  0  0  0  0  0  0  0  0  0  0  0
   45.1510   37.0559   45.0440 H   0  0  0  0  0  0  0  0  0  0  0  0
   42.8798   37.9126   44.5757 H   0  0  0  0  0  0  0  0  0  0  0  0
   41.5645   37.0540   42.6858 H   0  0  0  0  0  0  0  0  0  0  0  0
  1 18  1  0
  1  2  2  0
  3  2  1  0
  4  3  2  0
  5  6  2  0
  5  4  1  0
  6  1  1  0
  7  8  2  0
  8  9  1  0
 10  4  1  0
 10  9  1  0
 11  7  1  0
 11 10  2  0
 12 17  2  0
 13 14  2  0
 13 12  1  0
 14 15  1  0
 15 16  2  0
 16  7  1  0
 17 16  1  0
 18 21  1  0
 18 20  2  0
 19 18  2  0
 21 30  2  0
 22 23  2  0
 22 21  1  0
 23 24  1  0
 24 25  2  0
 25 26  1  0
 26 27  2  0
 28 27  1  0
 29 28  2  0
 30 25  1  0
 30 29  1  0
  2 31  1  0
  3 32  1  0
  5 33  1  0
  6 34  1  0
 12 35  1  0
 13 36  1  0
 14 37  1  0
 22 38  1  0
 23 39  1  0
 24 40  1  0
 26 41  1  0
 27 42  1  0
 28 43  1  0
 29 44  1  0
M  END
>  <Score>  (1) 
-7.57886

$$$$
