
     RDKit          3D

 53 58  0  0  0  0  0  0  0  0999 V2000
   37.2190   28.5090   43.8680 C   0  0  0  0  0  0  0  0  0  0  0  0
   37.0460   27.1240   43.7810 C   0  0  0  0  0  0  0  0  0  0  0  0
   37.2120   26.5190   42.5400 C   0  0  0  0  0  0  0  0  0  0  0  0
   37.5340   27.3110   41.4730 N   0  0  0  0  0  0  0  0  0  0  0  0
   37.6930   28.6400   41.5840 C   0  0  0  0  0  0  0  0  0  0  0  0
   37.5370   29.2500   42.7800 N   0  0  0  0  0  0  0  0  0  0  0  0
   38.0270   29.3560   40.4100 N   0  0  0  0  0  0  0  0  0  0  0  0
   38.2020   28.7510   39.2290 C   0  0  0  0  0  0  0  0  0  0  0  0
   38.5230   29.5840   38.1860 C   0  0  0  0  0  0  0  0  0  0  0  0
   38.6680   30.9510   38.2960 C   0  0  0  0  0  0  0  0  0  0  0  0
   38.9640   31.7090   37.3270 O   0  0  0  0  0  0  0  0  0  0  0  0
   38.4800   31.5100   39.5090 N   0  0  0  0  0  0  0  0  0  0  0  0
   38.1590   30.7130   40.5690 C   0  0  0  0  0  0  0  0  0  0  0  0
   37.9940   31.2810   41.6810 O   0  0  0  0  0  0  0  0  0  0  0  0
   38.6080   32.9310   39.7320 C   0  0  0  0  0  0  0  0  0  0  0  0
   37.7570   34.0040   39.6660 C   0  0  0  0  0  0  0  0  0  0  0  0
   38.4590   35.1210   39.9920 N   0  0  0  0  0  0  0  0  0  0  0  0
   39.7360   34.7740   40.2630 C   0  0  0  0  0  0  0  0  0  0  0  0
   40.8120   35.5540   40.6360 C   0  0  0  0  0  0  0  0  0  0  0  0
   42.0670   35.0000   40.8740 C   0  0  0  0  0  0  0  0  0  0  0  0
   42.1910   33.6540   40.7230 C   0  0  0  0  0  0  0  0  0  0  0  0
   41.1210   32.8840   40.3520 C   0  0  0  0  0  0  0  0  0  0  0  0
   39.8610   33.4090   40.1090 C   0  0  0  0  0  0  0  0  0  0  0  0
   38.7520   29.0620   36.8280 C   0  0  0  0  0  0  0  0  0  0  0  0
   37.4730   28.7340   36.1330 C   0  0  0  0  0  0  0  0  0  0  0  0
   36.4970   29.6730   35.8110 C   0  0  0  0  0  0  0  0  0  0  0  0
   35.3460   29.2850   35.1710 C   0  0  0  0  0  0  0  0  0  0  0  0
   35.0980   27.9710   34.8180 C   0  0  0  0  0  0  0  0  0  0  0  0
   36.0720   27.0320   35.1390 C   0  0  0  0  0  0  0  0  0  0  0  0
   35.9110   25.6800   34.8230 C   0  0  0  0  0  0  0  0  0  0  0  0
   36.8520   24.7170   35.1230 C   0  0  0  0  0  0  0  0  0  0  0  0
   38.0100   25.1210   35.7690 C   0  0  0  0  0  0  0  0  0  0  0  0
   38.2060   26.4570   36.1000 C   0  0  0  0  0  0  0  0  0  0  0  0
   37.2330   27.4070   35.7820 C   0  0  0  0  0  0  0  0  0  0  0  0
   37.0941   29.0071   44.8408 H   0  0  0  0  0  0  0  0  0  0  0  0
   36.7859   26.5298   44.6694 H   0  0  0  0  0  0  0  0  0  0  0  0
   37.0876   25.4327   42.4200 H   0  0  0  0  0  0  0  0  0  0  0  0
   38.0961   27.6634   39.1030 H   0  0  0  0  0  0  0  0  0  0  0  0
   36.6913   33.9671   39.3961 H   0  0  0  0  0  0  0  0  0  0  0  0
   38.0788   36.0776   40.0268 H   0  0  0  0  0  0  0  0  0  0  0  0
   40.6746   36.6396   40.7479 H   0  0  0  0  0  0  0  0  0  0  0  0
   42.9222   35.6246   41.1716 H   0  0  0  0  0  0  0  0  0  0  0  0
   43.1657   33.1765   40.9016 H   0  0  0  0  0  0  0  0  0  0  0  0
   41.2679   31.7994   40.2418 H   0  0  0  0  0  0  0  0  0  0  0  0
   39.2904   29.8212   36.2417 H   0  0  0  0  0  0  0  0  0  0  0  0
   39.3394   28.1360   36.9142 H   0  0  0  0  0  0  0  0  0  0  0  0
   36.6487   30.7311   36.0706 H   0  0  0  0  0  0  0  0  0  0  0  0
   34.5920   30.0487   34.9297 H   0  0  0  0  0  0  0  0  0  0  0  0
   34.1693   27.6809   34.3049 H   0  0  0  0  0  0  0  0  0  0  0  0
   34.9890   25.3688   34.3101 H   0  0  0  0  0  0  0  0  0  0  0  0
   36.6886   23.6620   34.8580 H   0  0  0  0  0  0  0  0  0  0  0  0
   38.7807   24.3780   36.0220 H   0  0  0  0  0  0  0  0  0  0  0  0
   39.1286   26.7662   36.6130 H   0  0  0  0  0  0  0  0  0  0  0  0
  2  1  2  0
  3  2  1  0
  4  5  1  0
  4  3  2  0
  5  6  2  0
  6  1  1  0
  7 13  1  0
  7  5  1  0
  8  7  1  0
  9 10  1  0
  9  8  2  0
 10 12  1  0
 11 10  2  0
 12 15  1  0
 12 13  1  0
 13 14  2  0
 15 23  1  0
 16 15  2  0
 16 17  1  0
 17 18  1  0
 18 19  2  0
 19 20  1  0
 21 20  2  0
 22 21  1  0
 23 18  1  0
 23 22  2  0
 24  9  1  0
 25 24  1  0
 26 25  2  0
 27 26  1  0
 28 29  1  0
 28 27  2  0
 29 34  2  0
 30 31  2  0
 30 29  1  0
 31 32  1  0
 32 33  2  0
 34 33  1  0
 34 25  1  0
  1 35  1  0
  2 36  1  0
  3 37  1  0
  8 38  1  0
 16 39  1  0
 17 40  1  0
 19 41  1  0
 20 42  1  0
 21 43  1  0
 22 44  1  0
 24 45  1  0
 24 46  1  0
 26 47  1  0
 27 48  1  0
 28 49  1  0
 30 50  1  0
 31 51  1  0
 32 52  1  0
 33 53  1  0
M  END
>  <Score>  (1) 
-7.05825

$$$$
