
     RDKit          3D

 43 48  0  0  0  0  0  0  0  0999 V2000
   38.6260   31.9700   40.6450 C   0  0  0  0  0  0  0  0  0  0  0  0
   40.0560   32.1660   40.7070 C   0  0  0  0  0  0  0  0  0  0  0  0
   40.5660   33.3970   40.4550 C   0  0  0  0  0  0  0  0  0  0  0  0
   39.6740   34.3950   40.1530 N   0  0  0  0  0  0  0  0  0  0  0  0
   38.3330   34.1910   40.1000 C   0  0  0  0  0  0  0  0  0  0  0  0
   37.8110   32.9870   40.3450 N   0  0  0  0  0  0  0  0  0  0  0  0
   41.9850   33.7400   40.4920 C   0  0  0  0  0  0  0  0  0  0  0  0
   43.1280   33.5250   39.9050 N   0  0  0  0  0  0  0  0  0  0  0  0
   44.0890   34.1700   40.4530 O   0  0  0  0  0  0  0  0  0  0  0  0
   43.6750   34.8690   41.4480 C   0  0  0  0  0  0  0  0  0  0  0  0
   42.3810   34.6030   41.4690 N   0  0  0  0  0  0  0  0  0  0  0  0
   44.3430   35.7400   42.3610 N   0  0  0  0  0  0  0  0  0  0  0  0
   45.6370   36.0560   42.3220 C   0  0  0  0  0  0  0  0  0  0  0  0
   45.9110   36.8980   43.3240 N   0  0  0  0  0  0  0  0  0  0  0  0
   44.7570   37.1200   44.0160 C   0  0  0  0  0  0  0  0  0  0  0  0
   43.7900   36.3780   43.3850 N   0  0  0  0  0  0  0  0  0  0  0  0
   40.8360   30.9790   41.0310 C   0  0  0  0  0  0  0  0  0  0  0  0
   41.2970   30.1620   39.9590 C   0  0  0  0  0  0  0  0  0  0  0  0
   42.2010   28.8090   40.8080 S   0  0  0  0  0  0  0  0  0  0  0  0
   41.7820   29.6130   42.5010 C   0  0  0  0  0  0  0  0  0  0  0  0
   41.2020   30.5010   42.1870 N   0  0  0  0  0  0  0  0  0  0  0  0
   42.3340   28.8390   43.6570 C   0  0  0  0  0  0  0  0  0  0  0  0
   42.0220   27.5270   43.9160 C   0  0  0  0  0  0  0  0  0  0  0  0
   42.5390   26.8350   44.9800 C   0  0  0  0  0  0  0  0  0  0  0  0
   43.4030   27.4530   45.8350 C   0  0  0  0  0  0  0  0  0  0  0  0
   43.7480   28.7690   45.6170 C   0  0  0  0  0  0  0  0  0  0  0  0
   44.6180   29.4210   46.4620 C   0  0  0  0  0  0  0  0  0  0  0  0
   44.9610   30.7560   46.2310 C   0  0  0  0  0  0  0  0  0  0  0  0
   44.3890   31.3910   45.1220 C   0  0  0  0  0  0  0  0  0  0  0  0
   43.5200   30.7320   44.2830 C   0  0  0  0  0  0  0  0  0  0  0  0
   43.2040   29.4260   44.5350 C   0  0  0  0  0  0  0  0  0  0  0  0
   38.2034   30.9746   40.8465 H   0  0  0  0  0  0  0  0  0  0  0  0
   37.6666   35.0302   39.8515 H   0  0  0  0  0  0  0  0  0  0  0  0
   46.3630   35.6840   41.5841 H   0  0  0  0  0  0  0  0  0  0  0  0
   44.6276   37.7625   44.8994 H   0  0  0  0  0  0  0  0  0  0  0  0
   41.1469   30.3074   38.8790 H   0  0  0  0  0  0  0  0  0  0  0  0
   41.3264   27.0086   43.2396 H   0  0  0  0  0  0  0  0  0  0  0  0
   42.2578   25.7842   45.1438 H   0  0  0  0  0  0  0  0  0  0  0  0
   43.8213   26.9051   46.6922 H   0  0  0  0  0  0  0  0  0  0  0  0
   45.0456   28.8879   47.3240 H   0  0  0  0  0  0  0  0  0  0  0  0
   45.6557   31.2889   46.8968 H   0  0  0  0  0  0  0  0  0  0  0  0
   44.6403   32.4420   44.9165 H   0  0  0  0  0  0  0  0  0  0  0  0
   43.0834   31.2514   43.4172 H   0  0  0  0  0  0  0  0  0  0  0  0
  1  2  2  0
  2 17  1  0
  3  7  1  0
  3  2  1  0
  4  3  2  0
  5  4  1  0
  5  6  2  0
  6  1  1  0
  7 11  1  0
  8  9  1  0
  8  7  2  0
  9 10  1  0
 10 11  2  0
 10 12  1  0
 12 16  1  0
 13 12  1  0
 13 14  2  0
 14 15  1  0
 16 15  2  0
 17 21  1  0
 18 19  1  0
 18 17  2  0
 19 20  1  0
 20 22  1  0
 21 20  2  0
 22 23  2  0
 22 31  1  0
 23 24  1  0
 24 25  2  0
 26 25  1  0
 26 27  2  0
 28 27  1  0
 29 28  2  0
 30 31  2  0
 30 29  1  0
 31 26  1  0
  1 32  1  0
  5 33  1  0
 13 34  1  0
 15 35  1  0
 18 36  1  0
 23 37  1  0
 24 38  1  0
 25 39  1  0
 27 40  1  0
 28 41  1  0
 29 42  1  0
 30 43  1  0
M  END
>  <Score>  (1) 
-7.0926

$$$$
