
     RDKit          3D

 48 53  0  0  0  0  0  0  0  0999 V2000
   39.8940   32.7050   40.9170 C   0  0  0  0  0  0  0  0  0  0  0  0
   41.0110   32.1390   41.5650 C   0  0  0  0  0  0  0  0  0  0  0  0
   41.0250   30.8600   42.1070 C   0  0  0  0  0  0  0  0  0  0  0  0
   39.8740   30.0960   42.0030 C   0  0  0  0  0  0  0  0  0  0  0  0
   38.7720   30.5950   41.3890 C   0  0  0  0  0  0  0  0  0  0  0  0
   37.6740   29.8100   41.3000 C   0  0  0  0  0  0  0  0  0  0  0  0
   36.5000   30.2690   40.6580 C   0  0  0  0  0  0  0  0  0  0  0  0
   36.5660   31.5730   40.1350 C   0  0  0  0  0  0  0  0  0  0  0  0
   37.7100   32.3120   40.2610 C   0  0  0  0  0  0  0  0  0  0  0  0
   38.8430   31.8550   40.8860 C   0  0  0  0  0  0  0  0  0  0  0  0
   37.4620   28.4700   41.7960 C   0  0  0  0  0  0  0  0  0  0  0  0
   36.7150   28.0630   42.8840 C   0  0  0  0  0  0  0  0  0  0  0  0
   36.5400   26.7520   43.2630 C   0  0  0  0  0  0  0  0  0  0  0  0
   37.1230   25.7330   42.5500 C   0  0  0  0  0  0  0  0  0  0  0  0
   37.8560   26.1620   41.4810 C   0  0  0  0  0  0  0  0  0  0  0  0
   38.0230   27.4350   41.1170 N   0  0  0  0  0  0  0  0  0  0  0  0
   38.5170   25.1900   40.6580 N   0  0  0  0  0  0  0  0  0  0  0  0
   39.8180   25.2620   40.3470 C   0  0  0  0  0  0  0  0  0  0  0  0
   40.1150   24.1890   39.5580 N   0  0  0  0  0  0  0  0  0  0  0  0
   39.0130   23.4510   39.3740 C   0  0  0  0  0  0  0  0  0  0  0  0
   38.7440   22.2960   38.6860 C   0  0  0  0  0  0  0  0  0  0  0  0
   37.4860   21.8170   38.7170 N   0  0  0  0  0  0  0  0  0  0  0  0
   36.4980   22.4380   39.3990 C   0  0  0  0  0  0  0  0  0  0  0  0
   36.7700   23.5700   40.0710 N   0  0  0  0  0  0  0  0  0  0  0  0
   38.0060   24.0910   40.0740 C   0  0  0  0  0  0  0  0  0  0  0  0
   39.7730   21.6280   37.9620 N   0  0  0  0  0  0  0  0  0  0  0  0
   40.0740   34.0340   40.4410 C   0  0  0  0  0  0  0  0  0  0  0  0
   39.3230   35.2020   40.7050 C   0  0  0  0  0  0  0  0  0  0  0  0
   39.6520   36.4420   40.1700 C   0  0  0  0  0  0  0  0  0  0  0  0
   40.7540   36.4680   39.3660 N   0  0  0  0  0  0  0  0  0  0  0  0
   41.4740   35.3860   39.1040 C   0  0  0  0  0  0  0  0  0  0  0  0
   41.1400   34.2050   39.6290 N   0  0  0  0  0  0  0  0  0  0  0  0
   41.9249   32.7457   41.6461 H   0  0  0  0  0  0  0  0  0  0  0  0
   41.9235   30.4655   42.6041 H   0  0  0  0  0  0  0  0  0  0  0  0
   39.8535   29.0786   42.4208 H   0  0  0  0  0  0  0  0  0  0  0  0
   35.5961   29.6478   40.5735 H   0  0  0  0  0  0  0  0  0  0  0  0
   35.6924   32.0010   39.6216 H   0  0  0  0  0  0  0  0  0  0  0  0
   37.7225   33.3276   39.8385 H   0  0  0  0  0  0  0  0  0  0  0  0
   36.2262   28.8406   43.4893 H   0  0  0  0  0  0  0  0  0  0  0  0
   35.9271   26.5176   44.1458 H   0  0  0  0  0  0  0  0  0  0  0  0
   37.0100   24.6715   42.8152 H   0  0  0  0  0  0  0  0  0  0  0  0
   40.5202   26.0449   40.6695 H   0  0  0  0  0  0  0  0  0  0  0  0
   35.4802   22.0207   39.4041 H   0  0  0  0  0  0  0  0  0  0  0  0
   40.7285   22.0124   37.9520 H   0  0  0  0  0  0  0  0  0  0  0  0
   39.5615   20.7606   37.4485 H   0  0  0  0  0  0  0  0  0  0  0  0
   38.4427   35.1266   41.3603 H   0  0  0  0  0  0  0  0  0  0  0  0
   39.0611   37.3454   40.3815 H   0  0  0  0  0  0  0  0  0  0  0  0
   42.3540   35.4621   38.4485 H   0  0  0  0  0  0  0  0  0  0  0  0
  1  2  2  0
  2  3  1  0
  4  3  2  0
  5  4  1  0
  6  5  2  0
  6 11  1  0
  7  6  1  0
  8  9  1  0
  8  7  2  0
  9 10  2  0
 10  1  1  0
 10  5  1  0
 11 12  2  0
 12 13  1  0
 14 13  2  0
 15 14  1  0
 16 15  2  0
 16 11  1  0
 17 15  1  0
 18 17  1  0
 19 18  2  0
 20 19  1  0
 20 25  2  0
 21 22  2  0
 21 20  1  0
 22 23  1  0
 23 24  2  0
 24 25  1  0
 25 17  1  0
 26 21  1  0
 27 28  2  0
 27  1  1  0
 29 28  1  0
 30 29  2  0
 31 30  1  0
 31 32  2  0
 32 27  1  0
  2 33  1  0
  3 34  1  0
  4 35  1  0
  7 36  1  0
  8 37  1  0
  9 38  1  0
 12 39  1  0
 13 40  1  0
 14 41  1  0
 18 42  1  0
 23 43  1  0
 26 44  1  0
 26 45  1  0
 28 46  1  0
 29 47  1  0
 31 48  1  0
M  END
>  <Score>  (1) 
-7.42869

$$$$
