
     RDKit          3D

 50 55  0  0  0  0  0  0  0  0999 V2000
   37.6180   28.6031   43.7893 C   0  0  0  0  0  0  0  0  0  0  0  0
   37.1355   27.2883   43.7337 C   0  0  0  0  0  0  0  0  0  0  0  0
   36.7357   26.7956   42.4930 C   0  0  0  0  0  0  0  0  0  0  0  0
   36.8358   27.6154   41.4094 N   0  0  0  0  0  0  0  0  0  0  0  0
   37.3027   28.8717   41.4955 C   0  0  0  0  0  0  0  0  0  0  0  0
   37.6955   29.3730   42.6801 N   0  0  0  0  0  0  0  0  0  0  0  0
   37.3600   29.6321   40.2921 N   0  0  0  0  0  0  0  0  0  0  0  0
   37.0006   29.1288   39.1044 C   0  0  0  0  0  0  0  0  0  0  0  0
   37.1129   29.9850   38.0445 C   0  0  0  0  0  0  0  0  0  0  0  0
   37.5594   31.2902   38.1279 C   0  0  0  0  0  0  0  0  0  0  0  0
   37.6608   32.0742   37.1491 O   0  0  0  0  0  0  0  0  0  0  0  0
   37.9091   31.7469   39.3514 N   0  0  0  0  0  0  0  0  0  0  0  0
   37.8067   30.9124   40.4283 C   0  0  0  0  0  0  0  0  0  0  0  0
   38.1490   31.3961   41.5506 O   0  0  0  0  0  0  0  0  0  0  0  0
   38.3870   33.0869   39.5577 C   0  0  0  0  0  0  0  0  0  0  0  0
   37.7965   34.3095   39.7811 C   0  0  0  0  0  0  0  0  0  0  0  0
   38.7707   35.2417   39.9026 N   0  0  0  0  0  0  0  0  0  0  0  0
   39.9841   34.6335   39.7600 C   0  0  0  0  0  0  0  0  0  0  0  0
   41.2448   35.1674   39.8055 C   0  0  0  0  0  0  0  0  0  0  0  0
   42.3668   34.3810   39.6363 C   0  0  0  0  0  0  0  0  0  0  0  0
   42.1696   33.0436   39.4208 C   0  0  0  0  0  0  0  0  0  0  0  0
   40.8991   32.5251   39.3782 C   0  0  0  0  0  0  0  0  0  0  0  0
   39.7637   33.2918   39.5445 C   0  0  0  0  0  0  0  0  0  0  0  0
   36.7510   29.5618   36.6769 C   0  0  0  0  0  0  0  0  0  0  0  0
   37.9382   29.0150   44.7487 H   0  0  0  0  0  0  0  0  0  0  0  0
   37.0842   26.7018   44.6223 H   0  0  0  0  0  0  0  0  0  0  0  0
   36.3582   25.7863   42.4105 H   0  0  0  0  0  0  0  0  0  0  0  0
   36.6525   28.1240   39.0129 H   0  0  0  0  0  0  0  0  0  0  0  0
   36.7167   34.3696   39.8281 H   0  0  0  0  0  0  0  0  0  0  0  0
   38.5449   36.2598   40.0796 H   0  0  0  0  0  0  0  0  0  0  0  0
   41.4389   36.2285   39.9752 H   0  0  0  0  0  0  0  0  0  0  0  0
   43.3900   34.7173   39.6571 H   0  0  0  0  0  0  0  0  0  0  0  0
   42.9889   32.3386   39.2756 H   0  0  0  0  0  0  0  0  0  0  0  0
   40.7569   31.4548   39.2052 H   0  0  0  0  0  0  0  0  0  0  0  0
   35.9573   30.2607   36.3138 H   0  0  0  0  0  0  0  0  0  0  0  0
   37.6093   29.7145   35.9805 H   0  0  0  0  0  0  0  0  0  0  0  0
   36.2869   28.1806   36.6384 N   0  0  0  0  0  0  0  0  0  0  0  0
   35.9030   27.4103   37.6990 C   0  0  0  0  0  0  0  0  0  0  0  0
   35.5361   26.1745   37.2468 N   0  0  0  0  0  0  0  0  0  0  0  0
   35.7008   26.2123   35.9340 C   0  0  0  0  0  0  0  0  0  0  0  0
   35.5154   25.3154   34.9057 C   0  0  0  0  0  0  0  0  0  0  0  0
   35.0427   24.0012   35.1370 N   0  0  0  0  0  0  0  0  0  0  0  0
   35.7558   25.5790   33.6007 N   0  0  0  0  0  0  0  0  0  0  0  0
   36.2135   26.8029   33.2329 C   0  0  0  0  0  0  0  0  0  0  0  0
   36.3956   27.6780   34.2245 N   0  0  0  0  0  0  0  0  0  0  0  0
   36.1583   27.4177   35.5125 C   0  0  0  0  0  0  0  0  0  0  0  0
   35.8901   27.7247   38.7335 H   0  0  0  0  0  0  0  0  0  0  0  0
   34.6764   23.0540   35.3228 H   0  0  0  0  0  0  0  0  0  0  0  0
   34.2929   23.4896   35.6530 H   0  0  0  0  0  0  0  0  0  0  0  0
   36.4609   27.2034   32.2679 H   0  0  0  0  0  0  0  0  0  0  0  0
  2  1  2  0
  3  2  1  0
  4  5  1  0
  4  3  2  0
  5  6  2  0
  6  1  1  0
  7 13  1  0
  7  5  1  0
  8  7  1  0
  9 10  1  0
  9  8  2  0
 10 12  1  0
 11 10  2  0
 12 15  1  0
 12 13  1  0
 13 14  2  0
 15 16  2  0
 16 17  1  0
 18 19  2  0
 18 17  1  0
 20 19  1  0
 21 20  2  0
 22 21  1  0
 22 23  2  0
 23 15  1  0
 23 18  1  0
 24  9  1  0
  1 25  1  0
  2 26  1  0
  3 27  1  0
  8 28  1  0
 16 29  1  0
 17 30  1  0
 19 31  1  0
 20 32  1  0
 21 33  1  0
 22 34  1  0
 24 35  1  0
 24 36  1  0
 37 38  1  0
 38 39  2  0
 39 40  1  0
 40 41  2  0
 41 42  1  0
 41 43  1  0
 43 44  2  0
 44 45  1  0
 45 46  2  0
 46 37  1  0
 46 40  1  0
 38 47  1  0
 42 48  1  0
 42 49  1  0
 44 50  1  0
 24 37  1  0
M  END
>  <Score>  (1) 
-7.04091

$$$$
