
     RDKit          3D

 44 48  0  0  0  0  0  0  0  0999 V2000
   38.5800   24.7090   42.2860 C   0  0  0  0  0  0  0  0  0  0  0  0
   39.8280   25.2070   42.6820 C   0  0  0  0  0  0  0  0  0  0  0  0
   39.9160   26.5630   43.1010 C   0  0  0  0  0  0  0  0  0  0  0  0
   38.7440   27.2830   43.0850 N   0  0  0  0  0  0  0  0  0  0  0  0
   37.5640   26.7570   42.6950 C   0  0  0  0  0  0  0  0  0  0  0  0
   37.4950   25.4820   42.3020 N   0  0  0  0  0  0  0  0  0  0  0  0
   38.4940   23.3750   41.8630 N   0  0  0  0  0  0  0  0  0  0  0  0
   41.0650   27.2300   43.6060 C   0  0  0  0  0  0  0  0  0  0  0  0
   41.6560   26.6450   44.7160 C   0  0  0  0  0  0  0  0  0  0  0  0
   42.7690   27.1270   45.3760 C   0  0  0  0  0  0  0  0  0  0  0  0
   43.3740   28.2800   44.9270 C   0  0  0  0  0  0  0  0  0  0  0  0
   42.8360   28.9130   43.8280 C   0  0  0  0  0  0  0  0  0  0  0  0
   43.3830   30.0890   43.3650 C   0  0  0  0  0  0  0  0  0  0  0  0
   42.8470   30.7880   42.2780 C   0  0  0  0  0  0  0  0  0  0  0  0
   41.7120   30.2250   41.6790 C   0  0  0  0  0  0  0  0  0  0  0  0
   41.2030   29.0510   42.1780 C   0  0  0  0  0  0  0  0  0  0  0  0
   41.7320   28.3640   43.2410 C   0  0  0  0  0  0  0  0  0  0  0  0
   36.4700   27.6060   42.7330 O   0  0  0  0  0  0  0  0  0  0  0  0
   36.2350   28.5830   41.7920 C   0  0  0  0  0  0  0  0  0  0  0  0
   35.3840   28.8550   40.7770 N   0  0  0  0  0  0  0  0  0  0  0  0
   35.7070   30.0030   40.2460 O   0  0  0  0  0  0  0  0  0  0  0  0
   36.7490   30.5140   40.8700 C   0  0  0  0  0  0  0  0  0  0  0  0
   37.1010   29.6420   41.8450 N   0  0  0  0  0  0  0  0  0  0  0  0
   37.4250   31.7850   40.5850 C   0  0  0  0  0  0  0  0  0  0  0  0
   36.8830   32.7740   39.7930 C   0  0  0  0  0  0  0  0  0  0  0  0
   37.5870   33.9590   39.5630 C   0  0  0  0  0  0  0  0  0  0  0  0
   38.8330   34.1550   40.1240 C   0  0  0  0  0  0  0  0  0  0  0  0
   39.3580   33.1580   40.9100 C   0  0  0  0  0  0  0  0  0  0  0  0
   38.6720   32.0060   41.1320 C   0  0  0  0  0  0  0  0  0  0  0  0
   40.7200   24.5635   42.6691 H   0  0  0  0  0  0  0  0  0  0  0  0
   39.3365   22.7826   41.8530 H   0  0  0  0  0  0  0  0  0  0  0  0
   37.5883   22.9874   41.5623 H   0  0  0  0  0  0  0  0  0  0  0  0
   41.2007   25.7212   45.1023 H   0  0  0  0  0  0  0  0  0  0  0  0
   43.1687   26.5952   46.2520 H   0  0  0  0  0  0  0  0  0  0  0  0
   44.2632   28.6847   45.4325 H   0  0  0  0  0  0  0  0  0  0  0  0
   44.2737   30.4935   43.8681 H   0  0  0  0  0  0  0  0  0  0  0  0
   43.2913   31.7262   41.9142 H   0  0  0  0  0  0  0  0  0  0  0  0
   41.2344   30.7176   40.8192 H   0  0  0  0  0  0  0  0  0  0  0  0
   40.3094   28.6327   41.6917 H   0  0  0  0  0  0  0  0  0  0  0  0
   35.8912   32.6299   39.3396 H   0  0  0  0  0  0  0  0  0  0  0  0
   37.1446   34.7421   38.9297 H   0  0  0  0  0  0  0  0  0  0  0  0
   39.3914   35.0859   39.9462 H   0  0  0  0  0  0  0  0  0  0  0  0
   40.3493   33.2943   41.3669 H   0  0  0  0  0  0  0  0  0  0  0  0
   39.1236   31.2283   41.7654 H   0  0  0  0  0  0  0  0  0  0  0  0
  1  6  2  0
  1  2  1  0
  2  3  2  0
  3  8  1  0
  4  3  1  0
  5 18  1  0
  5  4  2  0
  6  5  1  0
  7  1  1  0
  8  9  2  0
  9 10  1  0
 11 10  2  0
 12 11  1  0
 13 12  2  0
 14 13  1  0
 15 16  1  0
 15 14  2  0
 16 17  2  0
 17  8  1  0
 17 12  1  0
 19 23  1  0
 19 18  1  0
 20 19  2  0
 21 20  1  0
 21 22  1  0
 22 23  2  0
 24 22  1  0
 24 29  1  0
 25 24  2  0
 26 25  1  0
 26 27  2  0
 27 28  1  0
 28 29  2  0
  2 30  1  0
  7 31  1  0
  7 32  1  0
  9 33  1  0
 10 34  1  0
 11 35  1  0
 13 36  1  0
 14 37  1  0
 15 38  1  0
 16 39  1  0
 25 40  1  0
 26 41  1  0
 27 42  1  0
 28 43  1  0
 29 44  1  0
M  END
>  <Score>  (1) 
-7.09886

$$$$
