
     RDKit          3D

 49 54  0  0  0  0  0  0  0  0999 V2000
   39.8940   32.6880   40.9120 C   0  0  0  0  0  0  0  0  0  0  0  0
   41.0200   32.0930   41.5310 C   0  0  0  0  0  0  0  0  0  0  0  0
   41.0180   30.8150   42.0670 C   0  0  0  0  0  0  0  0  0  0  0  0
   39.8440   30.0720   41.9960 C   0  0  0  0  0  0  0  0  0  0  0  0
   38.7390   30.6010   41.4130 C   0  0  0  0  0  0  0  0  0  0  0  0
   37.6230   29.8420   41.3610 C   0  0  0  0  0  0  0  0  0  0  0  0
   36.4350   30.3310   40.7590 C   0  0  0  0  0  0  0  0  0  0  0  0
   36.5190   31.6330   40.2380 C   0  0  0  0  0  0  0  0  0  0  0  0
   37.6820   32.3440   40.3260 C   0  0  0  0  0  0  0  0  0  0  0  0
   38.8260   31.8600   40.9100 C   0  0  0  0  0  0  0  0  0  0  0  0
   37.3940   28.5030   41.8570 C   0  0  0  0  0  0  0  0  0  0  0  0
   36.8230   28.1130   43.0500 C   0  0  0  0  0  0  0  0  0  0  0  0
   36.6120   26.8070   43.4300 C   0  0  0  0  0  0  0  0  0  0  0  0
   36.9760   25.7720   42.6040 C   0  0  0  0  0  0  0  0  0  0  0  0
   37.5400   26.1840   41.4310 C   0  0  0  0  0  0  0  0  0  0  0  0
   37.7420   27.4550   41.0680 N   0  0  0  0  0  0  0  0  0  0  0  0
   37.9670   25.1980   40.4770 N   0  0  0  0  0  0  0  0  0  0  0  0
   39.2110   25.0300   39.9540 C   0  0  0  0  0  0  0  0  0  0  0  0
   39.1690   23.9900   39.0990 N   0  0  0  0  0  0  0  0  0  0  0  0
   37.9220   23.4930   39.0690 C   0  0  0  0  0  0  0  0  0  0  0  0
   37.3870   22.4260   38.3440 C   0  0  0  0  0  0  0  0  0  0  0  0
   38.0780   21.7420   37.5610 O   0  0  0  0  0  0  0  0  0  0  0  0
   36.0770   22.1170   38.4910 N   0  0  0  0  0  0  0  0  0  0  0  0
   35.3810   22.8770   39.3400 C   0  0  0  0  0  0  0  0  0  0  0  0
   34.0060   22.5420   39.4850 N   0  0  0  0  0  0  0  0  0  0  0  0
   35.8430   23.9140   40.0620 N   0  0  0  0  0  0  0  0  0  0  0  0
   37.1560   24.2640   39.9490 C   0  0  0  0  0  0  0  0  0  0  0  0
   40.0920   34.0110   40.4330 C   0  0  0  0  0  0  0  0  0  0  0  0
   39.3730   35.1940   40.7230 C   0  0  0  0  0  0  0  0  0  0  0  0
   39.7290   36.4260   40.1700 C   0  0  0  0  0  0  0  0  0  0  0  0
   40.8060   36.4250   39.3350 N   0  0  0  0  0  0  0  0  0  0  0  0
   41.4840   35.3300   39.0560 C   0  0  0  0  0  0  0  0  0  0  0  0
   41.1360   34.1580   39.5900 N   0  0  0  0  0  0  0  0  0  0  0  0
   41.9493   32.6786   41.5898 H   0  0  0  0  0  0  0  0  0  0  0  0
   41.9215   30.3988   42.5365 H   0  0  0  0  0  0  0  0  0  0  0  0
   39.8116   29.0546   42.4130 H   0  0  0  0  0  0  0  0  0  0  0  0
   35.5134   29.7330   40.7041 H   0  0  0  0  0  0  0  0  0  0  0  0
   35.6399   32.0841   39.7546 H   0  0  0  0  0  0  0  0  0  0  0  0
   37.7029   33.3603   39.9057 H   0  0  0  0  0  0  0  0  0  0  0  0
   36.5134   28.9036   43.7493 H   0  0  0  0  0  0  0  0  0  0  0  0
   36.1479   26.5905   44.4035 H   0  0  0  0  0  0  0  0  0  0  0  0
   36.8275   24.7132   42.8626 H   0  0  0  0  0  0  0  0  0  0  0  0
   40.0974   25.6377   40.1884 H   0  0  0  0  0  0  0  0  0  0  0  0
   35.6413   21.3385   37.9762 H   0  0  0  0  0  0  0  0  0  0  0  0
   33.4080   23.0858   40.1234 H   0  0  0  0  0  0  0  0  0  0  0  0
   33.6085   21.7556   38.9516 H   0  0  0  0  0  0  0  0  0  0  0  0
   38.5097   35.1422   41.4028 H   0  0  0  0  0  0  0  0  0  0  0  0
   39.1708   37.3465   40.3960 H   0  0  0  0  0  0  0  0  0  0  0  0
   42.3464   35.3829   38.3753 H   0  0  0  0  0  0  0  0  0  0  0  0
  1  2  2  0
  2  3  1  0
  4  3  2  0
  5  4  1  0
  6  5  2  0
  6 11  1  0
  7  6  1  0
  8  9  1  0
  8  7  2  0
  9 10  2  0
 10  1  1  0
 10  5  1  0
 11 12  2  0
 12 13  1  0
 14 13  2  0
 15 14  1  0
 16 15  2  0
 16 11  1  0
 17 15  1  0
 18 17  1  0
 19 18  2  0
 20 19  1  0
 20 27  2  0
 21 23  1  0
 21 20  1  0
 22 21  2  0
 23 24  1  0
 24 25  1  0
 24 26  2  0
 27 26  1  0
 27 17  1  0
 28 29  2  0
 28  1  1  0
 30 29  1  0
 31 30  2  0
 32 31  1  0
 32 33  2  0
 33 28  1  0
  2 34  1  0
  3 35  1  0
  4 36  1  0
  7 37  1  0
  8 38  1  0
  9 39  1  0
 12 40  1  0
 13 41  1  0
 14 42  1  0
 18 43  1  0
 23 44  1  0
 25 45  1  0
 25 46  1  0
 29 47  1  0
 30 48  1  0
 32 49  1  0
M  END
>  <Score>  (1) 
-7.63569

$$$$
