
     RDKit          3D

 35 39  0  0  0  0  0  0  0  0999 V2000
   40.6310   29.3770   41.5600 C   0  0  0  0  0  0  0  0  0  0  0  0
   39.5530   28.5370   41.8910 C   0  0  0  0  0  0  0  0  0  0  0  0
   38.2530   29.0610   41.7930 C   0  0  0  0  0  0  0  0  0  0  0  0
   38.1460   30.3570   41.3780 N   0  0  0  0  0  0  0  0  0  0  0  0
   39.1940   31.1350   41.0700 C   0  0  0  0  0  0  0  0  0  0  0  0
   40.4360   30.6510   41.1580 N   0  0  0  0  0  0  0  0  0  0  0  0
   38.8370   32.4620   40.6580 N   0  0  0  0  0  0  0  0  0  0  0  0
   37.5810   32.7300   40.2870 C   0  0  0  0  0  0  0  0  0  0  0  0
   37.5290   34.0470   39.9510 N   0  0  0  0  0  0  0  0  0  0  0  0
   38.7350   34.6190   40.1040 C   0  0  0  0  0  0  0  0  0  0  0  0
   39.3480   35.8340   39.9540 C   0  0  0  0  0  0  0  0  0  0  0  0
   40.6460   36.0270   40.2220 N   0  0  0  0  0  0  0  0  0  0  0  0
   41.4000   35.0020   40.6570 C   0  0  0  0  0  0  0  0  0  0  0  0
   40.8290   33.8040   40.8120 N   0  0  0  0  0  0  0  0  0  0  0  0
   39.5400   33.6040   40.5480 C   0  0  0  0  0  0  0  0  0  0  0  0
   42.8300   34.9480   41.0170 C   0  0  0  0  0  0  0  0  0  0  0  0
   43.7450   34.1710   40.3690 N   0  0  0  0  0  0  0  0  0  0  0  0
   45.0360   34.1210   40.6940 C   0  0  0  0  0  0  0  0  0  0  0  0
   45.5680   34.8340   41.6970 N   0  0  0  0  0  0  0  0  0  0  0  0
   44.7360   35.6260   42.3880 C   0  0  0  0  0  0  0  0  0  0  0  0
   45.2650   36.3650   43.4220 C   0  0  0  0  0  0  0  0  0  0  0  0
   44.4690   37.2000   44.1750 C   0  0  0  0  0  0  0  0  0  0  0  0
   43.1110   37.2630   43.8450 C   0  0  0  0  0  0  0  0  0  0  0  0
   42.6430   36.4990   42.8010 C   0  0  0  0  0  0  0  0  0  0  0  0
   43.4070   35.6640   42.0370 C   0  0  0  0  0  0  0  0  0  0  0  0
   41.6571   28.9870   41.6302 H   0  0  0  0  0  0  0  0  0  0  0  0
   39.7225   27.5002   42.2171 H   0  0  0  0  0  0  0  0  0  0  0  0
   37.3666   28.4576   42.0382 H   0  0  0  0  0  0  0  0  0  0  0  0
   36.7439   32.0169   40.2587 H   0  0  0  0  0  0  0  0  0  0  0  0
   38.7501   36.6863   39.5989 H   0  0  0  0  0  0  0  0  0  0  0  0
   45.6974   33.4630   40.1113 H   0  0  0  0  0  0  0  0  0  0  0  0
   46.3383   36.2877   43.6502 H   0  0  0  0  0  0  0  0  0  0  0  0
   44.8846   37.7935   45.0027 H   0  0  0  0  0  0  0  0  0  0  0  0
   42.4281   37.9132   44.4114 H   0  0  0  0  0  0  0  0  0  0  0  0
   41.5710   36.5659   42.5635 H   0  0  0  0  0  0  0  0  0  0  0  0
  1  2  2  0
  3  2  1  0
  4  3  2  0
  5  6  2  0
  5  4  1  0
  6  1  1  0
  7  5  1  0
  8  7  1  0
  9 10  1  0
  9  8  2  0
 10 15  2  0
 11 10  1  0
 11 12  2  0
 12 13  1  0
 13 14  2  0
 13 16  1  0
 15  7  1  0
 15 14  1  0
 16 25  2  0
 17 18  2  0
 17 16  1  0
 18 19  1  0
 19 20  2  0
 20 21  1  0
 21 22  2  0
 23 22  1  0
 24 23  2  0
 25 20  1  0
 25 24  1  0
  1 26  1  0
  2 27  1  0
  3 28  1  0
  8 29  1  0
 11 30  1  0
 18 31  1  0
 21 32  1  0
 22 33  1  0
 23 34  1  0
 24 35  1  0
M  END
>  <Score>  (1) 
-7.3808

$$$$
