
     RDKit          3D

 46 50  0  0  0  0  0  0  0  0999 V2000
   37.3850   29.6690   41.7970 N   0  0  0  0  0  0  0  0  0  0  0  0
   36.2860   29.4660   41.0470 C   0  0  0  0  0  0  0  0  0  0  0  0
   36.2950   30.0410   39.7940 C   0  0  0  0  0  0  0  0  0  0  0  0
   37.3240   30.7870   39.2760 C   0  0  0  0  0  0  0  0  0  0  0  0
   37.2980   31.2880   38.1460 O   0  0  0  0  0  0  0  0  0  0  0  0
   38.3880   30.9330   40.1120 N   0  0  0  0  0  0  0  0  0  0  0  0
   38.4260   30.3880   41.3500 C   0  0  0  0  0  0  0  0  0  0  0  0
   39.4670   30.5780   42.0660 O   0  0  0  0  0  0  0  0  0  0  0  0
   39.5090   31.6930   39.6620 C   0  0  0  0  0  0  0  0  0  0  0  0
   40.6800   31.3450   39.0250 C   0  0  0  0  0  0  0  0  0  0  0  0
   41.4280   32.4450   38.8100 N   0  0  0  0  0  0  0  0  0  0  0  0
   40.7360   33.5110   39.3110 C   0  0  0  0  0  0  0  0  0  0  0  0
   41.0140   34.8590   39.3670 C   0  0  0  0  0  0  0  0  0  0  0  0
   40.1550   35.7710   39.9290 C   0  0  0  0  0  0  0  0  0  0  0  0
   38.9370   35.3330   40.4760 C   0  0  0  0  0  0  0  0  0  0  0  0
   38.7000   33.9800   40.3980 C   0  0  0  0  0  0  0  0  0  0  0  0
   39.5580   33.0530   39.8340 C   0  0  0  0  0  0  0  0  0  0  0  0
   37.5020   29.1190   43.1280 C   0  0  0  0  0  0  0  0  0  0  0  0
   40.0590   26.5060   43.7970 C   0  0  0  0  0  0  0  0  0  0  0  0
   39.5960   25.4480   42.9960 C   0  0  0  0  0  0  0  0  0  0  0  0
   38.4460   25.6340   42.2570 C   0  0  0  0  0  0  0  0  0  0  0  0
   37.8130   26.8090   42.3260 N   0  0  0  0  0  0  0  0  0  0  0  0
   38.2670   27.8350   43.1060 C   0  0  0  0  0  0  0  0  0  0  0  0
   39.3700   27.6550   43.8140 N   0  0  0  0  0  0  0  0  0  0  0  0
   37.9310   24.5620   41.4130 C   0  0  0  0  0  0  0  0  0  0  0  0
   36.6390   24.6330   40.9330 C   0  0  0  0  0  0  0  0  0  0  0  0
   36.1590   23.6060   40.1300 C   0  0  0  0  0  0  0  0  0  0  0  0
   36.9670   22.5130   39.8080 C   0  0  0  0  0  0  0  0  0  0  0  0
   38.2710   22.4890   40.3210 C   0  0  0  0  0  0  0  0  0  0  0  0
   38.7080   23.5090   41.1030 N   0  0  0  0  0  0  0  0  0  0  0  0
   35.4319   28.8767   41.4119 H   0  0  0  0  0  0  0  0  0  0  0  0
   35.4087   29.8902   39.1602 H   0  0  0  0  0  0  0  0  0  0  0  0
   40.9622   30.3221   38.7352 H   0  0  0  0  0  0  0  0  0  0  0  0
   42.3504   32.4763   38.3527 H   0  0  0  0  0  0  0  0  0  0  0  0
   41.9632   35.2197   38.9441 H   0  0  0  0  0  0  0  0  0  0  0  0
   40.4189   36.8387   39.9509 H   0  0  0  0  0  0  0  0  0  0  0  0
   38.2191   36.0273   40.9370 H   0  0  0  0  0  0  0  0  0  0  0  0
   37.7541   33.6061   40.8169 H   0  0  0  0  0  0  0  0  0  0  0  0
   38.0267   29.8405   43.7716 H   0  0  0  0  0  0  0  0  0  0  0  0
   36.4926   28.9216   43.5181 H   0  0  0  0  0  0  0  0  0  0  0  0
   40.9720   26.3926   44.4000 H   0  0  0  0  0  0  0  0  0  0  0  0
   40.1390   24.4921   42.9591 H   0  0  0  0  0  0  0  0  0  0  0  0
   35.9979   25.4912   41.1829 H   0  0  0  0  0  0  0  0  0  0  0  0
   35.1304   23.6541   39.7431 H   0  0  0  0  0  0  0  0  0  0  0  0
   36.5919   21.6974   39.1723 H   0  0  0  0  0  0  0  0  0  0  0  0
   38.9387   21.6458   40.0906 H   0  0  0  0  0  0  0  0  0  0  0  0
  1 18  1  0
  2  1  1  0
  3  2  2  0
  4  3  1  0
  4  6  1  0
  5  4  2  0
  6  7  1  0
  7  1  1  0
  7  8  2  0
  9 17  1  0
  9  6  1  0
 10  9  2  0
 11 10  1  0
 11 12  1  0
 12 13  2  0
 12 17  1  0
 13 14  1  0
 14 15  2  0
 16 15  1  0
 17 16  2  0
 19 24  2  0
 20 19  1  0
 21 22  1  0
 21 20  2  0
 22 23  2  0
 23 18  1  0
 23 24  1  0
 25 21  1  0
 26 25  2  0
 27 26  1  0
 28 27  2  0
 28 29  1  0
 29 30  2  0
 30 25  1  0
  2 31  1  0
  3 32  1  0
 10 33  1  0
 11 34  1  0
 13 35  1  0
 14 36  1  0
 15 37  1  0
 16 38  1  0
 18 39  1  0
 18 40  1  0
 19 41  1  0
 20 42  1  0
 26 43  1  0
 27 44  1  0
 28 45  1  0
 29 46  1  0
M  END
>  <Score>  (1) 
-7.1095

$$$$
