
     RDKit          3D

 52 57  0  0  1  0  0  0  0  0999 V2000
   37.2000   28.7360   41.2940 C   0  0  0  0  0  0  0  0  0  0  0  0
   37.4320   29.3280   42.5530 C   0  0  0  0  0  0  0  0  0  0  0  0
   37.4790   28.6060   43.7600 C   0  0  0  0  0  0  0  0  0  0  0  0
   37.2950   27.2230   43.7200 C   0  0  0  0  0  0  0  0  0  0  0  0
   37.0710   26.6010   42.5060 C   0  0  0  0  0  0  0  0  0  0  0  0
   36.9410   25.2330   42.4220 C   0  0  0  0  0  0  0  0  0  0  0  0
   36.7590   24.5830   41.1930 C   0  0  0  0  0  0  0  0  0  0  0  0
   36.7130   25.4080   40.0700 C   0  0  0  0  0  0  0  0  0  0  0  0
   36.8470   26.7810   40.1870 C   0  0  0  0  0  0  0  0  0  0  0  0
   37.0340   27.3880   41.3840 C   0  0  0  0  0  0  0  0  0  0  0  0
   41.2350   28.4610   40.9720 C   0  0  0  0  0  0  0  0  0  0  0  0
   42.1830   28.6110   39.9400 C   0  0  0  0  0  0  0  0  0  0  0  0
   41.7870   29.3060   38.8060 C   0  0  0  0  0  0  0  0  0  0  0  0
   40.5030   29.8100   38.7460 N   0  0  0  0  0  0  0  0  0  0  0  0
   39.6480   29.6380   39.7500 C   0  0  0  0  0  0  0  0  0  0  0  0
   40.0180   28.9750   40.8380 N   0  0  0  0  0  0  0  0  0  0  0  0
   38.3730   30.1450   39.6380 N   0  0  0  0  0  0  0  0  0  0  0  0
   38.0140   31.2890   38.7970 C   0  0  0  0  0  0  0  0  0  0  0  0
   36.8620   31.9180   39.4950 C   0  0  0  0  0  0  0  0  0  0  0  0
   36.5050   31.0070   40.6380 C   0  0  0  0  0  0  0  0  0  0  0  0
   37.1050   29.6720   40.2440 C   0  0  2  0  0  0  0  0  0  0  0  0
   36.6190   27.2720   38.8520 C   0  0  0  0  0  0  0  0  0  0  0  0
   37.7700   27.0860   38.0210 C   0  0  0  0  0  0  0  0  0  0  0  0
   37.5160   27.5900   36.7730 N   0  0  0  0  0  0  0  0  0  0  0  0
   36.2670   28.0890   36.7610 C   0  0  0  0  0  0  0  0  0  0  0  0
   35.4600   28.7470   35.8550 C   0  0  0  0  0  0  0  0  0  0  0  0
   34.1860   29.1700   36.2480 C   0  0  0  0  0  0  0  0  0  0  0  0
   33.6820   28.9580   37.5330 C   0  0  0  0  0  0  0  0  0  0  0  0
   34.5010   28.2990   38.4240 C   0  0  0  0  0  0  0  0  0  0  0  0
   35.7280   27.8970   38.0150 C   0  0  0  0  0  0  0  0  0  0  0  0
   37.5850   30.4165   42.5938 H   0  0  0  0  0  0  0  0  0  0  0  0
   37.6571   29.1211   44.7155 H   0  0  0  0  0  0  0  0  0  0  0  0
   37.3280   26.6325   44.6475 H   0  0  0  0  0  0  0  0  0  0  0  0
   36.9810   24.6339   43.3437 H   0  0  0  0  0  0  0  0  0  0  0  0
   36.6587   23.4901   41.1194 H   0  0  0  0  0  0  0  0  0  0  0  0
   36.5680   24.9610   39.0754 H   0  0  0  0  0  0  0  0  0  0  0  0
   41.5036   27.9174   41.8898 H   0  0  0  0  0  0  0  0  0  0  0  0
   43.1968   28.1937   40.0298 H   0  0  0  0  0  0  0  0  0  0  0  0
   42.4848   29.4530   37.9685 H   0  0  0  0  0  0  0  0  0  0  0  0
   37.7232   30.9551   37.7901 H   0  0  0  0  0  0  0  0  0  0  0  0
   38.8527   31.9877   38.6614 H   0  0  0  0  0  0  0  0  0  0  0  0
   37.1440   32.9112   39.8746 H   0  0  0  0  0  0  0  0  0  0  0  0
   36.0095   32.0530   38.8130 H   0  0  0  0  0  0  0  0  0  0  0  0
   36.9435   31.3702   41.5792 H   0  0  0  0  0  0  0  0  0  0  0  0
   35.4201   30.9492   40.8104 H   0  0  0  0  0  0  0  0  0  0  0  0
   36.5009   29.0574   39.5604 H   0  0  0  0  0  0  0  0  0  0  0  0
   38.7115   26.6122   38.3358 H   0  0  0  0  0  0  0  0  0  0  0  0
   38.1708   27.5873   35.9780 H   0  0  0  0  0  0  0  0  0  0  0  0
   35.8160   28.9373   34.8317 H   0  0  0  0  0  0  0  0  0  0  0  0
   33.5544   29.6917   35.5139 H   0  0  0  0  0  0  0  0  0  0  0  0
   32.6773   29.3013   37.8207 H   0  0  0  0  0  0  0  0  0  0  0  0
   34.1632   28.1023   39.4522 H   0  0  0  0  0  0  0  0  0  0  0  0
  1 10  1  0
  1  2  2  0
  2  3  1  0
  4  3  2  0
  5  4  1  0
  6  5  2  0
  7  6  1  0
  8  9  1  0
  8  7  2  0
  9 10  2  0
 10  5  1  0
 12 11  2  0
 13 12  1  0
 14 13  2  0
 14 15  1  0
 15 16  2  0
 16 11  1  0
 17 15  1  0
 17 21  1  0
 18 19  1  0
 18 17  1  0
 19 20  1  0
 21 20  1  0
 21  1  1  0
 22  9  1  0
 23 22  2  0
 24 23  1  0
 25 24  1  0
 25 30  2  0
 26 27  2  0
 26 25  1  0
 27 28  1  0
 28 29  2  0
 30 29  1  0
 30 22  1  0
  2 31  1  0
  3 32  1  0
  4 33  1  0
  6 34  1  0
  7 35  1  0
  8 36  1  0
 11 37  1  0
 12 38  1  0
 13 39  1  0
 18 40  1  0
 18 41  1  0
 19 42  1  0
 19 43  1  0
 20 44  1  0
 20 45  1  0
 21 46  1  6
 23 47  1  0
 24 48  1  0
 26 49  1  0
 27 50  1  0
 28 51  1  0
 29 52  1  0
M  END
>  <Score>  (1) 
-7.20538

$$$$
