
     RDKit          3D

 45 50  0  0  1  0  0  0  0  0999 V2000
   42.2760   34.1640   39.2010 C   0  0  0  0  0  0  0  0  0  0  0  0
   42.0460   32.9660   39.8740 C   0  0  0  0  0  0  0  0  0  0  0  0
   40.8770   32.8290   40.5870 C   0  0  0  0  0  0  0  0  0  0  0  0
   40.0190   33.8970   40.5790 N   0  0  0  0  0  0  0  0  0  0  0  0
   40.2620   35.0370   39.9260 C   0  0  0  0  0  0  0  0  0  0  0  0
   41.3920   35.1630   39.2380 N   0  0  0  0  0  0  0  0  0  0  0  0
   40.4000   31.7460   41.3460 N   0  0  0  0  0  0  0  0  0  0  0  0
   41.0440   31.2690   42.3920 C   0  0  0  0  0  0  0  0  0  0  0  0
   40.2950   30.2400   42.8800 N   0  0  0  0  0  0  0  0  0  0  0  0
   39.1900   30.0940   42.1210 C   0  0  0  0  0  0  0  0  0  0  0  0
   38.0980   29.2490   42.1220 C   0  0  0  0  0  0  0  0  0  0  0  0
   38.0160   28.3600   43.0100 O   0  0  0  0  0  0  0  0  0  0  0  0
   37.1580   29.4260   41.1520 N   0  0  0  0  0  0  0  0  0  0  0  0
   37.2530   30.3810   40.2030 C   0  0  0  0  0  0  0  0  0  0  0  0
   36.2540   30.5220   39.2220 N   0  0  0  0  0  0  0  0  0  0  0  0
   38.3070   31.1970   40.2010 N   0  0  0  0  0  0  0  0  0  0  0  0
   39.2610   31.0780   41.1200 C   0  0  0  0  0  0  0  0  0  0  0  0
   42.3590   31.6300   43.0380 C   0  0  1  0  0  0  0  0  0  0  0  0
   43.2860   30.4180   43.2430 C   0  0  0  0  0  0  0  0  0  0  0  0
   43.5860   31.5290   42.2660 C   0  0  2  0  0  0  0  0  0  0  0  0
   44.7150   32.4190   42.4990 N   0  0  0  0  0  0  0  0  0  0  0  0
   46.0200   32.1190   42.6300 C   0  0  0  0  0  0  0  0  0  0  0  0
   46.7030   33.2700   42.8350 N   0  0  0  0  0  0  0  0  0  0  0  0
   45.8180   34.3030   42.8320 C   0  0  0  0  0  0  0  0  0  0  0  0
   45.9470   35.6780   42.9900 C   0  0  0  0  0  0  0  0  0  0  0  0
   44.8590   36.4950   42.9390 N   0  0  0  0  0  0  0  0  0  0  0  0
   43.6440   35.9230   42.7280 C   0  0  0  0  0  0  0  0  0  0  0  0
   43.5080   34.5930   42.5740 N   0  0  0  0  0  0  0  0  0  0  0  0
   44.5710   33.7520   42.6190 C   0  0  0  0  0  0  0  0  0  0  0  0
   36.0370   28.5020   41.2160 C   0  0  0  0  0  0  0  0  0  0  0  0
   35.9240   27.8710   42.4160 F   0  0  0  0  0  0  0  0  0  0  0  0
   36.3240   27.4720   40.2860 F   0  0  0  0  0  0  0  0  0  0  0  0
   34.8520   29.1170   40.8280 F   0  0  0  0  0  0  0  0  0  0  0  0
   43.2060   34.2891   38.6270 H   0  0  0  0  0  0  0  0  0  0  0  0
   42.7815   32.1489   39.8363 H   0  0  0  0  0  0  0  0  0  0  0  0
   39.5350   35.8619   39.9575 H   0  0  0  0  0  0  0  0  0  0  0  0
   36.3380   31.2548   38.5030 H   0  0  0  0  0  0  0  0  0  0  0  0
   35.4388   29.8924   39.2229 H   0  0  0  0  0  0  0  0  0  0  0  0
   41.9340   32.4401   43.6487 H   0  0  0  0  0  0  0  0  0  0  0  0
   43.8728   30.3139   44.1676 H   0  0  0  0  0  0  0  0  0  0  0  0
   43.1863   29.3235   43.1969 H   0  0  0  0  0  0  0  0  0  0  0  0
   43.8017   31.5736   41.1883 H   0  0  0  0  0  0  0  0  0  0  0  0
   46.4573   31.1109   42.5792 H   0  0  0  0  0  0  0  0  0  0  0  0
   46.9433   36.1127   43.1588 H   0  0  0  0  0  0  0  0  0  0  0  0
   42.7504   36.5627   42.6820 H   0  0  0  0  0  0  0  0  0  0  0  0
  1  6  2  0
  1  2  1  0
  2  3  2  0
  3  7  1  0
  4  3  1  0
  5  4  2  0
  6  5  1  0
  7  8  1  0
  8  9  2  0
  8 18  1  0
 10 11  1  0
 10  9  1  0
 11 12  2  0
 13 30  1  0
 13 11  1  0
 14 13  1  0
 15 14  1  0
 16 14  2  0
 16 17  1  0
 17  7  1  0
 17 10  2  0
 18 19  1  0
 20 21  1  0
 20 18  1  0
 20 19  1  0
 21 29  1  0
 21 22  1  0
 22 23  2  0
 24 23  1  0
 24 25  2  0
 26 25  1  0
 27 26  2  0
 28 29  2  0
 28 27  1  0
 29 24  1  0
 30 31  1  0
 32 30  1  0
 33 30  1  0
  1 34  1  0
  2 35  1  0
  5 36  1  0
 15 37  1  0
 15 38  1  0
 18 39  1  1
 19 40  1  0
 19 41  1  0
 20 42  1  6
 22 43  1  0
 25 44  1  0
 27 45  1  0
M  END
>  <Score>  (1) 
-7.25987

$$$$
