
     RDKit          3D

 49 54  0  0  0  0  0  0  0  0999 V2000
   39.5780   32.2590   40.9810 C   0  0  0  0  0  0  0  0  0  0  0  0
   40.6720   31.7380   41.7180 C   0  0  0  0  0  0  0  0  0  0  0  0
   40.7020   30.4590   42.2500 C   0  0  0  0  0  0  0  0  0  0  0  0
   39.6020   29.6360   42.0550 C   0  0  0  0  0  0  0  0  0  0  0  0
   38.5290   30.0950   41.3520 C   0  0  0  0  0  0  0  0  0  0  0  0
   37.4820   29.2500   41.1860 C   0  0  0  0  0  0  0  0  0  0  0  0
   36.3360   29.6670   40.4600 C   0  0  0  0  0  0  0  0  0  0  0  0
   36.3760   30.9790   39.9460 C   0  0  0  0  0  0  0  0  0  0  0  0
   37.4760   31.7620   40.1630 C   0  0  0  0  0  0  0  0  0  0  0  0
   38.5750   31.3560   40.8640 C   0  0  0  0  0  0  0  0  0  0  0  0
   39.7340   33.5960   40.5320 C   0  0  0  0  0  0  0  0  0  0  0  0
   38.8630   34.6970   40.6420 C   0  0  0  0  0  0  0  0  0  0  0  0
   39.1790   35.9650   40.1640 C   0  0  0  0  0  0  0  0  0  0  0  0
   40.3980   36.0770   39.5740 N   0  0  0  0  0  0  0  0  0  0  0  0
   41.2310   35.0630   39.4580 C   0  0  0  0  0  0  0  0  0  0  0  0
   40.9100   33.8520   39.9230 N   0  0  0  0  0  0  0  0  0  0  0  0
   37.2930   27.9030   41.6610 C   0  0  0  0  0  0  0  0  0  0  0  0
   36.7820   27.4500   42.8310 C   0  0  0  0  0  0  0  0  0  0  0  0
   36.6040   26.1410   43.1870 C   0  0  0  0  0  0  0  0  0  0  0  0
   36.9610   25.1450   42.3100 C   0  0  0  0  0  0  0  0  0  0  0  0
   37.4910   25.5840   41.1010 C   0  0  0  0  0  0  0  0  0  0  0  0
   37.6100   26.8840   40.8820 N   0  0  0  0  0  0  0  0  0  0  0  0
   37.8480   24.4570   40.2260 C   0  0  0  0  0  0  0  0  0  0  0  0
   39.1110   24.1700   39.8930 N   0  0  0  0  0  0  0  0  0  0  0  0
   39.4560   23.1540   39.1000 C   0  0  0  0  0  0  0  0  0  0  0  0
   38.5540   22.3180   38.5620 N   0  0  0  0  0  0  0  0  0  0  0  0
   37.2560   22.5390   38.8490 C   0  0  0  0  0  0  0  0  0  0  0  0
   36.3150   21.6930   38.3060 C   0  0  0  0  0  0  0  0  0  0  0  0
   34.9730   21.8640   38.5590 C   0  0  0  0  0  0  0  0  0  0  0  0
   34.6170   22.9330   39.3920 C   0  0  0  0  0  0  0  0  0  0  0  0
   35.6120   23.7370   39.8980 C   0  0  0  0  0  0  0  0  0  0  0  0
   36.9420   23.5990   39.6700 C   0  0  0  0  0  0  0  0  0  0  0  0
   41.5465   32.3862   41.8763 H   0  0  0  0  0  0  0  0  0  0  0  0
   41.5774   30.1043   42.8138 H   0  0  0  0  0  0  0  0  0  0  0  0
   39.5963   28.6160   42.4668 H   0  0  0  0  0  0  0  0  0  0  0  0
   35.4695   29.0067   40.3077 H   0  0  0  0  0  0  0  0  0  0  0  0
   35.5242   31.3721   39.3716 H   0  0  0  0  0  0  0  0  0  0  0  0
   37.4753   32.7806   39.7476 H   0  0  0  0  0  0  0  0  0  0  0  0
   37.8877   34.5477   41.1283 H   0  0  0  0  0  0  0  0  0  0  0  0
   38.4900   36.8174   40.2572 H   0  0  0  0  0  0  0  0  0  0  0  0
   42.2055   35.2155   38.9710 H   0  0  0  0  0  0  0  0  0  0  0  0
   36.4805   28.2095   43.5674 H   0  0  0  0  0  0  0  0  0  0  0  0
   36.1779   25.8874   44.1689 H   0  0  0  0  0  0  0  0  0  0  0  0
   36.8367   24.0780   42.5468 H   0  0  0  0  0  0  0  0  0  0  0  0
   40.5217   22.9951   38.8783 H   0  0  0  0  0  0  0  0  0  0  0  0
   36.6416   20.8659   37.6586 H   0  0  0  0  0  0  0  0  0  0  0  0
   34.2156   21.1931   38.1276 H   0  0  0  0  0  0  0  0  0  0  0  0
   33.5620   23.1257   39.6367 H   0  0  0  0  0  0  0  0  0  0  0  0
   35.3003   24.5684   40.5473 H   0  0  0  0  0  0  0  0  0  0  0  0
  1  2  2  0
  2  3  1  0
  4  3  2  0
  5  4  1  0
  6  5  2  0
  6 17  1  0
  7  6  1  0
  8  9  1  0
  8  7  2  0
  9 10  2  0
 10  1  1  0
 10  5  1  0
 11 12  2  0
 11  1  1  0
 13 12  1  0
 14 13  2  0
 15 14  1  0
 15 16  2  0
 16 11  1  0
 17 18  2  0
 18 19  1  0
 20 19  2  0
 21 20  1  0
 22 21  2  0
 22 17  1  0
 23 21  1  0
 24 23  2  0
 25 24  1  0
 26 27  1  0
 26 25  2  0
 27 32  2  0
 28 29  2  0
 28 27  1  0
 29 30  1  0
 30 31  2  0
 32 31  1  0
 32 23  1  0
  2 33  1  0
  3 34  1  0
  4 35  1  0
  7 36  1  0
  8 37  1  0
  9 38  1  0
 12 39  1  0
 13 40  1  0
 15 41  1  0
 18 42  1  0
 19 43  1  0
 20 44  1  0
 25 45  1  0
 28 46  1  0
 29 47  1  0
 30 48  1  0
 31 49  1  0
M  END
>  <Score>  (1) 
-7.40597

$$$$
