
     RDKit          3D

 39 42  0  0  0  0  0  0  0  0999 V2000
   37.3230   27.9730   42.9240 C   0  0  0  0  0  0  0  0  0  0  0  0
   38.2480   26.8390   42.9570 C   0  0  0  0  0  0  0  0  0  0  0  0
   39.3600   26.7990   43.8090 C   0  0  0  0  0  0  0  0  0  0  0  0
   40.2050   25.7150   43.8120 C   0  0  0  0  0  0  0  0  0  0  0  0
   39.9430   24.6560   42.9560 C   0  0  0  0  0  0  0  0  0  0  0  0
   38.8600   24.6790   42.1170 C   0  0  0  0  0  0  0  0  0  0  0  0
   38.5890   23.6240   41.2620 C   0  0  0  0  0  0  0  0  0  0  0  0
   37.5170   23.6470   40.4350 C   0  0  0  0  0  0  0  0  0  0  0  0
   36.6410   24.7220   40.4040 C   0  0  0  0  0  0  0  0  0  0  0  0
   36.9340   25.7720   41.2730 C   0  0  0  0  0  0  0  0  0  0  0  0
   38.0090   25.7860   42.1240 C   0  0  0  0  0  0  0  0  0  0  0  0
   38.8540   29.9850   42.9040 C   0  0  0  0  0  0  0  0  0  0  0  0
   37.8600   29.2070   42.3000 C   0  0  0  0  0  0  0  0  0  0  0  0
   37.3770   29.6450   41.0520 C   0  0  0  0  0  0  0  0  0  0  0  0
   37.8990   30.7690   40.5330 N   0  0  0  0  0  0  0  0  0  0  0  0
   38.8440   31.4810   41.1380 C   0  0  0  0  0  0  0  0  0  0  0  0
   39.3350   31.0940   42.3390 N   0  0  0  0  0  0  0  0  0  0  0  0
   39.3950   32.6810   40.5740 N   0  0  0  0  0  0  0  0  0  0  0  0
   39.0620   33.8170   41.2190 C   0  0  0  0  0  0  0  0  0  0  0  0
   39.5500   35.0390   40.7440 C   0  0  0  0  0  0  0  0  0  0  0  0
   40.3710   35.0160   39.6120 C   0  0  0  0  0  0  0  0  0  0  0  0
   40.8340   36.1110   39.1520 O   0  0  0  0  0  0  0  0  0  0  0  0
   40.6830   33.8440   38.9920 N   0  0  0  0  0  0  0  0  0  0  0  0
   40.1900   32.6700   39.4770 C   0  0  0  0  0  0  0  0  0  0  0  0
   40.4470   31.5500   38.9420 O   0  0  0  0  0  0  0  0  0  0  0  0
   36.4295   27.6673   42.3599 H   0  0  0  0  0  0  0  0  0  0  0  0
   37.1137   28.2274   43.9735 H   0  0  0  0  0  0  0  0  0  0  0  0
   39.5589   27.6451   44.4832 H   0  0  0  0  0  0  0  0  0  0  0  0
   41.0760   25.6879   44.4833 H   0  0  0  0  0  0  0  0  0  0  0  0
   40.6144   23.7847   42.9505 H   0  0  0  0  0  0  0  0  0  0  0  0
   39.2574   22.7504   41.2545 H   0  0  0  0  0  0  0  0  0  0  0  0
   37.3360   22.7899   39.7697 H   0  0  0  0  0  0  0  0  0  0  0  0
   35.7684   24.7446   39.7346 H   0  0  0  0  0  0  0  0  0  0  0  0
   36.2616   26.6426   41.2762 H   0  0  0  0  0  0  0  0  0  0  0  0
   39.2532   29.6710   43.8797 H   0  0  0  0  0  0  0  0  0  0  0  0
   36.5959   29.0839   40.5181 H   0  0  0  0  0  0  0  0  0  0  0  0
   38.4146   33.7835   42.1077 H   0  0  0  0  0  0  0  0  0  0  0  0
   39.2966   35.9856   41.2438 H   0  0  0  0  0  0  0  0  0  0  0  0
   41.2895   33.8452   38.1595 H   0  0  0  0  0  0  0  0  0  0  0  0
  1  2  1  0
  2  3  2  0
  3  4  1  0
  5  4  2  0
  6 11  2  0
  6  5  1  0
  7  6  1  0
  8  7  2  0
  9  8  1  0
  9 10  2  0
 10 11  1  0
 11  2  1  0
 13 12  2  0
 13  1  1  0
 14 13  1  0
 15 14  2  0
 15 16  1  0
 16 17  2  0
 17 12  1  0
 18 16  1  0
 18 19  1  0
 20 19  2  0
 21 20  1  0
 22 21  2  0
 23 24  1  0
 23 21  1  0
 24 18  1  0
 25 24  2  0
  1 26  1  0
  1 27  1  0
  3 28  1  0
  4 29  1  0
  5 30  1  0
  7 31  1  0
  8 32  1  0
  9 33  1  0
 10 34  1  0
 12 35  1  0
 14 36  1  0
 19 37  1  0
 20 38  1  0
 23 39  1  0
M  END
>  <Score>  (1) 
-7.22915

$$$$
