REMARK  Name = 
REMARK  4 active torsions:
REMARK  status: ('A' for Active; 'I' for Inactive)
REMARK    1  A    between atoms: C_1  and  C_6
REMARK    2  A    between atoms: N_5  and  C_12
REMARK    3  A    between atoms: C_14  and  C_15
REMARK    4  A    between atoms: C_14  and  C_27
REMARK                            x       y       z     vdW  Elec       q    Type
REMARK                         _______ _______ _______ _____ _____    ______ ____
ROOT
ATOM      1  C   UNL     1      37.871  23.699  33.502  0.00  0.00    +0.000 A 
ATOM      2  C   UNL     1      37.467  22.660  32.666  0.00  0.00    +0.000 A 
ATOM      3  N   UNL     1      37.481  21.566  33.484  0.00  0.00    +0.000 NA
ATOM      4  C   UNL     1      37.866  21.966  34.694  0.00  0.00    +0.000 A 
ATOM      5  N   UNL     1      38.111  23.271  34.730  0.00  0.00    +0.000 N 
ATOM      6  H   UNL     1      37.217  22.789  31.606  0.00  0.00    +0.000 HD
ATOM      7  H   UNL     1      37.949  21.246  35.517  0.00  0.00    +0.000 HD
ENDROOT
BRANCH   1   8
ATOM      8  C   UNL     1      38.020  25.084  33.079  0.00  0.00    +0.000 A 
ATOM      9  C   UNL     1      39.303  25.584  32.774  0.00  0.00    +0.000 A 
ATOM     10  C   UNL     1      39.389  26.935  32.360  0.00  0.00    +0.000 A 
ATOM     11  N   UNL     1      38.236  27.651  32.285  0.00  0.00    +0.000 NA
ATOM     12  C   UNL     1      37.026  27.125  32.588  0.00  0.00    +0.000 A 
ATOM     13  N   UNL     1      36.912  25.848  32.984  0.00  0.00    +0.000 NA
ATOM     14  H   UNL     1      40.133  24.912  32.875  0.00  0.00    +0.000 HD
ATOM     15  H   UNL     1      40.362  27.310  32.130  0.00  0.00    +0.000 HD
ATOM     16  H   UNL     1      36.229  27.832  32.473  0.00  0.00    +0.000 HD
ENDBRANCH   1   8
BRANCH   5  17
ATOM     17  C   UNL     1      38.533  23.947  35.900  0.00  0.00    +0.000 C 
ATOM     18  C   UNL     1      38.077  25.231  36.363  0.00  0.00    +0.000 C 
ATOM     19  C   UNL     1      37.563  23.925  37.030  0.00  0.00    +0.000 C 
ATOM     20  H   UNL     1      39.619  23.704  36.147  0.00  0.00    +0.000 HD
ATOM     21  H   UNL     1      38.688  25.872  37.014  0.00  0.00    +0.000 HD
ATOM     22  H   UNL     1      37.324  25.787  35.798  0.00  0.00    +0.000 HD
BRANCH  19  23
ATOM     23  C   UNL     1      38.122  23.762  38.426  0.00  0.00    +0.000 C 
ATOM     24  F   UNL     1      37.515  22.702  39.066  0.00  0.00    +0.000 F 
ATOM     25  F   UNL     1      39.513  23.344  38.305  0.00  0.00    +0.000 F 
ATOM     26  F   UNL     1      38.141  24.898  39.142  0.00  0.00    +0.000 F 
ENDBRANCH  19  23
BRANCH  19  27
ATOM     27  C   UNL     1      36.049  23.983  36.980  0.00  0.00    +0.000 C 
ATOM     28  H   UNL     1      35.725  24.633  37.818  0.00  0.00    +0.000 HD
ENDBRANCH  19  27
ENDBRANCH   5  17
TORSDOF 4
