
 OpenBabel03262515373D

 39 42  0  0  0  0  0  0  0  0999 V2000
   41.2500   23.6910   35.2990 C   0  0  0  0  0  0  0  0  0  0  0  0
   40.1920   22.8820   35.6880 C   0  0  0  0  0  0  0  0  0  0  0  0
   38.9140   23.4690   35.8750 C   0  0  0  0  0  0  0  0  0  0  0  0
   38.7970   24.8080   35.6580 N   0  0  0  0  0  0  0  0  0  0  0  0
   39.8540   25.5620   35.2800 C   0  0  0  0  0  0  0  0  0  0  0  0
   41.0580   25.0100   35.1030 N   0  0  0  0  0  0  0  0  0  0  0  0
   42.2480   23.2930   35.1430 H   0  0  0  0  0  0  0  0  0  0  0  0
   40.3450   21.8180   35.8470 H   0  0  0  0  0  0  0  0  0  0  0  0
   39.5520   27.0150   35.0850 C   0  0  0  0  0  0  0  0  0  0  0  0
   40.3370   27.6110   35.6000 H   0  0  0  0  0  0  0  0  0  0  0  0
   39.5960   27.2140   33.9790 H   0  0  0  0  0  0  0  0  0  0  0  0
   38.1590   27.3160   35.5490 C   0  0  0  0  0  0  0  0  0  0  0  0
   38.2330   28.2670   36.1400 H   0  0  0  0  0  0  0  0  0  0  0  0
   37.7180   26.5810   36.2240 H   0  0  0  0  0  0  0  0  0  0  0  0
   37.2610   27.6490   34.4010 C   0  0  0  0  0  0  0  0  0  0  0  0
   37.3200   27.0530   33.1980 N   0  0  0  0  0  0  0  0  0  0  0  0
   36.4120   27.5620   32.4180 O   0  0  0  0  0  0  0  0  0  0  0  0
   35.7420   28.4810   33.0530 C   0  0  0  0  0  0  0  0  0  0  0  0
   36.2620   28.5440   34.2890 N   0  0  0  0  0  0  0  0  0  0  0  0
   34.6390   29.3450   32.6510 C   0  0  0  0  0  0  0  0  0  0  0  0
   34.5860   30.4320   31.8040 C   0  0  0  0  0  0  0  0  0  0  0  0
   33.2640   30.8850   31.7810 C   0  0  0  0  0  0  0  0  0  0  0  0
   32.5950   30.0250   32.6320 C   0  0  0  0  0  0  0  0  0  0  0  0
   33.4120   29.1410   33.1230 O   0  0  0  0  0  0  0  0  0  0  0  0
   35.4640   30.8130   31.2800 H   0  0  0  0  0  0  0  0  0  0  0  0
   32.9240   31.7300   31.2000 H   0  0  0  0  0  0  0  0  0  0  0  0
   31.5210   30.1130   32.8350 H   0  0  0  0  0  0  0  0  0  0  0  0
   37.8070   22.6050   36.2850 C   0  0  0  0  0  0  0  0  0  0  0  0
   38.2300   21.8130   36.9540 H   0  0  0  0  0  0  0  0  0  0  0  0
   37.0810   23.2010   36.8930 H   0  0  0  0  0  0  0  0  0  0  0  0
   37.1030   21.9460   35.2250 N   0  0  0  0  0  0  0  0  0  0  0  0
   36.2410   20.9150   35.4310 C   0  0  0  0  0  0  0  0  0  0  0  0
   35.5640   20.2860   34.3930 C   0  0  0  0  0  0  0  0  0  0  0  0
   35.8190   20.7730   33.1080 C   0  0  0  0  0  0  0  0  0  0  0  0
   35.2700   20.2920   32.0730 O   0  0  0  0  0  0  0  0  0  0  0  0
   36.6550   21.7790   32.8750 N   0  0  0  0  0  0  0  0  0  0  0  0
   37.2710   22.3330   33.9470 C   0  0  0  0  0  0  0  0  0  0  0  0
   38.0760   23.3010   33.7240 O   0  0  0  0  0  0  0  0  0  0  0  0
   36.8590   22.1590   31.9120 H   0  0  0  0  0  0  0  0  0  0  0  0
  1  2  1  0  0  0  0
  2  8  1  0  0  0  0
  2  3  2  0  0  0  0
  3 28  1  0  0  0  0
  4  3  1  0  0  0  0
  5  4  2  0  0  0  0
  6  5  1  0  0  0  0
  6  1  2  0  0  0  0
  7  1  1  0  0  0  0
  9  5  1  0  0  0  0
  9 12  1  0  0  0  0
  9 10  1  0  0  0  0
 11  9  1  0  0  0  0
 12 13  1  0  0  0  0
 12 14  1  0  0  0  0
 15 12  1  0  0  0  0
 16 15  2  0  0  0  0
 17 18  1  0  0  0  0
 17 16  1  0  0  0  0
 18 19  2  0  0  0  0
 19 15  1  0  0  0  0
 20 18  1  0  0  0  0
 20 24  1  0  0  0  0
 21 20  2  0  0  0  0
 22 21  1  0  0  0  0
 22 23  2  0  0  0  0
 23 27  1  0  0  0  0
 23 24  1  0  0  0  0
 25 21  1  0  0  0  0
 26 22  1  0  0  0  0
 28 30  1  0  0  0  0
 28 29  1  0  0  0  0
 31 32  1  0  0  0  0
 31 28  1  0  0  0  0
 33 32  2  0  0  0  0
 34 33  1  0  0  0  0
 35 34  2  0  0  0  0
 36 34  1  0  0  0  0
 36 37  1  0  0  0  0
 37 31  1  0  0  0  0
 38 37  2  0  0  0  0
 39 36  1  0  0  0  0
M  END
>  <minimizedAffinity>
-5.23430061

>  <minimizedRMSD>
2.30593681

$$$$
