
 OpenBabel03262519023D

 37 40  0  0  0  0  0  0  0  0999 V2000
   37.7040   27.1880   35.0420 C   0  0  0  0  0  0  0  0  0  0  0  0
   38.0200   28.2630   35.2470 H   0  0  0  0  0  0  0  0  0  0  0  0
   37.0020   26.9820   35.8550 H   0  0  0  0  0  0  0  0  0  0  0  0
   38.9490   26.4410   35.0170 C   0  0  0  0  0  0  0  0  0  0  0  0
   40.0710   26.9650   34.3780 C   0  0  0  0  0  0  0  0  0  0  0  0
   41.2580   26.2790   34.3530 C   0  0  0  0  0  0  0  0  0  0  0  0
   41.3760   25.0290   34.9710 C   0  0  0  0  0  0  0  0  0  0  0  0
   40.2530   24.5030   35.6110 C   0  0  0  0  0  0  0  0  0  0  0  0
   40.3600   23.2720   36.2230 C   0  0  0  0  0  0  0  0  0  0  0  0
   39.2860   22.7120   36.8670 C   0  0  0  0  0  0  0  0  0  0  0  0
   38.0740   23.4090   36.8920 C   0  0  0  0  0  0  0  0  0  0  0  0
   38.0090   24.6500   36.2610 C   0  0  0  0  0  0  0  0  0  0  0  0
   39.0730   25.2330   35.6100 C   0  0  0  0  0  0  0  0  0  0  0  0
   40.0700   27.9160   33.8800 H   0  0  0  0  0  0  0  0  0  0  0  0
   42.1770   26.6160   33.8780 H   0  0  0  0  0  0  0  0  0  0  0  0
   42.2870   24.4470   34.9810 H   0  0  0  0  0  0  0  0  0  0  0  0
   41.2710   22.6870   36.2350 H   0  0  0  0  0  0  0  0  0  0  0  0
   39.3400   21.7410   37.3600 H   0  0  0  0  0  0  0  0  0  0  0  0
   37.2360   22.9590   37.4010 H   0  0  0  0  0  0  0  0  0  0  0  0
   37.0320   25.1080   36.3350 H   0  0  0  0  0  0  0  0  0  0  0  0
   36.3260   28.7180   32.0050 C   0  0  0  0  0  0  0  0  0  0  0  0
   35.8730   27.6570   31.2520 C   0  0  0  0  0  0  0  0  0  0  0  0
   36.0350   26.3630   31.7920 C   0  0  0  0  0  0  0  0  0  0  0  0
   36.6260   26.2290   33.0190 N   0  0  0  0  0  0  0  0  0  0  0  0
   37.0410   27.2870   33.6940 C   0  0  0  0  0  0  0  0  0  0  0  0
   36.8960   28.5340   33.1970 N   0  0  0  0  0  0  0  0  0  0  0  0
   36.1850   29.6960   31.5570 H   0  0  0  0  0  0  0  0  0  0  0  0
   35.4010   27.7530   30.2740 H   0  0  0  0  0  0  0  0  0  0  0  0
   35.5800   25.1980   31.0540 C   0  0  0  0  0  0  0  0  0  0  0  0
   34.4730   25.2470   30.4560 O   0  0  0  0  0  0  0  0  0  0  0  0
   39.0070   22.4550   30.2220 H   0  0  0  0  0  0  0  0  0  0  0  0
   38.0570   22.6580   30.5900 N   0  0  0  0  0  0  0  0  0  0  0  0
   37.6230   23.8890   30.4770 N   0  0  0  0  0  0  0  0  0  0  0  0
   36.3900   23.9800   30.9980 C   0  0  0  0  0  0  0  0  0  0  0  0
   35.9980   22.7470   31.4760 C   0  0  0  0  0  0  0  0  0  0  0  0
   37.0740   21.9400   31.2010 C   0  0  0  0  0  0  0  0  0  0  0  0
   37.2390   20.8910   31.3880 H   0  0  0  0  0  0  0  0  0  0  0  0
  1  2  1  0  0  0  0
  1  3  1  0  0  0  0
  4  1  1  0  0  0  0
  4 13  1  0  0  0  0
  5  4  2  0  0  0  0
  6  5  1  0  0  0  0
  6  7  2  0  0  0  0
  7 16  1  0  0  0  0
  7  8  1  0  0  0  0
  8  9  1  0  0  0  0
  9 17  1  0  0  0  0
  9 10  2  0  0  0  0
 10 11  1  0  0  0  0
 10 18  1  0  0  0  0
 11 19  1  0  0  0  0
 12 20  1  0  0  0  0
 12 11  2  0  0  0  0
 13  8  2  0  0  0  0
 13 12  1  0  0  0  0
 14  5  1  0  0  0  0
 15  6  1  0  0  0  0
 21 26  1  0  0  0  0
 22 23  1  0  0  0  0
 22 21  2  0  0  0  0
 23 24  2  0  0  0  0
 24 25  1  0  0  0  0
 25  1  1  0  0  0  0
 26 25  2  0  0  0  0
 27 21  1  0  0  0  0
 28 22  1  0  0  0  0
 29 23  1  0  0  0  0
 30 29  2  0  0  0  0
 31 32  1  0  0  0  0
 32 36  1  0  0  0  0
 33 32  1  0  0  0  0
 33 34  2  0  0  0  0
 34 29  1  0  0  0  0
 34 35  1  0  0  0  0
 36 37  1  0  0  0  0
 36 35  2  0  0  0  0
M  END
>  <minimizedAffinity>
-5.91132689

>  <minimizedRMSD>
1.8684876

$$$$
