
 OpenBabel03262516453D

 35 39  0  0  0  0  0  0  0  0999 V2000
   37.7110   22.9550   33.6120 C   0  0  0  0  0  0  0  0  0  0  0  0
   37.4270   24.1580   32.9420 C   0  0  0  0  0  0  0  0  0  0  0  0
   38.2320   25.2460   33.2240 C   0  0  0  0  0  0  0  0  0  0  0  0
   39.2460   25.0880   34.1270 N   0  0  0  0  0  0  0  0  0  0  0  0
   39.4870   23.9290   34.7460 C   0  0  0  0  0  0  0  0  0  0  0  0
   38.7260   22.8660   34.4920 N   0  0  0  0  0  0  0  0  0  0  0  0
   36.5960   24.1520   32.2490 H   0  0  0  0  0  0  0  0  0  0  0  0
   40.3080   23.8860   35.4470 H   0  0  0  0  0  0  0  0  0  0  0  0
   36.9580   21.7710   33.4090 N   0  0  0  0  0  0  0  0  0  0  0  0
   36.1930   21.2360   34.4040 C   0  0  0  0  0  0  0  0  0  0  0  0
   35.5670   20.1140   33.9890 N   0  0  0  0  0  0  0  0  0  0  0  0
   35.9200   19.9030   32.7120 C   0  0  0  0  0  0  0  0  0  0  0  0
   35.6330   18.9470   31.7340 C   0  0  0  0  0  0  0  0  0  0  0  0
   36.1920   19.0530   30.5040 N   0  0  0  0  0  0  0  0  0  0  0  0
   37.0160   20.0790   30.2410 C   0  0  0  0  0  0  0  0  0  0  0  0
   37.3210   21.0270   31.1590 N   0  0  0  0  0  0  0  0  0  0  0  0
   36.7750   20.9350   32.3820 C   0  0  0  0  0  0  0  0  0  0  0  0
   34.7480   17.9360   32.1790 N   0  0  0  0  0  0  0  0  0  0  0  0
   36.0260   21.5690   35.4210 H   0  0  0  0  0  0  0  0  0  0  0  0
   37.3990   20.0570   29.2260 H   0  0  0  0  0  0  0  0  0  0  0  0
   34.9240   17.3660   33.0100 H   0  0  0  0  0  0  0  0  0  0  0  0
   33.8460   17.6610   31.7270 H   0  0  0  0  0  0  0  0  0  0  0  0
   37.9400   26.5070   32.5270 C   0  0  0  0  0  0  0  0  0  0  0  0
   36.9550   27.3960   32.9620 C   0  0  0  0  0  0  0  0  0  0  0  0
   36.9910   28.4270   32.0680 N   0  0  0  0  0  0  0  0  0  0  0  0
   37.9490   28.1370   31.1690 C   0  0  0  0  0  0  0  0  0  0  0  0
   38.5310   26.9930   31.4240 N   0  0  0  0  0  0  0  0  0  0  0  0
   36.3140   27.2750   33.8210 H   0  0  0  0  0  0  0  0  0  0  0  0
   38.2070   28.7850   30.3290 H   0  0  0  0  0  0  0  0  0  0  0  0
   39.5960   26.3060   30.7280 C   0  0  0  0  0  0  0  0  0  0  0  0
   41.0590   26.4130   31.0390 C   0  0  0  0  0  0  0  0  0  0  0  0
   41.7450   25.3360   29.8230 S   0  0  0  0  0  0  0  0  0  0  0  0
   40.0520   24.8840   29.0680 C   0  0  0  0  0  0  0  0  0  0  0  0
   39.9350   24.1980   28.2250 H   0  0  0  0  0  0  0  0  0  0  0  0
   39.1980   25.5270   29.7380 N   0  0  0  0  0  0  0  0  0  0  0  0
  1  6  1  0  0  0  0
  2  3  1  0  0  0  0
  2  1  2  0  0  0  0
  3  4  2  0  0  0  0
  4  5  1  0  0  0  0
  5  8  1  0  0  0  0
  6  5  2  0  0  0  0
  7  2  1  0  0  0  0
  9  1  1  0  0  0  0
  9 10  1  0  0  0  0
 10 19  1  0  0  0  0
 11 10  2  0  0  0  0
 12 11  1  0  0  0  0
 13 18  1  0  0  0  0
 13 12  2  0  0  0  0
 14 13  1  0  0  0  0
 15 14  2  0  0  0  0
 15 16  1  0  0  0  0
 16 17  2  0  0  0  0
 17 12  1  0  0  0  0
 17  9  1  0  0  0  0
 18 21  1  0  0  0  0
 20 15  1  0  0  0  0
 22 18  1  0  0  0  0
 23 24  2  0  0  0  0
 23  3  1  0  0  0  0
 24 28  1  0  0  0  0
 25 24  1  0  0  0  0
 26 27  1  0  0  0  0
 26 25  2  0  0  0  0
 27 23  1  0  0  0  0
 29 26  1  0  0  0  0
 30 31  2  0  0  0  0
 30 27  1  0  0  0  0
 32 31  1  0  0  0  0
 33 35  2  0  0  0  0
 33 32  1  0  0  0  0
 34 33  1  0  0  0  0
 35 30  1  0  0  0  0
M  END
>  <minimizedAffinity>
-4.94078255

>  <minimizedRMSD>
1.57396924

$$$$
