
 OpenBabel03262519063D

 28 30  0  0  1  0  0  0  0  0999 V2000
   38.0850   23.4530   34.6430 C   0  0  2  0  0  0  0  0  0  0  0  0
   39.2490   23.6670   33.7170 C   0  0  0  0  0  0  0  0  0  0  0  0
   38.1920   24.7290   33.8940 C   0  0  2  0  0  0  0  0  0  0  0  0
   37.2610   22.7610   34.3480 H   0  0  0  0  0  0  0  0  0  0  0  0
   40.2610   23.8070   34.1310 H   0  0  0  0  0  0  0  0  0  0  0  0
   39.2460   23.0760   32.7730 H   0  0  0  0  0  0  0  0  0  0  0  0
   37.5100   24.8410   33.0300 H   0  0  0  0  0  0  0  0  0  0  0  0
   39.8470   22.8040   37.8000 C   0  0  0  0  0  0  0  0  0  0  0  0
   38.9730   23.3370   38.7920 C   0  0  0  0  0  0  0  0  0  0  0  0
   37.7640   23.9160   38.3060 C   0  0  0  0  0  0  0  0  0  0  0  0
   37.5190   23.9290   36.9880 N   0  0  0  0  0  0  0  0  0  0  0  0
   38.4000   23.3990   36.0690 C   0  0  0  0  0  0  0  0  0  0  0  0
   39.5590   22.8380   36.4830 N   0  0  0  0  0  0  0  0  0  0  0  0
   40.7380   22.3830   38.2410 H   0  0  0  0  0  0  0  0  0  0  0  0
   39.1960   23.3130   39.8280 H   0  0  0  0  0  0  0  0  0  0  0  0
   37.0510   24.3430   39.0010 H   0  0  0  0  0  0  0  0  0  0  0  0
   38.7170   25.9920   34.4450 C   0  0  0  0  0  0  0  0  0  0  0  0
   38.7650   25.8500   35.5710 H   0  0  0  0  0  0  0  0  0  0  0  0
   37.9830   26.8340   34.3100 H   0  0  0  0  0  0  0  0  0  0  0  0
   40.0040   26.4350   34.0090 N   0  0  0  0  0  0  0  0  0  0  0  0
   41.2500   26.3690   34.5080 C   0  0  0  0  0  0  0  0  0  0  0  0
   42.3650   26.8890   33.9100 C   0  0  0  0  0  0  0  0  0  0  0  0
   42.2490   27.5380   32.7050 C   0  0  0  0  0  0  0  0  0  0  0  0
   43.3290   27.9790   32.2390 O   0  0  0  0  0  0  0  0  0  0  0  0
   41.0230   27.6200   32.1830 N   0  0  0  0  0  0  0  0  0  0  0  0
   39.9540   27.0930   32.8070 C   0  0  0  0  0  0  0  0  0  0  0  0
   38.8700   27.2720   32.1530 O   0  0  0  0  0  0  0  0  0  0  0  0
   40.9660   28.1190   31.2670 H   0  0  0  0  0  0  0  0  0  0  0  0
  1  4  1  6  0  0  0
  1 12  1  0  0  0  0
  2  3  1  0  0  0  0
  2  5  1  0  0  0  0
  2  1  1  0  0  0  0
  3  7  1  6  0  0  0
  3 17  1  0  0  0  0
  3  1  1  0  0  0  0
  6  2  1  0  0  0  0
  8 14  1  0  0  0  0
  8  9  1  0  0  0  0
  9 15  1  0  0  0  0
 10  9  2  0  0  0  0
 10 16  1  0  0  0  0
 11 10  1  0  0  0  0
 12 13  1  0  0  0  0
 12 11  2  0  0  0  0
 13  8  2  0  0  0  0
 17 18  1  0  0  0  0
 19 17  1  0  0  0  0
 20 17  1  0  0  0  0
 20 21  1  0  0  0  0
 22 21  2  0  0  0  0
 23 22  1  0  0  0  0
 24 23  2  0  0  0  0
 25 23  1  0  0  0  0
 25 26  1  0  0  0  0
 26 20  1  0  0  0  0
 27 26  2  0  0  0  0
 28 25  1  0  0  0  0
M  END
>  <minimizedAffinity>
-3.98858118

>  <minimizedRMSD>
2.3234694

$$$$
