
 OpenBabel03262517393D

 31 33  0  0  0  0  0  0  0  0999 V2000
   39.2310   23.1370   36.8370 C   0  0  0  0  0  0  0  0  0  0  0  0
   39.4950   24.0270   35.7990 C   0  0  0  0  0  0  0  0  0  0  0  0
   40.7850   24.0890   35.3060 C   0  0  0  0  0  0  0  0  0  0  0  0
   41.7230   23.2910   35.8450 N   0  0  0  0  0  0  0  0  0  0  0  0
   41.4370   22.4420   36.8450 C   0  0  0  0  0  0  0  0  0  0  0  0
   40.2080   22.3560   37.3440 N   0  0  0  0  0  0  0  0  0  0  0  0
   41.2530   24.9240   34.2590 N   0  0  0  0  0  0  0  0  0  0  0  0
   41.7670   26.2610   34.3960 C   0  0  0  0  0  0  0  0  0  0  0  0
   40.9110   27.2340   33.6290 C   0  0  0  0  0  0  0  0  0  0  0  0
   40.0580   26.5420   32.7570 O   0  0  0  0  0  0  0  0  0  0  0  0
   40.8020   25.6700   31.9680 C   0  0  0  0  0  0  0  0  0  0  0  0
   41.2770   24.5260   32.8490 C   0  0  0  0  0  0  0  0  0  0  0  0
   38.7790   24.6880   35.3310 H   0  0  0  0  0  0  0  0  0  0  0  0
   42.2050   21.7990   37.2770 H   0  0  0  0  0  0  0  0  0  0  0  0
   42.7840   26.2940   33.9380 H   0  0  0  0  0  0  0  0  0  0  0  0
   41.8100   26.5040   35.4900 H   0  0  0  0  0  0  0  0  0  0  0  0
   41.4770   28.0320   33.1210 H   0  0  0  0  0  0  0  0  0  0  0  0
   40.2360   27.7310   34.3830 H   0  0  0  0  0  0  0  0  0  0  0  0
   41.6190   26.1470   31.4200 H   0  0  0  0  0  0  0  0  0  0  0  0
   40.0910   25.2200   31.2390 H   0  0  0  0  0  0  0  0  0  0  0  0
   42.3390   24.2990   32.6220 H   0  0  0  0  0  0  0  0  0  0  0  0
   40.6030   23.6430   32.7730 H   0  0  0  0  0  0  0  0  0  0  0  0
   37.8600   23.1360   37.2920 C   0  0  0  0  0  0  0  0  0  0  0  0
   37.4040   23.9020   38.1830 O   0  0  0  0  0  0  0  0  0  0  0  0
   34.3630   20.2300   36.5190 H   0  0  0  0  0  0  0  0  0  0  0  0
   35.2170   20.8250   36.4540 N   0  0  0  0  0  0  0  0  0  0  0  0
   35.8550   21.6550   37.2600 N   0  0  0  0  0  0  0  0  0  0  0  0
   36.9320   22.1790   36.6760 C   0  0  0  0  0  0  0  0  0  0  0  0
   36.9780   21.6420   35.4130 C   0  0  0  0  0  0  0  0  0  0  0  0
   35.8890   20.7860   35.2810 C   0  0  0  0  0  0  0  0  0  0  0  0
   35.7990   20.2810   34.3110 H   0  0  0  0  0  0  0  0  0  0  0  0
  1 23  1  0  0  0  0
  1  6  1  0  0  0  0
  2  1  2  0  0  0  0
  3  2  1  0  0  0  0
  3  4  2  0  0  0  0
  4  5  1  0  0  0  0
  5 14  1  0  0  0  0
  5  6  2  0  0  0  0
  7  8  1  0  0  0  0
  7  3  1  0  0  0  0
  8 16  1  0  0  0  0
  9 18  1  0  0  0  0
  9  8  1  0  0  0  0
 10  9  1  0  0  0  0
 11 10  1  0  0  0  0
 11 12  1  0  0  0  0
 12  7  1  0  0  0  0
 13  2  1  0  0  0  0
 15  8  1  0  0  0  0
 17  9  1  0  0  0  0
 19 11  1  0  0  0  0
 20 11  1  0  0  0  0
 21 12  1  0  0  0  0
 22 12  1  0  0  0  0
 23 24  2  0  0  0  0
 26 25  1  0  0  0  0
 26 27  1  0  0  0  0
 28 27  2  0  0  0  0
 28 23  1  0  0  0  0
 29 28  1  0  0  0  0
 30 29  2  0  0  0  0
 30 26  1  0  0  0  0
 31 30  1  0  0  0  0
M  END
>  <minimizedAffinity>
-4.33263874

>  <minimizedRMSD>
3.02875209

$$$$
