
 OpenBabel03262519593D

 28 30  0  0  1  0  0  0  0  0999 V2000
   39.7020   24.9800   33.7910 C   0  0  0  0  0  0  0  0  0  0  0  0
   40.8220   24.5540   33.0800 C   0  0  0  0  0  0  0  0  0  0  0  0
   41.6440   24.0520   34.0490 N   0  0  0  0  0  0  0  0  0  0  0  0
   41.0260   24.1890   35.2200 C   0  0  0  0  0  0  0  0  0  0  0  0
   39.8320   24.7560   35.0870 N   0  0  0  0  0  0  0  0  0  0  0  0
   40.9270   24.6430   31.9920 H   0  0  0  0  0  0  0  0  0  0  0  0
   41.5080   23.8500   36.1450 H   0  0  0  0  0  0  0  0  0  0  0  0
   38.5330   25.6040   33.1860 C   0  0  0  0  0  0  0  0  0  0  0  0
   38.4290   27.0100   33.1630 C   0  0  0  0  0  0  0  0  0  0  0  0
   37.2760   27.5630   32.5560 C   0  0  0  0  0  0  0  0  0  0  0  0
   36.3560   26.7060   32.0400 N   0  0  0  0  0  0  0  0  0  0  0  0
   36.5020   25.3610   32.0870 C   0  0  0  0  0  0  0  0  0  0  0  0
   37.5830   24.8060   32.6560 N   0  0  0  0  0  0  0  0  0  0  0  0
   39.2270   27.5730   33.6060 H   0  0  0  0  0  0  0  0  0  0  0  0
   37.2010   28.6290   32.5400 H   0  0  0  0  0  0  0  0  0  0  0  0
   35.6810   24.8420   31.6330 H   0  0  0  0  0  0  0  0  0  0  0  0
   38.9720   25.0120   36.1820 C   0  0  1  0  0  0  0  0  0  0  0  0
   37.5350   24.9290   36.1830 C   0  0  0  0  0  0  0  0  0  0  0  0
   38.3890   23.8020   36.8270 C   0  0  2  0  0  0  0  0  0  0  0  0
   39.4090   25.8060   36.8730 H   0  0  0  0  0  0  0  0  0  0  0  0
   36.9140   25.4980   36.8890 H   0  0  0  0  0  0  0  0  0  0  0  0
   36.9970   24.6390   35.2760 H   0  0  0  0  0  0  0  0  0  0  0  0
   38.2640   23.8080   38.3340 C   0  0  0  0  0  0  0  0  0  0  0  0
   37.3530   22.8570   38.7440 F   0  0  0  0  0  0  0  0  0  0  0  0
   39.5270   23.3410   38.8900 F   0  0  0  0  0  0  0  0  0  0  0  0
   38.0590   25.0270   38.8600 F   0  0  0  0  0  0  0  0  0  0  0  0
   37.9470   22.5040   36.1810 C   0  0  0  0  0  2  0  0  0  0  0  0
   36.8570   22.5930   35.9970 H   0  0  0  0  0  0  0  0  0  0  0  0
  1  5  1  0  0  0  0
  2  1  2  0  0  0  0
  2  3  1  0  0  0  0
  3  4  2  0  0  0  0
  4  7  1  0  0  0  0
  5  4  1  0  0  0  0
  5 17  1  0  0  0  0
  6  2  1  0  0  0  0
  8  1  1  0  0  0  0
  9  8  1  0  0  0  0
  9 14  1  0  0  0  0
 10  9  2  0  0  0  0
 11 12  2  0  0  0  0
 11 10  1  0  0  0  0
 12 13  1  0  0  0  0
 13  8  2  0  0  0  0
 15 10  1  0  0  0  0
 16 12  1  0  0  0  0
 17 18  1  0  0  0  0
 17 19  1  0  0  0  0
 17 20  1  1  0  0  0
 18 19  1  0  0  0  0
 18 21  1  0  0  0  0
 19 27  1  6  0  0  0
 19 23  1  0  0  0  0
 22 18  1  0  0  0  0
 23 24  1  0  0  0  0
 23 26  1  0  0  0  0
 23 25  1  0  0  0  0
 28 27  1  0  0  0  0
M  END
>  <minimizedAffinity>
-4.76991129

>  <minimizedRMSD>
2.20292592

$$$$
