
 OpenBabel03262511343D

 27 28  0  0  0  0  0  0  0  0999 V2000
   38.3780   23.2080   35.5780 C   0  0  0  0  0  0  0  0  0  0  0  0
   38.3630   26.9600   36.1340 C   0  0  0  0  0  0  0  0  0  0  0  0
   37.9470   25.6130   36.2270 C   0  0  0  0  0  0  0  0  0  0  0  0
   38.7270   24.6570   35.5410 C   0  0  0  0  0  0  0  0  0  0  0  0
   39.8310   25.0960   34.8350 N   0  0  0  0  0  0  0  0  0  0  0  0
   40.1800   26.3850   34.7800 C   0  0  0  0  0  0  0  0  0  0  0  0
   39.4550   27.3260   35.4250 N   0  0  0  0  0  0  0  0  0  0  0  0
   37.7830   27.7120   36.6490 H   0  0  0  0  0  0  0  0  0  0  0  0
   37.0950   25.2920   36.7730 H   0  0  0  0  0  0  0  0  0  0  0  0
   41.0670   26.5710   34.1890 H   0  0  0  0  0  0  0  0  0  0  0  0
   39.5720   22.5150   36.0720 N   0  0  0  0  0  0  0  0  0  0  0  0
   40.4880   21.9530   35.2780 C   0  0  0  0  0  0  0  0  0  0  0  0
   41.6080   21.3050   35.7710 C   0  0  0  0  0  0  0  0  0  0  0  0
   41.8110   21.2220   37.1440 C   0  0  0  0  0  0  0  0  0  0  0  0
   42.8180   20.6400   37.6180 O   0  0  0  0  0  0  0  0  0  0  0  0
   40.8660   21.8000   37.9130 N   0  0  0  0  0  0  0  0  0  0  0  0
   39.7870   22.4220   37.4110 C   0  0  0  0  0  0  0  0  0  0  0  0
   38.9950   22.9120   38.2570 O   0  0  0  0  0  0  0  0  0  0  0  0
   41.0270   21.7320   38.9360 H   0  0  0  0  0  0  0  0  0  0  0  0
   37.2550   22.9470   36.5650 C   0  0  0  0  0  0  0  0  0  0  0  0
   36.3580   23.5560   36.3350 H   0  0  0  0  0  0  0  0  0  0  0  0
   37.5620   22.9930   37.6150 H   0  0  0  0  0  0  0  0  0  0  0  0
   36.9270   21.8910   36.3750 H   0  0  0  0  0  0  0  0  0  0  0  0
   38.0310   22.6440   34.2410 C   0  0  0  0  0  0  0  0  0  0  0  0
   37.3160   23.3020   33.6710 H   0  0  0  0  0  0  0  0  0  0  0  0
   38.9650   22.6650   33.6120 H   0  0  0  0  0  0  0  0  0  0  0  0
   37.6250   21.6340   34.3900 H   0  0  0  0  0  0  0  0  0  0  0  0
  1 11  1  0  0  0  0
  1 20  1  0  0  0  0
  2  3  1  0  0  0  0
  2  8  1  0  0  0  0
  3  9  1  0  0  0  0
  4  1  1  0  0  0  0
  4  3  2  0  0  0  0
  5  4  1  0  0  0  0
  6  5  2  0  0  0  0
  6  7  1  0  0  0  0
  7  2  2  0  0  0  0
 10  6  1  0  0  0  0
 11 17  1  0  0  0  0
 12 13  2  0  0  0  0
 12 11  1  0  0  0  0
 13 14  1  0  0  0  0
 14 15  2  0  0  0  0
 14 16  1  0  0  0  0
 16 19  1  0  0  0  0
 17 16  1  0  0  0  0
 17 18  2  0  0  0  0
 20 22  1  0  0  0  0
 21 20  1  0  0  0  0
 23 20  1  0  0  0  0
 24 27  1  0  0  0  0
 24  1  1  0  0  0  0
 25 24  1  0  0  0  0
 26 24  1  0  0  0  0
M  END
>  <minimizedAffinity>
-4.41984749

>  <minimizedRMSD>
4.90540266

$$$$
