
 OpenBabel03262518563D

 21 22  0  0  0  0  0  0  0  0999 V2000
   38.5870   23.8730   33.3940 C   0  0  0  0  0  0  0  0  0  0  0  0
   39.6860   23.7080   33.2210 H   0  0  0  0  0  0  0  0  0  0  0  0
   38.0370   23.1150   32.8390 H   0  0  0  0  0  0  0  0  0  0  0  0
   38.9060   27.3060   32.1230 C   0  0  0  0  0  0  0  0  0  0  0  0
   37.5770   27.7670   32.0260 C   0  0  0  0  0  0  0  0  0  0  0  0
   36.5660   26.8560   32.4120 C   0  0  0  0  0  0  0  0  0  0  0  0
   36.9210   25.6080   32.8490 N   0  0  0  0  0  0  0  0  0  0  0  0
   38.2150   25.2300   32.9180 C   0  0  0  0  0  0  0  0  0  0  0  0
   39.1940   26.0630   32.5620 N   0  0  0  0  0  0  0  0  0  0  0  0
   39.7330   27.9590   31.8410 H   0  0  0  0  0  0  0  0  0  0  0  0
   37.3520   28.7640   31.6730 H   0  0  0  0  0  0  0  0  0  0  0  0
   35.5320   27.1630   32.3550 H   0  0  0  0  0  0  0  0  0  0  0  0
   38.3510   23.8060   34.8310 N   0  0  0  0  0  0  0  0  0  0  0  0
   38.5620   24.7670   35.7210 C   0  0  0  0  0  0  0  0  0  0  0  0
   38.2750   24.5200   37.0670 C   0  0  0  0  0  0  0  0  0  0  0  0
   37.7740   23.2890   37.4940 C   0  0  0  0  0  0  0  0  0  0  0  0
   37.5180   23.0830   38.7170 O   0  0  0  0  0  0  0  0  0  0  0  0
   37.5850   22.3620   36.5300 N   0  0  0  0  0  0  0  0  0  0  0  0
   37.8640   22.6070   35.2390 C   0  0  0  0  0  0  0  0  0  0  0  0
   37.6320   21.6320   34.4520 O   0  0  0  0  0  0  0  0  0  0  0  0
   37.2100   21.4450   36.8600 H   0  0  0  0  0  0  0  0  0  0  0  0
  1 13  1  0  0  0  0
  2  1  1  0  0  0  0
  3  1  1  0  0  0  0
  4  9  1  0  0  0  0
  5  4  2  0  0  0  0
  5  6  1  0  0  0  0
  6  7  2  0  0  0  0
  7  8  1  0  0  0  0
  8  1  1  0  0  0  0
  9  8  2  0  0  0  0
 10  4  1  0  0  0  0
 11  5  1  0  0  0  0
 12  6  1  0  0  0  0
 13 19  1  0  0  0  0
 13 14  1  0  0  0  0
 14 15  2  0  0  0  0
 15 16  1  0  0  0  0
 16 17  2  0  0  0  0
 18 21  1  0  0  0  0
 18 16  1  0  0  0  0
 19 18  1  0  0  0  0
 20 19  2  0  0  0  0
M  END
>  <minimizedAffinity>
-3.94062328

>  <minimizedRMSD>
5.44873095

$$$$
