
 OpenBabel03262519553D

 26 28  0  0  1  0  0  0  0  0999 V2000
   38.0620   23.5010   34.6510 C   0  0  0  0  0  0  0  0  0  0  0  0
   38.2930   24.6060   33.8420 C   0  0  0  0  0  0  0  0  0  0  0  0
   37.8120   24.2210   32.6270 N   0  0  0  0  0  0  0  0  0  0  0  0
   37.3420   22.9850   32.7480 C   0  0  0  0  0  0  0  0  0  0  0  0
   37.4820   22.5030   34.0020 N   0  0  0  0  0  0  0  0  0  0  0  0
   38.7620   25.5470   34.1610 H   0  0  0  0  0  0  0  0  0  0  0  0
   36.8970   22.4450   31.9030 H   0  0  0  0  0  0  0  0  0  0  0  0
   38.4130   23.4280   36.0710 C   0  0  0  0  0  0  0  0  0  0  0  0
   39.6120   22.8350   36.4640 C   0  0  0  0  0  0  0  0  0  0  0  0
   39.9060   22.7890   37.8460 C   0  0  0  0  0  0  0  0  0  0  0  0
   39.0230   23.3130   38.7030 N   0  0  0  0  0  0  0  0  0  0  0  0
   37.8550   23.8890   38.2900 C   0  0  0  0  0  0  0  0  0  0  0  0
   37.5400   23.9520   36.9770 N   0  0  0  0  0  0  0  0  0  0  0  0
   40.2990   22.4240   35.7640 H   0  0  0  0  0  0  0  0  0  0  0  0
   40.8320   22.3320   38.1740 H   0  0  0  0  0  0  0  0  0  0  0  0
   37.1600   24.3040   39.0090 H   0  0  0  0  0  0  0  0  0  0  0  0
   37.0610   21.1990   34.4030 C   0  0  1  0  0  0  0  0  0  0  0  0
   35.9700   20.9810   35.3520 C   0  0  0  0  0  0  0  0  0  0  0  0
   35.6610   20.8380   33.8890 C   0  0  2  0  0  0  0  0  0  0  0  0
   37.8180   20.3970   34.2490 H   0  0  0  0  0  0  0  0  0  0  0  0
   35.9380   20.1160   36.0410 H   0  0  0  0  0  0  0  0  0  0  0  0
   35.6010   21.8960   35.8600 H   0  0  0  0  0  0  0  0  0  0  0  0
   35.0310   21.6510   33.4530 H   0  0  0  0  0  0  0  0  0  0  0  0
   35.4950   19.5240   33.2140 C   0  0  0  0  0  2  0  0  0  0  0  0
   34.6990   19.5620   31.9440 C   0  0  0  0  0  2  0  0  0  0  0  0
   34.0650   18.6360   31.8460 H   0  0  0  0  0  0  0  0  0  0  0  0
  1  8  1  0  0  0  0
  2  6  1  0  0  0  0
  2  1  2  0  0  0  0
  3  4  2  0  0  0  0
  3  2  1  0  0  0  0
  4  5  1  0  0  0  0
  5 17  1  0  0  0  0
  5  1  1  0  0  0  0
  7  4  1  0  0  0  0
  8  9  2  0  0  0  0
  8 13  1  0  0  0  0
  9 10  1  0  0  0  0
 10 15  1  0  0  0  0
 10 11  2  0  0  0  0
 12 11  1  0  0  0  0
 12 16  1  0  0  0  0
 13 12  2  0  0  0  0
 14  9  1  0  0  0  0
 17 20  1  6  0  0  0
 17 18  1  0  0  0  0
 18 22  1  0  0  0  0
 18 21  1  0  0  0  0
 19 23  1  6  0  0  0
 19 17  1  0  0  0  0
 19 18  1  0  0  0  0
 24 19  1  0  0  0  0
 25 24  1  0  0  0  0
 26 25  1  0  0  0  0
M  END
>  <minimizedAffinity>
-4.44747305

>  <minimizedRMSD>
0.106510647

$$$$
