
 OpenBabel03262519443D

 28 29  0  0  1  0  0  0  0  0999 V2000
   38.4130   24.0140   36.4320 C   0  0  1  0  0  0  0  0  0  0  0  0
   37.6060   23.5040   35.8900 H   0  0  0  0  0  0  0  0  0  0  0  0
   41.2520   21.7680   37.5370 C   0  0  0  0  0  0  0  0  0  0  0  0
   40.1330   22.6080   37.6450 C   0  0  0  0  0  0  0  0  0  0  0  0
   39.5880   23.1060   36.4180 C   0  0  0  0  0  0  0  0  0  0  0  0
   40.1740   22.7450   35.2310 N   0  0  0  0  0  0  0  0  0  0  0  0
   41.2370   21.9430   35.1830 C   0  0  0  0  0  0  0  0  0  0  0  0
   41.7670   21.4610   36.3490 N   0  0  0  0  0  0  0  0  0  0  0  0
   41.6930   21.3700   38.4410 H   0  0  0  0  0  0  0  0  0  0  0  0
   39.6820   22.8840   38.5890 H   0  0  0  0  0  0  0  0  0  0  0  0
   41.6750   21.6790   34.2300 H   0  0  0  0  0  0  0  0  0  0  0  0
   37.9530   24.3000   37.8390 C   0  0  0  0  0  0  0  0  0  0  0  0
   38.7200   24.8370   38.4330 H   0  0  0  0  0  0  0  0  0  0  0  0
   37.0940   25.0040   37.7850 H   0  0  0  0  0  0  0  0  0  0  0  0
   37.5840   23.3960   38.3570 H   0  0  0  0  0  0  0  0  0  0  0  0
   38.6720   25.2990   35.7020 C   0  0  0  0  0  0  0  0  0  0  0  0
   38.4980   26.1400   36.3590 H   0  0  0  0  0  0  0  0  0  0  0  0
   39.7750   25.3050   35.4580 H   0  0  0  0  0  0  0  0  0  0  0  0
   37.9870   25.3910   34.4750 N   0  0  0  0  0  0  0  0  0  0  0  0
   37.7950   24.5830   33.4250 C   0  0  0  0  0  0  0  0  0  0  0  0
   37.0310   25.1070   32.4060 C   0  0  0  0  0  0  0  0  0  0  0  0
   36.7240   26.3260   32.8500 N   0  0  0  0  0  0  0  0  0  0  0  0
   37.2930   26.5000   34.0880 C   0  0  0  0  0  0  0  0  0  0  0  0
   38.2110   23.5750   33.3690 H   0  0  0  0  0  0  0  0  0  0  0  0
   36.7680   24.6290   31.4950 H   0  0  0  0  0  0  0  0  0  0  0  0
   37.1520   27.7680   34.8900 C   0  0  0  0  0  0  0  0  0  0  0  0
   36.0940   28.6540   34.3090 C   0  0  0  0  0  0  0  0  0  0  0  0
   36.5210   29.4260   33.6060 H   0  0  0  0  0  0  0  0  0  0  0  0
  1  2  1  6  0  0  0
  1 12  1  0  0  0  0
  3  4  1  0  0  0  0
  3  9  1  0  0  0  0
  4 10  1  0  0  0  0
  5  1  1  0  0  0  0
  5  4  2  0  0  0  0
  6  5  1  0  0  0  0
  7  6  2  0  0  0  0
  7  8  1  0  0  0  0
  8  3  2  0  0  0  0
 11  7  1  0  0  0  0
 12 15  1  0  0  0  0
 12 13  1  0  0  0  0
 14 12  1  0  0  0  0
 16 17  1  0  0  0  0
 16  1  1  0  0  0  0
 18 16  1  0  0  0  0
 19 16  1  0  0  0  0
 20 19  1  0  0  0  0
 21 22  1  0  0  0  0
 21 20  2  0  0  0  0
 22 23  2  0  0  0  0
 23 19  1  0  0  0  0
 23 26  1  0  0  0  0
 24 20  1  0  0  0  0
 25 21  1  0  0  0  0
 27 26  1  0  0  0  0
 28 27  1  0  0  0  0
M  END
>  <minimizedAffinity>
-4.09434795

>  <minimizedRMSD>
0.905781746

$$$$
