
 OpenBabel03262518043D

 27 29  0  0  0  0  0  0  0  0999 V2000
   43.6230   19.7150   37.0880 C   0  0  0  0  0  0  0  0  0  0  0  0
   42.4780   20.4990   37.3100 C   0  0  0  0  0  0  0  0  0  0  0  0
   41.9520   21.2270   36.2270 C   0  0  0  0  0  0  0  0  0  0  0  0
   42.5950   21.1250   35.0180 N   0  0  0  0  0  0  0  0  0  0  0  0
   43.6760   20.3730   34.8460 C   0  0  0  0  0  0  0  0  0  0  0  0
   44.1920   19.6640   35.8920 N   0  0  0  0  0  0  0  0  0  0  0  0
   43.9950   19.1730   37.9420 H   0  0  0  0  0  0  0  0  0  0  0  0
   41.9990   20.5560   38.2700 H   0  0  0  0  0  0  0  0  0  0  0  0
   44.3340   20.2950   33.5280 C   0  0  0  0  0  0  0  0  0  0  0  0
   45.7140   20.0210   33.3760 C   0  0  0  0  0  0  0  0  0  0  0  0
   46.2060   19.9680   32.1110 C   0  0  0  0  0  0  0  0  0  0  0  0
   45.3890   20.1760   31.0030 C   0  0  0  0  0  0  0  0  0  0  0  0
   43.7320   20.4820   31.8230 S   0  0  0  0  0  0  0  0  0  0  0  0
   46.3610   19.8570   34.2280 H   0  0  0  0  0  0  0  0  0  0  0  0
   47.2300   19.7710   31.8360 H   0  0  0  0  0  0  0  0  0  0  0  0
   45.5350   20.1980   29.6130 C   0  0  0  0  0  0  0  0  0  0  0  0
   46.9470   20.6520   29.2530 C   0  0  0  0  0  0  0  0  0  0  0  0
   47.6040   19.7390   29.1920 H   0  0  0  0  0  0  0  0  0  0  0  0
   40.7690   22.0540   36.3890 C   0  0  0  0  0  0  0  0  0  0  0  0
   39.9100   22.6460   35.5090 N   0  0  0  0  0  0  0  0  0  0  0  0
   38.9970   23.2890   36.1750 O   0  0  0  0  0  0  0  0  0  0  0  0
   39.2170   23.1460   37.4780 C   0  0  0  0  0  0  0  0  0  0  0  0
   40.3060   22.3880   37.6010 N   0  0  0  0  0  0  0  0  0  0  0  0
   38.4210   23.7110   38.5790 C   0  0  0  0  0  0  0  0  0  0  0  0
   39.2410   23.8780   39.6830 F   0  0  0  0  0  0  0  0  0  0  0  0
   37.3790   22.8650   38.9320 F   0  0  0  0  0  0  0  0  0  0  0  0
   37.9320   24.9450   38.2280 F   0  0  0  0  0  0  0  0  0  0  0  0
  1  2  1  0  0  0  0
  1  7  1  0  0  0  0
  2  8  1  0  0  0  0
  3 19  1  0  0  0  0
  3  2  2  0  0  0  0
  4  3  1  0  0  0  0
  5  4  2  0  0  0  0
  5  6  1  0  0  0  0
  6  1  2  0  0  0  0
  9  5  1  0  0  0  0
 10  9  2  0  0  0  0
 10 14  1  0  0  0  0
 11 10  1  0  0  0  0
 12 13  1  0  0  0  0
 12 11  2  0  0  0  0
 13  9  1  0  0  0  0
 15 11  1  0  0  0  0
 16 12  1  0  0  0  0
 17 16  1  0  0  0  0
 18 17  1  0  0  0  0
 19 23  1  0  0  0  0
 20 21  1  0  0  0  0
 20 19  2  0  0  0  0
 21 22  1  0  0  0  0
 22 23  2  0  0  0  0
 22 24  1  0  0  0  0
 24 26  1  0  0  0  0
 24 25  1  0  0  0  0
 27 24  1  0  0  0  0
M  END
>  <minimizedAffinity>
-3.88795185

>  <minimizedRMSD>
0.00639315369

$$$$
