
 OpenBabel03262519503D

 18 18  0  0  0  0  0  0  0  0999 V2000
   39.8200   23.0600   36.6760 C   0  0  0  0  0  0  0  0  0  0  0  0
   38.7880   24.0380   36.4980 C   0  0  0  0  0  0  0  0  0  0  0  0
   39.1130   24.9340   35.5070 C   0  0  0  0  0  0  0  0  0  0  0  0
   40.2960   24.8840   34.7760 N   0  0  0  0  0  0  0  0  0  0  0  0
   41.2000   23.9310   35.0160 C   0  0  0  0  0  0  0  0  0  0  0  0
   40.9580   23.0310   35.9580 N   0  0  0  0  0  0  0  0  0  0  0  0
   39.8410   22.2300   37.3880 H   0  0  0  0  0  0  0  0  0  0  0  0
   42.0040   24.1070   34.3350 H   0  0  0  0  0  0  0  0  0  0  0  0
   38.0250   25.9600   35.3330 C   0  0  0  0  0  0  0  0  0  0  0  0
   37.9520   26.0500   34.2320 H   0  0  0  0  0  0  0  0  0  0  0  0
   37.0590   25.6660   35.7120 H   0  0  0  0  0  0  0  0  0  0  0  0
   38.5830   27.2500   35.9190 C   0  0  0  0  0  0  0  0  0  0  0  0
   39.6630   27.2810   35.9020 H   0  0  0  0  0  0  0  0  0  0  0  0
   38.0220   27.6430   36.7590 H   0  0  0  0  0  0  0  0  0  0  0  0
   38.3200   28.0410   35.1140 H   0  0  0  0  0  0  0  0  0  0  0  0
   37.6560   23.8190   37.4170 C   0  0  0  0  0  0  0  0  0  0  0  0
   37.9000   24.3780   38.8000 C   0  0  0  0  0  0  0  0  0  0  0  0
   37.1040   25.0450   39.1830 H   0  0  0  0  0  0  0  0  0  0  0  0
  1  7  1  0  0  0  0
  2  1  1  0  0  0  0
  2 16  1  0  0  0  0
  3  2  2  0  0  0  0
  4  5  2  0  0  0  0
  4  3  1  0  0  0  0
  5  6  1  0  0  0  0
  6  1  2  0  0  0  0
  8  5  1  0  0  0  0
  9  3  1  0  0  0  0
  9 11  1  0  0  0  0
  9 12  1  0  0  0  0
 10  9  1  0  0  0  0
 12 14  1  0  0  0  0
 13 12  1  0  0  0  0
 15 12  1  0  0  0  0
 16 17  1  0  0  0  0
 17 18  1  0  0  0  0
M  END
>  <minimizedAffinity>
-3.21795034

>  <minimizedRMSD>
2.37131977

$$$$
