REMARK  Name = 
REMARK  5 active torsions:
REMARK  status: ('A' for Active; 'I' for Inactive)
REMARK    1  A    between atoms: C_1  and  C_6
REMARK    2  A    between atoms: N_5  and  C_12
REMARK    3  A    between atoms: C_14  and  C_15
REMARK    4  A    between atoms: C_14  and  C_27
REMARK    5  A    between atoms: C_27  and  C_28
REMARK                            x       y       z     vdW  Elec       q    Type
REMARK                         _______ _______ _______ _____ _____    ______ ____
ROOT
ATOM      1  C   UNL     1      37.871  23.697  33.501  0.00  0.00    +0.000 A 
ATOM      2  C   UNL     1      37.464  22.657  32.667  0.00  0.00    +0.000 A 
ATOM      3  N   UNL     1      37.483  21.563  33.484  0.00  0.00    +0.000 NA
ATOM      4  C   UNL     1      37.874  21.965  34.693  0.00  0.00    +0.000 A 
ATOM      5  N   UNL     1      38.118  23.271  34.730  0.00  0.00    +0.000 N 
ATOM      6  H   UNL     1      37.196  22.707  31.617  0.00  0.00    +0.000 HD
ATOM      7  H   UNL     1      37.959  21.246  35.505  0.00  0.00    +0.000 HD
ENDROOT
BRANCH   1   8
ATOM      8  C   UNL     1      38.016  25.080  33.077  0.00  0.00    +0.000 A 
ATOM      9  C   UNL     1      39.296  25.584  32.767  0.00  0.00    +0.000 A 
ATOM     10  C   UNL     1      39.388  26.933  32.357  0.00  0.00    +0.000 A 
ATOM     11  N   UNL     1      38.237  27.655  32.288  0.00  0.00    +0.000 NA
ATOM     12  C   UNL     1      37.025  27.127  32.596  0.00  0.00    +0.000 A 
ATOM     13  N   UNL     1      36.915  25.854  32.986  0.00  0.00    +0.000 NA
ATOM     14  H   UNL     1      40.175  24.980  32.835  0.00  0.00    +0.000 HD
ATOM     15  H   UNL     1      40.350  27.378  32.105  0.00  0.00    +0.000 HD
ATOM     16  H   UNL     1      36.107  27.689  32.546  0.00  0.00    +0.000 HD
ENDBRANCH   1   8
BRANCH   5  17
ATOM     17  C   UNL     1      38.547  23.948  35.898  0.00  0.00    +0.000 C 
ATOM     18  C   UNL     1      38.081  25.227  36.363  0.00  0.00    +0.000 C 
ATOM     19  C   UNL     1      37.548  23.923  37.027  0.00  0.00    +0.000 C 
ATOM     20  H   UNL     1      39.610  23.637  36.189  0.00  0.00    +0.000 HD
ATOM     21  H   UNL     1      38.782  25.838  36.983  0.00  0.00    +0.000 HD
ATOM     22  H   UNL     1      37.377  25.878  35.816  0.00  0.00    +0.000 HD
BRANCH  19  23
ATOM     23  C   UNL     1      38.113  23.765  38.425  0.00  0.00    +0.000 C 
ATOM     24  F   UNL     1      37.512  22.704  39.066  0.00  0.00    +0.000 F 
ATOM     25  F   UNL     1      39.505  23.343  38.310  0.00  0.00    +0.000 F 
ATOM     26  F   UNL     1      38.151  24.900  39.141  0.00  0.00    +0.000 F 
ENDBRANCH  19  23
BRANCH  19  27
ATOM     27  C   UNL     1      36.049  23.988  36.869  0.00  0.00    +0.000 C 
BRANCH  27  28
ATOM     28  C   UNL     1      35.468  22.615  37.101  0.00  0.00    +0.000 C 
ATOM     29  H   UNL     1      34.381  22.751  37.412  0.00  0.00    +0.000 HD
ENDBRANCH  27  28
ENDBRANCH  19  27
ENDBRANCH   5  17
TORSDOF 5
