
 OpenBabel03262519163D

 31 33  0  0  0  0  0  0  0  0999 V2000
   37.5170   25.6400   35.4500 C   0  0  0  0  0  0  0  0  0  0  0  0
   37.8740   26.6910   34.5880 C   0  0  0  0  0  0  0  0  0  0  0  0
   39.1830   26.8080   34.1180 C   0  0  0  0  0  0  0  0  0  0  0  0
   40.0360   25.8520   34.5560 N   0  0  0  0  0  0  0  0  0  0  0  0
   39.6860   24.8360   35.3910 C   0  0  0  0  0  0  0  0  0  0  0  0
   38.4220   24.7530   35.8230 N   0  0  0  0  0  0  0  0  0  0  0  0
   36.4830   25.6370   35.7600 H   0  0  0  0  0  0  0  0  0  0  0  0
   39.5040   27.5990   33.4550 H   0  0  0  0  0  0  0  0  0  0  0  0
   40.7310   23.8830   35.7650 C   0  0  0  0  0  0  0  0  0  0  0  0
   41.9260   24.0340   35.1510 C   0  0  0  0  0  0  0  0  0  0  0  0
   42.9770   22.6580   35.8920 S   0  0  0  0  0  0  0  0  0  0  0  0
   41.4670   22.1220   36.9600 C   0  0  0  0  0  0  0  0  0  0  0  0
   40.7450   22.8910   36.6000 N   0  0  0  0  0  0  0  0  0  0  0  0
   41.5100   21.0380   37.8630 N   0  0  0  0  0  0  0  0  0  0  0  0
   42.4570   24.7040   34.3680 H   0  0  0  0  0  0  0  0  0  0  0  0
   42.1770   21.1200   38.6380 H   0  0  0  0  0  0  0  0  0  0  0  0
   40.8690   20.2070   37.7080 H   0  0  0  0  0  0  0  0  0  0  0  0
   36.9510   27.7180   34.1220 C   0  0  0  0  0  0  0  0  0  0  0  0
   36.4880   28.7620   34.9000 C   0  0  0  0  0  0  0  0  0  0  0  0
   35.6350   29.6260   34.3080 C   0  0  0  0  0  0  0  0  0  0  0  0
   35.2830   29.4190   32.9900 C   0  0  0  0  0  0  0  0  0  0  0  0
   36.2210   27.8860   32.5260 S   0  0  0  0  0  0  0  0  0  0  0  0
   36.7990   28.8800   35.9400 H   0  0  0  0  0  0  0  0  0  0  0  0
   34.4540   30.0850   32.0570 C   0  0  0  0  0  0  0  0  0  0  0  0
   34.9530   30.6080   31.0380 O   0  0  0  0  0  0  0  0  0  0  0  0
   33.0350   30.1790   32.2470 N   0  0  0  0  0  0  0  0  0  0  0  0
   32.2230   29.5450   32.0450 H   0  0  0  0  0  0  0  0  0  0  0  0
   32.6760   31.0730   32.6890 H   0  0  0  0  0  0  0  0  0  0  0  0
   35.0280   30.8290   34.9880 C   0  0  0  0  0  0  0  0  0  0  0  0
   36.0110   31.5120   35.9010 C   0  0  0  0  0  0  0  0  0  0  0  0
   36.0140   32.6130   35.7720 H   0  0  0  0  0  0  0  0  0  0  0  0
  1  7  1  0  0  0  0
  1  6  1  0  0  0  0
  2  1  2  0  0  0  0
  3  4  2  0  0  0  0
  3  2  1  0  0  0  0
  4  5  1  0  0  0  0
  5  9  1  0  0  0  0
  5  6  2  0  0  0  0
  8  3  1  0  0  0  0
  9 13  1  0  0  0  0
 10  9  2  0  0  0  0
 10 11  1  0  0  0  0
 11 12  1  0  0  0  0
 12 14  1  0  0  0  0
 13 12  2  0  0  0  0
 14 16  1  0  0  0  0
 15 10  1  0  0  0  0
 17 14  1  0  0  0  0
 18  2  1  0  0  0  0
 18 19  2  0  0  0  0
 19 23  1  0  0  0  0
 20 19  1  0  0  0  0
 20 29  1  0  0  0  0
 21 20  2  0  0  0  0
 22 21  1  0  0  0  0
 22 18  1  0  0  0  0
 24 26  1  0  0  0  0
 24 21  1  0  0  0  0
 25 24  2  0  0  0  0
 26 28  1  0  0  0  0
 27 26  1  0  0  0  0
 29 30  1  0  0  0  0
 31 30  1  0  0  0  0
M  END
>  <minimizedAffinity>
-5.08090878

>  <minimizedRMSD>
2.97368884

$$$$
