
 OpenBabel03262519593D

 29 31  0  0  1  0  0  0  0  0999 V2000
   37.7560   23.5640   33.0270 C   0  0  0  0  0  0  0  0  0  0  0  0
   36.7490   22.7570   32.4990 C   0  0  0  0  0  0  0  0  0  0  0  0
   37.0400   21.5170   32.9910 N   0  0  0  0  0  0  0  0  0  0  0  0
   38.1360   21.6240   33.7420 C   0  0  0  0  0  0  0  0  0  0  0  0
   38.5950   22.8700   33.7810 N   0  0  0  0  0  0  0  0  0  0  0  0
   35.9290   23.0480   31.8510 H   0  0  0  0  0  0  0  0  0  0  0  0
   38.5460   20.7450   34.2350 H   0  0  0  0  0  0  0  0  0  0  0  0
   37.8800   24.9910   32.7760 C   0  0  0  0  0  0  0  0  0  0  0  0
   38.7350   25.4470   31.7520 C   0  0  0  0  0  0  0  0  0  0  0  0
   38.8220   26.8420   31.5430 C   0  0  0  0  0  0  0  0  0  0  0  0
   38.0750   27.6510   32.3430 N   0  0  0  0  0  0  0  0  0  0  0  0
   37.2640   27.1660   33.3180 C   0  0  0  0  0  0  0  0  0  0  0  0
   37.1670   25.8510   33.5320 N   0  0  0  0  0  0  0  0  0  0  0  0
   39.3040   24.7750   31.1470 H   0  0  0  0  0  0  0  0  0  0  0  0
   39.4660   27.2540   30.7670 H   0  0  0  0  0  0  0  0  0  0  0  0
   36.6690   27.7960   33.9570 H   0  0  0  0  0  0  0  0  0  0  0  0
   39.7470   23.2510   34.5110 C   0  0  1  0  0  0  0  0  0  0  0  0
   39.8600   24.3740   35.4040 C   0  0  0  0  0  0  0  0  0  0  0  0
   39.6740   22.9410   35.9850 C   0  0  2  0  0  0  0  0  0  0  0  0
   40.7030   22.8930   33.9910 H   0  0  0  0  0  0  0  0  0  0  0  0
   40.8730   24.8260   35.5390 H   0  0  0  0  0  0  0  0  0  0  0  0
   39.0720   25.1280   35.5700 H   0  0  0  0  0  0  0  0  0  0  0  0
   40.9540   22.4580   36.6380 C   0  0  0  0  0  0  0  0  0  0  0  0
   40.6770   21.4750   37.5620 F   0  0  0  0  0  0  0  0  0  0  0  0
   41.7440   21.7580   35.6300 F   0  0  0  0  0  0  0  0  0  0  0  0
   41.7530   23.4380   37.0880 F   0  0  0  0  0  0  0  0  0  0  0  0
   38.4300   23.0220   36.8340 C   0  0  0  0  0  2  0  0  0  0  0  0
   38.8170   23.3990   38.2430 C   0  0  0  0  0  2  0  0  0  0  0  0
   37.9070   23.8730   38.7340 H   0  0  0  0  0  0  0  0  0  0  0  0
  1  5  1  0  0  0  0
  2  3  1  0  0  0  0
  2  1  2  0  0  0  0
  3  4  2  0  0  0  0
  4  5  1  0  0  0  0
  4  7  1  0  0  0  0
  5 17  1  0  0  0  0
  6  2  1  0  0  0  0
  8  1  1  0  0  0  0
  8 13  1  0  0  0  0
  9  8  2  0  0  0  0
 10  9  1  0  0  0  0
 10 11  2  0  0  0  0
 11 12  1  0  0  0  0
 12 13  2  0  0  0  0
 12 16  1  0  0  0  0
 14  9  1  0  0  0  0
 15 10  1  0  0  0  0
 17 20  1  6  0  0  0
 17 18  1  0  0  0  0
 17 19  1  0  0  0  0
 18 21  1  0  0  0  0
 18 22  1  0  0  0  0
 18 19  1  0  0  0  0
 19 23  1  0  0  0  0
 19 27  1  1  0  0  0
 23 26  1  0  0  0  0
 23 24  1  0  0  0  0
 25 23  1  0  0  0  0
 27 28  1  0  0  0  0
 28 29  1  0  0  0  0
M  END
>  <minimizedAffinity>
-4.1701932

>  <minimizedRMSD>
2.26512218

$$$$
