
 OpenBabel03262519243D

 39 43  0  0  0  0  0  0  0  0999 V2000
   39.6990   25.6130   32.5480 C   0  0  0  0  0  0  0  0  0  0  0  0
   39.9430   26.0070   33.9030 C   0  0  0  0  0  0  0  0  0  0  0  0
   40.8810   27.0200   34.0960 C   0  0  0  0  0  0  0  0  0  0  0  0
   41.5210   27.5860   33.0360 N   0  0  0  0  0  0  0  0  0  0  0  0
   41.2710   27.1800   31.7760 C   0  0  0  0  0  0  0  0  0  0  0  0
   40.3960   26.2350   31.5840 N   0  0  0  0  0  0  0  0  0  0  0  0
   41.1100   27.3680   35.0780 H   0  0  0  0  0  0  0  0  0  0  0  0
   41.8340   27.6860   31.0070 H   0  0  0  0  0  0  0  0  0  0  0  0
   38.7710   24.5850   32.1980 C   0  0  0  0  0  0  0  0  0  0  0  0
   39.1730   23.2720   32.2500 C   0  0  0  0  0  0  0  0  0  0  0  0
   38.3160   22.2180   31.9180 C   0  0  0  0  0  0  0  0  0  0  0  0
   37.0130   22.4910   31.5230 C   0  0  0  0  0  0  0  0  0  0  0  0
   36.6030   23.8070   31.4690 C   0  0  0  0  0  0  0  0  0  0  0  0
   35.3280   24.0690   31.0690 C   0  0  0  0  0  0  0  0  0  0  0  0
   34.8570   25.3590   30.9780 C   0  0  0  0  0  0  0  0  0  0  0  0
   35.7390   26.3790   31.3110 C   0  0  0  0  0  0  0  0  0  0  0  0
   37.0230   26.0900   31.7140 C   0  0  0  0  0  0  0  0  0  0  0  0
   37.4830   24.8040   31.8030 C   0  0  0  0  0  0  0  0  0  0  0  0
   40.1990   23.0560   32.5610 H   0  0  0  0  0  0  0  0  0  0  0  0
   38.7500   21.2320   31.9990 H   0  0  0  0  0  0  0  0  0  0  0  0
   36.3750   21.6690   31.2750 H   0  0  0  0  0  0  0  0  0  0  0  0
   34.6820   23.2340   30.8210 H   0  0  0  0  0  0  0  0  0  0  0  0
   33.8450   25.4750   30.6560 H   0  0  0  0  0  0  0  0  0  0  0  0
   35.2390   27.3360   31.1960 H   0  0  0  0  0  0  0  0  0  0  0  0
   37.7990   27.3100   31.9990 C   0  0  0  0  0  0  0  0  0  0  0  0
   36.9100   28.5870   31.7600 C   0  0  0  0  0  0  0  0  0  0  0  0
   37.3950   29.4940   32.1220 H   0  0  0  0  0  0  0  0  0  0  0  0
   39.2750   25.3840   34.9280 N   0  0  0  0  0  0  0  0  0  0  0  0
   38.0350   25.6610   35.3460 C   0  0  0  0  0  0  0  0  0  0  0  0
   37.6710   24.8630   36.3840 N   0  0  0  0  0  0  0  0  0  0  0  0
   38.7310   24.0530   36.6230 C   0  0  0  0  0  0  0  0  0  0  0  0
   38.9720   23.0550   37.5230 C   0  0  0  0  0  0  0  0  0  0  0  0
   40.1340   22.3600   37.5830 N   0  0  0  0  0  0  0  0  0  0  0  0
   41.0700   22.7220   36.6720 C   0  0  0  0  0  0  0  0  0  0  0  0
   40.8190   23.6950   35.8030 N   0  0  0  0  0  0  0  0  0  0  0  0
   39.7070   24.3950   35.7100 C   0  0  0  0  0  0  0  0  0  0  0  0
   37.3360   26.4040   34.9710 H   0  0  0  0  0  0  0  0  0  0  0  0
   38.1920   22.7960   38.2380 H   0  0  0  0  0  0  0  0  0  0  0  0
   42.0310   22.2490   36.6140 H   0  0  0  0  0  0  0  0  0  0  0  0
  1  2  1  0  0  0  0
  2  3  2  0  0  0  0
  2 28  1  0  0  0  0
  3  7  1  0  0  0  0
  4  3  1  0  0  0  0
  5  4  2  0  0  0  0
  6  5  1  0  0  0  0
  6  1  2  0  0  0  0
  8  5  1  0  0  0  0
  9 10  1  0  0  0  0
  9  1  1  0  0  0  0
 10 19  1  0  0  0  0
 11 20  1  0  0  0  0
 11 10  2  0  0  0  0
 12 11  1  0  0  0  0
 13 12  2  0  0  0  0
 13 18  1  0  0  0  0
 14 13  1  0  0  0  0
 15 14  2  0  0  0  0
 15 16  1  0  0  0  0
 16 17  2  0  0  0  0
 17 18  1  0  0  0  0
 17 25  1  0  0  0  0
 18  9  2  0  0  0  0
 21 12  1  0  0  0  0
 22 14  1  0  0  0  0
 23 15  1  0  0  0  0
 24 16  1  0  0  0  0
 26 25  1  0  0  0  0
 26 27  1  0  0  0  0
 28 29  1  0  0  0  0
 28 36  1  0  0  0  0
 29 30  2  0  0  0  0
 30 31  1  0  0  0  0
 31 32  1  0  0  0  0
 32 33  2  0  0  0  0
 32 38  1  0  0  0  0
 34 33  1  0  0  0  0
 35 34  2  0  0  0  0
 36 35  1  0  0  0  0
 36 31  2  0  0  0  0
 37 29  1  0  0  0  0
 39 34  1  0  0  0  0
M  END
>  <minimizedAffinity>
-5.96064568

>  <minimizedRMSD>
0.120576724

$$$$
