
 OpenBabel03262519593D

 29 31  0  0  1  0  0  0  0  0999 V2000
   38.3970   23.6280   33.6570 C   0  0  0  0  0  0  0  0  0  0  0  0
   37.5380   22.5760   33.3450 C   0  0  0  0  0  0  0  0  0  0  0  0
   38.3410   21.4740   33.4130 N   0  0  0  0  0  0  0  0  0  0  0  0
   39.5660   21.8830   33.7410 C   0  0  0  0  0  0  0  0  0  0  0  0
   39.6270   23.2020   33.8970 N   0  0  0  0  0  0  0  0  0  0  0  0
   36.4810   22.6240   33.1060 H   0  0  0  0  0  0  0  0  0  0  0  0
   40.3710   21.1590   33.8500 H   0  0  0  0  0  0  0  0  0  0  0  0
   37.9990   25.0260   33.7060 C   0  0  0  0  0  0  0  0  0  0  0  0
   38.1100   25.8240   32.5490 C   0  0  0  0  0  0  0  0  0  0  0  0
   37.7090   27.1750   32.6440 C   0  0  0  0  0  0  0  0  0  0  0  0
   37.2420   27.6160   33.8430 N   0  0  0  0  0  0  0  0  0  0  0  0
   37.1520   26.8100   34.9320 C   0  0  0  0  0  0  0  0  0  0  0  0
   37.5260   25.5290   34.8650 N   0  0  0  0  0  0  0  0  0  0  0  0
   38.4830   25.4360   31.6260 H   0  0  0  0  0  0  0  0  0  0  0  0
   37.7720   27.8410   31.7830 H   0  0  0  0  0  0  0  0  0  0  0  0
   36.7840   27.1480   35.8870 H   0  0  0  0  0  0  0  0  0  0  0  0
   40.8160   23.8880   34.2460 C   0  0  1  0  0  0  0  0  0  0  0  0
   40.9220   25.0130   35.1370 C   0  0  0  0  0  0  0  0  0  0  0  0
   41.3130   23.5910   35.6380 C   0  0  2  0  0  0  0  0  0  0  0  0
   41.6060   23.7930   33.4230 H   0  0  0  0  0  0  0  0  0  0  0  0
   41.7690   25.7220   34.9750 H   0  0  0  0  0  0  0  0  0  0  0  0
   40.0650   25.5300   35.6030 H   0  0  0  0  0  0  0  0  0  0  0  0
   42.8150   23.4790   35.8090 C   0  0  0  0  0  0  0  0  0  0  0  0
   43.2360   22.2020   35.5090 F   0  0  0  0  0  0  0  0  0  0  0  0
   43.4540   24.2930   34.7810 F   0  0  0  0  0  0  0  0  0  0  0  0
   43.2800   23.9600   36.9730 F   0  0  0  0  0  0  0  0  0  0  0  0
   40.4400   23.3470   36.8440 C   0  0  0  0  0  2  0  0  0  0  0  0
   40.7160   21.9640   37.3810 C   0  0  0  0  0  2  0  0  0  0  0  0
   40.4140   21.9570   38.4800 H   0  0  0  0  0  0  0  0  0  0  0  0
  1  8  1  0  0  0  0
  1  5  1  0  0  0  0
  2  3  1  0  0  0  0
  2  1  2  0  0  0  0
  3  4  2  0  0  0  0
  4  7  1  0  0  0  0
  4  5  1  0  0  0  0
  5 17  1  0  0  0  0
  6  2  1  0  0  0  0
  8 13  1  0  0  0  0
  9 10  1  0  0  0  0
  9  8  2  0  0  0  0
 10 11  2  0  0  0  0
 11 12  1  0  0  0  0
 12 16  1  0  0  0  0
 13 12  2  0  0  0  0
 14  9  1  0  0  0  0
 15 10  1  0  0  0  0
 17 20  1  6  0  0  0
 17 18  1  0  0  0  0
 17 19  1  0  0  0  0
 18 22  1  0  0  0  0
 18 19  1  0  0  0  0
 19 23  1  0  0  0  0
 19 27  1  1  0  0  0
 21 18  1  0  0  0  0
 23 26  1  0  0  0  0
 24 23  1  0  0  0  0
 25 23  1  0  0  0  0
 27 28  1  0  0  0  0
 28 29  1  0  0  0  0
M  END
>  <minimizedAffinity>
-3.70554233

>  <minimizedRMSD>
3.55327892

$$$$
