
 OpenBabel03262516453D

 35 39  0  0  0  0  0  0  0  0999 V2000
   37.7450   22.9810   33.4560 C   0  0  0  0  0  0  0  0  0  0  0  0
   37.3030   24.2230   32.9620 C   0  0  0  0  0  0  0  0  0  0  0  0
   38.1220   25.3180   33.1620 C   0  0  0  0  0  0  0  0  0  0  0  0
   39.3140   25.1130   33.8320 N   0  0  0  0  0  0  0  0  0  0  0  0
   39.7010   23.9200   34.2850 C   0  0  0  0  0  0  0  0  0  0  0  0
   38.9230   22.8580   34.1000 N   0  0  0  0  0  0  0  0  0  0  0  0
   36.3530   24.2310   32.4620 H   0  0  0  0  0  0  0  0  0  0  0  0
   40.6450   23.8110   34.8040 H   0  0  0  0  0  0  0  0  0  0  0  0
   36.9860   21.7820   33.3100 N   0  0  0  0  0  0  0  0  0  0  0  0
   36.2490   21.2810   34.3410 C   0  0  0  0  0  0  0  0  0  0  0  0
   35.6170   20.1470   33.9770 N   0  0  0  0  0  0  0  0  0  0  0  0
   35.9380   19.8960   32.6960 C   0  0  0  0  0  0  0  0  0  0  0  0
   35.6390   18.9230   31.7490 C   0  0  0  0  0  0  0  0  0  0  0  0
   36.1560   18.9840   30.5090 N   0  0  0  0  0  0  0  0  0  0  0  0
   36.9730   20.0010   30.1820 C   0  0  0  0  0  0  0  0  0  0  0  0
   37.2950   20.9780   31.0770 N   0  0  0  0  0  0  0  0  0  0  0  0
   36.7740   20.9130   32.3210 C   0  0  0  0  0  0  0  0  0  0  0  0
   34.7600   17.9060   32.2360 N   0  0  0  0  0  0  0  0  0  0  0  0
   36.0990   21.6310   35.3550 H   0  0  0  0  0  0  0  0  0  0  0  0
   37.3980   20.0650   29.1880 H   0  0  0  0  0  0  0  0  0  0  0  0
   34.9520   16.9270   31.8910 H   0  0  0  0  0  0  0  0  0  0  0  0
   33.9850   18.1160   32.8870 H   0  0  0  0  0  0  0  0  0  0  0  0
   37.6750   26.6080   32.6560 C   0  0  0  0  0  0  0  0  0  0  0  0
   36.8600   27.4740   33.4210 C   0  0  0  0  0  0  0  0  0  0  0  0
   36.6620   28.5590   32.6130 N   0  0  0  0  0  0  0  0  0  0  0  0
   37.3170   28.3300   31.4680 C   0  0  0  0  0  0  0  0  0  0  0  0
   37.9330   27.1610   31.4740 N   0  0  0  0  0  0  0  0  0  0  0  0
   36.4870   27.2890   34.4300 H   0  0  0  0  0  0  0  0  0  0  0  0
   37.2680   29.1020   30.6990 H   0  0  0  0  0  0  0  0  0  0  0  0
   38.7160   26.6170   30.4150 C   0  0  0  0  0  0  0  0  0  0  0  0
   39.1450   25.3480   30.0130 C   0  0  0  0  0  0  0  0  0  0  0  0
   39.9010   25.5480   28.8570 C   0  0  0  0  0  0  0  0  0  0  0  0
   39.8870   26.9110   28.6270 C   0  0  0  0  0  0  0  0  0  0  0  0
   40.4290   27.2700   27.7590 H   0  0  0  0  0  0  0  0  0  0  0  0
   39.1870   27.4940   29.5580 O   0  0  0  0  0  0  0  0  0  0  0  0
  1  6  1  0  0  0  0
  2  3  1  0  0  0  0
  2  1  2  0  0  0  0
  3  4  2  0  0  0  0
  4  5  1  0  0  0  0
  5  8  1  0  0  0  0
  6  5  2  0  0  0  0
  7  2  1  0  0  0  0
  9  1  1  0  0  0  0
  9 10  1  0  0  0  0
 10 19  1  0  0  0  0
 11 10  2  0  0  0  0
 12 11  1  0  0  0  0
 13 18  1  0  0  0  0
 13 12  2  0  0  0  0
 14 13  1  0  0  0  0
 15 14  2  0  0  0  0
 15 16  1  0  0  0  0
 16 17  2  0  0  0  0
 17 12  1  0  0  0  0
 17  9  1  0  0  0  0
 18 22  1  0  0  0  0
 20 15  1  0  0  0  0
 21 18  1  0  0  0  0
 23  3  1  0  0  0  0
 23 24  2  0  0  0  0
 24 28  1  0  0  0  0
 25 24  1  0  0  0  0
 26 27  1  0  0  0  0
 26 25  2  0  0  0  0
 27 23  1  0  0  0  0
 29 26  1  0  0  0  0
 30 27  1  0  0  0  0
 31 30  2  0  0  0  0
 32 31  1  0  0  0  0
 33 32  2  0  0  0  0
 33 35  1  0  0  0  0
 34 33  1  0  0  0  0
 35 30  1  0  0  0  0
M  END
>  <minimizedAffinity>
-5.02060413

>  <minimizedRMSD>
1.41086113

$$$$
