
 OpenBabel03262518413D

 21 22  0  0  0  0  0  0  0  0999 V2000
   36.4900   21.4010   33.6850 C   0  0  0  0  0  0  0  0  0  0  0  0
   36.7570   22.2590   32.6030 C   0  0  0  0  0  0  0  0  0  0  0  0
   37.7850   23.1820   32.7290 C   0  0  0  0  0  0  0  0  0  0  0  0
   38.4790   23.1990   33.9070 N   0  0  0  0  0  0  0  0  0  0  0  0
   38.1940   22.3640   34.9190 C   0  0  0  0  0  0  0  0  0  0  0  0
   37.2050   21.4710   34.8050 N   0  0  0  0  0  0  0  0  0  0  0  0
   38.9980   22.4850   36.1020 N   0  0  0  0  0  0  0  0  0  0  0  0
   40.1050   21.8170   36.0380 N   0  0  0  0  0  0  0  0  0  0  0  0
   40.7830   22.0050   37.2070 C   0  0  0  0  0  0  0  0  0  0  0  0
   40.0220   22.8360   38.0060 C   0  0  0  0  0  0  0  0  0  0  0  0
   38.8970   23.1300   37.2930 C   0  0  0  0  0  0  0  0  0  0  0  0
   35.4400   20.4640   33.5470 N   0  0  0  0  0  0  0  0  0  0  0  0
   36.2010   22.2310   31.6820 H   0  0  0  0  0  0  0  0  0  0  0  0
   38.0400   23.8740   31.9230 H   0  0  0  0  0  0  0  0  0  0  0  0
   41.7410   21.6060   37.5160 H   0  0  0  0  0  0  0  0  0  0  0  0
   40.1570   23.2420   38.9860 H   0  0  0  0  0  0  0  0  0  0  0  0
   35.2240   19.8090   34.3290 H   0  0  0  0  0  0  0  0  0  0  0  0
   34.8680   20.4050   32.6760 H   0  0  0  0  0  0  0  0  0  0  0  0
   37.6940   23.9500   37.5530 C   0  0  0  0  0  0  0  0  0  0  0  0
   37.8620   24.8070   38.8010 C   0  0  0  0  0  0  0  0  0  0  0  0
   36.9030   25.3950   38.8870 H   0  0  0  0  0  0  0  0  0  0  0  0
  1  6  1  0  0  0  0
  2  3  1  0  0  0  0
  2  1  2  0  0  0  0
  3  4  2  0  0  0  0
  4  5  1  0  0  0  0
  5  7  1  0  0  0  0
  6  5  2  0  0  0  0
  7 11  1  0  0  0  0
  8  7  1  0  0  0  0
  8  9  2  0  0  0  0
  9 15  1  0  0  0  0
  9 10  1  0  0  0  0
 10 16  1  0  0  0  0
 11 19  1  0  0  0  0
 11 10  2  0  0  0  0
 12  1  1  0  0  0  0
 12 17  1  0  0  0  0
 13  2  1  0  0  0  0
 14  3  1  0  0  0  0
 18 12  1  0  0  0  0
 19 20  1  0  0  0  0
 20 21  1  0  0  0  0
M  END
>  <minimizedAffinity>
-4.18498611

>  <minimizedRMSD>
0.897725701

$$$$
