
 OpenBabel03262516453D

 41 46  0  0  0  0  0  0  0  0999 V2000
   37.2370   22.0060   33.8230 C   0  0  0  0  0  0  0  0  0  0  0  0
   37.9030   23.2300   33.8590 C   0  0  0  0  0  0  0  0  0  0  0  0
   38.1600   23.7880   35.1020 C   0  0  0  0  0  0  0  0  0  0  0  0
   37.7440   23.1010   36.2190 N   0  0  0  0  0  0  0  0  0  0  0  0
   37.1080   21.9290   36.1560 C   0  0  0  0  0  0  0  0  0  0  0  0
   36.8550   21.3830   34.9720 N   0  0  0  0  0  0  0  0  0  0  0  0
   38.1840   23.6800   32.9120 H   0  0  0  0  0  0  0  0  0  0  0  0
   36.8020   21.4320   37.0680 H   0  0  0  0  0  0  0  0  0  0  0  0
   38.8590   25.0740   35.1450 C   0  0  0  0  0  0  0  0  0  0  0  0
   38.2030   26.2890   35.4210 C   0  0  0  0  0  0  0  0  0  0  0  0
   39.1670   27.2290   35.3720 N   0  0  0  0  0  0  0  0  0  0  0  0
   40.3200   26.6030   35.0830 C   0  0  0  0  0  0  0  0  0  0  0  0
   40.1690   25.3080   34.9400 N   0  0  0  0  0  0  0  0  0  0  0  0
   37.1690   26.4880   35.6330 H   0  0  0  0  0  0  0  0  0  0  0  0
   41.2630   27.1530   34.9860 H   0  0  0  0  0  0  0  0  0  0  0  0
   41.1560   24.3220   34.6350 C   0  0  0  0  0  0  0  0  0  0  0  0
   41.8750   24.3860   33.5160 N   0  0  0  0  0  0  0  0  0  0  0  0
   42.8100   23.4580   33.2210 C   0  0  0  0  0  0  0  0  0  0  0  0
   43.0890   22.3950   34.0310 N   0  0  0  0  0  0  0  0  0  0  0  0
   42.3790   22.2970   35.1790 C   0  0  0  0  0  0  0  0  0  0  0  0
   42.6260   21.2520   36.0150 C   0  0  0  0  0  0  0  0  0  0  0  0
   41.9460   21.0820   37.1990 C   0  0  0  0  0  0  0  0  0  0  0  0
   42.0740   20.2890   37.9210 H   0  0  0  0  0  0  0  0  0  0  0  0
   40.9990   22.0390   37.4800 C   0  0  0  0  0  0  0  0  0  0  0  0
   40.4230   21.9660   38.4010 H   0  0  0  0  0  0  0  0  0  0  0  0
   40.7010   23.1230   36.6700 C   0  0  0  0  0  0  0  0  0  0  0  0
   41.4150   23.2500   35.4870 C   0  0  0  0  0  0  0  0  0  0  0  0
   36.9170   21.3370   32.6170 N   0  0  0  0  0  0  0  0  0  0  0  0
   35.7570   21.6130   31.9360 C   0  0  0  0  0  0  0  0  0  0  0  0
   35.6550   20.8630   30.8200 N   0  0  0  0  0  0  0  0  0  0  0  0
   36.7390   20.0960   30.7610 C   0  0  0  0  0  0  0  0  0  0  0  0
   37.2610   19.1200   29.9010 C   0  0  0  0  0  0  0  0  0  0  0  0
   38.4350   18.5180   30.1500 N   0  0  0  0  0  0  0  0  0  0  0  0
   39.1310   18.8590   31.2520 C   0  0  0  0  0  0  0  0  0  0  0  0
   38.6760   19.8020   32.1250 N   0  0  0  0  0  0  0  0  0  0  0  0
   37.4960   20.4040   31.8700 C   0  0  0  0  0  0  0  0  0  0  0  0
   36.4030   18.8590   28.7800 N   0  0  0  0  0  0  0  0  0  0  0  0
   34.9450   22.3060   32.1430 H   0  0  0  0  0  0  0  0  0  0  0  0
   40.0700   18.3660   31.4330 H   0  0  0  0  0  0  0  0  0  0  0  0
   36.0490   17.8620   28.8010 H   0  0  0  0  0  0  0  0  0  0  0  0
   36.0900   19.4650   27.9890 H   0  0  0  0  0  0  0  0  0  0  0  0
  1  2  2  0  0  0  0
  1  6  1  0  0  0  0
  2  3  1  0  0  0  0
  3  9  1  0  0  0  0
  3  4  2  0  0  0  0
  5  4  1  0  0  0  0
  5  8  1  0  0  0  0
  6  5  2  0  0  0  0
  7  2  1  0  0  0  0
  9 10  2  0  0  0  0
 10 14  1  0  0  0  0
 11 10  1  0  0  0  0
 12 11  2  0  0  0  0
 13 12  1  0  0  0  0
 13  9  1  0  0  0  0
 15 12  1  0  0  0  0
 16 13  1  0  0  0  0
 16 27  1  0  0  0  0
 17 16  2  0  0  0  0
 18 17  1  0  0  0  0
 18 19  2  0  0  0  0
 19 20  1  0  0  0  0
 20 27  2  0  0  0  0
 20 21  1  0  0  0  0
 21 22  2  0  0  0  0
 22 24  1  0  0  0  0
 22 23  1  0  0  0  0
 24 25  1  0  0  0  0
 26 24  2  0  0  0  0
 27 26  1  0  0  0  0
 28  1  1  0  0  0  0
 29 38  1  0  0  0  0
 29 28  1  0  0  0  0
 30 29  2  0  0  0  0
 31 30  1  0  0  0  0
 31 36  1  0  0  0  0
 32 33  1  0  0  0  0
 32 31  2  0  0  0  0
 33 34  2  0  0  0  0
 34 39  1  0  0  0  0
 34 35  1  0  0  0  0
 36 35  2  0  0  0  0
 36 28  1  0  0  0  0
 37 40  1  0  0  0  0
 37 32  1  0  0  0  0
 41 37  1  0  0  0  0
M  END
>  <minimizedAffinity>
-6.33757257

>  <minimizedRMSD>
3.62153816

$$$$
