REMARK  Name = 
REMARK  4 active torsions:
REMARK  status: ('A' for Active; 'I' for Inactive)
REMARK    1  A    between atoms: C_1  and  C_6
REMARK    2  A    between atoms: N_5  and  C_12
REMARK    3  A    between atoms: C_14  and  C_15
REMARK    4  A    between atoms: C_14  and  C_27
REMARK                            x       y       z     vdW  Elec       q    Type
REMARK                         _______ _______ _______ _____ _____    ______ ____
ROOT
ATOM      1  C   UNL     1      37.866  23.699  33.501  0.00  0.00    +0.000 A 
ATOM      2  C   UNL     1      37.463  22.656  32.668  0.00  0.00    +0.000 A 
ATOM      3  N   UNL     1      37.486  21.563  33.487  0.00  0.00    +0.000 NA
ATOM      4  C   UNL     1      37.873  21.967  34.691  0.00  0.00    +0.000 A 
ATOM      5  N   UNL     1      38.112  23.273  34.730  0.00  0.00    +0.000 N 
ATOM      6  H   UNL     1      37.212  22.782  31.627  0.00  0.00    +0.000 HD
ATOM      7  H   UNL     1      37.923  21.163  35.420  0.00  0.00    +0.000 HD
ENDROOT
BRANCH   1   8
ATOM      8  C   UNL     1      38.011  25.082  33.078  0.00  0.00    +0.000 A 
ATOM      9  C   UNL     1      39.293  25.584  32.769  0.00  0.00    +0.000 A 
ATOM     10  C   UNL     1      39.393  26.930  32.356  0.00  0.00    +0.000 A 
ATOM     11  N   UNL     1      38.242  27.651  32.285  0.00  0.00    +0.000 NA
ATOM     12  C   UNL     1      37.032  27.131  32.592  0.00  0.00    +0.000 A 
ATOM     13  N   UNL     1      36.913  25.853  32.986  0.00  0.00    +0.000 NA
ATOM     14  H   UNL     1      40.150  24.931  32.856  0.00  0.00    +0.000 HD
ATOM     15  H   UNL     1      40.363  27.331  32.115  0.00  0.00    +0.000 HD
ATOM     16  H   UNL     1      36.216  27.832  32.485  0.00  0.00    +0.000 HD
ENDBRANCH   1   8
BRANCH   5  17
ATOM     17  C   UNL     1      38.534  23.948  35.901  0.00  0.00    +0.000 C 
ATOM     18  C   UNL     1      38.083  25.229  36.364  0.00  0.00    +0.000 C 
ATOM     19  C   UNL     1      37.556  23.924  37.029  0.00  0.00    +0.000 C 
ATOM     20  H   UNL     1      39.607  23.663  36.187  0.00  0.00    +0.000 HD
ATOM     21  H   UNL     1      37.327  25.789  35.812  0.00  0.00    +0.000 HD
ATOM     22  H   UNL     1      38.715  25.882  36.996  0.00  0.00    +0.000 HD
BRANCH  19  23
ATOM     23  C   UNL     1      38.121  23.764  38.425  0.00  0.00    +0.000 C 
ATOM     24  F   UNL     1      37.523  22.695  39.063  0.00  0.00    +0.000 F 
ATOM     25  F   UNL     1      39.515  23.351  38.308  0.00  0.00    +0.000 F 
ATOM     26  F   UNL     1      38.130  24.897  39.144  0.00  0.00    +0.000 F 
ENDBRANCH  19  23
BRANCH  19  27
ATOM     27  C   UNL     1      36.049  23.958  36.971  0.00  0.00    +0.000 C 
ATOM     28  F   UNL     1      35.666  24.925  36.068  0.00  0.00    +0.000 F 
ATOM     29  F   UNL     1      35.623  24.412  38.211  0.00  0.00    +0.000 F 
ATOM     30  F   UNL     1      35.460  22.800  36.600  0.00  0.00    +0.000 F 
ENDBRANCH  19  27
ENDBRANCH   5  17
TORSDOF 4
