
 OpenBabel03262517273D

 47 50  0  0  0  0  0  0  0  0999 V2000
   37.8750   26.5850   31.3230 N   0  0  0  0  0  0  0  0  0  0  0  0
   36.6530   27.1310   31.0140 C   0  0  0  0  0  0  0  0  0  0  0  0
   36.8960   28.1290   30.0700 C   0  0  0  0  0  0  0  0  0  0  0  0
   38.2170   28.1710   29.8310 N   0  0  0  0  0  0  0  0  0  0  0  0
   38.8360   27.2210   30.6000 C   0  0  0  0  0  0  0  0  0  0  0  0
   35.7620   26.7320   31.5130 H   0  0  0  0  0  0  0  0  0  0  0  0
   36.0780   28.7010   29.6770 H   0  0  0  0  0  0  0  0  0  0  0  0
   38.7630   24.2900   33.8990 N   0  0  0  0  0  0  0  0  0  0  0  0
   38.8840   23.5700   32.7840 N   0  0  0  0  0  0  0  0  0  0  0  0
   38.5810   24.3080   31.7210 C   0  0  0  0  0  0  0  0  0  0  0  0
   38.2510   25.5570   32.1990 C   0  0  0  0  0  0  0  0  0  0  0  0
   38.3640   25.5550   33.5910 C   0  0  0  0  0  0  0  0  0  0  0  0
   38.6100   23.9320   30.7010 H   0  0  0  0  0  0  0  0  0  0  0  0
   37.9190   23.6370   36.0790 C   0  0  0  0  0  0  0  0  0  0  0  0
   39.0090   23.8080   35.2110 C   0  0  0  0  0  0  0  0  0  0  0  0
   40.2960   23.5160   35.6230 C   0  0  0  0  0  0  0  0  0  0  0  0
   40.4380   23.0560   36.9030 N   0  0  0  0  0  0  0  0  0  0  0  0
   39.4000   22.8900   37.7370 C   0  0  0  0  0  0  0  0  0  0  0  0
   38.1440   23.1790   37.3280 N   0  0  0  0  0  0  0  0  0  0  0  0
   36.9190   23.8650   35.7540 H   0  0  0  0  0  0  0  0  0  0  0  0
   41.1360   23.6490   34.9500 H   0  0  0  0  0  0  0  0  0  0  0  0
   39.7100   22.5200   38.7080 H   0  0  0  0  0  0  0  0  0  0  0  0
   38.1080   26.6520   34.4280 N   0  0  0  0  0  0  0  0  0  0  0  0
   39.0450   27.1310   35.3880 C   0  0  0  0  0  0  0  0  0  0  0  0
   40.3150   27.0800   35.0070 N   0  0  0  0  0  0  0  0  0  0  0  0
   38.5540   27.6070   36.6380 N   0  0  0  0  0  0  0  0  0  0  0  0
   40.9870   27.4460   35.7120 H   0  0  0  0  0  0  0  0  0  0  0  0
   37.1660   27.1350   34.3270 H   0  0  0  0  0  0  0  0  0  0  0  0
   37.8470   28.3720   36.6010 H   0  0  0  0  0  0  0  0  0  0  0  0
   39.0140   27.0790   37.3890 H   0  0  0  0  0  0  0  0  0  0  0  0
   40.3170   27.1290   30.4600 C   0  0  0  0  0  0  0  0  0  0  0  0
   40.7170   26.0420   29.4670 C   0  0  0  0  0  0  0  0  0  0  0  0
   39.8770   25.9090   28.7510 H   0  0  0  0  0  0  0  0  0  0  0  0
   40.8770   25.0780   30.0000 H   0  0  0  0  0  0  0  0  0  0  0  0
   41.6350   26.2440   28.9260 H   0  0  0  0  0  0  0  0  0  0  0  0
   41.0620   26.8430   31.6970 C   0  0  0  0  0  0  0  0  0  0  0  0
   40.8370   25.8190   32.0470 H   0  0  0  0  0  0  0  0  0  0  0  0
   42.1320   26.8900   31.4650 H   0  0  0  0  0  0  0  0  0  0  0  0
   40.8630   27.6390   32.4340 H   0  0  0  0  0  0  0  0  0  0  0  0
   40.7600   28.4350   29.8030 C   0  0  0  0  0  0  0  0  0  0  0  0
   40.1510   29.2380   30.2830 H   0  0  0  0  0  0  0  0  0  0  0  0
   40.5350   28.4200   28.7130 H   0  0  0  0  0  0  0  0  0  0  0  0
   42.1440   28.7470   30.0150 N   0  0  0  0  0  0  0  0  0  0  0  0
   42.8740   29.2720   31.0140 C   0  0  0  0  0  0  0  0  0  0  0  0
   44.2140   29.3960   30.7300 C   0  0  0  0  0  0  0  0  0  0  0  0
   44.3410   28.9180   29.4740 N   0  0  0  0  0  0  0  0  0  0  0  0
   43.1020   28.5360   29.0610 C   0  0  0  0  0  0  0  0  0  0  0  0
  1 11  1  0  0  0  0
  2  1  1  0  0  0  0
  2  6  1  0  0  0  0
  3  2  2  0  0  0  0
  4  3  1  0  0  0  0
  4  5  2  0  0  0  0
  5  1  1  0  0  0  0
  7  3  1  0  0  0  0
  8 15  1  0  0  0  0
  9  8  1  0  0  0  0
 10 11  1  0  0  0  0
 10  9  2  0  0  0  0
 11 12  2  0  0  0  0
 12  8  1  0  0  0  0
 12 23  1  0  0  0  0
 13 10  1  0  0  0  0
 14 19  1  0  0  0  0
 15 16  1  0  0  0  0
 15 14  2  0  0  0  0
 16 17  2  0  0  0  0
 17 18  1  0  0  0  0
 18 22  1  0  0  0  0
 19 18  2  0  0  0  0
 20 14  1  0  0  0  0
 21 16  1  0  0  0  0
 23 24  1  0  0  0  0
 24 26  1  0  0  0  0
 25 24  2  0  0  0  0
 25 27  1  0  0  0  0
 26 30  1  0  0  0  0
 28 23  1  0  0  0  0
 29 26  1  0  0  0  0
 31  5  1  0  0  0  0
 31 36  1  0  0  0  0
 32 34  1  0  0  0  0
 32 31  1  0  0  0  0
 33 32  1  0  0  0  0
 35 32  1  0  0  0  0
 36 37  1  0  0  0  0
 36 39  1  0  0  0  0
 38 36  1  0  0  0  0
 40 43  1  0  0  0  0
 40 41  1  0  0  0  0
 40 31  1  0  0  0  0
 42 40  1  0  0  0  0
 43 44  1  0  0  0  0
 45 44  2  0  0  0  0
 46 45  1  0  0  0  0
 47 46  2  0  0  0  0
 47 43  1  0  0  0  0
M  END
>  <minimizedAffinity>
-4.76367188

>  <minimizedRMSD>
0.477554858

$$$$
