
 OpenBabel03262515293D

 20 21  0  0  0  0  0  0  0  0999 V2000
   39.0280   24.9960   34.7320 C   0  0  0  0  0  0  0  0  0  0  0  0
   38.1250   24.7540   34.1680 H   0  0  0  0  0  0  0  0  0  0  0  0
   39.8850   24.5890   34.1730 H   0  0  0  0  0  0  0  0  0  0  0  0
   39.7240   22.8320   37.6760 C   0  0  0  0  0  0  0  0  0  0  0  0
   38.7910   23.3040   38.6150 C   0  0  0  0  0  0  0  0  0  0  0  0
   37.9340   24.3540   38.2370 C   0  0  0  0  0  0  0  0  0  0  0  0
   38.0650   24.8580   36.9580 N   0  0  0  0  0  0  0  0  0  0  0  0
   38.9700   24.3770   36.0950 C   0  0  0  0  0  0  0  0  0  0  0  0
   39.7910   23.3710   36.4560 N   0  0  0  0  0  0  0  0  0  0  0  0
   40.4210   22.0270   37.8820 H   0  0  0  0  0  0  0  0  0  0  0  0
   38.7570   22.8570   39.5810 H   0  0  0  0  0  0  0  0  0  0  0  0
   37.2150   24.7370   38.9210 H   0  0  0  0  0  0  0  0  0  0  0  0
   39.1480   26.5000   34.8690 C   0  0  0  0  0  0  0  0  0  0  0  0
   40.1400   26.7850   34.4600 H   0  0  0  0  0  0  0  0  0  0  0  0
   39.0850   26.7010   35.9600 H   0  0  0  0  0  0  0  0  0  0  0  0
   38.1220   27.1570   34.1190 N   0  0  0  0  0  0  0  0  0  0  0  0
   38.0460   27.3320   32.7680 C   0  0  0  0  0  0  0  0  0  0  0  0
   36.8710   28.0240   32.5370 C   0  0  0  0  0  0  0  0  0  0  0  0
   36.2510   28.2620   33.7140 N   0  0  0  0  0  0  0  0  0  0  0  0
   37.0170   27.7310   34.6790 C   0  0  0  0  0  0  0  0  0  0  0  0
  1 13  1  0  0  0  0
  1  8  1  0  0  0  0
  2  1  1  0  0  0  0
  3  1  1  0  0  0  0
  4 10  1  0  0  0  0
  4  5  1  0  0  0  0
  5 11  1  0  0  0  0
  6  5  2  0  0  0  0
  6 12  1  0  0  0  0
  7  6  1  0  0  0  0
  8  9  1  0  0  0  0
  8  7  2  0  0  0  0
  9  4  2  0  0  0  0
 13 15  1  0  0  0  0
 14 13  1  0  0  0  0
 16 20  1  0  0  0  0
 16 13  1  0  0  0  0
 17 16  1  0  0  0  0
 18 17  2  0  0  0  0
 18 19  1  0  0  0  0
 19 20  2  0  0  0  0
M  END
>  <minimizedAffinity>
-3.57411599

>  <minimizedRMSD>
1.55657768

$$$$
