
 OpenBabel03262519593D

 30 32  0  0  1  0  0  0  0  0999 V2000
   42.0340   21.2130   32.6050 C   0  0  0  0  0  0  0  0  0  0  0  0
   42.4840   20.1230   31.8610 C   0  0  0  0  0  0  0  0  0  0  0  0
   41.3460   19.4100   31.6120 N   0  0  0  0  0  0  0  0  0  0  0  0
   40.3320   20.0560   32.1770 C   0  0  0  0  0  0  0  0  0  0  0  0
   40.7240   21.1660   32.7920 N   0  0  0  0  0  0  0  0  0  0  0  0
   43.5170   19.9650   31.5930 H   0  0  0  0  0  0  0  0  0  0  0  0
   39.3740   19.5630   32.0330 H   0  0  0  0  0  0  0  0  0  0  0  0
   42.8900   22.2660   33.1240 C   0  0  0  0  0  0  0  0  0  0  0  0
   43.3310   22.2070   34.4630 C   0  0  0  0  0  0  0  0  0  0  0  0
   44.1660   23.2460   34.9290 C   0  0  0  0  0  0  0  0  0  0  0  0
   44.4870   24.2340   34.0510 N   0  0  0  0  0  0  0  0  0  0  0  0
   44.0400   24.2530   32.7750 C   0  0  0  0  0  0  0  0  0  0  0  0
   43.2460   23.2750   32.3100 N   0  0  0  0  0  0  0  0  0  0  0  0
   43.0220   21.3790   35.0840 H   0  0  0  0  0  0  0  0  0  0  0  0
   44.5140   23.2180   35.9470 H   0  0  0  0  0  0  0  0  0  0  0  0
   44.3840   25.1050   32.2050 H   0  0  0  0  0  0  0  0  0  0  0  0
   39.8310   22.0330   33.4670 C   0  0  1  0  0  0  0  0  0  0  0  0
   39.9040   23.4640   33.5280 C   0  0  0  0  0  0  0  0  0  0  0  0
   38.8800   22.7710   32.5830 C   0  0  0  0  0  0  0  0  0  0  0  0
   39.3480   21.5190   34.3710 H   0  0  0  0  0  0  0  0  0  0  0  0
   40.6970   24.0070   33.0100 H   0  0  0  0  0  0  0  0  0  0  0  0
   39.4810   24.0400   34.3730 H   0  0  0  0  0  0  0  0  0  0  0  0
   37.4660   22.9520   33.0940 C   0  0  0  0  0  0  0  0  0  0  0  0
   37.3050   22.2920   34.2970 F   0  0  0  0  0  0  0  0  0  0  0  0
   37.2860   24.3550   33.4510 F   0  0  0  0  0  0  0  0  0  0  0  0
   36.5170   22.6770   32.1860 F   0  0  0  0  0  0  0  0  0  0  0  0
   39.1080   23.3040   31.1910 C   0  0  0  0  0  0  0  0  0  0  0  0
   38.2950   24.4000   31.0010 F   0  0  0  0  0  0  0  0  0  0  0  0
   38.6340   22.3330   30.3200 F   0  0  0  0  0  0  0  0  0  0  0  0
   40.3750   23.6860   30.9200 F   0  0  0  0  0  0  0  0  0  0  0  0
  1  5  1  0  0  0  0
  1  8  1  0  0  0  0
  2  1  2  0  0  0  0
  3  2  1  0  0  0  0
  3  4  2  0  0  0  0
  4  5  1  0  0  0  0
  5 17  1  0  0  0  0
  6  2  1  0  0  0  0
  7  4  1  0  0  0  0
  8  9  1  0  0  0  0
  9 10  2  0  0  0  0
  9 14  1  0  0  0  0
 10 15  1  0  0  0  0
 11 10  1  0  0  0  0
 12 11  2  0  0  0  0
 13 12  1  0  0  0  0
 13  8  2  0  0  0  0
 16 12  1  0  0  0  0
 17 18  1  0  0  0  0
 17 20  1  1  0  0  0
 18 22  1  0  0  0  0
 19 23  1  0  0  0  0
 19 17  1  0  0  0  0
 19 18  1  0  0  0  0
 21 18  1  0  0  0  0
 23 25  1  0  0  0  0
 23 24  1  0  0  0  0
 26 23  1  0  0  0  0
 27 19  1  0  0  0  0
 28 27  1  0  0  0  0
 29 27  1  0  0  0  0
 30 27  1  0  0  0  0
M  END
>  <minimizedAffinity>
-2.0092926

>  <minimizedRMSD>
5.90089035

$$$$
