
 OpenBabel03262519593D

 30 32  0  0  1  0  0  0  0  0999 V2000
   38.2580   23.6180   33.4820 C   0  0  0  0  0  0  0  0  0  0  0  0
   37.3630   22.6520   33.0250 C   0  0  0  0  0  0  0  0  0  0  0  0
   38.0720   21.4870   33.1160 N   0  0  0  0  0  0  0  0  0  0  0  0
   39.2760   21.7820   33.5910 C   0  0  0  0  0  0  0  0  0  0  0  0
   39.4190   23.0820   33.8260 N   0  0  0  0  0  0  0  0  0  0  0  0
   36.3600   22.8710   32.6950 H   0  0  0  0  0  0  0  0  0  0  0  0
   39.9200   20.9140   33.7010 H   0  0  0  0  0  0  0  0  0  0  0  0
   37.9660   25.0390   33.5630 C   0  0  0  0  0  0  0  0  0  0  0  0
   38.2860   25.8780   32.4750 C   0  0  0  0  0  0  0  0  0  0  0  0
   37.9810   27.2520   32.5890 C   0  0  0  0  0  0  0  0  0  0  0  0
   37.3980   27.6710   33.7440 N   0  0  0  0  0  0  0  0  0  0  0  0
   37.1100   26.8330   34.7650 C   0  0  0  0  0  0  0  0  0  0  0  0
   37.3890   25.5220   34.6780 N   0  0  0  0  0  0  0  0  0  0  0  0
   38.7480   25.4500   31.5970 H   0  0  0  0  0  0  0  0  0  0  0  0
   38.2170   27.9080   31.7680 H   0  0  0  0  0  0  0  0  0  0  0  0
   36.6480   27.3200   35.6130 H   0  0  0  0  0  0  0  0  0  0  0  0
   40.6100   23.6490   34.3390 C   0  0  1  0  0  0  0  0  0  0  0  0
   40.7130   24.7090   35.3000 C   0  0  0  0  0  0  0  0  0  0  0  0
   40.9580   23.2330   35.7300 C   0  0  0  0  0  0  0  0  0  0  0  0
   41.4700   23.5740   33.5840 H   0  0  0  0  0  0  0  0  0  0  0  0
   39.8190   25.1610   35.7330 H   0  0  0  0  0  0  0  0  0  0  0  0
   41.5890   25.3850   35.3400 H   0  0  0  0  0  0  0  0  0  0  0  0
   42.4230   22.9950   36.0310 C   0  0  0  0  0  0  0  0  0  0  0  0
   42.6080   21.7200   36.5280 F   0  0  0  0  0  0  0  0  0  0  0  0
   43.1500   22.9740   34.7660 F   0  0  0  0  0  0  0  0  0  0  0  0
   42.9930   23.9600   36.7690 F   0  0  0  0  0  0  0  0  0  0  0  0
   40.0330   22.9340   36.8840 C   0  0  0  0  0  0  0  0  0  0  0  0
   39.5040   21.6750   36.7060 F   0  0  0  0  0  0  0  0  0  0  0  0
   38.9630   23.8110   36.7610 F   0  0  0  0  0  0  0  0  0  0  0  0
   40.6070   22.9660   38.1060 F   0  0  0  0  0  0  0  0  0  0  0  0
  1  8  1  0  0  0  0
  1  5  1  0  0  0  0
  2  3  1  0  0  0  0
  2  1  2  0  0  0  0
  3  4  2  0  0  0  0
  4  7  1  0  0  0  0
  4  5  1  0  0  0  0
  5 17  1  0  0  0  0
  6  2  1  0  0  0  0
  8 13  1  0  0  0  0
  9 10  1  0  0  0  0
  9  8  2  0  0  0  0
 10 11  2  0  0  0  0
 11 12  1  0  0  0  0
 12 16  1  0  0  0  0
 13 12  2  0  0  0  0
 14  9  1  0  0  0  0
 15 10  1  0  0  0  0
 17 20  1  6  0  0  0
 17 18  1  0  0  0  0
 17 19  1  0  0  0  0
 18 22  1  0  0  0  0
 18 19  1  0  0  0  0
 18 21  1  0  0  0  0
 19 23  1  0  0  0  0
 19 27  1  0  0  0  0
 23 24  1  0  0  0  0
 23 26  1  0  0  0  0
 25 23  1  0  0  0  0
 27 30  1  0  0  0  0
 28 27  1  0  0  0  0
 29 27  1  0  0  0  0
M  END
>  <minimizedAffinity>
-4.24113369

>  <minimizedRMSD>
3.31127453

$$$$
