
     RDKit          3D

 27 29  0  0  0  0  0  0  0  0999 V2000
   38.0266   23.4671   34.6184 C   0  0  0  0  0  0  0  0  0  0  0  0
   38.2640   24.5701   33.8001 C   0  0  0  0  0  0  0  0  0  0  0  0
   37.7672   24.1817   32.5913 N   0  0  0  0  0  0  0  0  0  0  0  0
   37.2837   22.9460   32.7200 C   0  0  0  0  0  0  0  0  0  0  0  0
   37.4309   22.4770   33.9665 N   0  0  0  0  0  0  0  0  0  0  0  0
   38.3862   23.3999   36.0232 C   0  0  0  0  0  0  0  0  0  0  0  0
   39.5868   22.8059   36.4270 C   0  0  0  0  0  0  0  0  0  0  0  0
   39.9039   22.7579   37.7970 C   0  0  0  0  0  0  0  0  0  0  0  0
   39.0164   23.2970   38.6581 N   0  0  0  0  0  0  0  0  0  0  0  0
   37.8580   23.8684   38.2488 C   0  0  0  0  0  0  0  0  0  0  0  0
   37.5388   23.9230   36.9428 N   0  0  0  0  0  0  0  0  0  0  0  0
   37.0028   21.1786   34.3911 C   0  0  1  0  0  0  0  0  0  0  0  0
   35.8369   20.9725   35.2508 C   0  0  0  0  0  0  0  0  0  0  0  0
   35.6729   20.7601   33.7688 C   0  0  2  0  0  0  0  0  0  0  0  0
   38.7339   25.4807   34.1173 H   0  0  0  0  0  0  0  0  0  0  0  0
   36.8264   22.4096   31.8791 H   0  0  0  0  0  0  0  0  0  0  0  0
   40.2560   22.3939   35.7144 H   0  0  0  0  0  0  0  0  0  0  0  0
   40.8130   22.3103   38.1279 H   0  0  0  0  0  0  0  0  0  0  0  0
   37.1909   24.2817   38.9897 H   0  0  0  0  0  0  0  0  0  0  0  0
   37.8162   20.4401   34.4705 H   0  0  0  0  0  0  0  0  0  0  0  0
   35.7732   20.1511   35.9660 H   0  0  0  0  0  0  0  0  0  0  0  0
   35.3315   21.9147   35.6141 H   0  0  0  0  0  0  0  0  0  0  0  0
   35.1107   21.4828   33.1468 H   0  0  0  0  0  0  0  0  0  0  0  0
   35.6224   19.3072   33.3332 C   0  0  0  0  0  0  0  0  0  0  0  0
   35.3781   19.2754   31.9657 F   0  0  0  0  0  0  0  0  0  0  0  0
   36.8037   18.6518   33.6546 F   0  0  0  0  0  0  0  0  0  0  0  0
   34.6051   18.6388   33.9883 F   0  0  0  0  0  0  0  0  0  0  0  0
  1  6  1  0
  2  1  2  0
  3  4  2  0
  3  2  1  0
  4  5  1  0
  5 12  1  0
  5  1  1  0
  6  7  2  0
  6 11  1  0
  7  8  1  0
  8  9  2  0
 10  9  1  0
 11 10  2  0
 12 13  1  0
 14 12  1  0
 14 13  1  0
  2 15  1  0
  4 16  1  0
  7 17  1  0
  8 18  1  0
 10 19  1  0
 12 20  1  1
 13 21  1  0
 13 22  1  0
 14 23  1  6
 24 25  1  0
 24 26  1  0
 24 27  1  0
 14 24  1  0
M  ISO  8  15  14  16  14  17  14  18  14  19  14  20  13  21  13  22  13
M  ISO  1  23  13
M  END
>  <DihAtoms>  (1) 
11,13,23,24

>  <DihDeg>  (1) 
-179.99958794774813

$$$$
