REMARK  Name = 
REMARK  3 active torsions:
REMARK  status: ('A' for Active; 'I' for Inactive)
REMARK    1  A    between atoms: C_1  and  C_6
REMARK    2  A    between atoms: N_5  and  C_12
REMARK    3  A    between atoms: C_14  and  C_24
REMARK                            x       y       z     vdW  Elec       q    Type
REMARK                         _______ _______ _______ _____ _____    ______ ____
ROOT
ATOM      1  C   UNL     1      38.027  23.467  34.618  0.00  0.00    +0.000 A 
ATOM      2  C   UNL     1      38.264  24.570  33.800  0.00  0.00    +0.000 A 
ATOM      3  N   UNL     1      37.767  24.182  32.591  0.00  0.00    +0.000 NA
ATOM      4  C   UNL     1      37.284  22.946  32.720  0.00  0.00    +0.000 A 
ATOM      5  N   UNL     1      37.431  22.477  33.967  0.00  0.00    +0.000 N 
ATOM      6  H   UNL     1      38.734  25.481  34.117  0.00  0.00    +0.000 HD
ATOM      7  H   UNL     1      36.826  22.410  31.879  0.00  0.00    +0.000 HD
ENDROOT
BRANCH   1   8
ATOM      8  C   UNL     1      38.386  23.400  36.023  0.00  0.00    +0.000 A 
ATOM      9  C   UNL     1      39.587  22.806  36.427  0.00  0.00    +0.000 A 
ATOM     10  C   UNL     1      39.904  22.758  37.797  0.00  0.00    +0.000 A 
ATOM     11  N   UNL     1      39.016  23.297  38.658  0.00  0.00    +0.000 NA
ATOM     12  C   UNL     1      37.858  23.868  38.249  0.00  0.00    +0.000 A 
ATOM     13  N   UNL     1      37.539  23.923  36.943  0.00  0.00    +0.000 NA
ATOM     14  H   UNL     1      40.256  22.394  35.714  0.00  0.00    +0.000 HD
ATOM     15  H   UNL     1      40.813  22.310  38.128  0.00  0.00    +0.000 HD
ATOM     16  H   UNL     1      37.191  24.282  38.990  0.00  0.00    +0.000 HD
ENDBRANCH   1   8
BRANCH   5  17
ATOM     17  C   UNL     1      37.003  21.179  34.391  0.00  0.00    +0.000 C 
ATOM     18  C   UNL     1      35.837  20.973  35.251  0.00  0.00    +0.000 C 
ATOM     19  C   UNL     1      35.673  20.760  33.769  0.00  0.00    +0.000 C 
ATOM     20  H   UNL     1      37.816  20.440  34.471  0.00  0.00    +0.000 HD
ATOM     21  H   UNL     1      35.773  20.151  35.966  0.00  0.00    +0.000 HD
ATOM     22  H   UNL     1      35.331  21.915  35.614  0.00  0.00    +0.000 HD
ATOM     23  H   UNL     1      35.111  21.483  33.147  0.00  0.00    +0.000 HD
BRANCH  19  24
ATOM     24  C   UNL     1      35.622  19.307  33.333  0.00  0.00    +0.000 C 
ATOM     25  F   UNL     1      35.378  19.275  31.966  0.00  0.00    +0.000 F 
ATOM     26  F   UNL     1      36.804  18.652  33.655  0.00  0.00    +0.000 F 
ATOM     27  F   UNL     1      34.605  18.639  33.988  0.00  0.00    +0.000 F 
ENDBRANCH  19  24
ENDBRANCH   5  17
TORSDOF 3
