
 OpenBabel03262519553D

 26 28  0  0  1  0  0  0  0  0999 V2000
   37.8080   24.3870   32.8920 C   0  0  0  0  0  0  0  0  0  0  0  0
   38.2170   25.5720   32.3040 C   0  0  0  0  0  0  0  0  0  0  0  0
   37.5940   25.5750   31.0980 N   0  0  0  0  0  0  0  0  0  0  0  0
   36.8720   24.4630   30.9970 C   0  0  0  0  0  0  0  0  0  0  0  0
   36.9890   23.7020   32.1070 N   0  0  0  0  0  0  0  0  0  0  0  0
   38.8900   26.2870   32.7710 H   0  0  0  0  0  0  0  0  0  0  0  0
   36.3010   24.3050   30.0810 H   0  0  0  0  0  0  0  0  0  0  0  0
   38.2160   23.9240   34.2190 C   0  0  0  0  0  0  0  0  0  0  0  0
   38.9530   22.7470   34.3630 C   0  0  0  0  0  0  0  0  0  0  0  0
   39.3300   22.3270   35.6470 C   0  0  0  0  0  0  0  0  0  0  0  0
   38.9490   23.1080   36.6850 N   0  0  0  0  0  0  0  0  0  0  0  0
   38.2300   24.2540   36.5230 C   0  0  0  0  0  0  0  0  0  0  0  0
   37.8670   24.6590   35.2930 N   0  0  0  0  0  0  0  0  0  0  0  0
   39.2400   22.1440   33.4930 H   0  0  0  0  0  0  0  0  0  0  0  0
   39.9010   21.4220   35.8120 H   0  0  0  0  0  0  0  0  0  0  0  0
   37.9490   24.8460   37.3980 H   0  0  0  0  0  0  0  0  0  0  0  0
   36.3150   22.4330   32.2830 C   0  0  1  0  0  0  0  0  0  0  0  0
   35.5170   21.8020   31.2420 C   0  0  0  0  0  0  0  0  0  0  0  0
   36.9430   21.3340   31.4160 C   0  0  2  0  0  0  0  0  0  0  0  0
   36.0970   22.1700   33.3260 H   0  0  0  0  0  0  0  0  0  0  0  0
   35.2260   22.3930   30.3470 H   0  0  0  0  0  0  0  0  0  0  0  0
   34.7240   21.0920   31.5530 H   0  0  0  0  0  0  0  0  0  0  0  0
   37.5820   21.6260   30.5630 H   0  0  0  0  0  0  0  0  0  0  0  0
   37.2540   20.0020   32.0300 C   0  0  0  0  0  3  0  0  0  0  0  0
   36.3400   18.9780   31.3870 C   0  0  0  0  0  1  0  0  0  0  0  0
   38.6650   19.5580   31.8300 C   0  0  0  0  0  1  0  0  0  0  0  0
  1  8  1  0  0  0  0
  2  6  1  0  0  0  0
  2  1  2  0  0  0  0
  3  2  1  0  0  0  0
  4  3  2  0  0  0  0
  4  5  1  0  0  0  0
  5 17  1  0  0  0  0
  5  1  1  0  0  0  0
  7  4  1  0  0  0  0
  8  9  2  0  0  0  0
  8 13  1  0  0  0  0
  9 10  1  0  0  0  0
 10 15  1  0  0  0  0
 10 11  2  0  0  0  0
 12 11  1  0  0  0  0
 12 16  1  0  0  0  0
 13 12  2  0  0  0  0
 14  9  1  0  0  0  0
 17 20  1  1  0  0  0
 18 19  1  0  0  0  0
 18 22  1  0  0  0  0
 18 17  1  0  0  0  0
 19 23  1  6  0  0  0
 19 24  1  0  0  0  0
 19 17  1  0  0  0  0
 21 18  1  0  0  0  0
 25 24  1  0  0  0  0
 26 24  1  0  0  0  0
M  END
>  <minimizedAffinity>
-3.75279069

>  <minimizedRMSD>
2.49365735

$$$$
