
 OpenBabel03262519553D

 26 28  0  0  1  0  0  0  0  0999 V2000
   38.1350   23.9710   34.6740 C   0  0  0  0  0  0  0  0  0  0  0  0
   38.2390   25.2080   34.0600 C   0  0  0  0  0  0  0  0  0  0  0  0
   37.8540   24.9740   32.7800 N   0  0  0  0  0  0  0  0  0  0  0  0
   37.5480   23.6860   32.6620 C   0  0  0  0  0  0  0  0  0  0  0  0
   37.7160   23.0360   33.8340 N   0  0  0  0  0  0  0  0  0  0  0  0
   38.5640   26.1160   34.5620 H   0  0  0  0  0  0  0  0  0  0  0  0
   37.2160   23.3250   31.6880 H   0  0  0  0  0  0  0  0  0  0  0  0
   38.4460   23.7040   36.0780 C   0  0  0  0  0  0  0  0  0  0  0  0
   39.6450   23.0840   36.4340 C   0  0  0  0  0  0  0  0  0  0  0  0
   39.9160   22.8400   37.7890 C   0  0  0  0  0  0  0  0  0  0  0  0
   38.9780   23.2300   38.6820 N   0  0  0  0  0  0  0  0  0  0  0  0
   37.8130   23.8330   38.3140 C   0  0  0  0  0  0  0  0  0  0  0  0
   37.5500   24.0690   37.0160 N   0  0  0  0  0  0  0  0  0  0  0  0
   40.3790   22.7850   35.6750 H   0  0  0  0  0  0  0  0  0  0  0  0
   40.8320   22.3630   38.1150 H   0  0  0  0  0  0  0  0  0  0  0  0
   37.0890   24.1270   39.0800 H   0  0  0  0  0  0  0  0  0  0  0  0
   37.4600   21.6210   34.0100 C   0  0  1  0  0  0  0  0  0  0  0  0
   36.2920   21.1030   34.7080 C   0  0  0  0  0  0  0  0  0  0  0  0
   36.2430   21.1610   33.1990 C   0  0  2  0  0  0  0  0  0  0  0  0
   38.3520   20.9840   33.9610 H   0  0  0  0  0  0  0  0  0  0  0  0
   35.6710   21.7960   35.3160 H   0  0  0  0  0  0  0  0  0  0  0  0
   36.3630   20.0930   35.1600 H   0  0  0  0  0  0  0  0  0  0  0  0
   35.5240   21.9190   32.8360 H   0  0  0  0  0  0  0  0  0  0  0  0
   36.3400   19.9160   32.3700 C   0  0  0  0  0  3  0  0  0  0  0  0
   35.3050   18.9380   32.8890 C   0  0  0  0  0  1  0  0  0  0  0  0
   36.0860   20.1360   30.9160 C   0  0  0  0  0  1  0  0  0  0  0  0
  1  8  1  0  0  0  0
  2  6  1  0  0  0  0
  2  1  2  0  0  0  0
  3  2  1  0  0  0  0
  4  3  2  0  0  0  0
  4  5  1  0  0  0  0
  5 17  1  0  0  0  0
  5  1  1  0  0  0  0
  7  4  1  0  0  0  0
  8  9  2  0  0  0  0
  8 13  1  0  0  0  0
  9 10  1  0  0  0  0
 10 15  1  0  0  0  0
 10 11  2  0  0  0  0
 12 11  1  0  0  0  0
 12 16  1  0  0  0  0
 13 12  2  0  0  0  0
 14  9  1  0  0  0  0
 17 20  1  6  0  0  0
 17 18  1  0  0  0  0
 18 22  1  0  0  0  0
 18 21  1  0  0  0  0
 19 23  1  6  0  0  0
 19 17  1  0  0  0  0
 19 18  1  0  0  0  0
 24 25  1  0  0  0  0
 24 19  1  0  0  0  0
 26 24  1  0  0  0  0
M  END
>  <minimizedAffinity>
-4.53700447

>  <minimizedRMSD>
0.909196556

$$$$
