
 OpenBabel03262518443D

 33 36  0  0  1  0  0  0  0  0999 V2000
   36.1810   19.8550   30.6960 C   0  0  0  0  0  0  0  0  0  0  0  0
   35.4710   19.2760   31.7710 C   0  0  0  0  0  0  0  0  0  0  0  0
   34.9640   20.0980   32.7650 C   0  0  0  0  0  0  0  0  0  0  0  0
   35.1840   21.4460   32.6420 N   0  0  0  0  0  0  0  0  0  0  0  0
   35.8660   21.9550   31.5990 C   0  0  0  0  0  0  0  0  0  0  0  0
   36.3580   21.1820   30.6410 N   0  0  0  0  0  0  0  0  0  0  0  0
   36.0220   23.3730   31.5960 N   0  0  0  0  0  0  0  0  0  0  0  0
   35.0090   24.0160   31.0870 N   0  0  0  0  0  0  0  0  0  0  0  0
   35.2520   25.3450   31.1300 C   0  0  0  0  0  0  0  0  0  0  0  0
   36.4750   25.5250   31.6940 C   0  0  0  0  0  0  0  0  0  0  0  0
   36.9530   24.2590   31.9850 C   0  0  0  0  0  0  0  0  0  0  0  0
   35.3120   18.2160   31.8440 H   0  0  0  0  0  0  0  0  0  0  0  0
   34.4080   19.7180   33.6190 H   0  0  0  0  0  0  0  0  0  0  0  0
   34.6290   26.1670   30.7940 H   0  0  0  0  0  0  0  0  0  0  0  0
   37.0750   26.3760   31.9290 H   0  0  0  0  0  0  0  0  0  0  0  0
   38.1630   23.7160   32.5800 C   0  0  0  0  0  0  0  0  0  0  0  0
   39.3500   23.3940   32.0600 N   0  0  0  0  0  0  0  0  0  0  0  0
   40.1400   22.9410   32.9800 O   0  0  0  0  0  0  0  0  0  0  0  0
   39.4340   22.9750   34.1200 C   0  0  0  0  0  0  0  0  0  0  0  0
   38.1980   23.4500   33.9230 N   0  0  0  0  0  0  0  0  0  0  0  0
   39.9480   22.5440   35.4520 C   0  0  2  0  0  0  0  0  0  0  0  0
   39.5880   23.3020   36.6850 C   0  0  0  0  0  0  0  0  0  0  0  0
   41.0010   23.3480   36.1340 C   0  0  1  0  0  0  0  0  0  0  0  0
   40.0110   21.4280   35.5360 H   0  0  0  0  0  0  0  0  0  0  0  0
   38.9380   24.1890   36.5890 H   0  0  0  0  0  0  0  0  0  0  0  0
   39.4640   22.6960   37.6050 H   0  0  0  0  0  0  0  0  0  0  0  0
   41.2670   24.3500   35.7200 H   0  0  0  0  0  0  0  0  0  0  0  0
   42.1300   22.6340   36.8130 C   0  0  0  0  0  0  0  0  0  0  0  0
   43.4840   23.2400   36.5860 C   0  0  0  0  0  0  0  0  0  0  0  0
   42.1390   21.1610   36.5800 C   0  0  0  0  0  0  0  0  0  0  0  0
   36.7050   19.0150   29.6750 N   0  0  0  0  0  0  0  0  0  0  0  0
   37.7370   18.9880   29.5350 H   0  0  0  0  0  0  0  0  0  0  0  0
   35.8760   18.5630   29.2430 H   0  0  0  0  0  0  0  0  0  0  0  0
  1  2  1  0  0  0  0
  2 12  1  0  0  0  0
  2  3  2  0  0  0  0
  3 13  1  0  0  0  0
  4  3  1  0  0  0  0
  5  4  2  0  0  0  0
  6  1  2  0  0  0  0
  6  5  1  0  0  0  0
  7  5  1  0  0  0  0
  7 11  1  0  0  0  0
  8  9  2  0  0  0  0
  8  7  1  0  0  0  0
  9 10  1  0  0  0  0
 10 15  1  0  0  0  0
 10 11  2  0  0  0  0
 11 16  1  0  0  0  0
 14  9  1  0  0  0  0
 16 20  1  0  0  0  0
 17 16  2  0  0  0  0
 17 18  1  0  0  0  0
 18 19  1  0  0  0  0
 19 21  1  0  0  0  0
 20 19  2  0  0  0  0
 21 24  1  1  0  0  0
 21 23  1  0  0  0  0
 21 22  1  0  0  0  0
 22 26  1  0  0  0  0
 23 27  1  6  0  0  0
 23 22  1  0  0  0  0
 23 28  1  0  0  0  0
 25 22  1  0  0  0  0
 29 28  1  0  0  0  0
 30 28  1  0  0  0  0
 31  1  1  0  0  0  0
 32 31  1  0  0  0  0
 33 31  1  0  0  0  0
M  END
>  <minimizedAffinity>
-5.14677954

>  <minimizedRMSD>
4.86533976

$$$$
