
 OpenBabel03262519043D

 19 20  0  0  1  0  0  0  0  0999 V2000
   38.4090   25.6360   35.1060 C   0  0  2  0  0  0  0  0  0  0  0  0
   39.0300   27.0180   35.2830 C   0  0  0  0  0  0  0  0  0  0  0  0
   37.5430   26.8250   35.1970 C   0  0  1  0  0  0  0  0  0  0  0  0
   38.5500   25.1560   34.1200 H   0  0  0  0  0  0  0  0  0  0  0  0
   39.5570   27.4930   34.4310 H   0  0  0  0  0  0  0  0  0  0  0  0
   39.4640   27.2780   36.2470 H   0  0  0  0  0  0  0  0  0  0  0  0
   36.9800   26.9690   36.1670 H   0  0  0  0  0  0  0  0  0  0  0  0
   39.6740   22.9660   37.3040 C   0  0  0  0  0  0  0  0  0  0  0  0
   38.9330   23.1630   38.4920 C   0  0  0  0  0  0  0  0  0  0  0  0
   38.0050   24.2130   38.5130 C   0  0  0  0  0  0  0  0  0  0  0  0
   37.8740   24.9800   37.3840 N   0  0  0  0  0  0  0  0  0  0  0  0
   38.6070   24.7490   36.2720 C   0  0  0  0  0  0  0  0  0  0  0  0
   39.5150   23.7330   36.2340 N   0  0  0  0  0  0  0  0  0  0  0  0
   40.3690   22.1310   37.3780 H   0  0  0  0  0  0  0  0  0  0  0  0
   39.0310   22.5630   39.3880 H   0  0  0  0  0  0  0  0  0  0  0  0
   37.3780   24.4670   39.3550 H   0  0  0  0  0  0  0  0  0  0  0  0
   36.8320   27.4080   34.0250 C   0  0  0  0  0  0  0  0  0  0  0  0
   36.2360   28.7340   34.4400 C   0  0  0  0  0  0  0  0  0  0  0  0
   37.6770   27.5620   32.7950 C   0  0  0  0  0  0  0  0  0  0  0  0
  1  4  1  6  0  0  0
  1  3  1  0  0  0  0
  1  2  1  0  0  0  0
  1 12  1  0  0  0  0
  2  6  1  0  0  0  0
  3  2  1  0  0  0  0
  3  7  1  1  0  0  0
  5  2  1  0  0  0  0
  8 14  1  0  0  0  0
  8  9  1  0  0  0  0
  9 10  2  0  0  0  0
  9 15  1  0  0  0  0
 10 16  1  0  0  0  0
 11 10  1  0  0  0  0
 12 11  2  0  0  0  0
 13 12  1  0  0  0  0
 13  8  2  0  0  0  0
 17 18  1  0  0  0  0
 17  3  1  0  0  0  0
 19 17  1  0  0  0  0
M  END
>  <minimizedAffinity>
-4.07980061

>  <minimizedRMSD>
0.937976599

$$$$
