
 OpenBabel03262516563D

 32 34  0  0  1  0  0  0  0  0999 V2000
   37.2030   21.8080   34.6400 C   0  0  0  0  0  0  0  0  0  0  0  0
   36.2670   21.2760   35.2690 O   0  0  0  0  0  0  0  0  0  0  0  0
   37.0400   21.9860   33.2460 N   0  0  0  0  0  0  0  0  0  0  0  0
   36.1720   20.9790   32.6050 C   0  0  0  0  0  0  0  0  0  0  0  0
   35.8050   21.3680   31.2090 C   0  0  0  0  0  0  0  0  0  0  0  0
   35.5590   22.7080   31.0290 O   0  0  0  0  0  0  0  0  0  0  0  0
   36.3440   23.5840   31.6800 C   0  0  0  0  0  0  0  0  0  0  0  0
   37.5680   22.9680   32.3200 C   0  0  1  0  0  0  0  0  0  0  0  0
   35.3220   20.7070   33.2400 H   0  0  0  0  0  0  0  0  0  0  0  0
   36.8480   20.0790   32.5180 H   0  0  0  0  0  0  0  0  0  0  0  0
   34.8790   20.8100   30.9390 H   0  0  0  0  0  0  0  0  0  0  0  0
   36.5760   21.0450   30.4530 H   0  0  0  0  0  0  0  0  0  0  0  0
   36.6620   24.4620   31.0650 H   0  0  0  0  0  0  0  0  0  0  0  0
   35.7590   24.0170   32.5450 H   0  0  0  0  0  0  0  0  0  0  0  0
   38.2140   22.4230   31.6280 H   0  0  0  0  0  0  0  0  0  0  0  0
   40.6420   22.1150   35.9180 C   0  0  0  0  0  0  0  0  0  0  0  0
   40.4990   22.9890   36.9860 C   0  0  0  0  0  0  0  0  0  0  0  0
   39.2340   23.4610   37.2570 C   0  0  0  0  0  0  0  0  0  0  0  0
   38.2390   23.0250   36.4460 N   0  0  0  0  0  0  0  0  0  0  0  0
   38.3790   22.1920   35.4280 C   0  0  0  0  0  0  0  0  0  0  0  0
   39.6160   21.7290   35.1630 N   0  0  0  0  0  0  0  0  0  0  0  0
   41.6490   21.7460   35.7110 H   0  0  0  0  0  0  0  0  0  0  0  0
   41.3070   23.3330   37.6310 H   0  0  0  0  0  0  0  0  0  0  0  0
   38.9620   24.1500   38.0580 H   0  0  0  0  0  0  0  0  0  0  0  0
   38.2820   24.0860   32.9970 C   0  0  0  0  0  0  0  0  0  0  0  0
   39.5780   24.3390   33.1750 N   0  0  0  0  0  0  0  0  0  0  0  0
   39.7320   25.4580   33.8170 O   0  0  0  0  0  0  0  0  0  0  0  0
   38.5400   25.9580   34.0700 C   0  0  0  0  0  0  0  0  0  0  0  0
   37.5920   25.1280   33.5740 N   0  0  0  0  0  0  0  0  0  0  0  0
   38.1770   27.2240   34.7820 C   0  0  0  0  0  0  0  0  0  0  0  0
   38.3890   27.0440   36.2720 C   0  0  0  0  0  0  0  0  0  0  0  0
   36.7170   27.5850   34.5360 C   0  0  0  0  0  0  0  0  0  0  0  0
  1  2  2  0  0  0  0
  1 20  1  0  0  0  0
  3  1  1  0  0  0  0
  4  9  1  0  0  0  0
  4  3  1  0  0  0  0
  5  4  1  0  0  0  0
  6  5  1  0  0  0  0
  6  7  1  0  0  0  0
  7  8  1  0  0  0  0
  7 14  1  0  0  0  0
  8 15  1  6  0  0  0
  8 25  1  0  0  0  0
  8  3  1  0  0  0  0
 10  4  1  0  0  0  0
 11  5  1  0  0  0  0
 12  5  1  0  0  0  0
 13  7  1  0  0  0  0
 16 17  1  0  0  0  0
 17 18  2  0  0  0  0
 17 23  1  0  0  0  0
 18 24  1  0  0  0  0
 19 18  1  0  0  0  0
 20 19  2  0  0  0  0
 21 20  1  0  0  0  0
 21 16  2  0  0  0  0
 22 16  1  0  0  0  0
 25 26  2  0  0  0  0
 25 29  1  0  0  0  0
 26 27  1  0  0  0  0
 27 28  1  0  0  0  0
 28 30  1  0  0  0  0
 29 28  2  0  0  0  0
 30 31  1  0  0  0  0
 32 30  1  0  0  0  0
M  END
>  <minimizedAffinity>
-4.90259171

>  <minimizedRMSD>
1.61503744

$$$$
