
 OpenBabel03262519553D

 27 29  0  0  1  0  0  0  0  0999 V2000
   39.6950   24.5910   31.3210 C   0  0  0  0  0  0  0  0  0  0  0  0
   39.4760   23.6750   30.3070 C   0  0  0  0  0  0  0  0  0  0  0  0
   38.1460   23.8300   30.0190 N   0  0  0  0  0  0  0  0  0  0  0  0
   37.6580   24.7710   30.8200 C   0  0  0  0  0  0  0  0  0  0  0  0
   38.6060   25.2700   31.6510 N   0  0  0  0  0  0  0  0  0  0  0  0
   40.2030   23.0010   29.8610 H   0  0  0  0  0  0  0  0  0  0  0  0
   36.6080   25.0910   30.7950 H   0  0  0  0  0  0  0  0  0  0  0  0
   40.9910   24.8060   31.9790 C   0  0  0  0  0  0  0  0  0  0  0  0
   41.3340   24.0800   33.1180 C   0  0  0  0  0  0  0  0  0  0  0  0
   42.5900   24.3200   33.7160 C   0  0  0  0  0  0  0  0  0  0  0  0
   43.3860   25.2500   33.1390 N   0  0  0  0  0  0  0  0  0  0  0  0
   43.0330   25.9390   32.0370 C   0  0  0  0  0  0  0  0  0  0  0  0
   41.8340   25.7230   31.4500 N   0  0  0  0  0  0  0  0  0  0  0  0
   40.6530   23.3480   33.5330 H   0  0  0  0  0  0  0  0  0  0  0  0
   42.8790   23.7660   34.6050 H   0  0  0  0  0  0  0  0  0  0  0  0
   43.6890   26.6850   31.5860 H   0  0  0  0  0  0  0  0  0  0  0  0
   38.3530   26.2940   32.6170 C   0  0  1  0  0  0  0  0  0  0  0  0
   37.0160   26.5600   33.1530 C   0  0  0  0  0  0  0  0  0  0  0  0
   37.9600   25.7360   33.9860 C   0  0  2  0  0  0  0  0  0  0  0  0
   39.1970   27.0290   32.6900 H   0  0  0  0  0  0  0  0  0  0  0  0
   36.1900   25.9870   32.6510 H   0  0  0  0  0  0  0  0  0  0  0  0
   36.7150   27.5700   33.4210 H   0  0  0  0  0  0  0  0  0  0  0  0
   37.7570   24.6690   34.0860 H   0  0  0  0  0  0  0  0  0  0  0  0
   38.4370   26.4210   35.2290 C   0  0  0  0  0  0  0  0  0  0  0  0
   39.8760   26.8530   35.1580 C   0  0  0  0  0  1  0  0  0  0  0  0
   38.2080   25.6190   36.4940 C   0  0  0  0  0  1  0  0  0  0  0  0
   37.6250   27.6940   35.3700 C   0  0  0  0  0  1  0  0  0  0  0  0
  1  5  1  0  0  0  0
  1  8  1  0  0  0  0
  2  1  2  0  0  0  0
  3  2  1  0  0  0  0
  3  4  2  0  0  0  0
  4  5  1  0  0  0  0
  5 17  1  0  0  0  0
  6  2  1  0  0  0  0
  7  4  1  0  0  0  0
  8  9  1  0  0  0  0
  9 14  1  0  0  0  0
  9 10  2  0  0  0  0
 10 15  1  0  0  0  0
 11 10  1  0  0  0  0
 12 11  2  0  0  0  0
 13  8  2  0  0  0  0
 13 12  1  0  0  0  0
 16 12  1  0  0  0  0
 17 20  1  1  0  0  0
 17 18  1  0  0  0  0
 17 19  1  0  0  0  0
 18 22  1  0  0  0  0
 18 19  1  0  0  0  0
 19 23  1  1  0  0  0
 19 24  1  0  0  0  0
 21 18  1  0  0  0  0
 24 27  1  0  0  0  0
 24 26  1  0  0  0  0
 25 24  1  0  0  0  0
M  END
>  <minimizedAffinity>
-3.34087038

>  <minimizedRMSD>
6.27778435

$$$$
