
 OpenBabel03262519403D

 36 38  0  0  1  0  0  0  0  0999 V2000
   37.7030   25.4160   34.1740 N   0  0  0  0  0  0  0  0  0  0  0  0
   37.0690   25.4260   32.8730 C   0  0  0  0  0  0  0  0  0  0  0  0
   36.9140   26.8640   32.5110 C   0  0  0  0  0  0  0  0  0  0  0  0
   37.5270   27.6100   33.6820 C   0  0  0  0  0  0  0  0  0  0  0  0
   38.5700   26.5490   34.1390 C   0  0  2  0  0  0  0  0  0  0  0  0
   37.5470   24.7910   32.1280 H   0  0  0  0  0  0  0  0  0  0  0  0
   36.0420   25.0200   33.0450 H   0  0  0  0  0  0  0  0  0  0  0  0
   35.8830   27.1730   32.3170 H   0  0  0  0  0  0  0  0  0  0  0  0
   37.5550   27.0460   31.6180 H   0  0  0  0  0  0  0  0  0  0  0  0
   36.8290   27.7880   34.4960 H   0  0  0  0  0  0  0  0  0  0  0  0
   38.0930   28.4970   33.3480 H   0  0  0  0  0  0  0  0  0  0  0  0
   38.9880   26.8970   35.0970 H   0  0  0  0  0  0  0  0  0  0  0  0
   38.5200   24.2510   34.3550 C   0  0  0  0  0  0  0  0  0  0  0  0
   39.5320   24.3950   33.9310 H   0  0  0  0  0  0  0  0  0  0  0  0
   38.0600   23.4090   33.7960 H   0  0  0  0  0  0  0  0  0  0  0  0
   37.9220   23.9860   38.0890 C   0  0  0  0  0  0  0  0  0  0  0  0
   37.7220   24.3450   36.7580 C   0  0  0  0  0  0  0  0  0  0  0  0
   38.6680   23.9040   35.8060 C   0  0  0  0  0  0  0  0  0  0  0  0
   39.7170   23.1530   36.2550 N   0  0  0  0  0  0  0  0  0  0  0  0
   39.8500   22.8410   37.5590 C   0  0  0  0  0  0  0  0  0  0  0  0
   38.9520   23.2600   38.4590 N   0  0  0  0  0  0  0  0  0  0  0  0
   37.1700   24.3490   38.7750 H   0  0  0  0  0  0  0  0  0  0  0  0
   36.8800   24.9420   36.4390 H   0  0  0  0  0  0  0  0  0  0  0  0
   40.6890   22.2380   37.9250 H   0  0  0  0  0  0  0  0  0  0  0  0
   39.5860   26.4130   33.2340 O   0  0  0  0  0  0  0  0  0  0  0  0
   40.8380   26.6480   33.7400 C   0  0  2  0  0  0  0  0  0  0  0  0
   41.6950   27.5840   32.9400 C   0  0  0  0  0  0  0  0  0  0  0  0
   42.0590   26.1360   33.0490 C   0  0  1  0  0  0  0  0  0  0  0  0
   40.9000   26.5440   34.8250 H   0  0  0  0  0  0  0  0  0  0  0  0
   41.3560   27.8820   31.9160 H   0  0  0  0  0  0  0  0  0  0  0  0
   42.3010   28.3530   33.4510 H   0  0  0  0  0  0  0  0  0  0  0  0
   41.9040   25.4550   32.1900 H   0  0  0  0  0  0  0  0  0  0  0  0
   43.2190   25.7590   33.9250 C   0  0  0  0  0  0  0  0  0  0  0  0
   44.1100   26.9600   34.1860 C   0  0  0  0  0  0  0  0  0  0  0  0
   44.0560   24.6290   33.3290 C   0  0  0  0  0  0  0  0  0  0  0  0
   42.7770   25.2660   35.2870 C   0  0  0  0  0  0  0  0  0  0  0  0
  1 13  1  0  0  0  0
  2  7  1  0  0  0  0
  2  1  1  0  0  0  0
  3  2  1  0  0  0  0
  3  4  1  0  0  0  0
  4  5  1  0  0  0  0
  4 10  1  0  0  0  0
  5  1  1  0  0  0  0
  5 12  1  1  0  0  0
  6  2  1  0  0  0  0
  8  3  1  0  0  0  0
  9  3  1  0  0  0  0
 11  4  1  0  0  0  0
 13 18  1  0  0  0  0
 14 13  1  0  0  0  0
 15 13  1  0  0  0  0
 16 21  1  0  0  0  0
 16 22  1  0  0  0  0
 17 16  2  0  0  0  0
 18 19  2  0  0  0  0
 18 17  1  0  0  0  0
 19 20  1  0  0  0  0
 20 24  1  0  0  0  0
 20 21  2  0  0  0  0
 23 17  1  0  0  0  0
 25 26  1  0  0  0  0
 25  5  1  0  0  0  0
 26 29  1  1  0  0  0
 27 28  1  0  0  0  0
 27 31  1  0  0  0  0
 27 26  1  0  0  0  0
 28 32  1  6  0  0  0
 28 26  1  0  0  0  0
 28 33  1  0  0  0  0
 30 27  1  0  0  0  0
 33 34  1  0  0  0  0
 33 36  1  0  0  0  0
 35 33  1  0  0  0  0
M  END
>  <minimizedAffinity>
-4.07060814

>  <minimizedRMSD>
0.986921072

$$$$
