
 OpenBabel03262519453D

 29 30  0  0  1  0  0  0  0  0999 V2000
   38.4570   24.0310   35.5060 C   0  0  1  0  0  0  0  0  0  0  0  0
   37.5570   23.3750   35.3550 H   0  0  0  0  0  0  0  0  0  0  0  0
   40.8730   21.9710   37.5660 C   0  0  0  0  0  0  0  0  0  0  0  0
   39.7980   22.8070   37.2600 C   0  0  0  0  0  0  0  0  0  0  0  0
   39.5720   23.1440   35.8940 C   0  0  0  0  0  0  0  0  0  0  0  0
   40.4180   22.6320   34.9510 N   0  0  0  0  0  0  0  0  0  0  0  0
   41.4420   21.8320   35.2760 C   0  0  0  0  0  0  0  0  0  0  0  0
   41.6710   21.4980   36.5930 N   0  0  0  0  0  0  0  0  0  0  0  0
   40.9930   21.7510   38.6160 H   0  0  0  0  0  0  0  0  0  0  0  0
   39.1630   23.1860   38.0220 H   0  0  0  0  0  0  0  0  0  0  0  0
   42.0970   21.4400   34.5110 H   0  0  0  0  0  0  0  0  0  0  0  0
   38.1280   25.0180   36.5960 C   0  0  0  0  0  0  0  0  0  0  0  0
   38.1470   24.5650   37.5960 H   0  0  0  0  0  0  0  0  0  0  0  0
   37.1820   25.5370   36.3640 H   0  0  0  0  0  0  0  0  0  0  0  0
   38.9160   25.8120   36.5840 H   0  0  0  0  0  0  0  0  0  0  0  0
   38.6900   24.7230   34.2000 C   0  0  0  0  0  0  0  0  0  0  0  0
   38.9000   25.7620   34.3490 H   0  0  0  0  0  0  0  0  0  0  0  0
   39.6630   24.2870   33.7890 H   0  0  0  0  0  0  0  0  0  0  0  0
   37.7070   24.4460   33.2320 N   0  0  0  0  0  0  0  0  0  0  0  0
   37.1900   23.3190   32.7220 C   0  0  0  0  0  0  0  0  0  0  0  0
   36.2230   23.4890   31.7550 C   0  0  0  0  0  0  0  0  0  0  0  0
   36.1420   24.8120   31.6680 N   0  0  0  0  0  0  0  0  0  0  0  0
   37.0260   25.3960   32.5480 C   0  0  0  0  0  0  0  0  0  0  0  0
   37.4910   22.3100   33.0290 H   0  0  0  0  0  0  0  0  0  0  0  0
   35.6880   22.7160   31.2250 H   0  0  0  0  0  0  0  0  0  0  0  0
   37.0670   26.8890   32.6110 C   0  0  0  0  0  0  0  0  0  0  0  0
   35.9140   27.5280   31.8470 C   0  0  0  0  0  0  0  0  0  0  0  0
   38.3560   27.5040   32.1850 C   0  0  0  0  0  0  0  0  0  0  0  0
   36.8500   27.3490   34.0550 C   0  0  0  0  0  0  0  0  0  0  0  0
  1  2  1  6  0  0  0
  1  5  1  0  0  0  0
  1 12  1  0  0  0  0
  3  9  1  0  0  0  0
  4  3  1  0  0  0  0
  4 10  1  0  0  0  0
  5  4  2  0  0  0  0
  6  7  2  0  0  0  0
  6  5  1  0  0  0  0
  7  8  1  0  0  0  0
  8  3  2  0  0  0  0
 11  7  1  0  0  0  0
 12 13  1  0  0  0  0
 14 12  1  0  0  0  0
 15 12  1  0  0  0  0
 16 17  1  0  0  0  0
 16  1  1  0  0  0  0
 18 16  1  0  0  0  0
 19 16  1  0  0  0  0
 20 24  1  0  0  0  0
 20 19  1  0  0  0  0
 21 20  2  0  0  0  0
 22 21  1  0  0  0  0
 22 23  2  0  0  0  0
 23 26  1  0  0  0  0
 23 19  1  0  0  0  0
 25 21  1  0  0  0  0
 26 29  1  0  0  0  0
 27 26  1  0  0  0  0
 28 26  1  0  0  0  0
M  END
>  <minimizedAffinity>
-4.21490622

>  <minimizedRMSD>
2.54023743

$$$$
