
 OpenBabel03262519503D

 19 19  0  0  0  0  0  0  0  0999 V2000
   38.0860   27.5360   32.4380 C   0  0  0  0  0  0  0  0  0  0  0  0
   38.7880   27.1190   33.5950 C   0  0  0  0  0  0  0  0  0  0  0  0
   37.9600   27.4250   34.7020 C   0  0  0  0  0  0  0  0  0  0  0  0
   36.6830   28.0220   34.6550 N   0  0  0  0  0  0  0  0  0  0  0  0
   36.1690   28.3500   33.4870 C   0  0  0  0  0  0  0  0  0  0  0  0
   36.8780   28.1020   32.4150 N   0  0  0  0  0  0  0  0  0  0  0  0
   38.3430   27.5040   31.3670 H   0  0  0  0  0  0  0  0  0  0  0  0
   35.2270   28.7690   33.7290 H   0  0  0  0  0  0  0  0  0  0  0  0
   40.0960   26.5540   33.3170 C   0  0  0  0  0  0  0  0  0  0  0  0
   40.1310   25.0400   33.2230 C   0  0  0  0  0  0  0  0  0  0  0  0
   40.3250   26.7870   31.7420 C   0  0  0  0  0  0  0  0  0  0  0  0
   41.3340   27.2120   33.7970 C   0  0  0  0  0  0  0  0  0  0  0  0
   38.7020   27.0420   35.9610 C   0  0  0  0  0  0  0  0  0  0  0  0
   39.7250   26.8930   35.5830 H   0  0  0  0  0  0  0  0  0  0  0  0
   38.7320   27.7700   36.7340 H   0  0  0  0  0  0  0  0  0  0  0  0
   38.1490   25.6660   36.3220 C   0  0  0  0  0  0  0  0  0  0  0  0
   37.7280   25.5760   37.3050 H   0  0  0  0  0  0  0  0  0  0  0  0
   37.6930   25.1650   35.4600 H   0  0  0  0  0  0  0  0  0  0  0  0
   39.0900   24.9820   36.4490 H   0  0  0  0  0  0  0  0  0  0  0  0
  1  2  1  0  0  0  0
  2  3  2  0  0  0  0
  3 13  1  0  0  0  0
  4  3  1  0  0  0  0
  5  8  1  0  0  0  0
  5  4  2  0  0  0  0
  6  1  2  0  0  0  0
  6  5  1  0  0  0  0
  7  1  1  0  0  0  0
  9  2  1  0  0  0  0
  9 12  1  0  0  0  0
 10  9  1  0  0  0  0
 11  9  1  0  0  0  0
 13 16  1  0  0  0  0
 13 15  1  0  0  0  0
 14 13  1  0  0  0  0
 16 19  1  0  0  0  0
 16 17  1  0  0  0  0
 18 16  1  0  0  0  0
M  END
>  <minimizedAffinity>
-3.29615164

>  <minimizedRMSD>
6.87610865

$$$$
