
 OpenBabel03262519553D

 27 29  0  0  1  0  0  0  0  0999 V2000
   38.1310   23.9850   34.2040 C   0  0  0  0  0  0  0  0  0  0  0  0
   38.2850   25.2490   33.6610 C   0  0  0  0  0  0  0  0  0  0  0  0
   37.8000   25.1100   32.3870 N   0  0  0  0  0  0  0  0  0  0  0  0
   37.4020   23.8520   32.2330 C   0  0  0  0  0  0  0  0  0  0  0  0
   37.5960   23.1180   33.3570 N   0  0  0  0  0  0  0  0  0  0  0  0
   38.6970   26.1290   34.1480 H   0  0  0  0  0  0  0  0  0  0  0  0
   36.9690   23.4730   31.2980 H   0  0  0  0  0  0  0  0  0  0  0  0
   38.5130   23.6200   35.5740 C   0  0  0  0  0  0  0  0  0  0  0  0
   39.7460   23.0200   35.8280 C   0  0  0  0  0  0  0  0  0  0  0  0
   40.0700   22.6870   37.1600 C   0  0  0  0  0  0  0  0  0  0  0  0
   39.1540   22.9730   38.1140 N   0  0  0  0  0  0  0  0  0  0  0  0
   37.9680   23.5530   37.8450 C   0  0  0  0  0  0  0  0  0  0  0  0
   37.6400   23.8800   36.5750 N   0  0  0  0  0  0  0  0  0  0  0  0
   40.4380   22.8170   35.0200 H   0  0  0  0  0  0  0  0  0  0  0  0
   41.0250   22.2180   37.3820 H   0  0  0  0  0  0  0  0  0  0  0  0
   37.2420   23.7750   38.6290 H   0  0  0  0  0  0  0  0  0  0  0  0
   37.2560   21.7330   33.4670 C   0  0  1  0  0  0  0  0  0  0  0  0
   36.3190   21.2270   34.4730 C   0  0  0  0  0  0  0  0  0  0  0  0
   35.8060   21.4430   33.0740 C   0  0  2  0  0  0  0  0  0  0  0  0
   37.9790   21.0730   32.9190 H   0  0  0  0  0  0  0  0  0  0  0  0
   35.9930   21.9900   35.2300 H   0  0  0  0  0  0  0  0  0  0  0  0
   36.4530   20.2400   34.9100 H   0  0  0  0  0  0  0  0  0  0  0  0
   35.1260   22.2780   32.9020 H   0  0  0  0  0  0  0  0  0  0  0  0
   35.4760   20.1800   32.3410 C   0  0  0  0  0  0  0  0  0  0  0  0
   34.0710   20.1490   31.8080 C   0  0  0  0  0  1  0  0  0  0  0  0
   35.7470   18.9220   33.1400 C   0  0  0  0  0  1  0  0  0  0  0  0
   36.3850   20.1250   31.1270 C   0  0  0  0  0  1  0  0  0  0  0  0
  1  8  1  0  0  0  0
  2  6  1  0  0  0  0
  2  1  2  0  0  0  0
  3  2  1  0  0  0  0
  4  3  2  0  0  0  0
  4  5  1  0  0  0  0
  5 17  1  0  0  0  0
  5  1  1  0  0  0  0
  7  4  1  0  0  0  0
  8  9  2  0  0  0  0
  8 13  1  0  0  0  0
  9 10  1  0  0  0  0
 10 15  1  0  0  0  0
 10 11  2  0  0  0  0
 12 11  1  0  0  0  0
 12 16  1  0  0  0  0
 13 12  2  0  0  0  0
 14  9  1  0  0  0  0
 17 20  1  6  0  0  0
 17 18  1  0  0  0  0
 18 22  1  0  0  0  0
 18 21  1  0  0  0  0
 19 23  1  6  0  0  0
 19 17  1  0  0  0  0
 19 18  1  0  0  0  0
 24 19  1  0  0  0  0
 24 26  1  0  0  0  0
 25 24  1  0  0  0  0
 27 24  1  0  0  0  0
M  END
>  <minimizedAffinity>
-4.30881739

>  <minimizedRMSD>
0.998561025

$$$$
