
 OpenBabel03262519553D

 27 29  0  0  1  0  0  0  0  0999 V2000
   38.2130   24.3010   34.6320 C   0  0  0  0  0  0  0  0  0  0  0  0
   38.2720   25.6030   34.1660 C   0  0  0  0  0  0  0  0  0  0  0  0
   37.9300   25.4840   32.8450 N   0  0  0  0  0  0  0  0  0  0  0  0
   37.6940   24.2010   32.5940 C   0  0  0  0  0  0  0  0  0  0  0  0
   37.8620   23.4310   33.6970 N   0  0  0  0  0  0  0  0  0  0  0  0
   38.5340   26.4930   34.7330 H   0  0  0  0  0  0  0  0  0  0  0  0
   37.3980   23.8310   31.6030 H   0  0  0  0  0  0  0  0  0  0  0  0
   38.5020   23.9020   36.0160 C   0  0  0  0  0  0  0  0  0  0  0  0
   39.6790   23.2210   36.3240 C   0  0  0  0  0  0  0  0  0  0  0  0
   39.9140   22.8580   37.6670 C   0  0  0  0  0  0  0  0  0  0  0  0
   38.9720   23.1970   38.5780 N   0  0  0  0  0  0  0  0  0  0  0  0
   37.8410   23.8550   38.2570 C   0  0  0  0  0  0  0  0  0  0  0  0
   37.5990   24.2110   36.9760 N   0  0  0  0  0  0  0  0  0  0  0  0
   40.3950   22.9790   35.5490 H   0  0  0  0  0  0  0  0  0  0  0  0
   40.8250   22.3270   37.9310 H   0  0  0  0  0  0  0  0  0  0  0  0
   37.0930   24.1190   39.0060 H   0  0  0  0  0  0  0  0  0  0  0  0
   37.6730   22.0130   33.7080 C   0  0  1  0  0  0  0  0  0  0  0  0
   36.6660   21.3570   34.5460 C   0  0  0  0  0  0  0  0  0  0  0  0
   36.3380   21.5860   33.0960 C   0  0  2  0  0  0  0  0  0  0  0  0
   38.5390   21.4650   33.2520 H   0  0  0  0  0  0  0  0  0  0  0  0
   36.1480   22.0400   35.2720 H   0  0  0  0  0  0  0  0  0  0  0  0
   36.8490   20.3700   34.9650 H   0  0  0  0  0  0  0  0  0  0  0  0
   35.5980   22.3480   32.8530 H   0  0  0  0  0  0  0  0  0  0  0  0
   36.2660   20.3330   32.2790 C   0  0  0  0  0  0  0  0  0  0  0  0
   35.7190   20.5520   30.8960 C   0  0  0  0  0  1  0  0  0  0  0  0
   35.5090   19.2080   32.9540 C   0  0  0  0  0  1  0  0  0  0  0  0
   37.6900   19.8450   32.0920 C   0  0  0  0  0  1  0  0  0  0  0  0
  1  8  1  0  0  0  0
  2  1  2  0  0  0  0
  2  6  1  0  0  0  0
  3  2  1  0  0  0  0
  4  3  2  0  0  0  0
  4  5  1  0  0  0  0
  5 17  1  0  0  0  0
  5  1  1  0  0  0  0
  7  4  1  0  0  0  0
  8  9  2  0  0  0  0
  8 13  1  0  0  0  0
  9 10  1  0  0  0  0
 10 15  1  0  0  0  0
 10 11  2  0  0  0  0
 12 11  1  0  0  0  0
 12 16  1  0  0  0  0
 13 12  2  0  0  0  0
 14  9  1  0  0  0  0
 17 20  1  6  0  0  0
 17 18  1  0  0  0  0
 18 22  1  0  0  0  0
 18 21  1  0  0  0  0
 19 23  1  6  0  0  0
 19 17  1  0  0  0  0
 19 18  1  0  0  0  0
 24 26  1  0  0  0  0
 24 19  1  0  0  0  0
 25 24  1  0  0  0  0
 27 24  1  0  0  0  0
M  END
>  <minimizedAffinity>
-4.565588

>  <minimizedRMSD>
1.18353605

$$$$
