REMARK  Name = 
REMARK  6 active torsions:
REMARK  status: ('A' for Active; 'I' for Inactive)
REMARK    1  A    between atoms: C_1  and  C_6
REMARK    2  A    between atoms: N_5  and  C_12
REMARK    3  A    between atoms: C_14  and  C_24
REMARK    4  A    between atoms: C_24  and  C_25
REMARK    5  A    between atoms: C_24  and  C_26
REMARK    6  A    between atoms: C_24  and  C_27
REMARK                            x       y       z     vdW  Elec       q    Type
REMARK                         _______ _______ _______ _____ _____    ______ ____
ROOT
ATOM      1  C   UNL     1      38.030  23.473  34.610  0.00  0.00    +0.000 A 
ATOM      2  C   UNL     1      38.263  24.570  33.799  0.00  0.00    +0.000 A 
ATOM      3  N   UNL     1      37.763  24.181  32.585  0.00  0.00    +0.000 NA
ATOM      4  C   UNL     1      37.282  22.949  32.713  0.00  0.00    +0.000 A 
ATOM      5  N   UNL     1      37.434  22.475  33.974  0.00  0.00    +0.000 N 
ATOM      6  H   UNL     1      38.735  25.508  34.081  0.00  0.00    +0.000 HD
ATOM      7  H   UNL     1      36.820  22.399  31.882  0.00  0.00    +0.000 HD
ENDROOT
BRANCH   1   8
ATOM      8  C   UNL     1      38.395  23.400  36.031  0.00  0.00    +0.000 A 
ATOM      9  C   UNL     1      39.593  22.804  36.423  0.00  0.00    +0.000 A 
ATOM     10  C   UNL     1      39.902  22.757  37.799  0.00  0.00    +0.000 A 
ATOM     11  N   UNL     1      39.006  23.297  38.657  0.00  0.00    +0.000 NA
ATOM     12  C   UNL     1      37.854  23.868  38.255  0.00  0.00    +0.000 A 
ATOM     13  N   UNL     1      37.541  23.923  36.941  0.00  0.00    +0.000 NA
ATOM     14  H   UNL     1      40.270  22.389  35.687  0.00  0.00    +0.000 HD
ATOM     15  H   UNL     1      40.830  22.297  38.128  0.00  0.00    +0.000 HD
ATOM     16  H   UNL     1      37.144  24.298  38.963  0.00  0.00    +0.000 HD
ENDBRANCH   1   8
BRANCH   5  17
ATOM     17  C   UNL     1      37.005  21.175  34.388  0.00  0.00    +0.000 C 
ATOM     18  C   UNL     1      35.842  20.966  35.254  0.00  0.00    +0.000 C 
ATOM     19  C   UNL     1      35.665  20.767  33.773  0.00  0.00    +0.000 C 
ATOM     20  H   UNL     1      37.795  20.395  34.228  0.00  0.00    +0.000 HD
ATOM     21  H   UNL     1      35.397  21.909  35.671  0.00  0.00    +0.000 HD
ATOM     22  H   UNL     1      35.822  20.147  35.970  0.00  0.00    +0.000 HD
ATOM     23  H   UNL     1      35.086  21.509  33.223  0.00  0.00    +0.000 HD
BRANCH  19  24
ATOM     24  C   UNL     1      35.439  19.343  33.369  0.00  0.00    +0.000 C 
ATOM     25  C   UNL     1      36.705  18.536  33.293  0.00  0.00    +0.000 C 
ATOM     26  C   UNL     1      34.659  19.191  32.080  0.00  0.00    +0.000 C 
ATOM     27  C   UNL     1      34.600  18.703  34.460  0.00  0.00    +0.000 C 
ENDBRANCH  19  24
ENDBRANCH   5  17
TORSDOF 3
