
 OpenBabel03262514263D

 27 28  0  0  1  0  0  0  0  0999 V2000
   40.3340   23.0440   35.2230 C   0  0  2  0  0  0  0  0  0  0  0  0
   40.7230   22.0110   35.3760 H   0  0  0  0  0  0  0  0  0  0  0  0
   38.6410   24.5670   36.2400 C   0  0  0  0  0  0  0  0  0  0  0  0
   39.5580   23.5040   36.3280 C   0  0  0  0  0  0  0  0  0  0  0  0
   39.6370   22.8450   37.5510 C   0  0  0  0  0  0  0  0  0  0  0  0
   38.8270   23.2550   38.6040 N   0  0  0  0  0  0  0  0  0  0  0  0
   37.9720   24.2790   38.4500 C   0  0  0  0  0  0  0  0  0  0  0  0
   37.8690   24.9370   37.2850 N   0  0  0  0  0  0  0  0  0  0  0  0
   40.4990   21.7620   37.8190 N   0  0  0  0  0  0  0  0  0  0  0  0
   38.5690   25.1210   35.2820 H   0  0  0  0  0  0  0  0  0  0  0  0
   37.3440   24.6390   39.2370 H   0  0  0  0  0  0  0  0  0  0  0  0
   41.3710   21.9750   38.3720 H   0  0  0  0  0  0  0  0  0  0  0  0
   40.2750   20.7750   37.4910 H   0  0  0  0  0  0  0  0  0  0  0  0
   41.6770   23.8670   35.2420 C   0  0  0  0  0  0  0  0  0  0  0  0
   42.4090   23.4090   35.9110 H   0  0  0  0  0  0  0  0  0  0  0  0
   42.0020   23.8780   34.1670 H   0  0  0  0  0  0  0  0  0  0  0  0
   41.3930   24.8810   35.5210 H   0  0  0  0  0  0  0  0  0  0  0  0
   39.6880   23.1680   33.9170 C   0  0  0  0  0  0  0  0  0  0  0  0
   40.5000   22.9280   33.1430 H   0  0  0  0  0  0  0  0  0  0  0  0
   39.3780   24.2030   33.6460 H   0  0  0  0  0  0  0  0  0  0  0  0
   38.4080   21.9380   33.6700 S   0  0  0  0  0  0  0  0  0  0  0  0
   37.1090   22.6800   32.6640 C   0  0  0  0  0  0  0  0  0  0  0  0
   35.9380   22.4070   32.0700 N   0  0  0  0  0  0  0  0  0  0  0  0
   35.4470   23.5250   31.5670 O   0  0  0  0  0  0  0  0  0  0  0  0
   36.2520   24.5410   31.8000 C   0  0  0  0  0  0  0  0  0  0  0  0
   36.2770   25.6190   31.5860 H   0  0  0  0  0  0  0  0  0  0  0  0
   37.3050   24.0130   32.4910 N   0  0  0  0  0  0  0  0  0  0  0  0
  1 14  1  0  0  0  0
  1  2  1  1  0  0  0
  1  4  1  0  0  0  0
  3  4  2  0  0  0  0
  3  8  1  0  0  0  0
  4  5  1  0  0  0  0
  5  9  1  0  0  0  0
  5  6  2  0  0  0  0
  7  6  1  0  0  0  0
  7 11  1  0  0  0  0
  8  7  2  0  0  0  0
  9 12  1  0  0  0  0
 10  3  1  0  0  0  0
 13  9  1  0  0  0  0
 14 17  1  0  0  0  0
 14 15  1  0  0  0  0
 16 14  1  0  0  0  0
 18  1  1  0  0  0  0
 19 18  1  0  0  0  0
 20 18  1  0  0  0  0
 21 18  1  0  0  0  0
 22 21  1  0  0  0  0
 23 22  2  0  0  0  0
 24 25  1  0  0  0  0
 24 23  1  0  0  0  0
 25 27  2  0  0  0  0
 26 25  1  0  0  0  0
 27 22  1  0  0  0  0
M  END
>  <minimizedAffinity>
-4.30387592

>  <minimizedRMSD>
0.379353911

$$$$
