
 OpenBabel03262519553D

 27 29  0  0  1  0  0  0  0  0999 V2000
   38.1300   24.0250   34.1860 C   0  0  0  0  0  0  0  0  0  0  0  0
   38.2610   25.3050   33.6750 C   0  0  0  0  0  0  0  0  0  0  0  0
   37.7740   25.1910   32.4000 N   0  0  0  0  0  0  0  0  0  0  0  0
   37.3960   23.9310   32.2140 C   0  0  0  0  0  0  0  0  0  0  0  0
   37.6050   23.1720   33.3180 N   0  0  0  0  0  0  0  0  0  0  0  0
   38.6600   26.1780   34.1850 H   0  0  0  0  0  0  0  0  0  0  0  0
   36.9660   23.5700   31.2700 H   0  0  0  0  0  0  0  0  0  0  0  0
   38.5220   23.6300   35.5450 C   0  0  0  0  0  0  0  0  0  0  0  0
   39.7590   23.0290   35.7770 C   0  0  0  0  0  0  0  0  0  0  0  0
   40.0930   22.6670   37.0990 C   0  0  0  0  0  0  0  0  0  0  0  0
   39.1820   22.9270   38.0650 N   0  0  0  0  0  0  0  0  0  0  0  0
   37.9920   23.5080   37.8170 C   0  0  0  0  0  0  0  0  0  0  0  0
   37.6540   23.8630   36.5570 N   0  0  0  0  0  0  0  0  0  0  0  0
   40.4460   22.8480   34.9600 H   0  0  0  0  0  0  0  0  0  0  0  0
   41.0510   22.1980   37.3040 H   0  0  0  0  0  0  0  0  0  0  0  0
   37.2700   23.7090   38.6100 H   0  0  0  0  0  0  0  0  0  0  0  0
   37.2890   21.7790   33.3920 C   0  0  1  0  0  0  0  0  0  0  0  0
   36.3740   21.2300   34.3950 C   0  0  0  0  0  0  0  0  0  0  0  0
   35.8380   21.4780   33.0110 C   0  0  2  0  0  0  0  0  0  0  0  0
   38.0140   21.1460   32.8150 H   0  0  0  0  0  0  0  0  0  0  0  0
   36.0460   21.9650   35.1780 H   0  0  0  0  0  0  0  0  0  0  0  0
   36.5280   20.2330   34.8020 H   0  0  0  0  0  0  0  0  0  0  0  0
   35.1430   22.3060   32.8720 H   0  0  0  0  0  0  0  0  0  0  0  0
   35.5170   20.2310   32.2460 C   0  0  0  0  0  0  0  0  0  0  0  0
   36.4270   20.0000   31.0720 C   0  0  0  0  0  1  0  0  0  0  0  0
   34.0730   20.1450   31.7970 C   0  0  0  0  0  1  0  0  0  0  0  0
   35.7470   19.0640   33.1880 C   0  0  0  0  0  1  0  0  0  0  0  0
  1  8  1  0  0  0  0
  2  6  1  0  0  0  0
  2  1  2  0  0  0  0
  3  2  1  0  0  0  0
  4  3  2  0  0  0  0
  4  5  1  0  0  0  0
  5 17  1  0  0  0  0
  5  1  1  0  0  0  0
  7  4  1  0  0  0  0
  8  9  2  0  0  0  0
  8 13  1  0  0  0  0
  9 10  1  0  0  0  0
 10 15  1  0  0  0  0
 10 11  2  0  0  0  0
 12 11  1  0  0  0  0
 12 16  1  0  0  0  0
 13 12  2  0  0  0  0
 14  9  1  0  0  0  0
 17 20  1  6  0  0  0
 17 18  1  0  0  0  0
 18 22  1  0  0  0  0
 18 21  1  0  0  0  0
 19 23  1  6  0  0  0
 19 17  1  0  0  0  0
 19 18  1  0  0  0  0
 24 19  1  0  0  0  0
 24 27  1  0  0  0  0
 25 24  1  0  0  0  0
 26 24  1  0  0  0  0
M  END
>  <minimizedAffinity>
-4.27180243

>  <minimizedRMSD>
1.07015932

$$$$
