
 OpenBabel03262519353D

 28 29  0  0  1  0  0  0  0  0999 V2000
   38.0160   24.2620   34.9530 N   0  0  0  0  0  0  0  0  0  0  0  0
   38.3590   25.3720   34.0900 C   0  0  0  0  0  0  0  0  0  0  0  0
   38.6310   26.5360   35.0220 C   0  0  0  0  0  0  0  0  0  0  0  0
   38.1960   25.9740   36.3710 C   0  0  0  0  0  0  0  0  0  0  0  0
   38.6740   24.5200   36.1280 C   0  0  1  0  0  0  0  0  0  0  0  0
   39.2300   25.0960   33.4730 H   0  0  0  0  0  0  0  0  0  0  0  0
   37.5130   25.6490   33.4250 H   0  0  0  0  0  0  0  0  0  0  0  0
   39.7060   26.7250   35.0100 H   0  0  0  0  0  0  0  0  0  0  0  0
   38.0000   27.4210   34.8070 H   0  0  0  0  0  0  0  0  0  0  0  0
   37.1110   26.0240   36.5060 H   0  0  0  0  0  0  0  0  0  0  0  0
   38.7990   26.4990   37.1070 H   0  0  0  0  0  0  0  0  0  0  0  0
   39.7830   24.6180   35.9330 H   0  0  0  0  0  0  0  0  0  0  0  0
   38.4740   23.8740   37.4210 C   0  0  0  0  0  0  0  0  0  0  0  0
   38.0970   24.7250   38.5920 C   0  0  0  0  0  0  0  0  0  0  0  0
   37.2460   22.9700   37.2130 C   0  0  0  0  0  0  0  0  0  0  0  0
   39.5280   22.8550   37.8010 C   0  0  0  0  0  0  0  0  0  0  0  0
   38.4280   23.0150   34.3630 C   0  0  0  0  0  0  0  0  0  0  0  0
   39.2270   23.2730   33.6050 H   0  0  0  0  0  0  0  0  0  0  0  0
   38.9140   22.3060   35.0420 H   0  0  0  0  0  0  0  0  0  0  0  0
   35.6240   20.6750   33.4390 C   0  0  0  0  0  0  0  0  0  0  0  0
   36.6450   21.2810   34.1740 C   0  0  0  0  0  0  0  0  0  0  0  0
   37.3340   22.3500   33.6090 C   0  0  0  0  0  0  0  0  0  0  0  0
   36.9860   22.7690   32.3530 N   0  0  0  0  0  0  0  0  0  0  0  0
   35.9850   22.1560   31.6610 C   0  0  0  0  0  0  0  0  0  0  0  0
   35.3190   21.1210   32.2080 N   0  0  0  0  0  0  0  0  0  0  0  0
   35.1420   19.8450   33.9650 H   0  0  0  0  0  0  0  0  0  0  0  0
   36.9160   20.9470   35.1660 H   0  0  0  0  0  0  0  0  0  0  0  0
   35.6990   22.4750   30.6660 H   0  0  0  0  0  0  0  0  0  0  0  0
  1  5  1  0  0  0  0
  2  1  1  0  0  0  0
  2  3  1  0  0  0  0
  3  4  1  0  0  0  0
  4 10  1  0  0  0  0
  4 11  1  0  0  0  0
  5 12  1  6  0  0  0
  5  4  1  0  0  0  0
  5 13  1  0  0  0  0
  6  2  1  0  0  0  0
  7  2  1  0  0  0  0
  8  3  1  0  0  0  0
  9  3  1  0  0  0  0
 13 16  1  0  0  0  0
 13 14  1  0  0  0  0
 15 13  1  0  0  0  0
 17  1  1  0  0  0  0
 17 19  1  0  0  0  0
 18 17  1  0  0  0  0
 20 26  1  0  0  0  0
 20 21  1  0  0  0  0
 21 27  1  0  0  0  0
 22 21  2  0  0  0  0
 22 17  1  0  0  0  0
 23 22  1  0  0  0  0
 24 25  1  0  0  0  0
 24 23  2  0  0  0  0
 25 20  2  0  0  0  0
 28 24  1  0  0  0  0
M  END
>  <minimizedAffinity>
-4.31231642

>  <minimizedRMSD>
4.5926218

$$$$
