
 OpenBabel03262519553D

 27 29  0  0  1  0  0  0  0  0999 V2000
   38.8810   25.7260   32.5580 C   0  0  0  0  0  0  0  0  0  0  0  0
   37.8920   25.6010   31.5980 C   0  0  0  0  0  0  0  0  0  0  0  0
   38.5930   25.5210   30.4250 N   0  0  0  0  0  0  0  0  0  0  0  0
   39.8880   25.5960   30.7130 C   0  0  0  0  0  0  0  0  0  0  0  0
   40.1040   25.7240   32.0460 N   0  0  0  0  0  0  0  0  0  0  0  0
   36.8170   25.5760   31.7610 H   0  0  0  0  0  0  0  0  0  0  0  0
   40.6740   25.5550   29.9470 H   0  0  0  0  0  0  0  0  0  0  0  0
   38.6280   25.8480   34.0000 C   0  0  0  0  0  0  0  0  0  0  0  0
   38.7130   27.0890   34.6300 C   0  0  0  0  0  0  0  0  0  0  0  0
   38.4610   27.1580   36.0160 C   0  0  0  0  0  0  0  0  0  0  0  0
   38.1520   26.0030   36.6510 N   0  0  0  0  0  0  0  0  0  0  0  0
   38.0750   24.8150   36.0210 C   0  0  0  0  0  0  0  0  0  0  0  0
   38.3130   24.7290   34.6930 N   0  0  0  0  0  0  0  0  0  0  0  0
   38.9650   27.9780   34.0660 H   0  0  0  0  0  0  0  0  0  0  0  0
   38.5210   28.1140   36.5290 H   0  0  0  0  0  0  0  0  0  0  0  0
   37.8250   23.8950   36.5510 H   0  0  0  0  0  0  0  0  0  0  0  0
   41.4040   25.8270   32.6310 C   0  0  1  0  0  0  0  0  0  0  0  0
   41.8590   24.9390   33.7040 C   0  0  0  0  0  0  0  0  0  0  0  0
   42.3020   24.6330   32.2980 C   0  0  2  0  0  0  0  0  0  0  0  0
   41.9020   26.8040   32.3960 H   0  0  0  0  0  0  0  0  0  0  0  0
   41.0640   24.2630   34.1170 H   0  0  0  0  0  0  0  0  0  0  0  0
   42.5370   25.3000   34.4750 H   0  0  0  0  0  0  0  0  0  0  0  0
   41.8680   23.7650   31.8030 H   0  0  0  0  0  0  0  0  0  0  0  0
   43.7630   24.8510   32.0550 C   0  0  0  0  0  0  0  0  0  0  0  0
   44.5560   25.0410   33.3180 C   0  0  0  0  0  1  0  0  0  0  0  0
   44.0600   25.9820   31.0910 C   0  0  0  0  0  1  0  0  0  0  0  0
   44.2970   23.5850   31.4130 C   0  0  0  0  0  1  0  0  0  0  0  0
  1  8  1  0  0  0  0
  2  6  1  0  0  0  0
  2  1  2  0  0  0  0
  3  4  2  0  0  0  0
  3  2  1  0  0  0  0
  4  5  1  0  0  0  0
  5  1  1  0  0  0  0
  5 17  1  0  0  0  0
  7  4  1  0  0  0  0
  8  9  2  0  0  0  0
  8 13  1  0  0  0  0
  9 10  1  0  0  0  0
 10 15  1  0  0  0  0
 10 11  2  0  0  0  0
 12 16  1  0  0  0  0
 12 11  1  0  0  0  0
 13 12  2  0  0  0  0
 14  9  1  0  0  0  0
 17 20  1  6  0  0  0
 17 18  1  0  0  0  0
 18 21  1  0  0  0  0
 18 22  1  0  0  0  0
 19 23  1  6  0  0  0
 19 17  1  0  0  0  0
 19 18  1  0  0  0  0
 24 19  1  0  0  0  0
 24 25  1  0  0  0  0
 26 24  1  0  0  0  0
 27 24  1  0  0  0  0
M  END
>  <minimizedAffinity>
-2.72692013

>  <minimizedRMSD>
6.55267715

$$$$
