
 OpenBabel03262519563D

 27 29  0  0  1  0  0  0  0  0999 V2000
   38.0680   23.3240   35.3820 C   0  0  0  0  0  0  0  0  0  0  0  0
   37.5430   22.7210   36.5110 C   0  0  0  0  0  0  0  0  0  0  0  0
   37.5560   23.7240   37.4440 N   0  0  0  0  0  0  0  0  0  0  0  0
   38.0550   24.8140   36.8700 C   0  0  0  0  0  0  0  0  0  0  0  0
   38.3860   24.5960   35.5730 N   0  0  0  0  0  0  0  0  0  0  0  0
   37.2070   21.6920   36.6110 H   0  0  0  0  0  0  0  0  0  0  0  0
   38.1750   25.7670   37.4020 H   0  0  0  0  0  0  0  0  0  0  0  0
   38.2600   22.6460   34.0930 C   0  0  0  0  0  0  0  0  0  0  0  0
   39.4330   21.9360   33.8360 C   0  0  0  0  0  0  0  0  0  0  0  0
   39.5730   21.3010   32.5840 C   0  0  0  0  0  0  0  0  0  0  0  0
   38.5520   21.4240   31.7050 N   0  0  0  0  0  0  0  0  0  0  0  0
   37.4280   22.1160   31.9750 C   0  0  0  0  0  0  0  0  0  0  0  0
   37.2750   22.7310   33.1690 N   0  0  0  0  0  0  0  0  0  0  0  0
   40.2150   21.8740   34.5820 H   0  0  0  0  0  0  0  0  0  0  0  0
   40.4790   20.7420   32.3620 H   0  0  0  0  0  0  0  0  0  0  0  0
   36.6160   22.2030   31.2530 H   0  0  0  0  0  0  0  0  0  0  0  0
   38.9450   25.5990   34.7210 C   0  0  1  0  0  0  0  0  0  0  0  0
   39.5530   26.8270   35.2390 C   0  0  0  0  0  0  0  0  0  0  0  0
   40.4670   25.7000   34.8400 C   0  0  2  0  0  0  0  0  0  0  0  0
   38.6150   25.4840   33.6550 H   0  0  0  0  0  0  0  0  0  0  0  0
   39.4270   26.9780   36.3450 H   0  0  0  0  0  0  0  0  0  0  0  0
   39.4820   27.7600   34.6830 H   0  0  0  0  0  0  0  0  0  0  0  0
   40.9750   25.1490   35.6320 H   0  0  0  0  0  0  0  0  0  0  0  0
   41.2880   25.9810   33.6200 C   0  0  0  0  0  0  0  0  0  0  0  0
   41.3170   27.4360   33.2400 C   0  0  0  0  0  1  0  0  0  0  0  0
   40.8980   25.1480   32.4160 C   0  0  0  0  0  1  0  0  0  0  0  0
   42.7200   25.6090   33.9570 C   0  0  0  0  0  1  0  0  0  0  0  0
  1  5  1  0  0  0  0
  1  2  2  0  0  0  0
  2  6  1  0  0  0  0
  2  3  1  0  0  0  0
  4  7  1  0  0  0  0
  4  3  2  0  0  0  0
  5  4  1  0  0  0  0
  8  1  1  0  0  0  0
  9  8  1  0  0  0  0
  9 14  1  0  0  0  0
 10  9  2  0  0  0  0
 11 12  2  0  0  0  0
 11 10  1  0  0  0  0
 12 13  1  0  0  0  0
 13  8  2  0  0  0  0
 15 10  1  0  0  0  0
 16 12  1  0  0  0  0
 17 20  1  6  0  0  0
 17 19  1  0  0  0  0
 17 18  1  0  0  0  0
 17  5  1  0  0  0  0
 18 21  1  0  0  0  0
 19 18  1  0  0  0  0
 19 23  1  1  0  0  0
 22 18  1  0  0  0  0
 24 27  1  0  0  0  0
 24 19  1  0  0  0  0
 25 24  1  0  0  0  0
 26 24  1  0  0  0  0
M  END
>  <minimizedAffinity>
-3.7906251

>  <minimizedRMSD>
6.27453899

$$$$
