
 OpenBabel03262518563D

 26 28  0  0  0  0  0  0  0  0999 V2000
   37.9460   23.3260   33.8460 N   0  0  0  0  0  0  0  0  0  0  0  0
   37.9740   23.1290   32.5050 C   0  0  0  0  0  0  0  0  0  0  0  0
   38.2350   24.3030   31.9060 N   0  0  0  0  0  0  0  0  0  0  0  0
   38.3820   25.2830   32.8230 C   0  0  0  0  0  0  0  0  0  0  0  0
   38.6530   26.6310   32.7080 C   0  0  0  0  0  0  0  0  0  0  0  0
   38.8010   27.0910   31.5510 O   0  0  0  0  0  0  0  0  0  0  0  0
   38.7400   27.3600   33.8420 N   0  0  0  0  0  0  0  0  0  0  0  0
   38.5610   26.7450   35.0160 C   0  0  0  0  0  0  0  0  0  0  0  0
   38.6570   27.5290   36.1890 N   0  0  0  0  0  0  0  0  0  0  0  0
   38.2920   25.4140   35.1400 N   0  0  0  0  0  0  0  0  0  0  0  0
   38.1950   24.6360   34.0240 C   0  0  0  0  0  0  0  0  0  0  0  0
   38.9420   28.3630   33.7270 H   0  0  0  0  0  0  0  0  0  0  0  0
   37.7130   27.9290   36.3560 H   0  0  0  0  0  0  0  0  0  0  0  0
   39.2660   27.8740   36.9480 H   0  0  0  0  0  0  0  0  0  0  0  0
   37.7000   22.3230   34.8300 C   0  0  0  0  0  0  0  0  0  0  0  0
   38.0430   21.3150   34.5230 H   0  0  0  0  0  0  0  0  0  0  0  0
   36.5860   22.2320   34.9240 H   0  0  0  0  0  0  0  0  0  0  0  0
   39.9960   22.7580   37.6660 C   0  0  0  0  0  0  0  0  0  0  0  0
   39.1770   23.2420   38.6970 C   0  0  0  0  0  0  0  0  0  0  0  0
   37.8060   23.4160   38.3870 C   0  0  0  0  0  0  0  0  0  0  0  0
   37.3540   23.1130   37.1320 N   0  0  0  0  0  0  0  0  0  0  0  0
   38.2090   22.6480   36.1880 C   0  0  0  0  0  0  0  0  0  0  0  0
   39.5050   22.4710   36.4430 N   0  0  0  0  0  0  0  0  0  0  0  0
   41.0230   22.6350   37.9260 H   0  0  0  0  0  0  0  0  0  0  0  0
   39.5750   23.4690   39.6700 H   0  0  0  0  0  0  0  0  0  0  0  0
   37.1400   23.7880   39.1530 H   0  0  0  0  0  0  0  0  0  0  0  0
  1 11  1  0  0  0  0
  1 15  1  0  0  0  0
  2  1  1  0  0  0  0
  3  2  2  0  0  0  0
  3  4  1  0  0  0  0
  4 11  2  0  0  0  0
  5  4  1  0  0  0  0
  5  7  1  0  0  0  0
  6  5  2  0  0  0  0
  7  8  1  0  0  0  0
  8 10  2  0  0  0  0
  8  9  1  0  0  0  0
  9 13  1  0  0  0  0
  9 14  1  0  0  0  0
 11 10  1  0  0  0  0
 12  7  1  0  0  0  0
 15 17  1  0  0  0  0
 15 22  1  0  0  0  0
 16 15  1  0  0  0  0
 18 24  1  0  0  0  0
 18 19  1  0  0  0  0
 19 25  1  0  0  0  0
 20 19  2  0  0  0  0
 20 26  1  0  0  0  0
 21 20  1  0  0  0  0
 22 23  1  0  0  0  0
 22 21  2  0  0  0  0
 23 18  2  0  0  0  0
M  END
>  <minimizedAffinity>
-4.82903814

>  <minimizedRMSD>
0.635701537

$$$$
