
     RDKit          3D

 40 43  0  0  0  0  0  0  0  0999 V2000
   37.8958   25.6430   34.3606 N   0  0  0  0  0  0  0  0  0  0  0  0
   37.3638   25.3251   33.0726 C   0  0  0  0  0  0  0  0  0  0  0  0
   36.7485   26.6024   32.5610 C   0  0  0  0  0  0  0  0  0  0  0  0
   37.0175   27.6210   33.6780 C   0  0  0  0  0  0  0  0  0  0  0  0
   38.3405   27.0183   34.2159 C   0  0  2  0  0  0  0  0  0  0  0  0
   39.0577   24.8887   34.7261 C   0  0  0  0  0  0  0  0  0  0  0  0
   37.9275   24.1919   38.2755 C   0  0  0  0  0  0  0  0  0  0  0  0
   37.9940   24.7451   36.9884 C   0  0  0  0  0  0  0  0  0  0  0  0
   38.9687   24.3173   36.0929 C   0  0  0  0  0  0  0  0  0  0  0  0
   39.8299   23.3527   36.5369 N   0  0  0  0  0  0  0  0  0  0  0  0
   39.7511   22.8356   37.7707 C   0  0  0  0  0  0  0  0  0  0  0  0
   38.8073   23.2555   38.6257 N   0  0  0  0  0  0  0  0  0  0  0  0
   39.3736   27.1673   33.3497 O   0  0  0  0  0  0  0  0  0  0  0  0
   38.1885   25.0149   32.3986 H   0  0  0  0  0  0  0  0  0  0  0  0
   36.6245   24.4884   33.1025 H   0  0  0  0  0  0  0  0  0  0  0  0
   35.6867   26.4877   32.3402 H   0  0  0  0  0  0  0  0  0  0  0  0
   37.2589   26.9503   31.6170 H   0  0  0  0  0  0  0  0  0  0  0  0
   36.2312   27.5306   34.4278 H   0  0  0  0  0  0  0  0  0  0  0  0
   37.1818   28.6388   33.2841 H   0  0  0  0  0  0  0  0  0  0  0  0
   38.4707   27.4161   35.2476 H   0  0  0  0  0  0  0  0  0  0  0  0
   40.0080   25.4475   34.6650 H   0  0  0  0  0  0  0  0  0  0  0  0
   39.1579   24.0391   34.0178 H   0  0  0  0  0  0  0  0  0  0  0  0
   37.1159   24.6285   38.8516 H   0  0  0  0  0  0  0  0  0  0  0  0
   37.3304   25.4987   36.6245 H   0  0  0  0  0  0  0  0  0  0  0  0
   40.4291   22.0724   38.1282 H   0  0  0  0  0  0  0  0  0  0  0  0
   40.6072   27.7390   33.5002 C   0  0  0  0  0  0  0  0  0  0  0  0
   41.1136   28.3236   34.6149 N   0  0  0  0  0  0  0  0  0  0  0  0
   42.3644   28.8531   34.6164 C   0  0  0  0  0  0  0  0  0  0  0  0
   43.1914   28.8448   33.5393 N   0  0  0  0  0  0  0  0  0  0  0  0
   42.7053   28.2679   32.4221 C   0  0  0  0  0  0  0  0  0  0  0  0
   43.4962   28.2269   31.2926 C   0  0  0  0  0  0  0  0  0  0  0  0
   43.0357   27.6457   30.1300 C   0  0  0  0  0  0  0  0  0  0  0  0
   43.6576   27.6125   29.2386 H   0  0  0  0  0  0  0  0  0  0  0  0
   41.7630   27.0780   30.0409 C   0  0  0  0  0  0  0  0  0  0  0  0
   41.3609   26.6120   29.1504 H   0  0  0  0  0  0  0  0  0  0  0  0
   41.0243   27.1524   31.2044 C   0  0  0  0  0  0  0  0  0  0  0  0
   41.4355   27.7174   32.3814 C   0  0  0  0  0  0  0  0  0  0  0  0
   42.7235   29.3080   35.5279 H   0  0  0  0  0  0  0  0  0  0  0  0
   44.4940   28.6334   31.2461 H   0  0  0  0  0  0  0  0  0  0  0  0
   40.0184   26.7077   31.1465 H   0  0  0  0  0  0  0  0  0  0  0  0
  1  6  1  0
  2  1  1  0
  3  2  1  0
  3  4  1  0
  4  5  1  0
  5  1  1  0
  6  9  1  0
  7 12  2  0
  8  7  1  0
  9 10  1  0
  9  8  2  0
 10 11  2  0
 11 12  1  0
 13  5  1  0
  2 14  1  0
  2 15  1  0
  3 16  1  0
  3 17  1  0
  4 18  1  0
  4 19  1  0
  5 20  1  1
  6 21  1  0
  6 22  1  0
  7 23  1  0
  8 24  1  0
 11 25  1  0
 26 27  2  0
 27 28  1  0
 28 29  2  0
 29 30  1  0
 30 31  2  0
 31 32  1  0
 32 33  1  0
 32 34  2  0
 34 35  1  0
 34 36  1  0
 36 37  2  0
 37 26  1  0
 37 30  1  0
 28 38  1  0
 31 39  1  0
 36 40  1  0
 13 26  1  0
M  ISO  8  14  13  15  13  16  13  17  13  18  13  19  13  20  13  21   8
M  ISO  6  22   8  23  14  24  14  25  14  33  16  35  16
M  END
>  <DihAtoms>  (1) 
4,12,25,26

>  <DihDeg>  (1) 
-2.8026336209640133e-06

$$$$
