REMARK  Name = 
REMARK  4 active torsions:
REMARK  status: ('A' for Active; 'I' for Inactive)
REMARK    1  A    between atoms: C_1  and  C_6
REMARK    2  A    between atoms: N_5  and  C_12
REMARK    3  A    between atoms: C_14  and  N_24
REMARK    4  A    between atoms: C_28  and  N_29
REMARK                            x       y       z     vdW  Elec       q    Type
REMARK                         _______ _______ _______ _____ _____    ______ ____
ROOT
ATOM      1  C   UNL     1      37.005  21.174  34.386  0.00  0.00    +0.000 C 
ATOM      2  C   UNL     1      35.850  20.960  35.259  0.00  0.00    +0.000 C 
ATOM      3  C   UNL     1      35.663  20.771  33.773  0.00  0.00    +0.000 C 
ATOM      4  H   UNL     1      37.811  20.393  34.353  0.00  0.00    +0.000 HD
ATOM      5  H   UNL     1      35.316  21.843  35.694  0.00  0.00    +0.000 HD
ATOM      6  H   UNL     1      35.824  20.076  35.926  0.00  0.00    +0.000 HD
ATOM      7  H   UNL     1      35.080  21.503  33.212  0.00  0.00    +0.000 HD
ENDROOT
BRANCH   3   8
ATOM      8  N   UNL     1      35.525  19.366  33.385  0.00  0.00    +0.000 N 
ATOM      9  C   UNL     1      34.376  18.695  33.220  0.00  0.00    +0.000 A 
ATOM     10  N   UNL     1      34.631  17.404  32.855  0.00  0.00    +0.000 NA
ATOM     11  C   UNL     1      35.971  17.313  32.804  0.00  0.00    +0.000 A 
ATOM     12  C   UNL     1      36.873  16.312  32.508  0.00  0.00    +0.000 A 
ATOM     13  N   UNL     1      38.222  16.506  32.536  0.00  0.00    +0.000 NA
ATOM     14  C   UNL     1      38.721  17.729  32.867  0.00  0.00    +0.000 A 
ATOM     15  N   UNL     1      37.867  18.727  33.161  0.00  0.00    +0.000 NA
ATOM     16  C   UNL     1      36.550  18.517  33.129  0.00  0.00    +0.000 A 
BRANCH  12  17
ATOM     17  N   UNL     1      36.398  15.018  32.157  0.00  0.00    +0.000 N 
ATOM     18  H   UNL     1      36.394  14.555  33.111  0.00  0.00    +0.000 HD
ATOM     19  H   UNL     1      36.086  14.435  31.356  0.00  0.00    +0.000 HD
ENDBRANCH  12  17
ENDBRANCH   3   8
BRANCH   1  24
ATOM     20  C   UNL     1      38.029  23.472  34.619  0.00  0.00    +0.000 A 
ATOM     21  C   UNL     1      38.258  24.567  33.797  0.00  0.00    +0.000 A 
ATOM     22  N   UNL     1      37.764  24.184  32.587  0.00  0.00    +0.000 NA
ATOM     23  C   UNL     1      37.287  22.955  32.718  0.00  0.00    +0.000 A 
ATOM     24  N   UNL     1      37.433  22.473  33.971  0.00  0.00    +0.000 N 
ATOM     25  H   UNL     1      38.733  25.510  34.088  0.00  0.00    +0.000 HD
ATOM     26  H   UNL     1      36.829  22.415  31.879  0.00  0.00    +0.000 HD
BRANCH  20  27
ATOM     27  C   UNL     1      38.389  23.401  36.025  0.00  0.00    +0.000 A 
ATOM     28  C   UNL     1      39.595  22.796  36.422  0.00  0.00    +0.000 A 
ATOM     29  C   UNL     1      39.894  22.756  37.804  0.00  0.00    +0.000 A 
ATOM     30  N   UNL     1      39.014  23.294  38.658  0.00  0.00    +0.000 NA
ATOM     31  C   UNL     1      37.851  23.875  38.250  0.00  0.00    +0.000 A 
ATOM     32  N   UNL     1      37.543  23.926  36.936  0.00  0.00    +0.000 NA
ATOM     33  H   UNL     1      40.277  22.373  35.694  0.00  0.00    +0.000 HD
ATOM     34  H   UNL     1      40.820  22.294  38.141  0.00  0.00    +0.000 HD
ATOM     35  H   UNL     1      37.187  24.289  38.980  0.00  0.00    +0.000 HD
ENDBRANCH  20  27
ENDBRANCH   1  24
TORSDOF 4
