
     RDKit          3D

 38 42  0  0  0  0  0  0  0  0999 V2000
   40.6989   21.9026   37.6242 O   0  0  0  0  0  0  0  0  0  0  0  0
   41.9197   22.0634   36.9997 C   0  0  0  0  0  0  0  0  0  0  0  0
   42.4154   23.2205   36.4155 C   0  0  0  0  0  0  0  0  0  0  0  0
   43.6290   23.0084   35.9073 N   0  0  0  0  0  0  0  0  0  0  0  0
   44.0043   21.7227   36.1196 C   0  0  0  0  0  0  0  0  0  0  0  0
   45.1274   21.0043   35.8075 C   0  0  0  0  0  0  0  0  0  0  0  0
   45.2166   19.6601   36.1724 C   0  0  0  0  0  0  0  0  0  0  0  0
   44.1608   19.0582   36.8527 C   0  0  0  0  0  0  0  0  0  0  0  0
   43.0301   19.8112   37.1580 C   0  0  0  0  0  0  0  0  0  0  0  0
   42.9482   21.1439   36.7930 C   0  0  0  0  0  0  0  0  0  0  0  0
   39.5916   22.6786   37.4152 C   0  0  0  0  0  0  0  0  0  0  0  0
   39.0884   23.3549   38.5339 C   0  0  0  0  0  0  0  0  0  0  0  0
   37.9489   24.1556   38.3267 C   0  0  0  0  0  0  0  0  0  0  0  0
   37.4042   24.2365   37.0956 N   0  0  0  0  0  0  0  0  0  0  0  0
   37.9460   23.5493   36.0446 C   0  0  0  0  0  0  0  0  0  0  0  0
   39.0154   22.7888   36.2051 N   0  0  0  0  0  0  0  0  0  0  0  0
   41.8962   24.1702   36.3728 H   0  0  0  0  0  0  0  0  0  0  0  0
   44.2315   23.7196   35.4078 H   0  0  0  0  0  0  0  0  0  0  0  0
   45.9448   21.4805   35.2777 H   0  0  0  0  0  0  0  0  0  0  0  0
   46.1331   19.1377   35.8983 H   0  0  0  0  0  0  0  0  0  0  0  0
   44.2773   18.0134   37.1141 H   0  0  0  0  0  0  0  0  0  0  0  0
   42.2178   19.3031   37.6950 H   0  0  0  0  0  0  0  0  0  0  0  0
   39.5057   23.3016   39.5094 H   0  0  0  0  0  0  0  0  0  0  0  0
   37.5253   24.6973   39.1651 H   0  0  0  0  0  0  0  0  0  0  0  0
   37.3995   23.6068   34.7206 N   0  0  0  0  0  0  0  0  0  0  0  0
   36.3851   22.8978   34.1485 C   0  0  0  0  0  0  0  0  0  0  0  0
   36.2377   23.3136   32.8664 N   0  0  0  0  0  0  0  0  0  0  0  0
   37.1474   24.2771   32.6220 C   0  0  0  0  0  0  0  0  0  0  0  0
   37.5113   25.0751   31.5708 C   0  0  0  0  0  0  0  0  0  0  0  0
   36.8091   24.9436   30.3446 N   0  0  0  0  0  0  0  0  0  0  0  0
   38.4867   25.9746   31.6178 N   0  0  0  0  0  0  0  0  0  0  0  0
   39.1733   26.1265   32.7636 C   0  0  0  0  0  0  0  0  0  0  0  0
   38.8460   25.3688   33.8012 N   0  0  0  0  0  0  0  0  0  0  0  0
   37.8752   24.4612   33.7829 C   0  0  0  0  0  0  0  0  0  0  0  0
   35.8267   22.1400   34.6830 H   0  0  0  0  0  0  0  0  0  0  0  0
   36.5388   24.4625   29.4770 H   0  0  0  0  0  0  0  0  0  0  0  0
   36.2333   25.7995   30.2245 H   0  0  0  0  0  0  0  0  0  0  0  0
   39.9747   26.8660   32.8008 H   0  0  0  0  0  0  0  0  0  0  0  0
  2  1  1  0
  3  2  2  0
  4  5  1  0
  4  3  1  0
  5 10  2  0
  6  5  1  0
  6  7  2  0
  7  8  1  0
  8  9  2  0
 10  2  1  0
 10  9  1  0
 11  1  1  0
 11 12  2  0
 13 12  1  0
 14 13  2  0
 15 16  2  0
 15 14  1  0
 16 11  1  0
  3 17  1  0
  4 18  1  0
  6 19  1  0
  7 20  1  0
  8 21  1  0
  9 22  1  0
 12 23  1  0
 13 24  1  0
 25 26  1  0
 26 27  2  0
 27 28  1  0
 28 29  2  0
 29 30  1  0
 29 31  1  0
 31 32  2  0
 32 33  1  0
 33 34  2  0
 34 25  1  0
 34 28  1  0
 26 35  1  0
 30 36  1  0
 30 37  1  0
 32 38  1  0
 15 25  1  0
M  ISO  8  17  14  18   9  19  14  20  14  21  14  22  14  23  14  24  14
M  END
>  <DihAtoms>  (1) 
15,14,24,25

>  <DihDeg>  (1) 
-99.50871412459743

$$$$
