
 OpenBabel03262519183D

 36 39  0  0  0  0  0  0  0  0999 V2000
   35.4210   29.5310   34.0510 C   0  0  0  0  0  0  0  0  0  0  0  0
   36.3270   28.5370   34.4240 C   0  0  0  0  0  0  0  0  0  0  0  0
   36.5950   27.5880   33.4950 C   0  0  0  0  0  0  0  0  0  0  0  0
   35.9710   27.6710   32.2800 C   0  0  0  0  0  0  0  0  0  0  0  0
   34.9020   29.2070   32.4140 S   0  0  0  0  0  0  0  0  0  0  0  0
   36.8100   28.5040   35.4120 H   0  0  0  0  0  0  0  0  0  0  0  0
   35.9010   31.3130   35.7980 C   0  0  0  0  0  0  0  0  0  0  0  0
   35.0260   30.6270   34.9360 C   0  0  0  0  0  0  0  0  0  0  0  0
   33.6770   30.9690   34.8760 C   0  0  0  0  0  0  0  0  0  0  0  0
   33.3190   31.9900   35.7030 N   0  0  0  0  0  0  0  0  0  0  0  0
   34.1590   32.6470   36.5290 C   0  0  0  0  0  0  0  0  0  0  0  0
   35.4550   32.2860   36.5570 N   0  0  0  0  0  0  0  0  0  0  0  0
   36.9370   30.9900   35.7890 H   0  0  0  0  0  0  0  0  0  0  0  0
   32.9460   30.5090   34.2580 H   0  0  0  0  0  0  0  0  0  0  0  0
   33.6190   33.7300   37.3530 C   0  0  0  0  0  0  0  0  0  0  0  0
   32.3630   34.1400   37.0320 C   0  0  0  0  0  0  0  0  0  0  0  0
   32.0360   35.5120   38.2720 S   0  0  0  0  0  0  0  0  0  0  0  0
   33.7810   35.2240   39.0100 C   0  0  0  0  0  0  0  0  0  0  0  0
   34.1040   34.4030   38.3450 N   0  0  0  0  0  0  0  0  0  0  0  0
   34.2860   35.9810   40.1020 N   0  0  0  0  0  0  0  0  0  0  0  0
   31.5230   33.9420   36.3240 H   0  0  0  0  0  0  0  0  0  0  0  0
   34.9340   36.8100   40.0250 H   0  0  0  0  0  0  0  0  0  0  0  0
   34.0620   35.7860   41.1070 H   0  0  0  0  0  0  0  0  0  0  0  0
   35.9540   26.9260   31.0590 C   0  0  0  0  0  0  0  0  0  0  0  0
   35.4500   25.8010   31.0010 O   0  0  0  0  0  0  0  0  0  0  0  0
   36.5350   27.4880   29.8620 N   0  0  0  0  0  0  0  0  0  0  0  0
   37.5630   27.5910   29.8520 H   0  0  0  0  0  0  0  0  0  0  0  0
   35.7120   27.6760   29.2330 H   0  0  0  0  0  0  0  0  0  0  0  0
   37.6950   26.1920   33.6460 S   0  0  0  0  0  0  0  0  0  0  0  0
   41.8300   27.7830   31.7280 H   0  0  0  0  0  0  0  0  0  0  0  0
   41.2130   27.4480   32.4960 N   0  0  0  0  0  0  0  0  0  0  0  0
   39.9430   27.1260   32.2640 N   0  0  0  0  0  0  0  0  0  0  0  0
   39.3770   26.7290   33.4090 C   0  0  0  0  0  0  0  0  0  0  0  0
   40.3660   26.8230   34.3610 C   0  0  0  0  0  0  0  0  0  0  0  0
   41.5390   27.2760   33.8080 C   0  0  0  0  0  0  0  0  0  0  0  0
   42.4990   27.4620   34.2630 H   0  0  0  0  0  0  0  0  0  0  0  0
  1  2  2  0  0  0  0
  1  8  1  0  0  0  0
  2  6  1  0  0  0  0
  3 29  1  0  0  0  0
  3  2  1  0  0  0  0
  4  5  1  0  0  0  0
  4  3  2  0  0  0  0
  5  1  1  0  0  0  0
  7 12  1  0  0  0  0
  8  7  2  0  0  0  0
  9  8  1  0  0  0  0
  9 10  2  0  0  0  0
 10 11  1  0  0  0  0
 11 12  2  0  0  0  0
 11 15  1  0  0  0  0
 13  7  1  0  0  0  0
 14  9  1  0  0  0  0
 15 19  1  0  0  0  0
 16 15  2  0  0  0  0
 16 17  1  0  0  0  0
 17 18  1  0  0  0  0
 18 20  1  0  0  0  0
 19 18  2  0  0  0  0
 20 23  1  0  0  0  0
 21 16  1  0  0  0  0
 22 20  1  0  0  0  0
 24  4  1  0  0  0  0
 25 24  2  0  0  0  0
 26 24  1  0  0  0  0
 27 26  1  0  0  0  0
 28 26  1  0  0  0  0
 30 31  1  0  0  0  0
 31 35  1  0  0  0  0
 32 31  1  0  0  0  0
 32 33  2  0  0  0  0
 33 29  1  0  0  0  0
 33 34  1  0  0  0  0
 35 36  1  0  0  0  0
 35 34  2  0  0  0  0
M  END
>  <minimizedAffinity>
-5.92653561

>  <minimizedRMSD>
9.34982872

$$$$
