REMARK  Name = 
REMARK  5 active torsions:
REMARK  status: ('A' for Active; 'I' for Inactive)
REMARK    1  A    between atoms: C_1  and  C_6
REMARK    2  A    between atoms: N_5  and  C_12
REMARK    3  A    between atoms: C_14  and  C_15
REMARK    4  A    between atoms: C_14  and  N_27
REMARK    5  A    between atoms: C_31  and  N_32
REMARK                            x       y       z     vdW  Elec       q    Type
REMARK                         _______ _______ _______ _____ _____    ______ ____
ROOT
ATOM      1  C   UNL     1      38.537  23.949  35.900  0.00  0.00    +0.000 C 
ATOM      2  C   UNL     1      38.077  25.229  36.364  0.00  0.00    +0.000 C 
ATOM      3  C   UNL     1      37.558  23.918  37.029  0.00  0.00    +0.000 C 
ATOM      4  H   UNL     1      39.616  23.699  36.176  0.00  0.00    +0.000 HD
ATOM      5  H   UNL     1      38.686  25.899  36.993  0.00  0.00    +0.000 HD
ATOM      6  H   UNL     1      37.297  25.777  35.814  0.00  0.00    +0.000 HD
ENDROOT
BRANCH   3   7
ATOM      7  N   UNL     1      36.100  23.960  36.956  0.00  0.00    +0.000 N 
ATOM      8  C   UNL     1      35.321  22.843  37.044  0.00  0.00    +0.000 A 
ATOM      9  N   UNL     1      34.010  23.187  36.944  0.00  0.00    +0.000 NA
ATOM     10  C   UNL     1      33.990  24.516  36.795  0.00  0.00    +0.000 A 
ATOM     11  C   UNL     1      33.000  25.474  36.641  0.00  0.00    +0.000 A 
ATOM     12  N   UNL     1      33.256  26.787  36.507  0.00  0.00    +0.000 NA
ATOM     13  C   UNL     1      34.547  27.224  36.518  0.00  0.00    +0.000 A 
ATOM     14  N   UNL     1      35.522  26.311  36.666  0.00  0.00    +0.000 NA
ATOM     15  C   UNL     1      35.261  25.002  36.800  0.00  0.00    +0.000 A 
BRANCH  11  16
ATOM     16  N   UNL     1      31.628  25.076  36.622  0.00  0.00    +0.000 N 
ATOM     17  H   UNL     1      31.258  24.745  37.537  0.00  0.00    +0.000 HD
ATOM     18  H   UNL     1      30.919  25.052  35.857  0.00  0.00    +0.000 HD
ENDBRANCH  11  16
ENDBRANCH   3   7
BRANCH   1  23
ATOM     19  C   UNL     1      37.868  23.698  33.502  0.00  0.00    +0.000 A 
ATOM     20  C   UNL     1      37.465  22.658  32.667  0.00  0.00    +0.000 A 
ATOM     21  N   UNL     1      37.486  21.563  33.486  0.00  0.00    +0.000 NA
ATOM     22  C   UNL     1      37.874  21.966  34.692  0.00  0.00    +0.000 A 
ATOM     23  N   UNL     1      38.114  23.273  34.730  0.00  0.00    +0.000 N 
ATOM     24  H   UNL     1      37.212  22.767  31.628  0.00  0.00    +0.000 HD
ATOM     25  H   UNL     1      37.922  21.157  35.419  0.00  0.00    +0.000 HD
BRANCH  19  26
ATOM     26  C   UNL     1      38.013  25.083  33.078  0.00  0.00    +0.000 A 
ATOM     27  C   UNL     1      39.296  25.584  32.769  0.00  0.00    +0.000 A 
ATOM     28  C   UNL     1      39.392  26.932  32.356  0.00  0.00    +0.000 A 
ATOM     29  N   UNL     1      38.240  27.651  32.286  0.00  0.00    +0.000 NA
ATOM     30  C   UNL     1      37.029  27.130  32.592  0.00  0.00    +0.000 A 
ATOM     31  N   UNL     1      36.911  25.853  32.986  0.00  0.00    +0.000 NA
ATOM     32  H   UNL     1      40.120  24.894  32.871  0.00  0.00    +0.000 HD
ATOM     33  H   UNL     1      40.366  27.291  32.128  0.00  0.00    +0.000 HD
ATOM     34  H   UNL     1      36.218  27.832  32.485  0.00  0.00    +0.000 HD
ENDBRANCH  19  26
ENDBRANCH   1  23
BRANCH   3  35
ATOM     35  C   UNL     1      38.122  23.766  38.427  0.00  0.00    +0.000 C 
ATOM     36  F   UNL     1      37.513  22.703  39.065  0.00  0.00    +0.000 F 
ATOM     37  F   UNL     1      39.512  23.341  38.306  0.00  0.00    +0.000 F 
ATOM     38  F   UNL     1      38.140  24.900  39.142  0.00  0.00    +0.000 F 
ENDBRANCH   3  35
TORSDOF 5
