REMARK  Name = 
REMARK  3 active torsions:
REMARK  status: ('A' for Active; 'I' for Inactive)
REMARK    1  A    between atoms: O_1  and  C_2
REMARK    2  A    between atoms: O_1  and  C_11
REMARK    3  A    between atoms: C_29  and  N_30
REMARK                            x       y       z     vdW  Elec       q    Type
REMARK                         _______ _______ _______ _____ _____    ______ ____
ROOT
ATOM      1  C   UNL     1      39.592  22.679  37.415  0.00  0.00    +0.000 A 
ATOM      2  C   UNL     1      39.088  23.355  38.534  0.00  0.00    +0.000 A 
ATOM      3  C   UNL     1      37.949  24.156  38.327  0.00  0.00    +0.000 A 
ATOM      4  N   UNL     1      37.404  24.236  37.096  0.00  0.00    +0.000 NA
ATOM      5  C   UNL     1      37.946  23.549  36.045  0.00  0.00    +0.000 A 
ATOM      6  N   UNL     1      39.015  22.789  36.205  0.00  0.00    +0.000 NA
ATOM      7  H   UNL     1      39.506  23.302  39.509  0.00  0.00    +0.000 HD
ATOM      8  H   UNL     1      37.525  24.697  39.165  0.00  0.00    +0.000 HD
ATOM      9  N   UNL     1      37.400  23.607  34.721  0.00  0.00    +0.000 N 
ATOM     10  C   UNL     1      36.584  22.737  34.060  0.00  0.00    +0.000 A 
ATOM     11  N   UNL     1      36.339  23.232  32.821  0.00  0.00    +0.000 NA
ATOM     12  C   UNL     1      36.991  24.404  32.692  0.00  0.00    +0.000 A 
ATOM     13  C   UNL     1      37.151  25.367  31.732  0.00  0.00    +0.000 A 
ATOM     14  N   UNL     1      37.883  26.463  31.888  0.00  0.00    +0.000 NA
ATOM     15  C   UNL     1      38.515  26.659  33.059  0.00  0.00    +0.000 A 
ATOM     16  N   UNL     1      38.380  25.746  34.010  0.00  0.00    +0.000 NA
ATOM     17  C   UNL     1      37.655  24.639  33.881  0.00  0.00    +0.000 A 
ENDROOT
BRANCH  13  18
ATOM     18  N   UNL     1      36.499  25.195  30.483  0.00  0.00    +0.000 N 
ATOM     19  H   UNL     1      36.350  24.752  29.567  0.00  0.00    +0.000 HD
ATOM     20  H   UNL     1      35.735  25.896  30.434  0.00  0.00    +0.000 HD
ENDBRANCH  13  18
BRANCH   1  21
ATOM     21  O   UNL     1      40.699  21.903  37.624  0.00  0.00    +0.000 OA
BRANCH  21  22
ATOM     22  C   UNL     1      41.920  22.063  37.000  0.00  0.00    +0.000 A 
ATOM     23  C   UNL     1      42.415  23.221  36.416  0.00  0.00    +0.000 A 
ATOM     24  N   UNL     1      43.629  23.008  35.907  0.00  0.00    +0.000 N 
ATOM     25  C   UNL     1      44.004  21.723  36.120  0.00  0.00    +0.000 A 
ATOM     26  C   UNL     1      45.127  21.004  35.807  0.00  0.00    +0.000 A 
ATOM     27  C   UNL     1      45.217  19.660  36.172  0.00  0.00    +0.000 A 
ATOM     28  C   UNL     1      44.161  19.058  36.853  0.00  0.00    +0.000 A 
ATOM     29  C   UNL     1      43.030  19.811  37.158  0.00  0.00    +0.000 A 
ATOM     30  C   UNL     1      42.948  21.144  36.793  0.00  0.00    +0.000 A 
ATOM     31  H   UNL     1      41.896  24.170  36.373  0.00  0.00    +0.000 HD
ATOM     32  H   UNL     1      44.231  23.720  35.408  0.00  0.00    +0.000 HD
ATOM     33  H   UNL     1      45.945  21.480  35.278  0.00  0.00    +0.000 HD
ATOM     34  H   UNL     1      46.133  19.138  35.898  0.00  0.00    +0.000 HD
ATOM     35  H   UNL     1      44.277  18.013  37.114  0.00  0.00    +0.000 HD
ATOM     36  H   UNL     1      42.218  19.303  37.695  0.00  0.00    +0.000 HD
ENDBRANCH  21  22
ENDBRANCH   1  21
TORSDOF 3
