
 OpenBabel03262519293D

 36 40  0  0  0  0  0  0  0  0999 V2000
   39.7800   22.7720   37.3970 C   0  0  0  0  0  0  0  0  0  0  0  0
   39.0020   23.2830   38.4450 C   0  0  0  0  0  0  0  0  0  0  0  0
   37.8350   23.9810   38.0820 C   0  0  0  0  0  0  0  0  0  0  0  0
   37.5210   24.1240   36.7780 N   0  0  0  0  0  0  0  0  0  0  0  0
   38.3240   23.6000   35.8040 C   0  0  0  0  0  0  0  0  0  0  0  0
   39.4270   22.9390   36.1100 N   0  0  0  0  0  0  0  0  0  0  0  0
   39.2360   23.1780   39.4760 H   0  0  0  0  0  0  0  0  0  0  0  0
   37.2040   24.3940   38.8600 H   0  0  0  0  0  0  0  0  0  0  0  0
   38.0290   23.7300   34.4070 N   0  0  0  0  0  0  0  0  0  0  0  0
   37.4560   22.8500   33.5370 C   0  0  0  0  0  3  0  0  0  0  0  0
   37.3880   23.4350   32.3150 N   0  0  0  0  0  0  0  0  0  0  0  0
   37.9110   24.6740   32.4040 C   0  0  0  0  0  0  0  0  0  0  0  0
   38.1310   25.7360   31.5680 C   0  0  0  0  0  0  0  0  0  0  0  0
   38.6890   26.8800   31.9460 N   0  0  0  0  0  0  0  0  0  0  0  0
   39.0670   27.0250   33.2290 C   0  0  0  0  0  3  0  0  0  0  0  0
   38.8660   26.0150   34.0630 N   0  0  0  0  0  0  0  0  0  0  0  0
   38.3120   24.8590   33.7130 C   0  0  0  0  0  0  0  0  0  0  0  0
   37.7460   25.6210   30.2070 N   0  0  0  0  0  0  0  0  0  0  0  0
   37.8210   25.2560   29.2490 H   0  0  0  0  0  0  0  0  0  0  0  0
   36.9270   26.2430   30.0640 H   0  0  0  0  0  0  0  0  0  0  0  0
   40.9120   22.0940   37.7580 O   0  0  0  0  0  0  0  0  0  0  0  0
   42.1090   22.1100   37.0700 C   0  0  0  0  0  0  0  0  0  0  0  0
   42.7390   23.2150   36.5150 C   0  0  0  0  0  0  0  0  0  0  0  0
   43.8800   22.8570   35.9240 N   0  0  0  0  0  0  0  0  0  0  0  0
   44.0710   21.5210   36.0520 C   0  0  0  0  0  0  0  0  0  0  0  0
   45.0570   20.6650   35.6370 C   0  0  0  0  0  0  0  0  0  0  0  0
   44.9650   19.3040   35.9300 C   0  0  0  0  0  0  0  0  0  0  0  0
   43.8680   18.8240   36.6430 C   0  0  0  0  0  0  0  0  0  0  0  0
   42.8790   19.7150   37.0520 C   0  0  0  0  0  0  0  0  0  0  0  0
   42.9770   21.0650   36.7580 C   0  0  0  0  0  0  0  0  0  0  0  0
   42.3660   24.2300   36.5490 H   0  0  0  0  0  0  0  0  0  0  0  0
   44.5540   23.5010   35.4250 H   0  0  0  0  0  0  0  0  0  0  0  0
   45.9080   21.0470   35.0840 H   0  0  0  0  0  0  0  0  0  0  0  0
   45.7780   18.6710   35.5770 H   0  0  0  0  0  0  0  0  0  0  0  0
   43.8410   17.7600   36.8460 H   0  0  0  0  0  0  0  0  0  0  0  0
   42.0300   19.3010   37.6110 H   0  0  0  0  0  0  0  0  0  0  0  0
  1 21  1  0  0  0  0
  1  2  1  0  0  0  0
  2  7  1  0  0  0  0
  3  2  2  0  0  0  0
  3  8  1  0  0  0  0
  4  3  1  0  0  0  0
  5  6  1  0  0  0  0
  5  4  2  0  0  0  0
  6  1  2  0  0  0  0
  9  5  1  0  0  0  0
 10  9  1  0  0  0  0
 11 12  1  0  0  0  0
 11 10  2  0  0  0  0
 12 17  1  0  0  0  0
 13 14  1  0  0  0  0
 13 12  2  0  0  0  0
 14 15  2  0  0  0  0
 15 16  1  0  0  0  0
 17 16  2  0  0  0  0
 17  9  1  0  0  0  0
 18 13  1  0  0  0  0
 19 18  1  0  0  0  0
 20 18  1  0  0  0  0
 22 21  1  0  0  0  0
 23 31  1  0  0  0  0
 23 22  2  0  0  0  0
 24 25  1  0  0  0  0
 24 23  1  0  0  0  0
 25 30  1  0  0  0  0
 26 27  1  0  0  0  0
 26 25  2  0  0  0  0
 27 28  2  0  0  0  0
 28 35  1  0  0  0  0
 28 29  1  0  0  0  0
 29 36  1  0  0  0  0
 30 29  2  0  0  0  0
 30 22  1  0  0  0  0
 32 24  1  0  0  0  0
 33 26  1  0  0  0  0
 34 27  1  0  0  0  0
M  END
>  <minimizedAffinity>
-5.92702246

>  <minimizedRMSD>
0.642521322

$$$$
