
 OpenBabel03262519563D

 35 39  0  0  1  0  0  0  0  0999 V2000
   37.3960   21.6270   33.8560 C   0  0  1  0  0  0  0  0  0  0  0  0
   36.2720   21.1950   34.6870 C   0  0  0  0  0  0  0  0  0  0  0  0
   36.0660   21.2670   33.1940 C   0  0  2  0  0  0  0  0  0  0  0  0
   38.2420   20.9110   33.6740 H   0  0  0  0  0  0  0  0  0  0  0  0
   35.7010   21.9540   35.2800 H   0  0  0  0  0  0  0  0  0  0  0  0
   36.3060   20.2060   35.1830 H   0  0  0  0  0  0  0  0  0  0  0  0
   35.4330   22.0550   32.7800 H   0  0  0  0  0  0  0  0  0  0  0  0
   35.9950   19.9500   32.5590 N   0  0  0  0  0  0  0  0  0  0  0  0
   35.3370   18.8780   33.0220 C   0  0  0  0  0  3  0  0  0  0  0  0
   35.4910   17.8240   32.1690 N   0  0  0  0  0  0  0  0  0  0  0  0
   36.2630   18.2890   31.1720 C   0  0  0  0  0  0  0  0  0  0  0  0
   36.7880   17.7600   30.0120 C   0  0  0  0  0  0  0  0  0  0  0  0
   37.5640   18.4860   29.1580 N   0  0  0  0  0  0  0  0  0  0  0  0
   37.8450   19.7880   29.4430 C   0  0  0  0  0  3  0  0  0  0  0  0
   37.3470   20.3330   30.5670 N   0  0  0  0  0  0  0  0  0  0  0  0
   36.5900   19.6080   31.3910 C   0  0  0  0  0  0  0  0  0  0  0  0
   36.5220   16.4030   29.6730 N   0  0  0  0  0  0  0  0  0  0  0  0
   37.3620   15.9330   30.1160 H   0  0  0  0  0  0  0  0  0  0  0  0
   35.8460   15.7860   29.1850 H   0  0  0  0  0  0  0  0  0  0  0  0
   38.2210   23.9230   34.5150 C   0  0  0  0  0  0  0  0  0  0  0  0
   38.4140   25.1480   33.8910 C   0  0  0  0  0  0  0  0  0  0  0  0
   38.0280   24.9300   32.6030 N   0  0  0  0  0  0  0  0  0  0  0  0
   37.6410   23.6660   32.5080 C   0  0  0  0  0  0  0  0  0  0  0  0
   37.7460   23.0020   33.6790 N   0  0  0  0  0  0  0  0  0  0  0  0
   38.7950   26.0620   34.3580 H   0  0  0  0  0  0  0  0  0  0  0  0
   37.2800   23.2370   31.5640 H   0  0  0  0  0  0  0  0  0  0  0  0
   38.4970   23.6540   35.9160 C   0  0  0  0  0  0  0  0  0  0  0  0
   39.7040   23.0420   36.3000 C   0  0  0  0  0  0  0  0  0  0  0  0
   39.9190   22.8050   37.6770 C   0  0  0  0  0  0  0  0  0  0  0  0
   38.9630   23.1730   38.5400 N   0  0  0  0  0  0  0  0  0  0  0  0
   37.8010   23.7640   38.1450 C   0  0  0  0  0  0  0  0  0  0  0  0
   37.5720   24.0020   36.8360 N   0  0  0  0  0  0  0  0  0  0  0  0
   40.4490   22.7610   35.5650 H   0  0  0  0  0  0  0  0  0  0  0  0
   40.8440   22.3330   38.0040 H   0  0  0  0  0  0  0  0  0  0  0  0
   37.0740   24.0370   38.8820 H   0  0  0  0  0  0  0  0  0  0  0  0
  1  4  1  6  0  0  0
  1  2  1  0  0  0  0
  2  6  1  0  0  0  0
  2  5  1  0  0  0  0
  3  7  1  6  0  0  0
  3  1  1  0  0  0  0
  3  2  1  0  0  0  0
  8  9  1  0  0  0  0
  8  3  1  0  0  0  0
 10  9  2  0  0  0  0
 11 16  1  0  0  0  0
 11 10  1  0  0  0  0
 12 11  2  0  0  0  0
 13 14  2  0  0  0  0
 13 12  1  0  0  0  0
 14 15  1  0  0  0  0
 15 16  2  0  0  0  0
 16  8  1  0  0  0  0
 17 12  1  0  0  0  0
 17 18  1  0  0  0  0
 19 17  1  0  0  0  0
 20 27  1  0  0  0  0
 21 25  1  0  0  0  0
 21 20  2  0  0  0  0
 22 21  1  0  0  0  0
 23 22  2  0  0  0  0
 23 24  1  0  0  0  0
 24  1  1  0  0  0  0
 24 20  1  0  0  0  0
 26 23  1  0  0  0  0
 27 28  2  0  0  0  0
 27 32  1  0  0  0  0
 28 29  1  0  0  0  0
 29 34  1  0  0  0  0
 29 30  2  0  0  0  0
 31 30  1  0  0  0  0
 31 35  1  0  0  0  0
 32 31  2  0  0  0  0
 33 28  1  0  0  0  0
M  END
>  <minimizedAffinity>
-5.25503492

>  <minimizedRMSD>
2.02208519

$$$$
