
 OpenBabel03262519593D

 38 42  0  0  1  0  0  0  0  0999 V2000
   42.1900   23.5120   34.5800 C   0  0  1  0  0  0  0  0  0  0  0  0
   41.3240   24.3910   35.3180 C   0  0  0  0  0  0  0  0  0  0  0  0
   41.0970   22.8490   35.3550 C   0  0  1  0  0  0  0  0  0  0  0  0
   43.2400   23.4000   35.0140 H   0  0  0  0  0  0  0  0  0  0  0  0
   41.6170   24.8740   36.2650 H   0  0  0  0  0  0  0  0  0  0  0  0
   40.5160   24.9390   34.8090 H   0  0  0  0  0  0  0  0  0  0  0  0
   39.7150   22.6200   34.9430 N   0  0  0  0  0  0  0  0  0  0  0  0
   38.6530   23.2470   35.5280 C   0  0  0  0  0  3  0  0  0  0  0  0
   37.4970   22.8380   34.9420 N   0  0  0  0  0  0  0  0  0  0  0  0
   37.8550   21.9610   33.9980 C   0  0  0  0  0  0  0  0  0  0  0  0
   37.1800   21.1930   33.0620 C   0  0  0  0  0  0  0  0  0  0  0  0
   37.7970   20.3650   32.2010 N   0  0  0  0  0  0  0  0  0  0  0  0
   39.1550   20.2560   32.2310 C   0  0  0  0  0  3  0  0  0  0  0  0
   39.8290   20.9920   33.1320 N   0  0  0  0  0  0  0  0  0  0  0  0
   39.2080   21.8170   33.9880 C   0  0  0  0  0  0  0  0  0  0  0  0
   35.7550   21.2650   32.9830 N   0  0  0  0  0  0  0  0  0  0  0  0
   35.3850   22.1640   32.6100 H   0  0  0  0  0  0  0  0  0  0  0  0
   35.0070   20.5820   33.2320 H   0  0  0  0  0  0  0  0  0  0  0  0
   41.5530   23.9000   32.1920 C   0  0  0  0  0  0  0  0  0  0  0  0
   41.8090   23.2910   30.9650 C   0  0  0  0  0  0  0  0  0  0  0  0
   42.6200   22.2390   31.2910 N   0  0  0  0  0  0  0  0  0  0  0  0
   42.8030   22.2620   32.6080 C   0  0  0  0  0  0  0  0  0  0  0  0
   42.1580   23.2710   33.1860 N   0  0  0  0  0  0  0  0  0  0  0  0
   41.4220   23.6270   30.0200 H   0  0  0  0  0  0  0  0  0  0  0  0
   43.4410   21.4560   32.9650 H   0  0  0  0  0  0  0  0  0  0  0  0
   40.7310   25.0890   32.3640 C   0  0  0  0  0  0  0  0  0  0  0  0
   41.3510   26.3540   32.4570 C   0  0  0  0  0  0  0  0  0  0  0  0
   40.5160   27.4830   32.6180 C   0  0  0  0  0  0  0  0  0  0  0  0
   39.1750   27.2690   32.6720 N   0  0  0  0  0  0  0  0  0  0  0  0
   38.6220   26.0370   32.5790 C   0  0  0  0  0  0  0  0  0  0  0  0
   39.3920   24.9500   32.4250 N   0  0  0  0  0  0  0  0  0  0  0  0
   42.4290   26.3680   32.3970 H   0  0  0  0  0  0  0  0  0  0  0  0
   41.0010   28.4260   32.6860 H   0  0  0  0  0  0  0  0  0  0  0  0
   37.5460   26.0410   32.6400 H   0  0  0  0  0  0  0  0  0  0  0  0
   41.4590   22.2870   36.7150 C   0  0  0  0  0  0  0  0  0  0  0  0
   41.2030   20.9290   36.7430 F   0  0  0  0  0  0  0  0  0  0  0  0
   42.9080   22.3640   36.8610 F   0  0  0  0  0  0  0  0  0  0  0  0
   40.9430   22.9660   37.7490 F   0  0  0  0  0  0  0  0  0  0  0  0
  1  4  1  1  0  0  0
  1  2  1  0  0  0  0
  1  3  1  0  0  0  0
  2  3  1  0  0  0  0
  2  5  1  0  0  0  0
  3 35  1  1  0  0  0
  6  2  1  0  0  0  0
  7  3  1  0  0  0  0
  7  8  1  0  0  0  0
  9  8  2  0  0  0  0
 10  9  1  0  0  0  0
 11 10  2  0  0  0  0
 12 13  2  0  0  0  0
 12 11  1  0  0  0  0
 13 14  1  0  0  0  0
 14 15  2  0  0  0  0
 15 10  1  0  0  0  0
 15  7  1  0  0  0  0
 16 11  1  0  0  0  0
 16 18  1  0  0  0  0
 17 16  1  0  0  0  0
 19 26  1  0  0  0  0
 19 23  1  0  0  0  0
 20 21  1  0  0  0  0
 20 19  2  0  0  0  0
 21 22  2  0  0  0  0
 22 25  1  0  0  0  0
 22 23  1  0  0  0  0
 23  1  1  0  0  0  0
 24 20  1  0  0  0  0
 26 31  2  0  0  0  0
 26 27  1  0  0  0  0
 27 28  2  0  0  0  0
 28 29  1  0  0  0  0
 28 33  1  0  0  0  0
 30 34  1  0  0  0  0
 30 29  2  0  0  0  0
 31 30  1  0  0  0  0
 32 27  1  0  0  0  0
 35 36  1  0  0  0  0
 35 37  1  0  0  0  0
 35 38  1  0  0  0  0
M  END
>  <minimizedAffinity>
-3.81352448

>  <minimizedRMSD>
4.95273304

$$$$
