
 OpenBabel03262519473D

 44 48  0  0  1  0  0  0  0  0999 V2000
   37.4440   25.6570   32.9700 N   0  0  0  0  0  0  0  0  0  0  0  0
   36.9170   24.5770   32.3930 C   0  0  0  0  0  0  0  0  0  0  0  0
   35.8970   24.8540   31.5080 C   0  0  0  0  0  0  0  0  0  0  0  0
   35.7910   26.1830   31.5420 N   0  0  0  0  0  0  0  0  0  0  0  0
   36.7160   26.6680   32.4160 C   0  0  0  0  0  0  0  0  0  0  0  0
   37.2770   23.5650   32.6180 H   0  0  0  0  0  0  0  0  0  0  0  0
   35.3440   24.1080   30.9410 H   0  0  0  0  0  0  0  0  0  0  0  0
   36.8300   28.1500   32.6230 C   0  0  1  0  0  0  0  0  0  0  0  0
   36.1370   29.0450   31.6760 C   0  0  0  0  0  0  0  0  0  0  0  0
   35.5430   28.8590   33.0520 C   0  0  2  0  0  0  0  0  0  0  0  0
   37.7460   28.5500   33.1290 H   0  0  0  0  0  0  0  0  0  0  0  0
   35.6040   28.5390   30.8190 H   0  0  0  0  0  0  0  0  0  0  0  0
   36.4750   30.0570   31.4520 H   0  0  0  0  0  0  0  0  0  0  0  0
   34.6560   28.1990   33.0940 H   0  0  0  0  0  0  0  0  0  0  0  0
   35.6380   29.9380   33.9920 N   0  0  0  0  0  0  0  0  0  0  0  0
   36.1580   29.9420   35.2290 C   0  0  0  0  0  3  0  0  0  0  0  0
   36.0230   31.1940   35.7360 N   0  0  0  0  0  0  0  0  0  0  0  0
   35.4250   31.9610   34.8220 C   0  0  0  0  0  0  0  0  0  0  0  0
   35.0580   33.3000   34.8390 C   0  0  0  0  0  0  0  0  0  0  0  0
   34.4560   33.8210   33.7530 N   0  0  0  0  0  0  0  0  0  0  0  0
   34.2070   33.0680   32.6660 C   0  0  0  0  0  3  0  0  0  0  0  0
   34.5770   31.7640   32.6790 N   0  0  0  0  0  0  0  0  0  0  0  0
   35.1810   31.1710   33.7210 C   0  0  0  0  0  0  0  0  0  0  0  0
   35.2980   34.1390   35.9610 N   0  0  0  0  0  0  0  0  0  0  0  0
   36.0430   34.5580   36.5370 H   0  0  0  0  0  0  0  0  0  0  0  0
   34.3570   34.4390   36.3380 H   0  0  0  0  0  0  0  0  0  0  0  0
   38.4630   25.8810   33.9180 C   0  0  0  0  0  0  0  0  0  0  0  0
   39.1940   25.0420   33.8330 H   0  0  0  0  0  0  0  0  0  0  0  0
   39.0680   26.7870   33.6310 H   0  0  0  0  0  0  0  0  0  0  0  0
   37.9800   25.9150   35.3210 C   0  0  1  0  0  0  0  0  0  0  0  0
   36.8530   25.8860   35.3270 H   0  0  0  0  0  0  0  0  0  0  0  0
   38.5330   23.4680   38.1510 C   0  0  0  0  0  0  0  0  0  0  0  0
   37.9640   24.5360   37.4440 C   0  0  0  0  0  0  0  0  0  0  0  0
   38.5110   24.8260   36.1600 C   0  0  0  0  0  0  0  0  0  0  0  0
   39.5570   24.0480   35.6930 N   0  0  0  0  0  0  0  0  0  0  0  0
   40.0700   23.0460   36.3870 C   0  0  0  0  0  0  0  0  0  0  0  0
   39.5520   22.7470   37.6380 N   0  0  0  0  0  0  0  0  0  0  0  0
   38.1370   23.2260   39.1290 H   0  0  0  0  0  0  0  0  0  0  0  0
   37.1480   25.1380   37.8190 H   0  0  0  0  0  0  0  0  0  0  0  0
   40.8870   22.4630   35.9840 H   0  0  0  0  0  0  0  0  0  0  0  0
   38.2980   27.2670   35.9530 C   0  0  0  0  0  0  0  0  0  0  0  0
   38.6660   27.9600   35.1780 H   0  0  0  0  0  0  0  0  0  0  0  0
   37.4760   27.6740   36.5500 H   0  0  0  0  0  0  0  0  0  0  0  0
   39.1620   27.1180   36.6560 H   0  0  0  0  0  0  0  0  0  0  0  0
  1 27  1  0  0  0  0
  2  6  1  0  0  0  0
  2  1  1  0  0  0  0
  3  4  1  0  0  0  0
  3  2  2  0  0  0  0
  4  5  2  0  0  0  0
  5  8  1  0  0  0  0
  5  1  1  0  0  0  0
  7  3  1  0  0  0  0
  8 10  1  0  0  0  0
  8 11  1  1  0  0  0
  9  8  1  0  0  0  0
  9 10  1  0  0  0  0
 10 14  1  1  0  0  0
 10 15  1  0  0  0  0
 12  9  1  0  0  0  0
 13  9  1  0  0  0  0
 15 16  1  0  0  0  0
 16 17  2  0  0  0  0
 18 19  1  0  0  0  0
 18 17  1  0  0  0  0
 19 24  1  0  0  0  0
 20 19  2  0  0  0  0
 21 22  2  0  0  0  0
 21 20  1  0  0  0  0
 22 23  1  0  0  0  0
 23 15  1  0  0  0  0
 23 18  2  0  0  0  0
 24 26  1  0  0  0  0
 24 25  1  0  0  0  0
 27 30  1  0  0  0  0
 28 27  1  0  0  0  0
 29 27  1  0  0  0  0
 30 31  1  6  0  0  0
 30 41  1  0  0  0  0
 30 34  1  0  0  0  0
 32 38  1  0  0  0  0
 33 39  1  0  0  0  0
 33 32  2  0  0  0  0
 34 33  1  0  0  0  0
 35 34  2  0  0  0  0
 35 36  1  0  0  0  0
 36 37  2  0  0  0  0
 37 32  1  0  0  0  0
 40 36  1  0  0  0  0
 41 43  1  0  0  0  0
 41 44  1  0  0  0  0
 42 41  1  0  0  0  0
M  END
>  <minimizedAffinity>
-5.66632223

>  <minimizedRMSD>
1.60347331

$$$$
