
 OpenBabel03262518453D

 43 47  0  0  1  0  0  0  0  0999 V2000
   40.4180   26.7380   32.8210 C   0  0  0  0  0  0  0  0  0  0  0  0
   39.9530   27.2610   33.9570 N   0  0  0  0  0  0  0  0  0  0  0  0
   40.2530   26.4890   34.9430 O   0  0  0  0  0  0  0  0  0  0  0  0
   40.9220   25.4530   34.4420 C   0  0  0  0  0  0  0  0  0  0  0  0
   41.0510   25.5620   33.1160 N   0  0  0  0  0  0  0  0  0  0  0  0
   36.8910   24.1180   31.0750 C   0  0  0  0  0  0  0  0  0  0  0  0
   35.7270   24.8290   31.4190 C   0  0  0  0  0  0  0  0  0  0  0  0
   35.7890   26.2040   31.5210 C   0  0  0  0  0  0  0  0  0  0  0  0
   37.0000   26.8050   31.2770 N   0  0  0  0  0  0  0  0  0  0  0  0
   38.0830   26.0900   30.9520 C   0  0  0  0  0  0  0  0  0  0  0  0
   38.0410   24.7670   30.8500 N   0  0  0  0  0  0  0  0  0  0  0  0
   39.2910   26.8300   30.7210 N   0  0  0  0  0  0  0  0  0  0  0  0
   39.3950   27.2990   29.5040 N   0  0  0  0  0  0  0  0  0  0  0  0
   40.5600   27.9740   29.3960 C   0  0  0  0  0  0  0  0  0  0  0  0
   41.1990   27.9160   30.6010 C   0  0  0  0  0  0  0  0  0  0  0  0
   40.3660   27.1800   31.4280 C   0  0  0  0  0  0  0  0  0  0  0  0
   36.8350   22.6900   30.9670 N   0  0  0  0  0  0  0  0  0  0  0  0
   34.7940   24.3100   31.6020 H   0  0  0  0  0  0  0  0  0  0  0  0
   34.9390   26.8130   31.7800 H   0  0  0  0  0  0  0  0  0  0  0  0
   40.9820   28.4930   28.5470 H   0  0  0  0  0  0  0  0  0  0  0  0
   42.1330   28.2950   30.9940 H   0  0  0  0  0  0  0  0  0  0  0  0
   36.4020   22.1420   30.1930 H   0  0  0  0  0  0  0  0  0  0  0  0
   37.2760   22.1290   31.7530 H   0  0  0  0  0  0  0  0  0  0  0  0
   41.4590   24.3180   35.2370 C   0  0  2  0  0  0  0  0  0  0  0  0
   42.4000   23.3500   34.6190 C   0  0  0  0  0  0  0  0  0  0  0  0
   40.9710   22.9180   35.0050 C   0  0  1  0  0  0  0  0  0  0  0  0
   41.5160   24.5710   36.3280 H   0  0  0  0  0  0  0  0  0  0  0  0
   43.2470   22.9230   35.1800 H   0  0  0  0  0  0  0  0  0  0  0  0
   42.6180   23.4810   33.5420 H   0  0  0  0  0  0  0  0  0  0  0  0
   40.2530   22.8280   34.1550 H   0  0  0  0  0  0  0  0  0  0  0  0
   40.9300   21.9320   36.1100 C   0  0  0  0  0  0  0  0  0  0  0  0
   40.0790   21.2410   35.9010 H   0  0  0  0  0  0  0  0  0  0  0  0
   41.8270   21.2440   36.1090 H   0  0  0  0  0  0  0  0  0  0  0  0
   40.8560   22.5090   37.4850 C   0  0  0  0  0  0  0  0  0  0  0  0
   41.1820   21.7820   38.2660 H   0  0  0  0  0  0  0  0  0  0  0  0
   41.5900   23.3600   37.6040 H   0  0  0  0  0  0  0  0  0  0  0  0
   39.5180   22.9930   37.7430 N   0  0  0  0  0  0  0  0  0  0  0  0
   38.5700   22.7600   36.8170 N   0  0  0  0  0  0  0  0  0  0  0  0
   37.4040   23.2530   37.2090 C   0  0  0  0  0  0  0  0  0  0  0  0
   36.4260   23.2550   36.7300 H   0  0  0  0  0  0  0  0  0  0  0  0
   37.5720   23.8420   38.4460 C   0  0  0  0  0  0  0  0  0  0  0  0
   38.9070   23.6540   38.7360 C   0  0  0  0  0  0  0  0  0  0  0  0
   39.5800   23.8880   39.5430 H   0  0  0  0  0  0  0  0  0  0  0  0
  1  5  1  0  0  0  0
  1  2  2  0  0  0  0
  2  3  1  0  0  0  0
  4  3  1  0  0  0  0
  4 24  1  0  0  0  0
  5  4  2  0  0  0  0
  6  7  1  0  0  0  0
  7  8  2  0  0  0  0
  7 18  1  0  0  0  0
  8 19  1  0  0  0  0
  9  8  1  0  0  0  0
 10  9  2  0  0  0  0
 11 10  1  0  0  0  0
 11  6  2  0  0  0  0
 12 10  1  0  0  0  0
 12 16  1  0  0  0  0
 13 12  1  0  0  0  0
 14 13  2  0  0  0  0
 14 15  1  0  0  0  0
 15 21  1  0  0  0  0
 15 16  2  0  0  0  0
 16  1  1  0  0  0  0
 17  6  1  0  0  0  0
 17 23  1  0  0  0  0
 20 14  1  0  0  0  0
 22 17  1  0  0  0  0
 24 27  1  1  0  0  0
 25 26  1  0  0  0  0
 25 28  1  0  0  0  0
 25 24  1  0  0  0  0
 26 30  1  6  0  0  0
 26 24  1  0  0  0  0
 26 31  1  0  0  0  0
 29 25  1  0  0  0  0
 31 34  1  0  0  0  0
 32 31  1  0  0  0  0
 33 31  1  0  0  0  0
 34 36  1  0  0  0  0
 34 37  1  0  0  0  0
 34 35  1  0  0  0  0
 37 42  1  0  0  0  0
 38 39  2  0  0  0  0
 38 37  1  0  0  0  0
 39 41  1  0  0  0  0
 40 39  1  0  0  0  0
 41 42  2  0  0  0  0
 42 43  1  0  0  0  0
M  END
>  <minimizedAffinity>
-5.19714117

>  <minimizedRMSD>
2.35486555

$$$$
