
 OpenBabel03262519153D

 38 42  0  0  0  0  0  0  0  0999 V2000
   39.6560   24.1420   35.5880 C   0  0  0  0  0  0  0  0  0  0  0  0
   39.8460   25.4340   35.0380 C   0  0  0  0  0  0  0  0  0  0  0  0
   41.1160   25.8570   34.6950 C   0  0  0  0  0  0  0  0  0  0  0  0
   42.1190   24.9680   34.9180 N   0  0  0  0  0  0  0  0  0  0  0  0
   41.9210   23.7210   35.4490 C   0  0  0  0  0  0  0  0  0  0  0  0
   40.6820   23.3370   35.7740 N   0  0  0  0  0  0  0  0  0  0  0  0
   38.6280   23.8570   35.8440 H   0  0  0  0  0  0  0  0  0  0  0  0
   41.3200   26.8240   34.2760 H   0  0  0  0  0  0  0  0  0  0  0  0
   43.1120   22.8790   35.6190 C   0  0  0  0  0  0  0  0  0  0  0  0
   44.3170   23.5060   35.4990 C   0  0  0  0  0  0  0  0  0  0  0  0
   45.5570   22.1320   35.7660 S   0  0  0  0  0  0  0  0  0  0  0  0
   44.1010   20.9120   36.0010 C   0  0  0  0  0  0  0  0  0  0  0  0
   43.2230   21.5990   35.8660 N   0  0  0  0  0  0  0  0  0  0  0  0
   44.7520   24.5200   35.3030 H   0  0  0  0  0  0  0  0  0  0  0  0
   44.0500   19.4470   36.2850 N   0  0  0  0  0  0  0  0  0  0  0  0
   43.1590   18.8810   37.0830 C   0  0  0  0  0  0  0  0  0  0  0  0
   43.4480   17.5740   37.0710 N   0  0  0  0  0  0  0  0  0  0  0  0
   44.4930   17.4000   36.2740 C   0  0  0  0  0  0  0  0  0  0  0  0
   45.1310   16.1910   35.9710 C   0  0  0  0  0  0  0  0  0  0  0  0
   46.1840   16.2760   35.1240 N   0  0  0  0  0  0  0  0  0  0  0  0
   46.6010   17.4590   34.5980 C   0  0  0  0  0  0  0  0  0  0  0  0
   45.9640   18.6260   34.9080 N   0  0  0  0  0  0  0  0  0  0  0  0
   44.9200   18.5950   35.7390 C   0  0  0  0  0  0  0  0  0  0  0  0
   44.7140   14.9380   36.5080 N   0  0  0  0  0  0  0  0  0  0  0  0
   43.9160   14.3160   36.2580 H   0  0  0  0  0  0  0  0  0  0  0  0
   45.4190   14.7270   37.2760 H   0  0  0  0  0  0  0  0  0  0  0  0
   38.7720   26.3750   34.8020 C   0  0  0  0  0  0  0  0  0  0  0  0
   38.3470   27.3330   35.7120 C   0  0  0  0  0  0  0  0  0  0  0  0
   37.3180   28.1330   35.3210 C   0  0  0  0  0  0  0  0  0  0  0  0
   36.7680   27.9480   34.0590 C   0  0  0  0  0  0  0  0  0  0  0  0
   37.7610   26.5370   33.3470 S   0  0  0  0  0  0  0  0  0  0  0  0
   38.7900   27.4610   36.6900 H   0  0  0  0  0  0  0  0  0  0  0  0
   36.8450   28.9320   35.8750 H   0  0  0  0  0  0  0  0  0  0  0  0
   35.7320   28.5490   33.3110 C   0  0  0  0  0  0  0  0  0  0  0  0
   35.4340   28.1270   32.1870 O   0  0  0  0  0  0  0  0  0  0  0  0
   34.9930   29.6650   33.8320 N   0  0  0  0  0  0  0  0  0  0  0  0
   35.1800   30.4870   33.2090 H   0  0  0  0  0  0  0  0  0  0  0  0
   34.4590   29.4180   34.6760 H   0  0  0  0  0  0  0  0  0  0  0  0
  1  6  1  0  0  0  0
  1  7  1  0  0  0  0
  2  1  2  0  0  0  0
  3  4  2  0  0  0  0
  3  2  1  0  0  0  0
  4  5  1  0  0  0  0
  5  9  1  0  0  0  0
  5  6  2  0  0  0  0
  8  3  1  0  0  0  0
  9 13  1  0  0  0  0
 10  9  2  0  0  0  0
 10 11  1  0  0  0  0
 11 12  1  0  0  0  0
 12 15  1  0  0  0  0
 13 12  2  0  0  0  0
 14 10  1  0  0  0  0
 15 16  1  0  0  0  0
 17 16  2  0  0  0  0
 18 17  1  0  0  0  0
 19 18  1  0  0  0  0
 19 24  1  0  0  0  0
 20 19  2  0  0  0  0
 21 22  2  0  0  0  0
 21 20  1  0  0  0  0
 22 23  1  0  0  0  0
 23 18  2  0  0  0  0
 23 15  1  0  0  0  0
 24 26  1  0  0  0  0
 25 24  1  0  0  0  0
 27  2  1  0  0  0  0
 27 28  2  0  0  0  0
 28 32  1  0  0  0  0
 29 28  1  0  0  0  0
 29 33  1  0  0  0  0
 30 29  2  0  0  0  0
 31 30  1  0  0  0  0
 31 27  1  0  0  0  0
 34 36  1  0  0  0  0
 34 30  1  0  0  0  0
 35 34  2  0  0  0  0
 36 38  1  0  0  0  0
 37 36  1  0  0  0  0
M  END
>  <minimizedAffinity>
-4.49012852

>  <minimizedRMSD>
2.65430975

$$$$
