
 OpenBabel03262514593D

 45 49  0  0  0  0  0  0  0  0999 V2000
   41.1330   22.5910   34.3350 C   0  0  0  0  0  0  0  0  0  0  0  0
   41.0590   23.7410   35.1450 C   0  0  0  0  0  0  0  0  0  0  0  0
   39.7880   24.2090   35.4540 C   0  0  0  0  0  0  0  0  0  0  0  0
   38.7020   23.5720   34.9830 N   0  0  0  0  0  0  0  0  0  0  0  0
   38.7930   22.4770   34.2100 C   0  0  0  0  0  0  0  0  0  0  0  0
   40.0030   21.9840   33.8840 N   0  0  0  0  0  0  0  0  0  0  0  0
   37.6770   21.7780   33.7010 N   0  0  0  0  0  0  0  0  0  0  0  0
   37.4970   21.5040   32.3700 C   0  0  0  0  0  0  0  0  0  0  0  0
   36.3730   20.8110   31.9840 C   0  0  0  0  0  0  0  0  0  0  0  0
   35.4760   20.4230   32.9510 C   0  0  0  0  0  0  0  0  0  0  0  0
   34.4300   19.7830   32.6300 O   0  0  0  0  0  0  0  0  0  0  0  0
   35.6160   20.6720   34.2550 N   0  0  0  0  0  0  0  0  0  0  0  0
   36.7440   21.3590   34.5760 C   0  0  0  0  0  0  0  0  0  0  0  0
   36.9110   21.6140   35.8070 O   0  0  0  0  0  0  0  0  0  0  0  0
   42.0670   22.1080   34.0090 H   0  0  0  0  0  0  0  0  0  0  0  0
   39.8190   25.0830   36.0710 H   0  0  0  0  0  0  0  0  0  0  0  0
   38.2590   21.8490   31.6800 H   0  0  0  0  0  0  0  0  0  0  0  0
   34.9280   20.3710   34.9640 H   0  0  0  0  0  0  0  0  0  0  0  0
   42.3600   24.2200   35.5040 C   0  0  0  0  0  0  0  0  0  0  0  0
   43.0310   23.5270   36.5210 C   0  0  0  0  0  0  0  0  0  0  0  0
   44.2890   23.8730   36.9660 C   0  0  0  0  0  0  0  0  0  0  0  0
   44.9460   24.9300   36.4220 C   0  0  0  0  0  0  0  0  0  0  0  0
   44.3220   25.6350   35.4230 C   0  0  0  0  0  0  0  0  0  0  0  0
   44.9110   26.7280   34.8070 C   0  0  0  0  0  0  0  0  0  0  0  0
   44.2810   27.4460   33.7960 C   0  0  0  0  0  0  0  0  0  0  0  0
   43.0230   27.0650   33.3820 C   0  0  0  0  0  0  0  0  0  0  0  0
   42.4190   25.9800   33.9810 C   0  0  0  0  0  0  0  0  0  0  0  0
   43.0670   25.2900   34.9770 C   0  0  0  0  0  0  0  0  0  0  0  0
   42.5810   22.6740   37.0090 H   0  0  0  0  0  0  0  0  0  0  0  0
   44.7730   23.3020   37.7630 H   0  0  0  0  0  0  0  0  0  0  0  0
   45.9380   25.2340   36.7450 H   0  0  0  0  0  0  0  0  0  0  0  0
   45.9070   27.0260   35.1380 H   0  0  0  0  0  0  0  0  0  0  0  0
   44.7860   28.3000   33.3450 H   0  0  0  0  0  0  0  0  0  0  0  0
   42.5230   27.6140   32.5980 H   0  0  0  0  0  0  0  0  0  0  0  0
   41.4270   25.7020   33.6360 H   0  0  0  0  0  0  0  0  0  0  0  0
   36.1340   20.4980   30.5840 C   0  0  0  0  0  0  0  0  0  0  0  0
   36.5570   21.3080   29.9540 H   0  0  0  0  0  0  0  0  0  0  0  0
   35.0140   20.6110   30.4250 H   0  0  0  0  0  0  0  0  0  0  0  0
   36.5570   19.1710   30.1760 N   0  0  0  0  0  0  0  0  0  0  0  0
   36.5510   18.9820   28.8440 N   0  0  0  0  0  0  0  0  0  0  0  0
   36.9450   17.7440   28.5290 C   0  0  0  0  0  0  0  0  0  0  0  0
   37.0460   17.2840   27.5590 H   0  0  0  0  0  0  0  0  0  0  0  0
   37.2150   17.1120   29.7100 C   0  0  0  0  0  0  0  0  0  0  0  0
   36.9670   18.0230   30.7360 C   0  0  0  0  0  0  0  0  0  0  0  0
   37.0250   18.0150   31.8100 H   0  0  0  0  0  0  0  0  0  0  0  0
  1  2  1  0  0  0  0
  2  3  2  0  0  0  0
  2 19  1  0  0  0  0
  3 16  1  0  0  0  0
  4  3  1  0  0  0  0
  5  4  2  0  0  0  0
  6  5  1  0  0  0  0
  6  1  2  0  0  0  0
  7  5  1  0  0  0  0
  7 13  1  0  0  0  0
  8  7  1  0  0  0  0
  9  8  2  0  0  0  0
  9 10  1  0  0  0  0
 10 12  1  0  0  0  0
 11 10  2  0  0  0  0
 12 13  1  0  0  0  0
 12 18  1  0  0  0  0
 13 14  2  0  0  0  0
 15  1  1  0  0  0  0
 17  8  1  0  0  0  0
 19 20  1  0  0  0  0
 20 21  2  0  0  0  0
 20 29  1  0  0  0  0
 21 30  1  0  0  0  0
 22 31  1  0  0  0  0
 22 21  1  0  0  0  0
 23 22  2  0  0  0  0
 24 32  1  0  0  0  0
 24 23  1  0  0  0  0
 25 24  2  0  0  0  0
 26 25  1  0  0  0  0
 26 27  2  0  0  0  0
 27 28  1  0  0  0  0
 28 23  1  0  0  0  0
 28 19  2  0  0  0  0
 33 25  1  0  0  0  0
 34 26  1  0  0  0  0
 35 27  1  0  0  0  0
 36  9  1  0  0  0  0
 37 36  1  0  0  0  0
 38 36  1  0  0  0  0
 39 36  1  0  0  0  0
 39 44  1  0  0  0  0
 40 39  1  0  0  0  0
 41 40  2  0  0  0  0
 41 43  1  0  0  0  0
 42 41  1  0  0  0  0
 43 44  2  0  0  0  0
 44 45  1  0  0  0  0
M  END
>  <minimizedAffinity>
-5.87559128

>  <minimizedRMSD>
0.580784202

$$$$
