
 OpenBabel03262519553D

 35 39  0  0  1  0  0  0  0  0999 V2000
   40.0830   22.9240   32.8750 C   0  0  1  0  0  0  0  0  0  0  0  0
   40.7930   23.6970   31.8540 C   0  0  0  0  0  0  0  0  0  0  0  0
   40.8750   22.1910   31.7910 C   0  0  2  0  0  0  0  0  0  0  0  0
   38.9660   22.8360   32.8080 H   0  0  0  0  0  0  0  0  0  0  0  0
   41.7510   24.2120   32.1180 H   0  0  0  0  0  0  0  0  0  0  0  0
   40.2160   24.2410   31.0800 H   0  0  0  0  0  0  0  0  0  0  0  0
   41.8140   21.6970   32.0450 H   0  0  0  0  0  0  0  0  0  0  0  0
   40.0920   21.6170   30.6950 N   0  0  0  0  0  0  0  0  0  0  0  0
   39.9990   22.0960   29.4470 C   0  0  0  0  0  3  0  0  0  0  0  0
   39.1800   21.3020   28.6960 N   0  0  0  0  0  0  0  0  0  0  0  0
   38.7780   20.3270   29.5290 C   0  0  0  0  0  0  0  0  0  0  0  0
   37.9590   19.2220   29.4180 C   0  0  0  0  0  0  0  0  0  0  0  0
   37.7210   18.3770   30.4610 N   0  0  0  0  0  0  0  0  0  0  0  0
   38.3050   18.6140   31.6680 C   0  0  0  0  0  3  0  0  0  0  0  0
   39.1090   19.6840   31.8080 N   0  0  0  0  0  0  0  0  0  0  0  0
   39.3290   20.4990   30.7760 C   0  0  0  0  0  0  0  0  0  0  0  0
   37.3280   18.9350   28.1770 N   0  0  0  0  0  0  0  0  0  0  0  0
   36.4070   19.4430   28.3120 H   0  0  0  0  0  0  0  0  0  0  0  0
   37.4570   18.4410   27.2720 H   0  0  0  0  0  0  0  0  0  0  0  0
   40.5840   23.4380   35.2980 C   0  0  0  0  0  0  0  0  0  0  0  0
   41.2380   22.8130   36.3510 C   0  0  0  0  0  0  0  0  0  0  0  0
   41.6750   21.6370   35.8220 N   0  0  0  0  0  0  0  0  0  0  0  0
   41.2930   21.6010   34.5530 C   0  0  0  0  0  0  0  0  0  0  0  0
   40.6090   22.7050   34.1860 N   0  0  0  0  0  0  0  0  0  0  0  0
   41.3570   23.2060   37.3670 H   0  0  0  0  0  0  0  0  0  0  0  0
   41.5240   20.7500   33.8990 H   0  0  0  0  0  0  0  0  0  0  0  0
   39.9400   24.7380   35.3750 C   0  0  0  0  0  0  0  0  0  0  0  0
   38.6750   24.8720   35.9750 C   0  0  0  0  0  0  0  0  0  0  0  0
   38.0970   26.1620   36.0230 C   0  0  0  0  0  0  0  0  0  0  0  0
   38.7830   27.1830   35.4950 N   0  0  0  0  0  0  0  0  0  0  0  0
   40.0080   27.0300   34.9190 C   0  0  0  0  0  0  0  0  0  0  0  0
   40.5810   25.8080   34.8610 N   0  0  0  0  0  0  0  0  0  0  0  0
   38.1570   24.0150   36.3890 H   0  0  0  0  0  0  0  0  0  0  0  0
   37.1190   26.2960   36.4810 H   0  0  0  0  0  0  0  0  0  0  0  0
   40.5080   27.8850   34.5140 H   0  0  0  0  0  0  0  0  0  0  0  0
  1  4  1  6  0  0  0
  1 24  1  0  0  0  0
  2  5  1  0  0  0  0
  2  1  1  0  0  0  0
  3  2  1  0  0  0  0
  3  7  1  1  0  0  0
  3  1  1  0  0  0  0
  6  2  1  0  0  0  0
  8 16  1  0  0  0  0
  8  3  1  0  0  0  0
  9  8  1  0  0  0  0
 10  9  2  0  0  0  0
 10 11  1  0  0  0  0
 11 16  1  0  0  0  0
 12 11  2  0  0  0  0
 12 13  1  0  0  0  0
 13 14  2  0  0  0  0
 14 15  1  0  0  0  0
 16 15  2  0  0  0  0
 17 18  1  0  0  0  0
 17 12  1  0  0  0  0
 19 17  1  0  0  0  0
 20 27  1  0  0  0  0
 20 21  2  0  0  0  0
 21 25  1  0  0  0  0
 22 21  1  0  0  0  0
 23 22  2  0  0  0  0
 24 23  1  0  0  0  0
 24 20  1  0  0  0  0
 26 23  1  0  0  0  0
 27 28  1  0  0  0  0
 28 29  2  0  0  0  0
 28 33  1  0  0  0  0
 29 34  1  0  0  0  0
 30 29  1  0  0  0  0
 31 30  2  0  0  0  0
 32 31  1  0  0  0  0
 32 27  2  0  0  0  0
 35 31  1  0  0  0  0
M  END
>  <minimizedAffinity>
-3.33822894

>  <minimizedRMSD>
5.09527397

$$$$
