
 OpenBabel03262519103D

 21 23  0  0  0  0  0  0  0  0999 V2000
   38.1070   25.5640   35.3390 C   0  0  0  0  0  0  0  0  0  0  0  0
   37.8030   26.8890   35.6590 C   0  0  0  0  0  0  0  0  0  0  0  0
   37.2620   27.6780   34.6980 C   0  0  0  0  0  0  0  0  0  0  0  0
   37.0380   27.1100   33.4290 C   0  0  0  0  0  0  0  0  0  0  0  0
   37.6360   25.3570   33.6280 S   0  0  0  0  0  0  0  0  0  0  0  0
   37.9910   27.2780   36.6410 H   0  0  0  0  0  0  0  0  0  0  0  0
   36.9680   28.7120   34.7640 H   0  0  0  0  0  0  0  0  0  0  0  0
   38.1900   24.2550   37.4780 C   0  0  0  0  0  0  0  0  0  0  0  0
   38.6820   24.5810   36.2060 C   0  0  0  0  0  0  0  0  0  0  0  0
   39.8010   23.9250   35.7400 C   0  0  0  0  0  0  0  0  0  0  0  0
   40.3750   22.9900   36.5400 N   0  0  0  0  0  0  0  0  0  0  0  0
   39.8800   22.6930   37.7690 C   0  0  0  0  0  0  0  0  0  0  0  0
   38.7870   23.3370   38.2200 N   0  0  0  0  0  0  0  0  0  0  0  0
   37.3030   24.8030   37.8000 H   0  0  0  0  0  0  0  0  0  0  0  0
   40.2430   24.1210   34.7630 H   0  0  0  0  0  0  0  0  0  0  0  0
   40.4340   21.9300   38.3020 H   0  0  0  0  0  0  0  0  0  0  0  0
   36.5220   27.5630   32.2120 C   0  0  0  0  0  0  0  0  0  0  0  0
   35.5800   26.9570   31.6740 O   0  0  0  0  0  0  0  0  0  0  0  0
   37.0750   28.7720   31.5300 C   0  0  0  0  0  0  0  0  0  0  0  0
   36.1590   29.5630   30.6510 C   0  0  0  0  0  0  0  0  0  0  0  0
   37.2320   28.7140   30.0160 C   0  0  0  0  0  0  0  0  0  0  0  0
  1  2  2  0  0  0  0
  1  9  1  0  0  0  0
  2  6  1  0  0  0  0
  3  7  1  0  0  0  0
  3  2  1  0  0  0  0
  4  5  1  0  0  0  0
  4  3  2  0  0  0  0
  5  1  1  0  0  0  0
  8 14  1  0  0  0  0
  8 13  1  0  0  0  0
  9  8  2  0  0  0  0
 10  9  1  0  0  0  0
 10 11  2  0  0  0  0
 11 12  1  0  0  0  0
 12 13  2  0  0  0  0
 12 16  1  0  0  0  0
 15 10  1  0  0  0  0
 17  4  1  0  0  0  0
 18 17  2  0  0  0  0
 19 17  1  0  0  0  0
 20 19  1  0  0  0  0
 21 20  1  0  0  0  0
 21 19  1  0  0  0  0
M  END
>  <minimizedAffinity>
-4.42096281

>  <minimizedRMSD>
0.2041682

$$$$
