
     RDKit          3D

 36 38  0  0  0  0  0  0  0  0999 V2000
   43.1269   23.3362   36.5376 C   0  0  0  0  0  0  0  0  0  0  0  0
   41.7255   23.1056   36.4002 C   0  0  0  0  0  0  0  0  0  0  0  0
   41.1748   24.0399   35.6261 C   0  0  0  0  0  0  0  0  0  0  0  0
   41.9035   25.0773   35.0532 N   0  0  0  0  0  0  0  0  0  0  0  0
   43.2033   25.2262   35.2260 C   0  0  0  0  0  0  0  0  0  0  0  0
   43.8210   24.3466   35.9758 N   0  0  0  0  0  0  0  0  0  0  0  0
   41.2388   21.9655   37.0859 C   0  0  0  0  0  0  0  0  0  0  0  0
   40.4885   22.3156   38.2366 F   0  0  0  0  0  0  0  0  0  0  0  0
   42.0334   21.1800   37.8329 F   0  0  0  0  0  0  0  0  0  0  0  0
   40.1389   21.2860   36.5491 F   0  0  0  0  0  0  0  0  0  0  0  0
   39.7910   23.9095   35.3772 C   0  0  0  0  0  0  0  0  0  0  0  0
   39.0218   25.0969   35.6916 C   0  0  0  0  0  0  0  0  0  0  0  0
   37.7762   24.6651   36.5000 C   0  0  2  0  0  0  0  0  0  0  0  0
   38.0079   24.3765   37.9264 C   0  0  0  0  0  0  0  0  0  0  0  0
   37.5555   23.3331   36.9543 C   0  0  1  0  0  0  0  0  0  0  0  0
   43.7765   22.6738   37.1420 H   0  0  0  0  0  0  0  0  0  0  0  0
   43.6603   26.0590   34.7384 H   0  0  0  0  0  0  0  0  0  0  0  0
   39.7671   23.9067   34.2208 H   0  0  0  0  0  0  0  0  0  0  0  0
   39.2267   23.0378   35.5657 H   0  0  0  0  0  0  0  0  0  0  0  0
   38.7850   25.8048   34.8946 H   0  0  0  0  0  0  0  0  0  0  0  0
   39.6165   25.7045   36.4387 H   0  0  0  0  0  0  0  0  0  0  0  0
   36.9552   25.3475   36.2808 H   0  0  0  0  0  0  0  0  0  0  0  0
   37.3443   24.7278   38.7573 H   0  0  0  0  0  0  0  0  0  0  0  0
   39.0268   24.4918   38.2604 H   0  0  0  0  0  0  0  0  0  0  0  0
   38.0149   22.4585   37.2688 H   0  0  0  0  0  0  0  0  0  0  0  0
   36.1364   22.9450   36.8455 N   0  0  0  0  0  0  0  0  0  0  0  0
   35.7725   21.7633   36.2852 C   0  0  0  0  0  0  0  0  0  0  0  0
   34.4655   21.3538   36.1567 C   0  0  0  0  0  0  0  0  0  0  0  0
   33.4531   22.1690   36.6135 C   0  0  0  0  0  0  0  0  0  0  0  0
   32.2933   21.7300   36.4624 O   0  0  0  0  0  0  0  0  0  0  0  0
   33.8419   23.3260   37.1603 N   0  0  0  0  0  0  0  0  0  0  0  0
   35.1251   23.6759   37.2608 C   0  0  0  0  0  0  0  0  0  0  0  0
   35.3148   24.7731   37.7889 O   0  0  0  0  0  0  0  0  0  0  0  0
   36.5598   21.0902   35.9107 H   0  0  0  0  0  0  0  0  0  0  0  0
   34.2747   20.3868   35.6923 H   0  0  0  0  0  0  0  0  0  0  0  0
   33.0509   23.9377   37.5047 H   0  0  0  0  0  0  0  0  0  0  0  0
  2  1  2  0
  2  7  1  0
  3  2  1  0
  4  5  1  0
  4  3  2  0
  5  6  2  0
  6  1  1  0
  7  9  1  0
  7  8  1  0
 10  7  1  0
 11  3  1  0
 11 12  1  0
 12 13  1  0
 13 15  1  0
 13 14  1  0
 15 14  1  0
  1 16  1  0
  5 17  1  0
 11 18  1  0
 11 19  1  0
 12 20  1  0
 12 21  1  0
 13 22  1  1
 14 23  1  0
 14 24  1  0
 15 25  1  6
 26 27  1  0
 27 28  2  0
 28 29  1  0
 29 30  2  0
 29 31  1  0
 31 32  1  0
 32 33  2  0
 32 26  1  0
 27 34  1  0
 28 35  1  0
 31 36  1  0
 15 26  1  0
M  ISO  8  16  14  17  14  18   8  19   8  20   8  21   8  22  13  23  13
M  ISO  2  24  13  25  13
M  END
>  <DihAtoms>  (1) 
12,14,25,26

>  <DihDeg>  (1) 
132.0005713870814

$$$$
