REMARK  Name = 
REMARK  5 active torsions:
REMARK  status: ('A' for Active; 'I' for Inactive)
REMARK    1  A    between atoms: C_2  and  C_7
REMARK    2  A    between atoms: C_3  and  C_11
REMARK    3  A    between atoms: C_11  and  C_12
REMARK    4  A    between atoms: C_12  and  C_13
REMARK    5  A    between atoms: C_15  and  N_26
REMARK                            x       y       z     vdW  Elec       q    Type
REMARK                         _______ _______ _______ _____ _____    ______ ____
ROOT
ATOM      1  C   UNL     1      39.022  25.097  35.692  0.00  0.00    +0.000 C 
ATOM      2  H   UNL     1      38.785  25.805  34.895  0.00  0.00    +0.000 HD
ATOM      3  H   UNL     1      39.617  25.704  36.439  0.00  0.00    +0.000 HD
ENDROOT
BRANCH   1   4
ATOM      4  C   UNL     1      37.776  24.665  36.500  0.00  0.00    +0.000 C 
ATOM      5  C   UNL     1      38.008  24.377  37.926  0.00  0.00    +0.000 C 
ATOM      6  C   UNL     1      37.556  23.333  36.954  0.00  0.00    +0.000 C 
ATOM      7  H   UNL     1      36.955  25.348  36.281  0.00  0.00    +0.000 HD
ATOM      8  H   UNL     1      37.344  24.728  38.757  0.00  0.00    +0.000 HD
ATOM      9  H   UNL     1      39.027  24.492  38.260  0.00  0.00    +0.000 HD
ATOM     10  H   UNL     1      38.015  22.459  37.269  0.00  0.00    +0.000 HD
BRANCH   6  11
ATOM     11  N   UNL     1      36.136  22.945  36.846  0.00  0.00    +0.000 N 
ATOM     12  C   UNL     1      35.357  22.815  37.950  0.00  0.00    +0.000 A 
ATOM     13  C   UNL     1      34.031  22.454  37.905  0.00  0.00    +0.000 A 
ATOM     14  C   UNL     1      33.438  22.205  36.687  0.00  0.00    +0.000 A 
ATOM     15  O   UNL     1      32.231  21.883  36.726  0.00  0.00    +0.000 OA
ATOM     16  N   UNL     1      34.230  22.341  35.617  0.00  0.00    +0.000 N 
ATOM     17  C   UNL     1      35.512  22.694  35.716  0.00  0.00    +0.000 A 
ATOM     18  O   UNL     1      36.103  22.775  34.637  0.00  0.00    +0.000 OA
ATOM     19  H   UNL     1      33.757  22.146  34.692  0.00  0.00    +0.000 HD
ENDBRANCH   6  11
ENDBRANCH   1   4
BRANCH   1  20
ATOM     20  C   UNL     1      39.791  23.910  35.377  0.00  0.00    +0.000 C 
ATOM     21  H   UNL     1      39.767  23.907  34.221  0.00  0.00    +0.000 HD
ATOM     22  H   UNL     1      39.227  23.038  35.566  0.00  0.00    +0.000 HD
BRANCH  20  25
ATOM     23  C   UNL     1      43.127  23.336  36.538  0.00  0.00    +0.000 A 
ATOM     24  C   UNL     1      41.725  23.106  36.400  0.00  0.00    +0.000 A 
ATOM     25  C   UNL     1      41.175  24.040  35.626  0.00  0.00    +0.000 A 
ATOM     26  N   UNL     1      41.904  25.077  35.053  0.00  0.00    +0.000 NA
ATOM     27  C   UNL     1      43.203  25.226  35.226  0.00  0.00    +0.000 A 
ATOM     28  N   UNL     1      43.821  24.347  35.976  0.00  0.00    +0.000 NA
ATOM     29  H   UNL     1      43.776  22.674  37.142  0.00  0.00    +0.000 HD
ATOM     30  H   UNL     1      43.660  26.059  34.738  0.00  0.00    +0.000 HD
BRANCH  24  31
ATOM     31  C   UNL     1      41.239  21.965  37.086  0.00  0.00    +0.000 C 
ATOM     32  F   UNL     1      40.489  22.316  38.237  0.00  0.00    +0.000 F 
ATOM     33  F   UNL     1      42.033  21.180  37.833  0.00  0.00    +0.000 F 
ATOM     34  F   UNL     1      40.139  21.286  36.549  0.00  0.00    +0.000 F 
ENDBRANCH  24  31
ENDBRANCH  20  25
ENDBRANCH   1  20
TORSDOF 5
