
 OpenBabel03262517083D

 47 50  0  0  0  0  0  0  0  0999 V2000
   39.6310   22.9560   37.3920 C   0  0  0  0  0  0  0  0  0  0  0  0
   38.5960   23.2080   36.5300 C   0  0  0  0  0  0  0  0  0  0  0  0
   37.5210   23.4140   37.3250 N   0  0  0  0  0  0  0  0  0  0  0  0
   37.8960   23.2930   38.6000 C   0  0  0  0  0  0  0  0  0  0  0  0
   39.1880   23.0110   38.6830 N   0  0  0  0  0  0  0  0  0  0  0  0
   37.3190   23.3880   39.5200 H   0  0  0  0  0  0  0  0  0  0  0  0
   39.8080   22.8520   39.4980 H   0  0  0  0  0  0  0  0  0  0  0  0
   42.7840   21.1550   36.5630 C   0  0  0  0  0  0  0  0  0  0  0  0
   41.4610   21.3670   36.9470 C   0  0  0  0  0  0  0  0  0  0  0  0
   41.0100   22.6730   36.9910 C   0  0  0  0  0  0  0  0  0  0  0  0
   41.8890   23.6920   36.6540 N   0  0  0  0  0  0  0  0  0  0  0  0
   43.1520   23.4300   36.2910 C   0  0  0  0  0  0  0  0  0  0  0  0
   43.6090   22.1730   36.2430 N   0  0  0  0  0  0  0  0  0  0  0  0
   43.1960   20.1440   36.5110 H   0  0  0  0  0  0  0  0  0  0  0  0
   40.8160   20.5390   37.2020 H   0  0  0  0  0  0  0  0  0  0  0  0
   44.0660   24.4630   35.9420 N   0  0  0  0  0  0  0  0  0  0  0  0
   44.2460   24.5580   34.5970 C   0  0  0  0  0  0  0  0  0  0  0  0
   45.1060   25.5150   34.0900 C   0  0  0  0  0  0  0  0  0  0  0  0
   45.7860   26.3770   34.9260 C   0  0  0  0  0  0  0  0  0  0  0  0
   46.5870   27.2750   34.5420 O   0  0  0  0  0  0  0  0  0  0  0  0
   45.5610   26.2260   36.2490 N   0  0  0  0  0  0  0  0  0  0  0  0
   44.7320   25.3040   36.7500 C   0  0  0  0  0  0  0  0  0  0  0  0
   44.4980   25.1350   37.9750 O   0  0  0  0  0  0  0  0  0  0  0  0
   46.0610   26.8620   36.9040 H   0  0  0  0  0  0  0  0  0  0  0  0
   38.5870   23.2550   35.0820 C   0  0  0  0  0  0  0  0  0  0  0  0
   38.4330   22.0420   34.4910 C   0  0  0  0  0  0  0  0  0  0  0  0
   38.3980   21.8850   33.1230 C   0  0  0  0  0  0  0  0  0  0  0  0
   38.5230   22.9880   32.3060 C   0  0  0  0  0  0  0  0  0  0  0  0
   38.6790   24.2010   32.9320 C   0  0  0  0  0  0  0  0  0  0  0  0
   38.7230   24.4270   34.3320 C   0  0  0  0  0  0  0  0  0  0  0  0
   38.3230   21.0960   35.0220 H   0  0  0  0  0  0  0  0  0  0  0  0
   38.2760   20.9300   32.6260 H   0  0  0  0  0  0  0  0  0  0  0  0
   38.5040   22.9290   31.2470 H   0  0  0  0  0  0  0  0  0  0  0  0
   38.7780   25.0730   32.2860 H   0  0  0  0  0  0  0  0  0  0  0  0
   38.8890   25.7100   34.9410 C   0  0  0  0  0  0  0  0  0  0  0  0
   38.3230   26.6940   33.8810 C   0  0  0  0  0  0  0  0  0  0  0  0
   37.2940   26.4390   33.6110 H   0  0  0  0  0  0  0  0  0  0  0  0
   38.2410   27.7110   34.3670 H   0  0  0  0  0  0  0  0  0  0  0  0
   39.0270   26.8430   33.0540 H   0  0  0  0  0  0  0  0  0  0  0  0
   38.2780   26.1190   36.1880 C   0  0  0  0  0  0  0  0  0  0  0  0
   39.0190   26.0050   37.0280 H   0  0  0  0  0  0  0  0  0  0  0  0
   37.3120   25.6340   36.3770 H   0  0  0  0  0  0  0  0  0  0  0  0
   38.0500   27.2140   36.2150 H   0  0  0  0  0  0  0  0  0  0  0  0
   40.3800   26.0230   35.0120 C   0  0  0  0  0  0  0  0  0  0  0  0
   40.8170   25.7380   35.9760 H   0  0  0  0  0  0  0  0  0  0  0  0
   40.4940   27.1170   34.8650 H   0  0  0  0  0  0  0  0  0  0  0  0
   40.8710   25.5290   34.1400 H   0  0  0  0  0  0  0  0  0  0  0  0
  1  5  1  0  0  0  0
  2  3  1  0  0  0  0
  2  1  2  0  0  0  0
  3  4  2  0  0  0  0
  4  5  1  0  0  0  0
  4  6  1  0  0  0  0
  5  7  1  0  0  0  0
  8  9  1  0  0  0  0
  9 10  2  0  0  0  0
  9 15  1  0  0  0  0
 10  1  1  0  0  0  0
 11 10  1  0  0  0  0
 12 11  2  0  0  0  0
 13 12  1  0  0  0  0
 13  8  2  0  0  0  0
 14  8  1  0  0  0  0
 16 12  1  0  0  0  0
 16 22  1  0  0  0  0
 17 16  1  0  0  0  0
 18 17  2  0  0  0  0
 18 19  1  0  0  0  0
 19 21  1  0  0  0  0
 20 19  2  0  0  0  0
 21 22  1  0  0  0  0
 21 24  1  0  0  0  0
 22 23  2  0  0  0  0
 25  2  1  0  0  0  0
 26 31  1  0  0  0  0
 26 25  1  0  0  0  0
 27 26  2  0  0  0  0
 28 29  2  0  0  0  0
 28 27  1  0  0  0  0
 29 30  1  0  0  0  0
 30 35  1  0  0  0  0
 30 25  2  0  0  0  0
 32 27  1  0  0  0  0
 33 28  1  0  0  0  0
 34 29  1  0  0  0  0
 35 44  1  0  0  0  0
 35 40  1  0  0  0  0
 36 38  1  0  0  0  0
 36 35  1  0  0  0  0
 37 36  1  0  0  0  0
 39 36  1  0  0  0  0
 40 43  1  0  0  0  0
 40 42  1  0  0  0  0
 40 41  1  0  0  0  0
 44 45  1  0  0  0  0
 46 44  1  0  0  0  0
 47 44  1  0  0  0  0
M  END
>  <minimizedAffinity>
-6.51679897

>  <minimizedRMSD>
3.45110345

$$$$
