
 OpenBabel03262519383D

 31 33  0  0  1  0  0  0  0  0999 V2000
   38.3680   25.6510   34.4570 N   0  0  0  0  0  0  0  0  0  0  0  0
   37.1530   26.3860   34.3290 C   0  0  0  0  0  0  0  0  0  0  0  0
   37.4580   27.5140   33.3830 C   0  0  0  0  0  0  0  0  0  0  0  0
   38.8880   27.2720   32.9430 C   0  0  0  0  0  0  0  0  0  0  0  0
   38.9570   25.7500   33.1290 C   0  0  2  0  0  0  0  0  0  0  0  0
   36.6850   26.7070   35.2600 H   0  0  0  0  0  0  0  0  0  0  0  0
   36.4260   25.7250   33.7890 H   0  0  0  0  0  0  0  0  0  0  0  0
   37.4870   28.4610   33.9920 H   0  0  0  0  0  0  0  0  0  0  0  0
   36.7630   27.5750   32.5450 H   0  0  0  0  0  0  0  0  0  0  0  0
   39.0190   27.4790   31.8600 H   0  0  0  0  0  0  0  0  0  0  0  0
   39.6210   27.7850   33.5740 H   0  0  0  0  0  0  0  0  0  0  0  0
   39.9950   25.4270   33.2310 H   0  0  0  0  0  0  0  0  0  0  0  0
   38.1970   24.2570   34.7240 C   0  0  0  0  0  0  0  0  0  0  0  0
   38.8000   23.5920   34.0930 H   0  0  0  0  0  0  0  0  0  0  0  0
   37.1160   24.0030   34.5420 H   0  0  0  0  0  0  0  0  0  0  0  0
   39.8650   22.8490   37.8200 C   0  0  0  0  0  0  0  0  0  0  0  0
   39.6290   23.1700   36.4810 C   0  0  0  0  0  0  0  0  0  0  0  0
   38.4820   23.8970   36.1430 C   0  0  0  0  0  0  0  0  0  0  0  0
   37.6490   24.2540   37.1610 N   0  0  0  0  0  0  0  0  0  0  0  0
   37.9020   23.9310   38.4430 C   0  0  0  0  0  0  0  0  0  0  0  0
   38.9990   23.2370   38.7580 N   0  0  0  0  0  0  0  0  0  0  0  0
   40.7380   22.2920   38.1000 H   0  0  0  0  0  0  0  0  0  0  0  0
   40.3030   22.8740   35.7070 H   0  0  0  0  0  0  0  0  0  0  0  0
   37.2200   24.2290   39.2260 H   0  0  0  0  0  0  0  0  0  0  0  0
   38.2330   25.0760   32.1750 O   0  0  0  0  0  0  0  0  0  0  0  0
   38.8090   24.6570   30.9840 C   0  0  0  0  0  0  0  0  0  0  0  0
   38.2160   23.7750   30.1180 C   0  0  0  0  0  3  0  0  0  0  0  0
   39.0610   23.6150   29.0940 N   0  0  0  0  0  0  0  0  0  0  0  0
   40.1380   24.3830   29.3400 C   0  0  0  0  0  3  0  0  0  0  0  0
   40.0170   25.0500   30.5150 N   0  0  0  0  0  0  0  0  0  0  0  0
   40.7090   25.6980   30.9180 H   0  0  0  0  0  0  0  0  0  0  0  0
  1 13  1  0  0  0  0
  2  1  1  0  0  0  0
  2  6  1  0  0  0  0
  3  8  1  0  0  0  0
  3  2  1  0  0  0  0
  4  5  1  0  0  0  0
  4  3  1  0  0  0  0
  4 11  1  0  0  0  0
  5 12  1  1  0  0  0
  5  1  1  0  0  0  0
  7  2  1  0  0  0  0
  9  3  1  0  0  0  0
 10  4  1  0  0  0  0
 13 18  1  0  0  0  0
 14 13  1  0  0  0  0
 15 13  1  0  0  0  0
 16 22  1  0  0  0  0
 16 21  1  0  0  0  0
 17 16  2  0  0  0  0
 18 17  1  0  0  0  0
 18 19  2  0  0  0  0
 19 20  1  0  0  0  0
 20 21  2  0  0  0  0
 20 24  1  0  0  0  0
 23 17  1  0  0  0  0
 25  5  1  0  0  0  0
 26 25  1  0  0  0  0
 27 26  2  0  0  0  0
 28 29  2  0  0  0  0
 28 27  1  0  0  0  0
 29 30  1  0  0  0  0
 30 31  1  0  0  0  0
 30 26  1  0  0  0  0
M  END
>  <minimizedAffinity>
-3.8805933

>  <minimizedRMSD>
3.68152475

$$$$
