
     RDKit          3D

 25 26  0  0  0  0  0  0  0  0999 V2000
   41.0373   21.8978   37.4466 C   0  0  0  0  0  0  0  0  0  0  0  0
   39.9482   22.7311   37.7967 C   0  0  0  0  0  0  0  0  0  0  0  0
   39.1831   23.3046   36.7466 C   0  0  0  0  0  0  0  0  0  0  0  0
   39.5258   23.0320   35.4436 N   0  0  0  0  0  0  0  0  0  0  0  0
   40.5831   22.2239   35.1631 C   0  0  0  0  0  0  0  0  0  0  0  0
   41.3380   21.6572   36.1512 N   0  0  0  0  0  0  0  0  0  0  0  0
   38.0430   24.1888   37.0648 C   0  0  1  0  0  0  0  0  0  0  0  0
   37.9073   24.4238   38.5518 C   0  0  0  0  0  0  0  0  0  0  0  0
   38.1342   25.5339   36.3717 C   0  0  0  0  0  0  0  0  0  0  0  0
   41.5714   21.4981   38.2958 H   0  0  0  0  0  0  0  0  0  0  0  0
   39.7148   22.9181   38.8360 H   0  0  0  0  0  0  0  0  0  0  0  0
   40.8044   22.0462   34.1199 H   0  0  0  0  0  0  0  0  0  0  0  0
   37.1421   23.7093   36.6195 H   0  0  0  0  0  0  0  0  0  0  0  0
   37.1938   25.2418   38.7780 H   0  0  0  0  0  0  0  0  0  0  0  0
   37.5669   23.5027   39.0660 H   0  0  0  0  0  0  0  0  0  0  0  0
   38.8763   24.7684   38.9684 H   0  0  0  0  0  0  0  0  0  0  0  0
   38.0760   25.3073   35.2842 H   0  0  0  0  0  0  0  0  0  0  0  0
   37.2206   26.0823   36.6355 H   0  0  0  0  0  0  0  0  0  0  0  0
   39.3103   26.2680   36.7274 N   0  0  0  0  0  0  0  0  0  0  0  0
   39.4299   27.1483   37.7619 C   0  0  0  0  0  0  0  0  0  0  0  0
   40.6725   27.6363   37.7811 N   0  0  0  0  0  0  0  0  0  0  0  0
   41.3550   27.0644   36.7510 C   0  0  0  0  0  0  0  0  0  0  0  0
   40.4912   26.2354   36.1306 N   0  0  0  0  0  0  0  0  0  0  0  0
   38.6278   27.4050   38.4579 H   0  0  0  0  0  0  0  0  0  0  0  0
   42.3672   27.1453   36.3743 H   0  0  0  0  0  0  0  0  0  0  0  0
  1  2  2  0
  3  7  1  0
  3  2  1  0
  4  3  2  0
  5  4  1  0
  5  6  2  0
  6  1  1  0
  7  8  1  0
  9  7  1  0
  1 10  1  0
  2 11  1  0
  5 12  1  0
  7 13  1  6
  8 14  1  0
  8 15  1  0
  8 16  1  0
  9 17  1  0
  9 18  1  0
 19 20  1  0
 20 21  2  0
 21 22  1  0
 22 23  2  0
 23 19  1  0
 20 24  1  0
 22 25  1  0
  9 19  1  0
M  ISO  8  10  14  11  14  12  14  13   8  14   8  15   8  16   8  17   8
M  ISO  1  18   8
M  END
>  <DihAtoms>  (1) 
6,8,18,19

>  <DihDeg>  (1) 
90.00305464242068

$$$$
