
 OpenBabel03262519473D

 41 44  0  0  1  0  0  0  0  0999 V2000
   37.6470   25.3260   32.9150 N   0  0  0  0  0  0  0  0  0  0  0  0
   37.1600   24.1360   32.5560 C   0  0  0  0  0  0  0  0  0  0  0  0
   36.2480   24.1870   31.5320 C   0  0  0  0  0  0  0  0  0  0  0  0
   36.1610   25.4830   31.2370 N   0  0  0  0  0  0  0  0  0  0  0  0
   37.0050   26.1720   32.0680 C   0  0  0  0  0  0  0  0  0  0  0  0
   37.4840   23.2110   33.0600 H   0  0  0  0  0  0  0  0  0  0  0  0
   35.7290   23.3500   31.0840 H   0  0  0  0  0  0  0  0  0  0  0  0
   37.1290   27.6740   31.9240 C   0  0  1  0  0  0  0  0  0  0  0  0
   36.4440   28.2830   30.7620 C   0  0  0  0  0  0  0  0  0  0  0  0
   35.8440   28.4570   32.1380 C   0  0  2  0  0  0  0  0  0  0  0  0
   38.0150   28.0960   32.4330 H   0  0  0  0  0  0  0  0  0  0  0  0
   36.9610   29.1220   30.2570 H   0  0  0  0  0  0  0  0  0  0  0  0
   35.8830   27.6040   30.0890 H   0  0  0  0  0  0  0  0  0  0  0  0
   34.9380   27.8960   32.3840 H   0  0  0  0  0  0  0  0  0  0  0  0
   35.8790   29.8180   32.5750 N   0  0  0  0  0  0  0  0  0  0  0  0
   36.1710   30.9500   31.9080 C   0  0  0  0  0  3  0  0  0  0  0  0
   36.1400   32.1740   32.5460 C   0  0  0  0  0  3  0  0  0  0  0  0
   35.8100   32.2870   33.8810 C   0  0  0  0  0  0  0  0  0  0  0  0
   35.7870   33.4090   34.4450 O   0  0  0  0  0  0  0  0  0  0  0  0
   35.5240   31.1370   34.5180 N   0  0  0  0  0  0  0  0  0  0  0  0
   35.5510   29.9240   33.8980 C   0  0  0  0  0  0  0  0  0  0  0  0
   35.2500   28.9490   34.6680 O   0  0  0  0  0  0  0  0  0  0  0  0
   35.2740   31.2330   35.5340 H   0  0  0  0  0  0  0  0  0  0  0  0
   38.5660   25.7820   33.8870 C   0  0  0  0  0  0  0  0  0  0  0  0
   39.0320   26.7370   33.5990 H   0  0  0  0  0  0  0  0  0  0  0  0
   39.4120   25.0450   33.9280 H   0  0  0  0  0  0  0  0  0  0  0  0
   37.9910   25.8680   35.2510 C   0  0  1  0  0  0  0  0  0  0  0  0
   36.8740   25.7280   35.1910 H   0  0  0  0  0  0  0  0  0  0  0  0
   38.4480   23.6140   38.2600 C   0  0  0  0  0  0  0  0  0  0  0  0
   37.9120   24.6240   37.4590 C   0  0  0  0  0  0  0  0  0  0  0  0
   38.4970   24.8350   36.1770 C   0  0  0  0  0  0  0  0  0  0  0  0
   39.5610   24.0350   35.7900 N   0  0  0  0  0  0  0  0  0  0  0  0
   40.0430   23.0830   36.5800 C   0  0  0  0  0  0  0  0  0  0  0  0
   39.4890   22.8610   37.8320 N   0  0  0  0  0  0  0  0  0  0  0  0
   38.0260   23.4320   39.2340 H   0  0  0  0  0  0  0  0  0  0  0  0
   37.0810   25.2480   37.7610 H   0  0  0  0  0  0  0  0  0  0  0  0
   40.8800   22.4790   36.2330 H   0  0  0  0  0  0  0  0  0  0  0  0
   38.2150   27.2550   35.8440 C   0  0  0  0  0  0  0  0  0  0  0  0
   38.3910   27.1180   36.9300 H   0  0  0  0  0  0  0  0  0  0  0  0
   37.2950   27.8680   35.7700 H   0  0  0  0  0  0  0  0  0  0  0  0
   39.1080   27.6720   35.3910 H   0  0  0  0  0  0  0  0  0  0  0  0
  1 24  1  0  0  0  0
  2  1  1  0  0  0  0
  2  6  1  0  0  0  0
  3  2  2  0  0  0  0
  4  3  1  0  0  0  0
  4  5  2  0  0  0  0
  5  1  1  0  0  0  0
  7  3  1  0  0  0  0
  8  5  1  0  0  0  0
  8 10  1  0  0  0  0
  8 11  1  1  0  0  0
  9  8  1  0  0  0  0
  9 10  1  0  0  0  0
 10 14  1  1  0  0  0
 10 15  1  0  0  0  0
 12  9  1  0  0  0  0
 13  9  1  0  0  0  0
 15 21  1  0  0  0  0
 16 17  2  0  0  0  0
 16 15  1  0  0  0  0
 17 18  1  0  0  0  0
 18 19  2  0  0  0  0
 18 20  1  0  0  0  0
 20 23  1  0  0  0  0
 21 20  1  0  0  0  0
 21 22  2  0  0  0  0
 24 26  1  0  0  0  0
 24 27  1  0  0  0  0
 25 24  1  0  0  0  0
 27 28  1  6  0  0  0
 27 38  1  0  0  0  0
 27 31  1  0  0  0  0
 29 35  1  0  0  0  0
 30 36  1  0  0  0  0
 30 29  2  0  0  0  0
 31 30  1  0  0  0  0
 32 31  2  0  0  0  0
 32 33  1  0  0  0  0
 33 34  2  0  0  0  0
 34 29  1  0  0  0  0
 37 33  1  0  0  0  0
 38 39  1  0  0  0  0
 40 38  1  0  0  0  0
 41 38  1  0  0  0  0
M  END
>  <minimizedAffinity>
-5.46451902

>  <minimizedRMSD>
1.50050867

$$$$
