REMARK  Name = 
REMARK  4 active torsions:
REMARK  status: ('A' for Active; 'I' for Inactive)
REMARK    1  A    between atoms: C_3  and  C_7
REMARK    2  A    between atoms: C_7  and  C_8
REMARK    3  A    between atoms: C_7  and  C_9
REMARK    4  A    between atoms: C_9  and  N_19
REMARK                            x       y       z     vdW  Elec       q    Type
REMARK                         _______ _______ _______ _____ _____    ______ ____
ROOT
ATOM      1  C   UNL     1      38.043  24.189  37.065  0.00  0.00    +0.000 C 
ATOM      2  H   UNL     1      37.142  23.709  36.620  0.00  0.00    +0.000 HD
ENDROOT
BRANCH   1   5
ATOM      3  C   UNL     1      41.037  21.898  37.447  0.00  0.00    +0.000 A 
ATOM      4  C   UNL     1      39.948  22.731  37.797  0.00  0.00    +0.000 A 
ATOM      5  C   UNL     1      39.183  23.305  36.747  0.00  0.00    +0.000 A 
ATOM      6  N   UNL     1      39.526  23.032  35.444  0.00  0.00    +0.000 NA
ATOM      7  C   UNL     1      40.583  22.224  35.163  0.00  0.00    +0.000 A 
ATOM      8  N   UNL     1      41.338  21.657  36.151  0.00  0.00    +0.000 NA
ATOM      9  H   UNL     1      41.571  21.498  38.296  0.00  0.00    +0.000 HD
ATOM     10  H   UNL     1      39.715  22.918  38.836  0.00  0.00    +0.000 HD
ATOM     11  H   UNL     1      40.804  22.046  34.120  0.00  0.00    +0.000 HD
ENDBRANCH   1   5
BRANCH   1  12
ATOM     12  C   UNL     1      37.907  24.424  38.552  0.00  0.00    +0.000 C 
ATOM     13  H   UNL     1      37.194  25.242  38.778  0.00  0.00    +0.000 HD
ATOM     14  H   UNL     1      37.567  23.503  39.066  0.00  0.00    +0.000 HD
ATOM     15  H   UNL     1      38.876  24.768  38.968  0.00  0.00    +0.000 HD
ENDBRANCH   1  12
BRANCH   1  16
ATOM     16  C   UNL     1      38.134  25.534  36.372  0.00  0.00    +0.000 C 
ATOM     17  H   UNL     1      38.076  25.307  35.284  0.00  0.00    +0.000 HD
ATOM     18  H   UNL     1      37.221  26.082  36.636  0.00  0.00    +0.000 HD
BRANCH  16  19
ATOM     19  N   UNL     1      39.310  26.268  36.727  0.00  0.00    +0.000 N 
ATOM     20  C   UNL     1      39.430  27.148  37.762  0.00  0.00    +0.000 A 
ATOM     21  N   UNL     1      40.672  27.636  37.781  0.00  0.00    +0.000 NA
ATOM     22  C   UNL     1      41.355  27.064  36.751  0.00  0.00    +0.000 A 
ATOM     23  N   UNL     1      40.491  26.235  36.131  0.00  0.00    +0.000 NA
ENDBRANCH  16  19
ENDBRANCH   1  16
TORSDOF 4
