
 OpenBabel03262517383D

 30 32  0  0  0  0  0  0  0  0999 V2000
   39.6320   23.2120   35.7850 C   0  0  0  0  0  0  0  0  0  0  0  0
   40.8800   23.7800   35.9850 C   0  0  0  0  0  0  0  0  0  0  0  0
   41.9380   23.3430   35.2310 C   0  0  0  0  0  0  0  0  0  0  0  0
   41.7320   22.3720   34.3170 N   0  0  0  0  0  0  0  0  0  0  0  0
   40.5220   21.8320   34.1340 C   0  0  0  0  0  0  0  0  0  0  0  0
   39.4690   22.2300   34.8470 N   0  0  0  0  0  0  0  0  0  0  0  0
   43.2830   23.8060   35.2960 N   0  0  0  0  0  0  0  0  0  0  0  0
   44.3310   23.2860   36.1430 C   0  0  0  0  0  0  0  0  0  0  0  0
   44.8160   24.3650   37.0760 C   0  0  0  0  0  0  0  0  0  0  0  0
   44.3520   25.6250   36.6540 O   0  0  0  0  0  0  0  0  0  0  0  0
   44.6860   25.8120   35.3080 C   0  0  0  0  0  0  0  0  0  0  0  0
   43.7930   24.9140   34.4800 C   0  0  0  0  0  0  0  0  0  0  0  0
   41.0920   24.5560   36.7010 H   0  0  0  0  0  0  0  0  0  0  0  0
   40.3140   21.0520   33.4110 H   0  0  0  0  0  0  0  0  0  0  0  0
   45.1630   22.9620   35.4600 H   0  0  0  0  0  0  0  0  0  0  0  0
   43.9620   22.4350   36.7640 H   0  0  0  0  0  0  0  0  0  0  0  0
   45.9300   24.3520   37.0660 H   0  0  0  0  0  0  0  0  0  0  0  0
   44.4640   24.2210   38.1190 H   0  0  0  0  0  0  0  0  0  0  0  0
   45.7540   25.5730   35.1640 H   0  0  0  0  0  0  0  0  0  0  0  0
   44.5060   26.8900   35.0810 H   0  0  0  0  0  0  0  0  0  0  0  0
   44.4100   24.4370   33.6910 H   0  0  0  0  0  0  0  0  0  0  0  0
   42.9280   25.4840   34.0390 H   0  0  0  0  0  0  0  0  0  0  0  0
   38.5570   23.7040   36.6000 C   0  0  0  0  0  0  0  0  0  0  0  0
   38.2160   23.2110   37.7140 O   0  0  0  0  0  0  0  0  0  0  0  0
   37.8760   24.8800   35.9780 C   0  0  0  0  0  0  0  0  0  0  0  0
   38.3000   26.1830   36.5770 C   0  0  0  0  0  0  0  0  0  0  0  0
   38.8690   27.1840   35.6410 C   0  0  0  0  0  0  0  0  0  0  0  0
   38.2240   27.2930   34.3030 C   0  0  0  0  0  0  0  0  0  0  0  0
   37.3380   26.1170   33.9820 C   0  0  0  0  0  0  0  0  0  0  0  0
   38.0660   24.8770   34.4620 C   0  0  0  0  0  0  0  0  0  0  0  0
  1  2  1  0  0  0  0
  1 23  1  0  0  0  0
  2 13  1  0  0  0  0
  3  7  1  0  0  0  0
  3  2  2  0  0  0  0
  4  3  1  0  0  0  0
  5  4  2  0  0  0  0
  5  6  1  0  0  0  0
  6  1  2  0  0  0  0
  7  8  1  0  0  0  0
  8 16  1  0  0  0  0
  8  9  1  0  0  0  0
  9 18  1  0  0  0  0
 10  9  1  0  0  0  0
 11 10  1  0  0  0  0
 12  7  1  0  0  0  0
 12 11  1  0  0  0  0
 14  5  1  0  0  0  0
 15  8  1  0  0  0  0
 17  9  1  0  0  0  0
 19 11  1  0  0  0  0
 20 11  1  0  0  0  0
 21 12  1  0  0  0  0
 22 12  1  0  0  0  0
 23 24  2  0  0  0  0
 25 26  1  0  0  0  0
 25 23  1  0  0  0  0
 27 26  1  0  0  0  0
 28 27  1  0  0  0  0
 29 28  1  0  0  0  0
 29 30  1  0  0  0  0
 30 25  1  0  0  0  0
M  END
>  <minimizedAffinity>
-4.57429266

>  <minimizedRMSD>
5.67077255

$$$$
