
     RDKit          3D

 33 35  0  0  0  0  0  0  0  0999 V2000
   37.8985   25.6392   34.3566 N   0  0  0  0  0  0  0  0  0  0  0  0
   37.3778   25.3285   33.0665 C   0  0  0  0  0  0  0  0  0  0  0  0
   36.7301   26.5924   32.5733 C   0  0  0  0  0  0  0  0  0  0  0  0
   37.0250   27.6204   33.6468 C   0  0  0  0  0  0  0  0  0  0  0  0
   38.3194   27.0258   34.2188 C   0  0  2  0  0  0  0  0  0  0  0  0
   39.0602   24.8937   34.7266 C   0  0  0  0  0  0  0  0  0  0  0  0
   37.9394   24.1970   38.2779 C   0  0  0  0  0  0  0  0  0  0  0  0
   37.9955   24.7592   37.0000 C   0  0  0  0  0  0  0  0  0  0  0  0
   38.9696   24.3170   36.0993 C   0  0  0  0  0  0  0  0  0  0  0  0
   39.8219   23.3453   36.5315 N   0  0  0  0  0  0  0  0  0  0  0  0
   39.7442   22.8214   37.7701 C   0  0  0  0  0  0  0  0  0  0  0  0
   38.8112   23.2491   38.6239 N   0  0  0  0  0  0  0  0  0  0  0  0
   39.3832   27.1750   33.3628 O   0  0  0  0  0  0  0  0  0  0  0  0
   36.7326   24.4497   33.0057 H   0  0  0  0  0  0  0  0  0  0  0  0
   38.2569   25.1549   32.3925 H   0  0  0  0  0  0  0  0  0  0  0  0
   35.6156   26.4301   32.6092 H   0  0  0  0  0  0  0  0  0  0  0  0
   37.0782   26.8999   31.5869 H   0  0  0  0  0  0  0  0  0  0  0  0
   37.2806   28.6054   33.2050 H   0  0  0  0  0  0  0  0  0  0  0  0
   36.2409   27.6771   34.4086 H   0  0  0  0  0  0  0  0  0  0  0  0
   38.4903   27.3943   35.2328 H   0  0  0  0  0  0  0  0  0  0  0  0
   40.0012   25.4558   34.6728 H   0  0  0  0  0  0  0  0  0  0  0  0
   39.1494   24.0234   34.0207 H   0  0  0  0  0  0  0  0  0  0  0  0
   37.1993   24.5230   38.9830 H   0  0  0  0  0  0  0  0  0  0  0  0
   37.3108   25.5206   36.6927 H   0  0  0  0  0  0  0  0  0  0  0  0
   40.4364   22.0517   38.0805 H   0  0  0  0  0  0  0  0  0  0  0  0
   40.5749   27.7531   33.7758 C   0  0  0  0  0  0  0  0  0  0  0  0
   41.4109   28.4564   32.9461 C   0  0  0  0  0  0  0  0  0  0  0  0
   42.4457   28.8554   33.6921 N   0  0  0  0  0  0  0  0  0  0  0  0
   42.2372   28.4028   34.9408 C   0  0  0  0  0  0  0  0  0  0  0  0
   41.0758   27.7079   35.0325 N   0  0  0  0  0  0  0  0  0  0  0  0
   41.3745   28.7100   31.9141 H   0  0  0  0  0  0  0  0  0  0  0  0
   42.8966   28.5592   35.7836 H   0  0  0  0  0  0  0  0  0  0  0  0
   40.6998   27.2645   35.8833 H   0  0  0  0  0  0  0  0  0  0  0  0
  1  6  1  0
  2  1  1  0
  3  2  1  0
  3  4  1  0
  4  5  1  0
  5  1  1  0
  6  9  1  0
  7 12  2  0
  8  7  1  0
  9 10  1  0
  9  8  2  0
 10 11  2  0
 11 12  1  0
 13  5  1  0
  2 14  1  0
  2 15  1  0
  3 16  1  0
  3 17  1  0
  4 18  1  0
  4 19  1  0
  5 20  1  1
  6 21  1  0
  6 22  1  0
  7 23  1  0
  8 24  1  0
 11 25  1  0
 26 27  2  0
 27 28  1  0
 28 29  2  0
 29 30  1  0
 30 26  1  0
 27 31  1  0
 29 32  1  0
 30 33  1  0
 13 26  1  0
M  ISO  8  14  13  15  13  16  13  17  13  18  13  19  13  20  13  21   8
M  ISO  4  22   8  23  14  24  14  25  14
M  END
>  <DihAtoms>  (1) 
4,12,25,26

>  <DihDeg>  (1) 
-0.0012864481473618343

$$$$
