
 OpenBabel03262518503D

 33 35  0  0  0  0  0  0  0  0999 V2000
   38.3850   22.5820   32.0610 C   0  0  0  0  0  0  0  0  0  0  0  0
   37.7300   21.7490   32.9020 C   0  0  0  0  0  0  0  0  0  0  0  0
   37.8470   21.9870   34.2560 C   0  0  0  0  0  0  0  0  0  0  0  0
   38.5790   23.0050   34.7740 C   0  0  0  0  0  0  0  0  0  0  0  0
   39.2280   23.8360   33.8820 C   0  0  0  0  0  0  0  0  0  0  0  0
   39.1400   23.6350   32.5080 C   0  0  0  0  0  0  0  0  0  0  0  0
   37.3290   21.3250   34.9360 H   0  0  0  0  0  0  0  0  0  0  0  0
   39.8060   24.6450   34.3180 H   0  0  0  0  0  0  0  0  0  0  0  0
   39.6990   24.3640   31.9380 H   0  0  0  0  0  0  0  0  0  0  0  0
   39.7790   22.8880   38.2410 C   0  0  0  0  0  0  0  0  0  0  0  0
   38.8030   23.6240   38.9180 C   0  0  0  0  0  0  0  0  0  0  0  0
   37.7580   24.1450   38.1680 C   0  0  0  0  0  0  0  0  0  0  0  0
   37.7170   23.9250   36.8260 N   0  0  0  0  0  0  0  0  0  0  0  0
   38.6960   23.1990   36.2200 C   0  0  0  0  0  0  0  0  0  0  0  0
   39.7190   22.6820   36.9060 N   0  0  0  0  0  0  0  0  0  0  0  0
   40.6190   22.4530   38.7580 H   0  0  0  0  0  0  0  0  0  0  0  0
   38.9530   23.7240   39.9830 H   0  0  0  0  0  0  0  0  0  0  0  0
   37.0140   24.7110   38.7100 H   0  0  0  0  0  0  0  0  0  0  0  0
   38.4370   22.4040   30.3770 S   0  0  0  0  0  0  0  0  0  0  0  0
   38.4430   23.7110   29.6050 O   0  0  0  0  0  0  0  0  0  0  0  0
   38.4700   21.0890   29.9180 O   0  0  0  0  0  0  0  0  0  0  0  0
   40.2030   22.3670   29.9920 C   0  0  0  0  0  0  0  0  0  0  0  0
   41.1210   21.4710   30.3390 C   0  0  0  0  0  0  0  0  0  0  0  0
   42.4560   21.5670   30.0220 C   0  0  0  0  0  0  0  0  0  0  0  0
   43.0760   20.7580   30.3760 H   0  0  0  0  0  0  0  0  0  0  0  0
   42.8100   22.6350   29.3260 N   0  0  0  0  0  0  0  0  0  0  0  0
   41.9800   23.5840   28.9310 C   0  0  0  0  0  0  0  0  0  0  0  0
   40.7090   23.4210   29.2750 N   0  0  0  0  0  0  0  0  0  0  0  0
   36.7440   20.3880   32.3290 S   0  0  0  0  0  0  0  0  0  0  0  0
   35.1220   20.9340   31.8160 C   0  0  0  0  0  0  0  0  0  0  0  0
   34.1680   19.9500   31.9670 F   0  0  0  0  0  0  0  0  0  0  0  0
   34.7170   21.9590   32.6740 F   0  0  0  0  0  0  0  0  0  0  0  0
   35.2090   21.3870   30.5220 F   0  0  0  0  0  0  0  0  0  0  0  0
  1  6  2  0  0  0  0
  1  2  1  0  0  0  0
  2  3  2  0  0  0  0
  3  4  1  0  0  0  0
  3  7  1  0  0  0  0
  4 14  1  0  0  0  0
  5  8  1  0  0  0  0
  5  4  2  0  0  0  0
  6  5  1  0  0  0  0
  9  6  1  0  0  0  0
 10 16  1  0  0  0  0
 10 11  1  0  0  0  0
 11 17  1  0  0  0  0
 12 18  1  0  0  0  0
 12 11  2  0  0  0  0
 13 12  1  0  0  0  0
 14 13  2  0  0  0  0
 14 15  1  0  0  0  0
 15 10  2  0  0  0  0
 19  1  1  0  0  0  0
 20 19  2  0  0  0  0
 21 19  2  0  0  0  0
 22 23  1  0  0  0  0
 22 19  1  0  0  0  0
 24 23  2  0  0  0  0
 24 25  1  0  0  0  0
 26 24  1  0  0  0  0
 27 28  1  0  0  0  0
 27 26  2  0  0  0  0
 28 22  2  0  0  0  0
 29  2  1  0  0  0  0
 30 31  1  0  0  0  0
 30 29  1  0  0  0  0
 30 32  1  0  0  0  0
 33 30  1  0  0  0  0
M  END
>  <minimizedAffinity>
-4.54852486

>  <minimizedRMSD>
0.47964555

$$$$
