
 OpenBabel03262519383D

 31 33  0  0  1  0  0  0  0  0999 V2000
   38.6730   25.7940   34.2690 N   0  0  0  0  0  0  0  0  0  0  0  0
   38.3270   27.1070   33.8330 C   0  0  0  0  0  0  0  0  0  0  0  0
   38.8190   27.2070   32.4160 C   0  0  0  0  0  0  0  0  0  0  0  0
   39.3620   25.8280   32.0980 C   0  0  0  0  0  0  0  0  0  0  0  0
   38.5130   24.9920   33.0650 C   0  0  2  0  0  0  0  0  0  0  0  0
   38.6550   27.9280   34.4720 H   0  0  0  0  0  0  0  0  0  0  0  0
   37.2090   27.1470   33.7700 H   0  0  0  0  0  0  0  0  0  0  0  0
   39.7150   27.8900   32.4220 H   0  0  0  0  0  0  0  0  0  0  0  0
   38.0500   27.5300   31.7130 H   0  0  0  0  0  0  0  0  0  0  0  0
   39.0940   25.5150   31.0680 H   0  0  0  0  0  0  0  0  0  0  0  0
   40.4300   25.7300   32.3170 H   0  0  0  0  0  0  0  0  0  0  0  0
   39.0000   24.0360   33.2690 H   0  0  0  0  0  0  0  0  0  0  0  0
   37.7920   25.2400   35.2490 C   0  0  0  0  0  0  0  0  0  0  0  0
   36.9660   24.6460   34.8390 H   0  0  0  0  0  0  0  0  0  0  0  0
   37.3380   26.0940   35.8240 H   0  0  0  0  0  0  0  0  0  0  0  0
   40.3160   22.9310   36.8770 C   0  0  0  0  0  0  0  0  0  0  0  0
   39.6830   23.7250   35.9170 C   0  0  0  0  0  0  0  0  0  0  0  0
   38.4950   24.3850   36.2480 C   0  0  0  0  0  0  0  0  0  0  0  0
   38.0190   24.2110   37.5130 N   0  0  0  0  0  0  0  0  0  0  0  0
   38.6500   23.4400   38.4190 C   0  0  0  0  0  0  0  0  0  0  0  0
   39.7830   22.8130   38.0940 N   0  0  0  0  0  0  0  0  0  0  0  0
   41.2270   22.4170   36.6420 H   0  0  0  0  0  0  0  0  0  0  0  0
   40.0840   23.8390   34.9320 H   0  0  0  0  0  0  0  0  0  0  0  0
   38.2450   23.3230   39.4130 H   0  0  0  0  0  0  0  0  0  0  0  0
   37.2040   24.8980   32.6600 O   0  0  0  0  0  0  0  0  0  0  0  0
   36.6660   23.7020   32.2050 C   0  0  0  0  0  0  0  0  0  0  0  0
   35.7690   23.6130   31.1710 C   0  0  0  0  0  0  0  0  0  0  0  0
   35.4810   22.3160   31.0230 N   0  0  0  0  0  0  0  0  0  0  0  0
   36.1890   21.6410   31.9460 C   0  0  0  0  0  0  0  0  0  0  0  0
   36.9430   22.4750   32.7040 N   0  0  0  0  0  0  0  0  0  0  0  0
   37.5690   22.1970   33.4750 H   0  0  0  0  0  0  0  0  0  0  0  0
  1 13  1  0  0  0  0
  2  1  1  0  0  0  0
  2  6  1  0  0  0  0
  3  8  1  0  0  0  0
  3  2  1  0  0  0  0
  4 11  1  0  0  0  0
  4  3  1  0  0  0  0
  4  5  1  0  0  0  0
  5 12  1  1  0  0  0
  5  1  1  0  0  0  0
  7  2  1  0  0  0  0
  9  3  1  0  0  0  0
 10  4  1  0  0  0  0
 13 15  1  0  0  0  0
 13 18  1  0  0  0  0
 14 13  1  0  0  0  0
 16 21  1  0  0  0  0
 17 18  1  0  0  0  0
 17 16  2  0  0  0  0
 18 19  2  0  0  0  0
 19 20  1  0  0  0  0
 20 24  1  0  0  0  0
 21 20  2  0  0  0  0
 22 16  1  0  0  0  0
 23 17  1  0  0  0  0
 25  5  1  0  0  0  0
 26 25  1  0  0  0  0
 26 30  1  0  0  0  0
 27 26  2  0  0  0  0
 28 27  1  0  0  0  0
 28 29  2  0  0  0  0
 29 30  1  0  0  0  0
 30 31  1  0  0  0  0
M  END
>  <minimizedAffinity>
-4.06996679

>  <minimizedRMSD>
4.67560911

$$$$
