
 OpenBabel03262519473D

 41 44  0  0  1  0  0  0  0  0999 V2000
   37.4270   25.9780   32.8980 N   0  0  0  0  0  0  0  0  0  0  0  0
   37.0300   24.9530   32.1400 C   0  0  0  0  0  0  0  0  0  0  0  0
   35.9670   25.2370   31.3220 C   0  0  0  0  0  0  0  0  0  0  0  0
   35.6840   26.5130   31.5840 N   0  0  0  0  0  0  0  0  0  0  0  0
   36.5650   26.9620   32.5330 C   0  0  0  0  0  0  0  0  0  0  0  0
   37.5350   23.9750   32.1940 H   0  0  0  0  0  0  0  0  0  0  0  0
   35.4830   24.5610   30.6290 H   0  0  0  0  0  0  0  0  0  0  0  0
   36.4900   28.4030   32.9950 C   0  0  1  0  0  0  0  0  0  0  0  0
   35.5120   29.2680   32.2970 C   0  0  0  0  0  0  0  0  0  0  0  0
   35.2010   28.7940   33.6990 C   0  0  2  0  0  0  0  0  0  0  0  0
   37.4120   28.7570   33.4910 H   0  0  0  0  0  0  0  0  0  0  0  0
   35.8150   30.3150   32.1050 H   0  0  0  0  0  0  0  0  0  0  0  0
   34.8990   28.8020   31.5000 H   0  0  0  0  0  0  0  0  0  0  0  0
   34.4360   28.0250   33.8290 H   0  0  0  0  0  0  0  0  0  0  0  0
   35.1780   29.8700   34.6400 N   0  0  0  0  0  0  0  0  0  0  0  0
   36.1730   30.6290   35.1360 C   0  0  0  0  0  3  0  0  0  0  0  0
   35.9110   31.6290   36.0500 C   0  0  0  0  0  3  0  0  0  0  0  0
   34.6290   31.8890   36.4910 C   0  0  0  0  0  0  0  0  0  0  0  0
   34.4100   32.8050   37.3240 O   0  0  0  0  0  0  0  0  0  0  0  0
   33.6590   31.1140   35.9770 N   0  0  0  0  0  0  0  0  0  0  0  0
   33.9060   30.1240   35.0740 C   0  0  0  0  0  0  0  0  0  0  0  0
   32.8570   29.4960   34.7010 O   0  0  0  0  0  0  0  0  0  0  0  0
   32.6870   31.3190   36.3170 H   0  0  0  0  0  0  0  0  0  0  0  0
   38.4310   26.1750   33.8720 C   0  0  0  0  0  0  0  0  0  0  0  0
   38.9900   27.1090   33.7070 H   0  0  0  0  0  0  0  0  0  0  0  0
   39.1890   25.3560   33.7520 H   0  0  0  0  0  0  0  0  0  0  0  0
   37.9250   26.1050   35.2650 C   0  0  1  0  0  0  0  0  0  0  0  0
   36.8060   25.9770   35.2460 H   0  0  0  0  0  0  0  0  0  0  0  0
   38.4880   23.4950   37.9510 C   0  0  0  0  0  0  0  0  0  0  0  0
   37.9180   24.5910   37.2980 C   0  0  0  0  0  0  0  0  0  0  0  0
   38.4680   24.9720   36.0390 C   0  0  0  0  0  0  0  0  0  0  0  0
   39.5300   24.2430   35.5290 N   0  0  0  0  0  0  0  0  0  0  0  0
   40.0450   23.2070   36.1780 C   0  0  0  0  0  0  0  0  0  0  0  0
   39.5260   22.8180   37.4050 N   0  0  0  0  0  0  0  0  0  0  0  0
   38.0930   23.1850   38.9030 H   0  0  0  0  0  0  0  0  0  0  0  0
   37.0890   25.1580   37.6970 H   0  0  0  0  0  0  0  0  0  0  0  0
   40.8790   22.6650   35.7380 H   0  0  0  0  0  0  0  0  0  0  0  0
   38.1900   27.4140   36.0010 C   0  0  0  0  0  0  0  0  0  0  0  0
   38.4190   27.1530   37.0540 H   0  0  0  0  0  0  0  0  0  0  0  0
   37.2740   28.0350   36.0450 H   0  0  0  0  0  0  0  0  0  0  0  0
   39.0640   27.8780   35.5550 H   0  0  0  0  0  0  0  0  0  0  0  0
  1 24  1  0  0  0  0
  2  6  1  0  0  0  0
  2  1  1  0  0  0  0
  3  4  1  0  0  0  0
  3  2  2  0  0  0  0
  4  5  2  0  0  0  0
  5  1  1  0  0  0  0
  5  8  1  0  0  0  0
  7  3  1  0  0  0  0
  8 11  1  1  0  0  0
  8 10  1  0  0  0  0
  9  8  1  0  0  0  0
  9 10  1  0  0  0  0
 10 14  1  1  0  0  0
 10 15  1  0  0  0  0
 12  9  1  0  0  0  0
 13  9  1  0  0  0  0
 15 21  1  0  0  0  0
 15 16  1  0  0  0  0
 16 17  2  0  0  0  0
 17 18  1  0  0  0  0
 18 19  2  0  0  0  0
 20 23  1  0  0  0  0
 20 18  1  0  0  0  0
 21 20  1  0  0  0  0
 22 21  2  0  0  0  0
 24 27  1  0  0  0  0
 25 24  1  0  0  0  0
 26 24  1  0  0  0  0
 27 28  1  6  0  0  0
 27 38  1  0  0  0  0
 27 31  1  0  0  0  0
 29 35  1  0  0  0  0
 30 36  1  0  0  0  0
 30 29  2  0  0  0  0
 31 30  1  0  0  0  0
 32 31  2  0  0  0  0
 32 33  1  0  0  0  0
 33 34  2  0  0  0  0
 34 29  1  0  0  0  0
 37 33  1  0  0  0  0
 38 40  1  0  0  0  0
 38 39  1  0  0  0  0
 41 38  1  0  0  0  0
M  END
>  <minimizedAffinity>
-5.82189083

>  <minimizedRMSD>
1.2724967

$$$$
