
 OpenBabel03262517423D

 43 46  0  0  0  0  0  0  0  0999 V2000
   39.9520   22.2830   34.5190 C   0  0  0  0  0  0  0  0  0  0  0  0
   38.7060   22.1110   33.9440 C   0  0  0  0  0  0  0  0  0  0  0  0
   38.5900   21.2610   32.8640 C   0  0  0  0  0  0  0  0  0  0  0  0
   39.6920   20.6240   32.4010 N   0  0  0  0  0  0  0  0  0  0  0  0
   40.8860   20.8130   32.9840 C   0  0  0  0  0  0  0  0  0  0  0  0
   41.0300   21.6310   34.0320 N   0  0  0  0  0  0  0  0  0  0  0  0
   37.3970   20.9550   32.1390 N   0  0  0  0  0  0  0  0  0  0  0  0
   36.9110   21.6720   30.9910 C   0  0  0  0  0  0  0  0  0  0  0  0
   35.5420   22.2350   31.2900 C   0  0  0  0  0  0  0  0  0  0  0  0
   35.0280   21.6720   32.4610 O   0  0  0  0  0  0  0  0  0  0  0  0
   35.0560   20.2980   32.3460 C   0  0  0  0  0  0  0  0  0  0  0  0
   36.4970   19.8470   32.4810 C   0  0  0  0  0  0  0  0  0  0  0  0
   37.7750   22.5820   34.2500 H   0  0  0  0  0  0  0  0  0  0  0  0
   41.7610   20.3170   32.6290 H   0  0  0  0  0  0  0  0  0  0  0  0
   36.8750   21.0430   30.0740 H   0  0  0  0  0  0  0  0  0  0  0  0
   37.5780   22.5230   30.7360 H   0  0  0  0  0  0  0  0  0  0  0  0
   35.5720   23.3340   31.4520 H   0  0  0  0  0  0  0  0  0  0  0  0
   34.8710   22.0780   30.4140 H   0  0  0  0  0  0  0  0  0  0  0  0
   34.6330   20.0040   31.3460 H   0  0  0  0  0  0  0  0  0  0  0  0
   34.4680   19.7750   33.0970 H   0  0  0  0  0  0  0  0  0  0  0  0
   36.6730   18.9580   31.8610 H   0  0  0  0  0  0  0  0  0  0  0  0
   36.7070   19.5550   33.5460 H   0  0  0  0  0  0  0  0  0  0  0  0
   40.0330   23.1720   35.6370 C   0  0  0  0  0  0  0  0  0  0  0  0
   40.4970   22.8530   36.7890 O   0  0  0  0  0  0  0  0  0  0  0  0
   39.5950   24.5690   35.6080 C   0  0  0  0  0  0  0  0  0  0  0  0
   38.3890   24.9680   36.1540 C   0  0  0  0  0  0  0  0  0  0  0  0
   38.0180   26.3020   36.1010 C   0  0  0  0  0  0  0  0  0  0  0  0
   38.8300   27.2500   35.5110 C   0  0  0  0  0  0  0  0  0  0  0  0
   40.0420   26.8600   34.9590 C   0  0  0  0  0  0  0  0  0  0  0  0
   40.3920   25.5180   35.0240 C   0  0  0  0  0  0  0  0  0  0  0  0
   37.7830   24.1840   36.6090 H   0  0  0  0  0  0  0  0  0  0  0  0
   37.0590   26.5730   36.5450 H   0  0  0  0  0  0  0  0  0  0  0  0
   38.4830   28.2770   35.5020 H   0  0  0  0  0  0  0  0  0  0  0  0
   40.6560   27.6120   34.5070 H   0  0  0  0  0  0  0  0  0  0  0  0
   41.6540   25.2230   34.4300 N   0  0  0  0  0  0  0  0  0  0  0  0
   42.6770   25.2560   35.3360 C   0  0  0  0  0  0  0  0  0  0  0  0
   43.9640   24.9860   34.8910 C   0  0  0  0  0  0  0  0  0  0  0  0
   44.2030   24.6900   33.5530 C   0  0  0  0  0  0  0  0  0  0  0  0
   45.3430   24.4370   33.0840 O   0  0  0  0  0  0  0  0  0  0  0  0
   43.1380   24.6770   32.7160 N   0  0  0  0  0  0  0  0  0  0  0  0
   41.8910   24.9390   33.1500 C   0  0  0  0  0  0  0  0  0  0  0  0
   40.8760   24.9370   32.4090 O   0  0  0  0  0  0  0  0  0  0  0  0
   43.2660   24.4590   31.6980 H   0  0  0  0  0  0  0  0  0  0  0  0
  1 23  1  0  0  0  0
  2 13  1  0  0  0  0
  2  1  2  0  0  0  0
  3  2  1  0  0  0  0
  4  3  2  0  0  0  0
  4  5  1  0  0  0  0
  5  6  2  0  0  0  0
  6  1  1  0  0  0  0
  7 12  1  0  0  0  0
  7  3  1  0  0  0  0
  8  9  1  0  0  0  0
  8  7  1  0  0  0  0
  9 17  1  0  0  0  0
  9 10  1  0  0  0  0
 11 10  1  0  0  0  0
 11 12  1  0  0  0  0
 11 20  1  0  0  0  0
 12 22  1  0  0  0  0
 14  5  1  0  0  0  0
 15  8  1  0  0  0  0
 16  8  1  0  0  0  0
 18  9  1  0  0  0  0
 19 11  1  0  0  0  0
 21 12  1  0  0  0  0
 23 24  2  0  0  0  0
 25 23  1  0  0  0  0
 25 26  1  0  0  0  0
 26 31  1  0  0  0  0
 27 26  2  0  0  0  0
 27 32  1  0  0  0  0
 28 27  1  0  0  0  0
 29 30  1  0  0  0  0
 29 28  2  0  0  0  0
 30 25  2  0  0  0  0
 33 28  1  0  0  0  0
 34 29  1  0  0  0  0
 35 30  1  0  0  0  0
 35 36  1  0  0  0  0
 37 36  2  0  0  0  0
 38 37  1  0  0  0  0
 39 38  2  0  0  0  0
 40 41  1  0  0  0  0
 40 38  1  0  0  0  0
 41 35  1  0  0  0  0
 42 41  2  0  0  0  0
 43 40  1  0  0  0  0
M  END
>  <minimizedAffinity>
-5.43456173

>  <minimizedRMSD>
0.660104096

$$$$
