
 OpenBabel03262519553D

 32 35  0  0  1  0  0  0  0  0999 V2000
   38.6590   23.2480   33.8970 C   0  0  0  0  0  0  0  0  0  0  0  0
   38.5930   24.6290   34.0020 C   0  0  0  0  0  0  0  0  0  0  0  0
   39.7800   25.0460   33.4690 N   0  0  0  0  0  0  0  0  0  0  0  0
   40.4620   23.9870   33.0940 C   0  0  0  0  0  0  0  0  0  0  0  0
   39.7930   22.8400   33.3440 N   0  0  0  0  0  0  0  0  0  0  0  0
   37.7580   25.1630   34.4210 H   0  0  0  0  0  0  0  0  0  0  0  0
   41.4380   24.1550   32.6460 H   0  0  0  0  0  0  0  0  0  0  0  0
   37.6010   22.3330   34.3410 C   0  0  0  0  0  0  0  0  0  0  0  0
   37.3920   22.1340   35.7180 C   0  0  0  0  0  0  0  0  0  0  0  0
   36.3680   21.2480   36.1150 C   0  0  0  0  0  0  0  0  0  0  0  0
   35.6570   20.6490   35.1520 N   0  0  0  0  0  0  0  0  0  0  0  0
   35.8800   20.8580   33.8300 C   0  0  0  0  0  0  0  0  0  0  0  0
   36.8550   21.7030   33.4180 N   0  0  0  0  0  0  0  0  0  0  0  0
   37.9820   22.6310   36.4540 H   0  0  0  0  0  0  0  0  0  0  0  0
   36.1870   21.0780   37.1650 H   0  0  0  0  0  0  0  0  0  0  0  0
   35.3170   20.3840   33.0370 H   0  0  0  0  0  0  0  0  0  0  0  0
   40.3010   21.5250   33.0350 C   0  0  1  0  0  0  0  0  0  0  0  0
   41.5940   21.2770   32.4480 C   0  0  0  0  0  0  0  0  0  0  0  0
   41.4240   21.0900   33.9380 C   0  0  1  0  0  0  0  0  0  0  0  0
   39.4660   20.8090   32.8400 H   0  0  0  0  0  0  0  0  0  0  0  0
   41.7140   20.2870   31.9160 H   0  0  0  0  0  0  0  0  0  0  0  0
   42.3020   22.0070   32.0350 H   0  0  0  0  0  0  0  0  0  0  0  0
   41.2920   20.0710   34.3560 H   0  0  0  0  0  0  0  0  0  0  0  0
   42.1380   22.0180   34.7510 N   0  0  0  0  0  0  0  0  0  0  0  0
   43.2270   22.6790   34.3390 C   0  0  0  0  0  3  0  0  0  0  0  0
   43.9270   23.5800   35.1160 C   0  0  0  0  0  3  0  0  0  0  0  0
   43.4700   23.8170   36.4140 C   0  0  0  0  0  0  0  0  0  0  0  0
   44.0190   24.6120   37.2130 O   0  0  0  0  0  0  0  0  0  0  0  0
   42.3710   23.1560   36.8430 N   0  0  0  0  0  0  0  0  0  0  0  0
   41.7280   22.2810   36.0240 C   0  0  0  0  0  0  0  0  0  0  0  0
   40.7010   21.7070   36.5220 O   0  0  0  0  0  0  0  0  0  0  0  0
   42.0070   23.3190   37.8200 H   0  0  0  0  0  0  0  0  0  0  0  0
  1  2  2  0  0  0  0
  1  8  1  0  0  0  0
  2  6  1  0  0  0  0
  3  2  1  0  0  0  0
  4  5  1  0  0  0  0
  4  3  2  0  0  0  0
  5  1  1  0  0  0  0
  7  4  1  0  0  0  0
  8  9  1  0  0  0  0
  9 10  2  0  0  0  0
  9 14  1  0  0  0  0
 10 15  1  0  0  0  0
 11 10  1  0  0  0  0
 12 11  2  0  0  0  0
 13 12  1  0  0  0  0
 13  8  2  0  0  0  0
 16 12  1  0  0  0  0
 17 20  1  6  0  0  0
 17  5  1  0  0  0  0
 17 19  1  0  0  0  0
 18 17  1  0  0  0  0
 18 19  1  0  0  0  0
 19 23  1  1  0  0  0
 19 24  1  0  0  0  0
 21 18  1  0  0  0  0
 22 18  1  0  0  0  0
 24 30  1  0  0  0  0
 25 24  1  0  0  0  0
 25 26  2  0  0  0  0
 26 27  1  0  0  0  0
 27 29  1  0  0  0  0
 27 28  2  0  0  0  0
 29 32  1  0  0  0  0
 30 31  2  0  0  0  0
 30 29  1  0  0  0  0
M  END
>  <minimizedAffinity>
-3.53989673

>  <minimizedRMSD>
6.77999973

$$$$
