
 OpenBabel03262518383D

 46 49  0  0  0  0  0  0  0  0999 V2000
   37.1560   26.7300   34.4900 C   0  0  0  0  0  0  0  0  0  0  0  0
   37.2520   25.8910   33.3960 C   0  0  0  0  0  0  0  0  0  0  0  0
   36.6200   26.2860   32.2130 C   0  0  0  0  0  0  0  0  0  0  0  0
   35.9570   27.4640   32.2140 N   0  0  0  0  0  0  0  0  0  0  0  0
   35.8760   28.2570   33.2780 C   0  0  0  0  0  0  0  0  0  0  0  0
   36.4760   27.9020   34.4330 N   0  0  0  0  0  0  0  0  0  0  0  0
   37.7900   24.9550   33.4280 H   0  0  0  0  0  0  0  0  0  0  0  0
   36.6500   25.6920   31.3300 H   0  0  0  0  0  0  0  0  0  0  0  0
   37.8150   26.3320   35.7480 C   0  0  0  0  0  0  0  0  0  0  0  0
   38.6610   27.0790   36.2700 O   0  0  0  0  0  0  0  0  0  0  0  0
   37.4740   25.1310   36.3220 O   0  0  0  0  0  0  0  0  0  0  0  0
   39.4140   22.8330   38.1860 N   0  0  0  0  0  0  0  0  0  0  0  0
   38.3610   23.6270   37.9840 N   0  0  0  0  0  0  0  0  0  0  0  0
   38.4800   24.2300   36.7700 C   0  0  0  0  0  0  0  0  0  0  0  0
   39.6410   23.8050   36.1930 C   0  0  0  0  0  0  0  0  0  0  0  0
   40.1870   22.9420   37.1020 C   0  0  0  0  0  0  0  0  0  0  0  0
   39.5990   22.2430   39.0230 H   0  0  0  0  0  0  0  0  0  0  0  0
   39.9670   24.1400   35.2190 H   0  0  0  0  0  0  0  0  0  0  0  0
   41.4810   22.2310   36.8790 C   0  0  0  0  0  0  0  0  0  0  0  0
   42.5050   22.8600   36.2190 C   0  0  0  0  0  0  0  0  0  0  0  0
   43.6510   22.1200   36.0680 C   0  0  0  0  0  0  0  0  0  0  0  0
   43.8300   20.8540   36.5120 N   0  0  0  0  0  0  0  0  0  0  0  0
   42.7810   20.2610   37.1680 C   0  0  0  0  0  0  0  0  0  0  0  0
   41.6500   20.9720   37.3260 N   0  0  0  0  0  0  0  0  0  0  0  0
   42.4320   23.8500   35.8440 H   0  0  0  0  0  0  0  0  0  0  0  0
   44.4900   22.5940   35.5430 H   0  0  0  0  0  0  0  0  0  0  0  0
   42.8250   19.2540   37.5600 H   0  0  0  0  0  0  0  0  0  0  0  0
   35.1260   29.5270   33.1780 C   0  0  0  0  0  0  0  0  0  0  0  0
   35.9540   30.6010   33.8710 C   0  0  0  0  0  0  0  0  0  0  0  0
   36.0540   31.4660   33.1650 H   0  0  0  0  0  0  0  0  0  0  0  0
   35.4410   31.0140   34.7590 H   0  0  0  0  0  0  0  0  0  0  0  0
   36.9790   30.2800   34.0890 H   0  0  0  0  0  0  0  0  0  0  0  0
   33.8280   29.3570   33.9170 C   0  0  0  0  0  0  0  0  0  0  0  0
   33.1800   28.6280   33.4310 H   0  0  0  0  0  0  0  0  0  0  0  0
   33.3130   30.3370   34.0190 H   0  0  0  0  0  0  0  0  0  0  0  0
   34.1120   28.9480   34.9280 H   0  0  0  0  0  0  0  0  0  0  0  0
   34.8740   29.9190   31.7230 C   0  0  0  0  0  0  0  0  0  0  0  0
   34.6730   28.9690   31.1490 H   0  0  0  0  0  0  0  0  0  0  0  0
   33.9790   30.5700   31.7130 H   0  0  0  0  0  0  0  0  0  0  0  0
   36.0400   30.5450   31.2870 O   0  0  0  0  0  0  0  0  0  0  0  0
   36.7070   30.2880   30.1210 C   0  0  0  0  0  0  0  0  0  0  0  0
   37.1770   31.0830   29.0790 C   0  0  0  0  0  0  0  0  0  0  0  0
   37.7720   30.2660   28.1660 N   0  0  0  0  0  0  0  0  0  0  0  0
   37.6720   28.9960   28.6320 C   0  0  0  0  0  0  0  0  0  0  0  0
   37.0280   29.0190   29.8120 N   0  0  0  0  0  0  0  0  0  0  0  0
   36.8510   28.1170   30.3350 H   0  0  0  0  0  0  0  0  0  0  0  0
  1  9  1  0  0  0  0
  2  7  1  0  0  0  0
  2  1  2  0  0  0  0
  3  4  2  0  0  0  0
  3  2  1  0  0  0  0
  4  5  1  0  0  0  0
  5  6  2  0  0  0  0
  6  1  1  0  0  0  0
  8  3  1  0  0  0  0
  9 10  2  0  0  0  0
  9 11  1  0  0  0  0
 11 14  1  0  0  0  0
 12 17  1  0  0  0  0
 13 12  1  0  0  0  0
 14 13  2  0  0  0  0
 15 14  1  0  0  0  0
 15 16  2  0  0  0  0
 16 12  1  0  0  0  0
 18 15  1  0  0  0  0
 19 16  1  0  0  0  0
 19 24  1  0  0  0  0
 20 19  2  0  0  0  0
 21 20  1  0  0  0  0
 21 22  2  0  0  0  0
 22 23  1  0  0  0  0
 23 24  2  0  0  0  0
 23 27  1  0  0  0  0
 25 20  1  0  0  0  0
 26 21  1  0  0  0  0
 28  5  1  0  0  0  0
 28 29  1  0  0  0  0
 28 33  1  0  0  0  0
 29 32  1  0  0  0  0
 29 31  1  0  0  0  0
 30 29  1  0  0  0  0
 33 35  1  0  0  0  0
 33 36  1  0  0  0  0
 34 33  1  0  0  0  0
 37 28  1  0  0  0  0
 38 37  1  0  0  0  0
 39 37  1  0  0  0  0
 40 37  1  0  0  0  0
 41 40  1  0  0  0  0
 42 41  2  0  0  0  0
 43 44  2  0  0  0  0
 43 42  1  0  0  0  0
 44 45  1  0  0  0  0
 45 41  1  0  0  0  0
 45 46  1  0  0  0  0
M  END
>  <minimizedAffinity>
-5.60303307

>  <minimizedRMSD>
0.667493165

$$$$
