
 OpenBabel03262519553D

 33 36  0  0  1  0  0  0  0  0999 V2000
   37.2710   21.5430   34.0130 C   0  0  1  0  0  0  0  0  0  0  0  0
   36.0180   21.1740   34.6790 C   0  0  0  0  0  0  0  0  0  0  0  0
   36.0710   21.1220   33.1780 C   0  0  2  0  0  0  0  0  0  0  0  0
   38.1040   20.8080   33.9960 H   0  0  0  0  0  0  0  0  0  0  0  0
   36.0510   20.2730   35.3010 H   0  0  0  0  0  0  0  0  0  0  0  0
   35.4700   22.0040   35.1960 H   0  0  0  0  0  0  0  0  0  0  0  0
   35.4320   21.9220   32.7110 H   0  0  0  0  0  0  0  0  0  0  0  0
   36.0630   19.8640   32.4920 N   0  0  0  0  0  0  0  0  0  0  0  0
   35.5750   18.7010   32.9550 C   0  0  0  0  0  3  0  0  0  0  0  0
   35.6120   17.5360   32.2180 C   0  0  0  0  0  3  0  0  0  0  0  0
   36.1650   17.5280   30.9510 C   0  0  0  0  0  0  0  0  0  0  0  0
   36.2170   16.3400   30.1690 N   0  0  0  0  0  0  0  0  0  0  0  0
   36.6480   18.7040   30.5080 N   0  0  0  0  0  0  0  0  0  0  0  0
   36.5940   19.8200   31.2560 C   0  0  0  0  0  0  0  0  0  0  0  0
   37.1060   20.7990   30.6360 O   0  0  0  0  0  0  0  0  0  0  0  0
   36.4990   15.3730   30.4370 H   0  0  0  0  0  0  0  0  0  0  0  0
   35.9210   16.5010   29.1880 H   0  0  0  0  0  0  0  0  0  0  0  0
   38.1540   23.8500   34.5860 C   0  0  0  0  0  0  0  0  0  0  0  0
   38.3590   25.0520   33.9270 C   0  0  0  0  0  0  0  0  0  0  0  0
   37.9380   24.7900   32.6560 N   0  0  0  0  0  0  0  0  0  0  0  0
   37.5290   23.5400   32.6080 C   0  0  0  0  0  0  0  0  0  0  0  0
   37.6450   22.9160   33.7870 N   0  0  0  0  0  0  0  0  0  0  0  0
   38.7690   25.9590   34.3860 H   0  0  0  0  0  0  0  0  0  0  0  0
   37.1680   23.2210   31.6380 H   0  0  0  0  0  0  0  0  0  0  0  0
   38.4560   23.6150   35.9990 C   0  0  0  0  0  0  0  0  0  0  0  0
   39.6410   23.0040   36.3820 C   0  0  0  0  0  0  0  0  0  0  0  0
   39.9130   22.7850   37.7410 C   0  0  0  0  0  0  0  0  0  0  0  0
   38.9680   23.2010   38.6200 N   0  0  0  0  0  0  0  0  0  0  0  0
   37.8200   23.7940   38.2370 C   0  0  0  0  0  0  0  0  0  0  0  0
   37.5690   23.9980   36.9330 N   0  0  0  0  0  0  0  0  0  0  0  0
   40.3690   22.6860   35.6690 H   0  0  0  0  0  0  0  0  0  0  0  0
   40.7990   22.3240   38.0990 H   0  0  0  0  0  0  0  0  0  0  0  0
   37.0650   24.1270   38.9170 H   0  0  0  0  0  0  0  0  0  0  0  0
  1  4  1  1  0  0  0
  1  2  1  0  0  0  0
  2  6  1  0  0  0  0
  2  5  1  0  0  0  0
  3  7  1  6  0  0  0
  3  1  1  0  0  0  0
  3  2  1  0  0  0  0
  8  9  1  0  0  0  0
  8  3  1  0  0  0  0
 10  9  2  0  0  0  0
 11 10  1  0  0  0  0
 12 16  1  0  0  0  0
 12 11  1  0  0  0  0
 13 11  2  0  0  0  0
 13 14  1  0  0  0  0
 14  8  1  0  0  0  0
 15 14  2  0  0  0  0
 17 12  1  0  0  0  0
 18 25  1  0  0  0  0
 19 23  1  0  0  0  0
 19 18  2  0  0  0  0
 20 19  1  0  0  0  0
 21 20  2  0  0  0  0
 21 22  1  0  0  0  0
 22  1  1  0  0  0  0
 22 18  1  0  0  0  0
 24 21  1  0  0  0  0
 25 26  2  0  0  0  0
 25 30  1  0  0  0  0
 26 27  1  0  0  0  0
 27 32  1  0  0  0  0
 27 28  2  0  0  0  0
 29 28  1  0  0  0  0
 29 33  1  0  0  0  0
 30 29  2  0  0  0  0
 31 26  1  0  0  0  0
M  END
>  <minimizedAffinity>
-5.10111046

>  <minimizedRMSD>
0.977734745

$$$$
