
 OpenBabel03262519403D

 42 45  0  0  1  0  0  0  0  0999 V2000
   37.7460   25.1810   34.3910 N   0  0  0  0  0  0  0  0  0  0  0  0
   37.3850   25.3730   33.0040 C   0  0  0  0  0  0  0  0  0  0  0  0
   37.5190   26.8370   32.7590 C   0  0  0  0  0  0  0  0  0  0  0  0
   38.0130   27.3980   34.0770 C   0  0  0  0  0  0  0  0  0  0  0  0
   38.7700   26.1590   34.6140 C   0  0  2  0  0  0  0  0  0  0  0  0
   36.4360   24.9240   32.7100 H   0  0  0  0  0  0  0  0  0  0  0  0
   38.1950   24.8690   32.4070 H   0  0  0  0  0  0  0  0  0  0  0  0
   36.5180   27.3110   32.5770 H   0  0  0  0  0  0  0  0  0  0  0  0
   38.2110   27.0920   31.9360 H   0  0  0  0  0  0  0  0  0  0  0  0
   38.7820   28.1860   33.9560 H   0  0  0  0  0  0  0  0  0  0  0  0
   37.2240   27.6670   34.7720 H   0  0  0  0  0  0  0  0  0  0  0  0
   38.9950   26.4280   35.6510 H   0  0  0  0  0  0  0  0  0  0  0  0
   38.3240   23.8870   34.6190 C   0  0  0  0  0  0  0  0  0  0  0  0
   39.2520   23.8270   34.0260 H   0  0  0  0  0  0  0  0  0  0  0  0
   37.6300   23.1130   34.2310 H   0  0  0  0  0  0  0  0  0  0  0  0
   37.8750   23.7010   38.3800 C   0  0  0  0  0  0  0  0  0  0  0  0
   37.5870   23.9550   37.0380 C   0  0  0  0  0  0  0  0  0  0  0  0
   38.5700   23.6410   36.0780 C   0  0  0  0  0  0  0  0  0  0  0  0
   39.7450   23.1070   36.5250 N   0  0  0  0  0  0  0  0  0  0  0  0
   39.9700   22.8820   37.8350 C   0  0  0  0  0  0  0  0  0  0  0  0
   39.0320   23.1830   38.7370 N   0  0  0  0  0  0  0  0  0  0  0  0
   37.1580   23.9240   39.1480 H   0  0  0  0  0  0  0  0  0  0  0  0
   36.6470   24.3800   36.7260 H   0  0  0  0  0  0  0  0  0  0  0  0
   40.9610   22.4530   37.9760 H   0  0  0  0  0  0  0  0  0  0  0  0
   39.9060   25.8960   33.8930 O   0  0  0  0  0  0  0  0  0  0  0  0
   41.0660   26.2730   34.5300 C   0  0  2  0  0  0  0  0  0  0  0  0
   41.9290   27.2480   33.7780 C   0  0  0  0  0  0  0  0  0  0  0  0
   42.3990   25.8430   33.9990 C   0  0  1  0  0  0  0  0  0  0  0  0
   40.9880   26.1930   35.6200 H   0  0  0  0  0  0  0  0  0  0  0  0
   41.6670   27.4960   32.7270 H   0  0  0  0  0  0  0  0  0  0  0  0
   42.4940   28.0270   34.3230 H   0  0  0  0  0  0  0  0  0  0  0  0
   42.4220   25.1460   33.1340 H   0  0  0  0  0  0  0  0  0  0  0  0
   43.4030   25.5730   35.0050 N   0  0  0  0  0  0  0  0  0  0  0  0
   43.2010   24.6930   36.0040 C   0  0  0  0  0  0  0  0  0  0  0  0
   44.1850   24.4580   36.9520 C   0  0  0  0  0  0  0  0  0  0  0  0
   45.4110   25.1170   36.9090 C   0  0  0  0  0  0  0  0  0  0  0  0
   46.3780   24.8430   37.8980 N   0  0  0  0  0  0  0  0  0  0  0  0
   45.5760   25.9910   35.8950 N   0  0  0  0  0  0  0  0  0  0  0  0
   44.5980   26.1930   34.9920 C   0  0  0  0  0  0  0  0  0  0  0  0
   44.8390   27.0280   34.0750 O   0  0  0  0  0  0  0  0  0  0  0  0
   46.8650   25.4380   38.5900 H   0  0  0  0  0  0  0  0  0  0  0  0
   46.5930   23.8210   37.8640 H   0  0  0  0  0  0  0  0  0  0  0  0
  1  5  1  0  0  0  0
  1 13  1  0  0  0  0
  2  1  1  0  0  0  0
  3  2  1  0  0  0  0
  3  4  1  0  0  0  0
  4  5  1  0  0  0  0
  4 11  1  0  0  0  0
  5 12  1  1  0  0  0
  6  2  1  0  0  0  0
  7  2  1  0  0  0  0
  8  3  1  0  0  0  0
  9  3  1  0  0  0  0
 10  4  1  0  0  0  0
 13 18  1  0  0  0  0
 14 13  1  0  0  0  0
 15 13  1  0  0  0  0
 16 21  1  0  0  0  0
 16 22  1  0  0  0  0
 17 16  2  0  0  0  0
 18 19  2  0  0  0  0
 18 17  1  0  0  0  0
 19 20  1  0  0  0  0
 20 24  1  0  0  0  0
 20 21  2  0  0  0  0
 23 17  1  0  0  0  0
 25 26  1  0  0  0  0
 25  5  1  0  0  0  0
 26 29  1  1  0  0  0
 27 28  1  0  0  0  0
 27 31  1  0  0  0  0
 27 26  1  0  0  0  0
 28 32  1  6  0  0  0
 28 26  1  0  0  0  0
 28 33  1  0  0  0  0
 30 27  1  0  0  0  0
 33 34  1  0  0  0  0
 34 35  2  0  0  0  0
 36 35  1  0  0  0  0
 36 37  1  0  0  0  0
 37 41  1  0  0  0  0
 38 36  2  0  0  0  0
 39 33  1  0  0  0  0
 39 38  1  0  0  0  0
 40 39  2  0  0  0  0
 42 37  1  0  0  0  0
M  END
>  <minimizedAffinity>
-5.11422539

>  <minimizedRMSD>
1.35547733

$$$$
