
 OpenBabel03262519523D

 35 37  0  0  1  0  0  0  0  0999 V2000
   37.5810   27.6110   35.1080 C   0  0  0  0  0  0  0  0  0  0  0  0
   37.1080   28.1660   35.9260 H   0  0  0  0  0  0  0  0  0  0  0  0
   38.0770   28.4180   34.4860 H   0  0  0  0  0  0  0  0  0  0  0  0
   38.7610   26.7270   35.5710 C   0  0  2  0  0  0  0  0  0  0  0  0
   40.0410   26.9850   34.8930 C   0  0  0  0  0  0  0  0  0  0  0  0
   39.3100   25.6660   34.7790 C   0  0  1  0  0  0  0  0  0  0  0  0
   38.6630   26.5790   36.6730 H   0  0  0  0  0  0  0  0  0  0  0  0
   41.0450   26.9140   35.3340 H   0  0  0  0  0  0  0  0  0  0  0  0
   40.0310   27.7640   34.1450 H   0  0  0  0  0  0  0  0  0  0  0  0
   39.4840   25.3700   33.7990 H   0  0  0  0  0  0  0  0  0  0  0  0
   39.7720   24.5070   35.5720 N   0  0  0  0  0  0  0  0  0  0  0  0
   39.0950   24.0390   36.6410 C   0  0  0  0  0  0  0  0  0  0  0  0
   39.4790   22.9690   37.4110 C   0  0  0  0  0  0  0  0  0  0  0  0
   40.6440   22.3150   37.0760 C   0  0  0  0  0  0  0  0  0  0  0  0
   41.0140   21.2110   37.8930 N   0  0  0  0  0  0  0  0  0  0  0  0
   41.3180   22.7820   36.0110 N   0  0  0  0  0  0  0  0  0  0  0  0
   40.8910   23.8330   35.2960 C   0  0  0  0  0  0  0  0  0  0  0  0
   41.6190   24.1350   34.3540 O   0  0  0  0  0  0  0  0  0  0  0  0
   41.5460   21.5620   38.7310 H   0  0  0  0  0  0  0  0  0  0  0  0
   40.8410   20.1690   37.7770 H   0  0  0  0  0  0  0  0  0  0  0  0
   36.7400   26.8200   34.2260 C   0  0  0  0  0  0  0  0  0  0  0  0
   35.6850   27.0290   34.6490 H   0  0  0  0  0  0  0  0  0  0  0  0
   36.8130   25.7930   34.4530 H   0  0  0  0  0  0  0  0  0  0  0  0
   36.3450   27.1460   30.6820 C   0  0  0  0  0  0  0  0  0  0  0  0
   36.4740   26.4720   31.9330 C   0  0  0  0  0  0  0  0  0  0  0  0
   36.6290   27.3540   32.9240 C   0  0  0  0  0  0  0  0  0  0  0  0
   36.6540   28.7320   32.7090 N   0  0  0  0  0  0  0  0  0  0  0  0
   36.5270   29.2800   31.5240 C   0  0  0  0  0  0  0  0  0  0  0  0
   36.3710   28.4760   30.4960 N   0  0  0  0  0  0  0  0  0  0  0  0
   36.2060   26.5940   29.7310 H   0  0  0  0  0  0  0  0  0  0  0  0
   36.5610   30.3440   31.4760 H   0  0  0  0  0  0  0  0  0  0  0  0
   36.4010   25.0580   31.8660 C   0  0  0  0  0  0  0  0  0  0  0  0
   36.7260   24.5720   30.5750 F   0  0  0  0  0  0  0  0  0  0  0  0
   35.2270   24.4010   31.8270 F   0  0  0  0  0  0  0  0  0  0  0  0
   37.4260   24.3100   32.4400 F   0  0  0  0  0  0  0  0  0  0  0  0
  1  4  1  0  0  0  0
  1  2  1  0  0  0  0
  3  1  1  0  0  0  0
  4  7  1  1  0  0  0
  5  8  1  0  0  0  0
  5  4  1  0  0  0  0
  6 10  1  6  0  0  0
  6  5  1  0  0  0  0
  6  4  1  0  0  0  0
  6 11  1  0  0  0  0
  9  5  1  0  0  0  0
 11 12  1  0  0  0  0
 12 13  2  0  0  0  0
 14 13  1  0  0  0  0
 14 15  1  0  0  0  0
 15 19  1  0  0  0  0
 16 14  2  0  0  0  0
 17 11  1  0  0  0  0
 17 16  1  0  0  0  0
 18 17  2  0  0  0  0
 20 15  1  0  0  0  0
 21 23  1  0  0  0  0
 21 22  1  0  0  0  0
 21  1  1  0  0  0  0
 24 25  1  0  0  0  0
 25 26  2  0  0  0  0
 26 21  1  0  0  0  0
 27 26  1  0  0  0  0
 28 27  2  0  0  0  0
 29 24  2  0  0  0  0
 29 28  1  0  0  0  0
 30 24  1  0  0  0  0
 31 28  1  0  0  0  0
 32 25  1  0  0  0  0
 32 35  1  0  0  0  0
 33 32  1  0  0  0  0
 34 32  1  0  0  0  0
M  END
>  <minimizedAffinity>
-5.50003767

>  <minimizedRMSD>
6.86727715

$$$$
