
     RDKit          3D

 37 39  0  0  0  0  0  0  0  0999 V2000
   43.1274   23.3408   36.5406 C   0  0  0  0  0  0  0  0  0  0  0  0
   41.7263   23.1060   36.4010 C   0  0  0  0  0  0  0  0  0  0  0  0
   41.1732   24.0379   35.6211 C   0  0  0  0  0  0  0  0  0  0  0  0
   41.9090   25.0748   35.0479 N   0  0  0  0  0  0  0  0  0  0  0  0
   43.2012   25.2251   35.2234 C   0  0  0  0  0  0  0  0  0  0  0  0
   43.8183   24.3458   35.9803 N   0  0  0  0  0  0  0  0  0  0  0  0
   41.2353   21.9658   37.0854 C   0  0  0  0  0  0  0  0  0  0  0  0
   40.4910   22.3200   38.2381 F   0  0  0  0  0  0  0  0  0  0  0  0
   42.0310   21.1785   37.8300 F   0  0  0  0  0  0  0  0  0  0  0  0
   40.1420   21.2876   36.5505 F   0  0  0  0  0  0  0  0  0  0  0  0
   39.7895   23.9081   35.3742 C   0  0  0  0  0  0  0  0  0  0  0  0
   39.0262   25.0998   35.7038 C   0  0  0  0  0  0  0  0  0  0  0  0
   37.7762   24.6666   36.5032 C   0  0  2  0  0  0  0  0  0  0  0  0
   38.0101   24.3803   37.9265 C   0  0  0  0  0  0  0  0  0  0  0  0
   37.5502   23.3229   36.9471 C   0  0  1  0  0  0  0  0  0  0  0  0
   43.7726   22.6785   37.1502 H   0  0  0  0  0  0  0  0  0  0  0  0
   43.6621   26.0539   34.7374 H   0  0  0  0  0  0  0  0  0  0  0  0
   39.7623   23.9174   34.2187 H   0  0  0  0  0  0  0  0  0  0  0  0
   39.2239   23.0359   35.5498 H   0  0  0  0  0  0  0  0  0  0  0  0
   38.8041   25.8176   34.9065 H   0  0  0  0  0  0  0  0  0  0  0  0
   39.6267   25.7033   36.4510 H   0  0  0  0  0  0  0  0  0  0  0  0
   36.9094   25.2601   36.1246 H   0  0  0  0  0  0  0  0  0  0  0  0
   37.3158   24.5651   38.7584 H   0  0  0  0  0  0  0  0  0  0  0  0
   39.0256   24.5023   38.2715 H   0  0  0  0  0  0  0  0  0  0  0  0
   38.0393   22.4631   37.2627 H   0  0  0  0  0  0  0  0  0  0  0  0
   36.1277   22.9191   36.9268 N   0  0  0  0  0  0  0  0  0  0  0  0
   35.1229   23.8001   36.7447 C   0  0  0  0  0  0  0  0  0  0  0  0
   33.7879   23.4785   36.7188 C   0  0  0  0  0  0  0  0  0  0  0  0
   33.4358   22.1573   36.8910 C   0  0  0  0  0  0  0  0  0  0  0  0
   32.0465   21.8571   36.8591 N   0  0  0  0  0  0  0  0  0  0  0  0
   34.4386   21.2818   37.0723 N   0  0  0  0  0  0  0  0  0  0  0  0
   35.7259   21.6551   37.0881 C   0  0  0  0  0  0  0  0  0  0  0  0
   36.5197   20.7355   37.2646 O   0  0  0  0  0  0  0  0  0  0  0  0
   35.4055   24.8549   36.6073 H   0  0  0  0  0  0  0  0  0  0  0  0
   33.0505   24.2694   36.5642 H   0  0  0  0  0  0  0  0  0  0  0  0
   31.6358   22.0090   37.8150 H   0  0  0  0  0  0  0  0  0  0  0  0
   31.4232   21.5278   36.0636 H   0  0  0  0  0  0  0  0  0  0  0  0
  2  1  2  0
  2  7  1  0
  3  2  1  0
  4  5  1  0
  4  3  2  0
  5  6  2  0
  6  1  1  0
  7  9  1  0
  7  8  1  0
 10  7  1  0
 11  3  1  0
 11 12  1  0
 12 13  1  0
 13 15  1  0
 13 14  1  0
 15 14  1  0
  1 16  1  0
  5 17  1  0
 11 18  1  0
 11 19  1  0
 12 20  1  0
 12 21  1  0
 13 22  1  1
 14 23  1  0
 14 24  1  0
 15 25  1  6
 26 27  1  0
 27 28  2  0
 28 29  1  0
 29 30  1  0
 29 31  2  0
 31 32  1  0
 32 33  2  0
 32 26  1  0
 27 34  1  0
 28 35  1  0
 30 36  1  0
 30 37  1  0
 15 26  1  0
M  ISO  8  16  14  17  14  18   8  19   8  20   8  21   8  22  13  23  13
M  ISO  2  24  13  25  13
M  END
>  <DihAtoms>  (1) 
12,14,25,26

>  <DihDeg>  (1) 
138.5616820071469

$$$$
