
 OpenBabel03262519283D

 34 37  0  0  0  0  0  0  0  0999 V2000
   39.6240   22.8960   37.2470 C   0  0  0  0  0  0  0  0  0  0  0  0
   39.0110   23.3090   38.4390 C   0  0  0  0  0  0  0  0  0  0  0  0
   37.9790   24.2600   38.3150 C   0  0  0  0  0  0  0  0  0  0  0  0
   37.6360   24.7180   37.0810 N   0  0  0  0  0  0  0  0  0  0  0  0
   38.2720   24.2740   35.9740 C   0  0  0  0  0  0  0  0  0  0  0  0
   39.2450   23.3830   36.0490 N   0  0  0  0  0  0  0  0  0  0  0  0
   39.2470   22.9780   39.4200 H   0  0  0  0  0  0  0  0  0  0  0  0
   37.4610   24.6240   39.1920 H   0  0  0  0  0  0  0  0  0  0  0  0
   37.9510   24.7230   34.6550 N   0  0  0  0  0  0  0  0  0  0  0  0
   38.2710   23.7860   33.7230 C   0  0  0  0  0  0  0  0  0  0  0  0
   38.0180   24.0740   32.3790 C   0  0  0  0  0  0  0  0  0  0  0  0
   37.4550   25.2950   32.0760 C   0  0  0  0  0  0  0  0  0  0  0  0
   37.1910   25.6030   30.7190 N   0  0  0  0  0  0  0  0  0  0  0  0
   37.1580   26.1790   33.0290 N   0  0  0  0  0  0  0  0  0  0  0  0
   37.4020   25.9070   34.3330 C   0  0  0  0  0  0  0  0  0  0  0  0
   37.1710   26.6490   35.3280 O   0  0  0  0  0  0  0  0  0  0  0  0
   38.0440   26.1850   30.4730 H   0  0  0  0  0  0  0  0  0  0  0  0
   36.5040   25.4680   29.9450 H   0  0  0  0  0  0  0  0  0  0  0  0
   40.6250   21.9750   37.3650 O   0  0  0  0  0  0  0  0  0  0  0  0
   41.8940   22.0800   36.8540 C   0  0  0  0  0  0  0  0  0  0  0  0
   42.4610   23.2070   36.3100 C   0  0  0  0  0  0  0  0  0  0  0  0
   43.7270   22.9620   35.9020 N   0  0  0  0  0  0  0  0  0  0  0  0
   44.0270   21.6650   36.1680 C   0  0  0  0  0  0  0  0  0  0  0  0
   45.1710   20.9180   35.9530 C   0  0  0  0  0  0  0  0  0  0  0  0
   45.1850   19.5720   36.3400 C   0  0  0  0  0  0  0  0  0  0  0  0
   44.0470   19.0060   36.9370 C   0  0  0  0  0  0  0  0  0  0  0  0
   42.9110   19.7920   37.1370 C   0  0  0  0  0  0  0  0  0  0  0  0
   42.9020   21.1210   36.7520 C   0  0  0  0  0  0  0  0  0  0  0  0
   41.9390   24.1580   36.2300 H   0  0  0  0  0  0  0  0  0  0  0  0
   44.3440   23.6920   35.4560 H   0  0  0  0  0  0  0  0  0  0  0  0
   46.0050   21.4210   35.4900 H   0  0  0  0  0  0  0  0  0  0  0  0
   46.1030   19.0600   36.1430 H   0  0  0  0  0  0  0  0  0  0  0  0
   44.1120   17.9630   37.2160 H   0  0  0  0  0  0  0  0  0  0  0  0
   42.0510   19.3510   37.5910 H   0  0  0  0  0  0  0  0  0  0  0  0
  1 19  1  0  0  0  0
  1  2  1  0  0  0  0
  2  7  1  0  0  0  0
  3  2  2  0  0  0  0
  3  8  1  0  0  0  0
  4  3  1  0  0  0  0
  5  6  1  0  0  0  0
  5  4  2  0  0  0  0
  6  1  2  0  0  0  0
  9  5  1  0  0  0  0
 10  9  1  0  0  0  0
 11 10  2  0  0  0  0
 12 11  1  0  0  0  0
 12 14  2  0  0  0  0
 13 12  1  0  0  0  0
 14 15  1  0  0  0  0
 15  9  1  0  0  0  0
 15 16  2  0  0  0  0
 17 13  1  0  0  0  0
 18 13  1  0  0  0  0
 20 19  1  0  0  0  0
 21 20  2  0  0  0  0
 22 23  1  0  0  0  0
 22 21  1  0  0  0  0
 23 28  1  0  0  0  0
 24 23  2  0  0  0  0
 24 25  1  0  0  0  0
 25 26  2  0  0  0  0
 26 27  1  0  0  0  0
 26 33  1  0  0  0  0
 27 34  1  0  0  0  0
 28 20  1  0  0  0  0
 28 27  2  0  0  0  0
 29 21  1  0  0  0  0
 30 22  1  0  0  0  0
 31 24  1  0  0  0  0
 32 25  1  0  0  0  0
M  END
>  <minimizedAffinity>
-5.97644997

>  <minimizedRMSD>
1.10201871

$$$$
