
 OpenBabel03262519383D

 31 33  0  0  1  0  0  0  0  0999 V2000
   38.6400   25.7630   34.2860 N   0  0  0  0  0  0  0  0  0  0  0  0
   38.3700   27.1270   33.9450 C   0  0  0  0  0  0  0  0  0  0  0  0
   38.7630   27.2680   32.5020 C   0  0  0  0  0  0  0  0  0  0  0  0
   39.2070   25.8750   32.0840 C   0  0  0  0  0  0  0  0  0  0  0  0
   38.3400   25.0520   33.0670 C   0  0  2  0  0  0  0  0  0  0  0  0
   37.2630   27.2840   34.0030 H   0  0  0  0  0  0  0  0  0  0  0  0
   38.8380   27.8760   34.6120 H   0  0  0  0  0  0  0  0  0  0  0  0
   39.6850   27.9030   32.4740 H   0  0  0  0  0  0  0  0  0  0  0  0
   37.9520   27.6470   31.8510 H   0  0  0  0  0  0  0  0  0  0  0  0
   38.8520   25.6760   31.0660 H   0  0  0  0  0  0  0  0  0  0  0  0
   40.2700   25.6770   32.2520 H   0  0  0  0  0  0  0  0  0  0  0  0
   38.7150   24.0280   33.1110 H   0  0  0  0  0  0  0  0  0  0  0  0
   37.7550   25.2250   35.2830 C   0  0  0  0  0  0  0  0  0  0  0  0
   36.8620   24.7220   34.8930 H   0  0  0  0  0  0  0  0  0  0  0  0
   37.3760   26.1080   35.8590 H   0  0  0  0  0  0  0  0  0  0  0  0
   40.3100   22.9200   36.8880 C   0  0  0  0  0  0  0  0  0  0  0  0
   39.6560   23.7150   35.9350 C   0  0  0  0  0  0  0  0  0  0  0  0
   38.4780   24.3710   36.2700 C   0  0  0  0  0  0  0  0  0  0  0  0
   38.0060   24.2030   37.5450 N   0  0  0  0  0  0  0  0  0  0  0  0
   38.6580   23.4300   38.4420 C   0  0  0  0  0  0  0  0  0  0  0  0
   39.7950   22.8040   38.1030 N   0  0  0  0  0  0  0  0  0  0  0  0
   41.2060   22.4720   36.4990 H   0  0  0  0  0  0  0  0  0  0  0  0
   40.0260   23.8500   34.9270 H   0  0  0  0  0  0  0  0  0  0  0  0
   38.2120   23.3560   39.4210 H   0  0  0  0  0  0  0  0  0  0  0  0
   37.0210   25.0740   32.6950 O   0  0  0  0  0  0  0  0  0  0  0  0
   36.4310   23.9940   32.0230 C   0  0  0  0  0  0  0  0  0  0  0  0
   35.5420   23.7270   31.0530 N   0  0  0  0  0  0  0  0  0  0  0  0
   35.4410   22.4560   30.9070 O   0  0  0  0  0  0  0  0  0  0  0  0
   36.2280   21.8410   31.7420 C   0  0  0  0  0  0  0  0  0  0  0  0
   36.2850   20.7440   31.7730 H   0  0  0  0  0  0  0  0  0  0  0  0
   36.8680   22.7910   32.4640 N   0  0  0  0  0  0  0  0  0  0  0  0
  1 13  1  0  0  0  0
  2  6  1  0  0  0  0
  2  1  1  0  0  0  0
  2  7  1  0  0  0  0
  3  2  1  0  0  0  0
  4 11  1  0  0  0  0
  4  3  1  0  0  0  0
  4  5  1  0  0  0  0
  5 12  1  1  0  0  0
  5  1  1  0  0  0  0
  8  3  1  0  0  0  0
  9  3  1  0  0  0  0
 10  4  1  0  0  0  0
 13 15  1  0  0  0  0
 13 18  1  0  0  0  0
 14 13  1  0  0  0  0
 16 21  1  0  0  0  0
 17 18  1  0  0  0  0
 17 16  2  0  0  0  0
 18 19  2  0  0  0  0
 19 20  1  0  0  0  0
 20 24  1  0  0  0  0
 21 20  2  0  0  0  0
 22 16  1  0  0  0  0
 23 17  1  0  0  0  0
 25  5  1  0  0  0  0
 26 31  1  0  0  0  0
 26 25  1  0  0  0  0
 27 26  2  0  0  0  0
 28 27  1  0  0  0  0
 28 29  1  0  0  0  0
 29 30  1  0  0  0  0
 29 31  2  0  0  0  0
M  END
>  <minimizedAffinity>
-4.12779331

>  <minimizedRMSD>
4.6704998

$$$$
