
 OpenBabel03262519463D

 42 45  0  0  1  0  0  0  0  0999 V2000
   37.4510   25.5090   32.9610 N   0  0  0  0  0  0  0  0  0  0  0  0
   36.9840   24.3900   32.4030 C   0  0  0  0  0  0  0  0  0  0  0  0
   35.9560   24.5920   31.5150 C   0  0  0  0  0  0  0  0  0  0  0  0
   35.7810   25.9180   31.5230 N   0  0  0  0  0  0  0  0  0  0  0  0
   36.6790   26.4750   32.3920 C   0  0  0  0  0  0  0  0  0  0  0  0
   37.4220   23.4140   32.6730 H   0  0  0  0  0  0  0  0  0  0  0  0
   35.4840   23.7690   30.9910 H   0  0  0  0  0  0  0  0  0  0  0  0
   36.7050   27.9640   32.5600 C   0  0  1  0  0  0  0  0  0  0  0  0
   36.3230   28.7880   31.3910 C   0  0  0  0  0  0  0  0  0  0  0  0
   35.3790   28.6710   32.5630 C   0  0  2  0  0  0  0  0  0  0  0  0
   37.5170   28.3120   33.1860 H   0  0  0  0  0  0  0  0  0  0  0  0
   35.9150   28.2930   30.4620 H   0  0  0  0  0  0  0  0  0  0  0  0
   36.8090   29.7350   31.1520 H   0  0  0  0  0  0  0  0  0  0  0  0
   34.5000   28.0080   32.4860 H   0  0  0  0  0  0  0  0  0  0  0  0
   35.1550   29.9140   33.2180 N   0  0  0  0  0  0  0  0  0  0  0  0
   35.8490   30.9190   32.6010 C   0  0  0  0  0  3  0  0  0  0  0  0
   35.7800   32.2360   33.0750 C   0  0  0  0  0  3  0  0  0  0  0  0
   34.9950   32.4900   34.1790 C   0  0  0  0  0  0  0  0  0  0  0  0
   34.8410   33.7770   34.7570 N   0  0  0  0  0  0  0  0  0  0  0  0
   34.3340   31.4800   34.7520 N   0  0  0  0  0  0  0  0  0  0  0  0
   34.4200   30.2260   34.2730 C   0  0  0  0  0  0  0  0  0  0  0  0
   33.8190   29.2780   34.7850 O   0  0  0  0  0  0  0  0  0  0  0  0
   34.0120   34.4370   34.6780 H   0  0  0  0  0  0  0  0  0  0  0  0
   35.7650   33.8710   35.2660 H   0  0  0  0  0  0  0  0  0  0  0  0
   38.4540   25.8130   33.9080 C   0  0  0  0  0  0  0  0  0  0  0  0
   38.9700   26.7730   33.6510 H   0  0  0  0  0  0  0  0  0  0  0  0
   39.2570   25.0320   33.8040 H   0  0  0  0  0  0  0  0  0  0  0  0
   37.9510   25.8850   35.3020 C   0  0  1  0  0  0  0  0  0  0  0  0
   36.8340   25.8000   35.3000 H   0  0  0  0  0  0  0  0  0  0  0  0
   38.4890   23.5510   38.2330 C   0  0  0  0  0  0  0  0  0  0  0  0
   37.9150   24.5840   37.4800 C   0  0  0  0  0  0  0  0  0  0  0  0
   38.4860   24.8320   36.1900 C   0  0  0  0  0  0  0  0  0  0  0  0
   39.5520   24.0600   35.7550 N   0  0  0  0  0  0  0  0  0  0  0  0
   40.0600   23.0890   36.5130 C   0  0  0  0  0  0  0  0  0  0  0  0
   39.5220   22.8330   37.7660 N   0  0  0  0  0  0  0  0  0  0  0  0
   38.0520   23.3730   39.2050 H   0  0  0  0  0  0  0  0  0  0  0  0
   37.0840   25.2010   37.7930 H   0  0  0  0  0  0  0  0  0  0  0  0
   40.8890   22.5160   36.1330 H   0  0  0  0  0  0  0  0  0  0  0  0
   38.2250   27.2590   35.9030 C   0  0  0  0  0  0  0  0  0  0  0  0
   38.3630   27.0930   36.9920 H   0  0  0  0  0  0  0  0  0  0  0  0
   37.3630   27.9470   35.8280 H   0  0  0  0  0  0  0  0  0  0  0  0
   39.1810   27.6570   35.5320 H   0  0  0  0  0  0  0  0  0  0  0  0
  1 25  1  0  0  0  0
  2  6  1  0  0  0  0
  2  1  1  0  0  0  0
  3  4  1  0  0  0  0
  3  2  2  0  0  0  0
  4  5  2  0  0  0  0
  5  8  1  0  0  0  0
  5  1  1  0  0  0  0
  7  3  1  0  0  0  0
  8 10  1  0  0  0  0
  8 11  1  1  0  0  0
  9  8  1  0  0  0  0
  9 10  1  0  0  0  0
 10 14  1  6  0  0  0
 10 15  1  0  0  0  0
 12  9  1  0  0  0  0
 13  9  1  0  0  0  0
 15 21  1  0  0  0  0
 16 17  2  0  0  0  0
 16 15  1  0  0  0  0
 17 18  1  0  0  0  0
 18 20  2  0  0  0  0
 18 19  1  0  0  0  0
 19 24  1  0  0  0  0
 21 20  1  0  0  0  0
 21 22  2  0  0  0  0
 23 19  1  0  0  0  0
 25 28  1  0  0  0  0
 26 25  1  0  0  0  0
 27 25  1  0  0  0  0
 28 29  1  6  0  0  0
 28 39  1  0  0  0  0
 28 32  1  0  0  0  0
 30 36  1  0  0  0  0
 31 37  1  0  0  0  0
 31 30  2  0  0  0  0
 32 31  1  0  0  0  0
 33 32  2  0  0  0  0
 33 34  1  0  0  0  0
 34 35  2  0  0  0  0
 35 30  1  0  0  0  0
 38 34  1  0  0  0  0
 39 40  1  0  0  0  0
 41 39  1  0  0  0  0
 42 39  1  0  0  0  0
M  END
>  <minimizedAffinity>
-5.54774523

>  <minimizedRMSD>
1.23461056

$$$$
