
 OpenBabel03262516303D

 44 47  0  0  0  0  0  0  0  0999 V2000
   36.9670   22.4170   32.9320 C   0  0  0  0  0  0  0  0  0  0  0  0
   36.4010   21.1760   33.2460 C   0  0  0  0  0  0  0  0  0  0  0  0
   35.6790   20.7390   32.1630 C   0  0  0  0  0  0  0  0  0  0  0  0
   35.8480   21.7510   31.2360 C   0  0  0  0  0  0  0  0  0  0  0  0
   36.6140   22.7130   31.7400 O   0  0  0  0  0  0  0  0  0  0  0  0
   36.4570   20.5680   34.1630 H   0  0  0  0  0  0  0  0  0  0  0  0
   35.4350   21.7940   30.2340 H   0  0  0  0  0  0  0  0  0  0  0  0
   37.7870   23.1060   33.9140 C   0  0  0  0  0  0  0  0  0  0  0  0
   38.1180   24.4540   33.8450 C   0  0  0  0  0  0  0  0  0  0  0  0
   38.8970   25.0490   34.8100 C   0  0  0  0  0  0  0  0  0  0  0  0
   39.3200   24.2720   35.8170 N   0  0  0  0  0  0  0  0  0  0  0  0
   39.0020   22.9450   35.8970 C   0  0  0  0  0  0  0  0  0  0  0  0
   38.2410   22.3660   34.9510 N   0  0  0  0  0  0  0  0  0  0  0  0
   37.7360   25.0200   32.9970 H   0  0  0  0  0  0  0  0  0  0  0  0
   39.3520   22.3390   36.7110 H   0  0  0  0  0  0  0  0  0  0  0  0
   39.2600   26.4600   34.7610 C   0  0  0  0  0  0  0  0  0  0  0  0
   38.6650   27.2620   35.8930 C   0  0  0  0  0  0  0  0  0  0  0  0
   37.7000   27.7200   35.5670 H   0  0  0  0  0  0  0  0  0  0  0  0
   39.3860   28.0960   36.0820 H   0  0  0  0  0  0  0  0  0  0  0  0
   38.4660   26.6540   36.8000 H   0  0  0  0  0  0  0  0  0  0  0  0
   38.7920   27.1030   33.4440 C   0  0  0  0  0  0  0  0  0  0  0  0
   37.6680   27.0760   33.4970 H   0  0  0  0  0  0  0  0  0  0  0  0
   39.1820   26.4820   32.6260 H   0  0  0  0  0  0  0  0  0  0  0  0
   39.1060   28.1450   33.3970 H   0  0  0  0  0  0  0  0  0  0  0  0
   40.7790   26.5610   34.7530 C   0  0  0  0  0  0  0  0  0  0  0  0
   41.1690   27.1110   33.9000 H   0  0  0  0  0  0  0  0  0  0  0  0
   41.2620   25.5440   34.7900 H   0  0  0  0  0  0  0  0  0  0  0  0
   41.1120   27.0770   35.6940 H   0  0  0  0  0  0  0  0  0  0  0  0
   34.8930   19.5080   31.9600 C   0  0  0  0  0  0  0  0  0  0  0  0
   34.9770   19.1700   30.9290 H   0  0  0  0  0  0  0  0  0  0  0  0
   33.8050   19.6910   32.1670 H   0  0  0  0  0  0  0  0  0  0  0  0
   35.3580   18.3870   32.9090 C   0  0  0  0  0  0  0  0  0  0  0  0
   34.5350   18.0380   33.5390 H   0  0  0  0  0  0  0  0  0  0  0  0
   36.2350   18.7560   33.4380 H   0  0  0  0  0  0  0  0  0  0  0  0
   35.7660   17.3050   32.0220 N   0  0  0  0  0  0  0  0  0  0  0  0
   36.5240   17.4770   30.9090 C   0  0  0  0  0  0  0  0  0  0  0  0
   36.7360   16.3150   30.3020 N   0  0  0  0  0  0  0  0  0  0  0  0
   36.1160   15.3420   31.0080 C   0  0  0  0  0  0  0  0  0  0  0  0
   35.9820   13.9720   30.8770 C   0  0  0  0  0  0  0  0  0  0  0  0
   36.4610   13.4840   30.0290 H   0  0  0  0  0  0  0  0  0  0  0  0
   35.2600   13.3090   31.8160 N   0  0  0  0  0  0  0  0  0  0  0  0
   34.6880   13.9570   32.8450 C   0  0  0  0  0  0  0  0  0  0  0  0
   34.7940   15.2880   33.0090 N   0  0  0  0  0  0  0  0  0  0  0  0
   35.5100   15.9720   32.0860 C   0  0  0  0  0  0  0  0  0  0  0  0
  1  2  2  0  0  0  0
  1  8  1  0  0  0  0
  2  6  1  0  0  0  0
  3  2  1  0  0  0  0
  4  5  1  0  0  0  0
  4  3  2  0  0  0  0
  5  1  1  0  0  0  0
  7  4  1  0  0  0  0
  8 13  1  0  0  0  0
  9  8  2  0  0  0  0
  9 10  1  0  0  0  0
 10 11  2  0  0  0  0
 11 12  1  0  0  0  0
 12 15  1  0  0  0  0
 13 12  2  0  0  0  0
 14  9  1  0  0  0  0
 16 10  1  0  0  0  0
 16 17  1  0  0  0  0
 17 19  1  0  0  0  0
 17 20  1  0  0  0  0
 18 17  1  0  0  0  0
 21 22  1  0  0  0  0
 21 16  1  0  0  0  0
 23 21  1  0  0  0  0
 24 21  1  0  0  0  0
 25 16  1  0  0  0  0
 25 27  1  0  0  0  0
 25 28  1  0  0  0  0
 26 25  1  0  0  0  0
 29  3  1  0  0  0  0
 29 31  1  0  0  0  0
 29 32  1  0  0  0  0
 30 29  1  0  0  0  0
 32 34  1  0  0  0  0
 32 33  1  0  0  0  0
 35 44  1  0  0  0  0
 35 32  1  0  0  0  0
 36 35  1  0  0  0  0
 37 36  2  0  0  0  0
 37 38  1  0  0  0  0
 38 44  1  0  0  0  0
 39 38  2  0  0  0  0
 39 41  1  0  0  0  0
 40 39  1  0  0  0  0
 41 42  2  0  0  0  0
 42 43  1  0  0  0  0
 44 43  2  0  0  0  0
M  END
>  <minimizedAffinity>
-5.29003239

>  <minimizedRMSD>
1.96051788

$$$$
