
 OpenBabel03262518353D

 49 53  0  0  0  0  0  0  0  0999 V2000
   37.2940   26.5040   34.6750 C   0  0  0  0  0  0  0  0  0  0  0  0
   37.4740   25.6300   33.6050 C   0  0  0  0  0  0  0  0  0  0  0  0
   36.9830   26.0280   32.3470 C   0  0  0  0  0  0  0  0  0  0  0  0
   36.3770   27.2230   32.2650 N   0  0  0  0  0  0  0  0  0  0  0  0
   36.2190   28.0410   33.3140 C   0  0  0  0  0  0  0  0  0  0  0  0
   36.6720   27.6990   34.5330 N   0  0  0  0  0  0  0  0  0  0  0  0
   37.9740   24.6780   33.7390 H   0  0  0  0  0  0  0  0  0  0  0  0
   37.1030   25.3730   31.4790 H   0  0  0  0  0  0  0  0  0  0  0  0
   37.8100   26.0770   35.9840 C   0  0  0  0  0  0  0  0  0  0  0  0
   38.4780   26.8960   36.6580 O   0  0  0  0  0  0  0  0  0  0  0  0
   37.5630   24.8220   36.4450 O   0  0  0  0  0  0  0  0  0  0  0  0
   39.6650   22.6230   38.2350 N   0  0  0  0  0  0  0  0  0  0  0  0
   38.5710   23.3760   38.0790 N   0  0  0  0  0  0  0  0  0  0  0  0
   38.6110   23.9700   36.8530 C   0  0  0  0  0  0  0  0  0  0  0  0
   39.7720   23.5810   36.2090 C   0  0  0  0  0  0  0  0  0  0  0  0
   40.3990   22.7450   37.0960 C   0  0  0  0  0  0  0  0  0  0  0  0
   39.9500   22.0390   39.0420 H   0  0  0  0  0  0  0  0  0  0  0  0
   40.0350   23.9130   35.2310 H   0  0  0  0  0  0  0  0  0  0  0  0
   41.6890   22.0810   36.8390 C   0  0  0  0  0  0  0  0  0  0  0  0
   42.7010   22.7780   36.2190 C   0  0  0  0  0  0  0  0  0  0  0  0
   43.8740   22.0800   36.0170 C   0  0  0  0  0  0  0  0  0  0  0  0
   44.0800   20.7820   36.3850 N   0  0  0  0  0  0  0  0  0  0  0  0
   43.0550   20.1460   36.9900 C   0  0  0  0  0  0  0  0  0  0  0  0
   41.9090   20.7990   37.1970 N   0  0  0  0  0  0  0  0  0  0  0  0
   42.6080   23.8050   35.9010 H   0  0  0  0  0  0  0  0  0  0  0  0
   44.6750   22.6410   35.5230 H   0  0  0  0  0  0  0  0  0  0  0  0
   43.2220   19.1180   37.2800 H   0  0  0  0  0  0  0  0  0  0  0  0
   35.5300   29.3470   33.1180 C   0  0  0  0  0  0  0  0  0  0  0  0
   35.6220   30.1070   34.4240 C   0  0  0  0  0  0  0  0  0  0  0  0
   34.9520   30.9930   34.4530 H   0  0  0  0  0  0  0  0  0  0  0  0
   36.6540   30.2930   34.7320 H   0  0  0  0  0  0  0  0  0  0  0  0
   35.1800   29.4150   35.1990 H   0  0  0  0  0  0  0  0  0  0  0  0
   34.0920   29.0650   32.7970 C   0  0  0  0  0  0  0  0  0  0  0  0
   33.6810   28.4680   33.6630 H   0  0  0  0  0  0  0  0  0  0  0  0
   34.0670   28.4230   31.8700 H   0  0  0  0  0  0  0  0  0  0  0  0
   33.4790   29.9580   32.6570 H   0  0  0  0  0  0  0  0  0  0  0  0
   36.1560   30.1550   31.9910 C   0  0  0  0  0  0  0  0  0  0  0  0
   37.2020   30.4170   32.2070 H   0  0  0  0  0  0  0  0  0  0  0  0
   36.0680   29.6010   31.0360 H   0  0  0  0  0  0  0  0  0  0  0  0
   35.4180   31.3940   31.8390 N   0  0  0  0  0  0  0  0  0  0  0  0
   34.2190   31.5390   31.2210 C   0  0  0  0  0  0  0  0  0  0  0  0
   33.7960   32.8240   31.2510 N   0  0  0  0  0  0  0  0  0  0  0  0
   34.7550   33.5350   31.9110 C   0  0  0  0  0  0  0  0  0  0  0  0
   34.7970   34.8750   32.2020 C   0  0  0  0  0  0  0  0  0  0  0  0
   33.9960   35.5470   31.9030 H   0  0  0  0  0  0  0  0  0  0  0  0
   35.8730   35.2950   32.8680 N   0  0  0  0  0  0  0  0  0  0  0  0
   36.8410   34.4160   33.2150 C   0  0  0  0  0  0  0  0  0  0  0  0
   36.8180   33.0960   32.9380 N   0  0  0  0  0  0  0  0  0  0  0  0
   35.7460   32.6350   32.2660 C   0  0  0  0  0  0  0  0  0  0  0  0
  1  9  1  0  0  0  0
  2  7  1  0  0  0  0
  2  1  2  0  0  0  0
  3  2  1  0  0  0  0
  4  3  2  0  0  0  0
  4  5  1  0  0  0  0
  5  6  2  0  0  0  0
  6  1  1  0  0  0  0
  8  3  1  0  0  0  0
  9 11  1  0  0  0  0
  9 10  2  0  0  0  0
 11 14  1  0  0  0  0
 12 17  1  0  0  0  0
 13 12  1  0  0  0  0
 14 13  2  0  0  0  0
 15 14  1  0  0  0  0
 15 16  2  0  0  0  0
 16 12  1  0  0  0  0
 18 15  1  0  0  0  0
 19 16  1  0  0  0  0
 19 24  1  0  0  0  0
 20 19  2  0  0  0  0
 21 20  1  0  0  0  0
 21 22  2  0  0  0  0
 22 23  1  0  0  0  0
 23 24  2  0  0  0  0
 23 27  1  0  0  0  0
 25 20  1  0  0  0  0
 26 21  1  0  0  0  0
 28  5  1  0  0  0  0
 28 29  1  0  0  0  0
 29 30  1  0  0  0  0
 29 31  1  0  0  0  0
 29 32  1  0  0  0  0
 33 28  1  0  0  0  0
 33 34  1  0  0  0  0
 35 33  1  0  0  0  0
 36 33  1  0  0  0  0
 37 38  1  0  0  0  0
 37 28  1  0  0  0  0
 39 37  1  0  0  0  0
 40 37  1  0  0  0  0
 40 49  1  0  0  0  0
 41 42  2  0  0  0  0
 41 40  1  0  0  0  0
 42 43  1  0  0  0  0
 43 44  2  0  0  0  0
 43 49  1  0  0  0  0
 44 46  1  0  0  0  0
 45 44  1  0  0  0  0
 46 47  2  0  0  0  0
 48 47  1  0  0  0  0
 49 48  2  0  0  0  0
M  END
>  <minimizedAffinity>
-5.83906221

>  <minimizedRMSD>
0.489890009

$$$$
