
 OpenBabel03262517573D

 41 45  0  0  1  0  0  0  0  0999 V2000
   39.1870   24.2250   33.3410 N   0  0  0  0  0  0  0  0  0  0  0  0
   40.4250   24.1130   32.8510 N   0  0  0  0  0  0  0  0  0  0  0  0
   40.5260   24.6980   31.6640 C   0  0  0  0  0  0  0  0  0  0  0  0
   39.3010   25.2190   31.3570 C   0  0  0  0  0  0  0  0  0  0  0  0
   38.4620   24.9140   32.4220 C   0  0  0  0  0  0  0  0  0  0  0  0
   41.4280   24.7420   31.0640 H   0  0  0  0  0  0  0  0  0  0  0  0
   39.0240   25.7690   30.4510 H   0  0  0  0  0  0  0  0  0  0  0  0
   37.4570   22.0740   35.7650 C   0  0  0  0  0  0  0  0  0  0  0  0
   38.0710   22.5160   34.5790 C   0  0  0  0  0  0  0  0  0  0  0  0
   38.5700   23.7900   34.5400 C   0  0  0  0  0  0  0  0  0  0  0  0
   38.4480   24.5760   35.6600 N   0  0  0  0  0  0  0  0  0  0  0  0
   37.8620   24.1360   36.7740 C   0  0  0  0  0  0  0  0  0  0  0  0
   37.3660   22.8810   36.8250 N   0  0  0  0  0  0  0  0  0  0  0  0
   37.0410   21.0650   35.8530 H   0  0  0  0  0  0  0  0  0  0  0  0
   37.8110   24.8260   37.6060 H   0  0  0  0  0  0  0  0  0  0  0  0
   38.1180   21.5840   33.5130 N   0  0  0  0  0  0  0  0  0  0  0  0
   37.1310   21.0530   32.7340 C   0  0  0  0  0  0  0  0  0  0  0  0
   37.7080   20.1990   31.8460 N   0  0  0  0  0  0  0  0  0  0  0  0
   39.0340   20.2090   32.0810 C   0  0  0  0  0  0  0  0  0  0  0  0
   39.2590   21.0660   33.1090 N   0  0  0  0  0  0  0  0  0  0  0  0
   36.0910   21.3320   32.8820 H   0  0  0  0  0  0  0  0  0  0  0  0
   39.7890   19.6290   31.5400 H   0  0  0  0  0  0  0  0  0  0  0  0
   37.0260   25.3140   32.4420 C   0  0  2  0  0  0  0  0  0  0  0  0
   36.7270   25.4070   33.5170 H   0  0  0  0  0  0  0  0  0  0  0  0
   36.1320   24.3620   31.7300 C   0  0  0  0  0  0  0  0  0  0  0  0
   36.5060   23.3280   31.9750 H   0  0  0  0  0  0  0  0  0  0  0  0
   36.2130   24.4320   30.6330 H   0  0  0  0  0  0  0  0  0  0  0  0
   35.1000   24.4130   32.1180 H   0  0  0  0  0  0  0  0  0  0  0  0
   36.9420   26.7370   31.8950 C   0  0  0  0  0  0  0  0  0  0  0  0
   37.9320   27.0050   31.4930 H   0  0  0  0  0  0  0  0  0  0  0  0
   36.2280   26.7540   31.0520 H   0  0  0  0  0  0  0  0  0  0  0  0
   36.5560   27.6470   32.9560 N   0  0  0  0  0  0  0  0  0  0  0  0
   37.0840   27.5510   34.2030 C   0  0  0  0  0  0  0  0  0  0  0  0
   36.5580   28.5120   34.9900 N   0  0  0  0  0  0  0  0  0  0  0  0
   35.6810   29.2450   34.2660 C   0  0  0  0  0  0  0  0  0  0  0  0
   34.8610   30.3330   34.5370 C   0  0  0  0  0  0  0  0  0  0  0  0
   34.8520   30.7650   35.5270 H   0  0  0  0  0  0  0  0  0  0  0  0
   34.1160   30.7800   33.5090 N   0  0  0  0  0  0  0  0  0  0  0  0
   34.1250   30.2450   32.2770 C   0  0  0  0  0  0  0  0  0  0  0  0
   34.9330   29.1770   32.0220 N   0  0  0  0  0  0  0  0  0  0  0  0
   35.7030   28.6820   33.0050 C   0  0  0  0  0  0  0  0  0  0  0  0
  1 10  1  0  0  0  0
  2  1  1  0  0  0  0
  3  2  2  0  0  0  0
  4  3  1  0  0  0  0
  4  5  2  0  0  0  0
  5 23  1  0  0  0  0
  5  1  1  0  0  0  0
  6  3  1  0  0  0  0
  7  4  1  0  0  0  0
  8 14  1  0  0  0  0
  8 13  1  0  0  0  0
  9  8  2  0  0  0  0
 10  9  1  0  0  0  0
 10 11  2  0  0  0  0
 11 12  1  0  0  0  0
 12 13  2  0  0  0  0
 12 15  1  0  0  0  0
 16  9  1  0  0  0  0
 17 21  1  0  0  0  0
 17 16  1  0  0  0  0
 18 19  1  0  0  0  0
 18 17  2  0  0  0  0
 19 20  2  0  0  0  0
 20 16  1  0  0  0  0
 22 19  1  0  0  0  0
 23 24  1  1  0  0  0
 25 26  1  0  0  0  0
 25 28  1  0  0  0  0
 25 23  1  0  0  0  0
 27 25  1  0  0  0  0
 29 23  1  0  0  0  0
 29 32  1  0  0  0  0
 30 29  1  0  0  0  0
 31 29  1  0  0  0  0
 32 41  1  0  0  0  0
 32 33  1  0  0  0  0
 33 34  2  0  0  0  0
 35 36  1  0  0  0  0
 35 34  1  0  0  0  0
 36 37  1  0  0  0  0
 38 36  2  0  0  0  0
 39 38  1  0  0  0  0
 40 39  2  0  0  0  0
 40 41  1  0  0  0  0
 41 35  2  0  0  0  0
M  END
>  <minimizedAffinity>
-4.9000535

>  <minimizedRMSD>
1.80013204

$$$$
