
 OpenBabel03262519113D

 23 25  0  0  0  0  0  0  0  0999 V2000
   38.0490   25.5600   35.2950 C   0  0  0  0  0  0  0  0  0  0  0  0
   37.7250   26.8910   35.5590 C   0  0  0  0  0  0  0  0  0  0  0  0
   37.1960   27.6310   34.5630 C   0  0  0  0  0  0  0  0  0  0  0  0
   36.9980   27.0150   33.3070 C   0  0  0  0  0  0  0  0  0  0  0  0
   37.6090   25.2680   33.5700 S   0  0  0  0  0  0  0  0  0  0  0  0
   37.8940   27.3180   36.5370 H   0  0  0  0  0  0  0  0  0  0  0  0
   36.8900   28.6570   34.5800 H   0  0  0  0  0  0  0  0  0  0  0  0
   38.0790   24.3290   37.4840 C   0  0  0  0  0  0  0  0  0  0  0  0
   38.6150   24.6070   36.2030 C   0  0  0  0  0  0  0  0  0  0  0  0
   39.7490   23.9380   35.7820 C   0  0  0  0  0  0  0  0  0  0  0  0
   40.2760   23.0340   36.6630 N   0  0  0  0  0  0  0  0  0  0  0  0
   39.7530   22.7800   37.8780 C   0  0  0  0  0  0  0  0  0  0  0  0
   38.6670   23.4280   38.2690 N   0  0  0  0  0  0  0  0  0  0  0  0
   37.1760   24.8930   37.7620 H   0  0  0  0  0  0  0  0  0  0  0  0
   40.2040   24.1090   34.8150 H   0  0  0  0  0  0  0  0  0  0  0  0
   40.2130   22.0520   38.5340 H   0  0  0  0  0  0  0  0  0  0  0  0
   36.4940   27.4280   32.0650 C   0  0  0  0  0  0  0  0  0  0  0  0
   35.6480   26.7490   31.4670 O   0  0  0  0  0  0  0  0  0  0  0  0
   36.9480   28.6800   31.4250 C   0  0  0  0  0  0  0  0  0  0  0  0
   36.9640   28.6390   29.9310 C   0  0  0  0  0  0  0  0  0  0  0  0
   37.1270   30.1030   29.5590 C   0  0  0  0  0  0  0  0  0  0  0  0
   36.6630   30.8940   30.7830 C   0  0  0  0  0  0  0  0  0  0  0  0
   35.9930   29.8460   31.6700 C   0  0  0  0  0  0  0  0  0  0  0  0
  1  2  2  0  0  0  0
  1  9  1  0  0  0  0
  2  6  1  0  0  0  0
  3  7  1  0  0  0  0
  3  2  1  0  0  0  0
  4  5  1  0  0  0  0
  4  3  2  0  0  0  0
  5  1  1  0  0  0  0
  8 14  1  0  0  0  0
  8 13  1  0  0  0  0
  9  8  2  0  0  0  0
 10  9  1  0  0  0  0
 10 11  2  0  0  0  0
 11 12  1  0  0  0  0
 12 13  2  0  0  0  0
 12 16  1  0  0  0  0
 15 10  1  0  0  0  0
 17  4  1  0  0  0  0
 18 17  2  0  0  0  0
 19 23  1  0  0  0  0
 19 17  1  0  0  0  0
 20 19  1  0  0  0  0
 21 20  1  0  0  0  0
 21 22  1  0  0  0  0
 22 23  1  0  0  0  0
M  END
>  <minimizedAffinity>
-4.89006758

>  <minimizedRMSD>
0.210839838

$$$$
