
 OpenBabel03262518263D

 24 26  0  0  0  0  0  0  0  0999 V2000
   37.5470   24.8480   36.4890 O   0  0  0  0  0  0  0  0  0  0  0  0
   39.5890   22.6060   38.2690 N   0  0  0  0  0  0  0  0  0  0  0  0
   38.5820   23.4550   38.1720 N   0  0  0  0  0  0  0  0  0  0  0  0
   38.5310   23.9200   36.8850 C   0  0  0  0  0  0  0  0  0  0  0  0
   39.5450   23.3330   36.1680 C   0  0  0  0  0  0  0  0  0  0  0  0
   40.1900   22.5110   37.0770 C   0  0  0  0  0  0  0  0  0  0  0  0
   39.8790   22.0830   39.1430 H   0  0  0  0  0  0  0  0  0  0  0  0
   39.7380   23.5180   35.1300 H   0  0  0  0  0  0  0  0  0  0  0  0
   41.3170   21.6940   36.7790 N   0  0  0  0  0  0  0  0  0  0  0  0
   41.8960   21.5360   35.5640 C   0  0  0  0  0  0  0  0  0  0  0  0
   42.9600   20.6590   35.7140 C   0  0  0  0  0  0  0  0  0  0  0  0
   43.0160   20.2950   37.0190 N   0  0  0  0  0  0  0  0  0  0  0  0
   42.0140   20.9320   37.6430 C   0  0  0  0  0  0  0  0  0  0  0  0
   37.8860   26.0350   35.8730 C   0  0  0  0  0  0  0  0  0  0  0  0
   38.5720   26.9000   36.4580 O   0  0  0  0  0  0  0  0  0  0  0  0
   37.4370   26.2980   34.5060 C   0  0  0  0  0  0  0  0  0  0  0  0
   37.6020   25.2760   33.5600 C   0  0  0  0  0  0  0  0  0  0  0  0
   37.1740   25.5240   32.2470 C   0  0  0  0  0  0  0  0  0  0  0  0
   36.6290   26.7380   31.9930 N   0  0  0  0  0  0  0  0  0  0  0  0
   36.4840   27.6880   32.9080 C   0  0  0  0  0  0  0  0  0  0  0  0
   36.8790   27.4970   34.1770 N   0  0  0  0  0  0  0  0  0  0  0  0
   38.0500   24.3510   33.8790 H   0  0  0  0  0  0  0  0  0  0  0  0
   37.2980   24.7390   31.5090 H   0  0  0  0  0  0  0  0  0  0  0  0
   36.0420   28.6420   32.6520 H   0  0  0  0  0  0  0  0  0  0  0  0
  1  4  1  0  0  0  0
  2  7  1  0  0  0  0
  3  2  1  0  0  0  0
  4  3  2  0  0  0  0
  5  4  1  0  0  0  0
  5  6  2  0  0  0  0
  6  2  1  0  0  0  0
  8  5  1  0  0  0  0
  9  6  1  0  0  0  0
  9 13  1  0  0  0  0
 10 11  2  0  0  0  0
 10  9  1  0  0  0  0
 11 12  1  0  0  0  0
 12 13  2  0  0  0  0
 14 15  2  0  0  0  0
 14  1  1  0  0  0  0
 16 14  1  0  0  0  0
 17 22  1  0  0  0  0
 17 16  2  0  0  0  0
 18 17  1  0  0  0  0
 19 18  2  0  0  0  0
 19 20  1  0  0  0  0
 20 21  2  0  0  0  0
 21 16  1  0  0  0  0
 23 18  1  0  0  0  0
 24 20  1  0  0  0  0
M  END
>  <minimizedAffinity>
-4.78611088

>  <minimizedRMSD>
1.14592314

$$$$
