
 OpenBabel03262519593D

 31 34  0  0  1  0  0  0  0  0999 V2000
   38.6480   23.9800   34.3310 C   0  0  0  0  0  0  0  0  0  0  0  0
   38.0050   22.8330   34.7860 C   0  0  0  0  0  0  0  0  0  0  0  0
   38.7070   21.8170   34.1890 N   0  0  0  0  0  0  0  0  0  0  0  0
   39.6690   22.3670   33.4550 C   0  0  0  0  0  0  0  0  0  0  0  0
   39.6560   23.6920   33.5240 N   0  0  0  0  0  0  0  0  0  0  0  0
   37.1440   22.8440   35.4650 H   0  0  0  0  0  0  0  0  0  0  0  0
   40.3210   21.6780   32.9090 H   0  0  0  0  0  0  0  0  0  0  0  0
   38.2570   25.3350   34.6910 C   0  0  0  0  0  0  0  0  0  0  0  0
   37.3650   26.0480   33.8620 C   0  0  0  0  0  0  0  0  0  0  0  0
   37.0130   27.3580   34.2620 C   0  0  0  0  0  0  0  0  0  0  0  0
   37.5540   27.8390   35.4130 N   0  0  0  0  0  0  0  0  0  0  0  0
   38.4080   27.1150   36.1770 C   0  0  0  0  0  0  0  0  0  0  0  0
   38.7620   25.8680   35.8270 N   0  0  0  0  0  0  0  0  0  0  0  0
   36.9970   25.5710   32.9730 H   0  0  0  0  0  0  0  0  0  0  0  0
   36.3350   27.9110   33.6390 H   0  0  0  0  0  0  0  0  0  0  0  0
   38.7430   27.6430   37.0550 H   0  0  0  0  0  0  0  0  0  0  0  0
   40.5810   24.5110   32.8380 C   0  0  1  0  0  0  0  0  0  0  0  0
   41.2100   25.7060   33.3350 C   0  0  0  0  0  0  0  0  0  0  0  0
   42.0000   24.3640   33.2660 C   0  0  1  0  0  0  0  0  0  0  0  0
   40.4080   24.4970   31.7060 H   0  0  0  0  0  0  0  0  0  0  0  0
   41.5840   26.4980   32.6710 H   0  0  0  0  0  0  0  0  0  0  0  0
   40.9940   26.0470   34.3500 H   0  0  0  0  0  0  0  0  0  0  0  0
   42.5030   24.1200   34.6300 N   0  0  0  0  0  0  0  0  0  0  0  0
   43.3820   25.0630   35.0490 C   0  0  0  0  0  3  0  0  0  0  0  0
   43.7520   24.6830   36.3420 C   0  0  0  0  0  3  0  0  0  0  0  0
   43.0880   23.5550   36.6230 N   0  0  0  0  0  0  0  0  0  0  0  0
   42.3220   23.1960   35.5940 C   0  0  0  0  0  3  0  0  0  0  0  0
   43.0590   24.4160   32.1820 C   0  0  0  0  0  0  0  0  0  0  0  0
   43.9760   23.4000   32.3740 F   0  0  0  0  0  0  0  0  0  0  0  0
   42.4260   24.0760   30.9170 F   0  0  0  0  0  0  0  0  0  0  0  0
   43.6100   25.6270   32.0150 F   0  0  0  0  0  0  0  0  0  0  0  0
  1  8  1  0  0  0  0
  1  2  2  0  0  0  0
  2  6  1  0  0  0  0
  3  2  1  0  0  0  0
  4  5  1  0  0  0  0
  4  3  2  0  0  0  0
  5  1  1  0  0  0  0
  7  4  1  0  0  0  0
  8 13  1  0  0  0  0
  9 10  1  0  0  0  0
  9  8  2  0  0  0  0
 10 11  2  0  0  0  0
 11 12  1  0  0  0  0
 12 16  1  0  0  0  0
 13 12  2  0  0  0  0
 14  9  1  0  0  0  0
 15 10  1  0  0  0  0
 17 20  1  6  0  0  0
 17 19  1  0  0  0  0
 17 18  1  0  0  0  0
 17  5  1  0  0  0  0
 18 22  1  0  0  0  0
 19 28  1  6  0  0  0
 19 18  1  0  0  0  0
 19 23  1  0  0  0  0
 21 18  1  0  0  0  0
 23 24  1  0  0  0  0
 23 27  1  0  0  0  0
 24 25  2  0  0  0  0
 25 26  1  0  0  0  0
 27 26  2  0  0  0  0
 28 29  1  0  0  0  0
 30 28  1  0  0  0  0
 31 28  1  0  0  0  0
M  END
>  <minimizedAffinity>
-3.50287962

>  <minimizedRMSD>
5.80368042

$$$$
