
 OpenBabel03262519033D

 39 42  0  0  0  0  0  0  0  0999 V2000
   37.9180   26.8020   34.9270 C   0  0  0  0  0  0  0  0  0  0  0  0
   37.2740   27.0170   35.7780 H   0  0  0  0  0  0  0  0  0  0  0  0
   38.6650   27.6640   34.9490 H   0  0  0  0  0  0  0  0  0  0  0  0
   38.7670   25.6140   35.0130 C   0  0  0  0  0  0  0  0  0  0  0  0
   39.6080   25.2630   33.9590 C   0  0  0  0  0  0  0  0  0  0  0  0
   40.4130   24.1570   34.0430 C   0  0  0  0  0  0  0  0  0  0  0  0
   40.4160   23.3510   35.1780 C   0  0  0  0  0  0  0  0  0  0  0  0
   39.5750   23.6980   36.2350 C   0  0  0  0  0  0  0  0  0  0  0  0
   39.5620   22.9170   37.3650 C   0  0  0  0  0  0  0  0  0  0  0  0
   38.7510   23.2170   38.4350 C   0  0  0  0  0  0  0  0  0  0  0  0
   37.9290   24.3390   38.3560 C   0  0  0  0  0  0  0  0  0  0  0  0
   37.9710   25.1040   37.1960 C   0  0  0  0  0  0  0  0  0  0  0  0
   38.7740   24.8250   36.1130 C   0  0  0  0  0  0  0  0  0  0  0  0
   39.6530   25.8450   33.0520 H   0  0  0  0  0  0  0  0  0  0  0  0
   41.0920   23.8280   33.2600 H   0  0  0  0  0  0  0  0  0  0  0  0
   41.0250   22.4700   35.3060 H   0  0  0  0  0  0  0  0  0  0  0  0
   40.1840   22.0340   37.4720 H   0  0  0  0  0  0  0  0  0  0  0  0
   38.7470   22.5980   39.3190 H   0  0  0  0  0  0  0  0  0  0  0  0
   37.2930   24.5700   39.1980 H   0  0  0  0  0  0  0  0  0  0  0  0
   37.2980   25.9470   37.2330 H   0  0  0  0  0  0  0  0  0  0  0  0
   36.7190   28.4370   31.8800 C   0  0  0  0  0  0  0  0  0  0  0  0
   36.1140   27.4230   31.1480 C   0  0  0  0  0  0  0  0  0  0  0  0
   36.1140   26.1370   31.7190 C   0  0  0  0  0  0  0  0  0  0  0  0
   36.6980   25.9580   32.9420 N   0  0  0  0  0  0  0  0  0  0  0  0
   37.2620   26.9620   33.5960 C   0  0  0  0  0  0  0  0  0  0  0  0
   37.2770   28.2050   33.0750 N   0  0  0  0  0  0  0  0  0  0  0  0
   36.7620   29.4570   31.5100 H   0  0  0  0  0  0  0  0  0  0  0  0
   35.6770   27.6280   30.2020 H   0  0  0  0  0  0  0  0  0  0  0  0
   35.5090   25.0370   31.0090 C   0  0  0  0  0  0  0  0  0  0  0  0
   34.4420   25.1870   30.3930 O   0  0  0  0  0  0  0  0  0  0  0  0
   36.2000   23.7330   31.0410 C   0  0  0  0  0  0  0  0  0  0  0  0
   37.5370   23.5970   30.6790 C   0  0  0  0  0  0  0  0  0  0  0  0
   38.0910   24.4690   30.3630 H   0  0  0  0  0  0  0  0  0  0  0  0
   38.1680   22.3650   30.7160 C   0  0  0  0  0  0  0  0  0  0  0  0
   37.4800   21.2360   31.1170 C   0  0  0  0  0  0  0  0  0  0  0  0
   37.9470   20.2460   31.1590 H   0  0  0  0  0  0  0  0  0  0  0  0
   36.1360   21.3340   31.4870 C   0  0  0  0  0  0  0  0  0  0  0  0
   35.5920   20.4440   31.8040 H   0  0  0  0  0  0  0  0  0  0  0  0
   35.5650   22.5890   31.4290 C   0  0  0  0  0  0  0  0  0  0  0  0
  1  3  1  0  0  0  0
  1  4  1  0  0  0  0
  1  2  1  0  0  0  0
  4 13  1  0  0  0  0
  5  6  1  0  0  0  0
  5  4  2  0  0  0  0
  6  7  2  0  0  0  0
  7 16  1  0  0  0  0
  7  8  1  0  0  0  0
  8  9  1  0  0  0  0
  9 17  1  0  0  0  0
  9 10  2  0  0  0  0
 10 18  1  0  0  0  0
 11 10  1  0  0  0  0
 11 19  1  0  0  0  0
 12 20  1  0  0  0  0
 12 11  2  0  0  0  0
 13  8  2  0  0  0  0
 13 12  1  0  0  0  0
 14  5  1  0  0  0  0
 15  6  1  0  0  0  0
 21 26  1  0  0  0  0
 22 23  1  0  0  0  0
 22 21  2  0  0  0  0
 23 24  2  0  0  0  0
 24 25  1  0  0  0  0
 25  1  1  0  0  0  0
 26 25  2  0  0  0  0
 27 21  1  0  0  0  0
 28 22  1  0  0  0  0
 29 31  1  0  0  0  0
 29 23  1  0  0  0  0
 30 29  2  0  0  0  0
 31 39  1  0  0  0  0
 32 34  1  0  0  0  0
 32 31  2  0  0  0  0
 33 32  1  0  0  0  0
 34 35  2  0  0  0  0
 35 36  1  0  0  0  0
 35 37  1  0  0  0  0
 37 38  1  0  0  0  0
 39 37  2  0  0  0  0
M  END
>  <minimizedAffinity>
-6.44594193

>  <minimizedRMSD>
2.62326169

$$$$
