
     RDKit          3D

 31 34  0  0  0  0  0  0  0  0999 V2000
   38.0266   23.4678   34.6174 C   0  0  0  0  0  0  0  0  0  0  0  0
   38.2659   24.5683   33.7984 C   0  0  0  0  0  0  0  0  0  0  0  0
   37.7695   24.1847   32.5843 N   0  0  0  0  0  0  0  0  0  0  0  0
   37.2831   22.9500   32.7119 C   0  0  0  0  0  0  0  0  0  0  0  0
   37.4289   22.4760   33.9686 N   0  0  0  0  0  0  0  0  0  0  0  0
   38.3872   23.4005   36.0302 C   0  0  0  0  0  0  0  0  0  0  0  0
   39.5915   22.8021   36.4307 C   0  0  0  0  0  0  0  0  0  0  0  0
   39.8979   22.7593   37.7977 C   0  0  0  0  0  0  0  0  0  0  0  0
   39.0212   23.2941   38.6551 N   0  0  0  0  0  0  0  0  0  0  0  0
   37.8595   23.8699   38.2531 C   0  0  0  0  0  0  0  0  0  0  0  0
   37.5314   23.9288   36.9389 N   0  0  0  0  0  0  0  0  0  0  0  0
   37.0003   21.1808   34.3991 C   0  0  1  0  0  0  0  0  0  0  0  0
   35.8469   20.9555   35.2502 C   0  0  0  0  0  0  0  0  0  0  0  0
   35.6650   20.7672   33.7683 C   0  0  2  0  0  0  0  0  0  0  0  0
   38.7247   25.5102   34.0194 H   0  0  0  0  0  0  0  0  0  0  0  0
   36.8176   22.3841   31.8897 H   0  0  0  0  0  0  0  0  0  0  0  0
   40.2143   22.4059   35.6336 H   0  0  0  0  0  0  0  0  0  0  0  0
   40.8329   22.2918   38.0746 H   0  0  0  0  0  0  0  0  0  0  0  0
   37.2107   24.2781   39.0307 H   0  0  0  0  0  0  0  0  0  0  0  0
   37.8221   20.4299   34.4063 H   0  0  0  0  0  0  0  0  0  0  0  0
   35.3284   21.8636   35.6724 H   0  0  0  0  0  0  0  0  0  0  0  0
   35.8156   20.1040   35.9507 H   0  0  0  0  0  0  0  0  0  0  0  0
   35.0855   21.5041   33.1896 H   0  0  0  0  0  0  0  0  0  0  0  0
   35.6191   19.3828   33.3435 N   0  0  0  0  0  0  0  0  0  0  0  0
   36.4511   18.8394   32.4308 C   0  0  0  0  0  0  0  0  0  0  0  0
   36.1380   17.5034   32.2567 C   0  0  0  0  0  0  0  0  0  0  0  0
   35.1002   17.2883   33.0952 N   0  0  0  0  0  0  0  0  0  0  0  0
   34.7821   18.4151   33.7529 C   0  0  0  0  0  0  0  0  0  0  0  0
   37.2478   19.4010   31.9203 H   0  0  0  0  0  0  0  0  0  0  0  0
   36.6803   16.8690   31.5677 H   0  0  0  0  0  0  0  0  0  0  0  0
   33.9825   18.5236   34.4910 H   0  0  0  0  0  0  0  0  0  0  0  0
  1  6  1  0
  2  1  2  0
  3  4  2  0
  3  2  1  0
  4  5  1  0
  5 12  1  0
  5  1  1  0
  6  7  2  0
  6 11  1  0
  7  8  1  0
  8  9  2  0
 10  9  1  0
 11 10  2  0
 12 13  1  0
 14 12  1  0
 14 13  1  0
  2 15  1  0
  4 16  1  0
  7 17  1  0
  8 18  1  0
 10 19  1  0
 12 20  1  1
 13 21  1  0
 13 22  1  0
 14 23  1  6
 24 25  1  0
 25 26  2  0
 26 27  1  0
 27 28  2  0
 28 24  1  0
 25 29  1  0
 26 30  1  0
 28 31  1  0
 14 24  1  0
M  ISO  8  15  14  16  14  17  14  18  14  19  14  20  13  21  13  22  13
M  ISO  1  23  13
M  END
>  <DihAtoms>  (1) 
11,13,23,24

>  <DihDeg>  (1) 
30.11858648056954

$$$$
