REMARK  Name = 
REMARK  3 active torsions:
REMARK  status: ('A' for Active; 'I' for Inactive)
REMARK    1  A    between atoms: C_1  and  C_6
REMARK    2  A    between atoms: N_5  and  C_12
REMARK    3  A    between atoms: C_14  and  N_24
REMARK                            x       y       z     vdW  Elec       q    Type
REMARK                         _______ _______ _______ _____ _____    ______ ____
ROOT
ATOM      1  C   UNL     1      38.027  23.468  34.617  0.00  0.00    +0.000 A 
ATOM      2  C   UNL     1      38.266  24.568  33.798  0.00  0.00    +0.000 A 
ATOM      3  N   UNL     1      37.770  24.185  32.584  0.00  0.00    +0.000 NA
ATOM      4  C   UNL     1      37.283  22.950  32.712  0.00  0.00    +0.000 A 
ATOM      5  N   UNL     1      37.429  22.476  33.969  0.00  0.00    +0.000 N 
ATOM      6  H   UNL     1      38.725  25.510  34.019  0.00  0.00    +0.000 HD
ATOM      7  H   UNL     1      36.818  22.384  31.890  0.00  0.00    +0.000 HD
ENDROOT
BRANCH   1   8
ATOM      8  C   UNL     1      38.387  23.401  36.030  0.00  0.00    +0.000 A 
ATOM      9  C   UNL     1      39.592  22.802  36.431  0.00  0.00    +0.000 A 
ATOM     10  C   UNL     1      39.898  22.759  37.798  0.00  0.00    +0.000 A 
ATOM     11  N   UNL     1      39.021  23.294  38.655  0.00  0.00    +0.000 NA
ATOM     12  C   UNL     1      37.859  23.870  38.253  0.00  0.00    +0.000 A 
ATOM     13  N   UNL     1      37.531  23.929  36.939  0.00  0.00    +0.000 NA
ATOM     14  H   UNL     1      40.214  22.406  35.634  0.00  0.00    +0.000 HD
ATOM     15  H   UNL     1      40.833  22.292  38.075  0.00  0.00    +0.000 HD
ATOM     16  H   UNL     1      37.211  24.278  39.031  0.00  0.00    +0.000 HD
ENDBRANCH   1   8
BRANCH   5  17
ATOM     17  C   UNL     1      37.000  21.181  34.399  0.00  0.00    +0.000 C 
ATOM     18  C   UNL     1      35.847  20.956  35.250  0.00  0.00    +0.000 C 
ATOM     19  C   UNL     1      35.665  20.767  33.768  0.00  0.00    +0.000 C 
ATOM     20  H   UNL     1      37.822  20.430  34.406  0.00  0.00    +0.000 HD
ATOM     21  H   UNL     1      35.328  21.864  35.672  0.00  0.00    +0.000 HD
ATOM     22  H   UNL     1      35.816  20.104  35.951  0.00  0.00    +0.000 HD
ATOM     23  H   UNL     1      35.086  21.504  33.190  0.00  0.00    +0.000 HD
BRANCH  19  24
ATOM     24  N   UNL     1      35.619  19.383  33.343  0.00  0.00    +0.000 N 
ATOM     25  C   UNL     1      36.606  18.763  32.664  0.00  0.00    +0.000 A 
ATOM     26  C   UNL     1      36.244  17.451  32.416  0.00  0.00    +0.000 A 
ATOM     27  N   UNL     1      35.018  17.329  32.972  0.00  0.00    +0.000 NA
ATOM     28  C   UNL     1      34.635  18.488  33.532  0.00  0.00    +0.000 A 
ENDBRANCH  19  24
ENDBRANCH   5  17
TORSDOF 3
