
 OpenBabel03262519383D

 32 34  0  0  1  0  0  0  0  0999 V2000
   37.8340   25.4320   34.2230 N   0  0  0  0  0  0  0  0  0  0  0  0
   37.0550   25.2260   33.0350 C   0  0  0  0  0  0  0  0  0  0  0  0
   36.7780   26.5910   32.4890 C   0  0  0  0  0  0  0  0  0  0  0  0
   37.4950   27.5390   33.4410 C   0  0  0  0  0  0  0  0  0  0  0  0
   38.6290   26.5870   33.9010 C   0  0  2  0  0  0  0  0  0  0  0  0
   37.7180   24.7160   32.2860 H   0  0  0  0  0  0  0  0  0  0  0  0
   36.1590   24.6160   33.1640 H   0  0  0  0  0  0  0  0  0  0  0  0
   37.1460   26.7320   31.4540 H   0  0  0  0  0  0  0  0  0  0  0  0
   35.6910   26.8050   32.5720 H   0  0  0  0  0  0  0  0  0  0  0  0
   36.8710   27.8400   34.2870 H   0  0  0  0  0  0  0  0  0  0  0  0
   38.0040   28.3680   32.9150 H   0  0  0  0  0  0  0  0  0  0  0  0
   39.0890   26.9730   34.8230 H   0  0  0  0  0  0  0  0  0  0  0  0
   38.7630   24.3740   34.5020 C   0  0  0  0  0  0  0  0  0  0  0  0
   39.7770   24.5320   34.1160 H   0  0  0  0  0  0  0  0  0  0  0  0
   38.3740   23.4560   33.9760 H   0  0  0  0  0  0  0  0  0  0  0  0
   37.9140   24.1940   38.1900 C   0  0  0  0  0  0  0  0  0  0  0  0
   37.8510   24.5530   36.8510 C   0  0  0  0  0  0  0  0  0  0  0  0
   38.7890   24.0200   35.9500 C   0  0  0  0  0  0  0  0  0  0  0  0
   39.7250   23.1620   36.4670 N   0  0  0  0  0  0  0  0  0  0  0  0
   39.7530   22.8390   37.7740 C   0  0  0  0  0  0  0  0  0  0  0  0
   38.8550   23.3520   38.6200 N   0  0  0  0  0  0  0  0  0  0  0  0
   37.2100   24.5840   38.9120 H   0  0  0  0  0  0  0  0  0  0  0  0
   37.0920   25.2360   36.4830 H   0  0  0  0  0  0  0  0  0  0  0  0
   40.5360   22.1480   38.0920 H   0  0  0  0  0  0  0  0  0  0  0  0
   39.5440   26.3900   32.9140 O   0  0  0  0  0  0  0  0  0  0  0  0
   43.4180   27.5790   34.8280 H   0  0  0  0  0  0  0  0  0  0  0  0
   42.6980   27.4220   34.0680 N   0  0  0  0  0  0  0  0  0  0  0  0
   41.4790   26.9310   34.2070 N   0  0  0  0  0  0  0  0  0  0  0  0
   40.8420   26.8730   33.0260 C   0  0  0  0  0  0  0  0  0  0  0  0
   41.7070   27.3600   32.0510 C   0  0  0  0  0  0  0  0  0  0  0  0
   42.8510   27.6880   32.7580 C   0  0  0  0  0  0  0  0  0  0  0  0
   43.7200   28.1020   32.2570 H   0  0  0  0  0  0  0  0  0  0  0  0
  1 13  1  0  0  0  0
  2  7  1  0  0  0  0
  2  1  1  0  0  0  0
  3  9  1  0  0  0  0
  3  2  1  0  0  0  0
  3  4  1  0  0  0  0
  4  5  1  0  0  0  0
  4 10  1  0  0  0  0
  5  1  1  0  0  0  0
  5 12  1  1  0  0  0
  6  2  1  0  0  0  0
  8  3  1  0  0  0  0
 11  4  1  0  0  0  0
 13 18  1  0  0  0  0
 14 13  1  0  0  0  0
 15 13  1  0  0  0  0
 16 21  1  0  0  0  0
 16 22  1  0  0  0  0
 17 16  2  0  0  0  0
 18 19  2  0  0  0  0
 18 17  1  0  0  0  0
 19 20  1  0  0  0  0
 20 24  1  0  0  0  0
 20 21  2  0  0  0  0
 23 17  1  0  0  0  0
 25 29  1  0  0  0  0
 25  5  1  0  0  0  0
 27 28  1  0  0  0  0
 27 26  1  0  0  0  0
 29 28  2  0  0  0  0
 30 31  2  0  0  0  0
 30 29  1  0  0  0  0
 31 27  1  0  0  0  0
 32 31  1  0  0  0  0
M  END
>  <minimizedAffinity>
-4.31533813

>  <minimizedRMSD>
0.952114999

$$$$
