
 OpenBabel03262519593D

 31 34  0  0  1  0  0  0  0  0999 V2000
   38.3190   22.8150   34.6140 C   0  0  0  0  0  0  0  0  0  0  0  0
   37.3620   21.9220   34.1420 C   0  0  0  0  0  0  0  0  0  0  0  0
   37.5060   21.9930   32.7790 N   0  0  0  0  0  0  0  0  0  0  0  0
   38.4730   22.8660   32.5200 C   0  0  0  0  0  0  0  0  0  0  0  0
   38.9900   23.3850   33.6270 N   0  0  0  0  0  0  0  0  0  0  0  0
   36.6950   21.3410   34.7910 H   0  0  0  0  0  0  0  0  0  0  0  0
   38.7090   23.0360   31.4650 H   0  0  0  0  0  0  0  0  0  0  0  0
   38.5500   23.0960   36.0230 C   0  0  0  0  0  0  0  0  0  0  0  0
   37.6990   23.9900   36.7070 C   0  0  0  0  0  0  0  0  0  0  0  0
   37.9640   24.2220   38.0760 C   0  0  0  0  0  0  0  0  0  0  0  0
   39.0170   23.5720   38.6390 N   0  0  0  0  0  0  0  0  0  0  0  0
   39.8090   22.7220   37.9410 C   0  0  0  0  0  0  0  0  0  0  0  0
   39.5840   22.4780   36.6390 N   0  0  0  0  0  0  0  0  0  0  0  0
   36.8940   24.4490   36.1640 H   0  0  0  0  0  0  0  0  0  0  0  0
   37.3230   24.9000   38.6070 H   0  0  0  0  0  0  0  0  0  0  0  0
   40.5970   22.2910   38.5360 H   0  0  0  0  0  0  0  0  0  0  0  0
   40.0370   24.3340   33.6210 C   0  0  1  0  0  0  0  0  0  0  0  0
   40.3920   25.2200   32.5440 C   0  0  0  0  0  0  0  0  0  0  0  0
   39.6110   25.7520   33.7840 C   0  0  1  0  0  0  0  0  0  0  0  0
   40.9140   24.0080   34.2800 H   0  0  0  0  0  0  0  0  0  0  0  0
   41.4040   25.6300   32.4230 H   0  0  0  0  0  0  0  0  0  0  0  0
   39.8090   25.2060   31.6200 H   0  0  0  0  0  0  0  0  0  0  0  0
   38.3910   26.3870   33.2530 N   0  0  0  0  0  0  0  0  0  0  0  0
   38.6520   27.3600   32.3450 C   0  0  0  0  0  3  0  0  0  0  0  0
   37.4030   27.8490   31.9520 C   0  0  0  0  0  3  0  0  0  0  0  0
   36.4800   27.1560   32.6320 N   0  0  0  0  0  0  0  0  0  0  0  0
   37.0610   26.2620   33.4300 C   0  0  0  0  0  3  0  0  0  0  0  0
   40.4920   26.6460   34.6340 C   0  0  0  0  0  0  0  0  0  0  0  0
   39.7340   27.2570   35.6130 F   0  0  0  0  0  0  0  0  0  0  0  0
   41.4060   25.7970   35.3840 F   0  0  0  0  0  0  0  0  0  0  0  0
   41.2570   27.4910   33.9270 F   0  0  0  0  0  0  0  0  0  0  0  0
  1  8  1  0  0  0  0
  2  1  2  0  0  0  0
  2  6  1  0  0  0  0
  3  2  1  0  0  0  0
  4  3  2  0  0  0  0
  4  5  1  0  0  0  0
  5  1  1  0  0  0  0
  7  4  1  0  0  0  0
  8 13  2  0  0  0  0
  8  9  1  0  0  0  0
  9 10  2  0  0  0  0
 10 15  1  0  0  0  0
 10 11  1  0  0  0  0
 12 16  1  0  0  0  0
 12 11  2  0  0  0  0
 13 12  1  0  0  0  0
 14  9  1  0  0  0  0
 17  5  1  0  0  0  0
 17 19  1  0  0  0  0
 17 20  1  1  0  0  0
 18 17  1  0  0  0  0
 18 19  1  0  0  0  0
 19 28  1  1  0  0  0
 21 18  1  0  0  0  0
 22 18  1  0  0  0  0
 23 27  1  0  0  0  0
 23 19  1  0  0  0  0
 24 23  1  0  0  0  0
 25 24  2  0  0  0  0
 25 26  1  0  0  0  0
 26 27  2  0  0  0  0
 28 30  1  0  0  0  0
 28 29  1  0  0  0  0
 31 28  1  0  0  0  0
M  END
>  <minimizedAffinity>
-5.08801174

>  <minimizedRMSD>
5.06194735

$$$$
