
 OpenBabel03262519553D

 28 31  0  0  1  0  0  0  0  0999 V2000
   38.1720   23.8760   34.4690 C   0  0  0  0  0  0  0  0  0  0  0  0
   38.3690   25.1020   33.8400 C   0  0  0  0  0  0  0  0  0  0  0  0
   37.9590   24.8800   32.5560 N   0  0  0  0  0  0  0  0  0  0  0  0
   37.5570   23.6110   32.4680 C   0  0  0  0  0  0  0  0  0  0  0  0
   37.6780   22.9590   33.6450 N   0  0  0  0  0  0  0  0  0  0  0  0
   38.7470   26.0260   34.2270 H   0  0  0  0  0  0  0  0  0  0  0  0
   37.1730   23.1500   31.5450 H   0  0  0  0  0  0  0  0  0  0  0  0
   38.4700   23.6150   35.8740 C   0  0  0  0  0  0  0  0  0  0  0  0
   39.6850   23.0190   36.2460 C   0  0  0  0  0  0  0  0  0  0  0  0
   39.9300   22.7860   37.6060 C   0  0  0  0  0  0  0  0  0  0  0  0
   38.9870   23.1450   38.4850 N   0  0  0  0  0  0  0  0  0  0  0  0
   37.8150   23.7200   38.1100 C   0  0  0  0  0  0  0  0  0  0  0  0
   37.5450   23.9600   36.8030 N   0  0  0  0  0  0  0  0  0  0  0  0
   40.3640   22.7760   35.4340 H   0  0  0  0  0  0  0  0  0  0  0  0
   40.8750   22.3270   37.8610 H   0  0  0  0  0  0  0  0  0  0  0  0
   37.1110   23.9760   38.9040 H   0  0  0  0  0  0  0  0  0  0  0  0
   37.3250   21.5880   33.8500 C   0  0  1  0  0  0  0  0  0  0  0  0
   36.1970   21.1590   34.6550 C   0  0  0  0  0  0  0  0  0  0  0  0
   36.0050   21.2150   33.1630 C   0  0  2  0  0  0  0  0  0  0  0  0
   38.1860   20.8930   33.7250 H   0  0  0  0  0  0  0  0  0  0  0  0
   35.6360   21.9520   35.2280 H   0  0  0  0  0  0  0  0  0  0  0  0
   36.2210   20.2000   35.2000 H   0  0  0  0  0  0  0  0  0  0  0  0
   35.3800   22.0070   32.7220 H   0  0  0  0  0  0  0  0  0  0  0  0
   36.0270   19.9230   32.5090 N   0  0  0  0  0  0  0  0  0  0  0  0
   36.6660   19.6700   31.3480 C   0  0  0  0  0  3  0  0  0  0  0  0
   36.4890   18.3430   31.0020 C   0  0  0  0  0  3  0  0  0  0  0  0
   35.7280   17.8340   31.9960 N   0  0  0  0  0  0  0  0  0  0  0  0
   35.4470   18.7800   32.9080 C   0  0  0  0  0  3  0  0  0  0  0  0
  1  8  1  0  0  0  0
  2  6  1  0  0  0  0
  2  1  2  0  0  0  0
  3  2  1  0  0  0  0
  4  3  2  0  0  0  0
  4  5  1  0  0  0  0
  5 17  1  0  0  0  0
  5  1  1  0  0  0  0
  7  4  1  0  0  0  0
  8  9  2  0  0  0  0
  8 13  1  0  0  0  0
  9 10  1  0  0  0  0
 10 15  1  0  0  0  0
 10 11  2  0  0  0  0
 12 11  1  0  0  0  0
 12 16  1  0  0  0  0
 13 12  2  0  0  0  0
 14  9  1  0  0  0  0
 17 20  1  6  0  0  0
 17 18  1  0  0  0  0
 18 22  1  0  0  0  0
 18 21  1  0  0  0  0
 19 23  1  6  0  0  0
 19 17  1  0  0  0  0
 19 18  1  0  0  0  0
 24 28  1  0  0  0  0
 24 19  1  0  0  0  0
 25 24  1  0  0  0  0
 26 25  2  0  0  0  0
 26 27  1  0  0  0  0
 27 28  2  0  0  0  0
M  END
>  <minimizedAffinity>
-4.50592422

>  <minimizedRMSD>
0.922767937

$$$$
