
 OpenBabel03262519283D

 29 32  0  0  0  0  0  0  0  0999 V2000
   41.8510   22.0850   36.8180 C   0  0  0  0  0  0  0  0  0  0  0  0
   42.3960   23.2130   36.2520 C   0  0  0  0  0  0  0  0  0  0  0  0
   43.6640   22.9970   35.8430 N   0  0  0  0  0  0  0  0  0  0  0  0
   43.9940   21.7110   36.1310 C   0  0  0  0  0  0  0  0  0  0  0  0
   45.1530   20.9800   35.9280 C   0  0  0  0  0  0  0  0  0  0  0  0
   45.1960   19.6460   36.3390 C   0  0  0  0  0  0  0  0  0  0  0  0
   44.0840   19.0710   36.9420 C   0  0  0  0  0  0  0  0  0  0  0  0
   42.9400   19.8290   37.1310 C   0  0  0  0  0  0  0  0  0  0  0  0
   42.8800   21.1540   36.7290 C   0  0  0  0  0  0  0  0  0  0  0  0
   41.9020   24.1830   36.1270 H   0  0  0  0  0  0  0  0  0  0  0  0
   44.2800   23.7080   35.3830 H   0  0  0  0  0  0  0  0  0  0  0  0
   46.0050   21.4710   35.4500 H   0  0  0  0  0  0  0  0  0  0  0  0
   46.0950   19.0790   36.1820 H   0  0  0  0  0  0  0  0  0  0  0  0
   44.0770   18.0370   37.2760 H   0  0  0  0  0  0  0  0  0  0  0  0
   42.0550   19.3990   37.6010 H   0  0  0  0  0  0  0  0  0  0  0  0
   40.5900   21.9510   37.3350 O   0  0  0  0  0  0  0  0  0  0  0  0
   39.6110   22.9110   37.3370 C   0  0  0  0  0  0  0  0  0  0  0  0
   39.0530   23.2350   38.5750 C   0  0  0  0  0  0  0  0  0  0  0  0
   38.0440   24.2250   38.5730 C   0  0  0  0  0  0  0  0  0  0  0  0
   37.6770   24.7970   37.3960 N   0  0  0  0  0  0  0  0  0  0  0  0
   38.2580   24.4380   36.2330 C   0  0  0  0  0  0  0  0  0  0  0  0
   39.2110   23.5090   36.2060 N   0  0  0  0  0  0  0  0  0  0  0  0
   39.3030   22.8170   39.5290 H   0  0  0  0  0  0  0  0  0  0  0  0
   37.5670   24.5280   39.4880 H   0  0  0  0  0  0  0  0  0  0  0  0
   37.9290   24.9900   34.9640 N   0  0  0  0  0  0  0  0  0  0  0  0
   38.0490   24.5950   33.6830 C   0  0  0  0  0  0  0  0  0  0  0  0
   37.5230   25.6190   32.9240 C   0  0  0  0  0  0  0  0  0  0  0  0
   37.0880   26.6200   33.7320 N   0  0  0  0  0  0  0  0  0  0  0  0
   37.3510   26.2070   34.9870 C   0  0  0  0  0  0  0  0  0  0  0  0
  1 16  1  0  0  0  0
  2  1  2  0  0  0  0
  3  4  1  0  0  0  0
  3  2  1  0  0  0  0
  4  9  1  0  0  0  0
  5  4  2  0  0  0  0
  5  6  1  0  0  0  0
  6  7  2  0  0  0  0
  7  8  1  0  0  0  0
  7 14  1  0  0  0  0
  8 15  1  0  0  0  0
  9  1  1  0  0  0  0
  9  8  2  0  0  0  0
 10  2  1  0  0  0  0
 11  3  1  0  0  0  0
 12  5  1  0  0  0  0
 13  6  1  0  0  0  0
 16 17  1  0  0  0  0
 17 18  1  0  0  0  0
 18 23  1  0  0  0  0
 19 18  2  0  0  0  0
 19 24  1  0  0  0  0
 20 19  1  0  0  0  0
 21 20  2  0  0  0  0
 22 21  1  0  0  0  0
 22 17  2  0  0  0  0
 25 29  1  0  0  0  0
 25 21  1  0  0  0  0
 26 25  1  0  0  0  0
 27 26  2  0  0  0  0
 27 28  1  0  0  0  0
 28 29  2  0  0  0  0
M  END
>  <minimizedAffinity>
-5.29506731

>  <minimizedRMSD>
1.06524181

$$$$
