
 OpenBabel03262519473D

 42 45  0  0  1  0  0  0  0  0999 V2000
   37.3290   25.7210   32.8430 N   0  0  0  0  0  0  0  0  0  0  0  0
   36.8030   24.5960   32.3470 C   0  0  0  0  0  0  0  0  0  0  0  0
   35.7900   24.8020   31.4410 C   0  0  0  0  0  0  0  0  0  0  0  0
   35.6830   26.1310   31.3710 N   0  0  0  0  0  0  0  0  0  0  0  0
   36.6030   26.6820   32.2100 C   0  0  0  0  0  0  0  0  0  0  0  0
   37.1720   23.6040   32.6580 H   0  0  0  0  0  0  0  0  0  0  0  0
   35.2610   23.9730   30.9470 H   0  0  0  0  0  0  0  0  0  0  0  0
   36.7180   28.1900   32.3010 C   0  0  1  0  0  0  0  0  0  0  0  0
   36.1800   28.9620   31.1590 C   0  0  0  0  0  0  0  0  0  0  0  0
   35.4100   28.9470   32.4500 C   0  0  2  0  0  0  0  0  0  0  0  0
   37.5470   28.4690   32.9500 H   0  0  0  0  0  0  0  0  0  0  0  0
   36.6620   29.8800   30.7820 H   0  0  0  0  0  0  0  0  0  0  0  0
   35.7080   28.3780   30.3410 H   0  0  0  0  0  0  0  0  0  0  0  0
   34.5240   28.3200   32.5310 H   0  0  0  0  0  0  0  0  0  0  0  0
   35.3560   30.1320   33.2740 N   0  0  0  0  0  0  0  0  0  0  0  0
   36.0270   31.2680   32.9650 C   0  0  0  0  0  3  0  0  0  0  0  0
   35.9840   32.4070   33.7440 C   0  0  0  0  0  0  0  0  0  0  0  0
   36.7270   33.6430   33.3860 C   0  0  0  0  0  1  0  0  0  0  0  0
   35.2240   32.4180   34.9060 C   0  0  0  0  0  0  0  0  0  0  0  0
   35.1810   33.4530   35.6200 O   0  0  0  0  0  0  0  0  0  0  0  0
   34.5610   31.2830   35.2040 N   0  0  0  0  0  0  0  0  0  0  0  0
   34.6450   30.2070   34.4020 C   0  0  0  0  0  0  0  0  0  0  0  0
   33.9840   29.2360   34.8010 O   0  0  0  0  0  0  0  0  0  0  0  0
   34.0000   31.3180   36.0800 H   0  0  0  0  0  0  0  0  0  0  0  0
   38.3410   26.0230   33.7760 C   0  0  0  0  0  0  0  0  0  0  0  0
   38.8300   27.0080   33.5210 H   0  0  0  0  0  0  0  0  0  0  0  0
   39.1850   25.2790   33.7140 H   0  0  0  0  0  0  0  0  0  0  0  0
   37.8690   26.0470   35.1830 C   0  0  1  0  0  0  0  0  0  0  0  0
   36.7570   25.9730   35.2180 H   0  0  0  0  0  0  0  0  0  0  0  0
   38.4550   23.5820   37.9960 C   0  0  0  0  0  0  0  0  0  0  0  0
   37.8680   24.6370   37.2900 C   0  0  0  0  0  0  0  0  0  0  0  0
   38.4280   24.9590   36.0090 C   0  0  0  0  0  0  0  0  0  0  0  0
   39.5050   24.2240   35.5370 N   0  0  0  0  0  0  0  0  0  0  0  0
   40.0260   23.2280   36.2490 C   0  0  0  0  0  0  0  0  0  0  0  0
   39.5050   22.9010   37.4810 N   0  0  0  0  0  0  0  0  0  0  0  0
   38.0150   23.3630   38.9520 H   0  0  0  0  0  0  0  0  0  0  0  0
   37.0350   25.2190   37.6360 H   0  0  0  0  0  0  0  0  0  0  0  0
   40.8680   22.6850   35.8310 H   0  0  0  0  0  0  0  0  0  0  0  0
   38.1750   27.3990   35.8210 C   0  0  0  0  0  0  0  0  0  0  0  0
   38.4030   28.1130   35.0300 H   0  0  0  0  0  0  0  0  0  0  0  0
   37.3730   27.7420   36.4730 H   0  0  0  0  0  0  0  0  0  0  0  0
   39.0640   27.2310   36.4870 H   0  0  0  0  0  0  0  0  0  0  0  0
  1 25  1  0  0  0  0
  2  6  1  0  0  0  0
  2  1  1  0  0  0  0
  3  2  2  0  0  0  0
  4  3  1  0  0  0  0
  4  5  2  0  0  0  0
  5  8  1  0  0  0  0
  5  1  1  0  0  0  0
  7  3  1  0  0  0  0
  8 10  1  0  0  0  0
  8 11  1  1  0  0  0
  9  8  1  0  0  0  0
  9 10  1  0  0  0  0
 10 14  1  1  0  0  0
 10 15  1  0  0  0  0
 12  9  1  0  0  0  0
 13  9  1  0  0  0  0
 15 22  1  0  0  0  0
 16 15  1  0  0  0  0
 16 17  2  0  0  0  0
 17 19  1  0  0  0  0
 18 17  1  0  0  0  0
 19 21  1  0  0  0  0
 19 20  2  0  0  0  0
 21 24  1  0  0  0  0
 22 23  2  0  0  0  0
 22 21  1  0  0  0  0
 25 28  1  0  0  0  0
 26 25  1  0  0  0  0
 27 25  1  0  0  0  0
 28 29  1  6  0  0  0
 28 39  1  0  0  0  0
 28 32  1  0  0  0  0
 30 36  1  0  0  0  0
 31 37  1  0  0  0  0
 31 30  2  0  0  0  0
 32 31  1  0  0  0  0
 33 32  2  0  0  0  0
 33 34  1  0  0  0  0
 34 35  2  0  0  0  0
 35 30  1  0  0  0  0
 38 34  1  0  0  0  0
 39 41  1  0  0  0  0
 39 42  1  0  0  0  0
 40 39  1  0  0  0  0
M  END
>  <minimizedAffinity>
-5.65023184

>  <minimizedRMSD>
1.35005975

$$$$
