
     RDKit          3D

 38 41  0  0  0  0  0  0  0  0999 V2000
   40.6995   21.9177   37.6081 O   0  0  0  0  0  0  0  0  0  0  0  0
   41.9243   22.0699   36.9940 C   0  0  0  0  0  0  0  0  0  0  0  0
   42.4166   23.2214   36.4263 C   0  0  0  0  0  0  0  0  0  0  0  0
   43.6401   23.0147   35.9184 N   0  0  0  0  0  0  0  0  0  0  0  0
   44.0072   21.7341   36.1246 C   0  0  0  0  0  0  0  0  0  0  0  0
   45.1415   21.0016   35.8130 C   0  0  0  0  0  0  0  0  0  0  0  0
   45.2210   19.6562   36.1719 C   0  0  0  0  0  0  0  0  0  0  0  0
   44.1525   19.0537   36.8459 C   0  0  0  0  0  0  0  0  0  0  0  0
   43.0180   19.7997   37.1537 C   0  0  0  0  0  0  0  0  0  0  0  0
   42.9467   21.1363   36.7935 C   0  0  0  0  0  0  0  0  0  0  0  0
   39.5945   22.6828   37.4112 C   0  0  0  0  0  0  0  0  0  0  0  0
   39.0996   23.3725   38.5284 C   0  0  0  0  0  0  0  0  0  0  0  0
   37.9559   24.1678   38.3363 C   0  0  0  0  0  0  0  0  0  0  0  0
   37.4012   24.2237   37.0977 N   0  0  0  0  0  0  0  0  0  0  0  0
   37.9225   23.5356   36.0543 C   0  0  0  0  0  0  0  0  0  0  0  0
   39.0040   22.7714   36.1935 N   0  0  0  0  0  0  0  0  0  0  0  0
   41.9092   24.1641   36.3847 H   0  0  0  0  0  0  0  0  0  0  0  0
   44.2484   23.6973   35.4348 H   0  0  0  0  0  0  0  0  0  0  0  0
   45.9723   21.4587   35.2922 H   0  0  0  0  0  0  0  0  0  0  0  0
   46.0824   19.0388   35.9532 H   0  0  0  0  0  0  0  0  0  0  0  0
   44.2411   18.0117   37.1114 H   0  0  0  0  0  0  0  0  0  0  0  0
   42.2043   19.3138   37.6750 H   0  0  0  0  0  0  0  0  0  0  0  0
   39.5868   23.2884   39.4947 H   0  0  0  0  0  0  0  0  0  0  0  0
   37.5379   24.7169   39.1638 H   0  0  0  0  0  0  0  0  0  0  0  0
   37.2007   23.7240   34.8445 N   0  0  0  0  0  0  0  0  0  0  0  0
   36.9561   22.7730   33.9536 C   0  0  0  0  0  0  0  0  0  0  0  0
   36.2538   23.0303   32.8116 C   0  0  0  0  0  0  0  0  0  0  0  0
   35.9413   22.0190   31.7699 C   0  0  0  0  0  0  0  0  0  0  0  0
   35.7743   24.2942   32.5476 C   0  0  0  0  0  0  0  0  0  0  0  0
   35.1111   24.6069   31.5022 O   0  0  0  0  0  0  0  0  0  0  0  0
   36.0061   25.2786   33.4312 N   0  0  0  0  0  0  0  0  0  0  0  0
   36.7117   24.9540   34.5473 C   0  0  0  0  0  0  0  0  0  0  0  0
   36.9119   25.8950   35.3536 O   0  0  0  0  0  0  0  0  0  0  0  0
   37.3171   21.7797   34.1325 H   0  0  0  0  0  0  0  0  0  0  0  0
   36.0943   21.0115   32.2042 H   0  0  0  0  0  0  0  0  0  0  0  0
   34.8837   22.0712   31.4423 H   0  0  0  0  0  0  0  0  0  0  0  0
   36.6513   22.1515   30.9276 H   0  0  0  0  0  0  0  0  0  0  0  0
   35.6689   26.2370   33.2785 H   0  0  0  0  0  0  0  0  0  0  0  0
  2  1  1  0
  3  2  2  0
  4  5  1  0
  4  3  1  0
  5 10  2  0
  6  5  1  0
  6  7  2  0
  7  8  1  0
  8  9  2  0
 10  2  1  0
 10  9  1  0
 11  1  1  0
 11 12  2  0
 13 12  1  0
 14 13  2  0
 15 16  2  0
 15 14  1  0
 16 11  1  0
  3 17  1  0
  4 18  1  0
  6 19  1  0
  7 20  1  0
  8 21  1  0
  9 22  1  0
 12 23  1  0
 13 24  1  0
 25 26  1  0
 26 27  2  0
 27 28  1  0
 27 29  1  0
 29 30  2  0
 29 31  1  0
 31 32  1  0
 32 33  2  0
 32 25  1  0
 26 34  1  0
 28 35  1  0
 28 36  1  0
 28 37  1  0
 31 38  1  0
 15 25  1  0
M  ISO  8  17  14  18   9  19  14  20  14  21  14  22  14  23  14  24  14
M  END
>  <DihAtoms>  (1) 
15,14,24,25

>  <DihDeg>  (1) 
-96.00750646838269

$$$$
