
 OpenBabel03262517513D

 25 27  0  0  0  0  0  0  0  0999 V2000
   37.3760   25.7120   33.7320 C   0  0  0  0  0  0  0  0  0  0  0  0
   38.0980   24.6970   34.3850 C   0  0  0  0  0  0  0  0  0  0  0  0
   38.7000   24.9840   35.5980 C   0  0  0  0  0  0  0  0  0  0  0  0
   38.5670   26.2410   36.1090 N   0  0  0  0  0  0  0  0  0  0  0  0
   37.8750   27.1910   35.4690 C   0  0  0  0  0  0  0  0  0  0  0  0
   37.2830   26.9200   34.2810 N   0  0  0  0  0  0  0  0  0  0  0  0
   36.8650   25.6040   32.7830 H   0  0  0  0  0  0  0  0  0  0  0  0
   37.8850   28.1170   36.0310 H   0  0  0  0  0  0  0  0  0  0  0  0
   39.4180   23.9730   36.2480 N   0  0  0  0  0  0  0  0  0  0  0  0
   40.6850   23.8240   35.8030 C   0  0  0  0  0  0  0  0  0  0  0  0
   41.5040   22.8510   36.3710 C   0  0  0  0  0  0  0  0  0  0  0  0
   42.9190   22.5900   35.9660 C   0  0  0  0  0  0  0  0  0  0  0  0
   40.9970   22.0570   37.3790 C   0  0  0  0  0  0  0  0  0  0  0  0
   41.6960   21.1650   37.9220 O   0  0  0  0  0  0  0  0  0  0  0  0
   39.7340   22.2200   37.8090 N   0  0  0  0  0  0  0  0  0  0  0  0
   38.9740   23.1720   37.2360 C   0  0  0  0  0  0  0  0  0  0  0  0
   37.7830   23.3670   37.5990 O   0  0  0  0  0  0  0  0  0  0  0  0
   39.3640   21.6150   38.5700 H   0  0  0  0  0  0  0  0  0  0  0  0
   38.1530   23.4410   33.7410 N   0  0  0  0  0  0  0  0  0  0  0  0
   38.9170   22.9620   32.7120 C   0  0  0  0  0  0  0  0  0  0  0  0
   38.5910   21.6810   32.4580 N   0  0  0  0  0  0  0  0  0  0  0  0
   37.6010   21.3580   33.3530 C   0  0  0  0  0  0  0  0  0  0  0  0
   37.3480   22.4510   34.1280 N   0  0  0  0  0  0  0  0  0  0  0  0
   39.6560   23.5800   32.2220 H   0  0  0  0  0  0  0  0  0  0  0  0
   37.0610   20.4100   33.4790 H   0  0  0  0  0  0  0  0  0  0  0  0
  1  6  2  0  0  0  0
  1  2  1  0  0  0  0
  2  3  2  0  0  0  0
  3  4  1  0  0  0  0
  3  9  1  0  0  0  0
  5  8  1  0  0  0  0
  5  4  2  0  0  0  0
  6  5  1  0  0  0  0
  7  1  1  0  0  0  0
  9 16  1  0  0  0  0
 10  9  1  0  0  0  0
 10 11  2  0  0  0  0
 11 13  1  0  0  0  0
 12 11  1  0  0  0  0
 13 15  1  0  0  0  0
 13 14  2  0  0  0  0
 15 18  1  0  0  0  0
 16 17  2  0  0  0  0
 16 15  1  0  0  0  0
 19 23  1  0  0  0  0
 19  2  1  0  0  0  0
 20 19  1  0  0  0  0
 21 20  2  0  0  0  0
 21 22  1  0  0  0  0
 22 25  1  0  0  0  0
 22 23  2  0  0  0  0
 24 20  1  0  0  0  0
M  END
>  <minimizedAffinity>
-5.08576488

>  <minimizedRMSD>
3.93931031

$$$$
