
     RDKit          3D

 46 49  0  0  0  0  0  0  0  0999 V2000
   37.6433   25.3762   34.3687 N   0  0  0  0  0  0  0  0  0  0  0  0
   37.1196   25.4078   33.0201 C   0  0  0  0  0  0  0  0  0  0  0  0
   36.8509   26.8452   32.7280 C   0  0  0  0  0  0  0  0  0  0  0  0
   37.2922   27.5703   33.9883 C   0  0  0  0  0  0  0  0  0  0  0  0
   38.3966   26.5840   34.4734 C   0  0  2  0  0  0  0  0  0  0  0  0
   38.5534   24.2838   34.5567 C   0  0  0  0  0  0  0  0  0  0  0  0
   37.8540   23.8948   38.2617 C   0  0  0  0  0  0  0  0  0  0  0  0
   37.6808   24.2688   36.9274 C   0  0  0  0  0  0  0  0  0  0  0  0
   38.6812   23.9148   35.9969 C   0  0  0  0  0  0  0  0  0  0  0  0
   39.7605   23.2231   36.4747 N   0  0  0  0  0  0  0  0  0  0  0  0
   39.8753   22.8898   37.7681 C   0  0  0  0  0  0  0  0  0  0  0  0
   38.9224   23.2282   38.6481 N   0  0  0  0  0  0  0  0  0  0  0  0
   39.4880   26.6135   33.6604 O   0  0  0  0  0  0  0  0  0  0  0  0
   40.6139   27.1735   34.1947 C   0  0  2  0  0  0  0  0  0  0  0  0
   41.6857   27.4998   33.1815 C   0  0  0  0  0  0  0  0  0  0  0  0
   41.9121   26.4346   34.1951 C   0  0  1  0  0  0  0  0  0  0  0  0
   36.1704   24.8391   32.9912 H   0  0  0  0  0  0  0  0  0  0  0  0
   37.8424   25.0040   32.2907 H   0  0  0  0  0  0  0  0  0  0  0  0
   37.3931   27.2585   31.8554 H   0  0  0  0  0  0  0  0  0  0  0  0
   35.7515   27.0593   32.6181 H   0  0  0  0  0  0  0  0  0  0  0  0
   37.7660   28.5477   33.7555 H   0  0  0  0  0  0  0  0  0  0  0  0
   36.5126   27.6190   34.7458 H   0  0  0  0  0  0  0  0  0  0  0  0
   38.6224   26.9052   35.5131 H   0  0  0  0  0  0  0  0  0  0  0  0
   38.2664   23.3958   33.9496 H   0  0  0  0  0  0  0  0  0  0  0  0
   39.5704   24.5869   34.2146 H   0  0  0  0  0  0  0  0  0  0  0  0
   37.0213   24.2230   38.8754 H   0  0  0  0  0  0  0  0  0  0  0  0
   36.8234   24.8190   36.5447 H   0  0  0  0  0  0  0  0  0  0  0  0
   40.7207   22.3429   38.1671 H   0  0  0  0  0  0  0  0  0  0  0  0
   40.4564   27.6696   35.1577 H   0  0  0  0  0  0  0  0  0  0  0  0
   41.5440   27.2140   32.1307 H   0  0  0  0  0  0  0  0  0  0  0  0
   42.0959   28.5145   33.2900 H   0  0  0  0  0  0  0  0  0  0  0  0
   41.8418   25.3851   33.8412 H   0  0  0  0  0  0  0  0  0  0  0  0
   42.9189   26.6509   35.1982 N   0  0  0  0  0  0  0  0  0  0  0  0
   42.4759   26.5918   36.4883 C   0  0  0  0  0  0  0  0  0  0  0  0
   43.3093   26.7760   37.5706 C   0  0  0  0  0  0  0  0  0  0  0  0
   42.7779   26.7022   38.9729 C   0  0  0  0  0  0  0  0  0  0  0  0
   44.6269   27.0266   37.3299 C   0  0  0  0  0  0  0  0  0  0  0  0
   45.4140   27.1993   38.2905 O   0  0  0  0  0  0  0  0  0  0  0  0
   45.0646   27.0849   36.0557 N   0  0  0  0  0  0  0  0  0  0  0  0
   44.2292   26.9013   35.0164 C   0  0  0  0  0  0  0  0  0  0  0  0
   44.6028   26.9489   33.8290 O   0  0  0  0  0  0  0  0  0  0  0  0
   41.4241   26.3929   36.7334 H   0  0  0  0  0  0  0  0  0  0  0  0
   42.5449   25.6143   39.1616 H   0  0  0  0  0  0  0  0  0  0  0  0
   41.8168   27.2464   39.0857 H   0  0  0  0  0  0  0  0  0  0  0  0
   43.5577   27.0157   39.6674 H   0  0  0  0  0  0  0  0  0  0  0  0
   46.0564   27.2725   35.8200 H   0  0  0  0  0  0  0  0  0  0  0  0
  1  5  1  0
  1  6  1  0
  2  1  1  0
  3  2  1  0
  3  4  1  0
  4  5  1  0
  6  9  1  0
  7 12  2  0
  8  7  1  0
  9 10  1  0
  9  8  2  0
 10 11  2  0
 11 12  1  0
 13 14  1  0
 13  5  1  0
 14 16  1  0
 15 14  1  0
 15 16  1  0
  2 17  1  0
  2 18  1  0
  3 19  1  0
  3 20  1  0
  4 21  1  0
  4 22  1  0
  5 23  1  1
  6 24  1  0
  6 25  1  0
  7 26  1  0
  8 27  1  0
 11 28  1  0
 14 29  1  1
 15 30  1  0
 15 31  1  0
 16 32  1  6
 33 34  1  0
 34 35  2  0
 35 36  1  0
 35 37  1  0
 37 38  2  0
 37 39  1  0
 39 40  1  0
 40 41  2  0
 40 33  1  0
 34 42  1  0
 36 43  1  0
 36 44  1  0
 36 45  1  0
 39 46  1  0
 16 33  1  0
M  ISO  8  17  13  18  13  19  13  20  13  21  13  22  13  23  13  24   8
M  ISO  8  25   8  26  14  27  14  28  14  29  13  30  13  31  13  32  13
M  END
>  <DihAtoms>  (1) 
13,15,32,33

>  <DihDeg>  (1) 
-99.62180624349185

$$$$
