
 OpenBabel03262518523D

 29 31  0  0  0  0  0  0  0  0999 V2000
   39.8790   22.8080   37.3350 C   0  0  0  0  0  0  0  0  0  0  0  0
   39.1310   23.2070   38.4780 C   0  0  0  0  0  0  0  0  0  0  0  0
   37.7350   23.2090   38.3500 C   0  0  0  0  0  0  0  0  0  0  0  0
   37.1480   22.8430   37.1710 N   0  0  0  0  0  0  0  0  0  0  0  0
   37.9170   22.4710   36.1090 C   0  0  0  0  0  0  0  0  0  0  0  0
   39.2610   22.4550   36.1910 N   0  0  0  0  0  0  0  0  0  0  0  0
   37.3550   22.0780   34.8510 N   0  0  0  0  0  0  0  0  0  0  0  0
   37.9540   22.5590   33.7350 C   0  0  0  0  0  0  0  0  0  0  0  0
   37.4320   22.1950   32.5150 C   0  0  0  0  0  0  0  0  0  0  0  0
   36.3150   21.3510   32.4930 C   0  0  0  0  0  0  0  0  0  0  0  0
   35.8060   20.9940   31.3870 O   0  0  0  0  0  0  0  0  0  0  0  0
   35.7560   20.9000   33.6390 N   0  0  0  0  0  0  0  0  0  0  0  0
   36.2780   21.2650   34.8390 C   0  0  0  0  0  0  0  0  0  0  0  0
   35.8230   20.8940   35.9340 O   0  0  0  0  0  0  0  0  0  0  0  0
   40.9500   22.7730   37.3300 H   0  0  0  0  0  0  0  0  0  0  0  0
   39.6470   23.4800   39.3650 H   0  0  0  0  0  0  0  0  0  0  0  0
   37.1330   23.5050   39.1980 H   0  0  0  0  0  0  0  0  0  0  0  0
   38.7990   23.1950   33.8240 H   0  0  0  0  0  0  0  0  0  0  0  0
   34.9210   20.2690   33.6530 H   0  0  0  0  0  0  0  0  0  0  0  0
   38.0150   22.6660   31.3060 N   0  0  0  0  0  0  0  0  0  0  0  0
   38.9420   21.9830   30.6060 C   0  0  0  0  0  0  0  0  0  0  0  0
   39.5090   22.4300   29.4390 C   0  0  0  0  0  0  0  0  0  0  0  0
   40.5320   21.6510   28.6870 C   0  0  0  0  0  0  0  0  0  0  0  0
   39.1030   23.6590   28.9500 C   0  0  0  0  0  0  0  0  0  0  0  0
   39.6050   24.1070   27.8730 O   0  0  0  0  0  0  0  0  0  0  0  0
   38.1700   24.3490   29.6520 N   0  0  0  0  0  0  0  0  0  0  0  0
   37.6580   23.8540   30.7840 C   0  0  0  0  0  0  0  0  0  0  0  0
   36.8020   24.5960   31.3340 O   0  0  0  0  0  0  0  0  0  0  0  0
   37.9010   25.2700   29.2370 H   0  0  0  0  0  0  0  0  0  0  0  0
  1  2  1  0  0  0  0
  2 16  1  0  0  0  0
  3  2  2  0  0  0  0
  3 17  1  0  0  0  0
  4  3  1  0  0  0  0
  5  6  1  0  0  0  0
  5  4  2  0  0  0  0
  6  1  2  0  0  0  0
  7  5  1  0  0  0  0
  8 18  1  0  0  0  0
  8  7  1  0  0  0  0
  9  8  2  0  0  0  0
 10  9  1  0  0  0  0
 10 12  1  0  0  0  0
 11 10  2  0  0  0  0
 12 19  1  0  0  0  0
 12 13  1  0  0  0  0
 13  7  1  0  0  0  0
 13 14  2  0  0  0  0
 15  1  1  0  0  0  0
 20  9  1  0  0  0  0
 21 20  1  0  0  0  0
 22 21  2  0  0  0  0
 23 22  1  0  0  0  0
 24 22  1  0  0  0  0
 24 26  1  0  0  0  0
 25 24  2  0  0  0  0
 26 27  1  0  0  0  0
 27 20  1  0  0  0  0
 27 28  2  0  0  0  0
 29 26  1  0  0  0  0
M  END
>  <minimizedAffinity>
-5.60410357

>  <minimizedRMSD>
1.67846632

$$$$
