
 OpenBabel03262519433D

 25 26  0  0  1  0  0  0  0  0999 V2000
   38.3430   24.4160   36.1610 C   0  0  1  0  0  0  0  0  0  0  0  0
   37.9550   24.1190   35.1420 H   0  0  0  0  0  0  0  0  0  0  0  0
   41.0510   22.0350   37.3560 C   0  0  0  0  0  0  0  0  0  0  0  0
   39.8010   22.6790   37.2330 C   0  0  0  0  0  0  0  0  0  0  0  0
   39.6390   23.7250   36.2860 C   0  0  0  0  0  0  0  0  0  0  0  0
   40.7310   24.0370   35.5460 N   0  0  0  0  0  0  0  0  0  0  0  0
   41.9110   23.4260   35.6670 C   0  0  0  0  0  0  0  0  0  0  0  0
   42.0710   22.4200   36.5780 N   0  0  0  0  0  0  0  0  0  0  0  0
   41.1230   21.2410   38.0970 H   0  0  0  0  0  0  0  0  0  0  0  0
   38.9790   22.3610   37.8700 H   0  0  0  0  0  0  0  0  0  0  0  0
   42.7570   23.7300   35.0360 H   0  0  0  0  0  0  0  0  0  0  0  0
   37.3270   23.9300   37.1750 C   0  0  0  0  0  0  0  0  0  0  0  0
   37.7610   24.0440   38.2060 H   0  0  0  0  0  0  0  0  0  0  0  0
   36.9640   22.9070   36.9860 H   0  0  0  0  0  0  0  0  0  0  0  0
   36.4810   24.6580   37.1310 H   0  0  0  0  0  0  0  0  0  0  0  0
   38.4590   25.9020   36.2360 C   0  0  0  0  0  0  0  0  0  0  0  0
   39.5510   26.1280   36.0850 H   0  0  0  0  0  0  0  0  0  0  0  0
   38.1340   26.2780   37.2370 H   0  0  0  0  0  0  0  0  0  0  0  0
   37.7320   26.5520   35.1410 C   0  0  0  0  0  0  0  0  0  0  0  0
   37.7940   25.6600   34.0560 C   0  0  0  0  0  3  0  0  0  0  0  0
   37.2160   25.9100   32.8050 C   0  0  0  0  0  3  0  0  0  0  0  0
   36.5560   27.0680   32.6160 N   0  0  0  0  0  0  0  0  0  0  0  0
   36.5030   27.9230   33.6740 C   0  0  0  0  0  0  0  0  0  0  0  0
   36.0100   28.8860   33.6660 H   0  0  0  0  0  0  0  0  0  0  0  0
   37.0590   27.6550   34.8360 N   0  0  0  0  0  0  0  0  0  0  0  0
  1  2  1  6  0  0  0
  1 16  1  0  0  0  0
  1  5  1  0  0  0  0
  1 12  1  0  0  0  0
  3  9  1  0  0  0  0
  4  3  1  0  0  0  0
  4 10  1  0  0  0  0
  5  4  2  0  0  0  0
  6  7  2  0  0  0  0
  6  5  1  0  0  0  0
  7  8  1  0  0  0  0
  8  3  2  0  0  0  0
 11  7  1  0  0  0  0
 12 13  1  0  0  0  0
 14 12  1  0  0  0  0
 15 12  1  0  0  0  0
 16 18  1  0  0  0  0
 17 16  1  0  0  0  0
 19 16  1  0  0  0  0
 20 19  2  0  0  0  0
 21 20  1  0  0  0  0
 22 21  2  0  0  0  0
 22 23  1  0  0  0  0
 23 25  2  0  0  0  0
 24 23  1  0  0  0  0
 25 19  1  0  0  0  0
M  END
>  <minimizedAffinity>
-3.81151843

>  <minimizedRMSD>
1.77689493

$$$$
