
 OpenBabel03262518003D

 27 29  0  0  0  0  0  0  0  0999 V2000
   43.6620   19.7260   37.0940 C   0  0  0  0  0  0  0  0  0  0  0  0
   42.4760   20.4400   37.3050 C   0  0  0  0  0  0  0  0  0  0  0  0
   41.9920   21.2320   36.2530 C   0  0  0  0  0  0  0  0  0  0  0  0
   42.7210   21.2450   35.0970 N   0  0  0  0  0  0  0  0  0  0  0  0
   43.8550   20.5480   34.9300 C   0  0  0  0  0  0  0  0  0  0  0  0
   44.3250   19.7770   35.9560 N   0  0  0  0  0  0  0  0  0  0  0  0
   44.0430   19.1160   37.8930 H   0  0  0  0  0  0  0  0  0  0  0  0
   41.9320   20.4000   38.2340 H   0  0  0  0  0  0  0  0  0  0  0  0
   44.5960   20.5770   33.7210 N   0  0  0  0  0  0  0  0  0  0  0  0
   44.4340   21.5880   32.8540 C   0  0  0  0  0  0  0  0  0  0  0  0
   45.1260   21.6580   31.6770 C   0  0  0  0  0  0  0  0  0  0  0  0
   44.9010   22.8050   30.7590 C   0  0  0  0  0  0  0  0  0  0  0  0
   46.0070   20.6390   31.4120 C   0  0  0  0  0  0  0  0  0  0  0  0
   46.6550   20.6760   30.3390 O   0  0  0  0  0  0  0  0  0  0  0  0
   46.1690   19.6150   32.2940 N   0  0  0  0  0  0  0  0  0  0  0  0
   45.4590   19.5920   33.4460 C   0  0  0  0  0  0  0  0  0  0  0  0
   45.6690   18.6190   34.1930 O   0  0  0  0  0  0  0  0  0  0  0  0
   46.8630   18.8620   32.0270 H   0  0  0  0  0  0  0  0  0  0  0  0
   40.7630   22.0030   36.3970 C   0  0  0  0  0  0  0  0  0  0  0  0
   39.8360   22.4690   35.5210 N   0  0  0  0  0  0  0  0  0  0  0  0
   38.9180   23.1100   36.1830 O   0  0  0  0  0  0  0  0  0  0  0  0
   39.1970   23.0920   37.4760 C   0  0  0  0  0  0  0  0  0  0  0  0
   40.3300   22.4110   37.5970 N   0  0  0  0  0  0  0  0  0  0  0  0
   38.4200   23.6990   38.5770 C   0  0  0  0  0  0  0  0  0  0  0  0
   39.2450   23.8730   39.6620 F   0  0  0  0  0  0  0  0  0  0  0  0
   37.3700   22.8910   38.9680 F   0  0  0  0  0  0  0  0  0  0  0  0
   37.9650   24.9410   38.1960 F   0  0  0  0  0  0  0  0  0  0  0  0
  1  2  1  0  0  0  0
  1  7  1  0  0  0  0
  2  8  1  0  0  0  0
  3 19  1  0  0  0  0
  3  2  2  0  0  0  0
  4  3  1  0  0  0  0
  5  4  2  0  0  0  0
  5  6  1  0  0  0  0
  6  1  2  0  0  0  0
  9  5  1  0  0  0  0
 10  9  1  0  0  0  0
 11 10  2  0  0  0  0
 12 11  1  0  0  0  0
 13 11  1  0  0  0  0
 13 15  1  0  0  0  0
 14 13  2  0  0  0  0
 15 16  1  0  0  0  0
 16  9  1  0  0  0  0
 16 17  2  0  0  0  0
 18 15  1  0  0  0  0
 19 23  1  0  0  0  0
 20 21  1  0  0  0  0
 20 19  2  0  0  0  0
 21 22  1  0  0  0  0
 22 23  2  0  0  0  0
 22 24  1  0  0  0  0
 24 26  1  0  0  0  0
 24 25  1  0  0  0  0
 27 24  1  0  0  0  0
M  END
>  <minimizedAffinity>
-4.36215115

>  <minimizedRMSD>
0.394650668

$$$$
