
 OpenBabel03262519183D

 36 39  0  0  0  0  0  0  0  0999 V2000
   36.1920   28.2540   33.8210 C   0  0  0  0  0  0  0  0  0  0  0  0
   35.8090   29.3340   34.6320 C   0  0  0  0  0  0  0  0  0  0  0  0
   34.9700   30.2370   34.0780 C   0  0  0  0  0  0  0  0  0  0  0  0
   34.5630   30.0370   32.7870 C   0  0  0  0  0  0  0  0  0  0  0  0
   35.4120   28.4450   32.2700 S   0  0  0  0  0  0  0  0  0  0  0  0
   36.1600   29.4600   35.6690 H   0  0  0  0  0  0  0  0  0  0  0  0
   37.8510   27.2510   35.4580 C   0  0  0  0  0  0  0  0  0  0  0  0
   37.0930   27.2000   34.2790 C   0  0  0  0  0  0  0  0  0  0  0  0
   37.1650   26.0870   33.4440 C   0  0  0  0  0  0  0  0  0  0  0  0
   37.9990   25.0970   33.8500 N   0  0  0  0  0  0  0  0  0  0  0  0
   38.7340   25.1590   35.0020 C   0  0  0  0  0  0  0  0  0  0  0  0
   38.6390   26.2440   35.7810 N   0  0  0  0  0  0  0  0  0  0  0  0
   37.7150   28.1650   36.0300 H   0  0  0  0  0  0  0  0  0  0  0  0
   36.6030   26.0000   32.5290 H   0  0  0  0  0  0  0  0  0  0  0  0
   39.5960   24.0290   35.3310 C   0  0  0  0  0  0  0  0  0  0  0  0
   40.3900   23.5860   34.3180 C   0  0  0  0  0  0  0  0  0  0  0  0
   41.3350   22.1590   35.0790 S   0  0  0  0  0  0  0  0  0  0  0  0
   40.3880   22.4800   36.7360 C   0  0  0  0  0  0  0  0  0  0  0  0
   39.7690   23.3380   36.4090 N   0  0  0  0  0  0  0  0  0  0  0  0
   40.6110   21.6950   37.8930 N   0  0  0  0  0  0  0  0  0  0  0  0
   40.6570   23.7740   33.2480 H   0  0  0  0  0  0  0  0  0  0  0  0
   41.5800   21.8650   38.2830 H   0  0  0  0  0  0  0  0  0  0  0  0
   39.9580   21.0270   38.3480 H   0  0  0  0  0  0  0  0  0  0  0  0
   33.7200   30.6980   31.8350 C   0  0  0  0  0  0  0  0  0  0  0  0
   34.1680   31.4330   30.9710 O   0  0  0  0  0  0  0  0  0  0  0  0
   32.2900   30.5040   31.8780 N   0  0  0  0  0  0  0  0  0  0  0  0
   31.8700   31.2880   32.4150 H   0  0  0  0  0  0  0  0  0  0  0  0
   32.1110   29.6100   31.3410 H   0  0  0  0  0  0  0  0  0  0  0  0
   34.2960   31.7090   34.8250 S   0  0  0  0  0  0  0  0  0  0  0  0
   34.9790   35.8700   36.2430 H   0  0  0  0  0  0  0  0  0  0  0  0
   34.7990   35.0040   35.7260 N   0  0  0  0  0  0  0  0  0  0  0  0
   35.8940   34.4120   35.0380 C   0  0  0  0  0  0  0  0  0  0  0  0
   36.4410   33.1530   35.6610 C   0  0  0  0  0  0  0  0  0  0  0  0
   35.3660   32.2490   36.1850 C   0  0  0  0  0  0  0  0  0  0  0  0
   34.5710   33.0950   37.1880 C   0  0  0  0  0  0  0  0  0  0  0  0
   33.8480   34.1200   36.3070 C   0  0  0  0  0  0  0  0  0  0  0  0
  1  8  1  0  0  0  0
  1  2  2  0  0  0  0
  2  6  1  0  0  0  0
  3  2  1  0  0  0  0
  3 29  1  0  0  0  0
  4  3  2  0  0  0  0
  5  4  1  0  0  0  0
  5  1  1  0  0  0  0
  7 12  1  0  0  0  0
  7 13  1  0  0  0  0
  8  7  2  0  0  0  0
  9 10  2  0  0  0  0
  9  8  1  0  0  0  0
 10 11  1  0  0  0  0
 11 15  1  0  0  0  0
 11 12  2  0  0  0  0
 14  9  1  0  0  0  0
 15 19  1  0  0  0  0
 16 17  1  0  0  0  0
 16 15  2  0  0  0  0
 17 18  1  0  0  0  0
 18 20  1  0  0  0  0
 19 18  2  0  0  0  0
 20 22  1  0  0  0  0
 20 23  1  0  0  0  0
 21 16  1  0  0  0  0
 24 26  1  0  0  0  0
 24  4  1  0  0  0  0
 25 24  2  0  0  0  0
 26 27  1  0  0  0  0
 28 26  1  0  0  0  0
 29 34  1  0  0  0  0
 31 30  1  0  0  0  0
 31 36  1  0  0  0  0
 32 33  1  0  0  0  0
 32 31  1  0  0  0  0
 33 34  1  0  0  0  0
 34 35  1  0  0  0  0
 36 35  1  0  0  0  0
M  END
>  <minimizedAffinity>
-5.84971142

>  <minimizedRMSD>
2.19810915

$$$$
