REMARK  Name = 
REMARK  4 active torsions:
REMARK  status: ('A' for Active; 'I' for Inactive)
REMARK    1  A    between atoms: C_1  and  C_6
REMARK    2  A    between atoms: N_5  and  C_12
REMARK    3  A    between atoms: C_14  and  N_24
REMARK    4  A    between atoms: C_26  and  C_27
REMARK                            x       y       z     vdW  Elec       q    Type
REMARK                         _______ _______ _______ _____ _____    ______ ____
ROOT
ATOM      1  C   UNL     1      36.999  21.187  34.374  0.00  0.00    +0.000 C 
ATOM      2  C   UNL     1      35.839  20.974  35.253  0.00  0.00    +0.000 C 
ATOM      3  C   UNL     1      35.680  20.756  33.783  0.00  0.00    +0.000 C 
ATOM      4  H   UNL     1      37.787  20.407  34.363  0.00  0.00    +0.000 HD
ATOM      5  H   UNL     1      35.864  20.092  35.938  0.00  0.00    +0.000 HD
ATOM      6  H   UNL     1      35.527  21.890  35.782  0.00  0.00    +0.000 HD
ATOM      7  H   UNL     1      35.563  19.656  33.538  0.00  0.00    +0.000 HD
ENDROOT
BRANCH   3   8
ATOM      8  N   UNL     1      34.803  21.576  33.044  0.00  0.00    +0.000 N 
ATOM      9  C   UNL     1      35.244  22.831  32.691  0.00  0.00    +0.000 A 
ATOM     10  C   UNL     1      34.578  23.803  31.978  0.00  0.00    +0.000 A 
ATOM     11  C   UNL     1      35.180  25.104  31.675  0.00  0.00    +0.000 C 
ATOM     12  C   UNL     1      33.305  23.482  31.562  0.00  0.00    +0.000 A 
ATOM     13  O   UNL     1      32.596  24.282  30.905  0.00  0.00    +0.000 OA
ATOM     14  N   UNL     1      32.824  22.274  31.878  0.00  0.00    +0.000 N 
ATOM     15  C   UNL     1      33.555  21.394  32.579  0.00  0.00    +0.000 A 
ATOM     16  O   UNL     1      33.016  20.287  32.825  0.00  0.00    +0.000 OA
ATOM     17  H   UNL     1      31.861  22.020  31.568  0.00  0.00    +0.000 HD
ENDBRANCH   3   8
BRANCH   1  22
ATOM     18  C   UNL     1      38.019  23.465  34.626  0.00  0.00    +0.000 A 
ATOM     19  C   UNL     1      38.258  24.574  33.806  0.00  0.00    +0.000 A 
ATOM     20  N   UNL     1      37.767  24.169  32.587  0.00  0.00    +0.000 NA
ATOM     21  C   UNL     1      37.296  22.948  32.714  0.00  0.00    +0.000 A 
ATOM     22  N   UNL     1      37.435  22.482  33.960  0.00  0.00    +0.000 N 
ATOM     23  H   UNL     1      38.717  25.526  34.052  0.00  0.00    +0.000 HD
ATOM     24  H   UNL     1      36.887  22.545  31.794  0.00  0.00    +0.000 HD
BRANCH  18  25
ATOM     25  C   UNL     1      38.378  23.402  36.044  0.00  0.00    +0.000 A 
ATOM     26  C   UNL     1      39.592  22.793  36.415  0.00  0.00    +0.000 A 
ATOM     27  C   UNL     1      39.904  22.751  37.789  0.00  0.00    +0.000 A 
ATOM     28  N   UNL     1      39.018  23.298  38.656  0.00  0.00    +0.000 NA
ATOM     29  C   UNL     1      37.855  23.877  38.252  0.00  0.00    +0.000 A 
ATOM     30  N   UNL     1      37.534  23.929  36.945  0.00  0.00    +0.000 NA
ATOM     31  H   UNL     1      40.252  22.377  35.667  0.00  0.00    +0.000 HD
ATOM     32  H   UNL     1      40.826  22.292  38.111  0.00  0.00    +0.000 HD
ATOM     33  H   UNL     1      37.246  24.271  39.052  0.00  0.00    +0.000 HD
ENDBRANCH  18  25
ENDBRANCH   1  22
TORSDOF 3
