
 OpenBabel03262518563D

 19 20  0  0  0  0  0  0  0  0999 V2000
   38.5000   23.0380   34.5740 C   0  0  0  0  0  0  0  0  0  0  0  0
   38.3400   24.0610   34.1240 H   0  0  0  0  0  0  0  0  0  0  0  0
   39.4740   22.7050   34.1370 H   0  0  0  0  0  0  0  0  0  0  0  0
   39.7860   22.7820   37.9820 C   0  0  0  0  0  0  0  0  0  0  0  0
   38.9260   23.5960   38.7490 C   0  0  0  0  0  0  0  0  0  0  0  0
   37.8890   24.2360   38.0580 C   0  0  0  0  0  0  0  0  0  0  0  0
   37.7600   24.0490   36.7090 N   0  0  0  0  0  0  0  0  0  0  0  0
   38.6210   23.2550   36.0380 C   0  0  0  0  0  0  0  0  0  0  0  0
   39.6230   22.6250   36.6470 N   0  0  0  0  0  0  0  0  0  0  0  0
   40.5990   22.2680   38.4650 H   0  0  0  0  0  0  0  0  0  0  0  0
   39.0750   23.7080   39.8180 H   0  0  0  0  0  0  0  0  0  0  0  0
   37.2060   24.8680   38.6010 H   0  0  0  0  0  0  0  0  0  0  0  0
   37.3760   22.1870   34.1770 C   0  0  0  0  0  0  0  0  0  0  0  0
   36.9750   22.2810   32.8560 C   0  0  0  0  0  0  0  0  0  0  0  0
   35.9110   21.5110   32.3730 C   0  0  0  0  0  0  0  0  0  0  0  0
   35.2730   20.6690   33.2030 N   0  0  0  0  0  0  0  0  0  0  0  0
   35.6730   20.5860   34.4910 C   0  0  0  0  0  0  0  0  0  0  0  0
   35.1730   19.9140   35.1750 H   0  0  0  0  0  0  0  0  0  0  0  0
   36.7090   21.3300   34.9750 N   0  0  0  0  0  0  0  0  0  0  0  0
  1  8  1  0  0  0  0
  2  1  1  0  0  0  0
  3  1  1  0  0  0  0
  4 10  1  0  0  0  0
  4  5  1  0  0  0  0
  5 11  1  0  0  0  0
  6 12  1  0  0  0  0
  6  5  2  0  0  0  0
  7  6  1  0  0  0  0
  8  9  1  0  0  0  0
  8  7  2  0  0  0  0
  9  4  2  0  0  0  0
 13  1  1  0  0  0  0
 13 19  1  0  0  0  0
 14 13  2  0  0  0  0
 15 14  1  0  0  0  0
 15 16  2  0  0  0  0
 16 17  1  0  0  0  0
 17 19  2  0  0  0  0
 17 18  1  0  0  0  0
M  END
>  <minimizedAffinity>
-3.67820358

>  <minimizedRMSD>
1.72982526

$$$$
