
 OpenBabel03262519563D

 33 36  0  0  1  0  0  0  0  0999 V2000
   38.0260   22.6790   33.9680 C   0  0  1  0  0  0  0  0  0  0  0  0
   38.7380   23.0720   32.7420 C   0  0  0  0  0  0  0  0  0  0  0  0
   39.3780   22.0850   33.6640 C   0  0  1  0  0  0  0  0  0  0  0  0
   37.1770   21.9730   33.8670 H   0  0  0  0  0  0  0  0  0  0  0  0
   38.3220   22.7210   31.7670 H   0  0  0  0  0  0  0  0  0  0  0  0
   38.9860   24.1460   32.7150 H   0  0  0  0  0  0  0  0  0  0  0  0
   39.3910   21.0450   33.2130 H   0  0  0  0  0  0  0  0  0  0  0  0
   40.5860   22.4130   34.3130 N   0  0  0  0  0  0  0  0  0  0  0  0
   40.8710   21.7730   35.4980 C   0  0  0  0  0  3  0  0  0  0  0  0
   41.9750   21.9230   36.3070 C   0  0  0  0  0  0  0  0  0  0  0  0
   42.1430   21.1680   37.5510 C   0  0  0  0  0  1  0  0  0  0  0  0
   42.9190   22.8300   35.8800 C   0  0  0  0  0  0  0  0  0  0  0  0
   43.9690   23.0560   36.5290 O   0  0  0  0  0  0  0  0  0  0  0  0
   42.6940   23.4820   34.7330 N   0  0  0  0  0  0  0  0  0  0  0  0
   41.5830   23.2640   34.0140 C   0  0  0  0  0  0  0  0  0  0  0  0
   41.4630   23.9240   32.9530 O   0  0  0  0  0  0  0  0  0  0  0  0
   43.4030   24.1710   34.3990 H   0  0  0  0  0  0  0  0  0  0  0  0
   38.0960   24.8000   35.3060 C   0  0  0  0  0  0  0  0  0  0  0  0
   38.0150   25.1600   36.6570 C   0  0  0  0  0  0  0  0  0  0  0  0
   37.8490   23.9500   37.2890 N   0  0  0  0  0  0  0  0  0  0  0  0
   37.8400   23.0030   36.3780 C   0  0  0  0  0  0  0  0  0  0  0  0
   37.9910   23.4920   35.1420 N   0  0  0  0  0  0  0  0  0  0  0  0
   38.0660   26.1440   37.1120 H   0  0  0  0  0  0  0  0  0  0  0  0
   37.7120   22.0080   36.7900 H   0  0  0  0  0  0  0  0  0  0  0  0
   38.2710   25.7580   34.2130 C   0  0  0  0  0  0  0  0  0  0  0  0
   37.1460   26.1470   33.4590 C   0  0  0  0  0  0  0  0  0  0  0  0
   37.3530   27.0710   32.4150 C   0  0  0  0  0  0  0  0  0  0  0  0
   38.6140   27.5200   32.2080 N   0  0  0  0  0  0  0  0  0  0  0  0
   39.6720   27.1160   32.9610 C   0  0  0  0  0  0  0  0  0  0  0  0
   39.5010   26.2340   33.9650 N   0  0  0  0  0  0  0  0  0  0  0  0
   36.1680   25.7470   33.6820 H   0  0  0  0  0  0  0  0  0  0  0  0
   36.5150   27.3920   31.8160 H   0  0  0  0  0  0  0  0  0  0  0  0
   40.6180   27.5560   32.6830 H   0  0  0  0  0  0  0  0  0  0  0  0
  1  4  1  6  0  0  0
  1 22  1  0  0  0  0
  2  3  1  0  0  0  0
  2  1  1  0  0  0  0
  3  7  1  6  0  0  0
  3  1  1  0  0  0  0
  3  8  1  0  0  0  0
  5  2  1  0  0  0  0
  6  2  1  0  0  0  0
  8  9  1  0  0  0  0
  9 10  2  0  0  0  0
 10 11  1  0  0  0  0
 12 10  1  0  0  0  0
 12 13  2  0  0  0  0
 14 12  1  0  0  0  0
 15  8  1  0  0  0  0
 15 14  1  0  0  0  0
 16 15  2  0  0  0  0
 17 14  1  0  0  0  0
 18 19  2  0  0  0  0
 19 23  1  0  0  0  0
 19 20  1  0  0  0  0
 21 24  1  0  0  0  0
 21 20  2  0  0  0  0
 22 18  1  0  0  0  0
 22 21  1  0  0  0  0
 25 18  1  0  0  0  0
 26 31  1  0  0  0  0
 26 25  2  0  0  0  0
 27 26  1  0  0  0  0
 28 27  2  0  0  0  0
 28 29  1  0  0  0  0
 29 30  2  0  0  0  0
 30 25  1  0  0  0  0
 32 27  1  0  0  0  0
 33 29  1  0  0  0  0
M  END
>  <minimizedAffinity>
-4.21095276

>  <minimizedRMSD>
6.8628974

$$$$
