
 OpenBabel03262519473D

 42 45  0  0  1  0  0  0  0  0999 V2000
   37.6530   25.3010   32.9230 N   0  0  0  0  0  0  0  0  0  0  0  0
   37.1710   24.1070   32.5620 C   0  0  0  0  0  0  0  0  0  0  0  0
   36.2610   24.1560   31.5320 C   0  0  0  0  0  0  0  0  0  0  0  0
   36.1760   25.4570   31.2380 N   0  0  0  0  0  0  0  0  0  0  0  0
   37.0080   26.1420   32.0700 C   0  0  0  0  0  0  0  0  0  0  0  0
   37.4960   23.1810   33.0660 H   0  0  0  0  0  0  0  0  0  0  0  0
   35.7790   23.2560   31.1250 H   0  0  0  0  0  0  0  0  0  0  0  0
   37.1280   27.6450   31.9290 C   0  0  1  0  0  0  0  0  0  0  0  0
   36.5220   28.2440   30.7190 C   0  0  0  0  0  0  0  0  0  0  0  0
   35.8320   28.4280   32.0410 C   0  0  2  0  0  0  0  0  0  0  0  0
   37.9950   28.0100   32.4780 H   0  0  0  0  0  0  0  0  0  0  0  0
   36.9800   29.0910   30.1810 H   0  0  0  0  0  0  0  0  0  0  0  0
   36.0020   27.5490   30.0270 H   0  0  0  0  0  0  0  0  0  0  0  0
   34.9520   27.8280   32.2670 H   0  0  0  0  0  0  0  0  0  0  0  0
   35.8270   29.7230   32.6810 N   0  0  0  0  0  0  0  0  0  0  0  0
   36.1290   30.8660   32.0190 C   0  0  0  0  0  3  0  0  0  0  0  0
   36.1270   32.1090   32.6190 C   0  0  0  0  0  0  0  0  0  0  0  0
   36.4600   33.3510   31.8740 C   0  0  0  0  0  1  0  0  0  0  0  0
   35.8060   32.2240   33.9640 C   0  0  0  0  0  0  0  0  0  0  0  0
   35.8030   33.3550   34.5160 O   0  0  0  0  0  0  0  0  0  0  0  0
   35.5090   31.0810   34.6130 N   0  0  0  0  0  0  0  0  0  0  0  0
   35.5280   29.9000   33.9710 C   0  0  0  0  0  0  0  0  0  0  0  0
   35.2340   28.9360   34.6920 O   0  0  0  0  0  0  0  0  0  0  0  0
   35.2710   31.1960   35.6220 H   0  0  0  0  0  0  0  0  0  0  0  0
   38.5640   25.7570   33.8970 C   0  0  0  0  0  0  0  0  0  0  0  0
   38.9920   26.7580   33.5980 H   0  0  0  0  0  0  0  0  0  0  0  0
   39.4670   25.0850   33.9540 H   0  0  0  0  0  0  0  0  0  0  0  0
   37.9870   25.8450   35.2610 C   0  0  1  0  0  0  0  0  0  0  0  0
   36.8760   25.7480   35.2160 H   0  0  0  0  0  0  0  0  0  0  0  0
   38.4510   23.6040   38.2770 C   0  0  0  0  0  0  0  0  0  0  0  0
   37.9060   24.6120   37.4740 C   0  0  0  0  0  0  0  0  0  0  0  0
   38.5010   24.8150   36.1850 C   0  0  0  0  0  0  0  0  0  0  0  0
   39.5690   24.0200   35.7990 N   0  0  0  0  0  0  0  0  0  0  0  0
   40.0500   23.0740   36.6010 C   0  0  0  0  0  0  0  0  0  0  0  0
   39.4950   22.8600   37.8440 N   0  0  0  0  0  0  0  0  0  0  0  0
   37.9850   23.4730   39.2370 H   0  0  0  0  0  0  0  0  0  0  0  0
   37.0800   25.2380   37.7530 H   0  0  0  0  0  0  0  0  0  0  0  0
   40.8870   22.4800   36.2480 H   0  0  0  0  0  0  0  0  0  0  0  0
   38.2180   27.2350   35.8450 C   0  0  0  0  0  0  0  0  0  0  0  0
   38.4930   27.9110   35.0360 H   0  0  0  0  0  0  0  0  0  0  0  0
   37.3630   27.5950   36.4160 H   0  0  0  0  0  0  0  0  0  0  0  0
   39.0570   27.1230   36.5840 H   0  0  0  0  0  0  0  0  0  0  0  0
  1 25  1  0  0  0  0
  2  1  1  0  0  0  0
  2  6  1  0  0  0  0
  3  2  2  0  0  0  0
  4  3  1  0  0  0  0
  4  5  2  0  0  0  0
  5  1  1  0  0  0  0
  7  3  1  0  0  0  0
  8 10  1  0  0  0  0
  8  5  1  0  0  0  0
  8 11  1  1  0  0  0
  9  8  1  0  0  0  0
  9 10  1  0  0  0  0
 10 14  1  1  0  0  0
 10 15  1  0  0  0  0
 12  9  1  0  0  0  0
 13  9  1  0  0  0  0
 15 22  1  0  0  0  0
 16 17  2  0  0  0  0
 16 15  1  0  0  0  0
 17 19  1  0  0  0  0
 18 17  1  0  0  0  0
 19 20  2  0  0  0  0
 19 21  1  0  0  0  0
 21 24  1  0  0  0  0
 22 21  1  0  0  0  0
 22 23  2  0  0  0  0
 25 27  1  0  0  0  0
 25 28  1  0  0  0  0
 26 25  1  0  0  0  0
 28 29  1  6  0  0  0
 28 39  1  0  0  0  0
 28 32  1  0  0  0  0
 30 36  1  0  0  0  0
 31 37  1  0  0  0  0
 31 30  2  0  0  0  0
 32 31  1  0  0  0  0
 33 32  2  0  0  0  0
 33 34  1  0  0  0  0
 34 35  2  0  0  0  0
 35 30  1  0  0  0  0
 38 34  1  0  0  0  0
 39 41  1  0  0  0  0
 39 42  1  0  0  0  0
 40 39  1  0  0  0  0
M  END
>  <minimizedAffinity>
-5.59895992

>  <minimizedRMSD>
1.42078412

$$$$
