REMARK  Name = 
REMARK  6 active torsions:
REMARK  status: ('A' for Active; 'I' for Inactive)
REMARK    1  A    between atoms: C_2  and  C_7
REMARK    2  A    between atoms: C_3  and  C_11
REMARK    3  A    between atoms: C_11  and  C_12
REMARK    4  A    between atoms: C_12  and  C_13
REMARK    5  A    between atoms: C_15  and  N_26
REMARK    6  A    between atoms: C_28  and  C_29
REMARK                            x       y       z     vdW  Elec       q    Type
REMARK                         _______ _______ _______ _____ _____    ______ ____
ROOT
ATOM      1  C   UNL     1      39.014  25.089  35.683  0.00  0.00    +0.000 C 
ATOM      2  H   UNL     1      39.600  25.725  36.414  0.00  0.00    +0.000 HD
ATOM      3  H   UNL     1      38.773  25.803  34.867  0.00  0.00    +0.000 HD
ENDROOT
BRANCH   1   4
ATOM      4  C   UNL     1      37.774  24.656  36.472  0.00  0.00    +0.000 C 
ATOM      5  C   UNL     1      38.033  24.381  37.929  0.00  0.00    +0.000 C 
ATOM      6  C   UNL     1      37.560  23.348  36.990  0.00  0.00    +0.000 C 
ATOM      7  H   UNL     1      36.967  25.408  36.310  0.00  0.00    +0.000 HD
ATOM      8  H   UNL     1      37.337  24.859  38.691  0.00  0.00    +0.000 HD
ATOM      9  H   UNL     1      39.056  24.548  38.275  0.00  0.00    +0.000 HD
ATOM     10  H   UNL     1      37.862  22.374  36.839  0.00  0.00    +0.000 HD
BRANCH   6  11
ATOM     11  N   UNL     1      36.086  23.128  37.179  0.00  0.00    +0.000 N 
ATOM     12  C   UNL     1      35.673  21.896  37.422  0.00  0.00    +0.000 A 
ATOM     13  C   UNL     1      34.307  21.716  37.592  0.00  0.00    +0.000 A 
ATOM     14  C   UNL     1      33.736  20.383  37.868  0.00  0.00    +0.000 C 
ATOM     15  C   UNL     1      33.464  22.820  37.500  0.00  0.00    +0.000 A 
ATOM     16  O   UNL     1      32.230  22.650  37.655  0.00  0.00    +0.000 OA
ATOM     17  N   UNL     1      33.927  24.061  37.250  0.00  0.00    +0.000 N 
ATOM     18  C   UNL     1      35.259  24.190  37.091  0.00  0.00    +0.000 A 
ATOM     19  O   UNL     1      35.665  25.357  36.859  0.00  0.00    +0.000 OA
ATOM     20  H   UNL     1      33.260  24.858  37.189  0.00  0.00    +0.000 HD
ENDBRANCH   6  11
ENDBRANCH   1   4
BRANCH   1  21
ATOM     21  C   UNL     1      39.790  23.908  35.370  0.00  0.00    +0.000 C 
ATOM     22  H   UNL     1      39.238  23.020  35.496  0.00  0.00    +0.000 HD
ATOM     23  H   UNL     1      39.791  23.928  34.212  0.00  0.00    +0.000 HD
BRANCH  21  26
ATOM     24  C   UNL     1      43.117  23.331  36.541  0.00  0.00    +0.000 A 
ATOM     25  C   UNL     1      41.725  23.104  36.397  0.00  0.00    +0.000 A 
ATOM     26  C   UNL     1      41.173  24.041  35.624  0.00  0.00    +0.000 A 
ATOM     27  N   UNL     1      41.903  25.083  35.057  0.00  0.00    +0.000 NA
ATOM     28  C   UNL     1      43.201  25.232  35.235  0.00  0.00    +0.000 A 
ATOM     29  N   UNL     1      43.820  24.348  35.984  0.00  0.00    +0.000 NA
ATOM     30  H   UNL     1      43.772  22.672  37.142  0.00  0.00    +0.000 HD
ATOM     31  H   UNL     1      43.673  26.049  34.768  0.00  0.00    +0.000 HD
BRANCH  25  32
ATOM     32  C   UNL     1      41.238  21.960  37.078  0.00  0.00    +0.000 C 
ATOM     33  F   UNL     1      40.480  22.307  38.226  0.00  0.00    +0.000 F 
ATOM     34  F   UNL     1      42.036  21.184  37.833  0.00  0.00    +0.000 F 
ATOM     35  F   UNL     1      40.142  21.287  36.552  0.00  0.00    +0.000 F 
ENDBRANCH  25  32
ENDBRANCH  21  26
ENDBRANCH   1  21
TORSDOF 5
