
 OpenBabel03262519423D

 25 26  0  0  1  0  0  0  0  0999 V2000
   38.2130   24.3200   36.8720 C   0  0  1  0  0  0  0  0  0  0  0  0
   37.3310   23.8830   36.3160 H   0  0  0  0  0  0  0  0  0  0  0  0
   41.0460   21.8660   37.4900 C   0  0  0  0  0  0  0  0  0  0  0  0
   39.9810   22.7600   37.7290 C   0  0  0  0  0  0  0  0  0  0  0  0
   39.3160   23.3710   36.6320 C   0  0  0  0  0  0  0  0  0  0  0  0
   39.7680   23.0400   35.3980 N   0  0  0  0  0  0  0  0  0  0  0  0
   40.7760   22.1950   35.1780 C   0  0  0  0  0  0  0  0  0  0  0  0
   41.4180   21.6050   36.2300 N   0  0  0  0  0  0  0  0  0  0  0  0
   41.5220   21.4250   38.3640 H   0  0  0  0  0  0  0  0  0  0  0  0
   39.6860   22.9670   38.7550 H   0  0  0  0  0  0  0  0  0  0  0  0
   41.0930   21.9700   34.1500 H   0  0  0  0  0  0  0  0  0  0  0  0
   37.8180   24.3930   38.3320 C   0  0  0  0  0  0  0  0  0  0  0  0
   38.7270   24.6510   38.9410 H   0  0  0  0  0  0  0  0  0  0  0  0
   37.3110   23.4870   38.7020 H   0  0  0  0  0  0  0  0  0  0  0  0
   37.1450   25.2800   38.4220 H   0  0  0  0  0  0  0  0  0  0  0  0
   38.4970   25.6920   36.3560 C   0  0  0  0  0  0  0  0  0  0  0  0
   39.6110   25.7350   36.2060 H   0  0  0  0  0  0  0  0  0  0  0  0
   38.1890   26.4690   37.0980 H   0  0  0  0  0  0  0  0  0  0  0  0
   37.8780   25.9090   35.0440 C   0  0  0  0  0  0  0  0  0  0  0  0
   37.3980   27.2280   35.0590 C   0  0  0  0  0  3  0  0  0  0  0  0
   36.7340   27.8310   33.9830 C   0  0  0  0  0  3  0  0  0  0  0  0
   36.5380   27.1140   32.8600 N   0  0  0  0  0  0  0  0  0  0  0  0
   37.0090   25.8370   32.8580 C   0  0  0  0  0  0  0  0  0  0  0  0
   36.9230   25.1490   32.0280 H   0  0  0  0  0  0  0  0  0  0  0  0
   37.6290   25.3040   33.8880 N   0  0  0  0  0  0  0  0  0  0  0  0
  1  2  1  6  0  0  0
  1 12  1  0  0  0  0
  3  4  1  0  0  0  0
  3  9  1  0  0  0  0
  4 10  1  0  0  0  0
  5  1  1  0  0  0  0
  5  4  2  0  0  0  0
  6  5  1  0  0  0  0
  7  6  2  0  0  0  0
  7  8  1  0  0  0  0
  8  3  2  0  0  0  0
 11  7  1  0  0  0  0
 12 15  1  0  0  0  0
 12 14  1  0  0  0  0
 12 13  1  0  0  0  0
 16  1  1  0  0  0  0
 16 18  1  0  0  0  0
 17 16  1  0  0  0  0
 19 20  1  0  0  0  0
 19 16  1  0  0  0  0
 21 20  2  0  0  0  0
 22 21  1  0  0  0  0
 23 22  2  0  0  0  0
 23 25  1  0  0  0  0
 24 23  1  0  0  0  0
 25 19  2  0  0  0  0
M  END
>  <minimizedAffinity>
-4.21678734

>  <minimizedRMSD>
0.842125833

$$$$
