
 OpenBabel03262519433D

 25 26  0  0  1  0  0  0  0  0999 V2000
   38.2140   24.3190   36.8710 C   0  0  1  0  0  0  0  0  0  0  0  0
   37.3320   23.8820   36.3150 H   0  0  0  0  0  0  0  0  0  0  0  0
   41.0470   21.8660   37.4900 C   0  0  0  0  0  0  0  0  0  0  0  0
   39.9820   22.7600   37.7290 C   0  0  0  0  0  0  0  0  0  0  0  0
   39.3160   23.3700   36.6320 C   0  0  0  0  0  0  0  0  0  0  0  0
   39.7670   23.0370   35.3980 N   0  0  0  0  0  0  0  0  0  0  0  0
   40.7750   22.1920   35.1780 C   0  0  0  0  0  0  0  0  0  0  0  0
   41.4190   21.6030   36.2300 N   0  0  0  0  0  0  0  0  0  0  0  0
   41.5240   21.4260   38.3640 H   0  0  0  0  0  0  0  0  0  0  0  0
   39.6880   22.9680   38.7550 H   0  0  0  0  0  0  0  0  0  0  0  0
   41.0920   21.9660   34.1500 H   0  0  0  0  0  0  0  0  0  0  0  0
   37.8180   24.3920   38.3320 C   0  0  0  0  0  0  0  0  0  0  0  0
   38.7270   24.6490   38.9410 H   0  0  0  0  0  0  0  0  0  0  0  0
   37.3110   23.4860   38.7010 H   0  0  0  0  0  0  0  0  0  0  0  0
   37.1450   25.2780   38.4210 H   0  0  0  0  0  0  0  0  0  0  0  0
   38.4970   25.6910   36.3560 C   0  0  0  0  0  0  0  0  0  0  0  0
   39.6110   25.7330   36.2060 H   0  0  0  0  0  0  0  0  0  0  0  0
   38.1890   26.4680   37.0980 H   0  0  0  0  0  0  0  0  0  0  0  0
   37.8790   25.9080   35.0440 C   0  0  0  0  0  0  0  0  0  0  0  0
   37.3970   27.2270   35.0590 C   0  0  0  0  0  3  0  0  0  0  0  0
   36.7340   27.8300   33.9840 C   0  0  0  0  0  3  0  0  0  0  0  0
   36.5380   27.1140   32.8600 N   0  0  0  0  0  0  0  0  0  0  0  0
   37.0090   25.8370   32.8570 C   0  0  0  0  0  0  0  0  0  0  0  0
   36.9250   25.1490   32.0270 H   0  0  0  0  0  0  0  0  0  0  0  0
   37.6290   25.3030   33.8880 N   0  0  0  0  0  0  0  0  0  0  0  0
  1  2  1  6  0  0  0
  1 12  1  0  0  0  0
  3  4  1  0  0  0  0
  3  9  1  0  0  0  0
  4 10  1  0  0  0  0
  5  1  1  0  0  0  0
  5  4  2  0  0  0  0
  6  5  1  0  0  0  0
  7  6  2  0  0  0  0
  7  8  1  0  0  0  0
  8  3  2  0  0  0  0
 11  7  1  0  0  0  0
 12 15  1  0  0  0  0
 12 14  1  0  0  0  0
 12 13  1  0  0  0  0
 16  1  1  0  0  0  0
 16 18  1  0  0  0  0
 17 16  1  0  0  0  0
 19 20  1  0  0  0  0
 19 16  1  0  0  0  0
 21 20  2  0  0  0  0
 22 21  1  0  0  0  0
 23 22  2  0  0  0  0
 23 25  1  0  0  0  0
 24 23  1  0  0  0  0
 25 19  2  0  0  0  0
M  END
>  <minimizedAffinity>
-4.21640682

>  <minimizedRMSD>
0.865228415

$$$$
