
     RDKit          3D

 46 49  0  0  0  0  0  0  0  0999 V2000
   38.0780   25.7622   35.4220 C   0  0  1  0  0  0  0  0  0  0  0  0
   38.6359   23.3794   38.3096 C   0  0  0  0  0  0  0  0  0  0  0  0
   38.0474   24.4043   37.5616 C   0  0  0  0  0  0  0  0  0  0  0  0
   38.6364   24.7072   36.2902 C   0  0  0  0  0  0  0  0  0  0  0  0
   39.7408   23.9850   35.8663 N   0  0  0  0  0  0  0  0  0  0  0  0
   40.2629   23.0176   36.6175 C   0  0  0  0  0  0  0  0  0  0  0  0
   39.7154   22.7086   37.8420 N   0  0  0  0  0  0  0  0  0  0  0  0
   38.3468   27.1359   36.0290 C   0  0  0  0  0  0  0  0  0  0  0  0
   38.5807   25.7080   34.0269 C   0  0  0  0  0  0  0  0  0  0  0  0
   37.5801   25.4356   33.0733 N   0  0  0  0  0  0  0  0  0  0  0  0
   37.0514   24.3275   32.5438 C   0  0  0  0  0  0  0  0  0  0  0  0
   36.0535   24.5633   31.6275 C   0  0  0  0  0  0  0  0  0  0  0  0
   35.9593   25.8955   31.5875 N   0  0  0  0  0  0  0  0  0  0  0  0
   36.8717   26.4184   32.4508 C   0  0  0  0  0  0  0  0  0  0  0  0
   36.9988   27.9216   32.5776 C   0  0  1  0  0  0  0  0  0  0  0  0
   35.8604   28.7243   32.0787 C   0  0  0  0  0  0  0  0  0  0  0  0
   36.0545   28.5868   33.5626 C   0  0  2  0  0  0  0  0  0  0  0  0
   36.9659   25.6704   35.4354 H   0  0  0  0  0  0  0  0  0  0  0  0
   38.1740   23.1734   39.2594 H   0  0  0  0  0  0  0  0  0  0  0  0
   37.1921   24.9754   37.8710 H   0  0  0  0  0  0  0  0  0  0  0  0
   41.1282   22.4841   36.2361 H   0  0  0  0  0  0  0  0  0  0  0  0
   38.5809   27.8320   35.2240 H   0  0  0  0  0  0  0  0  0  0  0  0
   37.5250   27.4828   36.6542 H   0  0  0  0  0  0  0  0  0  0  0  0
   39.2240   27.0020   36.7182 H   0  0  0  0  0  0  0  0  0  0  0  0
   39.1129   26.6706   33.7760 H   0  0  0  0  0  0  0  0  0  0  0  0
   39.3968   24.9322   33.9911 H   0  0  0  0  0  0  0  0  0  0  0  0
   37.4075   23.3265   32.8379 H   0  0  0  0  0  0  0  0  0  0  0  0
   35.5239   23.7507   31.1080 H   0  0  0  0  0  0  0  0  0  0  0  0
   38.0481   28.2138   32.5993 H   0  0  0  0  0  0  0  0  0  0  0  0
   35.9931   29.6901   31.5639 H   0  0  0  0  0  0  0  0  0  0  0  0
   34.9911   28.1599   31.6805 H   0  0  0  0  0  0  0  0  0  0  0  0
   35.4173   27.9032   34.1202 H   0  0  0  0  0  0  0  0  0  0  0  0
   36.5061   29.7168   34.3414 N   0  0  0  0  0  0  0  0  0  0  0  0
   35.8838   30.1170   35.4769 C   0  0  0  0  0  0  0  0  0  0  0  0
   36.3044   31.1940   36.2299 C   0  0  0  0  0  0  0  0  0  0  0  0
   35.6063   31.6153   37.4726 C   0  0  0  0  0  0  0  0  0  0  0  0
   37.4163   31.9222   35.8296 C   0  0  0  0  0  0  0  0  0  0  0  0
   37.8041   32.9049   36.5124 O   0  0  0  0  0  0  0  0  0  0  0  0
   38.0279   31.5158   34.6989 N   0  0  0  0  0  0  0  0  0  0  0  0
   37.5674   30.4570   34.0102 C   0  0  0  0  0  0  0  0  0  0  0  0
   38.2278   30.1990   32.9934 O   0  0  0  0  0  0  0  0  0  0  0  0
   35.0120   29.5623   35.8092 H   0  0  0  0  0  0  0  0  0  0  0  0
   35.0444   32.5450   37.2336 H   0  0  0  0  0  0  0  0  0  0  0  0
   36.3582   31.8407   38.2757 H   0  0  0  0  0  0  0  0  0  0  0  0
   34.8886   30.8365   37.7787 H   0  0  0  0  0  0  0  0  0  0  0  0
   38.8588   32.0793   34.4215 H   0  0  0  0  0  0  0  0  0  0  0  0
  1  8  1  0
  1  4  1  0
  3  2  2  0
  4  3  1  0
  5  4  2  0
  5  6  1  0
  6  7  2  0
  7  2  1  0
  9  1  1  0
 10  9  1  0
 11 10  1  0
 12 11  2  0
 13 12  1  0
 13 14  2  0
 14 15  1  0
 14 10  1  0
 15 17  1  0
 16 15  1  0
 16 17  1  0
  1 18  1  6
  2 19  1  0
  3 20  1  0
  6 21  1  0
  8 22  1  0
  8 23  1  0
  8 24  1  0
  9 25  1  0
  9 26  1  0
 11 27  1  0
 12 28  1  0
 15 29  1  1
 16 30  1  0
 16 31  1  0
 17 32  1  1
 33 34  1  0
 34 35  2  0
 35 36  1  0
 35 37  1  0
 37 38  2  0
 37 39  1  0
 39 40  1  0
 40 41  2  0
 40 33  1  0
 34 42  1  0
 36 43  1  0
 36 44  1  0
 36 45  1  0
 39 46  1  0
 17 33  1  0
M  ISO  8  18   8  19  14  20  14  21  14  22   8  23   8  24   8  25   8
M  ISO  7  26   8  27  14  28  14  29  13  30  13  31  13  32  13
M  END
>  <DihAtoms>  (1) 
14,16,32,33

>  <DihDeg>  (1) 
-145.9063060024928

$$$$
