
 OpenBabel03262515473D

 38 40  0  0  1  0  0  0  0  0999 V2000
   39.2980   24.7750   34.9050 N   0  0  0  0  0  0  0  0  0  0  0  0
   40.0470   25.9360   34.4740 C   0  0  1  0  0  0  0  0  0  0  0  0
   39.3050   27.2180   34.8650 C   0  0  0  0  0  0  0  0  0  0  0  0
   38.0030   26.8840   35.2300 O   0  0  0  0  0  0  0  0  0  0  0  0
   37.4030   26.1210   34.2260 C   0  0  0  0  0  0  0  0  0  0  0  0
   38.0060   24.7270   34.2830 C   0  0  0  0  0  0  0  0  0  0  0  0
   40.1990   25.8960   33.3740 H   0  0  0  0  0  0  0  0  0  0  0  0
   39.7420   27.7370   35.7200 H   0  0  0  0  0  0  0  0  0  0  0  0
   39.3390   27.9040   33.9880 H   0  0  0  0  0  0  0  0  0  0  0  0
   37.5140   26.5480   33.2230 H   0  0  0  0  0  0  0  0  0  0  0  0
   36.3250   26.0110   34.4660 H   0  0  0  0  0  0  0  0  0  0  0  0
   37.3650   24.0580   34.8980 H   0  0  0  0  0  0  0  0  0  0  0  0
   38.1110   24.3360   33.2460 H   0  0  0  0  0  0  0  0  0  0  0  0
   39.8670   22.5880   37.8910 C   0  0  0  0  0  0  0  0  0  0  0  0
   39.2760   23.5630   37.0760 C   0  0  0  0  0  0  0  0  0  0  0  0
   39.7800   23.8340   35.8180 C   0  0  0  0  0  0  0  0  0  0  0  0
   40.8380   23.1010   35.4830 N   0  0  0  0  0  0  0  0  0  0  0  0
   41.4380   22.1800   36.1930 C   0  0  0  0  0  0  0  0  0  0  0  0
   40.9330   21.9120   37.4450 N   0  0  0  0  0  0  0  0  0  0  0  0
   39.4460   22.4000   38.8700 H   0  0  0  0  0  0  0  0  0  0  0  0
   38.4150   24.1340   37.3930 H   0  0  0  0  0  0  0  0  0  0  0  0
   42.5770   21.4470   35.7410 N   0  0  0  0  0  0  0  0  0  0  0  0
   42.9840   20.5010   36.6170 C   0  0  0  0  0  0  0  0  0  0  0  0
   44.0610   19.6890   36.3700 C   0  0  0  0  0  0  0  0  0  0  0  0
   44.5360   18.6420   37.3080 C   0  0  0  0  0  0  0  0  0  0  0  0
   44.7300   19.8810   35.1580 C   0  0  0  0  0  0  0  0  0  0  0  0
   45.7370   19.1810   34.8360 O   0  0  0  0  0  0  0  0  0  0  0  0
   44.3040   20.8230   34.3120 N   0  0  0  0  0  0  0  0  0  0  0  0
   43.2450   21.6110   34.5710 C   0  0  0  0  0  0  0  0  0  0  0  0
   42.7800   22.5180   33.8330 O   0  0  0  0  0  0  0  0  0  0  0  0
   44.7780   20.9950   33.4000 H   0  0  0  0  0  0  0  0  0  0  0  0
   41.2620   25.9850   35.2390 N   0  0  0  0  0  0  0  0  0  0  0  0
   42.5040   25.9510   34.5350 C   0  0  0  0  0  0  0  0  0  0  0  0
   42.4070   26.1200   33.2430 N   0  0  0  0  0  0  0  0  0  0  0  0
   43.6570   25.7650   35.0600 O   0  0  0  0  0  0  0  0  0  0  0  0
   40.9840   26.0470   36.1420 H   0  0  0  0  0  0  0  0  0  0  0  0
   42.3860   25.1240   32.8940 H   0  0  0  0  0  0  0  0  0  0  0  0
   42.3710   27.0970   32.8490 H   0  0  0  0  0  0  0  0  0  0  0  0
  1 16  1  0  0  0  0
  2  7  1  6  0  0  0
  2  3  1  0  0  0  0
  2  1  1  0  0  0  0
  2 32  1  0  0  0  0
  3  4  1  0  0  0  0
  3  8  1  0  0  0  0
  5  6  1  0  0  0  0
  5 11  1  0  0  0  0
  5  4  1  0  0  0  0
  6 12  1  0  0  0  0
  6  1  1  0  0  0  0
  9  3  1  0  0  0  0
 10  5  1  0  0  0  0
 13  6  1  0  0  0  0
 14 20  1  0  0  0  0
 15 21  1  0  0  0  0
 15 14  2  0  0  0  0
 16 15  1  0  0  0  0
 17 16  2  0  0  0  0
 17 18  1  0  0  0  0
 18 19  2  0  0  0  0
 19 14  1  0  0  0  0
 22 18  1  0  0  0  0
 22 23  1  0  0  0  0
 24 23  2  0  0  0  0
 24 25  1  0  0  0  0
 26 24  1  0  0  0  0
 27 26  2  0  0  0  0
 28 29  1  0  0  0  0
 28 26  1  0  0  0  0
 29 22  1  0  0  0  0
 30 29  2  0  0  0  0
 31 28  1  0  0  0  0
 32 36  1  0  0  0  0
 33 35  2  0  0  0  0
 33 32  1  0  0  0  0
 34 33  1  0  0  0  0
 37 34  1  0  0  0  0
 38 34  1  0  0  0  0
M  END
>  <minimizedAffinity>
-4.42552948

>  <minimizedRMSD>
2.40623474

$$$$
