
 OpenBabel03262519473D

 42 45  0  0  1  0  0  0  0  0999 V2000
   37.4840   25.3640   32.9880 N   0  0  0  0  0  0  0  0  0  0  0  0
   37.0630   24.1700   32.5570 C   0  0  0  0  0  0  0  0  0  0  0  0
   36.0620   24.2320   31.6170 C   0  0  0  0  0  0  0  0  0  0  0  0
   35.8510   25.5410   31.4550 N   0  0  0  0  0  0  0  0  0  0  0  0
   36.7010   26.2190   32.2740 C   0  0  0  0  0  0  0  0  0  0  0  0
   37.5020   23.2340   32.9430 H   0  0  0  0  0  0  0  0  0  0  0  0
   35.6150   23.3330   31.1680 H   0  0  0  0  0  0  0  0  0  0  0  0
   36.6930   27.7340   32.2660 C   0  0  1  0  0  0  0  0  0  0  0  0
   36.2870   28.3830   31.0000 C   0  0  0  0  0  0  0  0  0  0  0  0
   35.3270   28.3890   32.1570 C   0  0  2  0  0  0  0  0  0  0  0  0
   37.3880   28.1210   33.0080 H   0  0  0  0  0  0  0  0  0  0  0  0
   36.7550   29.3110   30.6300 H   0  0  0  0  0  0  0  0  0  0  0  0
   35.9910   27.7100   30.1670 H   0  0  0  0  0  0  0  0  0  0  0  0
   34.4870   27.6980   32.1520 H   0  0  0  0  0  0  0  0  0  0  0  0
   35.0610   29.6170   32.8690 N   0  0  0  0  0  0  0  0  0  0  0  0
   35.6630   29.9250   34.0440 C   0  0  0  0  0  3  0  0  0  0  0  0
   35.4170   31.0940   34.7350 C   0  0  0  0  0  0  0  0  0  0  0  0
   36.0900   31.4110   36.0220 C   0  0  0  0  0  1  0  0  0  0  0  0
   34.5140   32.0170   34.2280 C   0  0  0  0  0  0  0  0  0  0  0  0
   34.2870   33.0850   34.8540 O   0  0  0  0  0  0  0  0  0  0  0  0
   33.9200   31.7010   33.0600 N   0  0  0  0  0  0  0  0  0  0  0  0
   34.2040   30.5450   32.4360 C   0  0  0  0  0  0  0  0  0  0  0  0
   33.5850   30.3870   31.3730 O   0  0  0  0  0  0  0  0  0  0  0  0
   33.2480   32.4110   32.7020 H   0  0  0  0  0  0  0  0  0  0  0  0
   38.4420   25.8090   33.9200 C   0  0  0  0  0  0  0  0  0  0  0  0
   38.8600   26.8090   33.6080 H   0  0  0  0  0  0  0  0  0  0  0  0
   39.3430   25.1320   33.9300 H   0  0  0  0  0  0  0  0  0  0  0  0
   37.9300   25.8900   35.3100 C   0  0  1  0  0  0  0  0  0  0  0  0
   36.8170   25.8110   35.3170 H   0  0  0  0  0  0  0  0  0  0  0  0
   38.4730   23.5820   38.2610 C   0  0  0  0  0  0  0  0  0  0  0  0
   37.9040   24.6040   37.4950 C   0  0  0  0  0  0  0  0  0  0  0  0
   38.4700   24.8430   36.1990 C   0  0  0  0  0  0  0  0  0  0  0  0
   39.5360   24.0660   35.7720 N   0  0  0  0  0  0  0  0  0  0  0  0
   40.0400   23.1040   36.5420 C   0  0  0  0  0  0  0  0  0  0  0  0
   39.5130   22.8560   37.7890 N   0  0  0  0  0  0  0  0  0  0  0  0
   38.0280   23.4250   39.2280 H   0  0  0  0  0  0  0  0  0  0  0  0
   37.0790   25.2170   37.8050 H   0  0  0  0  0  0  0  0  0  0  0  0
   40.8740   22.5250   36.1570 H   0  0  0  0  0  0  0  0  0  0  0  0
   38.2100   27.2710   35.8980 C   0  0  0  0  0  0  0  0  0  0  0  0
   38.4570   27.9510   35.0830 H   0  0  0  0  0  0  0  0  0  0  0  0
   37.3880   27.6360   36.5110 H   0  0  0  0  0  0  0  0  0  0  0  0
   39.0810   27.1380   36.5950 H   0  0  0  0  0  0  0  0  0  0  0  0
  1 25  1  0  0  0  0
  2  6  1  0  0  0  0
  2  1  1  0  0  0  0
  3  2  2  0  0  0  0
  4  3  1  0  0  0  0
  4  5  2  0  0  0  0
  5  1  1  0  0  0  0
  7  3  1  0  0  0  0
  8  5  1  0  0  0  0
  8 11  1  1  0  0  0
  9 10  1  0  0  0  0
  9  8  1  0  0  0  0
 10 14  1  6  0  0  0
 10  8  1  0  0  0  0
 10 15  1  0  0  0  0
 12  9  1  0  0  0  0
 13  9  1  0  0  0  0
 15 16  1  0  0  0  0
 16 17  2  0  0  0  0
 17 18  1  0  0  0  0
 19 17  1  0  0  0  0
 19 20  2  0  0  0  0
 21 19  1  0  0  0  0
 22 15  1  0  0  0  0
 22 21  1  0  0  0  0
 23 22  2  0  0  0  0
 24 21  1  0  0  0  0
 25 27  1  0  0  0  0
 25 28  1  0  0  0  0
 26 25  1  0  0  0  0
 28 29  1  6  0  0  0
 28 39  1  0  0  0  0
 28 32  1  0  0  0  0
 30 36  1  0  0  0  0
 31 37  1  0  0  0  0
 31 30  2  0  0  0  0
 32 31  1  0  0  0  0
 33 32  2  0  0  0  0
 33 34  1  0  0  0  0
 34 35  2  0  0  0  0
 35 30  1  0  0  0  0
 38 34  1  0  0  0  0
 39 41  1  0  0  0  0
 39 42  1  0  0  0  0
 40 39  1  0  0  0  0
M  END
>  <minimizedAffinity>
-5.87956762

>  <minimizedRMSD>
1.78547883

$$$$
