
 OpenBabel03262502213D

 26 28  0  0  0  0  0  0  0  0999 V2000
   37.4350   21.8610   34.9650 C   0  0  0  0  0  0  0  0  0  0  0  0
   36.2620   21.1500   34.9800 C   0  0  0  0  0  0  0  0  0  0  0  0
   35.7250   20.6990   33.8040 C   0  0  0  0  0  0  0  0  0  0  0  0
   36.3510   20.9580   32.6370 N   0  0  0  0  0  0  0  0  0  0  0  0
   37.5100   21.6590   32.6190 C   0  0  0  0  0  0  0  0  0  0  0  0
   38.0640   22.1200   33.7900 N   0  0  0  0  0  0  0  0  0  0  0  0
   35.8010   20.9700   35.9380 H   0  0  0  0  0  0  0  0  0  0  0  0
   34.7970   20.1410   33.8520 H   0  0  0  0  0  0  0  0  0  0  0  0
   39.8850   22.7630   37.5430 C   0  0  0  0  0  0  0  0  0  0  0  0
   39.0930   23.3660   38.5220 C   0  0  0  0  0  0  0  0  0  0  0  0
   37.7220   23.4450   38.2610 C   0  0  0  0  0  0  0  0  0  0  0  0
   37.2300   22.9440   37.0940 N   0  0  0  0  0  0  0  0  0  0  0  0
   38.0530   22.3640   36.1720 C   0  0  0  0  0  0  0  0  0  0  0  0
   39.3620   22.2810   36.4060 N   0  0  0  0  0  0  0  0  0  0  0  0
   40.9490   22.7080   37.7580 H   0  0  0  0  0  0  0  0  0  0  0  0
   39.4690   23.7700   39.4540 H   0  0  0  0  0  0  0  0  0  0  0  0
   37.0010   23.8980   38.9560 H   0  0  0  0  0  0  0  0  0  0  0  0
   38.1440   21.9080   31.3190 C   0  0  0  0  0  0  0  0  0  0  0  0
   38.5570   20.8240   30.5530 C   0  0  0  0  0  0  0  0  0  0  0  0
   39.1120   21.3530   29.3930 C   0  0  0  0  0  0  0  0  0  0  0  0
   39.0260   22.6930   29.4810 N   0  0  0  0  0  0  0  0  0  0  0  0
   38.4530   23.0380   30.6220 N   0  0  0  0  0  0  0  0  0  0  0  0
   38.5420   19.7400   30.6530 H   0  0  0  0  0  0  0  0  0  0  0  0
   39.5500   20.8540   28.5390 H   0  0  0  0  0  0  0  0  0  0  0  0
   39.4340   23.7600   28.5870 C   0  0  0  0  0  0  0  0  0  0  0  0
   40.3320   24.2770   29.0360 H   0  0  0  0  0  0  0  0  0  0  0  0
  1  2  1  0  0  0  0
  1 13  1  0  0  0  0
  2  7  1  0  0  0  0
  3  8  1  0  0  0  0
  3  2  2  0  0  0  0
  4  3  1  0  0  0  0
  5  4  2  0  0  0  0
  5  6  1  0  0  0  0
  6  1  2  0  0  0  0
  9 15  1  0  0  0  0
  9 10  1  0  0  0  0
 10 16  1  0  0  0  0
 11 10  2  0  0  0  0
 11 17  1  0  0  0  0
 12 11  1  0  0  0  0
 13 14  1  0  0  0  0
 13 12  2  0  0  0  0
 14  9  2  0  0  0  0
 18  5  1  0  0  0  0
 19 23  1  0  0  0  0
 19 18  1  0  0  0  0
 20 21  1  0  0  0  0
 20 19  2  0  0  0  0
 21 22  1  0  0  0  0
 22 18  2  0  0  0  0
 24 20  1  0  0  0  0
 25 26  1  0  0  0  0
 25 21  1  0  0  0  0
M  END
>  <minimizedAffinity>
-4.22402668

>  <minimizedRMSD>
1.058478

$$$$
