
 OpenBabel03262519503D

 20 20  0  0  0  0  0  0  0  0999 V2000
   40.2120   24.9070   35.1820 C   0  0  0  0  0  0  0  0  0  0  0  0
   39.7070   23.8870   36.0330 C   0  0  0  0  0  0  0  0  0  0  0  0
   38.4280   24.2010   36.3700 C   0  0  0  0  0  0  0  0  0  0  0  0
   37.7590   25.3340   35.9410 N   0  0  0  0  0  0  0  0  0  0  0  0
   38.3220   26.2280   35.1450 C   0  0  0  0  0  0  0  0  0  0  0  0
   39.5640   26.0070   34.7650 N   0  0  0  0  0  0  0  0  0  0  0  0
   41.2440   24.8900   34.7600 H   0  0  0  0  0  0  0  0  0  0  0  0
   37.6690   27.0470   34.9070 H   0  0  0  0  0  0  0  0  0  0  0  0
   40.5930   22.8260   36.3350 C   0  0  0  0  0  0  0  0  0  0  0  0
   41.0030   22.8700   37.7160 F   0  0  0  0  0  0  0  0  0  0  0  0
   41.8790   22.8480   35.9360 F   0  0  0  0  0  0  0  0  0  0  0  0
   40.0440   21.5500   36.5290 F   0  0  0  0  0  0  0  0  0  0  0  0
   37.8170   23.2260   37.2030 C   0  0  0  0  0  0  0  0  0  0  0  0
   38.0660   22.1580   37.0030 H   0  0  0  0  0  0  0  0  0  0  0  0
   36.7100   23.2310   36.9240 H   0  0  0  0  0  0  0  0  0  0  0  0
   37.8990   23.4850   38.6120 C   0  0  0  0  0  0  0  0  0  0  0  0
   37.0680   23.1130   39.2460 H   0  0  0  0  0  0  0  0  0  0  0  0
   38.8640   23.0750   39.0340 H   0  0  0  0  0  0  0  0  0  0  0  0
   37.9740   24.8770   38.8330 O   0  0  0  0  0  0  0  0  0  0  0  0
   38.4420   25.0430   39.7130 H   0  0  0  0  0  0  0  0  0  0  0  0
  1  2  1  0  0  0  0
  2  9  1  0  0  0  0
  2  3  2  0  0  0  0
  3 13  1  0  0  0  0
  4  3  1  0  0  0  0
  5  4  2  0  0  0  0
  6  5  1  0  0  0  0
  6  1  2  0  0  0  0
  7  1  1  0  0  0  0
  8  5  1  0  0  0  0
  9 12  1  0  0  0  0
  9 10  1  0  0  0  0
 11  9  1  0  0  0  0
 13 16  1  0  0  0  0
 14 13  1  0  0  0  0
 15 13  1  0  0  0  0
 16 19  1  0  0  0  0
 16 18  1  0  0  0  0
 16 17  1  0  0  0  0
 19 20  1  0  0  0  0
M  END
>  <minimizedAffinity>
-3.4685657

>  <minimizedRMSD>
0.727707982

$$$$
