
 OpenBabel03262518433D

 32 35  0  0  1  0  0  0  0  0999 V2000
   38.0270   23.5440   30.9190 C   0  0  0  0  0  0  0  0  0  0  0  0
   36.7230   24.0670   31.0240 C   0  0  0  0  0  0  0  0  0  0  0  0
   36.5290   25.2670   31.6890 C   0  0  0  0  0  0  0  0  0  0  0  0
   37.6320   25.8870   32.2150 N   0  0  0  0  0  0  0  0  0  0  0  0
   38.8540   25.3630   32.0990 C   0  0  0  0  0  0  0  0  0  0  0  0
   39.0640   24.2000   31.4570 N   0  0  0  0  0  0  0  0  0  0  0  0
   39.9280   26.0980   32.6880 N   0  0  0  0  0  0  0  0  0  0  0  0
   40.4000   27.0300   31.9230 N   0  0  0  0  0  0  0  0  0  0  0  0
   41.4140   27.6640   32.5810 C   0  0  0  0  0  0  0  0  0  0  0  0
   41.5480   27.0800   33.7870 C   0  0  0  0  0  0  0  0  0  0  0  0
   40.5970   26.0780   33.8550 C   0  0  0  0  0  0  0  0  0  0  0  0
   35.8820   23.5400   30.5900 H   0  0  0  0  0  0  0  0  0  0  0  0
   35.5500   25.7190   31.8000 H   0  0  0  0  0  0  0  0  0  0  0  0
   42.0340   28.4870   32.2490 H   0  0  0  0  0  0  0  0  0  0  0  0
   42.1990   27.2320   34.6340 H   0  0  0  0  0  0  0  0  0  0  0  0
   40.1940   25.0870   34.8330 C   0  0  0  0  0  0  0  0  0  0  0  0
   40.7360   23.9250   35.2050 N   0  0  0  0  0  0  0  0  0  0  0  0
   40.0210   23.3670   36.1300 O   0  0  0  0  0  0  0  0  0  0  0  0
   38.9940   24.1990   36.3530 C   0  0  0  0  0  0  0  0  0  0  0  0
   39.0600   25.2830   35.5680 N   0  0  0  0  0  0  0  0  0  0  0  0
   37.8810   23.9830   37.3530 C   0  0  2  0  0  0  0  0  0  0  0  0
   37.9320   24.7030   38.6610 C   0  0  0  0  0  0  0  0  0  0  0  0
   38.1590   23.2030   38.5900 C   0  0  1  0  0  0  0  0  0  0  0  0
   36.9020   24.0600   36.8600 H   0  0  0  0  0  0  0  0  0  0  0  0
   38.8130   25.2720   38.9690 H   0  0  0  0  0  0  0  0  0  0  0  0
   36.9840   24.9990   39.1360 H   0  0  0  0  0  0  0  0  0  0  0  0
   39.1980   22.8300   38.6860 H   0  0  0  0  0  0  0  0  0  0  0  0
   37.1400   22.3340   38.9650 O   0  0  0  0  0  0  0  0  0  0  0  0
   37.3380   21.3910   38.8500 H   0  0  0  0  0  0  0  0  0  0  0  0
   38.2330   22.3090   30.2350 N   0  0  0  0  0  0  0  0  0  0  0  0
   37.7050   21.9920   29.4180 H   0  0  0  0  0  0  0  0  0  0  0  0
   38.9900   21.7020   30.6230 H   0  0  0  0  0  0  0  0  0  0  0  0
  1  2  2  0  0  0  0
  1  6  1  0  0  0  0
  2  3  1  0  0  0  0
  3 13  1  0  0  0  0
  3  4  2  0  0  0  0
  5  4  1  0  0  0  0
  5  7  1  0  0  0  0
  6  5  2  0  0  0  0
  7 11  1  0  0  0  0
  8  9  2  0  0  0  0
  8  7  1  0  0  0  0
  9 10  1  0  0  0  0
 10 11  2  0  0  0  0
 10 15  1  0  0  0  0
 11 16  1  0  0  0  0
 12  2  1  0  0  0  0
 14  9  1  0  0  0  0
 16 17  2  0  0  0  0
 16 20  1  0  0  0  0
 17 18  1  0  0  0  0
 18 19  1  0  0  0  0
 19 21  1  0  0  0  0
 20 19  2  0  0  0  0
 21 24  1  6  0  0  0
 21 23  1  0  0  0  0
 21 22  1  0  0  0  0
 22 25  1  0  0  0  0
 22 26  1  0  0  0  0
 23 22  1  0  0  0  0
 23 27  1  1  0  0  0
 23 28  1  0  0  0  0
 29 28  1  0  0  0  0
 30 32  1  0  0  0  0
 30  1  1  0  0  0  0
 31 30  1  0  0  0  0
M  END
>  <minimizedAffinity>
-5.01032686

>  <minimizedRMSD>
0.14210622

$$$$
