
 OpenBabel03262513413D

 32 34  0  0  0  0  0  0  0  0999 V2000
   38.7570   25.1850   34.0350 C   0  0  0  0  0  0  0  0  0  0  0  0
   38.6520   24.2760   35.1160 C   0  0  0  0  0  0  0  0  0  0  0  0
   38.6120   24.8280   36.3830 C   0  0  0  0  0  0  0  0  0  0  0  0
   38.6760   26.2030   36.5280 N   0  0  0  0  0  0  0  0  0  0  0  0
   38.7750   27.0290   35.4720 C   0  0  0  0  0  0  0  0  0  0  0  0
   38.8150   26.5230   34.2250 N   0  0  0  0  0  0  0  0  0  0  0  0
   38.7920   24.8100   33.0220 H   0  0  0  0  0  0  0  0  0  0  0  0
   38.8240   28.1010   35.6070 H   0  0  0  0  0  0  0  0  0  0  0  0
   38.3680   23.9110   37.5080 C   0  0  0  0  0  0  0  0  0  0  0  0
   37.8240   22.9970   37.2650 H   0  0  0  0  0  0  0  0  0  0  0  0
   37.8990   24.4940   38.7250 C   0  0  0  0  0  0  0  0  0  0  0  0
   38.2240   23.8690   39.6080 H   0  0  0  0  0  0  0  0  0  0  0  0
   36.7920   24.4590   38.7670 H   0  0  0  0  0  0  0  0  0  0  0  0
   38.2180   25.5330   38.9600 H   0  0  0  0  0  0  0  0  0  0  0  0
   39.7710   23.1270   37.7350 C   0  0  0  0  0  0  0  0  0  0  0  0
   39.5870   22.3970   38.5190 H   0  0  0  0  0  0  0  0  0  0  0  0
   40.4960   23.8920   38.0370 H   0  0  0  0  0  0  0  0  0  0  0  0
   39.9880   22.6390   36.7900 H   0  0  0  0  0  0  0  0  0  0  0  0
   38.6100   22.9770   34.8060 O   0  0  0  0  0  0  0  0  0  0  0  0
   36.0590   20.4680   32.0430 N   0  0  0  0  0  0  0  0  0  0  0  0
   37.0550   21.1400   31.4510 C   0  0  0  0  0  0  0  0  0  0  0  0
   37.7820   21.8670   32.3060 N   0  0  0  0  0  0  0  0  0  0  0  0
   37.2540   21.6810   33.5450 C   0  0  0  0  0  0  0  0  0  0  0  0
   37.5410   22.1430   34.8500 C   0  0  0  0  0  0  0  0  0  0  0  0
   36.7160   21.6660   35.7890 N   0  0  0  0  0  0  0  0  0  0  0  0
   35.7170   20.8440   35.5690 C   0  0  0  0  0  0  0  0  0  0  0  0
   35.4190   20.3900   34.3540 N   0  0  0  0  0  0  0  0  0  0  0  0
   36.2050   20.8170   33.3220 C   0  0  0  0  0  0  0  0  0  0  0  0
   35.3520   19.8340   31.6120 H   0  0  0  0  0  0  0  0  0  0  0  0
   37.3070   21.1400   30.3790 H   0  0  0  0  0  0  0  0  0  0  0  0
   35.0030   20.4930   36.7210 O   0  0  0  0  0  0  0  0  0  0  0  0
   34.9670   21.0790   37.5400 H   0  0  0  0  0  0  0  0  0  0  0  0
  1  6  2  0  0  0  0
  1  2  1  0  0  0  0
  2  3  2  0  0  0  0
  3  4  1  0  0  0  0
  3  9  1  0  0  0  0
  5  8  1  0  0  0  0
  5  4  2  0  0  0  0
  6  5  1  0  0  0  0
  7  1  1  0  0  0  0
  9 15  1  0  0  0  0
  9 11  1  0  0  0  0
 10  9  1  0  0  0  0
 11 13  1  0  0  0  0
 11 14  1  0  0  0  0
 11 12  1  0  0  0  0
 15 17  1  0  0  0  0
 15 16  1  0  0  0  0
 18 15  1  0  0  0  0
 19 24  1  0  0  0  0
 19  2  1  0  0  0  0
 20 28  1  0  0  0  0
 21 20  1  0  0  0  0
 21 22  2  0  0  0  0
 22 23  1  0  0  0  0
 23 24  1  0  0  0  0
 24 25  2  0  0  0  0
 26 25  1  0  0  0  0
 26 31  1  0  0  0  0
 27 26  2  0  0  0  0
 28 23  2  0  0  0  0
 28 27  1  0  0  0  0
 29 20  1  0  0  0  0
 30 21  1  0  0  0  0
 31 32  1  0  0  0  0
M  END
>  <minimizedAffinity>
-5.10525084

>  <minimizedRMSD>
0.505277395

$$$$
