
 OpenBabel03262514023D

 39 42  0  0  0  0  0  0  0  0999 V2000
   37.7390   25.5350   34.7390 C   0  0  0  0  0  0  0  0  0  0  0  0
   37.9500   25.6690   36.0960 C   0  0  0  0  0  0  0  0  0  0  0  0
   38.2750   24.5990   36.9050 C   0  0  0  0  0  0  0  0  0  0  0  0
   38.3870   23.3910   36.3430 N   0  0  0  0  0  0  0  0  0  0  0  0
   38.1780   23.2640   35.0090 C   0  0  0  0  0  0  0  0  0  0  0  0
   37.8620   24.2910   34.2110 N   0  0  0  0  0  0  0  0  0  0  0  0
   37.8490   26.6680   36.5040 H   0  0  0  0  0  0  0  0  0  0  0  0
   38.4270   24.7700   37.9480 H   0  0  0  0  0  0  0  0  0  0  0  0
   37.3070   27.9510   32.1710 C   0  0  0  0  0  0  0  0  0  0  0  0
   36.5490   28.5660   33.1850 C   0  0  0  0  0  0  0  0  0  0  0  0
   36.6130   27.7260   34.2970 C   0  0  0  0  0  0  0  0  0  0  0  0
   37.3970   26.6640   33.8980 C   0  0  0  0  0  0  0  0  0  0  0  0
   37.7820   26.8250   32.6660 O   0  0  0  0  0  0  0  0  0  0  0  0
   36.0160   29.5050   33.1230 H   0  0  0  0  0  0  0  0  0  0  0  0
   36.1380   27.9160   35.2280 H   0  0  0  0  0  0  0  0  0  0  0  0
   36.8910   29.7670   30.5030 C   0  0  0  0  0  0  0  0  0  0  0  0
   37.4620   28.5510   30.8630 C   0  0  0  0  0  0  0  0  0  0  0  0
   38.2160   27.8960   29.9010 C   0  0  0  0  0  0  0  0  0  0  0  0
   38.3620   28.4640   28.6670 N   0  0  0  0  0  0  0  0  0  0  0  0
   37.7790   29.6610   28.3680 C   0  0  0  0  0  0  0  0  0  0  0  0
   37.0590   30.2850   29.2900 N   0  0  0  0  0  0  0  0  0  0  0  0
   36.2980   30.2860   31.2530 H   0  0  0  0  0  0  0  0  0  0  0  0
   38.6920   26.9380   30.1110 H   0  0  0  0  0  0  0  0  0  0  0  0
   37.9200   30.0770   27.3790 H   0  0  0  0  0  0  0  0  0  0  0  0
   38.2950   21.9370   34.3610 C   0  0  0  0  0  0  0  0  0  0  0  0
   39.2640   21.5100   34.6920 H   0  0  0  0  0  0  0  0  0  0  0  0
   37.5090   21.2300   34.6700 H   0  0  0  0  0  0  0  0  0  0  0  0
   38.2830   22.1580   32.8480 C   0  0  0  0  0  0  0  0  0  0  0  0
   39.2920   21.9370   32.4380 H   0  0  0  0  0  0  0  0  0  0  0  0
   38.0340   23.1910   32.5810 H   0  0  0  0  0  0  0  0  0  0  0  0
   37.3320   21.2680   32.2250 C   0  0  0  0  0  0  0  0  0  0  0  0
   37.1790   20.6180   31.0500 C   0  0  0  0  0  0  0  0  0  0  0  0
   36.1230   19.8240   30.7800 C   0  0  0  0  0  0  0  0  0  0  0  0
   35.1700   19.7250   31.8460 C   0  0  0  0  0  0  0  0  0  0  0  0
   35.8420   20.7720   33.1690 S   0  0  0  0  0  0  0  0  0  0  0  0
   37.9920   20.8070   30.3630 H   0  0  0  0  0  0  0  0  0  0  0  0
   35.9680   19.2920   29.8580 H   0  0  0  0  0  0  0  0  0  0  0  0
   34.0050   19.0110   31.8900 O   0  0  0  0  0  0  0  0  0  0  0  0
   33.8490   18.1280   31.3960 H   0  0  0  0  0  0  0  0  0  0  0  0
  1  2  1  0  0  0  0
  2  7  1  0  0  0  0
  2  3  2  0  0  0  0
  3  8  1  0  0  0  0
  4  3  1  0  0  0  0
  5  4  2  0  0  0  0
  6  1  2  0  0  0  0
  6  5  1  0  0  0  0
  9 13  1  0  0  0  0
  9 10  2  0  0  0  0
 10 11  1  0  0  0  0
 11 15  1  0  0  0  0
 12 11  2  0  0  0  0
 12  1  1  0  0  0  0
 13 12  1  0  0  0  0
 14 10  1  0  0  0  0
 16 17  1  0  0  0  0
 16 22  1  0  0  0  0
 17  9  1  0  0  0  0
 18 23  1  0  0  0  0
 18 17  2  0  0  0  0
 19 18  1  0  0  0  0
 20 19  2  0  0  0  0
 20 21  1  0  0  0  0
 21 16  2  0  0  0  0
 24 20  1  0  0  0  0
 25 27  1  0  0  0  0
 25 26  1  0  0  0  0
 25  5  1  0  0  0  0
 28 25  1  0  0  0  0
 29 28  1  0  0  0  0
 30 28  1  0  0  0  0
 31 28  1  0  0  0  0
 31 35  1  0  0  0  0
 32 31  2  0  0  0  0
 33 32  1  0  0  0  0
 33 34  2  0  0  0  0
 34 38  1  0  0  0  0
 34 35  1  0  0  0  0
 36 32  1  0  0  0  0
 37 33  1  0  0  0  0
 39 38  1  0  0  0  0
M  END
>  <minimizedAffinity>
-5.5284276

>  <minimizedRMSD>
0.205245376

$$$$
