
     RDKit          3D

 28 30  0  0  0  0  0  0  0  0999 V2000
   37.8656   23.7003   33.5009 C   0  0  0  0  0  0  0  0  0  0  0  0
   37.4595   22.6560   32.6723 C   0  0  0  0  0  0  0  0  0  0  0  0
   37.4845   21.5647   33.4862 N   0  0  0  0  0  0  0  0  0  0  0  0
   37.8776   21.9666   34.6917 C   0  0  0  0  0  0  0  0  0  0  0  0
   38.1174   23.2738   34.7285 N   0  0  0  0  0  0  0  0  0  0  0  0
   38.0116   25.0839   33.0767 C   0  0  0  0  0  0  0  0  0  0  0  0
   39.2955   25.5832   32.7687 C   0  0  0  0  0  0  0  0  0  0  0  0
   39.3923   26.9301   32.3571 C   0  0  0  0  0  0  0  0  0  0  0  0
   38.2439   27.6522   32.2859 N   0  0  0  0  0  0  0  0  0  0  0  0
   37.0314   27.1316   32.5914 C   0  0  0  0  0  0  0  0  0  0  0  0
   36.9114   25.8503   32.9866 N   0  0  0  0  0  0  0  0  0  0  0  0
   38.5403   23.9511   35.8995 C   0  0  1  0  0  0  0  0  0  0  0  0
   38.0733   25.2289   36.3638 C   0  0  0  0  0  0  0  0  0  0  0  0
   37.5561   23.9153   37.0282 C   0  0  2  0  0  0  0  0  0  0  0  0
   38.1172   23.7649   38.4262 C   0  0  0  0  0  0  0  0  0  0  0  0
   37.5195   22.6995   39.0647 F   0  0  0  0  0  0  0  0  0  0  0  0
   39.5129   23.3464   38.3065 F   0  0  0  0  0  0  0  0  0  0  0  0
   38.1372   24.8992   39.1421 F   0  0  0  0  0  0  0  0  0  0  0  0
   37.1844   22.7076   31.6100 H   0  0  0  0  0  0  0  0  0  0  0  0
   37.9695   21.2451   35.5098 H   0  0  0  0  0  0  0  0  0  0  0  0
   40.1676   24.9566   32.8460 H   0  0  0  0  0  0  0  0  0  0  0  0
   40.3665   27.2889   32.1293 H   0  0  0  0  0  0  0  0  0  0  0  0
   36.2189   27.8354   32.4839 H   0  0  0  0  0  0  0  0  0  0  0  0
   39.6270   23.7084   36.1795 H   0  0  0  0  0  0  0  0  0  0  0  0
   37.2849   25.7840   35.8301 H   0  0  0  0  0  0  0  0  0  0  0  0
   38.6829   25.8912   37.0001 H   0  0  0  0  0  0  0  0  0  0  0  0
   36.1543   23.9424   36.9548 O   0  0  0  0  0  0  0  0  0  0  0  0
   35.8414   23.5668   37.8386 H   0  0  0  0  0  0  0  0  0  0  0  0
  1  5  1  0
  2  3  1  0
  2  1  2  0
  3  4  2  0
  4  5  1  0
  5 12  1  0
  6  1  1  0
  7  6  2  0
  8  7  1  0
  9  8  2  0
  9 10  1  0
 10 11  2  0
 11  6  1  0
 12 13  1  0
 12 14  1  0
 13 14  1  0
 14 15  1  0
 15 16  1  0
 15 18  1  0
 17 15  1  0
  2 19  1  0
  4 20  1  0
  7 21  1  0
  8 22  1  0
 10 23  1  0
 12 24  1  1
 13 25  1  0
 13 26  1  0
 27 28  1  0
 14 27  1  6
M  ISO  8  19  14  20  14  21  14  22  14  23  14  24  13  25  13  26  13
M  ISO  1  28   3
M  END
>  <DihAtoms>  (1) 
11,13,26,27

>  <DihDeg>  (1) 
99.65221350307672

$$$$
