REMARK  Name = 
REMARK  6 active torsions:
REMARK  status: ('A' for Active; 'I' for Inactive)
REMARK    1  A    between atoms: C_1  and  C_4
REMARK    2  A    between atoms: C_1  and  C_8
REMARK    3  A    between atoms: C_1  and  C_9
REMARK    4  A    between atoms: C_9  and  N_10
REMARK    5  A    between atoms: C_14  and  C_15
REMARK    6  A    between atoms: C_17  and  N_33
REMARK                            x       y       z     vdW  Elec       q    Type
REMARK                         _______ _______ _______ _____ _____    ______ ____
ROOT
ATOM      1  N   UNL     1      37.584  25.442  33.071  0.00  0.00    +0.000 N 
ATOM      2  C   UNL     1      37.055  24.329  32.545  0.00  0.00    +0.000 A 
ATOM      3  C   UNL     1      36.055  24.562  31.634  0.00  0.00    +0.000 A 
ATOM      4  N   UNL     1      35.959  25.893  31.593  0.00  0.00    +0.000 NA
ATOM      5  C   UNL     1      36.876  26.418  32.455  0.00  0.00    +0.000 A 
ATOM      6  H   UNL     1      37.418  23.330  32.842  0.00  0.00    +0.000 HD
ATOM      7  H   UNL     1      35.509  23.796  31.105  0.00  0.00    +0.000 HD
ENDROOT
BRANCH   5   8
ATOM      8  C   UNL     1      36.997  27.918  32.572  0.00  0.00    +0.000 C 
ATOM      9  C   UNL     1      35.839  28.708  32.085  0.00  0.00    +0.000 C 
ATOM     10  C   UNL     1      36.068  28.601  33.556  0.00  0.00    +0.000 C 
ATOM     11  H   UNL     1      38.044  28.272  32.580  0.00  0.00    +0.000 HD
ATOM     12  H   UNL     1      34.958  28.161  31.692  0.00  0.00    +0.000 HD
ATOM     13  H   UNL     1      36.125  29.571  31.475  0.00  0.00    +0.000 HD
ATOM     14  H   UNL     1      35.395  27.969  34.132  0.00  0.00    +0.000 HD
BRANCH  10  15
ATOM     15  N   UNL     1      36.573  29.782  34.229  0.00  0.00    +0.000 N 
ATOM     16  C   UNL     1      36.500  30.005  35.573  0.00  0.00    +0.000 A 
ATOM     17  N   UNL     1      37.063  31.204  35.887  0.00  0.00    +0.000 NA
ATOM     18  C   UNL     1      37.507  31.769  34.736  0.00  0.00    +0.000 A 
ATOM     19  C   UNL     1      38.145  32.953  34.442  0.00  0.00    +0.000 A 
ATOM     20  O   UNL     1      38.434  33.772  35.344  0.00  0.00    +0.000 OA
ATOM     21  N   UNL     1      38.471  33.247  33.153  0.00  0.00    +0.000 N 
ATOM     22  C   UNL     1      38.151  32.351  32.187  0.00  0.00    +0.000 A 
ATOM     23  N   UNL     1      38.510  32.694  30.846  0.00  0.00    +0.000 N 
ATOM     24  N   UNL     1      37.527  31.200  32.497  0.00  0.00    +0.000 NA
ATOM     25  C   UNL     1      37.188  30.870  33.750  0.00  0.00    +0.000 A 
ATOM     26  H   UNL     1      38.951  34.150  32.981  0.00  0.00    +0.000 HD
ATOM     27  H   UNL     1      39.350  33.269  30.623  0.00  0.00    +0.000 HD
ATOM     28  H   UNL     1      38.016  32.436  29.954  0.00  0.00    +0.000 HD
ENDBRANCH  10  15
ENDBRANCH   5   8
BRANCH   1  29
ATOM     29  C   UNL     1      38.588  25.718  34.022  0.00  0.00    +0.000 C 
ATOM     30  H   UNL     1      39.369  24.916  33.968  0.00  0.00    +0.000 HD
ATOM     31  H   UNL     1      39.113  26.676  33.784  0.00  0.00    +0.000 HD
BRANCH  29  32
ATOM     32  C   UNL     1      38.088  25.766  35.418  0.00  0.00    +0.000 C 
ATOM     33  H   UNL     1      36.967  25.620  35.416  0.00  0.00    +0.000 HD
BRANCH  32  36
ATOM     34  C   UNL     1      38.635  23.375  38.304  0.00  0.00    +0.000 A 
ATOM     35  C   UNL     1      38.043  24.409  37.563  0.00  0.00    +0.000 A 
ATOM     36  C   UNL     1      38.638  24.708  36.293  0.00  0.00    +0.000 A 
ATOM     37  N   UNL     1      39.739  23.985  35.865  0.00  0.00    +0.000 NA
ATOM     38  C   UNL     1      40.262  23.011  36.613  0.00  0.00    +0.000 A 
ATOM     39  N   UNL     1      39.707  22.700  37.845  0.00  0.00    +0.000 NA
ATOM     40  H   UNL     1      38.174  23.164  39.257  0.00  0.00    +0.000 HD
ATOM     41  H   UNL     1      37.197  24.984  37.859  0.00  0.00    +0.000 HD
ATOM     42  H   UNL     1      41.121  22.441  36.290  0.00  0.00    +0.000 HD
ENDBRANCH  32  36
BRANCH  32  43
ATOM     43  C   UNL     1      38.342  27.139  36.033  0.00  0.00    +0.000 C 
ATOM     44  H   UNL     1      39.264  27.040  36.672  0.00  0.00    +0.000 HD
ATOM     45  H   UNL     1      37.517  27.357  36.743  0.00  0.00    +0.000 HD
ATOM     46  H   UNL     1      38.507  27.903  35.269  0.00  0.00    +0.000 HD
ENDBRANCH  32  43
ENDBRANCH  29  32
ENDBRANCH   1  29
TORSDOF 6
