
 OpenBabel03262519563D

 37 41  0  0  1  0  0  0  0  0999 V2000
   38.1730   21.8670   31.9690 C   0  0  1  0  0  0  0  0  0  0  0  0
   38.4790   23.0390   31.1710 C   0  0  0  0  0  0  0  0  0  0  0  0
   37.3800   23.1520   32.1970 C   0  0  2  0  0  0  0  0  0  0  0  0
   38.8830   21.5480   32.7570 H   0  0  0  0  0  0  0  0  0  0  0  0
   39.4600   23.5210   31.3560 H   0  0  0  0  0  0  0  0  0  0  0  0
   38.1240   23.1740   30.1260 H   0  0  0  0  0  0  0  0  0  0  0  0
   36.3320   23.2190   31.8600 H   0  0  0  0  0  0  0  0  0  0  0  0
   37.6890   24.0260   33.2850 N   0  0  0  0  0  0  0  0  0  0  0  0
   38.3300   23.8380   34.4520 C   0  0  0  0  0  3  0  0  0  0  0  0
   38.3510   25.0180   35.1360 N   0  0  0  0  0  0  0  0  0  0  0  0
   37.7220   25.9490   34.3960 C   0  0  0  0  0  0  0  0  0  0  0  0
   37.4820   27.2870   34.6480 C   0  0  0  0  0  0  0  0  0  0  0  0
   37.8670   27.8470   35.7150 O   0  0  0  0  0  0  0  0  0  0  0  0
   36.8210   28.0380   33.7470 N   0  0  0  0  0  0  0  0  0  0  0  0
   36.4190   27.4080   32.6090 C   0  0  0  0  0  0  0  0  0  0  0  0
   35.7220   28.1180   31.6120 N   0  0  0  0  0  0  0  0  0  0  0  0
   36.6450   26.1040   32.3450 N   0  0  0  0  0  0  0  0  0  0  0  0
   37.3020   25.3200   33.2220 C   0  0  0  0  0  0  0  0  0  0  0  0
   36.6100   29.0550   33.8810 H   0  0  0  0  0  0  0  0  0  0  0  0
   36.3060   28.9560   31.3350 H   0  0  0  0  0  0  0  0  0  0  0  0
   34.8400   28.0960   31.0650 H   0  0  0  0  0  0  0  0  0  0  0  0
   37.5180   19.8610   30.5560 C   0  0  0  0  0  0  0  0  0  0  0  0
   36.4250   19.0290   30.4230 C   0  0  0  0  0  0  0  0  0  0  0  0
   35.5380   19.5130   31.3400 N   0  0  0  0  0  0  0  0  0  0  0  0
   36.0940   20.5420   31.9440 C   0  0  0  0  0  0  0  0  0  0  0  0
   37.3340   20.7900   31.4800 N   0  0  0  0  0  0  0  0  0  0  0  0
   36.2430   18.1940   29.7840 H   0  0  0  0  0  0  0  0  0  0  0  0
   35.5910   21.1150   32.7300 H   0  0  0  0  0  0  0  0  0  0  0  0
   38.7470   19.7480   29.7780 C   0  0  0  0  0  0  0  0  0  0  0  0
   39.8270   18.9970   30.2510 C   0  0  0  0  0  0  0  0  0  0  0  0
   40.9940   18.9050   29.4830 C   0  0  0  0  0  0  0  0  0  0  0  0
   41.0050   19.5620   28.3080 N   0  0  0  0  0  0  0  0  0  0  0  0
   39.9570   20.2920   27.8500 C   0  0  0  0  0  0  0  0  0  0  0  0
   38.8310   20.3810   28.5880 N   0  0  0  0  0  0  0  0  0  0  0  0
   39.7680   18.4940   31.1890 H   0  0  0  0  0  0  0  0  0  0  0  0
   41.8540   18.3380   29.8030 H   0  0  0  0  0  0  0  0  0  0  0  0
   39.9460   20.8230   26.9170 H   0  0  0  0  0  0  0  0  0  0  0  0
  1  3  1  0  0  0  0
  1  4  1  1  0  0  0
  2  5  1  0  0  0  0
  2  1  1  0  0  0  0
  2  3  1  0  0  0  0
  3  7  1  6  0  0  0
  3  8  1  0  0  0  0
  6  2  1  0  0  0  0
  8  9  1  0  0  0  0
  9 10  2  0  0  0  0
 11 12  1  0  0  0  0
 11 10  1  0  0  0  0
 12 13  2  0  0  0  0
 14 19  1  0  0  0  0
 14 12  1  0  0  0  0
 15 14  1  0  0  0  0
 16 15  1  0  0  0  0
 17 15  2  0  0  0  0
 17 18  1  0  0  0  0
 18  8  1  0  0  0  0
 18 11  2  0  0  0  0
 20 16  1  0  0  0  0
 21 16  1  0  0  0  0
 22 26  1  0  0  0  0
 23 22  2  0  0  0  0
 23 24  1  0  0  0  0
 24 25  2  0  0  0  0
 25 28  1  0  0  0  0
 26 25  1  0  0  0  0
 26  1  1  0  0  0  0
 27 23  1  0  0  0  0
 29 30  1  0  0  0  0
 29 22  1  0  0  0  0
 30 35  1  0  0  0  0
 31 36  1  0  0  0  0
 31 30  2  0  0  0  0
 32 31  1  0  0  0  0
 33 32  2  0  0  0  0
 33 34  1  0  0  0  0
 34 29  2  0  0  0  0
 37 33  1  0  0  0  0
M  END
>  <minimizedAffinity>
-4.12866497

>  <minimizedRMSD>
8.16430664

$$$$
