
     RDKit          3D

 38 42  0  0  0  0  0  0  0  0999 V2000
   38.0288   23.4738   34.6135 C   0  0  0  0  0  0  0  0  0  0  0  0
   38.2618   24.5626   33.7984 C   0  0  0  0  0  0  0  0  0  0  0  0
   37.7654   24.1707   32.5888 N   0  0  0  0  0  0  0  0  0  0  0  0
   37.2890   22.9514   32.7166 C   0  0  0  0  0  0  0  0  0  0  0  0
   37.4358   22.4806   33.9710 N   0  0  0  0  0  0  0  0  0  0  0  0
   38.3874   23.4039   36.0269 C   0  0  0  0  0  0  0  0  0  0  0  0
   39.5883   22.8143   36.4324 C   0  0  0  0  0  0  0  0  0  0  0  0
   39.9061   22.7614   37.7941 C   0  0  0  0  0  0  0  0  0  0  0  0
   39.0158   23.2936   38.6506 N   0  0  0  0  0  0  0  0  0  0  0  0
   37.8496   23.8662   38.2566 C   0  0  0  0  0  0  0  0  0  0  0  0
   37.5408   23.9185   36.9440 N   0  0  0  0  0  0  0  0  0  0  0  0
   36.9988   21.1637   34.3914 C   0  0  1  0  0  0  0  0  0  0  0  0
   35.8481   20.9638   35.2525 C   0  0  0  0  0  0  0  0  0  0  0  0
   35.6594   20.7805   33.7673 C   0  0  2  0  0  0  0  0  0  0  0  0
   38.7124   25.5108   33.9908 H   0  0  0  0  0  0  0  0  0  0  0  0
   36.8305   22.3989   31.8905 H   0  0  0  0  0  0  0  0  0  0  0  0
   40.2613   22.4060   35.7128 H   0  0  0  0  0  0  0  0  0  0  0  0
   40.8204   22.3170   38.1577 H   0  0  0  0  0  0  0  0  0  0  0  0
   37.1263   24.2962   38.9239 H   0  0  0  0  0  0  0  0  0  0  0  0
   37.8092   20.4088   34.3874 H   0  0  0  0  0  0  0  0  0  0  0  0
   35.8779   20.0793   35.9188 H   0  0  0  0  0  0  0  0  0  0  0  0
   35.2501   21.8010   35.6726 H   0  0  0  0  0  0  0  0  0  0  0  0
   35.0811   21.5300   33.1999 H   0  0  0  0  0  0  0  0  0  0  0  0
   35.3847   19.4319   33.3791 N   0  0  0  0  0  0  0  0  0  0  0  0
   34.2738   18.6772   33.4315 C   0  0  0  0  0  0  0  0  0  0  0  0
   34.5595   17.4423   32.9246 N   0  0  0  0  0  0  0  0  0  0  0  0
   35.8524   17.4238   32.5538 C   0  0  0  0  0  0  0  0  0  0  0  0
   36.6122   16.4147   31.9912 C   0  0  0  0  0  0  0  0  0  0  0  0
   36.1269   15.2747   31.7342 O   0  0  0  0  0  0  0  0  0  0  0  0
   37.9089   16.6271   31.6990 N   0  0  0  0  0  0  0  0  0  0  0  0
   38.4020   17.8624   31.9866 C   0  0  0  0  0  0  0  0  0  0  0  0
   39.7493   18.1710   31.7135 N   0  0  0  0  0  0  0  0  0  0  0  0
   37.6761   18.8592   32.5354 N   0  0  0  0  0  0  0  0  0  0  0  0
   36.3759   18.6854   32.8419 C   0  0  0  0  0  0  0  0  0  0  0  0
   33.3268   19.0689   33.8338 H   0  0  0  0  0  0  0  0  0  0  0  0
   38.5336   15.9035   31.2731 H   0  0  0  0  0  0  0  0  0  0  0  0
   39.9296   17.9746   30.6888 H   0  0  0  0  0  0  0  0  0  0  0  0
   40.6116   18.5208   32.1715 H   0  0  0  0  0  0  0  0  0  0  0  0
  1  6  1  0
  2  1  2  0
  3  4  2  0
  3  2  1  0
  4  5  1  0
  5 12  1  0
  5  1  1  0
  6  7  2  0
  6 11  1  0
  7  8  1  0
  8  9  2  0
 10  9  1  0
 11 10  2  0
 12 13  1  0
 14 12  1  0
 14 13  1  0
  2 15  1  0
  4 16  1  0
  7 17  1  0
  8 18  1  0
 10 19  1  0
 12 20  1  1
 13 21  1  0
 13 22  1  0
 14 23  1  6
 24 25  1  0
 25 26  2  0
 26 27  1  0
 27 28  1  0
 28 29  2  0
 28 30  1  0
 30 31  1  0
 31 32  1  0
 31 33  2  0
 33 34  1  0
 34 24  1  0
 34 27  2  0
 25 35  1  0
 30 36  1  0
 32 37  1  0
 32 38  1  0
 14 24  1  0
M  ISO  8  15  14  16  14  17  14  18  14  19  14  20  13  21  13  22  13
M  ISO  1  23  13
M  END
>  <DihAtoms>  (1) 
11,13,23,24

>  <DihDeg>  (1) 
-52.388992722848045

$$$$
