
 OpenBabel03262517243D

 44 48  0  0  0  0  0  0  0  0999 V2000
   39.6170   23.5850   35.2010 N   0  0  0  0  0  0  0  0  0  0  0  0
   40.2490   22.5950   34.5920 N   0  0  0  0  0  0  0  0  0  0  0  0
   40.4450   22.8770   33.3000 C   0  0  0  0  0  0  0  0  0  0  0  0
   39.8890   24.1280   33.1120 C   0  0  0  0  0  0  0  0  0  0  0  0
   39.3640   24.5770   34.3180 C   0  0  0  0  0  0  0  0  0  0  0  0
   40.9410   22.1920   32.6500 H   0  0  0  0  0  0  0  0  0  0  0  0
   39.9040   24.7700   31.8430 N   0  0  0  0  0  0  0  0  0  0  0  0
   40.7900   25.4880   31.1230 C   0  0  0  0  0  0  0  0  0  0  0  0
   40.1880   25.8460   29.9250 C   0  0  0  0  0  0  0  0  0  0  0  0
   38.9490   25.3430   29.9350 N   0  0  0  0  0  0  0  0  0  0  0  0
   38.7680   24.6890   31.0960 C   0  0  0  0  0  0  0  0  0  0  0  0
   41.7710   25.6660   31.5540 H   0  0  0  0  0  0  0  0  0  0  0  0
   40.7140   26.4310   29.1830 H   0  0  0  0  0  0  0  0  0  0  0  0
   37.4660   24.0900   31.2430 N   0  0  0  0  0  0  0  0  0  0  0  0
   36.2370   24.5220   31.5500 C   0  0  0  0  0  0  0  0  0  0  0  0
   35.3880   23.4840   31.5380 N   0  0  0  0  0  0  0  0  0  0  0  0
   36.0650   22.3800   31.2240 C   0  0  0  0  0  0  0  0  0  0  0  0
   35.6770   21.0560   31.0750 C   0  0  0  0  0  0  0  0  0  0  0  0
   34.4940   20.6780   31.2370 O   0  0  0  0  0  0  0  0  0  0  0  0
   36.5560   20.1010   30.7460 N   0  0  0  0  0  0  0  0  0  0  0  0
   37.8380   20.4790   30.5660 C   0  0  0  0  0  0  0  0  0  0  0  0
   38.9680   19.6620   30.2120 N   0  0  0  0  0  0  0  0  0  0  0  0
   38.2260   21.7380   30.7030 N   0  0  0  0  0  0  0  0  0  0  0  0
   37.3760   22.7530   31.0360 C   0  0  0  0  0  0  0  0  0  0  0  0
   36.4030   19.0910   30.6060 H   0  0  0  0  0  0  0  0  0  0  0  0
   39.3520   19.3740   31.1590 H   0  0  0  0  0  0  0  0  0  0  0  0
   39.3820   19.3690   29.2800 H   0  0  0  0  0  0  0  0  0  0  0  0
   38.0640   24.2120   36.9710 C   0  0  0  0  0  0  0  0  0  0  0  0
   39.2570   23.6060   36.5650 C   0  0  0  0  0  0  0  0  0  0  0  0
   40.0910   23.0190   37.5260 C   0  0  0  0  0  0  0  0  0  0  0  0
   39.6720   23.0800   38.8300 N   0  0  0  0  0  0  0  0  0  0  0  0
   38.5350   23.6610   39.1980 C   0  0  0  0  0  0  0  0  0  0  0  0
   37.7200   24.2330   38.2710 N   0  0  0  0  0  0  0  0  0  0  0  0
   37.4020   24.6720   36.2470 H   0  0  0  0  0  0  0  0  0  0  0  0
   41.0090   22.5550   37.1930 H   0  0  0  0  0  0  0  0  0  0  0  0
   38.2630   23.6740   40.2470 H   0  0  0  0  0  0  0  0  0  0  0  0
   38.7090   25.8350   34.5070 N   0  0  0  0  0  0  0  0  0  0  0  0
   39.3460   26.9400   35.1760 C   0  0  0  0  0  0  0  0  0  0  0  0
   40.6470   27.0660   34.9470 N   0  0  0  0  0  0  0  0  0  0  0  0
   38.5150   27.7690   36.0010 N   0  0  0  0  0  0  0  0  0  0  0  0
   41.0720   27.8780   35.4360 H   0  0  0  0  0  0  0  0  0  0  0  0
   37.7210   25.9360   34.1330 H   0  0  0  0  0  0  0  0  0  0  0  0
   37.8910   28.4580   35.5260 H   0  0  0  0  0  0  0  0  0  0  0  0
   38.6980   27.5100   37.0150 H   0  0  0  0  0  0  0  0  0  0  0  0
  1 29  1  0  0  0  0
  2  1  1  0  0  0  0
  3  2  2  0  0  0  0
  4  3  1  0  0  0  0
  4  5  2  0  0  0  0
  5 37  1  0  0  0  0
  5  1  1  0  0  0  0
  6  3  1  0  0  0  0
  7  4  1  0  0  0  0
  8 12  1  0  0  0  0
  8  7  1  0  0  0  0
  9 10  1  0  0  0  0
  9  8  2  0  0  0  0
 10 11  2  0  0  0  0
 11 14  1  0  0  0  0
 11  7  1  0  0  0  0
 13  9  1  0  0  0  0
 14 15  1  0  0  0  0
 16 15  2  0  0  0  0
 17 16  1  0  0  0  0
 18 17  1  0  0  0  0
 18 19  2  0  0  0  0
 20 18  1  0  0  0  0
 21 23  2  0  0  0  0
 21 20  1  0  0  0  0
 22 21  1  0  0  0  0
 22 26  1  0  0  0  0
 23 24  1  0  0  0  0
 24 17  2  0  0  0  0
 24 14  1  0  0  0  0
 25 20  1  0  0  0  0
 27 22  1  0  0  0  0
 28 33  1  0  0  0  0
 29 28  2  0  0  0  0
 29 30  1  0  0  0  0
 30 31  2  0  0  0  0
 31 32  1  0  0  0  0
 32 36  1  0  0  0  0
 33 32  2  0  0  0  0
 34 28  1  0  0  0  0
 35 30  1  0  0  0  0
 37 38  1  0  0  0  0
 38 40  1  0  0  0  0
 39 38  2  0  0  0  0
 39 41  1  0  0  0  0
 40 44  1  0  0  0  0
 42 37  1  0  0  0  0
 43 40  1  0  0  0  0
M  END
>  <minimizedAffinity>
-5.84788036

>  <minimizedRMSD>
2.26491666

$$$$
