
 OpenBabel03262519563D

 37 41  0  0  1  0  0  0  0  0999 V2000
   37.3710   21.5870   33.9840 C   0  0  1  0  0  0  0  0  0  0  0  0
   36.1740   21.1730   34.6930 C   0  0  0  0  0  0  0  0  0  0  0  0
   36.1330   21.1840   33.1850 C   0  0  2  0  0  0  0  0  0  0  0  0
   38.2470   20.9100   33.9610 H   0  0  0  0  0  0  0  0  0  0  0  0
   36.2300   20.2090   35.2370 H   0  0  0  0  0  0  0  0  0  0  0  0
   35.4640   21.8900   35.1590 H   0  0  0  0  0  0  0  0  0  0  0  0
   35.5370   21.9550   32.6670 H   0  0  0  0  0  0  0  0  0  0  0  0
   36.0250   19.8850   32.5980 N   0  0  0  0  0  0  0  0  0  0  0  0
   35.3550   18.7760   32.9570 C   0  0  0  0  0  3  0  0  0  0  0  0
   35.5970   17.8000   32.0330 N   0  0  0  0  0  0  0  0  0  0  0  0
   36.4190   18.3010   31.0920 C   0  0  0  0  0  0  0  0  0  0  0  0
   36.9500   17.7140   29.9590 C   0  0  0  0  0  0  0  0  0  0  0  0
   36.6980   16.5150   29.6440 O   0  0  0  0  0  0  0  0  0  0  0  0
   37.7640   18.4180   29.1500 N   0  0  0  0  0  0  0  0  0  0  0  0
   38.0160   19.7050   29.5150 C   0  0  0  0  0  0  0  0  0  0  0  0
   38.8570   20.5150   28.7260 N   0  0  0  0  0  0  0  0  0  0  0  0
   37.5070   20.2950   30.6170 N   0  0  0  0  0  0  0  0  0  0  0  0
   36.6900   19.6220   31.4510 C   0  0  0  0  0  0  0  0  0  0  0  0
   38.1950   18.0300   28.2790 H   0  0  0  0  0  0  0  0  0  0  0  0
   38.4730   20.5220   27.7380 H   0  0  0  0  0  0  0  0  0  0  0  0
   39.7130   21.0990   28.7850 H   0  0  0  0  0  0  0  0  0  0  0  0
   38.1840   23.9110   34.6030 C   0  0  0  0  0  0  0  0  0  0  0  0
   38.3650   25.1240   33.9690 C   0  0  0  0  0  0  0  0  0  0  0  0
   37.9680   24.8780   32.6860 N   0  0  0  0  0  0  0  0  0  0  0  0
   37.5930   23.6200   32.6070 C   0  0  0  0  0  0  0  0  0  0  0  0
   37.7140   22.9820   33.7870 N   0  0  0  0  0  0  0  0  0  0  0  0
   38.7210   26.0650   34.3240 H   0  0  0  0  0  0  0  0  0  0  0  0
   37.2290   23.1630   31.6810 H   0  0  0  0  0  0  0  0  0  0  0  0
   38.4720   23.6600   36.0110 C   0  0  0  0  0  0  0  0  0  0  0  0
   39.6520   23.0180   36.3970 C   0  0  0  0  0  0  0  0  0  0  0  0
   39.9030   22.7910   37.7550 C   0  0  0  0  0  0  0  0  0  0  0  0
   38.9700   23.2140   38.6280 N   0  0  0  0  0  0  0  0  0  0  0  0
   37.8240   23.8370   38.2530 C   0  0  0  0  0  0  0  0  0  0  0  0
   37.5800   24.0580   36.9440 N   0  0  0  0  0  0  0  0  0  0  0  0
   40.3610   22.7020   35.6660 H   0  0  0  0  0  0  0  0  0  0  0  0
   40.7980   22.3000   38.1040 H   0  0  0  0  0  0  0  0  0  0  0  0
   37.0670   24.1820   38.9330 H   0  0  0  0  0  0  0  0  0  0  0  0
  1  4  1  6  0  0  0
  1  2  1  0  0  0  0
  2  6  1  0  0  0  0
  2  5  1  0  0  0  0
  3  7  1  6  0  0  0
  3  1  1  0  0  0  0
  3  2  1  0  0  0  0
  8  9  1  0  0  0  0
  8  3  1  0  0  0  0
 10  9  2  0  0  0  0
 11 18  2  0  0  0  0
 11 10  1  0  0  0  0
 12 11  1  0  0  0  0
 13 12  2  0  0  0  0
 14 15  1  0  0  0  0
 14 12  1  0  0  0  0
 15 17  2  0  0  0  0
 16 21  1  0  0  0  0
 16 15  1  0  0  0  0
 17 18  1  0  0  0  0
 18  8  1  0  0  0  0
 19 14  1  0  0  0  0
 20 16  1  0  0  0  0
 22 29  1  0  0  0  0
 23 27  1  0  0  0  0
 23 22  2  0  0  0  0
 24 23  1  0  0  0  0
 25 24  2  0  0  0  0
 25 26  1  0  0  0  0
 26  1  1  0  0  0  0
 26 22  1  0  0  0  0
 28 25  1  0  0  0  0
 29 30  2  0  0  0  0
 29 34  1  0  0  0  0
 30 31  1  0  0  0  0
 31 36  1  0  0  0  0
 31 32  2  0  0  0  0
 33 32  1  0  0  0  0
 33 37  1  0  0  0  0
 34 33  2  0  0  0  0
 35 30  1  0  0  0  0
M  END
>  <minimizedAffinity>
-5.26395702

>  <minimizedRMSD>
1.32968068

$$$$
