
 OpenBabel03262515033D

 27 28  0  0  1  0  0  0  0  0999 V2000
   39.0380   25.3250   35.2900 C   0  0  1  0  0  0  0  0  0  0  0  0
   38.4510   25.8410   36.0740 H   0  0  0  0  0  0  0  0  0  0  0  0
   39.1550   23.5860   37.1650 C   0  0  0  0  0  0  0  0  0  0  0  0
   39.6140   24.1090   35.9460 C   0  0  0  0  0  0  0  0  0  0  0  0
   40.6900   23.4870   35.3080 C   0  0  0  0  0  0  0  0  0  0  0  0
   41.2520   22.3900   35.9040 N   0  0  0  0  0  0  0  0  0  0  0  0
   40.7760   21.9300   37.0720 C   0  0  0  0  0  0  0  0  0  0  0  0
   39.7420   22.5130   37.7010 N   0  0  0  0  0  0  0  0  0  0  0  0
   41.0500   23.8700   34.3830 H   0  0  0  0  0  0  0  0  0  0  0  0
   41.1960   21.0610   37.5770 H   0  0  0  0  0  0  0  0  0  0  0  0
   38.0560   24.2910   37.7320 C   0  0  0  0  0  0  0  0  0  0  0  0
   37.9730   24.7590   38.8850 O   0  0  0  0  0  0  0  0  0  0  0  0
   37.0790   24.5820   37.3340 H   0  0  0  0  0  0  0  0  0  0  0  0
   40.2110   26.1560   34.8510 C   0  0  0  0  0  0  0  0  0  0  0  0
   40.5530   25.8600   33.8430 H   0  0  0  0  0  0  0  0  0  0  0  0
   41.0470   25.9890   35.5630 H   0  0  0  0  0  0  0  0  0  0  0  0
   40.0310   27.2550   34.8880 H   0  0  0  0  0  0  0  0  0  0  0  0
   38.0820   24.9890   34.1840 C   0  0  0  0  0  0  0  0  0  0  0  0
   37.3150   24.3120   34.5800 H   0  0  0  0  0  0  0  0  0  0  0  0
   38.5650   24.4710   33.3300 H   0  0  0  0  0  0  0  0  0  0  0  0
   37.4720   26.2510   33.6970 C   0  0  0  0  0  0  0  0  0  0  0  0
   36.9580   27.0280   34.7190 C   0  0  0  0  0  0  0  0  0  0  0  0
   36.3500   28.2430   34.4410 C   0  0  0  0  0  0  0  0  0  0  0  0
   36.2610   28.6760   33.1290 C   0  0  0  0  0  0  0  0  0  0  0  0
   35.8190   29.5930   32.7550 H   0  0  0  0  0  0  0  0  0  0  0  0
   36.7820   27.8790   32.1370 C   0  0  0  0  0  0  0  0  0  0  0  0
   37.3640   26.7070   32.4370 N   0  0  0  0  0  0  0  0  0  0  0  0
  1  4  1  0  0  0  0
  1  2  1  1  0  0  0
  3  8  1  0  0  0  0
  3 11  1  0  0  0  0
  4  3  2  0  0  0  0
  5  6  2  0  0  0  0
  5  4  1  0  0  0  0
  6  7  1  0  0  0  0
  7 10  1  0  0  0  0
  7  8  2  0  0  0  0
  9  5  1  0  0  0  0
 11 12  2  0  0  0  0
 13 11  1  0  0  0  0
 14 17  1  0  0  0  0
 14  1  1  0  0  0  0
 14 16  1  0  0  0  0
 15 14  1  0  0  0  0
 18 19  1  0  0  0  0
 18  1  1  0  0  0  0
 20 18  1  0  0  0  0
 21 18  1  0  0  0  0
 21 22  1  0  0  0  0
 23 22  2  0  0  0  0
 24 23  1  0  0  0  0
 25 24  1  0  0  0  0
 26 27  1  0  0  0  0
 26 24  2  0  0  0  0
 27 21  2  0  0  0  0
M  END
>  <minimizedAffinity>
-4.3313055

>  <minimizedRMSD>
1.69514537

$$$$
