
     RDKit          3D

 40 43  0  0  0  0  0  0  0  0999 V2000
   43.1248   23.3319   36.5371 C   0  0  0  0  0  0  0  0  0  0  0  0
   41.7303   23.1057   36.3979 C   0  0  0  0  0  0  0  0  0  0  0  0
   41.1768   24.0404   35.6229 C   0  0  0  0  0  0  0  0  0  0  0  0
   41.9049   25.0773   35.0504 N   0  0  0  0  0  0  0  0  0  0  0  0
   43.2064   25.2257   35.2240 C   0  0  0  0  0  0  0  0  0  0  0  0
   43.8173   24.3412   35.9760 N   0  0  0  0  0  0  0  0  0  0  0  0
   41.2351   21.9654   37.0836 C   0  0  0  0  0  0  0  0  0  0  0  0
   40.4802   22.3149   38.2315 F   0  0  0  0  0  0  0  0  0  0  0  0
   42.0327   21.1910   37.8425 F   0  0  0  0  0  0  0  0  0  0  0  0
   40.1488   21.2850   36.5425 F   0  0  0  0  0  0  0  0  0  0  0  0
   39.7894   23.9139   35.3771 C   0  0  0  0  0  0  0  0  0  0  0  0
   39.0215   25.0984   35.7108 C   0  0  0  0  0  0  0  0  0  0  0  0
   37.7741   24.6540   36.4959 C   0  0  2  0  0  0  0  0  0  0  0  0
   38.0137   24.3880   37.9322 C   0  0  0  0  0  0  0  0  0  0  0  0
   37.5511   23.3270   36.9486 C   0  0  1  0  0  0  0  0  0  0  0  0
   43.7754   22.6707   37.1409 H   0  0  0  0  0  0  0  0  0  0  0  0
   43.6499   26.0699   34.7256 H   0  0  0  0  0  0  0  0  0  0  0  0
   39.2287   23.0357   35.5491 H   0  0  0  0  0  0  0  0  0  0  0  0
   39.7655   23.9327   34.2213 H   0  0  0  0  0  0  0  0  0  0  0  0
   39.6159   25.7111   36.4513 H   0  0  0  0  0  0  0  0  0  0  0  0
   38.7776   25.8189   34.9077 H   0  0  0  0  0  0  0  0  0  0  0  0
   36.9425   25.3457   36.2950 H   0  0  0  0  0  0  0  0  0  0  0  0
   38.9961   24.5056   38.3075 H   0  0  0  0  0  0  0  0  0  0  0  0
   37.2465   24.7551   38.6792 H   0  0  0  0  0  0  0  0  0  0  0  0
   37.9786   22.4391   37.2491 H   0  0  0  0  0  0  0  0  0  0  0  0
   36.0933   23.0046   36.9918 N   0  0  0  0  0  0  0  0  0  0  0  0
   35.1531   23.8975   37.3808 C   0  0  0  0  0  0  0  0  0  0  0  0
   33.9621   23.3068   37.3086 N   0  0  0  0  0  0  0  0  0  0  0  0
   34.1417   22.0366   36.8736 C   0  0  0  0  0  0  0  0  0  0  0  0
   33.2127   21.0381   36.6410 C   0  0  0  0  0  0  0  0  0  0  0  0
   31.9859   21.1777   36.8121 O   0  0  0  0  0  0  0  0  0  0  0  0
   33.7201   19.8709   36.2062 N   0  0  0  0  0  0  0  0  0  0  0  0
   35.0432   19.7034   36.0160 C   0  0  0  0  0  0  0  0  0  0  0  0
   35.4720   18.4205   35.5513 N   0  0  0  0  0  0  0  0  0  0  0  0
   35.9422   20.6973   36.2503 N   0  0  0  0  0  0  0  0  0  0  0  0
   35.5107   21.8698   36.6790 C   0  0  0  0  0  0  0  0  0  0  0  0
   35.3879   24.9227   37.6931 H   0  0  0  0  0  0  0  0  0  0  0  0
   33.0652   19.0821   36.0144 H   0  0  0  0  0  0  0  0  0  0  0  0
   36.0458   17.9627   36.3165 H   0  0  0  0  0  0  0  0  0  0  0  0
   35.4348   17.7674   34.7498 H   0  0  0  0  0  0  0  0  0  0  0  0
  2  1  2  0
  2  7  1  0
  3  2  1  0
  4  5  1  0
  4  3  2  0
  5  6  2  0
  6  1  1  0
  7  9  1  0
  7  8  1  0
 10  7  1  0
 11  3  1  0
 11 12  1  0
 12 13  1  0
 13 15  1  0
 13 14  1  0
 15 14  1  0
  1 16  1  0
  5 17  1  0
 11 18  1  0
 11 19  1  0
 12 20  1  0
 12 21  1  0
 13 22  1  1
 14 23  1  0
 14 24  1  0
 15 25  1  6
 26 27  1  0
 27 28  2  0
 28 29  1  0
 29 30  1  0
 30 31  2  0
 30 32  1  0
 32 33  1  0
 33 34  1  0
 33 35  2  0
 35 36  1  0
 36 26  1  0
 36 29  2  0
 27 37  1  0
 32 38  1  0
 34 39  1  0
 34 40  1  0
 15 26  1  0
M  ISO  8  16  14  17  14  18   8  19   8  20   8  21   8  22  13  23  13
M  ISO  2  24  13  25  13
M  END
>  <DihAtoms>  (1) 
12,14,25,26

>  <DihDeg>  (1) 
81.76545753758245

$$$$
