
 OpenBabel03262519383D

 35 38  0  0  1  0  0  0  0  0999 V2000
   37.7440   23.6440   33.7960 N   0  0  0  0  0  0  0  0  0  0  0  0
   37.2350   22.9020   32.6760 C   0  0  0  0  0  0  0  0  0  0  0  0
   36.5820   23.9090   31.7800 C   0  0  0  0  0  0  0  0  0  0  0  0
   36.8420   25.2480   32.4660 C   0  0  0  0  0  0  0  0  0  0  0  0
   38.1540   24.8870   33.1990 C   0  0  2  0  0  0  0  0  0  0  0  0
   36.5690   22.0640   32.9700 H   0  0  0  0  0  0  0  0  0  0  0  0
   38.1010   22.4830   32.1200 H   0  0  0  0  0  0  0  0  0  0  0  0
   35.4680   23.7610   31.8600 H   0  0  0  0  0  0  0  0  0  0  0  0
   36.9260   23.8830   30.7450 H   0  0  0  0  0  0  0  0  0  0  0  0
   37.0710   26.0020   31.7110 H   0  0  0  0  0  0  0  0  0  0  0  0
   36.0480   25.5150   33.1880 H   0  0  0  0  0  0  0  0  0  0  0  0
   38.3490   25.6490   33.9840 H   0  0  0  0  0  0  0  0  0  0  0  0
   38.9110   23.0670   34.3810 C   0  0  0  0  0  0  0  0  0  0  0  0
   38.9000   21.9750   34.0960 H   0  0  0  0  0  0  0  0  0  0  0  0
   39.8740   23.4640   34.0280 H   0  0  0  0  0  0  0  0  0  0  0  0
   37.8060   23.6940   37.9550 C   0  0  0  0  0  0  0  0  0  0  0  0
   37.7640   23.6400   36.5580 C   0  0  0  0  0  0  0  0  0  0  0  0
   38.8840   23.1540   35.8780 C   0  0  0  0  0  0  0  0  0  0  0  0
   39.9780   22.7490   36.6180 N   0  0  0  0  0  0  0  0  0  0  0  0
   39.9660   22.8220   37.9660 C   0  0  0  0  0  0  0  0  0  0  0  0
   38.8890   23.2900   38.6130 N   0  0  0  0  0  0  0  0  0  0  0  0
   36.9570   24.0650   38.5170 H   0  0  0  0  0  0  0  0  0  0  0  0
   36.9010   23.9600   36.0030 H   0  0  0  0  0  0  0  0  0  0  0  0
   40.7870   22.5220   38.5780 H   0  0  0  0  0  0  0  0  0  0  0  0
   39.2050   24.7980   32.3400 O   0  0  0  0  0  0  0  0  0  0  0  0
   41.1360   28.8780   29.1070 H   0  0  0  0  0  0  0  0  0  0  0  0
   40.6850   28.0960   29.5890 N   0  0  0  0  0  0  0  0  0  0  0  0
   39.6800   27.3820   29.0320 C   0  0  0  0  0  3  0  0  0  0  0  0
   39.3260   26.4460   29.9230 N   0  0  0  0  0  0  0  0  0  0  0  0
   40.0980   26.5740   31.0220 C   0  0  0  0  0  0  0  0  0  0  0  0
   40.1100   25.8410   32.2070 C   0  0  0  0  0  0  0  0  0  0  0  0
   41.0080   26.2060   33.1410 N   0  0  0  0  0  0  0  0  0  0  0  0
   41.8650   27.2350   32.9490 C   0  0  0  0  0  3  0  0  0  0  0  0
   41.8420   27.9430   31.7820 N   0  0  0  0  0  0  0  0  0  0  0  0
   40.9650   27.6250   30.8120 C   0  0  0  0  0  0  0  0  0  0  0  0
  1 13  1  0  0  0  0
  2  6  1  0  0  0  0
  2  1  1  0  0  0  0
  3  8  1  0  0  0  0
  3  4  1  0  0  0  0
  3  2  1  0  0  0  0
  4 11  1  0  0  0  0
  4  5  1  0  0  0  0
  5  1  1  0  0  0  0
  5 12  1  1  0  0  0
  7  2  1  0  0  0  0
  9  3  1  0  0  0  0
 10  4  1  0  0  0  0
 13 18  1  0  0  0  0
 14 13  1  0  0  0  0
 15 13  1  0  0  0  0
 16 22  1  0  0  0  0
 16 21  1  0  0  0  0
 17 16  2  0  0  0  0
 18 17  1  0  0  0  0
 18 19  2  0  0  0  0
 19 20  1  0  0  0  0
 20 24  1  0  0  0  0
 20 21  2  0  0  0  0
 23 17  1  0  0  0  0
 25  5  1  0  0  0  0
 26 27  1  0  0  0  0
 27 35  1  0  0  0  0
 28 27  1  0  0  0  0
 28 29  2  0  0  0  0
 29 30  1  0  0  0  0
 30 31  1  0  0  0  0
 31 25  1  0  0  0  0
 31 32  2  0  0  0  0
 33 32  1  0  0  0  0
 34 33  2  0  0  0  0
 35 30  2  0  0  0  0
 35 34  1  0  0  0  0
M  END
>  <minimizedAffinity>
-4.02407932

>  <minimizedRMSD>
3.2353785

$$$$
