
 OpenBabel03262519403D

 46 50  0  0  1  0  0  0  0  0999 V2000
   38.0070   25.3170   34.3360 N   0  0  0  0  0  0  0  0  0  0  0  0
   37.4300   25.1750   33.0170 C   0  0  0  0  0  0  0  0  0  0  0  0
   37.2630   26.5610   32.4960 C   0  0  0  0  0  0  0  0  0  0  0  0
   37.7930   27.4420   33.6160 C   0  0  0  0  0  0  0  0  0  0  0  0
   38.8470   26.4620   34.2180 C   0  0  2  0  0  0  0  0  0  0  0  0
   36.4460   24.6780   33.0990 H   0  0  0  0  0  0  0  0  0  0  0  0
   38.1150   24.5500   32.4110 H   0  0  0  0  0  0  0  0  0  0  0  0
   38.0230   26.6790   31.6690 H   0  0  0  0  0  0  0  0  0  0  0  0
   36.2540   26.8200   32.1640 H   0  0  0  0  0  0  0  0  0  0  0  0
   38.2620   28.3610   33.2740 H   0  0  0  0  0  0  0  0  0  0  0  0
   37.0160   27.5730   34.3830 H   0  0  0  0  0  0  0  0  0  0  0  0
   39.1500   26.8980   35.1980 H   0  0  0  0  0  0  0  0  0  0  0  0
   38.8440   24.2020   34.6740 C   0  0  0  0  0  0  0  0  0  0  0  0
   39.8880   24.4320   34.4070 H   0  0  0  0  0  0  0  0  0  0  0  0
   38.5040   23.3160   34.1330 H   0  0  0  0  0  0  0  0  0  0  0  0
   37.8900   24.2180   38.3440 C   0  0  0  0  0  0  0  0  0  0  0  0
   37.8470   24.5120   36.9850 C   0  0  0  0  0  0  0  0  0  0  0  0
   38.8290   23.9310   36.1470 C   0  0  0  0  0  0  0  0  0  0  0  0
   39.7570   23.1180   36.7340 N   0  0  0  0  0  0  0  0  0  0  0  0
   39.7470   22.8730   38.0540 C   0  0  0  0  0  0  0  0  0  0  0  0
   38.8140   23.4250   38.8460 N   0  0  0  0  0  0  0  0  0  0  0  0
   37.1250   24.6790   38.9550 H   0  0  0  0  0  0  0  0  0  0  0  0
   37.0970   25.1610   36.5460 H   0  0  0  0  0  0  0  0  0  0  0  0
   40.5430   22.2130   38.3600 H   0  0  0  0  0  0  0  0  0  0  0  0
   39.9030   26.2900   33.3800 O   0  0  0  0  0  0  0  0  0  0  0  0
   41.0650   26.9140   33.7600 C   0  0  2  0  0  0  0  0  0  0  0  0
   41.7500   27.7290   32.6910 C   0  0  0  0  0  0  0  0  0  0  0  0
   42.3840   26.4540   33.2110 C   0  0  1  0  0  0  0  0  0  0  0  0
   41.1400   27.1130   34.8410 H   0  0  0  0  0  0  0  0  0  0  0  0
   42.2470   28.6770   33.0490 H   0  0  0  0  0  0  0  0  0  0  0  0
   41.3170   27.7830   31.6900 H   0  0  0  0  0  0  0  0  0  0  0  0
   42.3440   25.6180   32.4950 H   0  0  0  0  0  0  0  0  0  0  0  0
   43.5660   26.5990   34.0350 N   0  0  0  0  0  0  0  0  0  0  0  0
   44.5600   27.5080   34.0910 C   0  0  0  0  0  0  0  0  0  0  0  0
   45.3900   27.1110   35.0700 N   0  0  0  0  0  0  0  0  0  0  0  0
   44.9440   25.9710   35.6330 C   0  0  0  0  0  0  0  0  0  0  0  0
   45.4650   25.2110   36.6600 C   0  0  0  0  0  0  0  0  0  0  0  0
   46.5260   25.4970   37.2730 O   0  0  0  0  0  0  0  0  0  0  0  0
   44.8380   24.0920   37.0630 N   0  0  0  0  0  0  0  0  0  0  0  0
   43.7010   23.7780   36.4140 C   0  0  0  0  0  0  0  0  0  0  0  0
   42.9080   22.6130   36.7220 N   0  0  0  0  0  0  0  0  0  0  0  0
   43.1790   24.5080   35.4110 N   0  0  0  0  0  0  0  0  0  0  0  0
   43.7780   25.6470   34.9700 C   0  0  0  0  0  0  0  0  0  0  0  0
   45.1160   23.4290   37.8200 H   0  0  0  0  0  0  0  0  0  0  0  0
   43.0900   21.6810   36.2840 H   0  0  0  0  0  0  0  0  0  0  0  0
   42.1350   22.7990   37.4270 H   0  0  0  0  0  0  0  0  0  0  0  0
  1 13  1  0  0  0  0
  2  6  1  0  0  0  0
  2  1  1  0  0  0  0
  3  2  1  0  0  0  0
  3  4  1  0  0  0  0
  4  5  1  0  0  0  0
  4 11  1  0  0  0  0
  5  1  1  0  0  0  0
  5 12  1  1  0  0  0
  7  2  1  0  0  0  0
  8  3  1  0  0  0  0
  9  3  1  0  0  0  0
 10  4  1  0  0  0  0
 13 18  1  0  0  0  0
 14 13  1  0  0  0  0
 15 13  1  0  0  0  0
 16 21  1  0  0  0  0
 16 22  1  0  0  0  0
 17 16  2  0  0  0  0
 18 19  2  0  0  0  0
 18 17  1  0  0  0  0
 19 20  1  0  0  0  0
 20 24  1  0  0  0  0
 20 21  2  0  0  0  0
 23 17  1  0  0  0  0
 25 26  1  0  0  0  0
 25  5  1  0  0  0  0
 26 29  1  1  0  0  0
 27 30  1  0  0  0  0
 27 28  1  0  0  0  0
 27 26  1  0  0  0  0
 28 32  1  6  0  0  0
 28 26  1  0  0  0  0
 28 33  1  0  0  0  0
 31 27  1  0  0  0  0
 33 34  1  0  0  0  0
 33 43  1  0  0  0  0
 34 35  2  0  0  0  0
 35 36  1  0  0  0  0
 36 37  1  0  0  0  0
 37 39  1  0  0  0  0
 37 38  2  0  0  0  0
 39 44  1  0  0  0  0
 40 41  1  0  0  0  0
 40 39  1  0  0  0  0
 41 46  1  0  0  0  0
 42 40  2  0  0  0  0
 43 42  1  0  0  0  0
 43 36  2  0  0  0  0
 45 41  1  0  0  0  0
M  END
>  <minimizedAffinity>
-5.3282342

>  <minimizedRMSD>
0.985267103

$$$$
