
     RDKit          3D

 37 40  0  0  0  0  0  0  0  0999 V2000
   37.8999   25.6478   34.3713 N   0  0  0  0  0  0  0  0  0  0  0  0
   37.3662   25.3286   33.0761 C   0  0  0  0  0  0  0  0  0  0  0  0
   36.7354   26.5897   32.5714 C   0  0  0  0  0  0  0  0  0  0  0  0
   37.0336   27.6219   33.6559 C   0  0  0  0  0  0  0  0  0  0  0  0
   38.3394   27.0094   34.2124 C   0  0  2  0  0  0  0  0  0  0  0  0
   39.0545   24.8843   34.7169 C   0  0  0  0  0  0  0  0  0  0  0  0
   37.9317   24.1877   38.2732 C   0  0  0  0  0  0  0  0  0  0  0  0
   37.9704   24.7555   36.9963 C   0  0  0  0  0  0  0  0  0  0  0  0
   38.9526   24.3195   36.1044 C   0  0  0  0  0  0  0  0  0  0  0  0
   39.8385   23.3483   36.5265 N   0  0  0  0  0  0  0  0  0  0  0  0
   39.7584   22.8322   37.7705 C   0  0  0  0  0  0  0  0  0  0  0  0
   38.8130   23.2551   38.6219 N   0  0  0  0  0  0  0  0  0  0  0  0
   39.3826   27.1839   33.3570 O   0  0  0  0  0  0  0  0  0  0  0  0
   36.6799   24.4572   33.0869 H   0  0  0  0  0  0  0  0  0  0  0  0
   38.2180   25.0974   32.4017 H   0  0  0  0  0  0  0  0  0  0  0  0
   35.6176   26.4497   32.6134 H   0  0  0  0  0  0  0  0  0  0  0  0
   37.0728   26.8993   31.5813 H   0  0  0  0  0  0  0  0  0  0  0  0
   37.2781   28.5770   33.1891 H   0  0  0  0  0  0  0  0  0  0  0  0
   36.2511   27.6540   34.4372 H   0  0  0  0  0  0  0  0  0  0  0  0
   38.5592   27.4647   35.2008 H   0  0  0  0  0  0  0  0  0  0  0  0
   39.0902   24.0196   33.9916 H   0  0  0  0  0  0  0  0  0  0  0  0
   40.0209   25.4011   34.6225 H   0  0  0  0  0  0  0  0  0  0  0  0
   37.1837   24.5008   38.9927 H   0  0  0  0  0  0  0  0  0  0  0  0
   37.2693   25.5112   36.6894 H   0  0  0  0  0  0  0  0  0  0  0  0
   40.4202   22.0810   38.1404 H   0  0  0  0  0  0  0  0  0  0  0  0
   44.4314   26.7938   35.6363 H   0  0  0  0  0  0  0  0  0  0  0  0
   43.4919   26.7161   35.2355 N   0  0  0  0  0  0  0  0  0  0  0  0
   42.8422   25.5344   35.1340 C   0  0  0  0  0  0  0  0  0  0  0  0
   41.6525   25.7897   34.5715 N   0  0  0  0  0  0  0  0  0  0  0  0
   41.5616   27.1140   34.3254 C   0  0  0  0  0  0  0  0  0  0  0  0
   40.5294   27.8556   33.7564 C   0  0  0  0  0  0  0  0  0  0  0  0
   40.7264   29.1826   33.6363 N   0  0  0  0  0  0  0  0  0  0  0  0
   41.8701   29.7780   34.0462 C   0  0  0  0  0  0  0  0  0  0  0  0
   42.8717   29.0367   34.6017 N   0  0  0  0  0  0  0  0  0  0  0  0
   42.7318   27.7064   34.7474 C   0  0  0  0  0  0  0  0  0  0  0  0
   43.1787   24.5635   35.4331 H   0  0  0  0  0  0  0  0  0  0  0  0
   41.9745   30.8480   33.9254 H   0  0  0  0  0  0  0  0  0  0  0  0
  1  6  1  0
  2  1  1  0
  3  2  1  0
  3  4  1  0
  4  5  1  0
  5  1  1  0
  6  9  1  0
  7 12  2  0
  8  7  1  0
  9 10  1  0
  9  8  2  0
 10 11  2  0
 11 12  1  0
 13  5  1  0
  2 14  1  0
  2 15  1  0
  3 16  1  0
  3 17  1  0
  4 18  1  0
  4 19  1  0
  5 20  1  1
  6 21  1  0
  6 22  1  0
  7 23  1  0
  8 24  1  0
 11 25  1  0
 26 27  1  0
 27 28  1  0
 28 29  2  0
 29 30  1  0
 30 31  2  0
 31 32  1  0
 32 33  2  0
 33 34  1  0
 34 35  2  0
 35 27  1  0
 35 30  1  0
 28 36  1  0
 33 37  1  0
 13 31  1  0
M  ISO  8  14  13  15  13  16  13  17  13  18  13  19  13  20  13  21   8
M  ISO  5  22   8  23  14  24  14  25  14  26   9
M  END
>  <DihAtoms>  (1) 
4,12,30,29

>  <DihDeg>  (1) 
179.9987388741403

$$$$
