
 OpenBabel03262519403D

 46 50  0  0  1  0  0  0  0  0999 V2000
   37.5080   25.9180   34.8910 N   0  0  0  0  0  0  0  0  0  0  0  0
   36.8950   26.3040   33.6390 C   0  0  0  0  0  0  0  0  0  0  0  0
   36.8910   27.7940   33.6310 C   0  0  0  0  0  0  0  0  0  0  0  0
   37.5460   28.1700   34.9510 C   0  0  0  0  0  0  0  0  0  0  0  0
   38.4820   26.9340   35.1200 C   0  0  2  0  0  0  0  0  0  0  0  0
   35.8590   25.9210   33.6050 H   0  0  0  0  0  0  0  0  0  0  0  0
   37.4860   25.8550   32.8170 H   0  0  0  0  0  0  0  0  0  0  0  0
   37.6450   28.1060   32.8500 H   0  0  0  0  0  0  0  0  0  0  0  0
   35.9160   28.2610   33.4680 H   0  0  0  0  0  0  0  0  0  0  0  0
   38.1190   29.0930   34.9150 H   0  0  0  0  0  0  0  0  0  0  0  0
   36.8050   28.1130   35.7610 H   0  0  0  0  0  0  0  0  0  0  0  0
   38.8540   26.9680   36.1690 H   0  0  0  0  0  0  0  0  0  0  0  0
   38.2070   24.6700   34.7780 C   0  0  0  0  0  0  0  0  0  0  0  0
   39.1770   24.8350   34.2830 H   0  0  0  0  0  0  0  0  0  0  0  0
   37.6040   23.9670   34.1980 H   0  0  0  0  0  0  0  0  0  0  0  0
   37.9310   23.6490   38.4200 C   0  0  0  0  0  0  0  0  0  0  0  0
   37.5900   24.2160   37.1950 C   0  0  0  0  0  0  0  0  0  0  0  0
   38.5070   24.0850   36.1250 C   0  0  0  0  0  0  0  0  0  0  0  0
   39.6680   23.4080   36.3680 N   0  0  0  0  0  0  0  0  0  0  0  0
   39.9410   22.8840   37.5730 C   0  0  0  0  0  0  0  0  0  0  0  0
   39.0700   23.0090   38.5870 N   0  0  0  0  0  0  0  0  0  0  0  0
   37.2090   23.7680   39.2160 H   0  0  0  0  0  0  0  0  0  0  0  0
   36.6600   24.7480   37.0310 H   0  0  0  0  0  0  0  0  0  0  0  0
   40.8950   22.3830   37.6020 H   0  0  0  0  0  0  0  0  0  0  0  0
   39.4930   26.9460   34.2120 O   0  0  0  0  0  0  0  0  0  0  0  0
   40.7370   26.6510   34.7110 C   0  0  2  0  0  0  0  0  0  0  0  0
   41.9040   27.1620   33.9020 C   0  0  0  0  0  0  0  0  0  0  0  0
   41.6260   25.6750   33.9960 C   0  0  1  0  0  0  0  0  0  0  0  0
   40.7590   26.4760   35.7980 H   0  0  0  0  0  0  0  0  0  0  0  0
   42.7940   27.5090   34.5040 H   0  0  0  0  0  0  0  0  0  0  0  0
   41.7230   27.7190   32.9810 H   0  0  0  0  0  0  0  0  0  0  0  0
   41.2200   25.2440   33.0670 H   0  0  0  0  0  0  0  0  0  0  0  0
   42.5530   24.8820   34.7760 N   0  0  0  0  0  0  0  0  0  0  0  0
   43.4710   25.1770   35.7190 C   0  0  0  0  0  3  0  0  0  0  0  0
   44.0340   24.0140   36.0830 N   0  0  0  0  0  0  0  0  0  0  0  0
   43.4950   22.9910   35.3930 C   0  0  0  0  0  0  0  0  0  0  0  0
   43.7600   21.6370   35.4360 C   0  0  0  0  0  0  0  0  0  0  0  0
   44.6200   21.1160   36.1920 O   0  0  0  0  0  0  0  0  0  0  0  0
   43.0860   20.7870   34.6410 N   0  0  0  0  0  0  0  0  0  0  0  0
   42.1630   21.3360   33.8280 C   0  0  0  0  0  0  0  0  0  0  0  0
   41.3530   20.5650   32.9140 N   0  0  0  0  0  0  0  0  0  0  0  0
   41.8910   22.6520   33.7740 N   0  0  0  0  0  0  0  0  0  0  0  0
   42.5480   23.5490   34.5580 C   0  0  0  0  0  0  0  0  0  0  0  0
   43.1820   19.7510   34.5700 H   0  0  0  0  0  0  0  0  0  0  0  0
   41.6690   20.3350   31.9450 H   0  0  0  0  0  0  0  0  0  0  0  0
   40.4210   20.2640   33.3240 H   0  0  0  0  0  0  0  0  0  0  0  0
  1  5  1  0  0  0  0
  2  1  1  0  0  0  0
  3  2  1  0  0  0  0
  3  4  1  0  0  0  0
  4  5  1  0  0  0  0
  4 11  1  0  0  0  0
  5 12  1  1  0  0  0
  6  2  1  0  0  0  0
  7  2  1  0  0  0  0
  8  3  1  0  0  0  0
  9  3  1  0  0  0  0
 10  4  1  0  0  0  0
 13  1  1  0  0  0  0
 13 18  1  0  0  0  0
 14 13  1  0  0  0  0
 15 13  1  0  0  0  0
 16 21  1  0  0  0  0
 16 22  1  0  0  0  0
 17 16  2  0  0  0  0
 18 19  2  0  0  0  0
 18 17  1  0  0  0  0
 19 20  1  0  0  0  0
 20 24  1  0  0  0  0
 20 21  2  0  0  0  0
 23 17  1  0  0  0  0
 25 26  1  0  0  0  0
 25  5  1  0  0  0  0
 26 29  1  1  0  0  0
 27 28  1  0  0  0  0
 27 30  1  0  0  0  0
 27 26  1  0  0  0  0
 28 32  1  6  0  0  0
 28 26  1  0  0  0  0
 28 33  1  0  0  0  0
 31 27  1  0  0  0  0
 33 34  1  0  0  0  0
 34 35  2  0  0  0  0
 36 37  1  0  0  0  0
 36 35  1  0  0  0  0
 37 38  2  0  0  0  0
 39 37  1  0  0  0  0
 40 39  1  0  0  0  0
 41 46  1  0  0  0  0
 41 40  1  0  0  0  0
 42 40  2  0  0  0  0
 42 43  1  0  0  0  0
 43 33  1  0  0  0  0
 43 36  2  0  0  0  0
 44 39  1  0  0  0  0
 45 41  1  0  0  0  0
M  END
>  <minimizedAffinity>
-4.8386569

>  <minimizedRMSD>
2.35036445

$$$$
