
     RDKit          3D

 47 51  0  0  0  0  0  0  0  0999 V2000
   37.6425   25.3735   34.3678 N   0  0  0  0  0  0  0  0  0  0  0  0
   37.1102   25.4048   33.0234 C   0  0  0  0  0  0  0  0  0  0  0  0
   36.8550   26.8423   32.7224 C   0  0  0  0  0  0  0  0  0  0  0  0
   37.2909   27.5659   33.9863 C   0  0  0  0  0  0  0  0  0  0  0  0
   38.3993   26.5771   34.4632 C   0  0  2  0  0  0  0  0  0  0  0  0
   38.5497   24.2780   34.5554 C   0  0  0  0  0  0  0  0  0  0  0  0
   37.8625   23.9080   38.2663 C   0  0  0  0  0  0  0  0  0  0  0  0
   37.6812   24.2799   36.9365 C   0  0  0  0  0  0  0  0  0  0  0  0
   38.6777   23.9117   36.0023 C   0  0  0  0  0  0  0  0  0  0  0  0
   39.7541   23.2135   36.4703 N   0  0  0  0  0  0  0  0  0  0  0  0
   39.8728   22.8837   37.7655 C   0  0  0  0  0  0  0  0  0  0  0  0
   38.9263   23.2339   38.6506 N   0  0  0  0  0  0  0  0  0  0  0  0
   39.4848   26.6138   33.6469 O   0  0  0  0  0  0  0  0  0  0  0  0
   40.6174   27.1606   34.1975 C   0  0  2  0  0  0  0  0  0  0  0  0
   41.6939   27.5592   33.2171 C   0  0  0  0  0  0  0  0  0  0  0  0
   41.9118   26.4020   34.1724 C   0  0  1  0  0  0  0  0  0  0  0  0
   36.1630   24.8356   32.9903 H   0  0  0  0  0  0  0  0  0  0  0  0
   37.8535   24.9345   32.3510 H   0  0  0  0  0  0  0  0  0  0  0  0
   37.6239   27.1427   31.9521 H   0  0  0  0  0  0  0  0  0  0  0  0
   35.8376   27.0817   32.3986 H   0  0  0  0  0  0  0  0  0  0  0  0
   37.6998   28.5582   33.8111 H   0  0  0  0  0  0  0  0  0  0  0  0
   36.4876   27.5194   34.7348 H   0  0  0  0  0  0  0  0  0  0  0  0
   38.6447   26.8685   35.5104 H   0  0  0  0  0  0  0  0  0  0  0  0
   39.5554   24.5718   34.2139 H   0  0  0  0  0  0  0  0  0  0  0  0
   38.1976   23.4137   33.9855 H   0  0  0  0  0  0  0  0  0  0  0  0
   37.0819   24.2056   38.9529 H   0  0  0  0  0  0  0  0  0  0  0  0
   36.8153   24.8348   36.5935 H   0  0  0  0  0  0  0  0  0  0  0  0
   40.7771   22.3348   37.9735 H   0  0  0  0  0  0  0  0  0  0  0  0
   40.4613   27.6336   35.1789 H   0  0  0  0  0  0  0  0  0  0  0  0
   42.2647   28.4958   33.4811 H   0  0  0  0  0  0  0  0  0  0  0  0
   41.5408   27.3952   32.1480 H   0  0  0  0  0  0  0  0  0  0  0  0
   41.8836   25.4160   33.6817 H   0  0  0  0  0  0  0  0  0  0  0  0
   42.8584   26.6104   35.2476 N   0  0  0  0  0  0  0  0  0  0  0  0
   43.3468   27.7049   35.8640 C   0  0  0  0  0  0  0  0  0  0  0  0
   44.2054   27.2689   36.8002 N   0  0  0  0  0  0  0  0  0  0  0  0
   44.2714   25.9237   36.7902 C   0  0  0  0  0  0  0  0  0  0  0  0
   45.0104   25.0530   37.5649 C   0  0  0  0  0  0  0  0  0  0  0  0
   45.7990   25.4218   38.4729 O   0  0  0  0  0  0  0  0  0  0  0  0
   44.9146   23.7252   37.3743 N   0  0  0  0  0  0  0  0  0  0  0  0
   44.0727   23.3207   36.4044 C   0  0  0  0  0  0  0  0  0  0  0  0
   43.8541   21.9334   36.0724 N   0  0  0  0  0  0  0  0  0  0  0  0
   43.3452   24.1555   35.6404 N   0  0  0  0  0  0  0  0  0  0  0  0
   43.4093   25.5052   35.7966 C   0  0  0  0  0  0  0  0  0  0  0  0
   43.0306   28.6922   35.5709 H   0  0  0  0  0  0  0  0  0  0  0  0
   45.4099   22.9596   37.8823 H   0  0  0  0  0  0  0  0  0  0  0  0
   44.4533   21.4224   35.3839 H   0  0  0  0  0  0  0  0  0  0  0  0
   43.0371   21.4959   36.5909 H   0  0  0  0  0  0  0  0  0  0  0  0
  1  5  1  0
  1  6  1  0
  2  1  1  0
  3  2  1  0
  3  4  1  0
  4  5  1  0
  6  9  1  0
  7 12  2  0
  8  7  1  0
  9 10  1  0
  9  8  2  0
 10 11  2  0
 11 12  1  0
 13 14  1  0
 13  5  1  0
 14 16  1  0
 15 14  1  0
 15 16  1  0
  2 17  1  0
  2 18  1  0
  3 19  1  0
  3 20  1  0
  4 21  1  0
  4 22  1  0
  5 23  1  1
  6 24  1  0
  6 25  1  0
  7 26  1  0
  8 27  1  0
 11 28  1  0
 14 29  1  1
 15 30  1  0
 15 31  1  0
 16 32  1  6
 33 34  1  0
 34 35  2  0
 35 36  1  0
 36 37  1  0
 37 38  2  0
 37 39  1  0
 39 40  1  0
 40 41  1  0
 40 42  2  0
 42 43  1  0
 43 33  1  0
 43 36  2  0
 34 44  1  0
 39 45  1  0
 41 46  1  0
 41 47  1  0
 16 33  1  0
M  ISO  8  17  13  18  13  19  13  20  13  21  13  22  13  23  13  24   8
M  ISO  8  25   8  26  14  27  14  28  14  29  13  30  13  31  13  32  13
M  END
>  <DihAtoms>  (1) 
13,15,32,33

>  <DihDeg>  (1) 
58.80423993858003

$$$$
