
 OpenBabel03262519523D

 39 42  0  0  1  0  0  0  0  0999 V2000
   40.8100   25.6820   35.0360 C   0  0  2  0  0  0  0  0  0  0  0  0
   40.1160   24.4010   35.2950 C   0  0  0  0  0  0  0  0  0  0  0  0
   39.8390   25.2740   34.0840 C   0  0  1  0  0  0  0  0  0  0  0  0
   40.6020   26.4690   35.7760 H   0  0  0  0  0  0  0  0  0  0  0  0
   40.6900   23.5130   35.3070 H   0  0  0  0  0  0  0  0  0  0  0  0
   39.3160   24.3790   36.0960 H   0  0  0  0  0  0  0  0  0  0  0  0
   39.6150   24.6370   33.3050 H   0  0  0  0  0  0  0  0  0  0  0  0
   38.6080   26.1150   34.1670 N   0  0  0  0  0  0  0  0  0  0  0  0
   37.7850   26.1120   35.2420 C   0  0  0  0  0  3  0  0  0  0  0  0
   36.7880   26.9620   35.0060 N   0  0  0  0  0  0  0  0  0  0  0  0
   36.9740   27.5070   33.7800 C   0  0  0  0  0  0  0  0  0  0  0  0
   36.2100   28.4370   33.0960 C   0  0  0  0  0  0  0  0  0  0  0  0
   35.1630   28.9410   33.5480 O   0  0  0  0  0  0  0  0  0  0  0  0
   36.6710   28.7780   31.8800 N   0  0  0  0  0  0  0  0  0  0  0  0
   37.8010   28.2430   31.3780 C   0  0  0  0  0  0  0  0  0  0  0  0
   38.1990   28.6780   30.0750 N   0  0  0  0  0  0  0  0  0  0  0  0
   38.5390   27.3300   32.0640 N   0  0  0  0  0  0  0  0  0  0  0  0
   38.1420   26.9500   33.2660 C   0  0  0  0  0  0  0  0  0  0  0  0
   36.1350   29.4760   31.3200 H   0  0  0  0  0  0  0  0  0  0  0  0
   38.1250   27.8550   29.4110 H   0  0  0  0  0  0  0  0  0  0  0  0
   38.5320   29.4930   29.5320 H   0  0  0  0  0  0  0  0  0  0  0  0
   42.3300   25.5550   34.8260 C   0  0  0  0  0  0  0  0  0  0  0  0
   42.4750   24.4970   34.4580 H   0  0  0  0  0  0  0  0  0  0  0  0
   42.8890   25.5810   35.7800 H   0  0  0  0  0  0  0  0  0  0  0  0
   42.7160   26.4650   33.7650 C   0  0  0  0  0  0  0  0  0  0  0  0
   41.8690   26.9050   33.3130 H   0  0  0  0  0  0  0  0  0  0  0  0
   43.1080   27.3740   34.3620 H   0  0  0  0  0  0  0  0  0  0  0  0
   44.9450   25.1300   31.3040 C   0  0  0  0  0  0  0  0  0  0  0  0
   43.6990   25.4360   31.9120 C   0  0  0  0  0  0  0  0  0  0  0  0
   43.8840   26.0740   33.0680 C   0  0  0  0  0  0  0  0  0  0  0  0
   45.1430   26.3770   33.5730 N   0  0  0  0  0  0  0  0  0  0  0  0
   46.2650   26.0590   32.9510 C   0  0  0  0  0  0  0  0  0  0  0  0
   46.1580   25.4300   31.8050 N   0  0  0  0  0  0  0  0  0  0  0  0
   45.0180   24.6000   30.3350 H   0  0  0  0  0  0  0  0  0  0  0  0
   47.1730   26.3510   33.4490 H   0  0  0  0  0  0  0  0  0  0  0  0
   42.5550   25.0190   31.1790 C   0  0  0  0  0  0  0  0  0  0  0  0
   41.8490   23.9800   31.8340 F   0  0  0  0  0  0  0  0  0  0  0  0
   42.6580   24.2570   30.0750 F   0  0  0  0  0  0  0  0  0  0  0  0
   41.4270   25.8330   31.1930 F   0  0  0  0  0  0  0  0  0  0  0  0
  1  2  1  0  0  0  0
  1  4  1  1  0  0  0
  2  5  1  0  0  0  0
  2  6  1  0  0  0  0
  3  7  1  6  0  0  0
  3  8  1  0  0  0  0
  3  1  1  0  0  0  0
  3  2  1  0  0  0  0
  8  9  1  0  0  0  0
 10  9  2  0  0  0  0
 11 10  1  0  0  0  0
 12 13  2  0  0  0  0
 12 11  1  0  0  0  0
 14 12  1  0  0  0  0
 15 14  1  0  0  0  0
 15 17  2  0  0  0  0
 16 15  1  0  0  0  0
 17 18  1  0  0  0  0
 18 11  2  0  0  0  0
 18  8  1  0  0  0  0
 19 14  1  0  0  0  0
 20 16  1  0  0  0  0
 21 16  1  0  0  0  0
 22  1  1  0  0  0  0
 22 24  1  0  0  0  0
 23 22  1  0  0  0  0
 25 27  1  0  0  0  0
 25 22  1  0  0  0  0
 26 25  1  0  0  0  0
 28 33  2  0  0  0  0
 28 29  1  0  0  0  0
 29 30  2  0  0  0  0
 30 31  1  0  0  0  0
 30 25  1  0  0  0  0
 32 35  1  0  0  0  0
 32 31  2  0  0  0  0
 33 32  1  0  0  0  0
 34 28  1  0  0  0  0
 36 39  1  0  0  0  0
 36 37  1  0  0  0  0
 36 29  1  0  0  0  0
 38 36  1  0  0  0  0
M  END
>  <minimizedAffinity>
-3.41157413

>  <minimizedRMSD>
6.66250038

$$$$
