
 OpenBabel03262512483D

 34 36  0  0  1  0  0  0  0  0999 V2000
   40.5420   23.2170   34.3910 C   0  0  0  0  0  0  0  0  0  0  0  0
   40.1700   22.9170   35.7180 C   0  0  0  0  0  0  0  0  0  0  0  0
   38.8320   22.7850   36.0220 C   0  0  0  0  0  0  0  0  0  0  0  0
   37.9180   22.9510   35.0160 N   0  0  0  0  0  0  0  0  0  0  0  0
   38.3010   23.2390   33.7470 C   0  0  0  0  0  0  0  0  0  0  0  0
   39.6010   23.3720   33.4320 N   0  0  0  0  0  0  0  0  0  0  0  0
   38.2870   22.4870   37.2910 N   0  0  0  0  0  0  0  0  0  0  0  0
   37.2500   23.3920   32.7860 N   0  0  0  0  0  0  0  0  0  0  0  0
   36.8740   24.5060   32.1690 N   0  0  0  0  0  0  0  0  0  0  0  0
   35.8420   24.2690   31.3310 C   0  0  0  0  0  0  0  0  0  0  0  0
   35.5690   22.9080   31.4470 C   0  0  0  0  0  0  0  0  0  0  0  0
   36.4730   22.3690   32.3740 C   0  0  0  0  0  0  0  0  0  0  0  0
   41.6030   23.3130   34.1940 H   0  0  0  0  0  0  0  0  0  0  0  0
   40.8430   22.7790   36.5340 H   0  0  0  0  0  0  0  0  0  0  0  0
   37.4980   23.0440   37.6660 H   0  0  0  0  0  0  0  0  0  0  0  0
   38.6450   21.7050   37.9040 H   0  0  0  0  0  0  0  0  0  0  0  0
   35.3700   25.0320   30.7220 H   0  0  0  0  0  0  0  0  0  0  0  0
   34.7900   22.3990   30.9010 H   0  0  0  0  0  0  0  0  0  0  0  0
   36.5460   20.9410   32.7960 C   0  0  1  0  0  0  0  0  0  0  0  0
   37.5820   20.7470   33.1100 H   0  0  0  0  0  0  0  0  0  0  0  0
   35.6050   20.7370   33.9890 C   0  0  0  0  0  0  0  0  0  0  0  0
   35.0620   21.6810   34.1990 H   0  0  0  0  0  0  0  0  0  0  0  0
   34.8750   19.9330   33.8020 H   0  0  0  0  0  0  0  0  0  0  0  0
   36.1960   20.4830   34.8850 H   0  0  0  0  0  0  0  0  0  0  0  0
   36.0680   20.0820   31.6490 C   0  0  0  0  0  0  0  0  0  0  0  0
   35.0170   19.8040   31.8160 H   0  0  0  0  0  0  0  0  0  0  0  0
   36.2550   20.5270   30.6710 H   0  0  0  0  0  0  0  0  0  0  0  0
   36.8350   18.7930   31.7880 C   0  0  0  0  0  0  0  0  0  0  0  0
   36.0320   17.7110   32.0690 C   0  0  0  0  0  0  0  0  0  0  0  0
   36.6450   16.4650   32.2180 C   0  0  0  0  0  0  0  0  0  0  0  0
   38.0080   16.4090   32.0730 C   0  0  0  0  0  0  0  0  0  0  0  0
   38.5930   15.4890   32.1680 H   0  0  0  0  0  0  0  0  0  0  0  0
   38.7970   17.5110   31.7910 C   0  0  0  0  0  0  0  0  0  0  0  0
   38.1690   18.7150   31.6510 N   0  0  0  0  0  0  0  0  0  0  0  0
  1  2  1  0  0  0  0
  2  3  2  0  0  0  0
  2 14  1  0  0  0  0
  3  7  1  0  0  0  0
  4  3  1  0  0  0  0
  5  4  2  0  0  0  0
  6  5  1  0  0  0  0
  6  1  2  0  0  0  0
  7 15  1  0  0  0  0
  7 16  1  0  0  0  0
  8  5  1  0  0  0  0
  9  8  1  0  0  0  0
 10 11  1  0  0  0  0
 10  9  2  0  0  0  0
 11 12  2  0  0  0  0
 12  8  1  0  0  0  0
 12 19  1  0  0  0  0
 13  1  1  0  0  0  0
 17 10  1  0  0  0  0
 18 11  1  0  0  0  0
 19 20  1  1  0  0  0
 19 21  1  0  0  0  0
 21 22  1  0  0  0  0
 21 24  1  0  0  0  0
 23 21  1  0  0  0  0
 25 28  1  0  0  0  0
 25 26  1  0  0  0  0
 25 19  1  0  0  0  0
 27 25  1  0  0  0  0
 28 29  1  0  0  0  0
 29 30  2  0  0  0  0
 31 32  1  0  0  0  0
 31 30  1  0  0  0  0
 33 31  2  0  0  0  0
 34 28  2  0  0  0  0
 34 33  1  0  0  0  0
M  END
>  <minimizedAffinity>
-4.93487453

>  <minimizedRMSD>
0.865392566

$$$$
