
 OpenBabel03262519403D

 46 50  0  0  1  0  0  0  0  0999 V2000
   37.9650   25.2290   34.2920 N   0  0  0  0  0  0  0  0  0  0  0  0
   37.2940   25.4050   33.0230 C   0  0  0  0  0  0  0  0  0  0  0  0
   37.8310   26.6720   32.4520 C   0  0  0  0  0  0  0  0  0  0  0  0
   38.8310   27.1500   33.4930 C   0  0  0  0  0  0  0  0  0  0  0  0
   39.2660   25.7660   34.0660 C   0  0  2  0  0  0  0  0  0  0  0  0
   36.2050   25.4960   33.1930 H   0  0  0  0  0  0  0  0  0  0  0  0
   37.5010   24.5130   32.4010 H   0  0  0  0  0  0  0  0  0  0  0  0
   38.4710   26.3740   31.5710 H   0  0  0  0  0  0  0  0  0  0  0  0
   37.0810   27.4200   32.1770 H   0  0  0  0  0  0  0  0  0  0  0  0
   39.6800   27.6880   33.0790 H   0  0  0  0  0  0  0  0  0  0  0  0
   38.3010   27.6700   34.3040 H   0  0  0  0  0  0  0  0  0  0  0  0
   39.8290   25.9820   35.0030 H   0  0  0  0  0  0  0  0  0  0  0  0
   38.1230   23.8420   34.6230 C   0  0  0  0  0  0  0  0  0  0  0  0
   38.9770   23.4270   34.0650 H   0  0  0  0  0  0  0  0  0  0  0  0
   37.2090   23.3020   34.3670 H   0  0  0  0  0  0  0  0  0  0  0  0
   37.9370   24.0030   38.4070 C   0  0  0  0  0  0  0  0  0  0  0  0
   37.5950   24.2140   37.0740 C   0  0  0  0  0  0  0  0  0  0  0  0
   38.4300   23.6560   36.0770 C   0  0  0  0  0  0  0  0  0  0  0  0
   39.5190   22.9440   36.4930 N   0  0  0  0  0  0  0  0  0  0  0  0
   39.7980   22.7760   37.7950 C   0  0  0  0  0  0  0  0  0  0  0  0
   39.0040   23.3060   38.7390 N   0  0  0  0  0  0  0  0  0  0  0  0
   37.2780   24.4440   39.1420 H   0  0  0  0  0  0  0  0  0  0  0  0
   36.7220   24.7830   36.7730 H   0  0  0  0  0  0  0  0  0  0  0  0
   40.6900   22.1930   37.9570 H   0  0  0  0  0  0  0  0  0  0  0  0
   40.0060   25.0650   33.1680 O   0  0  0  0  0  0  0  0  0  0  0  0
   41.3650   25.1270   33.3480 C   0  0  2  0  0  0  0  0  0  0  0  0
   42.1710   24.0900   32.6040 C   0  0  0  0  0  0  0  0  0  0  0  0
   42.0750   24.0500   34.1160 C   0  0  1  0  0  0  0  0  0  0  0  0
   41.7400   26.1220   33.6330 H   0  0  0  0  0  0  0  0  0  0  0  0
   43.1670   24.4450   32.2080 H   0  0  0  0  0  0  0  0  0  0  0  0
   41.6610   23.3520   31.9800 H   0  0  0  0  0  0  0  0  0  0  0  0
   41.4430   23.2310   34.4950 H   0  0  0  0  0  0  0  0  0  0  0  0
   43.2680   24.4000   34.8570 N   0  0  0  0  0  0  0  0  0  0  0  0
   43.7590   25.5550   35.3470 C   0  0  0  0  0  3  0  0  0  0  0  0
   44.9210   25.2550   35.9510 N   0  0  0  0  0  0  0  0  0  0  0  0
   45.1750   23.9360   35.8550 C   0  0  0  0  0  0  0  0  0  0  0  0
   46.2380   23.1870   36.3190 C   0  0  0  0  0  0  0  0  0  0  0  0
   47.2080   23.6710   36.9580 O   0  0  0  0  0  0  0  0  0  0  0  0
   46.2810   21.8610   36.1020 N   0  0  0  0  0  0  0  0  0  0  0  0
   45.2470   21.3340   35.4200 C   0  0  0  0  0  0  0  0  0  0  0  0
   45.1400   19.9300   35.1030 N   0  0  0  0  0  0  0  0  0  0  0  0
   44.2050   22.0480   34.9580 N   0  0  0  0  0  0  0  0  0  0  0  0
   44.1170   23.3920   35.1540 C   0  0  0  0  0  0  0  0  0  0  0  0
   47.0160   21.1790   36.3940 H   0  0  0  0  0  0  0  0  0  0  0  0
   45.5630   19.5180   34.2380 H   0  0  0  0  0  0  0  0  0  0  0  0
   44.5980   19.3710   35.8240 H   0  0  0  0  0  0  0  0  0  0  0  0
  1 13  1  0  0  0  0
  2  6  1  0  0  0  0
  2  1  1  0  0  0  0
  3  2  1  0  0  0  0
  3  4  1  0  0  0  0
  4  5  1  0  0  0  0
  4 11  1  0  0  0  0
  5  1  1  0  0  0  0
  5 12  1  1  0  0  0
  7  2  1  0  0  0  0
  8  3  1  0  0  0  0
  9  3  1  0  0  0  0
 10  4  1  0  0  0  0
 13 18  1  0  0  0  0
 14 13  1  0  0  0  0
 15 13  1  0  0  0  0
 16 21  1  0  0  0  0
 16 22  1  0  0  0  0
 17 16  2  0  0  0  0
 18 19  2  0  0  0  0
 18 17  1  0  0  0  0
 19 20  1  0  0  0  0
 20 24  1  0  0  0  0
 20 21  2  0  0  0  0
 23 17  1  0  0  0  0
 25 26  1  0  0  0  0
 25  5  1  0  0  0  0
 26 29  1  1  0  0  0
 26 28  1  0  0  0  0
 27 26  1  0  0  0  0
 27 28  1  0  0  0  0
 28 32  1  1  0  0  0
 28 33  1  0  0  0  0
 30 27  1  0  0  0  0
 31 27  1  0  0  0  0
 33 43  1  0  0  0  0
 33 34  1  0  0  0  0
 34 35  2  0  0  0  0
 36 35  1  0  0  0  0
 36 37  1  0  0  0  0
 37 38  2  0  0  0  0
 39 37  1  0  0  0  0
 39 44  1  0  0  0  0
 40 39  1  0  0  0  0
 41 40  1  0  0  0  0
 41 46  1  0  0  0  0
 42 43  1  0  0  0  0
 42 40  2  0  0  0  0
 43 36  2  0  0  0  0
 45 41  1  0  0  0  0
M  END
>  <minimizedAffinity>
-4.5605793

>  <minimizedRMSD>
2.66764522

$$$$
