REMARK  Name = 
REMARK  5 active torsions:
REMARK  status: ('A' for Active; 'I' for Inactive)
REMARK    1  A    between atoms: N_1  and  C_6
REMARK    2  A    between atoms: C_5  and  O_13
REMARK    3  A    between atoms: C_6  and  C_9
REMARK    4  A    between atoms: O_13  and  C_14
REMARK    5  A    between atoms: C_16  and  N_33
REMARK                            x       y       z     vdW  Elec       q    Type
REMARK                         _______ _______ _______ _____ _____    ______ ____
ROOT
ATOM      1  N   UNL     1      37.642  25.373  34.368  0.00  0.00    +0.000 NA
ATOM      2  C   UNL     1      37.110  25.405  33.023  0.00  0.00    +0.000 C 
ATOM      3  C   UNL     1      36.855  26.842  32.722  0.00  0.00    +0.000 C 
ATOM      4  C   UNL     1      37.291  27.566  33.986  0.00  0.00    +0.000 C 
ATOM      5  C   UNL     1      38.399  26.577  34.463  0.00  0.00    +0.000 C 
ATOM      6  H   UNL     1      36.163  24.836  32.990  0.00  0.00    +0.000 HD
ATOM      7  H   UNL     1      37.853  24.934  32.351  0.00  0.00    +0.000 HD
ATOM      8  H   UNL     1      37.624  27.143  31.952  0.00  0.00    +0.000 HD
ATOM      9  H   UNL     1      35.838  27.082  32.399  0.00  0.00    +0.000 HD
ATOM     10  H   UNL     1      37.700  28.558  33.811  0.00  0.00    +0.000 HD
ATOM     11  H   UNL     1      36.488  27.519  34.735  0.00  0.00    +0.000 HD
ATOM     12  H   UNL     1      38.645  26.869  35.510  0.00  0.00    +0.000 HD
ENDROOT
BRANCH   1  13
ATOM     13  C   UNL     1      38.550  24.278  34.555  0.00  0.00    +0.000 C 
ATOM     14  H   UNL     1      39.555  24.572  34.214  0.00  0.00    +0.000 HD
ATOM     15  H   UNL     1      38.198  23.414  33.986  0.00  0.00    +0.000 HD
BRANCH  13  18
ATOM     16  C   UNL     1      37.862  23.908  38.266  0.00  0.00    +0.000 A 
ATOM     17  C   UNL     1      37.681  24.280  36.937  0.00  0.00    +0.000 A 
ATOM     18  C   UNL     1      38.678  23.912  36.002  0.00  0.00    +0.000 A 
ATOM     19  N   UNL     1      39.754  23.213  36.470  0.00  0.00    +0.000 NA
ATOM     20  C   UNL     1      39.873  22.884  37.766  0.00  0.00    +0.000 A 
ATOM     21  N   UNL     1      38.926  23.234  38.651  0.00  0.00    +0.000 NA
ATOM     22  H   UNL     1      37.082  24.206  38.953  0.00  0.00    +0.000 HD
ATOM     23  H   UNL     1      36.815  24.835  36.593  0.00  0.00    +0.000 HD
ATOM     24  H   UNL     1      40.777  22.335  37.974  0.00  0.00    +0.000 HD
ENDBRANCH  13  18
ENDBRANCH   1  13
BRANCH   5  25
ATOM     25  O   UNL     1      39.485  26.614  33.647  0.00  0.00    +0.000 OA
BRANCH  25  26
ATOM     26  C   UNL     1      40.617  27.161  34.197  0.00  0.00    +0.000 C 
ATOM     27  C   UNL     1      41.694  27.559  33.217  0.00  0.00    +0.000 C 
ATOM     28  C   UNL     1      41.912  26.402  34.172  0.00  0.00    +0.000 C 
ATOM     29  H   UNL     1      40.461  27.634  35.179  0.00  0.00    +0.000 HD
ATOM     30  H   UNL     1      42.265  28.496  33.481  0.00  0.00    +0.000 HD
ATOM     31  H   UNL     1      41.541  27.395  32.148  0.00  0.00    +0.000 HD
ATOM     32  H   UNL     1      41.884  25.416  33.682  0.00  0.00    +0.000 HD
BRANCH  28  33
ATOM     33  N   UNL     1      42.858  26.610  35.248  0.00  0.00    +0.000 N 
ATOM     34  C   UNL     1      42.738  26.954  36.545  0.00  0.00    +0.000 A 
ATOM     35  N   UNL     1      43.982  26.994  37.050  0.00  0.00    +0.000 NA
ATOM     36  C   UNL     1      44.886  26.682  36.102  0.00  0.00    +0.000 A 
ATOM     37  C   UNL     1      46.263  26.598  36.163  0.00  0.00    +0.000 A 
ATOM     38  O   UNL     1      46.931  26.818  37.206  0.00  0.00    +0.000 OA
ATOM     39  N   UNL     1      46.972  26.263  35.071  0.00  0.00    +0.000 N 
ATOM     40  C   UNL     1      46.265  26.025  33.950  0.00  0.00    +0.000 A 
ATOM     41  N   UNL     1      46.872  25.656  32.694  0.00  0.00    +0.000 N 
ATOM     42  N   UNL     1      44.925  26.104  33.872  0.00  0.00    +0.000 NA
ATOM     43  C   UNL     1      44.165  26.438  34.950  0.00  0.00    +0.000 A 
ATOM     44  H   UNL     1      48.007  26.163  34.975  0.00  0.00    +0.000 HD
ATOM     45  H   UNL     1      47.205  26.368  32.003  0.00  0.00    +0.000 HD
ATOM     46  H   UNL     1      46.944  24.607  32.548  0.00  0.00    +0.000 HD
ENDBRANCH  28  33
ENDBRANCH  25  26
ENDBRANCH   5  25
TORSDOF 5
