REMARK  Name = 
REMARK  4 active torsions:
REMARK  status: ('A' for Active; 'I' for Inactive)
REMARK    1  A    between atoms: C_1  and  C_6
REMARK    2  A    between atoms: N_5  and  C_12
REMARK    3  A    between atoms: C_14  and  C_15
REMARK    4  A    between atoms: C_14  and  N_27
REMARK                            x       y       z     vdW  Elec       q    Type
REMARK                         _______ _______ _______ _____ _____    ______ ____
ROOT
ATOM      1  C   UNL     1      38.541  23.950  35.899  0.00  0.00    +0.000 C 
ATOM      2  C   UNL     1      38.080  25.230  36.365  0.00  0.00    +0.000 C 
ATOM      3  C   UNL     1      37.561  23.919  37.028  0.00  0.00    +0.000 C 
ATOM      4  H   UNL     1      39.616  23.671  36.166  0.00  0.00    +0.000 HD
ATOM      5  H   UNL     1      38.741  25.855  37.013  0.00  0.00    +0.000 HD
ATOM      6  H   UNL     1      37.334  25.806  35.819  0.00  0.00    +0.000 HD
ENDROOT
BRANCH   3   7
ATOM      7  N   UNL     1      36.096  23.971  36.920  0.00  0.00    +0.000 N 
ATOM      8  C   UNL     1      35.335  22.903  37.281  0.00  0.00    +0.000 A 
ATOM      9  N   UNL     1      34.025  23.218  37.082  0.00  0.00    +0.000 NA
ATOM     10  C   UNL     1      33.995  24.463  36.606  0.00  0.00    +0.000 A 
ATOM     11  C   UNL     1      32.970  25.305  36.224  0.00  0.00    +0.000 A 
ATOM     12  O   UNL     1      31.766  24.950  36.286  0.00  0.00    +0.000 OA
ATOM     13  N   UNL     1      33.289  26.533  35.775  0.00  0.00    +0.000 N 
ATOM     14  C   UNL     1      34.564  26.987  35.679  0.00  0.00    +0.000 A 
ATOM     15  N   UNL     1      34.863  28.296  35.199  0.00  0.00    +0.000 N 
ATOM     16  N   UNL     1      35.586  26.186  36.046  0.00  0.00    +0.000 NA
ATOM     17  C   UNL     1      35.282  24.955  36.496  0.00  0.00    +0.000 A 
ATOM     18  H   UNL     1      32.504  27.187  35.479  0.00  0.00    +0.000 HD
ATOM     19  H   UNL     1      34.222  29.096  35.327  0.00  0.00    +0.000 HD
ATOM     20  H   UNL     1      35.778  28.440  34.693  0.00  0.00    +0.000 HD
ENDBRANCH   3   7
BRANCH   1  25
ATOM     21  C   UNL     1      37.869  23.700  33.503  0.00  0.00    +0.000 A 
ATOM     22  C   UNL     1      37.463  22.660  32.668  0.00  0.00    +0.000 A 
ATOM     23  N   UNL     1      37.484  21.564  33.488  0.00  0.00    +0.000 NA
ATOM     24  C   UNL     1      37.875  21.967  34.692  0.00  0.00    +0.000 A 
ATOM     25  N   UNL     1      38.117  23.273  34.729  0.00  0.00    +0.000 N 
ATOM     26  H   UNL     1      37.205  22.789  31.609  0.00  0.00    +0.000 HD
ATOM     27  H   UNL     1      37.941  21.195  35.461  0.00  0.00    +0.000 HD
BRANCH  21  28
ATOM     28  C   UNL     1      38.014  25.084  33.078  0.00  0.00    +0.000 A 
ATOM     29  C   UNL     1      39.296  25.584  32.768  0.00  0.00    +0.000 A 
ATOM     30  C   UNL     1      39.391  26.931  32.353  0.00  0.00    +0.000 A 
ATOM     31  N   UNL     1      38.239  27.651  32.284  0.00  0.00    +0.000 NA
ATOM     32  C   UNL     1      37.029  27.131  32.592  0.00  0.00    +0.000 A 
ATOM     33  N   UNL     1      36.910  25.852  32.988  0.00  0.00    +0.000 NA
ATOM     34  H   UNL     1      40.160  24.954  32.847  0.00  0.00    +0.000 HD
ATOM     35  H   UNL     1      40.353  27.355  32.105  0.00  0.00    +0.000 HD
ATOM     36  H   UNL     1      36.215  27.831  32.485  0.00  0.00    +0.000 HD
ENDBRANCH  21  28
ENDBRANCH   1  25
BRANCH   3  37
ATOM     37  C   UNL     1      38.122  23.764  38.427  0.00  0.00    +0.000 C 
ATOM     38  F   UNL     1      37.511  22.702  39.063  0.00  0.00    +0.000 F 
ATOM     39  F   UNL     1      39.511  23.341  38.307  0.00  0.00    +0.000 F 
ATOM     40  F   UNL     1      38.135  24.897  39.144  0.00  0.00    +0.000 F 
ENDBRANCH   3  37
TORSDOF 4
