
     RDKit          3D

 22 23  0  0  0  0  0  0  0  0999 V2000
   40.6051   22.1570   37.2684 C   0  0  0  0  0  0  0  0  0  0  0  0
   39.9068   22.9911   38.1460 C   0  0  0  0  0  0  0  0  0  0  0  0
   38.6480   23.4657   37.7549 C   0  0  0  0  0  0  0  0  0  0  0  0
   38.1712   23.0840   36.5297 N   0  0  0  0  0  0  0  0  0  0  0  0
   38.8834   22.2740   35.7126 C   0  0  0  0  0  0  0  0  0  0  0  0
   40.0907   21.8172   36.0848 N   0  0  0  0  0  0  0  0  0  0  0  0
   37.8488   24.3611   38.6456 C   0  0  0  0  0  0  0  0  0  0  0  0
   41.5809   21.7626   37.5209 H   0  0  0  0  0  0  0  0  0  0  0  0
   40.3242   23.2662   39.1052 H   0  0  0  0  0  0  0  0  0  0  0  0
   38.5154   21.9654   34.7403 H   0  0  0  0  0  0  0  0  0  0  0  0
   36.7776   24.2142   38.3755 H   0  0  0  0  0  0  0  0  0  0  0  0
   38.0663   24.1002   39.6983 H   0  0  0  0  0  0  0  0  0  0  0  0
   38.2084   25.7697   38.3344 C   0  0  0  0  0  0  0  0  0  0  0  0
   38.1687   26.7945   39.2734 C   0  0  0  0  0  0  0  0  0  0  0  0
   38.5156   28.1001   38.9323 C   0  0  0  0  0  0  0  0  0  0  0  0
   38.9035   28.3370   37.6131 C   0  0  0  0  0  0  0  0  0  0  0  0
   39.1854   29.3536   37.3015 H   0  0  0  0  0  0  0  0  0  0  0  0
   38.9426   27.3228   36.6842 C   0  0  0  0  0  0  0  0  0  0  0  0
   38.5946   26.0914   37.0866 N   0  0  0  0  0  0  0  0  0  0  0  0
   37.8606   26.5597   40.2851 H   0  0  0  0  0  0  0  0  0  0  0  0
   38.4810   28.8908   39.6719 H   0  0  0  0  0  0  0  0  0  0  0  0
   39.2484   27.5552   35.6790 H   0  0  0  0  0  0  0  0  0  0  0  0
  1  2  2  0
  3  2  1  0
  3  7  1  0
  4  3  2  0
  5  6  2  0
  5  4  1  0
  6  1  1  0
  1  8  1  0
  2  9  1  0
  5 10  1  0
  7 11  1  0
  7 12  1  0
 13 14  2  0
 14 15  1  0
 15 16  2  0
 16 17  1  0
 16 18  1  0
 18 19  2  0
 19 13  1  0
 14 20  1  0
 15 21  1  0
 18 22  1  0
  7 13  1  0
M  ISO  6   8  14   9  14  10  14  11   8  12   8  17  16
M  END
>  <DihAtoms>  (1) 
2,6,12,13

>  <DihDeg>  (1) 
-89.99927791114706

$$$$
