
 OpenBabel03262519593D

 40 44  0  0  1  0  0  0  0  0999 V2000
   38.2840   22.5960   33.9560 C   0  0  1  0  0  0  0  0  0  0  0  0
   37.5610   23.2700   32.9120 C   0  0  0  0  0  0  0  0  0  0  0  0
   37.6780   21.7170   32.9100 C   0  0  1  0  0  0  0  0  0  0  0  0
   37.7830   22.5660   34.9820 H   0  0  0  0  0  0  0  0  0  0  0  0
   36.5360   23.6650   33.1130 H   0  0  0  0  0  0  0  0  0  0  0  0
   38.0720   23.7800   32.0960 H   0  0  0  0  0  0  0  0  0  0  0  0
   38.2690   21.3640   31.6110 N   0  0  0  0  0  0  0  0  0  0  0  0
   38.5240   20.0660   31.2940 C   0  0  0  0  0  3  0  0  0  0  0  0
   39.0650   20.0230   30.0450 N   0  0  0  0  0  0  0  0  0  0  0  0
   39.1350   21.2820   29.6110 C   0  0  0  0  0  0  0  0  0  0  0  0
   39.5850   21.8550   28.4390 C   0  0  0  0  0  0  0  0  0  0  0  0
   40.0520   21.1600   27.5010 O   0  0  0  0  0  0  0  0  0  0  0  0
   39.5150   23.1930   28.3160 N   0  0  0  0  0  0  0  0  0  0  0  0
   39.0240   24.0090   29.2840 C   0  0  0  0  0  0  0  0  0  0  0  0
   38.9640   25.4240   29.1170 N   0  0  0  0  0  0  0  0  0  0  0  0
   38.5760   23.4770   30.4400 N   0  0  0  0  0  0  0  0  0  0  0  0
   38.6410   22.1400   30.5770 C   0  0  0  0  0  0  0  0  0  0  0  0
   39.8600   23.6410   27.4150 H   0  0  0  0  0  0  0  0  0  0  0  0
   38.8390   25.8710   28.1940 H   0  0  0  0  0  0  0  0  0  0  0  0
   39.0550   26.0270   29.9780 H   0  0  0  0  0  0  0  0  0  0  0  0
   40.6520   23.3960   34.0580 C   0  0  0  0  0  0  0  0  0  0  0  0
   41.9110   22.8170   34.2090 C   0  0  0  0  0  0  0  0  0  0  0  0
   41.6380   21.4810   34.3210 N   0  0  0  0  0  0  0  0  0  0  0  0
   40.3210   21.3290   34.2390 C   0  0  0  0  0  0  0  0  0  0  0  0
   39.6920   22.4880   34.0770 N   0  0  0  0  0  0  0  0  0  0  0  0
   42.8500   23.3860   34.2210 H   0  0  0  0  0  0  0  0  0  0  0  0
   39.9480   20.3050   34.3140 H   0  0  0  0  0  0  0  0  0  0  0  0
   40.4180   24.8240   33.9090 C   0  0  0  0  0  0  0  0  0  0  0  0
   40.0800   25.5940   35.0420 C   0  0  0  0  0  0  0  0  0  0  0  0
   39.8690   26.9780   34.8540 C   0  0  0  0  0  0  0  0  0  0  0  0
   40.0030   27.4700   33.5930 N   0  0  0  0  0  0  0  0  0  0  0  0
   40.3280   26.6940   32.5330 C   0  0  0  0  0  0  0  0  0  0  0  0
   40.5360   25.3750   32.6840 N   0  0  0  0  0  0  0  0  0  0  0  0
   39.9920   25.1340   36.0060 H   0  0  0  0  0  0  0  0  0  0  0  0
   39.6090   27.6060   35.6940 H   0  0  0  0  0  0  0  0  0  0  0  0
   40.3970   27.2360   31.6030 H   0  0  0  0  0  0  0  0  0  0  0  0
   36.3440   21.0750   33.2330 C   0  0  0  0  0  0  0  0  0  0  0  0
   36.4230   19.7090   33.0510 F   0  0  0  0  0  0  0  0  0  0  0  0
   36.1130   21.2200   34.6640 F   0  0  0  0  0  0  0  0  0  0  0  0
   35.2960   21.6480   32.6240 F   0  0  0  0  0  0  0  0  0  0  0  0
  1 25  1  0  0  0  0
  1  4  1  1  0  0  0
  2  5  1  0  0  0  0
  2  1  1  0  0  0  0
  3  2  1  0  0  0  0
  3 37  1  1  0  0  0
  3  1  1  0  0  0  0
  6  2  1  0  0  0  0
  7  3  1  0  0  0  0
  8  7  1  0  0  0  0
  9  8  2  0  0  0  0
 10  9  1  0  0  0  0
 10 17  2  0  0  0  0
 11 10  1  0  0  0  0
 12 11  2  0  0  0  0
 13 11  1  0  0  0  0
 13 14  1  0  0  0  0
 14 16  2  0  0  0  0
 15 14  1  0  0  0  0
 15 20  1  0  0  0  0
 16 17  1  0  0  0  0
 17  7  1  0  0  0  0
 18 13  1  0  0  0  0
 19 15  1  0  0  0  0
 21 25  1  0  0  0  0
 21 22  2  0  0  0  0
 22 26  1  0  0  0  0
 22 23  1  0  0  0  0
 24 27  1  0  0  0  0
 24 23  2  0  0  0  0
 25 24  1  0  0  0  0
 28 21  1  0  0  0  0
 28 29  1  0  0  0  0
 29 34  1  0  0  0  0
 30 29  2  0  0  0  0
 30 35  1  0  0  0  0
 31 30  1  0  0  0  0
 32 33  1  0  0  0  0
 32 31  2  0  0  0  0
 33 28  2  0  0  0  0
 36 32  1  0  0  0  0
 37 39  1  0  0  0  0
 38 37  1  0  0  0  0
 40 37  1  0  0  0  0
M  END
>  <minimizedAffinity>
-3.92860937

>  <minimizedRMSD>
6.44412994

$$$$
