
 OpenBabel03262517203D

 37 40  0  0  0  0  0  0  0  0999 V2000
   38.8820   23.8800   34.5140 N   0  0  0  0  0  0  0  0  0  0  0  0
   39.1730   23.0070   33.5600 N   0  0  0  0  0  0  0  0  0  0  0  0
   39.1260   23.5480   32.3480 C   0  0  0  0  0  0  0  0  0  0  0  0
   38.7760   24.8800   32.5550 C   0  0  0  0  0  0  0  0  0  0  0  0
   38.6260   25.0750   33.9240 C   0  0  0  0  0  0  0  0  0  0  0  0
   39.3360   22.9800   31.4440 H   0  0  0  0  0  0  0  0  0  0  0  0
   38.6220   25.8090   31.4880 N   0  0  0  0  0  0  0  0  0  0  0  0
   39.4730   25.8050   30.4210 C   0  0  0  0  0  0  0  0  0  0  0  0
   39.1190   26.7770   29.5480 N   0  0  0  0  0  0  0  0  0  0  0  0
   38.0390   27.3940   30.0720 C   0  0  0  0  0  0  0  0  0  0  0  0
   37.1970   28.4440   29.7070 C   0  0  0  0  0  0  0  0  0  0  0  0
   37.4870   28.9850   28.6070 O   0  0  0  0  0  0  0  0  0  0  0  0
   36.1690   28.8190   30.4970 N   0  0  0  0  0  0  0  0  0  0  0  0
   35.9050   28.2010   31.6690 C   0  0  0  0  0  0  0  0  0  0  0  0
   34.7850   28.7450   32.3430 N   0  0  0  0  0  0  0  0  0  0  0  0
   36.7010   27.1680   32.0670 N   0  0  0  0  0  0  0  0  0  0  0  0
   37.7240   26.7900   31.2900 C   0  0  0  0  0  0  0  0  0  0  0  0
   35.6200   29.6180   30.1040 H   0  0  0  0  0  0  0  0  0  0  0  0
   34.0680   28.1250   32.7260 H   0  0  0  0  0  0  0  0  0  0  0  0
   34.6500   29.7580   32.4710 H   0  0  0  0  0  0  0  0  0  0  0  0
   37.6670   23.7990   36.5990 C   0  0  0  0  0  0  0  0  0  0  0  0
   38.8480   23.6110   35.8830 C   0  0  0  0  0  0  0  0  0  0  0  0
   40.0000   23.1560   36.5300 C   0  0  0  0  0  0  0  0  0  0  0  0
   39.8800   22.9150   37.8800 N   0  0  0  0  0  0  0  0  0  0  0  0
   38.7470   23.0970   38.5550 C   0  0  0  0  0  0  0  0  0  0  0  0
   37.6280   23.5410   37.9190 N   0  0  0  0  0  0  0  0  0  0  0  0
   36.7650   24.1510   36.1080 H   0  0  0  0  0  0  0  0  0  0  0  0
   40.9280   22.9980   36.0200 H   0  0  0  0  0  0  0  0  0  0  0  0
   38.7130   22.8890   39.6270 H   0  0  0  0  0  0  0  0  0  0  0  0
   38.2680   26.3210   34.5360 N   0  0  0  0  0  0  0  0  0  0  0  0
   39.1660   27.0480   35.3830 C   0  0  0  0  0  0  0  0  0  0  0  0
   40.4260   27.0070   35.0440 N   0  0  0  0  0  0  0  0  0  0  0  0
   38.5970   27.7350   36.5000 N   0  0  0  0  0  0  0  0  0  0  0  0
   41.0660   27.5400   35.6620 H   0  0  0  0  0  0  0  0  0  0  0  0
   37.2970   26.6860   34.3340 H   0  0  0  0  0  0  0  0  0  0  0  0
   37.9650   27.2900   37.2010 H   0  0  0  0  0  0  0  0  0  0  0  0
   38.8940   28.7390   36.5250 H   0  0  0  0  0  0  0  0  0  0  0  0
  1 22  1  0  0  0  0
  2  1  1  0  0  0  0
  3  4  1  0  0  0  0
  3  2  2  0  0  0  0
  4  5  2  0  0  0  0
  5  1  1  0  0  0  0
  5 30  1  0  0  0  0
  6  3  1  0  0  0  0
  7  4  1  0  0  0  0
  8  7  1  0  0  0  0
  9 10  1  0  0  0  0
  9  8  2  0  0  0  0
 10 17  2  0  0  0  0
 11 10  1  0  0  0  0
 11 13  1  0  0  0  0
 12 11  2  0  0  0  0
 13 14  1  0  0  0  0
 14 16  2  0  0  0  0
 14 15  1  0  0  0  0
 15 20  1  0  0  0  0
 15 19  1  0  0  0  0
 17  7  1  0  0  0  0
 17 16  1  0  0  0  0
 18 13  1  0  0  0  0
 21 26  1  0  0  0  0
 22 23  1  0  0  0  0
 22 21  2  0  0  0  0
 23 24  2  0  0  0  0
 24 25  1  0  0  0  0
 25 29  1  0  0  0  0
 26 25  2  0  0  0  0
 27 21  1  0  0  0  0
 28 23  1  0  0  0  0
 30 31  1  0  0  0  0
 31 33  1  0  0  0  0
 32 31  2  0  0  0  0
 32 34  1  0  0  0  0
 33 37  1  0  0  0  0
 33 36  1  0  0  0  0
 35 30  1  0  0  0  0
M  END
>  <minimizedAffinity>
-6.09254217

>  <minimizedRMSD>
1.13106024

$$$$
