
 OpenBabel03262519473D

 46 50  0  0  1  0  0  0  0  0999 V2000
   37.3920   25.7960   32.8850 N   0  0  0  0  0  0  0  0  0  0  0  0
   36.8690   24.7140   32.2920 C   0  0  0  0  0  0  0  0  0  0  0  0
   35.8290   24.9910   31.4400 C   0  0  0  0  0  0  0  0  0  0  0  0
   35.7000   26.3180   31.5090 N   0  0  0  0  0  0  0  0  0  0  0  0
   36.6370   26.7980   32.3750 C   0  0  0  0  0  0  0  0  0  0  0  0
   37.2670   23.7050   32.4950 H   0  0  0  0  0  0  0  0  0  0  0  0
   35.2820   24.2550   30.8720 H   0  0  0  0  0  0  0  0  0  0  0  0
   36.7270   28.2870   32.6070 C   0  0  1  0  0  0  0  0  0  0  0  0
   35.9420   29.1420   31.6820 C   0  0  0  0  0  0  0  0  0  0  0  0
   35.4660   28.9780   33.0870 C   0  0  2  0  0  0  0  0  0  0  0  0
   37.6610   28.5950   33.1100 H   0  0  0  0  0  0  0  0  0  0  0  0
   35.3270   28.6460   30.9030 H   0  0  0  0  0  0  0  0  0  0  0  0
   36.4970   30.0100   31.3130 H   0  0  0  0  0  0  0  0  0  0  0  0
   34.5890   28.3580   33.2590 H   0  0  0  0  0  0  0  0  0  0  0  0
   35.6330   30.1140   33.9720 N   0  0  0  0  0  0  0  0  0  0  0  0
   36.0170   30.0360   35.2790 C   0  0  0  0  0  3  0  0  0  0  0  0
   36.0790   31.2780   35.8320 N   0  0  0  0  0  0  0  0  0  0  0  0
   35.7320   32.1770   34.8760 C   0  0  0  0  0  0  0  0  0  0  0  0
   35.6180   33.5490   34.8560 C   0  0  0  0  0  0  0  0  0  0  0  0
   35.8600   34.2300   35.8780 O   0  0  0  0  0  0  0  0  0  0  0  0
   35.2380   34.1820   33.7130 N   0  0  0  0  0  0  0  0  0  0  0  0
   34.9800   33.4300   32.6150 C   0  0  0  0  0  0  0  0  0  0  0  0
   34.5830   34.1290   31.4320 N   0  0  0  0  0  0  0  0  0  0  0  0
   35.0980   32.0890   32.6570 N   0  0  0  0  0  0  0  0  0  0  0  0
   35.4680   31.4260   33.7590 C   0  0  0  0  0  0  0  0  0  0  0  0
   35.1660   35.2160   33.7460 H   0  0  0  0  0  0  0  0  0  0  0  0
   34.9240   35.0900   31.2120 H   0  0  0  0  0  0  0  0  0  0  0  0
   33.9380   33.8040   30.6690 H   0  0  0  0  0  0  0  0  0  0  0  0
   38.4250   26.0240   33.8180 C   0  0  0  0  0  0  0  0  0  0  0  0
   39.1970   25.2190   33.7070 H   0  0  0  0  0  0  0  0  0  0  0  0
   38.9510   26.9870   33.6060 H   0  0  0  0  0  0  0  0  0  0  0  0
   37.9660   26.0150   35.2280 C   0  0  1  0  0  0  0  0  0  0  0  0
   36.8420   25.8960   35.2520 H   0  0  0  0  0  0  0  0  0  0  0  0
   38.5280   23.4670   37.9740 C   0  0  0  0  0  0  0  0  0  0  0  0
   37.9400   24.5490   37.3010 C   0  0  0  0  0  0  0  0  0  0  0  0
   38.5130   24.9030   36.0350 C   0  0  0  0  0  0  0  0  0  0  0  0
   39.5900   24.1830   35.5450 N   0  0  0  0  0  0  0  0  0  0  0  0
   40.1100   23.1610   36.2300 C   0  0  0  0  0  0  0  0  0  0  0  0
   39.5760   22.7970   37.4560 N   0  0  0  0  0  0  0  0  0  0  0  0
   38.0830   23.2160   38.9250 H   0  0  0  0  0  0  0  0  0  0  0  0
   37.1130   25.1240   37.6450 H   0  0  0  0  0  0  0  0  0  0  0  0
   40.9500   22.5930   35.8580 H   0  0  0  0  0  0  0  0  0  0  0  0
   38.2710   27.3500   35.9010 C   0  0  0  0  0  0  0  0  0  0  0  0
   39.2080   27.1980   36.5070 H   0  0  0  0  0  0  0  0  0  0  0  0
   37.4720   27.5520   36.6450 H   0  0  0  0  0  0  0  0  0  0  0  0
   38.4340   28.1460   35.1700 H   0  0  0  0  0  0  0  0  0  0  0  0
  1 29  1  0  0  0  0
  2  6  1  0  0  0  0
  2  1  1  0  0  0  0
  3  4  1  0  0  0  0
  3  2  2  0  0  0  0
  4  5  2  0  0  0  0
  5  8  1  0  0  0  0
  5  1  1  0  0  0  0
  7  3  1  0  0  0  0
  8 10  1  0  0  0  0
  8 11  1  1  0  0  0
  9  8  1  0  0  0  0
  9 10  1  0  0  0  0
 10 14  1  1  0  0  0
 10 15  1  0  0  0  0
 12  9  1  0  0  0  0
 13  9  1  0  0  0  0
 15 16  1  0  0  0  0
 16 17  2  0  0  0  0
 18 17  1  0  0  0  0
 19 18  1  0  0  0  0
 19 20  2  0  0  0  0
 21 26  1  0  0  0  0
 21 19  1  0  0  0  0
 22 24  2  0  0  0  0
 22 21  1  0  0  0  0
 23 22  1  0  0  0  0
 24 25  1  0  0  0  0
 25 15  1  0  0  0  0
 25 18  2  0  0  0  0
 27 23  1  0  0  0  0
 28 23  1  0  0  0  0
 29 32  1  0  0  0  0
 30 29  1  0  0  0  0
 31 29  1  0  0  0  0
 32 33  1  6  0  0  0
 32 43  1  0  0  0  0
 32 36  1  0  0  0  0
 34 40  1  0  0  0  0
 35 41  1  0  0  0  0
 35 34  2  0  0  0  0
 36 35  1  0  0  0  0
 37 36  2  0  0  0  0
 37 38  1  0  0  0  0
 38 39  2  0  0  0  0
 39 34  1  0  0  0  0
 42 38  1  0  0  0  0
 43 44  1  0  0  0  0
 43 45  1  0  0  0  0
 46 43  1  0  0  0  0
M  END
>  <minimizedAffinity>
-5.72587252

>  <minimizedRMSD>
0.88131988

$$$$
