REMARK  Name = 
REMARK  3 active torsions:
REMARK  status: ('A' for Active; 'I' for Inactive)
REMARK    1  A    between atoms: C_1  and  C_6
REMARK    2  A    between atoms: N_5  and  C_12
REMARK    3  A    between atoms: C_14  and  N_24
REMARK                            x       y       z     vdW  Elec       q    Type
REMARK                         _______ _______ _______ _____ _____    ______ ____
ROOT
ATOM      1  C   UNL     1      36.999  21.164  34.391  0.00  0.00    +0.000 C 
ATOM      2  C   UNL     1      35.848  20.964  35.252  0.00  0.00    +0.000 C 
ATOM      3  C   UNL     1      35.659  20.780  33.767  0.00  0.00    +0.000 C 
ATOM      4  H   UNL     1      37.809  20.409  34.387  0.00  0.00    +0.000 HD
ATOM      5  H   UNL     1      35.878  20.079  35.919  0.00  0.00    +0.000 HD
ATOM      6  H   UNL     1      35.250  21.801  35.673  0.00  0.00    +0.000 HD
ATOM      7  H   UNL     1      35.081  21.530  33.200  0.00  0.00    +0.000 HD
ENDROOT
BRANCH   3   8
ATOM      8  N   UNL     1      35.385  19.432  33.379  0.00  0.00    +0.000 N 
ATOM      9  C   UNL     1      36.051  18.279  33.558  0.00  0.00    +0.000 A 
ATOM     10  N   UNL     1      35.339  17.267  32.980  0.00  0.00    +0.000 NA
ATOM     11  C   UNL     1      34.224  17.789  32.438  0.00  0.00    +0.000 A 
ATOM     12  C   UNL     1      33.191  17.181  31.748  0.00  0.00    +0.000 A 
ATOM     13  O   UNL     1      33.176  15.936  31.525  0.00  0.00    +0.000 OA
ATOM     14  N   UNL     1      32.160  17.916  31.290  0.00  0.00    +0.000 N 
ATOM     15  C   UNL     1      32.205  19.252  31.546  0.00  0.00    +0.000 A 
ATOM     16  N   UNL     1      31.166  20.095  31.103  0.00  0.00    +0.000 N 
ATOM     17  N   UNL     1      33.204  19.862  32.217  0.00  0.00    +0.000 NA
ATOM     18  C   UNL     1      34.253  19.161  32.691  0.00  0.00    +0.000 A 
ATOM     19  H   UNL     1      31.351  17.514  30.762  0.00  0.00    +0.000 HD
ATOM     20  H   UNL     1      30.253  19.717  31.482  0.00  0.00    +0.000 HD
ATOM     21  H   UNL     1      30.998  20.949  30.539  0.00  0.00    +0.000 HD
ENDBRANCH   3   8
BRANCH   1  26
ATOM     22  C   UNL     1      38.029  23.474  34.614  0.00  0.00    +0.000 A 
ATOM     23  C   UNL     1      38.262  24.563  33.798  0.00  0.00    +0.000 A 
ATOM     24  N   UNL     1      37.765  24.171  32.589  0.00  0.00    +0.000 NA
ATOM     25  C   UNL     1      37.289  22.951  32.717  0.00  0.00    +0.000 A 
ATOM     26  N   UNL     1      37.436  22.481  33.971  0.00  0.00    +0.000 N 
ATOM     27  H   UNL     1      38.712  25.511  33.991  0.00  0.00    +0.000 HD
ATOM     28  H   UNL     1      36.831  22.399  31.890  0.00  0.00    +0.000 HD
BRANCH  22  29
ATOM     29  C   UNL     1      38.387  23.404  36.027  0.00  0.00    +0.000 A 
ATOM     30  C   UNL     1      39.588  22.814  36.432  0.00  0.00    +0.000 A 
ATOM     31  C   UNL     1      39.906  22.761  37.794  0.00  0.00    +0.000 A 
ATOM     32  N   UNL     1      39.016  23.294  38.651  0.00  0.00    +0.000 NA
ATOM     33  C   UNL     1      37.850  23.866  38.257  0.00  0.00    +0.000 A 
ATOM     34  N   UNL     1      37.541  23.919  36.944  0.00  0.00    +0.000 NA
ATOM     35  H   UNL     1      40.261  22.406  35.713  0.00  0.00    +0.000 HD
ATOM     36  H   UNL     1      40.820  22.317  38.158  0.00  0.00    +0.000 HD
ATOM     37  H   UNL     1      37.126  24.296  38.924  0.00  0.00    +0.000 HD
ENDBRANCH  22  29
ENDBRANCH   1  26
TORSDOF 3
