
 OpenBabel03262519473D

 46 50  0  0  1  0  0  0  0  0999 V2000
   37.4450   25.8170   32.9210 N   0  0  0  0  0  0  0  0  0  0  0  0
   37.0090   24.7160   32.2930 C   0  0  0  0  0  0  0  0  0  0  0  0
   35.9540   24.9370   31.4440 C   0  0  0  0  0  0  0  0  0  0  0  0
   35.7230   26.2480   31.5510 N   0  0  0  0  0  0  0  0  0  0  0  0
   36.6170   26.7720   32.4370 C   0  0  0  0  0  0  0  0  0  0  0  0
   37.4830   23.7350   32.4690 H   0  0  0  0  0  0  0  0  0  0  0  0
   35.4670   24.1780   30.8510 H   0  0  0  0  0  0  0  0  0  0  0  0
   36.5900   28.2560   32.7120 C   0  0  1  0  0  0  0  0  0  0  0  0
   35.7550   29.0760   31.8010 C   0  0  0  0  0  0  0  0  0  0  0  0
   35.2750   28.8360   33.1940 C   0  0  2  0  0  0  0  0  0  0  0  0
   37.4920   28.6180   33.2390 H   0  0  0  0  0  0  0  0  0  0  0  0
   35.1890   28.5600   30.9990 H   0  0  0  0  0  0  0  0  0  0  0  0
   36.2470   29.9950   31.4660 H   0  0  0  0  0  0  0  0  0  0  0  0
   34.4450   28.1460   33.3350 H   0  0  0  0  0  0  0  0  0  0  0  0
   35.3440   29.9540   34.1140 N   0  0  0  0  0  0  0  0  0  0  0  0
   36.1990   30.0410   35.1740 C   0  0  0  0  0  3  0  0  0  0  0  0
   36.0130   31.2130   35.8390 N   0  0  0  0  0  0  0  0  0  0  0  0
   35.0280   31.8990   35.2060 C   0  0  0  0  0  0  0  0  0  0  0  0
   34.4270   33.1200   35.4220 C   0  0  0  0  0  0  0  0  0  0  0  0
   34.7770   33.8490   36.3780 O   0  0  0  0  0  0  0  0  0  0  0  0
   33.4380   33.5470   34.5910 N   0  0  0  0  0  0  0  0  0  0  0  0
   33.0710   32.7440   33.5620 C   0  0  0  0  0  0  0  0  0  0  0  0
   32.0290   33.2270   32.7090 N   0  0  0  0  0  0  0  0  0  0  0  0
   33.6720   31.5560   33.3680 N   0  0  0  0  0  0  0  0  0  0  0  0
   34.6480   31.0970   34.1610 C   0  0  0  0  0  0  0  0  0  0  0  0
   33.0160   34.4720   34.7940 H   0  0  0  0  0  0  0  0  0  0  0  0
   31.8880   34.2420   32.5210 H   0  0  0  0  0  0  0  0  0  0  0  0
   31.3060   32.6700   32.1850 H   0  0  0  0  0  0  0  0  0  0  0  0
   38.4540   26.0950   33.8660 C   0  0  0  0  0  0  0  0  0  0  0  0
   39.2720   25.3370   33.7560 H   0  0  0  0  0  0  0  0  0  0  0  0
   38.9250   27.0890   33.6680 H   0  0  0  0  0  0  0  0  0  0  0  0
   37.9820   26.0470   35.2720 C   0  0  1  0  0  0  0  0  0  0  0  0
   36.8580   25.9230   35.2820 H   0  0  0  0  0  0  0  0  0  0  0  0
   38.5410   23.4410   37.9630 C   0  0  0  0  0  0  0  0  0  0  0  0
   37.9580   24.5400   37.3150 C   0  0  0  0  0  0  0  0  0  0  0  0
   38.5270   24.9150   36.0530 C   0  0  0  0  0  0  0  0  0  0  0  0
   39.5970   24.1990   35.5440 N   0  0  0  0  0  0  0  0  0  0  0  0
   40.1140   23.1610   36.2050 C   0  0  0  0  0  0  0  0  0  0  0  0
   39.5830   22.7750   37.4270 N   0  0  0  0  0  0  0  0  0  0  0  0
   38.1000   23.1730   38.9110 H   0  0  0  0  0  0  0  0  0  0  0  0
   37.1350   25.1120   37.6740 H   0  0  0  0  0  0  0  0  0  0  0  0
   40.9490   22.5950   35.8190 H   0  0  0  0  0  0  0  0  0  0  0  0
   38.2770   27.3640   35.9830 C   0  0  0  0  0  0  0  0  0  0  0  0
   39.2090   27.2000   36.5930 H   0  0  0  0  0  0  0  0  0  0  0  0
   37.4700   27.5440   36.7240 H   0  0  0  0  0  0  0  0  0  0  0  0
   38.4430   28.1810   35.2750 H   0  0  0  0  0  0  0  0  0  0  0  0
  1 29  1  0  0  0  0
  2  6  1  0  0  0  0
  2  1  1  0  0  0  0
  3  4  1  0  0  0  0
  3  2  2  0  0  0  0
  4  5  2  0  0  0  0
  5  8  1  0  0  0  0
  5  1  1  0  0  0  0
  7  3  1  0  0  0  0
  8 10  1  0  0  0  0
  8 11  1  1  0  0  0
  9  8  1  0  0  0  0
  9 10  1  0  0  0  0
 10 14  1  1  0  0  0
 10 15  1  0  0  0  0
 12  9  1  0  0  0  0
 13  9  1  0  0  0  0
 15 25  1  0  0  0  0
 15 16  1  0  0  0  0
 16 17  2  0  0  0  0
 18 19  1  0  0  0  0
 18 17  1  0  0  0  0
 19 20  2  0  0  0  0
 21 26  1  0  0  0  0
 21 19  1  0  0  0  0
 22 21  1  0  0  0  0
 23 22  1  0  0  0  0
 24 22  2  0  0  0  0
 24 25  1  0  0  0  0
 25 18  2  0  0  0  0
 27 23  1  0  0  0  0
 28 23  1  0  0  0  0
 29 32  1  0  0  0  0
 30 29  1  0  0  0  0
 31 29  1  0  0  0  0
 32 33  1  6  0  0  0
 32 43  1  0  0  0  0
 32 36  1  0  0  0  0
 34 40  1  0  0  0  0
 35 41  1  0  0  0  0
 35 34  2  0  0  0  0
 36 35  1  0  0  0  0
 37 36  2  0  0  0  0
 37 38  1  0  0  0  0
 38 39  2  0  0  0  0
 39 34  1  0  0  0  0
 42 38  1  0  0  0  0
 43 44  1  0  0  0  0
 43 45  1  0  0  0  0
 46 43  1  0  0  0  0
M  END
>  <minimizedAffinity>
-5.69068575

>  <minimizedRMSD>
1.17419815

$$$$
