
 OpenBabel03262519363D

 31 33  0  0  1  0  0  0  0  0999 V2000
   37.7760   24.4100   33.8370 N   0  0  0  0  0  0  0  0  0  0  0  0
   38.1160   23.2040   33.1370 C   0  0  0  0  0  0  0  0  0  0  0  0
   37.2930   23.2340   31.8650 C   0  0  0  0  0  0  0  0  0  0  0  0
   36.5180   24.5580   31.9560 C   0  0  0  0  0  0  0  0  0  0  0  0
   37.5570   25.3370   32.7670 C   0  0  1  0  0  0  0  0  0  0  0  0
   39.1900   23.1100   32.9260 H   0  0  0  0  0  0  0  0  0  0  0  0
   37.8120   22.3180   33.7530 H   0  0  0  0  0  0  0  0  0  0  0  0
   37.9370   23.3510   30.9650 H   0  0  0  0  0  0  0  0  0  0  0  0
   36.6190   22.3620   31.7620 H   0  0  0  0  0  0  0  0  0  0  0  0
   36.3560   24.9970   30.9550 H   0  0  0  0  0  0  0  0  0  0  0  0
   35.5940   24.4320   32.5550 H   0  0  0  0  0  0  0  0  0  0  0  0
   38.4790   25.3810   32.1610 H   0  0  0  0  0  0  0  0  0  0  0  0
   37.0520   26.6170   33.1560 N   0  0  0  0  0  0  0  0  0  0  0  0
   36.7000   27.5720   32.3340 N   0  0  0  0  0  0  0  0  0  0  0  0
   36.2630   28.6610   33.0260 C   0  0  0  0  0  0  0  0  0  0  0  0
   35.8930   29.6330   32.7210 H   0  0  0  0  0  0  0  0  0  0  0  0
   36.3540   28.3480   34.3730 C   0  0  0  0  0  0  0  0  0  0  0  0
   36.8470   27.0740   34.4250 C   0  0  0  0  0  0  0  0  0  0  0  0
   37.0450   26.5080   35.3440 H   0  0  0  0  0  0  0  0  0  0  0  0
   38.8800   24.9100   34.6320 C   0  0  0  0  0  0  0  0  0  0  0  0
   39.8150   24.5550   34.1440 H   0  0  0  0  0  0  0  0  0  0  0  0
   38.8960   26.0170   34.6960 H   0  0  0  0  0  0  0  0  0  0  0  0
   38.0340   24.1230   38.2230 C   0  0  0  0  0  0  0  0  0  0  0  0
   37.9620   24.7140   36.9650 C   0  0  0  0  0  0  0  0  0  0  0  0
   38.9020   24.3180   35.9980 C   0  0  0  0  0  0  0  0  0  0  0  0
   39.8460   23.3720   36.3360 N   0  0  0  0  0  0  0  0  0  0  0  0
   39.8710   22.8310   37.5760 C   0  0  0  0  0  0  0  0  0  0  0  0
   38.9620   23.2150   38.5060 N   0  0  0  0  0  0  0  0  0  0  0  0
   37.3230   24.4080   38.9890 H   0  0  0  0  0  0  0  0  0  0  0  0
   37.2240   25.4470   36.7130 H   0  0  0  0  0  0  0  0  0  0  0  0
   40.6290   22.1000   37.7810 H   0  0  0  0  0  0  0  0  0  0  0  0
  1 20  1  0  0  0  0
  2  7  1  0  0  0  0
  2  1  1  0  0  0  0
  3  4  1  0  0  0  0
  3  2  1  0  0  0  0
  4 11  1  0  0  0  0
  4  5  1  0  0  0  0
  5 12  1  6  0  0  0
  5 13  1  0  0  0  0
  5  1  1  0  0  0  0
  6  2  1  0  0  0  0
  8  3  1  0  0  0  0
  9  3  1  0  0  0  0
 10  4  1  0  0  0  0
 13 18  1  0  0  0  0
 14 15  2  0  0  0  0
 14 13  1  0  0  0  0
 15 17  1  0  0  0  0
 16 15  1  0  0  0  0
 17 18  2  0  0  0  0
 18 19  1  0  0  0  0
 20 22  1  0  0  0  0
 20 25  1  0  0  0  0
 21 20  1  0  0  0  0
 23 28  1  0  0  0  0
 23 29  1  0  0  0  0
 24 23  2  0  0  0  0
 25 26  2  0  0  0  0
 25 24  1  0  0  0  0
 26 27  1  0  0  0  0
 27 31  1  0  0  0  0
 27 28  2  0  0  0  0
 30 24  1  0  0  0  0
M  END
>  <minimizedAffinity>
-4.39842606

>  <minimizedRMSD>
2.62980604

$$$$
