
 OpenBabel03262518563D

 18 19  0  0  0  0  0  0  0  0999 V2000
   37.9340   25.2120   36.2070 C   0  0  0  0  0  0  0  0  0  0  0  0
   37.9550   24.5150   37.4330 C   0  0  0  0  0  0  0  0  0  0  0  0
   38.2150   23.1410   37.3710 C   0  0  0  0  0  0  0  0  0  0  0  0
   38.4360   22.5400   36.1590 N   0  0  0  0  0  0  0  0  0  0  0  0
   38.4010   23.2760   35.0220 C   0  0  0  0  0  0  0  0  0  0  0  0
   38.1550   24.5930   35.0270 N   0  0  0  0  0  0  0  0  0  0  0  0
   37.7340   26.2760   36.2270 H   0  0  0  0  0  0  0  0  0  0  0  0
   37.7760   25.0190   38.3700 H   0  0  0  0  0  0  0  0  0  0  0  0
   38.2440   22.5470   38.2830 H   0  0  0  0  0  0  0  0  0  0  0  0
   38.6400   22.6290   33.6890 C   0  0  0  0  0  0  0  0  0  0  0  0
   39.3930   21.8390   33.7260 H   0  0  0  0  0  0  0  0  0  0  0  0
   39.0910   23.4300   33.0420 H   0  0  0  0  0  0  0  0  0  0  0  0
   37.3360   22.2280   33.1040 C   0  0  0  0  0  0  0  0  0  0  0  0
   36.5940   21.0730   33.4200 C   0  0  0  0  0  0  0  0  0  0  0  0
   35.0920   21.2260   32.3130 S   0  0  0  0  0  0  0  0  0  0  0  0
   35.7790   22.8560   31.6250 C   0  0  0  0  0  0  0  0  0  0  0  0
   35.1370   23.3200   30.8710 H   0  0  0  0  0  0  0  0  0  0  0  0
   36.7540   22.9780   32.1880 N   0  0  0  0  0  0  0  0  0  0  0  0
  1  7  1  0  0  0  0
  1  2  1  0  0  0  0
  2  8  1  0  0  0  0
  3  2  2  0  0  0  0
  3  9  1  0  0  0  0
  4  3  1  0  0  0  0
  5  6  1  0  0  0  0
  5  4  2  0  0  0  0
  6  1  2  0  0  0  0
 10 11  1  0  0  0  0
 10  5  1  0  0  0  0
 12 10  1  0  0  0  0
 13 14  2  0  0  0  0
 13 10  1  0  0  0  0
 15 14  1  0  0  0  0
 16 18  2  0  0  0  0
 16 15  1  0  0  0  0
 17 16  1  0  0  0  0
 18 13  1  0  0  0  0
M  END
>  <minimizedAffinity>
-3.14131474

>  <minimizedRMSD>
3.11007571

$$$$
