
 OpenBabel03262518263D

 26 28  0  0  0  0  0  0  0  0999 V2000
   39.3900   22.7590   38.5010 N   0  0  0  0  0  0  0  0  0  0  0  0
   38.4020   23.6330   38.2960 N   0  0  0  0  0  0  0  0  0  0  0  0
   38.4130   24.0340   36.9990 C   0  0  0  0  0  0  0  0  0  0  0  0
   39.4610   23.3780   36.3590 C   0  0  0  0  0  0  0  0  0  0  0  0
   40.0340   22.6010   37.3340 C   0  0  0  0  0  0  0  0  0  0  0  0
   39.6840   22.2470   39.3600 H   0  0  0  0  0  0  0  0  0  0  0  0
   39.6520   23.5500   35.3190 H   0  0  0  0  0  0  0  0  0  0  0  0
   41.1680   21.7940   36.9450 N   0  0  0  0  0  0  0  0  0  0  0  0
   41.5200   21.7520   35.6590 N   0  0  0  0  0  0  0  0  0  0  0  0
   42.5990   20.9470   35.5050 C   0  0  0  0  0  0  0  0  0  0  0  0
   43.1550   20.6770   34.6150 H   0  0  0  0  0  0  0  0  0  0  0  0
   42.9240   20.4730   36.7500 C   0  0  0  0  0  0  0  0  0  0  0  0
   42.0160   21.0120   37.6560 C   0  0  0  0  0  0  0  0  0  0  0  0
   41.8710   20.9320   38.7280 H   0  0  0  0  0  0  0  0  0  0  0  0
   37.4790   24.9560   36.5050 O   0  0  0  0  0  0  0  0  0  0  0  0
   37.9100   26.1060   35.8440 C   0  0  0  0  0  0  0  0  0  0  0  0
   38.6840   26.9350   36.3810 O   0  0  0  0  0  0  0  0  0  0  0  0
   37.4470   26.3570   34.4800 C   0  0  0  0  0  0  0  0  0  0  0  0
   37.6020   25.3420   33.5370 C   0  0  0  0  0  0  0  0  0  0  0  0
   37.1760   25.5370   32.2270 C   0  0  0  0  0  0  0  0  0  0  0  0
   36.6180   26.7460   31.9540 N   0  0  0  0  0  0  0  0  0  0  0  0
   36.4730   27.7100   32.8650 C   0  0  0  0  0  0  0  0  0  0  0  0
   36.8840   27.5350   34.1430 N   0  0  0  0  0  0  0  0  0  0  0  0
   38.0590   24.3810   33.8030 H   0  0  0  0  0  0  0  0  0  0  0  0
   37.3170   24.7340   31.5450 H   0  0  0  0  0  0  0  0  0  0  0  0
   36.0320   28.6680   32.6470 H   0  0  0  0  0  0  0  0  0  0  0  0
  1  6  1  0  0  0  0
  2  1  1  0  0  0  0
  3  2  2  0  0  0  0
  4  3  1  0  0  0  0
  4  5  2  0  0  0  0
  5  1  1  0  0  0  0
  7  4  1  0  0  0  0
  8  5  1  0  0  0  0
  8 13  1  0  0  0  0
  9  8  1  0  0  0  0
 10  9  2  0  0  0  0
 10 12  1  0  0  0  0
 11 10  1  0  0  0  0
 12 13  2  0  0  0  0
 13 14  1  0  0  0  0
 15  3  1  0  0  0  0
 16 17  2  0  0  0  0
 16 15  1  0  0  0  0
 18 16  1  0  0  0  0
 19 24  1  0  0  0  0
 19 18  2  0  0  0  0
 20 19  1  0  0  0  0
 21 20  2  0  0  0  0
 21 22  1  0  0  0  0
 22 23  2  0  0  0  0
 23 18  1  0  0  0  0
 25 20  1  0  0  0  0
 26 22  1  0  0  0  0
M  END
>  <minimizedAffinity>
-4.91649246

>  <minimizedRMSD>
1.07687569

$$$$
