
 OpenBabel03262519593D

 33 36  0  0  1  0  0  0  0  0999 V2000
   41.2920   23.0460   35.5250 C   0  0  1  0  0  0  0  0  0  0  0  0
   42.1080   21.9610   35.9990 C   0  0  0  0  0  0  0  0  0  0  0  0
   42.5380   22.7780   34.7430 C   0  0  1  0  0  0  0  0  0  0  0  0
   41.3070   23.9830   36.1780 H   0  0  0  0  0  0  0  0  0  0  0  0
   42.7710   22.0640   36.8720 H   0  0  0  0  0  0  0  0  0  0  0  0
   41.8320   20.9280   35.7900 H   0  0  0  0  0  0  0  0  0  0  0  0
   38.8360   23.2230   35.0880 C   0  0  0  0  0  0  0  0  0  0  0  0
   37.9760   22.9530   34.0260 C   0  0  0  0  0  0  0  0  0  0  0  0
   38.8070   22.4840   33.0500 N   0  0  0  0  0  0  0  0  0  0  0  0
   40.0480   22.4910   33.5340 C   0  0  0  0  0  0  0  0  0  0  0  0
   40.0920   22.9410   34.7840 N   0  0  0  0  0  0  0  0  0  0  0  0
   36.8970   23.1180   34.0740 H   0  0  0  0  0  0  0  0  0  0  0  0
   40.8330   22.1410   32.8670 H   0  0  0  0  0  0  0  0  0  0  0  0
   38.4110   23.7580   36.3750 C   0  0  0  0  0  0  0  0  0  0  0  0
   38.4010   25.1550   36.5750 C   0  0  0  0  0  0  0  0  0  0  0  0
   37.9740   25.6220   37.8430 C   0  0  0  0  0  0  0  0  0  0  0  0
   37.6080   24.6980   38.7700 N   0  0  0  0  0  0  0  0  0  0  0  0
   37.6340   23.3680   38.5310 C   0  0  0  0  0  0  0  0  0  0  0  0
   38.0330   22.8930   37.3410 N   0  0  0  0  0  0  0  0  0  0  0  0
   38.6990   25.8330   35.8150 H   0  0  0  0  0  0  0  0  0  0  0  0
   37.9430   26.6740   38.0630 H   0  0  0  0  0  0  0  0  0  0  0  0
   37.3120   22.7800   39.3700 H   0  0  0  0  0  0  0  0  0  0  0  0
   42.7050   21.7990   33.6590 N   0  0  0  0  0  0  0  0  0  0  0  0
   43.1350   20.6350   34.1290 N   0  0  0  0  0  0  0  0  0  0  0  0
   43.2780   19.7570   33.0960 C   0  0  0  0  0  0  0  0  0  0  0  0
   43.5960   18.7240   33.0340 H   0  0  0  0  0  0  0  0  0  0  0  0
   42.9090   20.4520   31.9530 C   0  0  0  0  0  3  0  0  0  0  0  0
   42.5520   21.7320   32.3240 C   0  0  0  0  0  0  0  0  0  0  0  0
   42.2030   22.6450   31.8600 H   0  0  0  0  0  0  0  0  0  0  0  0
   43.7440   23.6420   35.0500 C   0  0  0  0  0  0  0  0  0  0  0  0
   44.4830   23.8480   33.9020 F   0  0  0  0  0  0  0  0  0  0  0  0
   43.2670   24.9760   35.3950 F   0  0  0  0  0  0  0  0  0  0  0  0
   44.4680   23.2230   36.0990 F   0  0  0  0  0  0  0  0  0  0  0  0
  1  2  1  0  0  0  0
  1  4  1  1  0  0  0
  2  5  1  0  0  0  0
  3 30  1  1  0  0  0
  3  1  1  0  0  0  0
  3  2  1  0  0  0  0
  6  2  1  0  0  0  0
  7 14  1  0  0  0  0
  8 12  1  0  0  0  0
  8  7  2  0  0  0  0
  9 10  2  0  0  0  0
  9  8  1  0  0  0  0
 10 11  1  0  0  0  0
 11  7  1  0  0  0  0
 11  1  1  0  0  0  0
 13 10  1  0  0  0  0
 14 15  2  0  0  0  0
 14 19  1  0  0  0  0
 15 16  1  0  0  0  0
 16 21  1  0  0  0  0
 16 17  2  0  0  0  0
 18 17  1  0  0  0  0
 18 22  1  0  0  0  0
 19 18  2  0  0  0  0
 20 15  1  0  0  0  0
 23 24  1  0  0  0  0
 23  3  1  0  0  0  0
 25 24  2  0  0  0  0
 26 25  1  0  0  0  0
 27 28  2  0  0  0  0
 27 25  1  0  0  0  0
 28 23  1  0  0  0  0
 29 28  1  0  0  0  0
 30 32  1  0  0  0  0
 30 33  1  0  0  0  0
 31 30  1  0  0  0  0
M  END
>  <minimizedAffinity>
-2.80560184

>  <minimizedRMSD>
6.36036777

$$$$
