
 OpenBabel03262519553D

 30 33  0  0  1  0  0  0  0  0999 V2000
   38.3790   23.7720   33.3800 C   0  0  0  0  0  0  0  0  0  0  0  0
   38.4330   24.0510   34.7390 C   0  0  0  0  0  0  0  0  0  0  0  0
   38.6520   25.4020   34.7860 N   0  0  0  0  0  0  0  0  0  0  0  0
   38.7180   25.8490   33.5460 C   0  0  0  0  0  0  0  0  0  0  0  0
   38.5520   24.8610   32.6330 N   0  0  0  0  0  0  0  0  0  0  0  0
   38.3280   23.3770   35.5690 H   0  0  0  0  0  0  0  0  0  0  0  0
   38.8860   26.8950   33.3100 H   0  0  0  0  0  0  0  0  0  0  0  0
   38.1620   22.4500   32.8140 C   0  0  0  0  0  0  0  0  0  0  0  0
   39.2310   21.5980   32.5540 C   0  0  0  0  0  0  0  0  0  0  0  0
   38.9790   20.3320   32.0080 C   0  0  0  0  0  0  0  0  0  0  0  0
   37.7060   19.9990   31.7600 N   0  0  0  0  0  0  0  0  0  0  0  0
   36.6660   20.8410   32.0190 C   0  0  0  0  0  0  0  0  0  0  0  0
   36.9050   22.0570   32.5430 N   0  0  0  0  0  0  0  0  0  0  0  0
   40.2440   21.8870   32.7610 H   0  0  0  0  0  0  0  0  0  0  0  0
   39.7980   19.6630   31.8030 H   0  0  0  0  0  0  0  0  0  0  0  0
   35.6320   20.5630   31.8140 H   0  0  0  0  0  0  0  0  0  0  0  0
   38.5780   25.0700   31.2000 C   0  0  1  0  0  0  0  0  0  0  0  0
   38.2370   26.3750   30.6160 C   0  0  0  0  0  0  0  0  0  0  0  0
   39.7030   25.9940   30.7830 C   0  0  2  0  0  0  0  0  0  0  0  0
   38.4330   24.1320   30.6260 H   0  0  0  0  0  0  0  0  0  0  0  0
   37.7870   26.4090   29.6150 H   0  0  0  0  0  0  0  0  0  0  0  0
   37.8490   27.1740   31.2820 H   0  0  0  0  0  0  0  0  0  0  0  0
   40.2560   26.5800   31.5440 H   0  0  0  0  0  0  0  0  0  0  0  0
   40.3870   25.6500   29.5510 N   0  0  0  0  0  0  0  0  0  0  0  0
   41.1030   26.4860   28.8070 N   0  0  0  0  0  0  0  0  0  0  0  0
   41.5960   25.8450   27.7370 C   0  0  0  0  0  0  0  0  0  0  0  0
   42.2170   26.1440   26.8970 H   0  0  0  0  0  0  0  0  0  0  0  0
   41.1770   24.5200   27.7900 C   0  0  0  0  0  3  0  0  0  0  0  0
   40.4090   24.4220   28.9540 C   0  0  0  0  0  0  0  0  0  0  0  0
   39.9270   23.5070   29.2930 H   0  0  0  0  0  0  0  0  0  0  0  0
  1  2  2  0  0  0  0
  2  3  1  0  0  0  0
  2  6  1  0  0  0  0
  4  3  2  0  0  0  0
  5  1  1  0  0  0  0
  5  4  1  0  0  0  0
  7  4  1  0  0  0  0
  8  1  1  0  0  0  0
  9 14  1  0  0  0  0
  9  8  1  0  0  0  0
 10  9  2  0  0  0  0
 11 10  1  0  0  0  0
 11 12  2  0  0  0  0
 12 13  1  0  0  0  0
 13  8  2  0  0  0  0
 15 10  1  0  0  0  0
 16 12  1  0  0  0  0
 17 20  1  6  0  0  0
 17  5  1  0  0  0  0
 18 19  1  0  0  0  0
 18 17  1  0  0  0  0
 18 22  1  0  0  0  0
 19 17  1  0  0  0  0
 19 23  1  1  0  0  0
 21 18  1  0  0  0  0
 24 19  1  0  0  0  0
 25 24  1  0  0  0  0
 26 28  1  0  0  0  0
 26 25  2  0  0  0  0
 27 26  1  0  0  0  0
 28 29  2  0  0  0  0
 29 30  1  0  0  0  0
 29 24  1  0  0  0  0
M  END
>  <minimizedAffinity>
-2.53563905

>  <minimizedRMSD>
6.8150816

$$$$
