
 OpenBabel03262518393D

 47 50  0  0  0  0  0  0  0  0999 V2000
   37.1450   26.7060   34.3080 C   0  0  0  0  0  0  0  0  0  0  0  0
   37.1780   25.7660   33.2800 C   0  0  0  0  0  0  0  0  0  0  0  0
   36.5360   26.0800   32.0650 C   0  0  0  0  0  0  0  0  0  0  0  0
   35.9290   27.2770   31.9840 N   0  0  0  0  0  0  0  0  0  0  0  0
   35.9040   28.1720   32.9810 C   0  0  0  0  0  0  0  0  0  0  0  0
   36.5180   27.8850   34.1550 N   0  0  0  0  0  0  0  0  0  0  0  0
   37.6680   24.8070   33.3540 H   0  0  0  0  0  0  0  0  0  0  0  0
   36.5390   25.3770   31.2410 H   0  0  0  0  0  0  0  0  0  0  0  0
   37.8150   26.3780   35.5720 C   0  0  0  0  0  0  0  0  0  0  0  0
   38.6820   27.1360   36.0240 O   0  0  0  0  0  0  0  0  0  0  0  0
   37.4570   25.2170   36.2350 O   0  0  0  0  0  0  0  0  0  0  0  0
   39.3540   22.9140   38.1320 N   0  0  0  0  0  0  0  0  0  0  0  0
   38.3080   23.7210   37.9110 N   0  0  0  0  0  0  0  0  0  0  0  0
   38.4420   24.3180   36.6940 C   0  0  0  0  0  0  0  0  0  0  0  0
   39.6120   23.8780   36.1240 C   0  0  0  0  0  0  0  0  0  0  0  0
   40.1370   23.0180   37.0440 C   0  0  0  0  0  0  0  0  0  0  0  0
   39.5550   22.3140   38.9660 H   0  0  0  0  0  0  0  0  0  0  0  0
   39.9500   24.2040   35.1500 H   0  0  0  0  0  0  0  0  0  0  0  0
   41.4190   22.2940   36.8480 C   0  0  0  0  0  0  0  0  0  0  0  0
   42.4700   22.9180   36.2040 C   0  0  0  0  0  0  0  0  0  0  0  0
   43.6170   22.1800   36.0650 C   0  0  0  0  0  0  0  0  0  0  0  0
   43.7920   20.9070   36.5030 N   0  0  0  0  0  0  0  0  0  0  0  0
   42.7210   20.3300   37.1350 C   0  0  0  0  0  0  0  0  0  0  0  0
   41.5940   21.0260   37.2840 N   0  0  0  0  0  0  0  0  0  0  0  0
   42.3790   23.9210   35.8410 H   0  0  0  0  0  0  0  0  0  0  0  0
   44.5020   22.5990   35.5650 H   0  0  0  0  0  0  0  0  0  0  0  0
   42.8080   19.3150   37.5050 H   0  0  0  0  0  0  0  0  0  0  0  0
   35.2120   29.4590   32.7950 C   0  0  0  0  0  0  0  0  0  0  0  0
   35.8430   30.4610   33.7250 C   0  0  0  0  0  0  0  0  0  0  0  0
   36.6690   30.9600   33.1490 H   0  0  0  0  0  0  0  0  0  0  0  0
   36.3710   29.9490   34.5770 H   0  0  0  0  0  0  0  0  0  0  0  0
   35.1530   31.2510   34.0440 H   0  0  0  0  0  0  0  0  0  0  0  0
   33.7630   29.2580   33.1760 C   0  0  0  0  0  0  0  0  0  0  0  0
   33.3680   28.2730   32.8710 H   0  0  0  0  0  0  0  0  0  0  0  0
   33.6590   29.3240   34.2700 H   0  0  0  0  0  0  0  0  0  0  0  0
   33.1830   30.0700   32.6560 H   0  0  0  0  0  0  0  0  0  0  0  0
   35.3170   29.9380   31.3440 C   0  0  0  0  0  0  0  0  0  0  0  0
   34.7490   30.8840   31.2440 H   0  0  0  0  0  0  0  0  0  0  0  0
   34.9200   29.1090   30.7190 H   0  0  0  0  0  0  0  0  0  0  0  0
   36.6760   30.1140   31.0980 O   0  0  0  0  0  0  0  0  0  0  0  0
   37.1900   29.8500   29.8370 C   0  0  0  0  0  0  0  0  0  0  0  0
   37.6490   30.8810   29.0500 C   0  0  0  0  0  0  0  0  0  0  0  0
   38.1150   30.3700   27.8350 C   0  0  0  0  0  0  0  0  0  0  0  0
   38.5440   30.8530   26.9730 H   0  0  0  0  0  0  0  0  0  0  0  0
   37.9100   29.0290   27.9480 N   0  0  0  0  0  0  0  0  0  0  0  0
   37.3620   28.7220   29.1350 N   0  0  0  0  0  0  0  0  0  0  0  0
   38.1600   28.3480   27.1860 H   0  0  0  0  0  0  0  0  0  0  0  0
  1  9  1  0  0  0  0
  2  7  1  0  0  0  0
  2  1  2  0  0  0  0
  3  2  1  0  0  0  0
  4  3  2  0  0  0  0
  4  5  1  0  0  0  0
  5  6  2  0  0  0  0
  6  1  1  0  0  0  0
  8  3  1  0  0  0  0
  9 10  2  0  0  0  0
  9 11  1  0  0  0  0
 11 14  1  0  0  0  0
 12 17  1  0  0  0  0
 13 12  1  0  0  0  0
 14 13  2  0  0  0  0
 15 14  1  0  0  0  0
 15 16  2  0  0  0  0
 16 12  1  0  0  0  0
 18 15  1  0  0  0  0
 19 16  1  0  0  0  0
 19 24  1  0  0  0  0
 20 19  2  0  0  0  0
 21 20  1  0  0  0  0
 21 22  2  0  0  0  0
 22 23  1  0  0  0  0
 23 24  2  0  0  0  0
 23 27  1  0  0  0  0
 25 20  1  0  0  0  0
 26 21  1  0  0  0  0
 28  5  1  0  0  0  0
 28 33  1  0  0  0  0
 28 29  1  0  0  0  0
 29 32  1  0  0  0  0
 29 31  1  0  0  0  0
 30 29  1  0  0  0  0
 33 35  1  0  0  0  0
 34 33  1  0  0  0  0
 36 33  1  0  0  0  0
 37 28  1  0  0  0  0
 38 37  1  0  0  0  0
 39 37  1  0  0  0  0
 40 37  1  0  0  0  0
 41 40  1  0  0  0  0
 42 41  1  0  0  0  0
 43 45  1  0  0  0  0
 43 42  2  0  0  0  0
 44 43  1  0  0  0  0
 45 46  1  0  0  0  0
 46 41  2  0  0  0  0
 47 45  1  0  0  0  0
M  END
>  <minimizedAffinity>
-5.76464844

>  <minimizedRMSD>
0.570724726

$$$$
