
 OpenBabel03262519593D

 33 36  0  0  1  0  0  0  0  0999 V2000
   38.4380   26.0650   35.7350 C   0  0  1  0  0  0  0  0  0  0  0  0
   37.1880   25.3850   35.5310 C   0  0  0  0  0  0  0  0  0  0  0  0
   38.4300   24.6050   36.0590 C   0  0  1  0  0  0  0  0  0  0  0  0
   38.4620   26.7730   36.6310 H   0  0  0  0  0  0  0  0  0  0  0  0
   36.3520   25.4680   36.2430 H   0  0  0  0  0  0  0  0  0  0  0  0
   36.8690   25.0980   34.5290 H   0  0  0  0  0  0  0  0  0  0  0  0
   39.2210   26.7100   33.4500 C   0  0  0  0  0  0  0  0  0  0  0  0
   40.4340   27.0510   32.8550 C   0  0  0  0  0  0  0  0  0  0  0  0
   41.3290   26.9760   33.8830 N   0  0  0  0  0  0  0  0  0  0  0  0
   40.6610   26.6160   34.9780 C   0  0  0  0  0  0  0  0  0  0  0  0
   39.3650   26.4470   34.7370 N   0  0  0  0  0  0  0  0  0  0  0  0
   40.5300   27.3040   31.7960 H   0  0  0  0  0  0  0  0  0  0  0  0
   41.2440   26.5130   35.8910 H   0  0  0  0  0  0  0  0  0  0  0  0
   37.9460   26.6570   32.7460 C   0  0  0  0  0  0  0  0  0  0  0  0
   37.1260   27.8050   32.7080 C   0  0  0  0  0  0  0  0  0  0  0  0
   35.9010   27.6990   32.0070 C   0  0  0  0  0  0  0  0  0  0  0  0
   35.6030   26.5090   31.4230 N   0  0  0  0  0  0  0  0  0  0  0  0
   36.4220   25.4350   31.4860 C   0  0  0  0  0  0  0  0  0  0  0  0
   37.5900   25.5010   32.1430 N   0  0  0  0  0  0  0  0  0  0  0  0
   37.4080   28.7110   33.1830 H   0  0  0  0  0  0  0  0  0  0  0  0
   35.2280   28.5350   31.9390 H   0  0  0  0  0  0  0  0  0  0  0  0
   36.0350   24.5760   30.9720 H   0  0  0  0  0  0  0  0  0  0  0  0
   38.6410   23.4930   35.1200 N   0  0  0  0  0  0  0  0  0  0  0  0
   39.9320   23.2190   34.9870 N   0  0  0  0  0  0  0  0  0  0  0  0
   40.0850   22.1850   34.1120 C   0  0  0  0  0  0  0  0  0  0  0  0
   40.9470   21.6570   33.7270 H   0  0  0  0  0  0  0  0  0  0  0  0
   38.8050   21.8340   33.7110 C   0  0  0  0  0  3  0  0  0  0  0  0
   37.9090   22.6640   34.3520 C   0  0  0  0  0  0  0  0  0  0  0  0
   36.8400   22.8220   34.4040 H   0  0  0  0  0  0  0  0  0  0  0  0
   38.2480   24.2220   37.5130 C   0  0  0  0  0  0  0  0  0  0  0  0
   37.2680   23.2570   37.6300 F   0  0  0  0  0  0  0  0  0  0  0  0
   39.4580   23.5370   37.9540 F   0  0  0  0  0  0  0  0  0  0  0  0
   38.0890   25.2660   38.3410 F   0  0  0  0  0  0  0  0  0  0  0  0
  1  3  1  0  0  0  0
  1  4  1  1  0  0  0
  2  1  1  0  0  0  0
  2  3  1  0  0  0  0
  2  5  1  0  0  0  0
  3 30  1  1  0  0  0
  6  2  1  0  0  0  0
  7 11  1  0  0  0  0
  8  7  2  0  0  0  0
  8  9  1  0  0  0  0
  9 10  2  0  0  0  0
 10 13  1  0  0  0  0
 11 10  1  0  0  0  0
 11  1  1  0  0  0  0
 12  8  1  0  0  0  0
 14  7  1  0  0  0  0
 15 14  1  0  0  0  0
 15 20  1  0  0  0  0
 16 15  2  0  0  0  0
 17 18  2  0  0  0  0
 17 16  1  0  0  0  0
 18 19  1  0  0  0  0
 19 14  2  0  0  0  0
 21 16  1  0  0  0  0
 22 18  1  0  0  0  0
 23  3  1  0  0  0  0
 24 23  1  0  0  0  0
 25 24  2  0  0  0  0
 26 25  1  0  0  0  0
 27 25  1  0  0  0  0
 27 28  2  0  0  0  0
 28 29  1  0  0  0  0
 28 23  1  0  0  0  0
 30 31  1  0  0  0  0
 30 32  1  0  0  0  0
 30 33  1  0  0  0  0
M  END
>  <minimizedAffinity>
-4.81466103

>  <minimizedRMSD>
3.69817066

$$$$
