
 OpenBabel03262519433D

 24 25  0  0  1  0  0  0  0  0999 V2000
   38.2170   24.3940   36.8850 C   0  0  1  0  0  0  0  0  0  0  0  0
   37.3840   24.1150   36.1990 H   0  0  0  0  0  0  0  0  0  0  0  0
   40.9980   21.8740   37.4480 C   0  0  0  0  0  0  0  0  0  0  0  0
   39.9350   22.7680   37.7390 C   0  0  0  0  0  0  0  0  0  0  0  0
   39.3160   23.4380   36.6470 C   0  0  0  0  0  0  0  0  0  0  0  0
   39.7810   23.1820   35.3720 N   0  0  0  0  0  0  0  0  0  0  0  0
   40.7860   22.3320   35.1480 C   0  0  0  0  0  0  0  0  0  0  0  0
   41.3950   21.6780   36.1700 N   0  0  0  0  0  0  0  0  0  0  0  0
   41.4380   21.3890   38.2950 H   0  0  0  0  0  0  0  0  0  0  0  0
   39.6170   22.9280   38.7370 H   0  0  0  0  0  0  0  0  0  0  0  0
   41.1030   22.1770   34.1230 H   0  0  0  0  0  0  0  0  0  0  0  0
   37.7590   24.3780   38.3220 C   0  0  0  0  0  0  0  0  0  0  0  0
   37.3280   23.4020   38.6140 H   0  0  0  0  0  0  0  0  0  0  0  0
   38.6440   24.5530   38.9700 H   0  0  0  0  0  0  0  0  0  0  0  0
   37.0490   25.2110   38.4750 H   0  0  0  0  0  0  0  0  0  0  0  0
   38.5750   25.8120   36.5000 C   0  0  0  0  0  0  0  0  0  0  0  0
   38.2460   26.4830   37.3030 H   0  0  0  0  0  0  0  0  0  0  0  0
   39.6930   25.8090   36.3910 H   0  0  0  0  0  0  0  0  0  0  0  0
   37.9160   26.2370   35.2410 C   0  0  0  0  0  0  0  0  0  0  0  0
   37.4820   27.5770   35.0620 C   0  0  0  0  0  0  0  0  0  0  0  0
   36.7450   27.5880   33.3690 S   0  0  0  0  0  0  0  0  0  0  0  0
   37.1560   25.7540   33.1890 C   0  0  0  0  0  0  0  0  0  0  0  0
   37.0610   24.8010   32.3840 H   0  0  0  0  0  0  0  0  0  0  0  0
   37.6400   25.5320   34.1700 N   0  0  0  0  0  0  0  0  0  0  0  0
  1  2  1  6  0  0  0
  1 12  1  0  0  0  0
  3  4  1  0  0  0  0
  3  9  1  0  0  0  0
  4 10  1  0  0  0  0
  5  1  1  0  0  0  0
  5  4  2  0  0  0  0
  6  5  1  0  0  0  0
  7  6  2  0  0  0  0
  7  8  1  0  0  0  0
  8  3  2  0  0  0  0
 11  7  1  0  0  0  0
 12 15  1  0  0  0  0
 12 13  1  0  0  0  0
 12 14  1  0  0  0  0
 16  1  1  0  0  0  0
 16 17  1  0  0  0  0
 18 16  1  0  0  0  0
 19 16  1  0  0  0  0
 20 19  2  0  0  0  0
 21 20  1  0  0  0  0
 22 21  1  0  0  0  0
 22 24  2  0  0  0  0
 23 22  1  0  0  0  0
 24 19  1  0  0  0  0
M  END
>  <minimizedAffinity>
-3.77863526

>  <minimizedRMSD>
1.10843396

$$$$
