
 OpenBabel03262519323D

 41 45  0  0  0  0  0  0  0  0999 V2000
   40.4150   23.9530   35.0410 C   0  0  0  0  0  0  0  0  0  0  0  0
   41.2900   22.8810   35.1820 C   0  0  0  0  0  0  0  0  0  0  0  0
   41.1210   22.2770   36.3710 N   0  0  0  0  0  0  0  0  0  0  0  0
   40.1350   22.9120   37.0720 C   0  0  0  0  0  0  0  0  0  0  0  0
   39.5870   22.7000   38.3090 C   0  0  0  0  0  0  0  0  0  0  0  0
   38.5690   23.5380   38.7580 C   0  0  0  0  0  0  0  0  0  0  0  0
   38.1360   24.5780   37.9290 C   0  0  0  0  0  0  0  0  0  0  0  0
   38.7070   24.7730   36.6790 C   0  0  0  0  0  0  0  0  0  0  0  0
   39.7140   23.9340   36.2470 C   0  0  0  0  0  0  0  0  0  0  0  0
   42.0090   22.5800   34.4270 H   0  0  0  0  0  0  0  0  0  0  0  0
   41.6370   21.4500   36.7460 H   0  0  0  0  0  0  0  0  0  0  0  0
   39.9390   21.8920   38.9290 H   0  0  0  0  0  0  0  0  0  0  0  0
   38.1330   23.3810   39.7280 H   0  0  0  0  0  0  0  0  0  0  0  0
   37.3370   25.2040   38.3300 H   0  0  0  0  0  0  0  0  0  0  0  0
   38.2070   25.8540   35.8970 N   0  0  0  0  0  0  0  0  0  0  0  0
   37.1640   25.7120   35.0900 N   0  0  0  0  0  0  0  0  0  0  0  0
   36.8990   26.8900   34.4680 C   0  0  0  0  0  0  0  0  0  0  0  0
   36.0730   27.0110   33.7490 H   0  0  0  0  0  0  0  0  0  0  0  0
   37.8500   27.7940   34.9370 C   0  0  0  0  0  0  0  0  0  0  0  0
   38.6580   27.1200   35.8320 C   0  0  0  0  0  0  0  0  0  0  0  0
   39.4840   27.5390   36.3650 H   0  0  0  0  0  0  0  0  0  0  0  0
   40.3010   24.8010   33.9640 O   0  0  0  0  0  0  0  0  0  0  0  0
   39.4650   24.6200   32.8950 C   0  0  0  0  0  0  0  0  0  0  0  0
   39.4950   25.5730   31.8860 C   0  0  0  0  0  0  0  0  0  0  0  0
   38.6350   25.3930   30.7810 C   0  0  0  0  0  0  0  0  0  0  0  0
   37.8360   24.3130   30.7610 N   0  0  0  0  0  0  0  0  0  0  0  0
   37.8330   23.3960   31.7700 C   0  0  0  0  0  0  0  0  0  0  0  0
   38.6380   23.5610   32.8120 N   0  0  0  0  0  0  0  0  0  0  0  0
   37.0170   22.2310   31.8200 N   0  0  0  0  0  0  0  0  0  0  0  0
   37.5640   21.0060   32.0200 C   0  0  0  0  0  0  0  0  0  0  0  0
   36.7110   19.9100   32.0580 C   0  0  0  0  0  0  0  0  0  0  0  0
   35.3330   20.0630   31.8980 C   0  0  0  0  0  0  0  0  0  0  0  0
   34.5590   19.0670   31.9330 O   0  0  0  0  0  0  0  0  0  0  0  0
   34.8360   21.2880   31.7040 N   0  0  0  0  0  0  0  0  0  0  0  0
   35.6670   22.3550   31.6670 C   0  0  0  0  0  0  0  0  0  0  0  0
   35.2250   23.5080   31.4870 O   0  0  0  0  0  0  0  0  0  0  0  0
   40.1180   26.4520   31.8600 H   0  0  0  0  0  0  0  0  0  0  0  0
   38.6140   26.1020   29.9650 H   0  0  0  0  0  0  0  0  0  0  0  0
   38.6180   20.8910   32.1420 H   0  0  0  0  0  0  0  0  0  0  0  0
   37.1200   18.9190   32.2160 H   0  0  0  0  0  0  0  0  0  0  0  0
   33.8060   21.4420   31.5790 H   0  0  0  0  0  0  0  0  0  0  0  0
  1  2  2  0  0  0  0
  1  9  1  0  0  0  0
  2  3  1  0  0  0  0
  3 11  1  0  0  0  0
  3  4  1  0  0  0  0
  4  5  1  0  0  0  0
  5  6  2  0  0  0  0
  5 12  1  0  0  0  0
  6 13  1  0  0  0  0
  7 14  1  0  0  0  0
  7  6  1  0  0  0  0
  8  7  2  0  0  0  0
  9  8  1  0  0  0  0
  9  4  2  0  0  0  0
 10  2  1  0  0  0  0
 15  8  1  0  0  0  0
 16 15  1  0  0  0  0
 17 19  1  0  0  0  0
 17 16  2  0  0  0  0
 18 17  1  0  0  0  0
 19 20  2  0  0  0  0
 20 15  1  0  0  0  0
 20 21  1  0  0  0  0
 22  1  1  0  0  0  0
 23 22  1  0  0  0  0
 24 23  2  0  0  0  0
 25 24  1  0  0  0  0
 26 25  2  0  0  0  0
 26 27  1  0  0  0  0
 27 29  1  0  0  0  0
 27 28  2  0  0  0  0
 28 23  1  0  0  0  0
 29 30  1  0  0  0  0
 30 31  2  0  0  0  0
 30 39  1  0  0  0  0
 31 40  1  0  0  0  0
 32 33  2  0  0  0  0
 32 31  1  0  0  0  0
 34 32  1  0  0  0  0
 35 34  1  0  0  0  0
 35 29  1  0  0  0  0
 36 35  2  0  0  0  0
 37 24  1  0  0  0  0
 38 25  1  0  0  0  0
 41 34  1  0  0  0  0
M  END
>  <minimizedAffinity>
-6.06720924

>  <minimizedRMSD>
5.87960291

$$$$
