
 OpenBabel03262519563D

 30 33  0  0  1  0  0  0  0  0999 V2000
   38.0680   23.7400   34.4870 C   0  0  0  0  0  0  0  0  0  0  0  0
   38.2140   24.9380   33.8010 C   0  0  0  0  0  0  0  0  0  0  0  0
   37.7560   24.6520   32.5420 N   0  0  0  0  0  0  0  0  0  0  0  0
   37.3810   23.3860   32.5220 C   0  0  0  0  0  0  0  0  0  0  0  0
   37.5590   22.7770   33.7190 N   0  0  0  0  0  0  0  0  0  0  0  0
   38.5950   25.8770   34.1600 H   0  0  0  0  0  0  0  0  0  0  0  0
   36.9780   22.9110   31.6330 H   0  0  0  0  0  0  0  0  0  0  0  0
   38.4230   23.5350   35.8820 C   0  0  0  0  0  0  0  0  0  0  0  0
   39.6320   22.9420   36.2330 C   0  0  0  0  0  0  0  0  0  0  0  0
   39.9370   22.7630   37.5890 C   0  0  0  0  0  0  0  0  0  0  0  0
   39.0400   23.1760   38.4930 N   0  0  0  0  0  0  0  0  0  0  0  0
   37.8580   23.7560   38.1380 C   0  0  0  0  0  0  0  0  0  0  0  0
   37.5630   23.9290   36.8370 N   0  0  0  0  0  0  0  0  0  0  0  0
   40.3370   22.6180   35.4900 H   0  0  0  0  0  0  0  0  0  0  0  0
   40.8700   22.3050   37.8730 H   0  0  0  0  0  0  0  0  0  0  0  0
   37.1330   24.0890   38.8800 H   0  0  0  0  0  0  0  0  0  0  0  0
   37.2310   21.3900   33.9780 C   0  0  1  0  0  0  0  0  0  0  0  0
   35.9620   21.0160   34.6160 C   0  0  0  0  0  0  0  0  0  0  0  0
   36.0960   20.9040   33.1020 C   0  0  2  0  0  0  0  0  0  0  0  0
   38.1300   20.7460   34.0730 H   0  0  0  0  0  0  0  0  0  0  0  0
   35.9230   20.1090   35.2340 H   0  0  0  0  0  0  0  0  0  0  0  0
   35.2990   21.8190   35.0020 H   0  0  0  0  0  0  0  0  0  0  0  0
   35.4880   21.6280   32.5230 H   0  0  0  0  0  0  0  0  0  0  0  0
   36.2140   19.5480   32.5990 N   0  0  0  0  0  0  0  0  0  0  0  0
   37.2540   19.0610   31.9330 N   0  0  0  0  0  0  0  0  0  0  0  0
   37.0380   17.7740   31.6160 C   0  0  0  0  0  0  0  0  0  0  0  0
   37.6130   17.0200   31.0880 H   0  0  0  0  0  0  0  0  0  0  0  0
   35.7890   17.4100   32.1060 C   0  0  0  0  0  3  0  0  0  0  0  0
   35.2860   18.5560   32.7280 C   0  0  0  0  0  0  0  0  0  0  0  0
   34.3160   18.6100   33.2190 H   0  0  0  0  0  0  0  0  0  0  0  0
  1  8  1  0  0  0  0
  2  6  1  0  0  0  0
  2  1  2  0  0  0  0
  3  2  1  0  0  0  0
  4  3  2  0  0  0  0
  4  5  1  0  0  0  0
  5 17  1  0  0  0  0
  5  1  1  0  0  0  0
  7  4  1  0  0  0  0
  8  9  2  0  0  0  0
  8 13  1  0  0  0  0
  9 10  1  0  0  0  0
 10 15  1  0  0  0  0
 10 11  2  0  0  0  0
 12 11  1  0  0  0  0
 12 16  1  0  0  0  0
 13 12  2  0  0  0  0
 14  9  1  0  0  0  0
 17 20  1  1  0  0  0
 17 18  1  0  0  0  0
 18 22  1  0  0  0  0
 18 21  1  0  0  0  0
 19 23  1  6  0  0  0
 19 17  1  0  0  0  0
 19 18  1  0  0  0  0
 24 29  1  0  0  0  0
 24 19  1  0  0  0  0
 25 24  1  0  0  0  0
 26 25  2  0  0  0  0
 26 28  1  0  0  0  0
 27 26  1  0  0  0  0
 28 29  2  0  0  0  0
 29 30  1  0  0  0  0
M  END
>  <minimizedAffinity>
-4.62400532

>  <minimizedRMSD>
0.739883482

$$$$
