
 OpenBabel03262519553D

 28 31  0  0  1  0  0  0  0  0999 V2000
   37.4330   25.7980   32.5820 C   0  0  0  0  0  0  0  0  0  0  0  0
   37.5950   24.6020   31.8810 C   0  0  0  0  0  0  0  0  0  0  0  0
   37.9180   23.6990   32.8500 N   0  0  0  0  0  0  0  0  0  0  0  0
   37.9390   24.3250   34.0070 C   0  0  0  0  0  0  0  0  0  0  0  0
   37.6430   25.6360   33.8880 N   0  0  0  0  0  0  0  0  0  0  0  0
   37.4680   24.5250   30.8140 H   0  0  0  0  0  0  0  0  0  0  0  0
   38.1820   23.7620   34.9130 H   0  0  0  0  0  0  0  0  0  0  0  0
   37.0790   27.0740   31.9800 C   0  0  0  0  0  0  0  0  0  0  0  0
   37.9750   27.7030   31.0980 C   0  0  0  0  0  0  0  0  0  0  0  0
   37.5980   28.9400   30.5330 C   0  0  0  0  0  0  0  0  0  0  0  0
   36.3930   29.4420   30.8770 N   0  0  0  0  0  0  0  0  0  0  0  0
   35.5580   28.8110   31.7280 C   0  0  0  0  0  0  0  0  0  0  0  0
   35.8810   27.6270   32.2900 N   0  0  0  0  0  0  0  0  0  0  0  0
   38.9190   27.1830   30.9070 H   0  0  0  0  0  0  0  0  0  0  0  0
   38.3180   29.3650   29.8730 H   0  0  0  0  0  0  0  0  0  0  0  0
   34.6050   29.2740   31.9600 H   0  0  0  0  0  0  0  0  0  0  0  0
   37.5960   26.5460   34.9900 C   0  0  1  0  0  0  0  0  0  0  0  0
   38.3150   26.3520   36.2340 C   0  0  0  0  0  0  0  0  0  0  0  0
   38.9100   27.2800   35.2070 C   0  0  1  0  0  0  0  0  0  0  0  0
   36.7020   27.2220   34.9710 H   0  0  0  0  0  0  0  0  0  0  0  0
   37.9290   26.8710   37.1410 H   0  0  0  0  0  0  0  0  0  0  0  0
   38.7930   25.3960   36.4870 H   0  0  0  0  0  0  0  0  0  0  0  0
   38.8680   28.3700   35.3900 H   0  0  0  0  0  0  0  0  0  0  0  0
   40.1350   26.7720   34.6350 N   0  0  0  0  0  0  0  0  0  0  0  0
   40.7340   27.2480   33.5050 C   0  0  0  0  0  0  0  0  0  0  0  0
   41.8540   26.5340   33.2760 N   0  0  0  0  0  0  0  0  0  0  0  0
   41.9170   25.6270   34.2810 C   0  0  0  0  0  0  0  0  0  0  0  0
   40.8690   25.7750   35.1090 N   0  0  0  0  0  0  0  0  0  0  0  0
  1  5  1  0  0  0  0
  2  1  2  0  0  0  0
  2  3  1  0  0  0  0
  3  4  2  0  0  0  0
  4  7  1  0  0  0  0
  5  4  1  0  0  0  0
  5 17  1  0  0  0  0
  6  2  1  0  0  0  0
  8 13  1  0  0  0  0
  8  1  1  0  0  0  0
  9  8  2  0  0  0  0
 10 11  2  0  0  0  0
 10  9  1  0  0  0  0
 11 12  1  0  0  0  0
 12 16  1  0  0  0  0
 12 13  2  0  0  0  0
 14  9  1  0  0  0  0
 15 10  1  0  0  0  0
 17 20  1  1  0  0  0
 17 19  1  0  0  0  0
 17 18  1  0  0  0  0
 18 22  1  0  0  0  0
 18 21  1  0  0  0  0
 19 23  1  1  0  0  0
 19 18  1  0  0  0  0
 24 28  1  0  0  0  0
 24 19  1  0  0  0  0
 25 24  1  0  0  0  0
 26 25  2  0  0  0  0
 26 27  1  0  0  0  0
 27 28  2  0  0  0  0
M  END
>  <minimizedAffinity>
-3.91747189

>  <minimizedRMSD>
6.85763454

$$$$
