
 OpenBabel03262518113D

 21 23  0  0  0  0  0  0  0  0999 V2000
   42.5300   20.8100   37.0140 C   0  0  0  0  0  0  0  0  0  0  0  0
   41.4470   21.4840   37.5890 C   0  0  0  0  0  0  0  0  0  0  0  0
   40.5840   22.1770   36.7350 C   0  0  0  0  0  0  0  0  0  0  0  0
   40.8510   22.1560   35.3780 N   0  0  0  0  0  0  0  0  0  0  0  0
   41.8980   21.4980   34.8750 C   0  0  0  0  0  0  0  0  0  0  0  0
   42.7310   20.8320   35.6740 N   0  0  0  0  0  0  0  0  0  0  0  0
   43.2410   20.2510   37.6170 H   0  0  0  0  0  0  0  0  0  0  0  0
   41.3320   21.4340   38.6630 H   0  0  0  0  0  0  0  0  0  0  0  0
   42.0180   21.5850   33.4590 N   0  0  0  0  0  0  0  0  0  0  0  0
   41.3730   20.6720   32.6920 C   0  0  0  0  0  0  0  0  0  0  0  0
   41.6290   20.9470   31.3870 N   0  0  0  0  0  0  0  0  0  0  0  0
   42.4260   22.0230   31.3520 C   0  0  0  0  0  0  0  0  0  0  0  0
   42.6500   22.3950   32.6310 N   0  0  0  0  0  0  0  0  0  0  0  0
   39.4540   22.8820   37.3100 C   0  0  0  0  0  0  0  0  0  0  0  0
   38.6120   23.7220   36.5750 C   0  0  0  0  0  0  0  0  0  0  0  0
   37.6860   24.1880   37.4600 N   0  0  0  0  0  0  0  0  0  0  0  0
   37.9790   23.6400   38.6630 C   0  0  0  0  0  0  0  0  0  0  0  0
   39.0350   22.8570   38.5870 N   0  0  0  0  0  0  0  0  0  0  0  0
   38.7230   23.9270   35.5020 H   0  0  0  0  0  0  0  0  0  0  0  0
   37.3460   23.8960   39.5040 H   0  0  0  0  0  0  0  0  0  0  0  0
   39.4680   22.3120   39.3830 H   0  0  0  0  0  0  0  0  0  0  0  0
  1  2  1  0  0  0  0
  1  7  1  0  0  0  0
  2  8  1  0  0  0  0
  3 14  1  0  0  0  0
  3  2  2  0  0  0  0
  4  3  1  0  0  0  0
  5  4  2  0  0  0  0
  5  6  1  0  0  0  0
  6  1  2  0  0  0  0
  9  5  1  0  0  0  0
 10  9  1  0  0  0  0
 11 10  2  0  0  0  0
 12 11  1  0  0  0  0
 12 13  2  0  0  0  0
 13  9  1  0  0  0  0
 14 18  1  0  0  0  0
 15 14  2  0  0  0  0
 15 16  1  0  0  0  0
 16 17  2  0  0  0  0
 17 20  1  0  0  0  0
 18 17  1  0  0  0  0
 18 21  1  0  0  0  0
 19 15  1  0  0  0  0
M  END
>  <minimizedAffinity>
-3.93040299

>  <minimizedRMSD>
0.109054729

$$$$
