
 OpenBabel03262519593D

 31 34  0  0  1  0  0  0  0  0999 V2000
   40.6840   23.1710   33.7860 C   0  0  0  0  0  0  0  0  0  0  0  0
   40.2940   21.9090   33.3400 C   0  0  0  0  0  0  0  0  0  0  0  0
   39.0860   21.7100   33.9460 N   0  0  0  0  0  0  0  0  0  0  0  0
   38.8200   22.7870   34.6790 C   0  0  0  0  0  0  0  0  0  0  0  0
   39.7830   23.6980   34.5990 N   0  0  0  0  0  0  0  0  0  0  0  0
   40.8880   21.2990   32.6620 H   0  0  0  0  0  0  0  0  0  0  0  0
   37.8650   22.7300   35.2130 H   0  0  0  0  0  0  0  0  0  0  0  0
   41.9280   23.8280   33.4170 C   0  0  0  0  0  0  0  0  0  0  0  0
   43.0610   23.6850   34.2480 C   0  0  0  0  0  0  0  0  0  0  0  0
   44.2520   24.3310   33.8510 C   0  0  0  0  0  0  0  0  0  0  0  0
   44.2240   25.0490   32.6970 N   0  0  0  0  0  0  0  0  0  0  0  0
   43.1150   25.1610   31.9310 C   0  0  0  0  0  0  0  0  0  0  0  0
   41.9710   24.5550   32.2870 N   0  0  0  0  0  0  0  0  0  0  0  0
   43.0310   23.1030   35.1550 H   0  0  0  0  0  0  0  0  0  0  0  0
   45.1450   24.2460   34.4620 H   0  0  0  0  0  0  0  0  0  0  0  0
   43.2590   25.7640   31.0500 H   0  0  0  0  0  0  0  0  0  0  0  0
   39.7360   24.9340   35.2850 C   0  0  1  0  0  0  0  0  0  0  0  0
   40.3460   26.1690   34.8770 C   0  0  0  0  0  0  0  0  0  0  0  0
   38.8130   25.9470   34.6980 C   0  0  1  0  0  0  0  0  0  0  0  0
   39.6540   24.7930   36.4150 H   0  0  0  0  0  0  0  0  0  0  0  0
   40.9000   26.2750   33.9340 H   0  0  0  0  0  0  0  0  0  0  0  0
   40.6540   26.9290   35.6400 H   0  0  0  0  0  0  0  0  0  0  0  0
   38.5370   26.1680   33.2640 N   0  0  0  0  0  0  0  0  0  0  0  0
   37.9600   25.3990   32.3190 C   0  0  0  0  0  3  0  0  0  0  0  0
   37.9680   26.1030   31.1730 N   0  0  0  0  0  0  0  0  0  0  0  0
   38.5410   27.2990   31.3870 C   0  0  0  0  0  3  0  0  0  0  0  0
   38.8920   27.3280   32.6960 N   0  0  0  0  0  0  0  0  0  0  0  0
   38.0300   26.8150   35.6600 C   0  0  0  0  0  0  0  0  0  0  0  0
   36.6860   26.7750   35.3440 F   0  0  0  0  0  0  0  0  0  0  0  0
   38.0920   26.1950   36.9760 F   0  0  0  0  0  0  0  0  0  0  0  0
   38.5200   28.0560   35.8090 F   0  0  0  0  0  0  0  0  0  0  0  0
  1  5  1  0  0  0  0
  2  1  2  0  0  0  0
  2  3  1  0  0  0  0
  3  4  2  0  0  0  0
  4  7  1  0  0  0  0
  5  4  1  0  0  0  0
  5 17  1  0  0  0  0
  6  2  1  0  0  0  0
  8  1  1  0  0  0  0
  8  9  1  0  0  0  0
  9 14  1  0  0  0  0
 10  9  2  0  0  0  0
 10 15  1  0  0  0  0
 11 10  1  0  0  0  0
 12 13  1  0  0  0  0
 12 11  2  0  0  0  0
 13  8  2  0  0  0  0
 16 12  1  0  0  0  0
 17 20  1  1  0  0  0
 18 17  1  0  0  0  0
 18 22  1  0  0  0  0
 19 18  1  0  0  0  0
 19 17  1  0  0  0  0
 19 28  1  1  0  0  0
 21 18  1  0  0  0  0
 23 19  1  0  0  0  0
 24 23  1  0  0  0  0
 25 26  1  0  0  0  0
 25 24  2  0  0  0  0
 26 27  2  0  0  0  0
 27 23  1  0  0  0  0
 28 31  1  0  0  0  0
 28 30  1  0  0  0  0
 29 28  1  0  0  0  0
M  END
>  <minimizedAffinity>
-3.8503139

>  <minimizedRMSD>
4.72938061

$$$$
