
 OpenBabel03262518443D

 35 39  0  0  1  0  0  0  0  0999 V2000
   38.3330   23.5990   30.4850 C   0  0  0  0  0  0  0  0  0  0  0  0
   37.0130   24.0520   30.6820 C   0  0  0  0  0  0  0  0  0  0  0  0
   36.8240   25.3250   31.2010 C   0  0  0  0  0  0  0  0  0  0  0  0
   37.9280   26.0670   31.4890 N   0  0  0  0  0  0  0  0  0  0  0  0
   39.1610   25.6010   31.2870 C   0  0  0  0  0  0  0  0  0  0  0  0
   39.3860   24.3720   30.7870 N   0  0  0  0  0  0  0  0  0  0  0  0
   40.2460   26.4650   31.6260 N   0  0  0  0  0  0  0  0  0  0  0  0
   40.5590   27.3080   30.6790 N   0  0  0  0  0  0  0  0  0  0  0  0
   41.6000   28.0760   31.1100 C   0  0  0  0  0  0  0  0  0  0  0  0
   41.9260   27.6830   32.3590 C   0  0  0  0  0  0  0  0  0  0  0  0
   41.0610   26.6540   32.6880 C   0  0  0  0  0  0  0  0  0  0  0  0
   36.1470   23.4400   30.4430 H   0  0  0  0  0  0  0  0  0  0  0  0
   35.8440   25.7480   31.3810 H   0  0  0  0  0  0  0  0  0  0  0  0
   42.1130   28.8720   30.5870 H   0  0  0  0  0  0  0  0  0  0  0  0
   42.6650   27.9870   33.0890 H   0  0  0  0  0  0  0  0  0  0  0  0
   40.8460   25.7910   33.8370 C   0  0  0  0  0  0  0  0  0  0  0  0
   41.6790   25.2540   34.7160 N   0  0  0  0  0  0  0  0  0  0  0  0
   41.0320   24.5460   35.5890 O   0  0  0  0  0  0  0  0  0  0  0  0
   39.7400   24.6390   35.2480 C   0  0  0  0  0  0  0  0  0  0  0  0
   39.5670   25.4040   34.1620 N   0  0  0  0  0  0  0  0  0  0  0  0
   38.6130   23.9810   35.9750 C   0  0  2  0  0  0  0  0  0  0  0  0
   38.8480   23.3620   37.3170 C   0  0  0  0  0  0  0  0  0  0  0  0
   38.5720   22.4970   36.0980 C   0  0  1  0  0  0  0  0  0  0  0  0
   37.6590   24.5590   35.8340 H   0  0  0  0  0  0  0  0  0  0  0  0
   39.8740   23.4520   37.6870 H   0  0  0  0  0  0  0  0  0  0  0  0
   38.0550   23.5370   38.0670 H   0  0  0  0  0  0  0  0  0  0  0  0
   39.4630   21.9330   35.7450 H   0  0  0  0  0  0  0  0  0  0  0  0
   37.3030   21.8470   35.9430 N   0  0  0  0  0  0  0  0  0  0  0  0
   36.6880   21.1990   34.9200 C   0  0  0  0  0  0  0  0  0  0  0  0
   35.4630   20.7730   35.3400 N   0  0  0  0  0  0  0  0  0  0  0  0
   35.3630   21.1780   36.6240 C   0  0  0  0  0  0  0  0  0  0  0  0
   36.4660   21.8230   36.9890 N   0  0  0  0  0  0  0  0  0  0  0  0
   38.5480   22.2880   29.9490 N   0  0  0  0  0  0  0  0  0  0  0  0
   38.7260   22.1750   28.9290 H   0  0  0  0  0  0  0  0  0  0  0  0
   38.5240   21.4610   30.5830 H   0  0  0  0  0  0  0  0  0  0  0  0
  1  2  2  0  0  0  0
  1  6  1  0  0  0  0
  2  3  1  0  0  0  0
  3 13  1  0  0  0  0
  3  4  2  0  0  0  0
  5  4  1  0  0  0  0
  5  7  1  0  0  0  0
  6  5  2  0  0  0  0
  7 11  1  0  0  0  0
  8  9  2  0  0  0  0
  8  7  1  0  0  0  0
  9 10  1  0  0  0  0
 10 11  2  0  0  0  0
 10 15  1  0  0  0  0
 11 16  1  0  0  0  0
 12  2  1  0  0  0  0
 14  9  1  0  0  0  0
 16 20  1  0  0  0  0
 16 17  2  0  0  0  0
 17 18  1  0  0  0  0
 19 18  1  0  0  0  0
 19 21  1  0  0  0  0
 20 19  2  0  0  0  0
 21 24  1  6  0  0  0
 21 23  1  0  0  0  0
 21 22  1  0  0  0  0
 22 25  1  0  0  0  0
 22 26  1  0  0  0  0
 23 27  1  6  0  0  0
 23 22  1  0  0  0  0
 28 23  1  0  0  0  0
 28 32  1  0  0  0  0
 29 30  2  0  0  0  0
 29 28  1  0  0  0  0
 30 31  1  0  0  0  0
 31 32  2  0  0  0  0
 33  1  1  0  0  0  0
 33 35  1  0  0  0  0
 34 33  1  0  0  0  0
M  END
>  <minimizedAffinity>
-4.43083572

>  <minimizedRMSD>
2.03040361

$$$$
