
 OpenBabel03262519153D

 31 34  0  0  0  0  0  0  0  0999 V2000
   38.9860   23.4320   36.1830 C   0  0  0  0  0  0  0  0  0  0  0  0
   39.4180   24.5440   35.4200 C   0  0  0  0  0  0  0  0  0  0  0  0
   40.6860   24.5480   34.8670 C   0  0  0  0  0  0  0  0  0  0  0  0
   41.4420   23.4470   35.1060 N   0  0  0  0  0  0  0  0  0  0  0  0
   40.9990   22.3800   35.8510 C   0  0  0  0  0  0  0  0  0  0  0  0
   39.7850   22.3990   36.3700 N   0  0  0  0  0  0  0  0  0  0  0  0
   37.9840   23.4860   36.5920 H   0  0  0  0  0  0  0  0  0  0  0  0
   41.0860   25.3580   34.2730 H   0  0  0  0  0  0  0  0  0  0  0  0
   41.9620   21.2690   36.0100 C   0  0  0  0  0  0  0  0  0  0  0  0
   42.2530   20.8870   37.2910 C   0  0  0  0  0  0  0  0  0  0  0  0
   43.4780   19.4900   37.0370 S   0  0  0  0  0  0  0  0  0  0  0  0
   43.3380   19.7270   35.1420 C   0  0  0  0  0  0  0  0  0  0  0  0
   42.6030   20.5710   35.0940 N   0  0  0  0  0  0  0  0  0  0  0  0
   42.0090   21.1270   38.3200 H   0  0  0  0  0  0  0  0  0  0  0  0
   44.0230   18.9810   34.1140 N   0  0  0  0  0  0  0  0  0  0  0  0
   44.8470   17.9760   34.4200 C   0  0  0  0  0  0  0  0  0  0  0  0
   45.3570   17.4460   33.2920 N   0  0  0  0  0  0  0  0  0  0  0  0
   44.8260   18.1510   32.2680 C   0  0  0  0  0  0  0  0  0  0  0  0
   44.0120   19.0850   32.8020 N   0  0  0  0  0  0  0  0  0  0  0  0
   38.6090   25.7170   35.1690 C   0  0  0  0  0  0  0  0  0  0  0  0
   38.5960   26.8520   35.9690 C   0  0  0  0  0  0  0  0  0  0  0  0
   37.7790   27.8650   35.5950 C   0  0  0  0  0  0  0  0  0  0  0  0
   37.0150   27.7080   34.4470 C   0  0  0  0  0  0  0  0  0  0  0  0
   37.4750   26.0100   33.8450 S   0  0  0  0  0  0  0  0  0  0  0  0
   39.2030   26.9520   36.8620 H   0  0  0  0  0  0  0  0  0  0  0  0
   37.6240   28.8210   36.0740 H   0  0  0  0  0  0  0  0  0  0  0  0
   36.0800   28.4870   33.7380 C   0  0  0  0  0  0  0  0  0  0  0  0
   35.8400   28.2820   32.5400 O   0  0  0  0  0  0  0  0  0  0  0  0
   35.3670   29.5620   34.4010 N   0  0  0  0  0  0  0  0  0  0  0  0
   34.3190   29.4290   34.3070 H   0  0  0  0  0  0  0  0  0  0  0  0
   35.8360   30.3470   34.8950 H   0  0  0  0  0  0  0  0  0  0  0  0
  1  6  1  0  0  0  0
  1  7  1  0  0  0  0
  2  1  2  0  0  0  0
  3  4  2  0  0  0  0
  3  2  1  0  0  0  0
  4  5  1  0  0  0  0
  5  9  1  0  0  0  0
  5  6  2  0  0  0  0
  8  3  1  0  0  0  0
  9 10  2  0  0  0  0
 10 14  1  0  0  0  0
 11 10  1  0  0  0  0
 12 11  1  0  0  0  0
 13 12  2  0  0  0  0
 13  9  1  0  0  0  0
 15 16  1  0  0  0  0
 15 12  1  0  0  0  0
 17 16  2  0  0  0  0
 18 19  2  0  0  0  0
 18 17  1  0  0  0  0
 19 15  1  0  0  0  0
 20  2  1  0  0  0  0
 20 21  2  0  0  0  0
 21 25  1  0  0  0  0
 22 21  1  0  0  0  0
 22 26  1  0  0  0  0
 23 22  2  0  0  0  0
 24 23  1  0  0  0  0
 24 20  1  0  0  0  0
 27 29  1  0  0  0  0
 27 23  1  0  0  0  0
 28 27  2  0  0  0  0
 29 31  1  0  0  0  0
 30 29  1  0  0  0  0
M  END
>  <minimizedAffinity>
-4.42084408

>  <minimizedRMSD>
3.14836979

$$$$
