
 OpenBabel03262519553D

 28 31  0  0  1  0  0  0  0  0999 V2000
   39.0430   21.3390   30.7740 C   0  0  0  0  0  0  0  0  0  0  0  0
   39.5990   21.9030   29.6240 C   0  0  0  0  0  0  0  0  0  0  0  0
   40.1400   23.0740   30.0660 N   0  0  0  0  0  0  0  0  0  0  0  0
   39.9120   23.1720   31.3580 C   0  0  0  0  0  0  0  0  0  0  0  0
   39.2320   22.1130   31.8420 N   0  0  0  0  0  0  0  0  0  0  0  0
   39.5530   21.4300   28.6560 H   0  0  0  0  0  0  0  0  0  0  0  0
   40.2740   24.0530   31.8970 H   0  0  0  0  0  0  0  0  0  0  0  0
   38.3420   20.0660   30.8200 C   0  0  0  0  0  0  0  0  0  0  0  0
   37.1150   19.9190   30.1510 C   0  0  0  0  0  0  0  0  0  0  0  0
   36.4630   18.6690   30.2180 C   0  0  0  0  0  0  0  0  0  0  0  0
   37.0640   17.6890   30.9230 N   0  0  0  0  0  0  0  0  0  0  0  0
   38.2430   17.8640   31.5550 C   0  0  0  0  0  0  0  0  0  0  0  0
   38.8990   19.0440   31.5150 N   0  0  0  0  0  0  0  0  0  0  0  0
   36.7420   20.7970   29.6150 H   0  0  0  0  0  0  0  0  0  0  0  0
   35.5380   18.6220   29.6910 H   0  0  0  0  0  0  0  0  0  0  0  0
   38.6680   17.0310   32.1050 H   0  0  0  0  0  0  0  0  0  0  0  0
   38.8540   21.9660   33.2140 C   0  0  1  0  0  0  0  0  0  0  0  0
   38.6590   23.0770   34.1250 C   0  0  0  0  0  0  0  0  0  0  0  0
   37.4420   22.4540   33.4930 C   0  0  1  0  0  0  0  0  0  0  0  0
   39.0670   20.9470   33.6280 H   0  0  0  0  0  0  0  0  0  0  0  0
   38.7550   22.8750   35.2160 H   0  0  0  0  0  0  0  0  0  0  0  0
   38.9740   24.0990   33.8730 H   0  0  0  0  0  0  0  0  0  0  0  0
   36.7900   21.8150   34.1180 H   0  0  0  0  0  0  0  0  0  0  0  0
   36.7760   23.3380   32.5660 N   0  0  0  0  0  0  0  0  0  0  0  0
   35.8310   22.9600   31.6560 C   0  0  0  0  0  3  0  0  0  0  0  0
   35.4370   24.0460   30.9650 N   0  0  0  0  0  0  0  0  0  0  0  0
   36.1550   25.0780   31.4720 C   0  0  0  0  0  3  0  0  0  0  0  0
   36.9700   24.6430   32.4460 N   0  0  0  0  0  0  0  0  0  0  0  0
  1  8  1  0  0  0  0
  1  5  1  0  0  0  0
  2  3  1  0  0  0  0
  2  1  2  0  0  0  0
  3  4  2  0  0  0  0
  4  5  1  0  0  0  0
  4  7  1  0  0  0  0
  5 17  1  0  0  0  0
  6  2  1  0  0  0  0
  8 13  1  0  0  0  0
  9 10  1  0  0  0  0
  9  8  2  0  0  0  0
 10 11  2  0  0  0  0
 11 12  1  0  0  0  0
 12 16  1  0  0  0  0
 13 12  2  0  0  0  0
 14  9  1  0  0  0  0
 15 10  1  0  0  0  0
 17 19  1  0  0  0  0
 17 20  1  1  0  0  0
 17 18  1  0  0  0  0
 18 21  1  0  0  0  0
 19 23  1  1  0  0  0
 19 18  1  0  0  0  0
 22 18  1  0  0  0  0
 24 19  1  0  0  0  0
 25 24  1  0  0  0  0
 26 27  1  0  0  0  0
 26 25  2  0  0  0  0
 27 28  2  0  0  0  0
 28 24  1  0  0  0  0
M  END
>  <minimizedAffinity>
-2.9280355

>  <minimizedRMSD>
5.42979574

$$$$
