
 OpenBabel03262519123D

 26 28  0  0  0  0  0  0  0  0999 V2000
   38.1180   25.6090   35.3380 C   0  0  0  0  0  0  0  0  0  0  0  0
   37.8050   26.9400   35.6160 C   0  0  0  0  0  0  0  0  0  0  0  0
   37.2960   27.7020   34.6160 C   0  0  0  0  0  0  0  0  0  0  0  0
   37.1150   27.0870   33.3390 C   0  0  0  0  0  0  0  0  0  0  0  0
   37.7020   25.3510   33.6040 S   0  0  0  0  0  0  0  0  0  0  0  0
   37.9670   27.3390   36.5980 H   0  0  0  0  0  0  0  0  0  0  0  0
   37.0070   28.7390   34.6750 H   0  0  0  0  0  0  0  0  0  0  0  0
   38.0860   24.3480   37.5010 C   0  0  0  0  0  0  0  0  0  0  0  0
   38.6540   24.6310   36.2240 C   0  0  0  0  0  0  0  0  0  0  0  0
   39.7620   23.9310   35.8280 C   0  0  0  0  0  0  0  0  0  0  0  0
   40.2770   22.9980   36.6640 N   0  0  0  0  0  0  0  0  0  0  0  0
   39.7250   22.7390   37.8830 C   0  0  0  0  0  0  0  0  0  0  0  0
   38.6470   23.4170   38.2720 N   0  0  0  0  0  0  0  0  0  0  0  0
   37.2090   24.9730   37.6940 H   0  0  0  0  0  0  0  0  0  0  0  0
   40.2980   24.0310   34.8980 H   0  0  0  0  0  0  0  0  0  0  0  0
   40.0910   22.0090   38.5890 H   0  0  0  0  0  0  0  0  0  0  0  0
   36.6240   27.5810   32.1390 C   0  0  0  0  0  0  0  0  0  0  0  0
   35.3880   27.7300   31.9990 O   0  0  0  0  0  0  0  0  0  0  0  0
   37.5080   27.9340   31.0330 C   0  0  0  0  0  0  0  0  0  0  0  0
   36.9000   28.5420   29.9580 C   0  0  0  0  0  0  0  0  0  0  0  0
   37.5950   28.9380   28.8370 C   0  0  0  0  0  0  0  0  0  0  0  0
   37.0950   29.4230   27.9870 H   0  0  0  0  0  0  0  0  0  0  0  0
   38.9600   28.7190   28.7790 C   0  0  0  0  0  0  0  0  0  0  0  0
   39.6070   28.1050   29.8540 C   0  0  0  0  0  0  0  0  0  0  0  0
   40.6740   27.9220   29.8380 H   0  0  0  0  0  0  0  0  0  0  0  0
   38.8710   27.7130   30.9790 C   0  0  0  0  0  0  0  0  0  0  0  0
  1  2  2  0  0  0  0
  1  9  1  0  0  0  0
  2  6  1  0  0  0  0
  3  7  1  0  0  0  0
  3  2  1  0  0  0  0
  4  5  1  0  0  0  0
  4  3  2  0  0  0  0
  5  1  1  0  0  0  0
  8 14  1  0  0  0  0
  8 13  1  0  0  0  0
  9  8  2  0  0  0  0
 10  9  1  0  0  0  0
 10 11  2  0  0  0  0
 11 12  1  0  0  0  0
 12 13  2  0  0  0  0
 12 16  1  0  0  0  0
 15 10  1  0  0  0  0
 17  4  1  0  0  0  0
 18 17  2  0  0  0  0
 19 17  1  0  0  0  0
 20 19  2  0  0  0  0
 21 20  1  0  0  0  0
 22 21  1  0  0  0  0
 23 21  2  0  0  0  0
 23 24  1  0  0  0  0
 24 26  2  0  0  0  0
 25 24  1  0  0  0  0
 26 19  1  0  0  0  0
M  END
>  <minimizedAffinity>
-4.97922754

>  <minimizedRMSD>
1.33997273

$$$$
