
 OpenBabel03262518593D

 33 36  0  0  0  0  0  0  0  0999 V2000
   39.2210   24.7730   34.6680 C   0  0  0  0  0  0  0  0  0  0  0  0
   40.2500   24.2450   33.9120 C   0  0  0  0  0  0  0  0  0  0  0  0
   41.0800   23.2850   34.4100 C   0  0  0  0  0  0  0  0  0  0  0  0
   40.9240   22.7950   35.7070 C   0  0  0  0  0  0  0  0  0  0  0  0
   39.8870   23.3220   36.4810 C   0  0  0  0  0  0  0  0  0  0  0  0
   39.7300   22.8430   37.7600 C   0  0  0  0  0  0  0  0  0  0  0  0
   38.7170   23.3330   38.5650 C   0  0  0  0  0  0  0  0  0  0  0  0
   37.8680   24.3100   38.0650 C   0  0  0  0  0  0  0  0  0  0  0  0
   38.0620   24.7600   36.7760 C   0  0  0  0  0  0  0  0  0  0  0  0
   39.0630   24.2990   35.9360 C   0  0  0  0  0  0  0  0  0  0  0  0
   40.3680   24.6250   32.9100 H   0  0  0  0  0  0  0  0  0  0  0  0
   41.8550   22.9330   33.7430 H   0  0  0  0  0  0  0  0  0  0  0  0
   41.6070   22.0450   36.0360 H   0  0  0  0  0  0  0  0  0  0  0  0
   40.4070   22.0840   38.1190 H   0  0  0  0  0  0  0  0  0  0  0  0
   38.6550   22.9110   39.5590 H   0  0  0  0  0  0  0  0  0  0  0  0
   37.0790   24.6820   38.7070 H   0  0  0  0  0  0  0  0  0  0  0  0
   37.3510   25.5160   36.4720 H   0  0  0  0  0  0  0  0  0  0  0  0
   38.3340   25.8180   34.1620 C   0  0  0  0  0  0  0  0  0  0  0  0
   39.0680   26.5140   33.6240 H   0  0  0  0  0  0  0  0  0  0  0  0
   37.8780   26.4880   34.8820 H   0  0  0  0  0  0  0  0  0  0  0  0
   35.9980   25.9410   31.3380 C   0  0  0  0  0  0  0  0  0  0  0  0
   35.7140   24.6110   31.0680 C   0  0  0  0  0  0  0  0  0  0  0  0
   36.3320   23.6240   31.8780 C   0  0  0  0  0  0  0  0  0  0  0  0
   37.1730   24.0310   32.8770 N   0  0  0  0  0  0  0  0  0  0  0  0
   37.4110   25.3310   33.0910 C   0  0  0  0  0  0  0  0  0  0  0  0
   36.8340   26.2820   32.3360 N   0  0  0  0  0  0  0  0  0  0  0  0
   35.5140   26.6510   30.7080 H   0  0  0  0  0  0  0  0  0  0  0  0
   35.0700   24.2360   30.3050 H   0  0  0  0  0  0  0  0  0  0  0  0
   36.1460   22.2220   31.7310 N   0  0  0  0  0  0  0  0  0  0  0  0
   36.7370   21.2150   31.0640 C   0  0  0  0  0  0  0  0  0  0  0  0
   36.0940   20.0590   31.3220 N   0  0  0  0  0  0  0  0  0  0  0  0
   35.0740   20.3560   32.1740 C   0  0  0  0  0  0  0  0  0  0  0  0
   35.1270   21.6940   32.4110 N   0  0  0  0  0  0  0  0  0  0  0  0
  1 10  1  0  0  0  0
  2  3  1  0  0  0  0
  2  1  2  0  0  0  0
  3  4  2  0  0  0  0
  4 13  1  0  0  0  0
  4  5  1  0  0  0  0
  5  6  1  0  0  0  0
  6 14  1  0  0  0  0
  6  7  2  0  0  0  0
  7 15  1  0  0  0  0
  8  7  1  0  0  0  0
  8 16  1  0  0  0  0
  9  8  2  0  0  0  0
 10  5  2  0  0  0  0
 10  9  1  0  0  0  0
 11  2  1  0  0  0  0
 12  3  1  0  0  0  0
 17  9  1  0  0  0  0
 18  1  1  0  0  0  0
 18 20  1  0  0  0  0
 19 18  1  0  0  0  0
 21 26  1  0  0  0  0
 22 21  2  0  0  0  0
 22 23  1  0  0  0  0
 23 24  2  0  0  0  0
 24 25  1  0  0  0  0
 25 18  1  0  0  0  0
 26 25  2  0  0  0  0
 27 21  1  0  0  0  0
 28 22  1  0  0  0  0
 29 23  1  0  0  0  0
 29 33  1  0  0  0  0
 30 31  2  0  0  0  0
 30 29  1  0  0  0  0
 31 32  1  0  0  0  0
 32 33  2  0  0  0  0
M  END
>  <minimizedAffinity>
-5.89241457

>  <minimizedRMSD>
2.93324518

$$$$
