
 OpenBabel03262519553D

 28 31  0  0  1  0  0  0  0  0999 V2000
   40.1820   23.8210   34.5370 C   0  0  0  0  0  0  0  0  0  0  0  0
   41.1760   24.7190   34.1470 C   0  0  0  0  0  0  0  0  0  0  0  0
   41.4520   24.3600   32.8610 N   0  0  0  0  0  0  0  0  0  0  0  0
   40.6820   23.3420   32.5430 C   0  0  0  0  0  0  0  0  0  0  0  0
   39.8730   22.9720   33.5570 N   0  0  0  0  0  0  0  0  0  0  0  0
   41.5630   25.4860   34.7980 H   0  0  0  0  0  0  0  0  0  0  0  0
   40.7590   22.9090   31.5410 H   0  0  0  0  0  0  0  0  0  0  0  0
   39.5480   23.7980   35.8460 C   0  0  0  0  0  0  0  0  0  0  0  0
   40.0370   22.9380   36.8430 C   0  0  0  0  0  0  0  0  0  0  0  0
   39.3970   22.9420   38.1020 C   0  0  0  0  0  0  0  0  0  0  0  0
   38.3510   23.7790   38.2670 N   0  0  0  0  0  0  0  0  0  0  0  0
   37.9070   24.5920   37.2860 C   0  0  0  0  0  0  0  0  0  0  0  0
   38.4920   24.6170   36.0690 N   0  0  0  0  0  0  0  0  0  0  0  0
   40.8930   22.3120   36.5740 H   0  0  0  0  0  0  0  0  0  0  0  0
   39.8140   22.2700   38.8140 H   0  0  0  0  0  0  0  0  0  0  0  0
   37.0600   25.2380   37.4900 H   0  0  0  0  0  0  0  0  0  0  0  0
   38.9360   21.8950   33.4780 C   0  0  1  0  0  0  0  0  0  0  0  0
   37.5910   21.9480   34.0180 C   0  0  0  0  0  0  0  0  0  0  0  0
   37.7740   22.1900   32.5420 C   0  0  1  0  0  0  0  0  0  0  0  0
   39.4170   20.8990   33.2970 H   0  0  0  0  0  0  0  0  0  0  0  0
   37.0920   20.9830   34.2590 H   0  0  0  0  0  0  0  0  0  0  0  0
   37.2660   22.7520   34.6930 H   0  0  0  0  0  0  0  0  0  0  0  0
   37.4690   21.3970   31.8340 H   0  0  0  0  0  0  0  0  0  0  0  0
   37.4730   23.5470   32.1540 N   0  0  0  0  0  0  0  0  0  0  0  0
   37.5920   24.0510   30.8920 C   0  0  0  0  0  3  0  0  0  0  0  0
   37.2250   25.3480   30.9070 N   0  0  0  0  0  0  0  0  0  0  0  0
   36.8860   25.6130   32.1920 C   0  0  0  0  0  3  0  0  0  0  0  0
   37.0380   24.5140   32.9490 N   0  0  0  0  0  0  0  0  0  0  0  0
  1  8  1  0  0  0  0
  2  1  2  0  0  0  0
  2  6  1  0  0  0  0
  3  2  1  0  0  0  0
  4  3  2  0  0  0  0
  4  5  1  0  0  0  0
  5  1  1  0  0  0  0
  7  4  1  0  0  0  0
  8 13  2  0  0  0  0
  8  9  1  0  0  0  0
  9 10  2  0  0  0  0
 10 11  1  0  0  0  0
 10 15  1  0  0  0  0
 12 16  1  0  0  0  0
 12 11  2  0  0  0  0
 13 12  1  0  0  0  0
 14  9  1  0  0  0  0
 17 20  1  6  0  0  0
 17  5  1  0  0  0  0
 17 18  1  0  0  0  0
 18 21  1  0  0  0  0
 18 22  1  0  0  0  0
 19 23  1  6  0  0  0
 19 17  1  0  0  0  0
 19 18  1  0  0  0  0
 24 19  1  0  0  0  0
 24 28  1  0  0  0  0
 25 26  2  0  0  0  0
 25 24  1  0  0  0  0
 26 27  1  0  0  0  0
 27 28  2  0  0  0  0
M  END
>  <minimizedAffinity>
-3.69733071

>  <minimizedRMSD>
2.77145815

$$$$
