
 OpenBabel03262519433D

 24 25  0  0  1  0  0  0  0  0999 V2000
   38.1970   24.4260   36.9220 C   0  0  1  0  0  0  0  0  0  0  0  0
   37.3400   24.0670   36.2790 H   0  0  0  0  0  0  0  0  0  0  0  0
   40.9730   21.9020   37.4350 C   0  0  0  0  0  0  0  0  0  0  0  0
   39.9250   22.8070   37.7160 C   0  0  0  0  0  0  0  0  0  0  0  0
   39.2790   23.4720   36.6430 C   0  0  0  0  0  0  0  0  0  0  0  0
   39.7130   23.1950   35.3810 N   0  0  0  0  0  0  0  0  0  0  0  0
   40.7060   22.3350   35.1390 C   0  0  0  0  0  0  0  0  0  0  0  0
   41.3490   21.6760   36.1520 N   0  0  0  0  0  0  0  0  0  0  0  0
   41.4490   21.4070   38.2580 H   0  0  0  0  0  0  0  0  0  0  0  0
   39.6470   22.9670   38.7360 H   0  0  0  0  0  0  0  0  0  0  0  0
   40.9660   22.1950   34.0810 H   0  0  0  0  0  0  0  0  0  0  0  0
   37.7320   24.3810   38.3600 C   0  0  0  0  0  0  0  0  0  0  0  0
   38.6280   24.4910   39.0360 H   0  0  0  0  0  0  0  0  0  0  0  0
   37.0990   25.2680   38.5150 H   0  0  0  0  0  0  0  0  0  0  0  0
   37.2410   23.4160   38.5630 H   0  0  0  0  0  0  0  0  0  0  0  0
   38.5560   25.8470   36.5580 C   0  0  0  0  0  0  0  0  0  0  0  0
   38.2180   26.5660   37.3280 H   0  0  0  0  0  0  0  0  0  0  0  0
   39.6700   25.9410   36.4740 H   0  0  0  0  0  0  0  0  0  0  0  0
   37.8890   26.1980   35.2860 C   0  0  0  0  0  0  0  0  0  0  0  0
   37.4340   27.4950   35.0250 C   0  0  0  0  0  0  0  0  0  0  0  0
   36.8540   27.5700   33.7890 C   0  0  0  0  0  0  0  0  0  0  0  0
   36.9870   26.2730   33.3390 C   0  0  0  0  0  0  0  0  0  0  0  0
   36.6840   25.8010   32.3950 H   0  0  0  0  0  0  0  0  0  0  0  0
   37.5790   25.5350   34.2230 O   0  0  0  0  0  0  0  0  0  0  0  0
  1  2  1  6  0  0  0
  1 12  1  0  0  0  0
  3  4  1  0  0  0  0
  3  9  1  0  0  0  0
  4 10  1  0  0  0  0
  5  1  1  0  0  0  0
  5  4  2  0  0  0  0
  6  5  1  0  0  0  0
  7  6  2  0  0  0  0
  7  8  1  0  0  0  0
  8  3  2  0  0  0  0
 11  7  1  0  0  0  0
 12 14  1  0  0  0  0
 12 15  1  0  0  0  0
 12 13  1  0  0  0  0
 16  1  1  0  0  0  0
 16 17  1  0  0  0  0
 18 16  1  0  0  0  0
 19 16  1  0  0  0  0
 20 19  2  0  0  0  0
 21 20  1  0  0  0  0
 22 21  2  0  0  0  0
 22 24  1  0  0  0  0
 23 22  1  0  0  0  0
 24 19  1  0  0  0  0
M  END
>  <minimizedAffinity>
-3.99005866

>  <minimizedRMSD>
1.09728038

$$$$
