
 OpenBabel03262519563D

 28 31  0  0  1  0  0  0  0  0999 V2000
   38.3820   23.4920   30.8840 C   0  0  0  0  0  0  0  0  0  0  0  0
   38.7700   23.8240   29.5850 C   0  0  0  0  0  0  0  0  0  0  0  0
   39.5850   24.9030   29.7550 N   0  0  0  0  0  0  0  0  0  0  0  0
   39.6580   25.1670   31.0410 C   0  0  0  0  0  0  0  0  0  0  0  0
   38.9230   24.3130   31.7840 N   0  0  0  0  0  0  0  0  0  0  0  0
   38.4380   23.2790   28.7150 H   0  0  0  0  0  0  0  0  0  0  0  0
   40.2710   26.0070   31.3790 H   0  0  0  0  0  0  0  0  0  0  0  0
   37.4980   22.3910   31.2330 C   0  0  0  0  0  0  0  0  0  0  0  0
   36.1090   22.5980   31.2760 C   0  0  0  0  0  0  0  0  0  0  0  0
   35.2820   21.5060   31.6180 C   0  0  0  0  0  0  0  0  0  0  0  0
   35.8820   20.3270   31.8830 N   0  0  0  0  0  0  0  0  0  0  0  0
   37.2210   20.1640   31.8330 C   0  0  0  0  0  0  0  0  0  0  0  0
   38.0460   21.1830   31.5090 N   0  0  0  0  0  0  0  0  0  0  0  0
   35.7560   23.6060   31.0380 H   0  0  0  0  0  0  0  0  0  0  0  0
   34.2400   21.7260   31.6330 H   0  0  0  0  0  0  0  0  0  0  0  0
   37.6350   19.1870   32.0590 H   0  0  0  0  0  0  0  0  0  0  0  0
   38.8270   24.3740   33.2090 C   0  0  1  0  0  0  0  0  0  0  0  0
   39.1570   25.5480   33.9950 C   0  0  0  0  0  0  0  0  0  0  0  0
   37.7060   25.2840   33.6860 C   0  0  1  0  0  0  0  0  0  0  0  0
   38.8270   23.3670   33.6990 H   0  0  0  0  0  0  0  0  0  0  0  0
   39.4260   25.3950   35.0640 H   0  0  0  0  0  0  0  0  0  0  0  0
   39.6860   26.4080   33.5630 H   0  0  0  0  0  0  0  0  0  0  0  0
   37.0510   24.9130   34.4970 H   0  0  0  0  0  0  0  0  0  0  0  0
   37.1330   26.2670   32.7980 N   0  0  0  0  0  0  0  0  0  0  0  0
   37.5350   27.5680   32.6990 C   0  0  0  0  0  3  0  0  0  0  0  0
   36.7770   28.1850   31.7720 N   0  0  0  0  0  0  0  0  0  0  0  0
   35.9190   27.2390   31.3180 C   0  0  0  0  0  3  0  0  0  0  0  0
   36.1370   26.0730   31.9450 N   0  0  0  0  0  0  0  0  0  0  0  0
  1  8  1  0  0  0  0
  1  5  1  0  0  0  0
  2  3  1  0  0  0  0
  2  1  2  0  0  0  0
  3  4  2  0  0  0  0
  4  7  1  0  0  0  0
  4  5  1  0  0  0  0
  5 17  1  0  0  0  0
  6  2  1  0  0  0  0
  8  9  2  0  0  0  0
  8 13  1  0  0  0  0
  9 10  1  0  0  0  0
 10 15  1  0  0  0  0
 10 11  2  0  0  0  0
 12 11  1  0  0  0  0
 12 16  1  0  0  0  0
 13 12  2  0  0  0  0
 14  9  1  0  0  0  0
 17 19  1  0  0  0  0
 17 20  1  1  0  0  0
 17 18  1  0  0  0  0
 18 21  1  0  0  0  0
 19 18  1  0  0  0  0
 19 23  1  1  0  0  0
 22 18  1  0  0  0  0
 24 19  1  0  0  0  0
 25 24  1  0  0  0  0
 26 25  2  0  0  0  0
 27 26  1  0  0  0  0
 27 28  2  0  0  0  0
 28 24  1  0  0  0  0
M  END
>  <minimizedAffinity>
-3.52300334

>  <minimizedRMSD>
5.49634933

$$$$
