
 OpenBabel03262519563D

 28 31  0  0  1  0  0  0  0  0999 V2000
   37.6720   24.0060   33.3460 C   0  0  0  0  0  0  0  0  0  0  0  0
   37.2710   25.1570   32.6670 C   0  0  0  0  0  0  0  0  0  0  0  0
   37.3940   26.1440   33.6000 N   0  0  0  0  0  0  0  0  0  0  0  0
   37.8290   25.6030   34.7180 C   0  0  0  0  0  0  0  0  0  0  0  0
   38.0160   24.2720   34.6060 N   0  0  0  0  0  0  0  0  0  0  0  0
   36.9540   25.1520   31.6370 H   0  0  0  0  0  0  0  0  0  0  0  0
   37.9920   26.2420   35.5910 H   0  0  0  0  0  0  0  0  0  0  0  0
   37.7160   22.6720   32.7680 C   0  0  0  0  0  0  0  0  0  0  0  0
   36.6500   21.7820   32.9830 C   0  0  0  0  0  0  0  0  0  0  0  0
   36.7270   20.4960   32.4060 C   0  0  0  0  0  0  0  0  0  0  0  0
   37.8260   20.2020   31.6810 N   0  0  0  0  0  0  0  0  0  0  0  0
   38.8330   21.0810   31.4950 C   0  0  0  0  0  0  0  0  0  0  0  0
   38.7970   22.3210   32.0300 N   0  0  0  0  0  0  0  0  0  0  0  0
   35.8200   22.1510   33.5920 H   0  0  0  0  0  0  0  0  0  0  0  0
   35.8900   19.8690   32.6050 H   0  0  0  0  0  0  0  0  0  0  0  0
   39.6870   20.7770   30.9000 H   0  0  0  0  0  0  0  0  0  0  0  0
   38.4830   23.4390   35.6710 C   0  0  1  0  0  0  0  0  0  0  0  0
   39.4000   22.3300   35.4910 C   0  0  0  0  0  0  0  0  0  0  0  0
   39.9590   23.6430   35.9750 C   0  0  1  0  0  0  0  0  0  0  0  0
   37.8290   23.4700   36.5800 H   0  0  0  0  0  0  0  0  0  0  0  0
   39.3990   21.5280   36.2630 H   0  0  0  0  0  0  0  0  0  0  0  0
   39.6480   21.9350   34.4960 H   0  0  0  0  0  0  0  0  0  0  0  0
   40.2590   23.7310   37.0360 H   0  0  0  0  0  0  0  0  0  0  0  0
   40.8260   24.2740   35.0080 N   0  0  0  0  0  0  0  0  0  0  0  0
   41.4240   23.6430   33.9560 C   0  0  0  0  0  3  0  0  0  0  0  0
   42.1560   24.5440   33.2710 N   0  0  0  0  0  0  0  0  0  0  0  0
   41.9880   25.7190   33.9250 C   0  0  0  0  0  3  0  0  0  0  0  0
   41.1770   25.5510   34.9820 N   0  0  0  0  0  0  0  0  0  0  0  0
  1  5  1  0  0  0  0
  2  1  2  0  0  0  0
  2  3  1  0  0  0  0
  3  4  2  0  0  0  0
  4  7  1  0  0  0  0
  5  4  1  0  0  0  0
  5 17  1  0  0  0  0
  6  2  1  0  0  0  0
  8  9  1  0  0  0  0
  8  1  1  0  0  0  0
  9 14  1  0  0  0  0
 10 15  1  0  0  0  0
 10  9  2  0  0  0  0
 11 10  1  0  0  0  0
 12 11  2  0  0  0  0
 12 13  1  0  0  0  0
 13  8  2  0  0  0  0
 16 12  1  0  0  0  0
 17 19  1  0  0  0  0
 17 20  1  1  0  0  0
 18 17  1  0  0  0  0
 18 19  1  0  0  0  0
 18 21  1  0  0  0  0
 19 23  1  1  0  0  0
 22 18  1  0  0  0  0
 24 19  1  0  0  0  0
 25 24  1  0  0  0  0
 26 27  1  0  0  0  0
 26 25  2  0  0  0  0
 27 28  2  0  0  0  0
 28 24  1  0  0  0  0
M  END
>  <minimizedAffinity>
-3.2527287

>  <minimizedRMSD>
5.72456264

$$$$
