
     RDKit          3D

 30 33  0  0  0  0  0  0  0  0999 V2000
   38.0277   23.4718   34.6243 C   0  0  0  0  0  0  0  0  0  0  0  0
   38.2637   24.5683   33.7928 C   0  0  0  0  0  0  0  0  0  0  0  0
   37.7691   24.1726   32.5857 N   0  0  0  0  0  0  0  0  0  0  0  0
   37.2906   22.9536   32.7152 C   0  0  0  0  0  0  0  0  0  0  0  0
   37.4307   22.4771   33.9695 N   0  0  0  0  0  0  0  0  0  0  0  0
   38.3821   23.4048   36.0326 C   0  0  0  0  0  0  0  0  0  0  0  0
   39.5893   22.7990   36.4215 C   0  0  0  0  0  0  0  0  0  0  0  0
   39.8998   22.7524   37.7979 C   0  0  0  0  0  0  0  0  0  0  0  0
   39.0128   23.2956   38.6575 N   0  0  0  0  0  0  0  0  0  0  0  0
   37.8621   23.8699   38.2488 C   0  0  0  0  0  0  0  0  0  0  0  0
   37.5275   23.9352   36.9421 N   0  0  0  0  0  0  0  0  0  0  0  0
   36.9958   21.1787   34.3824 C   0  0  1  0  0  0  0  0  0  0  0  0
   35.8650   20.9434   35.2591 C   0  0  0  0  0  0  0  0  0  0  0  0
   35.6589   20.7826   33.7747 C   0  0  1  0  0  0  0  0  0  0  0  0
   38.7382   25.4742   34.1345 H   0  0  0  0  0  0  0  0  0  0  0  0
   36.8466   22.4609   31.8450 H   0  0  0  0  0  0  0  0  0  0  0  0
   40.2159   22.3985   35.6196 H   0  0  0  0  0  0  0  0  0  0  0  0
   40.8267   22.2813   38.0278 H   0  0  0  0  0  0  0  0  0  0  0  0
   37.1948   24.2872   38.9962 H   0  0  0  0  0  0  0  0  0  0  0  0
   37.7863   20.3907   34.2801 H   0  0  0  0  0  0  0  0  0  0  0  0
   35.8397   19.9844   35.8243 H   0  0  0  0  0  0  0  0  0  0  0  0
   35.3831   21.7561   35.8194 H   0  0  0  0  0  0  0  0  0  0  0  0
   35.5631   19.7623   33.3606 H   0  0  0  0  0  0  0  0  0  0  0  0
   34.7816   21.7862   33.2191 N   0  0  0  0  0  0  0  0  0  0  0  0
   33.4267   21.8242   33.3799 C   0  0  0  0  0  0  0  0  0  0  0  0
   32.9441   22.8971   32.7232 N   0  0  0  0  0  0  0  0  0  0  0  0
   34.0244   23.4993   32.1689 C   0  0  0  0  0  0  0  0  0  0  0  0
   35.1424   22.8200   32.4728 N   0  0  0  0  0  0  0  0  0  0  0  0
   32.8893   21.0673   33.9639 H   0  0  0  0  0  0  0  0  0  0  0  0
   33.7991   24.4058   31.5890 H   0  0  0  0  0  0  0  0  0  0  0  0
  1  6  1  0
  2  1  2  0
  3  4  2  0
  3  2  1  0
  4  5  1  0
  5 12  1  0
  5  1  1  0
  6  7  2  0
  6 11  1  0
  7  8  1  0
  8  9  2  0
 10  9  1  0
 11 10  2  0
 12 13  1  0
 14 12  1  0
 14 13  1  0
  2 15  1  0
  4 16  1  0
  7 17  1  0
  8 18  1  0
 10 19  1  0
 12 20  1  1
 13 21  1  0
 13 22  1  0
 14 23  1  1
 24 25  1  0
 25 26  2  0
 26 27  1  0
 27 28  2  0
 28 24  1  0
 25 29  1  0
 27 30  1  0
 14 24  1  0
M  ISO  8  15  14  16  14  17  14  18  14  19  14  20  13  21  13  22  13
M  ISO  1  23  13
M  END
>  <DihAtoms>  (1) 
11,13,23,24

>  <DihDeg>  (1) 
146.69233861457397

$$$$
