
 OpenBabel03262519523D

 30 32  0  0  1  0  0  0  0  0999 V2000
   40.6990   23.9370   34.9480 C   0  0  0  0  0  0  0  0  0  0  0  0
   40.3460   23.0180   34.5680 H   0  0  0  0  0  0  0  0  0  0  0  0
   40.7440   24.5360   33.9590 H   0  0  0  0  0  0  0  0  0  0  0  0
   43.8260   23.5130   36.6390 C   0  0  0  0  0  0  0  0  0  0  0  0
   42.5000   23.1950   36.2370 C   0  0  0  0  0  0  0  0  0  0  0  0
   42.0030   24.1490   35.4500 C   0  0  0  0  0  0  0  0  0  0  0  0
   42.7250   25.2860   35.0960 N   0  0  0  0  0  0  0  0  0  0  0  0
   43.9580   25.5190   35.5060 C   0  0  0  0  0  0  0  0  0  0  0  0
   44.5080   24.6200   36.2860 N   0  0  0  0  0  0  0  0  0  0  0  0
   44.4210   22.8510   37.2970 H   0  0  0  0  0  0  0  0  0  0  0  0
   44.4180   26.4130   35.1810 H   0  0  0  0  0  0  0  0  0  0  0  0
   42.0060   21.9630   36.7330 C   0  0  0  0  0  0  0  0  0  0  0  0
   41.0370   22.1390   37.7520 F   0  0  0  0  0  0  0  0  0  0  0  0
   42.7290   21.1750   37.5490 F   0  0  0  0  0  0  0  0  0  0  0  0
   41.0940   21.2520   35.9540 F   0  0  0  0  0  0  0  0  0  0  0  0
   39.6660   24.6420   35.6780 C   0  0  0  0  0  0  0  0  0  0  0  0
   39.9240   24.6210   36.7790 H   0  0  0  0  0  0  0  0  0  0  0  0
   39.5120   25.7220   35.4750 H   0  0  0  0  0  0  0  0  0  0  0  0
   38.3680   23.8320   35.5710 C   0  0  2  0  0  0  0  0  0  0  0  0
   37.6160   23.6940   36.8450 C   0  0  0  0  0  0  0  0  0  0  0  0
   38.1890   22.5210   36.1010 C   0  0  1  0  0  0  0  0  0  0  0  0
   37.7690   24.2020   34.7290 H   0  0  0  0  0  0  0  0  0  0  0  0
   36.4900   23.8330   36.8110 H   0  0  0  0  0  0  0  0  0  0  0  0
   38.0230   24.1730   37.7120 H   0  0  0  0  0  0  0  0  0  0  0  0
   38.5450   21.8260   36.7700 H   0  0  0  0  0  0  0  0  0  0  0  0
   37.1570   21.7640   35.3240 N   0  0  0  0  0  0  0  0  0  0  0  0
   36.0970   21.0090   35.7260 C   0  0  0  0  0  3  0  0  0  0  0  0
   35.4690   20.5380   34.6610 N   0  0  0  0  0  0  0  0  0  0  0  0
   36.0970   20.9690   33.5800 C   0  0  0  0  0  3  0  0  0  0  0  0
   37.1150   21.7090   33.9830 N   0  0  0  0  0  0  0  0  0  0  0  0
  1  6  1  0  0  0  0
  1 16  1  0  0  0  0
  2  1  1  0  0  0  0
  3  1  1  0  0  0  0
  4 10  1  0  0  0  0
  5  4  2  0  0  0  0
  5 12  1  0  0  0  0
  6  5  1  0  0  0  0
  7  6  2  0  0  0  0
  7  8  1  0  0  0  0
  8  9  2  0  0  0  0
  9  4  1  0  0  0  0
 11  8  1  0  0  0  0
 12 14  1  0  0  0  0
 12 13  1  0  0  0  0
 15 12  1  0  0  0  0
 16 17  1  0  0  0  0
 18 16  1  0  0  0  0
 19 22  1  6  0  0  0
 19 16  1  0  0  0  0
 19 21  1  0  0  0  0
 19 20  1  0  0  0  0
 20 24  1  0  0  0  0
 21 25  1  1  0  0  0
 21 20  1  0  0  0  0
 23 20  1  0  0  0  0
 26 27  1  0  0  0  0
 26 21  1  0  0  0  0
 28 27  2  0  0  0  0
 29 30  2  0  0  0  0
 29 28  1  0  0  0  0
 30 26  1  0  0  0  0
M  END
>  <minimizedAffinity>
-4.26339531

>  <minimizedRMSD>
1.88527787

$$$$
