
     RDKit          3D

 32 34  0  0  0  0  0  0  0  0999 V2000
   43.1250   23.3335   36.5403 C   0  0  0  0  0  0  0  0  0  0  0  0
   41.7277   23.1087   36.4013 C   0  0  0  0  0  0  0  0  0  0  0  0
   41.1739   24.0420   35.6257 C   0  0  0  0  0  0  0  0  0  0  0  0
   41.9065   25.0772   35.0522 N   0  0  0  0  0  0  0  0  0  0  0  0
   43.2067   25.2264   35.2233 C   0  0  0  0  0  0  0  0  0  0  0  0
   43.8160   24.3430   35.9757 N   0  0  0  0  0  0  0  0  0  0  0  0
   41.2355   21.9695   37.0853 C   0  0  0  0  0  0  0  0  0  0  0  0
   40.4747   22.3119   38.2297 F   0  0  0  0  0  0  0  0  0  0  0  0
   42.0290   21.1862   37.8385 F   0  0  0  0  0  0  0  0  0  0  0  0
   40.1516   21.2839   36.5383 F   0  0  0  0  0  0  0  0  0  0  0  0
   39.7891   23.9127   35.3756 C   0  0  0  0  0  0  0  0  0  0  0  0
   39.0193   25.0952   35.7025 C   0  0  0  0  0  0  0  0  0  0  0  0
   37.7779   24.6537   36.4879 C   0  0  2  0  0  0  0  0  0  0  0  0
   38.0200   24.3863   37.9296 C   0  0  0  0  0  0  0  0  0  0  0  0
   37.5539   23.3297   36.9671 C   0  0  1  0  0  0  0  0  0  0  0  0
   43.7741   22.6720   37.1449 H   0  0  0  0  0  0  0  0  0  0  0  0
   43.6704   26.0470   34.7434 H   0  0  0  0  0  0  0  0  0  0  0  0
   39.2323   23.0308   35.5372 H   0  0  0  0  0  0  0  0  0  0  0  0
   39.7717   23.9277   34.2188 H   0  0  0  0  0  0  0  0  0  0  0  0
   39.6125   25.7197   36.4355 H   0  0  0  0  0  0  0  0  0  0  0  0
   38.7779   25.8143   34.8927 H   0  0  0  0  0  0  0  0  0  0  0  0
   36.9492   25.3454   36.2887 H   0  0  0  0  0  0  0  0  0  0  0  0
   37.2605   24.7825   38.6747 H   0  0  0  0  0  0  0  0  0  0  0  0
   39.0141   24.5329   38.2991 H   0  0  0  0  0  0  0  0  0  0  0  0
   37.9965   22.4311   37.1982 H   0  0  0  0  0  0  0  0  0  0  0  0
   36.0901   23.0422   37.0825 N   0  0  0  0  0  0  0  0  0  0  0  0
   35.3548   22.4853   38.0853 C   0  0  0  0  0  0  0  0  0  0  0  0
   34.0835   22.4376   37.7198 N   0  0  0  0  0  0  0  0  0  0  0  0
   33.9793   22.9503   36.5049 C   0  0  0  0  0  0  0  0  0  0  0  0
   35.1903   23.3141   36.1225 N   0  0  0  0  0  0  0  0  0  0  0  0
   35.8983   22.1816   38.9850 H   0  0  0  0  0  0  0  0  0  0  0  0
   33.1035   23.0840   35.8711 H   0  0  0  0  0  0  0  0  0  0  0  0
  2  1  2  0
  2  7  1  0
  3  2  1  0
  4  5  1  0
  4  3  2  0
  5  6  2  0
  6  1  1  0
  7  9  1  0
  7  8  1  0
 10  7  1  0
 11  3  1  0
 11 12  1  0
 12 13  1  0
 13 15  1  0
 13 14  1  0
 15 14  1  0
  1 16  1  0
  5 17  1  0
 11 18  1  0
 11 19  1  0
 12 20  1  0
 12 21  1  0
 13 22  1  1
 14 23  1  0
 14 24  1  0
 15 25  1  6
 26 27  1  0
 27 28  2  0
 28 29  1  0
 29 30  2  0
 30 26  1  0
 27 31  1  0
 29 32  1  0
 15 26  1  0
M  ISO  8  16  14  17  14  18   8  19   8  20   8  21   8  22  13  23  13
M  ISO  2  24  13  25  13
M  END
>  <DihAtoms>  (1) 
12,14,25,26

>  <DihDeg>  (1) 
137.2598057005749

$$$$
