
 OpenBabel03262518423D

 28 31  0  0  0  0  0  0  0  0999 V2000
   36.7350   21.3870   30.8900 C   0  0  0  0  0  0  0  0  0  0  0  0
   35.5020   21.9360   31.2330 C   0  0  0  0  0  0  0  0  0  0  0  0
   35.4370   23.3020   31.5280 C   0  0  0  0  0  0  0  0  0  0  0  0
   36.6080   24.0140   31.4580 N   0  0  0  0  0  0  0  0  0  0  0  0
   37.7650   23.4470   31.1260 C   0  0  0  0  0  0  0  0  0  0  0  0
   37.8560   22.1350   30.8370 N   0  0  0  0  0  0  0  0  0  0  0  0
   38.9140   24.2930   31.0880 N   0  0  0  0  0  0  0  0  0  0  0  0
   39.0630   24.9370   29.9720 N   0  0  0  0  0  0  0  0  0  0  0  0
   40.1780   25.7090   30.0360 C   0  0  0  0  0  0  0  0  0  0  0  0
   40.7360   25.5230   31.2610 C   0  0  0  0  0  0  0  0  0  0  0  0
   39.9320   24.6240   31.9240 C   0  0  0  0  0  0  0  0  0  0  0  0
   36.7940   19.9960   30.5920 N   0  0  0  0  0  0  0  0  0  0  0  0
   34.5890   21.3850   31.2900 H   0  0  0  0  0  0  0  0  0  0  0  0
   34.5670   23.8440   31.8020 H   0  0  0  0  0  0  0  0  0  0  0  0
   40.5910   26.3680   29.2850 H   0  0  0  0  0  0  0  0  0  0  0  0
   41.5950   25.9020   31.7600 H   0  0  0  0  0  0  0  0  0  0  0  0
   36.5670   19.5230   31.4980 H   0  0  0  0  0  0  0  0  0  0  0  0
   37.0120   19.4960   29.6870 H   0  0  0  0  0  0  0  0  0  0  0  0
   39.9190   23.9820   33.2390 C   0  0  0  0  0  0  0  0  0  0  0  0
   40.4910   22.8810   33.6990 N   0  0  0  0  0  0  0  0  0  0  0  0
   40.1840   22.7110   34.9640 O   0  0  0  0  0  0  0  0  0  0  0  0
   39.4020   23.7320   35.2990 C   0  0  0  0  0  0  0  0  0  0  0  0
   39.2030   24.5630   34.2490 N   0  0  0  0  0  0  0  0  0  0  0  0
   38.8650   23.8850   36.6190 N   0  0  0  0  0  0  0  0  0  0  0  0
   39.4640   23.0960   37.5570 C   0  0  0  0  0  0  0  0  0  0  0  0
   38.8900   23.3150   38.7540 N   0  0  0  0  0  0  0  0  0  0  0  0
   37.9390   24.2400   38.5400 C   0  0  0  0  0  0  0  0  0  0  0  0
   37.9240   24.5920   37.2230 N   0  0  0  0  0  0  0  0  0  0  0  0
  1  2  1  0  0  0  0
  2 13  1  0  0  0  0
  2  3  2  0  0  0  0
  3 14  1  0  0  0  0
  4  3  1  0  0  0  0
  5  4  2  0  0  0  0
  6  1  2  0  0  0  0
  6  5  1  0  0  0  0
  7  5  1  0  0  0  0
  7 11  1  0  0  0  0
  8  9  2  0  0  0  0
  8  7  1  0  0  0  0
  9 10  1  0  0  0  0
 10 16  1  0  0  0  0
 10 11  2  0  0  0  0
 11 19  1  0  0  0  0
 12  1  1  0  0  0  0
 12 17  1  0  0  0  0
 15  9  1  0  0  0  0
 18 12  1  0  0  0  0
 19 20  2  0  0  0  0
 19 23  1  0  0  0  0
 20 21  1  0  0  0  0
 21 22  1  0  0  0  0
 22 24  1  0  0  0  0
 23 22  2  0  0  0  0
 24 28  1  0  0  0  0
 24 25  1  0  0  0  0
 25 26  2  0  0  0  0
 27 26  1  0  0  0  0
 28 27  2  0  0  0  0
M  END
>  <minimizedAffinity>
-4.97852325

>  <minimizedRMSD>
6.60788155

$$$$
