
 OpenBabel03262519433D

 30 32  0  0  1  0  0  0  0  0999 V2000
   38.2430   24.3620   36.8260 C   0  0  1  0  0  0  0  0  0  0  0  0
   37.3870   24.0060   36.1690 H   0  0  0  0  0  0  0  0  0  0  0  0
   41.0400   21.9030   37.4170 C   0  0  0  0  0  0  0  0  0  0  0  0
   40.0040   22.8260   37.6530 C   0  0  0  0  0  0  0  0  0  0  0  0
   39.3310   23.4270   36.5610 C   0  0  0  0  0  0  0  0  0  0  0  0
   39.7100   23.0960   35.3000 N   0  0  0  0  0  0  0  0  0  0  0  0
   40.7230   22.1950   35.1080 C   0  0  0  0  0  0  0  0  0  0  0  0
   41.3790   21.6070   36.1610 N   0  0  0  0  0  0  0  0  0  0  0  0
   41.5050   21.4850   38.2870 H   0  0  0  0  0  0  0  0  0  0  0  0
   39.7350   23.0620   38.6700 H   0  0  0  0  0  0  0  0  0  0  0  0
   41.0650   21.8940   34.1240 H   0  0  0  0  0  0  0  0  0  0  0  0
   37.7110   24.2930   38.2470 C   0  0  0  0  0  0  0  0  0  0  0  0
   37.3160   23.2880   38.4940 H   0  0  0  0  0  0  0  0  0  0  0  0
   36.9460   25.1010   38.3430 H   0  0  0  0  0  0  0  0  0  0  0  0
   38.5750   24.4860   38.9470 H   0  0  0  0  0  0  0  0  0  0  0  0
   38.5900   25.7910   36.5130 C   0  0  0  0  0  0  0  0  0  0  0  0
   39.6130   25.9770   36.8950 H   0  0  0  0  0  0  0  0  0  0  0  0
   37.9410   26.4590   37.1350 H   0  0  0  0  0  0  0  0  0  0  0  0
   38.4650   26.1510   35.0810 C   0  0  0  0  0  0  0  0  0  0  0  0
   37.2180   26.0840   34.5410 N   0  0  0  0  0  0  0  0  0  0  0  0
   36.9280   26.3900   33.2780 C   0  0  0  0  0  3  0  0  0  0  0  0
   37.9260   26.7970   32.4640 N   0  0  0  0  0  0  0  0  0  0  0  0
   39.1810   26.8840   32.9380 C   0  0  0  0  0  0  0  0  0  0  0  0
   40.2000   27.2940   32.1030 C   0  0  0  0  0  3  0  0  0  0  0  0
   41.4930   27.3730   32.6060 C   0  0  0  0  0  0  0  0  0  0  0  0
   42.2120   27.6970   31.8900 H   0  0  0  0  0  0  0  0  0  0  0  0
   41.7530   27.0400   33.9400 C   0  0  0  0  0  0  0  0  0  0  0  0
   42.7850   27.1230   34.2670 H   0  0  0  0  0  0  0  0  0  0  0  0
   40.7330   26.6290   34.7750 C   0  0  0  0  0  3  0  0  0  0  0  0
   39.4770   26.5650   34.2460 C   0  0  0  0  0  0  0  0  0  0  0  0
  1  2  1  6  0  0  0
  1 12  1  0  0  0  0
  3  4  1  0  0  0  0
  3  9  1  0  0  0  0
  4 10  1  0  0  0  0
  5  1  1  0  0  0  0
  5  4  2  0  0  0  0
  6  5  1  0  0  0  0
  7  6  2  0  0  0  0
  7  8  1  0  0  0  0
  8  3  2  0  0  0  0
 11  7  1  0  0  0  0
 12 14  1  0  0  0  0
 12 13  1  0  0  0  0
 12 15  1  0  0  0  0
 16  1  1  0  0  0  0
 16 17  1  0  0  0  0
 16 18  1  0  0  0  0
 19 16  1  0  0  0  0
 20 19  1  0  0  0  0
 21 20  2  0  0  0  0
 22 23  2  0  0  0  0
 22 21  1  0  0  0  0
 23 30  1  0  0  0  0
 24 25  2  0  0  0  0
 24 23  1  0  0  0  0
 25 27  1  0  0  0  0
 26 25  1  0  0  0  0
 27 28  1  0  0  0  0
 27 29  2  0  0  0  0
 30 29  1  0  0  0  0
 30 19  2  0  0  0  0
M  END
>  <minimizedAffinity>
-4.91622686

>  <minimizedRMSD>
1.16686416

$$$$
