
     RDKit          3D

 33 35  0  0  0  0  0  0  0  0999 V2000
   41.0245   21.8763   37.4532 C   0  0  0  0  0  0  0  0  0  0  0  0
   39.9485   22.7267   37.7666 C   0  0  0  0  0  0  0  0  0  0  0  0
   39.1963   23.3252   36.7282 C   0  0  0  0  0  0  0  0  0  0  0  0
   39.5370   23.0618   35.4396 N   0  0  0  0  0  0  0  0  0  0  0  0
   40.5908   22.2290   35.1723 C   0  0  0  0  0  0  0  0  0  0  0  0
   41.3246   21.6437   36.1738 N   0  0  0  0  0  0  0  0  0  0  0  0
   38.0677   24.1854   37.0726 C   0  0  1  0  0  0  0  0  0  0  0  0
   37.9249   24.4339   38.5652 C   0  0  0  0  0  0  0  0  0  0  0  0
   38.0855   25.5110   36.3646 C   0  0  0  0  0  0  0  0  0  0  0  0
   41.5515   21.4564   38.2869 H   0  0  0  0  0  0  0  0  0  0  0  0
   39.7118   22.9108   38.8027 H   0  0  0  0  0  0  0  0  0  0  0  0
   40.9055   21.9843   34.1641 H   0  0  0  0  0  0  0  0  0  0  0  0
   37.1472   23.5876   36.7803 H   0  0  0  0  0  0  0  0  0  0  0  0
   37.7758   23.4942   39.1300 H   0  0  0  0  0  0  0  0  0  0  0  0
   37.0846   25.1599   38.6894 H   0  0  0  0  0  0  0  0  0  0  0  0
   38.8921   24.8870   38.9314 H   0  0  0  0  0  0  0  0  0  0  0  0
   38.9815   26.0634   36.7131 H   0  0  0  0  0  0  0  0  0  0  0  0
   37.2263   26.1243   36.7357 H   0  0  0  0  0  0  0  0  0  0  0  0
   38.0413   25.4153   34.8871 C   0  0  0  0  0  0  0  0  0  0  0  0
   36.8143   25.5140   34.3051 N   0  0  0  0  0  0  0  0  0  0  0  0
   36.5989   25.4680   32.9918 C   0  0  0  0  0  0  0  0  0  0  0  0
   37.6566   25.3135   32.1661 N   0  0  0  0  0  0  0  0  0  0  0  0
   38.8945   25.2094   32.6791 C   0  0  0  0  0  0  0  0  0  0  0  0
   39.9735   25.0457   31.8351 C   0  0  0  0  0  0  0  0  0  0  0  0
   41.2461   24.9334   32.3801 C   0  0  0  0  0  0  0  0  0  0  0  0
   42.0151   24.8100   31.6531 H   0  0  0  0  0  0  0  0  0  0  0  0
   41.4265   24.9860   33.7671 C   0  0  0  0  0  0  0  0  0  0  0  0
   42.4459   24.8917   34.1268 H   0  0  0  0  0  0  0  0  0  0  0  0
   40.3471   25.1501   34.6127 C   0  0  0  0  0  0  0  0  0  0  0  0
   39.1137   25.2572   34.0402 C   0  0  0  0  0  0  0  0  0  0  0  0
   35.5533   25.5611   32.6718 H   0  0  0  0  0  0  0  0  0  0  0  0
   39.7680   25.0129   30.7771 H   0  0  0  0  0  0  0  0  0  0  0  0
   40.4980   25.1815   35.6745 H   0  0  0  0  0  0  0  0  0  0  0  0
  1  2  2  0
  3  7  1  0
  3  2  1  0
  4  3  2  0
  5  4  1  0
  5  6  2  0
  6  1  1  0
  7  8  1  0
  9  7  1  0
  1 10  1  0
  2 11  1  0
  5 12  1  0
  7 13  1  6
  8 14  1  0
  8 15  1  0
  8 16  1  0
  9 17  1  0
  9 18  1  0
 19 20  2  0
 20 21  1  0
 21 22  2  0
 22 23  1  0
 23 24  2  0
 24 25  1  0
 25 26  1  0
 25 27  2  0
 27 28  1  0
 27 29  1  0
 29 30  2  0
 30 19  1  0
 30 23  1  0
 21 31  1  0
 24 32  1  0
 29 33  1  0
  9 19  1  0
M  ISO  8  10  14  11  14  12  14  13   8  14   8  15   8  16   8  17   8
M  ISO  3  18   8  26  16  28  16
M  END
>  <DihAtoms>  (1) 
6,8,18,19

>  <DihDeg>  (1) 
-100.09718499382609

$$$$
