
 OpenBabel03262519213D

 30 34  0  0  0  0  0  0  0  0999 V2000
   37.8710   25.0730   34.4730 C   0  0  0  0  0  0  0  0  0  0  0  0
   38.3360   25.3770   35.7480 C   0  0  0  0  0  0  0  0  0  0  0  0
   38.3260   26.6960   36.1550 C   0  0  0  0  0  0  0  0  0  0  0  0
   37.8660   27.6500   35.3060 N   0  0  0  0  0  0  0  0  0  0  0  0
   37.4140   27.3200   34.0540 C   0  0  0  0  0  0  0  0  0  0  0  0
   37.4180   26.0350   33.6430 N   0  0  0  0  0  0  0  0  0  0  0  0
   38.6720   27.0110   37.1320 H   0  0  0  0  0  0  0  0  0  0  0  0
   37.0690   28.1550   33.4570 H   0  0  0  0  0  0  0  0  0  0  0  0
   37.8430   23.7460   33.9680 N   0  0  0  0  0  0  0  0  0  0  0  0
   37.6610   22.5220   34.5430 C   0  0  0  0  0  0  0  0  0  0  0  0
   37.7330   21.5710   33.5780 N   0  0  0  0  0  0  0  0  0  0  0  0
   37.9600   22.1810   32.3810 C   0  0  0  0  0  0  0  0  0  0  0  0
   38.1050   21.6330   31.1260 C   0  0  0  0  0  0  0  0  0  0  0  0
   38.0510   20.5700   30.9380 H   0  0  0  0  0  0  0  0  0  0  0  0
   38.3230   22.5050   30.1280 N   0  0  0  0  0  0  0  0  0  0  0  0
   38.3990   23.8410   30.3180 C   0  0  0  0  0  0  0  0  0  0  0  0
   38.2480   24.3170   31.5680 N   0  0  0  0  0  0  0  0  0  0  0  0
   38.0260   23.5340   32.6400 C   0  0  0  0  0  0  0  0  0  0  0  0
   38.7990   24.3620   36.5870 N   0  0  0  0  0  0  0  0  0  0  0  0
   38.1790   23.8920   37.6950 C   0  0  0  0  0  0  0  0  0  0  0  0
   38.8760   22.9140   38.2870 N   0  0  0  0  0  0  0  0  0  0  0  0
   39.9860   22.7400   37.5430 C   0  0  0  0  0  0  0  0  0  0  0  0
   41.0720   21.9060   37.6250 C   0  0  0  0  0  0  0  0  0  0  0  0
   42.0910   21.9070   36.7450 N   0  0  0  0  0  0  0  0  0  0  0  0
   41.9910   22.8040   35.7360 C   0  0  0  0  0  0  0  0  0  0  0  0
   40.9420   23.6120   35.6540 N   0  0  0  0  0  0  0  0  0  0  0  0
   39.9220   23.6470   36.4900 C   0  0  0  0  0  0  0  0  0  0  0  0
   37.2160   24.2490   38.0910 H   0  0  0  0  0  0  0  0  0  0  0  0
   41.1080   21.1990   38.4550 H   0  0  0  0  0  0  0  0  0  0  0  0
   42.7890   22.8490   34.9950 H   0  0  0  0  0  0  0  0  0  0  0  0
  1  2  1  0  0  0  0
  2  3  2  0  0  0  0
  2 19  1  0  0  0  0
  3  7  1  0  0  0  0
  4  3  1  0  0  0  0
  5  4  2  0  0  0  0
  6  5  1  0  0  0  0
  6  1  2  0  0  0  0
  8  5  1  0  0  0  0
  9  1  1  0  0  0  0
  9 10  1  0  0  0  0
 11 10  2  0  0  0  0
 12 18  1  0  0  0  0
 12 11  1  0  0  0  0
 13 12  2  0  0  0  0
 14 13  1  0  0  0  0
 15 16  2  0  0  0  0
 15 13  1  0  0  0  0
 16 17  1  0  0  0  0
 17 18  2  0  0  0  0
 18  9  1  0  0  0  0
 19 20  1  0  0  0  0
 20 28  1  0  0  0  0
 20 21  2  0  0  0  0
 22 23  1  0  0  0  0
 22 21  1  0  0  0  0
 23 29  1  0  0  0  0
 24 23  2  0  0  0  0
 25 24  1  0  0  0  0
 26 25  2  0  0  0  0
 26 27  1  0  0  0  0
 27 19  1  0  0  0  0
 27 22  2  0  0  0  0
 30 25  1  0  0  0  0
M  END
>  <minimizedAffinity>
-5.50320196

>  <minimizedRMSD>
0.369738519

$$$$
