
 OpenBabel03262518263D

 29 32  0  0  0  0  0  0  0  0999 V2000
   39.8110   22.5880   38.1520 N   0  0  0  0  0  0  0  0  0  0  0  0
   38.6820   23.2930   38.0210 N   0  0  0  0  0  0  0  0  0  0  0  0
   38.6740   23.8960   36.8070 C   0  0  0  0  0  0  0  0  0  0  0  0
   39.8420   23.5570   36.1450 C   0  0  0  0  0  0  0  0  0  0  0  0
   40.5110   22.7460   37.0240 C   0  0  0  0  0  0  0  0  0  0  0  0
   40.0750   22.0190   39.0060 H   0  0  0  0  0  0  0  0  0  0  0  0
   40.0930   23.9050   35.1500 H   0  0  0  0  0  0  0  0  0  0  0  0
   41.7790   22.1510   36.7690 N   0  0  0  0  0  0  0  0  0  0  0  0
   42.1250   20.8530   36.8000 C   0  0  0  0  0  0  0  0  0  0  0  0
   43.4450   20.7020   36.4930 N   0  0  0  0  0  0  0  0  0  0  0  0
   43.9650   21.8980   36.2600 C   0  0  0  0  0  0  0  0  0  0  0  0
   45.1820   22.4760   35.9120 C   0  0  0  0  0  0  0  0  0  0  0  0
   46.0150   21.7840   35.7710 H   0  0  0  0  0  0  0  0  0  0  0  0
   45.3490   23.8080   35.7530 N   0  0  0  0  0  0  0  0  0  0  0  0
   44.3120   24.6360   35.9320 C   0  0  0  0  0  0  0  0  0  0  0  0
   43.1440   24.0990   36.2640 N   0  0  0  0  0  0  0  0  0  0  0  0
   42.9280   22.7770   36.4330 C   0  0  0  0  0  0  0  0  0  0  0  0
   37.6010   24.7070   36.3960 O   0  0  0  0  0  0  0  0  0  0  0  0
   37.8150   26.0310   36.0140 C   0  0  0  0  0  0  0  0  0  0  0  0
   38.3890   26.8440   36.7520 O   0  0  0  0  0  0  0  0  0  0  0  0
   37.3410   26.4570   34.6960 C   0  0  0  0  0  0  0  0  0  0  0  0
   37.4700   25.5730   33.6210 C   0  0  0  0  0  0  0  0  0  0  0  0
   37.0240   25.9600   32.3580 C   0  0  0  0  0  0  0  0  0  0  0  0
   36.4880   27.1840   32.2550 N   0  0  0  0  0  0  0  0  0  0  0  0
   36.3660   28.0280   33.2840 C   0  0  0  0  0  0  0  0  0  0  0  0
   36.7860   27.6850   34.5160 N   0  0  0  0  0  0  0  0  0  0  0  0
   37.9050   24.5950   33.7400 H   0  0  0  0  0  0  0  0  0  0  0  0
   37.1200   25.2810   31.5190 H   0  0  0  0  0  0  0  0  0  0  0  0
   35.9250   28.9950   33.1250 H   0  0  0  0  0  0  0  0  0  0  0  0
  1  6  1  0  0  0  0
  2  1  1  0  0  0  0
  3  2  2  0  0  0  0
  4  3  1  0  0  0  0
  4  5  2  0  0  0  0
  5  1  1  0  0  0  0
  7  4  1  0  0  0  0
  8  9  1  0  0  0  0
  8  5  1  0  0  0  0
 10  9  2  0  0  0  0
 11 17  1  0  0  0  0
 11 10  1  0  0  0  0
 12 11  2  0  0  0  0
 13 12  1  0  0  0  0
 14 12  1  0  0  0  0
 14 15  2  0  0  0  0
 15 16  1  0  0  0  0
 16 17  2  0  0  0  0
 17  8  1  0  0  0  0
 18  3  1  0  0  0  0
 19 18  1  0  0  0  0
 19 20  2  0  0  0  0
 21 19  1  0  0  0  0
 22 27  1  0  0  0  0
 22 21  2  0  0  0  0
 23 22  1  0  0  0  0
 24 23  2  0  0  0  0
 24 25  1  0  0  0  0
 25 26  2  0  0  0  0
 26 21  1  0  0  0  0
 28 23  1  0  0  0  0
 29 25  1  0  0  0  0
M  END
>  <minimizedAffinity>
-5.23570156

>  <minimizedRMSD>
1.37362373

$$$$
