
     RDKit          3D

 37 40  0  0  0  0  0  0  0  0999 V2000
   38.2259   24.3436   36.8146 C   0  0  1  0  0  0  0  0  0  0  0  0
   41.0379   21.8977   37.4816 C   0  0  0  0  0  0  0  0  0  0  0  0
   39.9901   22.7863   37.7564 C   0  0  0  0  0  0  0  0  0  0  0  0
   39.3385   23.3759   36.6277 C   0  0  0  0  0  0  0  0  0  0  0  0
   39.7657   23.0467   35.3638 N   0  0  0  0  0  0  0  0  0  0  0  0
   40.7642   22.1990   35.1517 C   0  0  0  0  0  0  0  0  0  0  0  0
   41.4104   21.6153   36.2224 N   0  0  0  0  0  0  0  0  0  0  0  0
   37.7661   24.3777   38.2502 C   0  0  0  0  0  0  0  0  0  0  0  0
   38.5796   25.7268   36.3482 C   0  0  0  0  0  0  0  0  0  0  0  0
   37.9212   26.0829   35.1462 N   0  0  0  0  0  0  0  0  0  0  0  0
   37.6647   25.4687   33.9743 C   0  0  0  0  0  0  0  0  0  0  0  0
   36.9631   26.2373   33.0779 C   0  0  0  0  0  0  0  0  0  0  0  0
   36.7753   27.3929   33.7328 N   0  0  0  0  0  0  0  0  0  0  0  0
   37.3444   27.2985   34.9583 C   0  0  0  0  0  0  0  0  0  0  0  0
   37.4168   23.9970   36.1402 H   0  0  0  0  0  0  0  0  0  0  0  0
   41.5050   21.4726   38.3591 H   0  0  0  0  0  0  0  0  0  0  0  0
   39.6675   23.0341   38.7518 H   0  0  0  0  0  0  0  0  0  0  0  0
   41.0978   21.9427   34.1528 H   0  0  0  0  0  0  0  0  0  0  0  0
   38.3997   24.9924   38.8923 H   0  0  0  0  0  0  0  0  0  0  0  0
   36.7045   24.7618   38.2400 H   0  0  0  0  0  0  0  0  0  0  0  0
   37.6541   23.3140   38.5936 H   0  0  0  0  0  0  0  0  0  0  0  0
   38.4109   26.4299   37.1518 H   0  0  0  0  0  0  0  0  0  0  0  0
   39.6860   25.7254   36.1476 H   0  0  0  0  0  0  0  0  0  0  0  0
   37.9876   24.4578   33.7695 H   0  0  0  0  0  0  0  0  0  0  0  0
   36.6614   25.9310   32.0926 H   0  0  0  0  0  0  0  0  0  0  0  0
   37.2981   28.3884   35.8772 N   0  0  0  0  0  0  0  0  0  0  0  0
   37.0228   28.1376   37.1726 C   0  0  0  0  0  0  0  0  0  0  0  0
   37.0312   29.3011   37.8486 N   0  0  0  0  0  0  0  0  0  0  0  0
   37.3105   30.3051   36.9982 C   0  0  0  0  0  0  0  0  0  0  0  0
   37.4658   31.6804   37.0312 C   0  0  0  0  0  0  0  0  0  0  0  0
   37.3352   32.1444   38.0070 H   0  0  0  0  0  0  0  0  0  0  0  0
   37.7591   32.4068   35.9350 N   0  0  0  0  0  0  0  0  0  0  0  0
   37.9030   31.7484   34.7692 C   0  0  0  0  0  0  0  0  0  0  0  0
   37.7692   30.3959   34.6370 N   0  0  0  0  0  0  0  0  0  0  0  0
   37.4766   29.7175   35.7588 C   0  0  0  0  0  0  0  0  0  0  0  0
   36.8040   27.2389   37.7696 H   0  0  0  0  0  0  0  0  0  0  0  0
   38.1379   32.3927   33.9302 H   0  0  0  0  0  0  0  0  0  0  0  0
  1  8  1  0
  2  3  2  0
  4  1  1  0
  4  3  1  0
  5  4  2  0
  6  5  1  0
  6  7  2  0
  7  2  1  0
  9  1  1  0
 10  9  1  0
 11 10  1  0
 12 13  1  0
 12 11  2  0
 13 14  2  0
 14 10  1  0
  1 15  1  6
  2 16  1  0
  3 17  1  0
  6 18  1  0
  8 19  1  0
  8 20  1  0
  8 21  1  0
  9 22  1  0
  9 23  1  0
 11 24  1  0
 12 25  1  0
 26 27  1  0
 27 28  2  0
 28 29  1  0
 29 30  2  0
 30 31  1  0
 30 32  1  0
 32 33  2  0
 33 34  1  0
 34 35  2  0
 35 26  1  0
 35 29  1  0
 27 36  1  0
 33 37  1  0
 14 26  1  0
M  ISO  8  15   8  16  14  17  14  18  14  19   8  20   8  21   8  22   8
M  ISO  4  23   8  24  14  25  14  31  14
M  END
>  <DihAtoms>  (1) 
12,13,25,26

>  <DihDeg>  (1) 
-73.13075884186156

$$$$
