
     RDKit          3D

 37 40  0  0  0  0  0  0  0  0999 V2000
   43.1218   23.3293   36.5400 C   0  0  0  0  0  0  0  0  0  0  0  0
   41.7301   23.1088   36.3991 C   0  0  0  0  0  0  0  0  0  0  0  0
   41.1760   24.0415   35.6237 C   0  0  0  0  0  0  0  0  0  0  0  0
   41.9019   25.0773   35.0483 N   0  0  0  0  0  0  0  0  0  0  0  0
   43.2055   25.2230   35.2227 C   0  0  0  0  0  0  0  0  0  0  0  0
   43.8203   24.3414   35.9750 N   0  0  0  0  0  0  0  0  0  0  0  0
   41.2386   21.9711   37.0850 C   0  0  0  0  0  0  0  0  0  0  0  0
   40.4756   22.3150   38.2287 F   0  0  0  0  0  0  0  0  0  0  0  0
   42.0311   21.1909   37.8414 F   0  0  0  0  0  0  0  0  0  0  0  0
   40.1501   21.2840   36.5413 F   0  0  0  0  0  0  0  0  0  0  0  0
   39.7895   23.9139   35.3761 C   0  0  0  0  0  0  0  0  0  0  0  0
   39.0251   25.0985   35.7167 C   0  0  0  0  0  0  0  0  0  0  0  0
   37.7747   24.6532   36.4904 C   0  0  2  0  0  0  0  0  0  0  0  0
   38.0136   24.3824   37.9295 C   0  0  0  0  0  0  0  0  0  0  0  0
   37.5530   23.3298   36.9552 C   0  0  1  0  0  0  0  0  0  0  0  0
   43.7741   22.6708   37.1432 H   0  0  0  0  0  0  0  0  0  0  0  0
   43.6831   26.0330   34.7533 H   0  0  0  0  0  0  0  0  0  0  0  0
   39.7660   23.9392   34.2206 H   0  0  0  0  0  0  0  0  0  0  0  0
   39.2295   23.0336   35.5400 H   0  0  0  0  0  0  0  0  0  0  0  0
   39.6264   25.7043   36.4581 H   0  0  0  0  0  0  0  0  0  0  0  0
   38.7919   25.8292   34.9186 H   0  0  0  0  0  0  0  0  0  0  0  0
   36.9502   25.3545   36.2939 H   0  0  0  0  0  0  0  0  0  0  0  0
   38.9944   24.5181   38.3165 H   0  0  0  0  0  0  0  0  0  0  0  0
   37.2259   24.7212   38.6689 H   0  0  0  0  0  0  0  0  0  0  0  0
   37.9749   22.4264   37.2058 H   0  0  0  0  0  0  0  0  0  0  0  0
   36.0873   23.0253   36.9948 N   0  0  0  0  0  0  0  0  0  0  0  0
   35.5025   21.8319   37.1844 C   0  0  0  0  0  0  0  0  0  0  0  0
   34.1680   22.0158   37.1457 N   0  0  0  0  0  0  0  0  0  0  0  0
   33.8973   23.3035   36.9351 C   0  0  0  0  0  0  0  0  0  0  0  0
   32.8064   24.1362   36.7928 C   0  0  0  0  0  0  0  0  0  0  0  0
   31.8223   23.6557   36.8641 H   0  0  0  0  0  0  0  0  0  0  0  0
   32.8729   25.4571   36.5789 N   0  0  0  0  0  0  0  0  0  0  0  0
   34.0717   26.0407   36.4923 C   0  0  0  0  0  0  0  0  0  0  0  0
   35.1892   25.2812   36.6229 N   0  0  0  0  0  0  0  0  0  0  0  0
   35.1284   23.9584   36.8371 C   0  0  0  0  0  0  0  0  0  0  0  0
   35.9959   20.9011   37.3385 H   0  0  0  0  0  0  0  0  0  0  0  0
   34.3272   27.0794   36.3256 H   0  0  0  0  0  0  0  0  0  0  0  0
  2  1  2  0
  2  7  1  0
  3  2  1  0
  4  5  1  0
  4  3  2  0
  5  6  2  0
  6  1  1  0
  7  9  1  0
  7  8  1  0
 10  7  1  0
 11  3  1  0
 11 12  1  0
 12 13  1  0
 13 15  1  0
 13 14  1  0
 15 14  1  0
  1 16  1  0
  5 17  1  0
 11 18  1  0
 11 19  1  0
 12 20  1  0
 12 21  1  0
 13 22  1  1
 14 23  1  0
 14 24  1  0
 15 25  1  6
 26 27  1  0
 27 28  2  0
 28 29  1  0
 29 30  2  0
 30 31  1  0
 30 32  1  0
 32 33  2  0
 33 34  1  0
 34 35  2  0
 35 26  1  0
 35 29  1  0
 27 36  1  0
 33 37  1  0
 15 26  1  0
M  ISO  8  16  14  17  14  18   8  19   8  20   8  21   8  22  13  23  13
M  ISO  3  24  13  25  13  31  14
M  END
>  <DihAtoms>  (1) 
12,14,25,26

>  <DihDeg>  (1) 
-85.76928852592127

$$$$
