
 OpenBabel03262519363D

 34 37  0  0  1  0  0  0  0  0999 V2000
   36.5150   21.7020   31.1640 N   0  0  0  0  0  0  0  0  0  0  0  0
   35.4520   21.9930   32.0840 C   0  0  0  0  0  0  0  0  0  0  0  0
   34.7080   20.6910   32.2530 C   0  0  0  0  0  0  0  0  0  0  0  0
   35.4620   19.7040   31.3730 C   0  0  0  0  0  0  0  0  0  0  0  0
   36.8610   20.3480   31.4750 C   0  0  1  0  0  0  0  0  0  0  0  0
   35.9430   22.2030   33.0760 H   0  0  0  0  0  0  0  0  0  0  0  0
   34.8150   22.8400   31.7640 H   0  0  0  0  0  0  0  0  0  0  0  0
   33.6800   20.7400   31.8760 H   0  0  0  0  0  0  0  0  0  0  0  0
   34.6670   20.3470   33.3050 H   0  0  0  0  0  0  0  0  0  0  0  0
   35.1100   19.6890   30.3380 H   0  0  0  0  0  0  0  0  0  0  0  0
   35.4660   18.7240   31.8720 H   0  0  0  0  0  0  0  0  0  0  0  0
   37.1550   20.1830   32.5420 H   0  0  0  0  0  0  0  0  0  0  0  0
   37.7830   19.7220   30.5840 N   0  0  0  0  0  0  0  0  0  0  0  0
   37.6290   19.4510   29.2550 C   0  0  0  0  0  0  0  0  0  0  0  0
   38.6970   18.8490   28.7090 N   0  0  0  0  0  0  0  0  0  0  0  0
   39.5890   18.7120   29.6950 C   0  0  0  0  0  0  0  0  0  0  0  0
   40.8420   18.1680   29.6960 C   0  0  0  0  0  0  0  0  0  0  0  0
   41.3010   17.7450   28.8130 H   0  0  0  0  0  0  0  0  0  0  0  0
   41.5550   18.1540   30.8590 N   0  0  0  0  0  0  0  0  0  0  0  0
   41.0080   18.6740   31.9680 C   0  0  0  0  0  0  0  0  0  0  0  0
   39.7710   19.2030   31.9390 N   0  0  0  0  0  0  0  0  0  0  0  0
   39.0370   19.2390   30.8230 C   0  0  0  0  0  0  0  0  0  0  0  0
   37.7050   22.4840   31.3640 C   0  0  0  0  0  0  0  0  0  0  0  0
   38.5750   21.8190   31.0960 H   0  0  0  0  0  0  0  0  0  0  0  0
   37.7830   23.3400   30.6920 H   0  0  0  0  0  0  0  0  0  0  0  0
   38.0520   24.4170   34.6060 C   0  0  0  0  0  0  0  0  0  0  0  0
   37.8550   24.1440   33.2540 C   0  0  0  0  0  0  0  0  0  0  0  0
   37.9110   22.8280   32.8010 C   0  0  0  0  0  0  0  0  0  0  0  0
   38.1620   21.8540   33.7280 N   0  0  0  0  0  0  0  0  0  0  0  0
   38.3500   22.1350   35.0310 C   0  0  0  0  0  0  0  0  0  0  0  0
   38.2950   23.4120   35.4630 N   0  0  0  0  0  0  0  0  0  0  0  0
   38.0000   25.4580   34.9200 H   0  0  0  0  0  0  0  0  0  0  0  0
   37.6580   24.9440   32.5500 H   0  0  0  0  0  0  0  0  0  0  0  0
   38.5480   21.4250   35.7980 H   0  0  0  0  0  0  0  0  0  0  0  0
  1 23  1  0  0  0  0
  1  5  1  0  0  0  0
  1  2  1  0  0  0  0
  2  3  1  0  0  0  0
  2  6  1  0  0  0  0
  3  9  1  0  0  0  0
  4  5  1  0  0  0  0
  4 11  1  0  0  0  0
  4  3  1  0  0  0  0
  5 12  1  1  0  0  0
  7  2  1  0  0  0  0
  8  3  1  0  0  0  0
 10  4  1  0  0  0  0
 13 22  1  0  0  0  0
 13  5  1  0  0  0  0
 14 13  1  0  0  0  0
 15 14  2  0  0  0  0
 15 16  1  0  0  0  0
 16 17  2  0  0  0  0
 16 22  1  0  0  0  0
 17 19  1  0  0  0  0
 18 17  1  0  0  0  0
 19 20  2  0  0  0  0
 21 20  1  0  0  0  0
 22 21  2  0  0  0  0
 23 28  1  0  0  0  0
 24 23  1  0  0  0  0
 25 23  1  0  0  0  0
 26 32  1  0  0  0  0
 26 31  1  0  0  0  0
 27 26  2  0  0  0  0
 28 27  1  0  0  0  0
 28 29  2  0  0  0  0
 29 30  1  0  0  0  0
 30 31  2  0  0  0  0
 30 34  1  0  0  0  0
 33 27  1  0  0  0  0
M  END
>  <minimizedAffinity>
-3.35563684

>  <minimizedRMSD>
8.23276711

$$$$
