REMARK  Name = 
REMARK  6 active torsions:
REMARK  status: ('A' for Active; 'I' for Inactive)
REMARK    1  A    between atoms: C_1  and  C_4
REMARK    2  A    between atoms: C_1  and  C_8
REMARK    3  A    between atoms: C_1  and  C_9
REMARK    4  A    between atoms: C_9  and  N_10
REMARK    5  A    between atoms: C_14  and  C_15
REMARK    6  A    between atoms: C_17  and  N_33
REMARK                            x       y       z     vdW  Elec       q    Type
REMARK                         _______ _______ _______ _____ _____    ______ ____
ROOT
ATOM      1  N   UNL     1      37.581  25.433  33.072  0.00  0.00    +0.000 N 
ATOM      2  C   UNL     1      37.052  24.327  32.548  0.00  0.00    +0.000 A 
ATOM      3  C   UNL     1      36.052  24.563  31.636  0.00  0.00    +0.000 A 
ATOM      4  N   UNL     1      35.956  25.893  31.592  0.00  0.00    +0.000 NA
ATOM      5  C   UNL     1      36.871  26.416  32.450  0.00  0.00    +0.000 A 
ATOM      6  H   UNL     1      37.414  23.330  32.847  0.00  0.00    +0.000 HD
ATOM      7  H   UNL     1      35.526  23.761  31.124  0.00  0.00    +0.000 HD
ENDROOT
BRANCH   5   8
ATOM      8  C   UNL     1      36.992  27.913  32.571  0.00  0.00    +0.000 C 
ATOM      9  C   UNL     1      35.871  28.739  32.076  0.00  0.00    +0.000 C 
ATOM     10  C   UNL     1      36.052  28.584  33.564  0.00  0.00    +0.000 C 
ATOM     11  H   UNL     1      38.006  28.293  32.487  0.00  0.00    +0.000 HD
ATOM     12  H   UNL     1      34.950  28.208  31.696  0.00  0.00    +0.000 HD
ATOM     13  H   UNL     1      36.012  29.728  31.631  0.00  0.00    +0.000 HD
ATOM     14  H   UNL     1      35.453  27.882  34.147  0.00  0.00    +0.000 HD
BRANCH  10  15
ATOM     15  N   UNL     1      36.638  29.742  34.212  0.00  0.00    +0.000 N 
ATOM     16  C   UNL     1      37.633  29.895  35.105  0.00  0.00    +0.000 A 
ATOM     17  N   UNL     1      37.806  31.190  35.406  0.00  0.00    +0.000 NA
ATOM     18  C   UNL     1      36.918  31.902  34.706  0.00  0.00    +0.000 A 
ATOM     19  C   UNL     1      36.723  33.255  34.689  0.00  0.00    +0.000 A 
ATOM     20  H   UNL     1      37.339  33.919  35.308  0.00  0.00    +0.000 HD
ATOM     21  N   UNL     1      35.736  33.718  33.874  0.00  0.00    +0.000 NA
ATOM     22  C   UNL     1      35.017  32.843  33.142  0.00  0.00    +0.000 A 
ATOM     23  N   UNL     1      35.226  31.517  33.174  0.00  0.00    +0.000 NA
ATOM     24  C   UNL     1      36.188  30.997  33.961  0.00  0.00    +0.000 A 
ENDBRANCH  10  15
ENDBRANCH   5   8
BRANCH   1  25
ATOM     25  C   UNL     1      38.587  25.717  34.026  0.00  0.00    +0.000 C 
ATOM     26  H   UNL     1      39.115  26.680  33.775  0.00  0.00    +0.000 HD
ATOM     27  H   UNL     1      39.405  24.947  33.976  0.00  0.00    +0.000 HD
BRANCH  25  28
ATOM     28  C   UNL     1      38.080  25.763  35.419  0.00  0.00    +0.000 C 
ATOM     29  H   UNL     1      36.964  25.667  35.418  0.00  0.00    +0.000 HD
BRANCH  28  32
ATOM     30  C   UNL     1      38.643  23.372  38.300  0.00  0.00    +0.000 A 
ATOM     31  C   UNL     1      38.034  24.408  37.566  0.00  0.00    +0.000 A 
ATOM     32  C   UNL     1      38.643  24.701  36.291  0.00  0.00    +0.000 A 
ATOM     33  N   UNL     1      39.749  23.988  35.858  0.00  0.00    +0.000 NA
ATOM     34  C   UNL     1      40.262  23.021  36.620  0.00  0.00    +0.000 A 
ATOM     35  N   UNL     1      39.710  22.707  37.849  0.00  0.00    +0.000 NA
ATOM     36  H   UNL     1      38.143  23.203  39.238  0.00  0.00    +0.000 HD
ATOM     37  H   UNL     1      37.187  24.982  37.855  0.00  0.00    +0.000 HD
ATOM     38  H   UNL     1      41.124  22.454  36.297  0.00  0.00    +0.000 HD
ENDBRANCH  28  32
BRANCH  28  39
ATOM     39  C   UNL     1      38.338  27.137  36.030  0.00  0.00    +0.000 C 
ATOM     40  H   UNL     1      38.584  26.960  37.097  0.00  0.00    +0.000 HD
ATOM     41  H   UNL     1      37.440  27.780  36.038  0.00  0.00    +0.000 HD
ATOM     42  H   UNL     1      39.203  27.580  35.523  0.00  0.00    +0.000 HD
ENDBRANCH  28  39
ENDBRANCH  25  28
ENDBRANCH   1  25
TORSDOF 6
