
 OpenBabel03262515473D

 38 41  0  0  1  0  0  0  0  0999 V2000
   38.7810   24.9150   34.4060 N   0  0  0  0  0  0  0  0  0  0  0  0
   39.7190   25.8650   33.8520 C   0  0  1  0  0  0  0  0  0  0  0  0
   39.0550   27.2400   33.7390 C   0  0  0  0  0  0  0  0  0  0  0  0
   37.6870   27.1080   33.9240 O   0  0  0  0  0  0  0  0  0  0  0  0
   37.1950   26.1400   33.0460 C   0  0  0  0  0  0  0  0  0  0  0  0
   37.6210   24.7800   33.5750 C   0  0  0  0  0  0  0  0  0  0  0  0
   40.0530   25.5150   32.8650 H   0  0  0  0  0  0  0  0  0  0  0  0
   39.2090   27.5940   32.6910 H   0  0  0  0  0  0  0  0  0  0  0  0
   39.4350   27.9790   34.4370 H   0  0  0  0  0  0  0  0  0  0  0  0
   36.0980   26.2190   32.9150 H   0  0  0  0  0  0  0  0  0  0  0  0
   37.7130   26.2900   32.0780 H   0  0  0  0  0  0  0  0  0  0  0  0
   37.8540   24.1170   32.7370 H   0  0  0  0  0  0  0  0  0  0  0  0
   36.7790   24.3570   34.1980 H   0  0  0  0  0  0  0  0  0  0  0  0
   38.5890   23.6050   37.9140 C   0  0  0  0  0  0  0  0  0  0  0  0
   38.2640   24.3680   36.7850 C   0  0  0  0  0  0  0  0  0  0  0  0
   38.9890   24.2240   35.6060 C   0  0  0  0  0  0  0  0  0  0  0  0
   39.9780   23.3280   35.6540 N   0  0  0  0  0  0  0  0  0  0  0  0
   40.3150   22.5930   36.6930 C   0  0  0  0  0  0  0  0  0  0  0  0
   39.6050   22.7360   37.8470 N   0  0  0  0  0  0  0  0  0  0  0  0
   37.9810   23.7670   38.8080 H   0  0  0  0  0  0  0  0  0  0  0  0
   37.4600   25.0870   36.7670 H   0  0  0  0  0  0  0  0  0  0  0  0
   41.3840   21.6510   36.6850 N   0  0  0  0  0  0  0  0  0  0  0  0
   41.8930   21.0220   37.7620 C   0  0  0  0  0  0  0  0  0  0  0  0
   42.8800   20.2290   37.3000 N   0  0  0  0  0  0  0  0  0  0  0  0
   42.9860   20.3580   35.9640 C   0  0  0  0  0  0  0  0  0  0  0  0
   43.8580   19.7390   35.0640 C   0  0  0  0  0  0  0  0  0  0  0  0
   44.5960   19.0300   35.4140 H   0  0  0  0  0  0  0  0  0  0  0  0
   43.7270   20.0730   33.7640 N   0  0  0  0  0  0  0  0  0  0  0  0
   42.8000   20.9600   33.3490 C   0  0  0  0  0  0  0  0  0  0  0  0
   41.9690   21.5440   34.2380 N   0  0  0  0  0  0  0  0  0  0  0  0
   42.0170   21.2820   35.5560 C   0  0  0  0  0  0  0  0  0  0  0  0
   40.7690   26.0620   34.8180 N   0  0  0  0  0  0  0  0  0  0  0  0
   42.1110   25.8080   34.4170 C   0  0  0  0  0  0  0  0  0  0  0  0
   42.2770   25.6940   33.1270 N   0  0  0  0  0  0  0  0  0  0  0  0
   43.1290   25.6790   35.1750 O   0  0  0  0  0  0  0  0  0  0  0  0
   40.3400   26.3610   35.6060 H   0  0  0  0  0  0  0  0  0  0  0  0
   42.0830   24.6640   32.9450 H   0  0  0  0  0  0  0  0  0  0  0  0
   42.5430   26.5590   32.5680 H   0  0  0  0  0  0  0  0  0  0  0  0
  1 16  1  0  0  0  0
  2  7  1  6  0  0  0
  2  1  1  0  0  0  0
  2 32  1  0  0  0  0
  3  2  1  0  0  0  0
  3  4  1  0  0  0  0
  3  9  1  0  0  0  0
  5  6  1  0  0  0  0
  5  4  1  0  0  0  0
  6 13  1  0  0  0  0
  6  1  1  0  0  0  0
  8  3  1  0  0  0  0
 10  5  1  0  0  0  0
 11  5  1  0  0  0  0
 12  6  1  0  0  0  0
 14 20  1  0  0  0  0
 15 14  2  0  0  0  0
 16 17  2  0  0  0  0
 16 15  1  0  0  0  0
 17 18  1  0  0  0  0
 18 19  2  0  0  0  0
 19 14  1  0  0  0  0
 21 15  1  0  0  0  0
 22 18  1  0  0  0  0
 22 23  1  0  0  0  0
 24 23  2  0  0  0  0
 25 24  1  0  0  0  0
 26 27  1  0  0  0  0
 26 25  2  0  0  0  0
 28 26  1  0  0  0  0
 29 28  2  0  0  0  0
 29 30  1  0  0  0  0
 30 31  2  0  0  0  0
 31 25  1  0  0  0  0
 31 22  1  0  0  0  0
 32 36  1  0  0  0  0
 33 32  1  0  0  0  0
 33 35  2  0  0  0  0
 34 33  1  0  0  0  0
 37 34  1  0  0  0  0
 38 34  1  0  0  0  0
M  END
>  <minimizedAffinity>
-4.72171593

>  <minimizedRMSD>
0.988720775

$$$$
