REMARK  Name = 
REMARK  3 active torsions:
REMARK  status: ('A' for Active; 'I' for Inactive)
REMARK    1  A    between atoms: C_1  and  C_6
REMARK    2  A    between atoms: N_5  and  C_12
REMARK    3  A    between atoms: C_14  and  N_24
REMARK                            x       y       z     vdW  Elec       q    Type
REMARK                         _______ _______ _______ _____ _____    ______ ____
ROOT
ATOM      1  C   UNL     1      37.002  21.177  34.392  0.00  0.00    +0.000 C 
ATOM      2  C   UNL     1      35.844  20.963  35.257  0.00  0.00    +0.000 C 
ATOM      3  C   UNL     1      35.673  20.765  33.777  0.00  0.00    +0.000 C 
ATOM      4  H   UNL     1      37.820  20.421  34.409  0.00  0.00    +0.000 HD
ATOM      5  H   UNL     1      35.370  21.836  35.726  0.00  0.00    +0.000 HD
ATOM      6  H   UNL     1      35.787  20.050  35.859  0.00  0.00    +0.000 HD
ATOM      7  H   UNL     1      35.046  21.503  33.272  0.00  0.00    +0.000 HD
ENDROOT
BRANCH   3   8
ATOM      8  N   UNL     1      35.654  19.433  33.221  0.00  0.00    +0.000 N 
ATOM      9  C   UNL     1      34.635  18.781  32.636  0.00  0.00    +0.000 A 
ATOM     10  N   UNL     1      35.071  17.544  32.260  0.00  0.00    +0.000 NA
ATOM     11  C   UNL     1      36.365  17.403  32.602  0.00  0.00    +0.000 A 
ATOM     12  C   UNL     1      37.352  16.442  32.510  0.00  0.00    +0.000 A 
ATOM     13  H   UNL     1      37.092  15.503  32.042  0.00  0.00    +0.000 HD
ATOM     14  N   UNL     1      38.594  16.669  32.988  0.00  0.00    +0.000 NA
ATOM     15  C   UNL     1      38.930  17.837  33.574  0.00  0.00    +0.000 A 
ATOM     16  N   UNL     1      37.966  18.769  33.661  0.00  0.00    +0.000 NA
ATOM     17  C   UNL     1      36.722  18.601  33.207  0.00  0.00    +0.000 A 
ENDBRANCH   3   8
BRANCH   1  22
ATOM     18  C   UNL     1      38.035  23.473  34.614  0.00  0.00    +0.000 A 
ATOM     19  C   UNL     1      38.265  24.570  33.792  0.00  0.00    +0.000 A 
ATOM     20  N   UNL     1      37.757  24.177  32.587  0.00  0.00    +0.000 NA
ATOM     21  C   UNL     1      37.280  22.958  32.719  0.00  0.00    +0.000 A 
ATOM     22  N   UNL     1      37.429  22.479  33.959  0.00  0.00    +0.000 N 
ATOM     23  H   UNL     1      38.744  25.503  34.092  0.00  0.00    +0.000 HD
ATOM     24  H   UNL     1      36.846  22.533  31.823  0.00  0.00    +0.000 HD
BRANCH  18  25
ATOM     25  C   UNL     1      38.405  23.395  36.034  0.00  0.00    +0.000 A 
ATOM     26  C   UNL     1      39.599  22.798  36.424  0.00  0.00    +0.000 A 
ATOM     27  C   UNL     1      39.893  22.756  37.799  0.00  0.00    +0.000 A 
ATOM     28  N   UNL     1      39.004  23.296  38.660  0.00  0.00    +0.000 NA
ATOM     29  C   UNL     1      37.855  23.869  38.253  0.00  0.00    +0.000 A 
ATOM     30  N   UNL     1      37.537  23.928  36.938  0.00  0.00    +0.000 NA
ATOM     31  H   UNL     1      40.274  22.381  35.691  0.00  0.00    +0.000 HD
ATOM     32  H   UNL     1      40.815  22.297  38.128  0.00  0.00    +0.000 HD
ATOM     33  H   UNL     1      37.118  24.312  38.911  0.00  0.00    +0.000 HD
ENDBRANCH  18  25
ENDBRANCH   1  22
TORSDOF 3
