
 OpenBabel03262516283D

 32 35  0  0  0  0  0  0  0  0999 V2000
   38.0710   22.5390   34.7510 C   0  0  0  0  0  0  0  0  0  0  0  0
   39.4140   22.9280   34.6370 C   0  0  0  0  0  0  0  0  0  0  0  0
   40.0680   23.3770   35.7610 C   0  0  0  0  0  0  0  0  0  0  0  0
   39.4000   23.4280   36.9350 N   0  0  0  0  0  0  0  0  0  0  0  0
   38.1010   23.0470   37.0240 C   0  0  0  0  0  0  0  0  0  0  0  0
   37.4270   22.6000   35.9380 N   0  0  0  0  0  0  0  0  0  0  0  0
   39.8780   22.8610   33.6770 H   0  0  0  0  0  0  0  0  0  0  0  0
   37.5660   23.0890   37.9690 H   0  0  0  0  0  0  0  0  0  0  0  0
   41.4300   23.7830   35.6940 N   0  0  0  0  0  0  0  0  0  0  0  0
   42.4610   23.0960   36.2240 C   0  0  0  0  0  0  0  0  0  0  0  0
   43.6400   23.7380   35.9970 N   0  0  0  0  0  0  0  0  0  0  0  0
   43.3100   24.8450   35.3100 C   0  0  0  0  0  0  0  0  0  0  0  0
   44.0010   25.9130   34.7730 C   0  0  0  0  0  0  0  0  0  0  0  0
   45.0790   25.9380   34.8940 H   0  0  0  0  0  0  0  0  0  0  0  0
   43.4280   26.9300   34.1080 N   0  0  0  0  0  0  0  0  0  0  0  0
   42.0780   26.9300   33.9390 C   0  0  0  0  0  0  0  0  0  0  0  0
   41.3620   25.9100   34.4440 N   0  0  0  0  0  0  0  0  0  0  0  0
   41.9280   24.8890   35.1120 C   0  0  0  0  0  0  0  0  0  0  0  0
   37.2740   22.0430   33.6270 C   0  0  0  0  0  0  0  0  0  0  0  0
   36.3890   20.9790   33.8010 C   0  0  0  0  0  0  0  0  0  0  0  0
   35.7750   20.7140   32.6130 C   0  0  0  0  0  0  0  0  0  0  0  0
   36.3150   21.6370   31.7500 C   0  0  0  0  0  0  0  0  0  0  0  0
   37.2050   22.4110   32.3970 O   0  0  0  0  0  0  0  0  0  0  0  0
   36.1940   20.4230   34.7260 H   0  0  0  0  0  0  0  0  0  0  0  0
   36.0510   21.7250   30.6860 H   0  0  0  0  0  0  0  0  0  0  0  0
   34.7560   19.6880   32.2600 C   0  0  0  0  0  0  0  0  0  0  0  0
   34.4860   19.7880   31.2010 H   0  0  0  0  0  0  0  0  0  0  0  0
   33.8600   19.8570   32.9010 H   0  0  0  0  0  0  0  0  0  0  0  0
   35.2360   18.2710   32.6080 C   0  0  0  0  0  0  0  0  0  0  0  0
   35.0030   18.0490   33.6780 H   0  0  0  0  0  0  0  0  0  0  0  0
   34.8490   17.5090   31.9290 H   0  0  0  0  0  0  0  0  0  0  0  0
   36.3500   18.2780   32.5020 H   0  0  0  0  0  0  0  0  0  0  0  0
  1  6  1  0  0  0  0
  2  1  2  0  0  0  0
  2  3  1  0  0  0  0
  3  4  2  0  0  0  0
  4  5  1  0  0  0  0
  5  8  1  0  0  0  0
  6  5  2  0  0  0  0
  7  2  1  0  0  0  0
  9  3  1  0  0  0  0
  9 10  1  0  0  0  0
 11 10  2  0  0  0  0
 12 11  1  0  0  0  0
 13 14  1  0  0  0  0
 13 12  2  0  0  0  0
 15 13  1  0  0  0  0
 16 15  2  0  0  0  0
 16 17  1  0  0  0  0
 17 18  2  0  0  0  0
 18 12  1  0  0  0  0
 18  9  1  0  0  0  0
 19 20  2  0  0  0  0
 19  1  1  0  0  0  0
 20 24  1  0  0  0  0
 21 20  1  0  0  0  0
 22 23  1  0  0  0  0
 22 21  2  0  0  0  0
 23 19  1  0  0  0  0
 25 22  1  0  0  0  0
 26 29  1  0  0  0  0
 26 21  1  0  0  0  0
 26 28  1  0  0  0  0
 27 26  1  0  0  0  0
 29 30  1  0  0  0  0
 31 29  1  0  0  0  0
 32 29  1  0  0  0  0
M  END
>  <minimizedAffinity>
-5.14844894

>  <minimizedRMSD>
2.45641851

$$$$
