
 OpenBabel03262515383D

 36 39  0  0  0  0  0  0  0  0999 V2000
   38.3910   26.7000   35.7480 C   0  0  0  0  0  0  0  0  0  0  0  0
   37.7760   26.2870   36.5810 H   0  0  0  0  0  0  0  0  0  0  0  0
   39.0000   27.5320   36.1840 H   0  0  0  0  0  0  0  0  0  0  0  0
   35.9570   28.7910   33.8350 C   0  0  0  0  0  0  0  0  0  0  0  0
   36.1460   28.3010   32.5460 C   0  0  0  0  0  0  0  0  0  0  0  0
   37.0900   27.2750   32.3400 C   0  0  0  0  0  0  0  0  0  0  0  0
   37.7810   26.8040   33.4170 N   0  0  0  0  0  0  0  0  0  0  0  0
   37.5650   27.3120   34.6700 C   0  0  0  0  0  0  0  0  0  0  0  0
   36.6660   28.2940   34.8850 N   0  0  0  0  0  0  0  0  0  0  0  0
   35.2560   29.5660   34.0510 H   0  0  0  0  0  0  0  0  0  0  0  0
   35.5510   28.7380   31.7550 H   0  0  0  0  0  0  0  0  0  0  0  0
   37.2900   26.7610   30.9860 C   0  0  0  0  0  0  0  0  0  0  0  0
   38.0660   25.9530   30.9900 H   0  0  0  0  0  0  0  0  0  0  0  0
   36.3390   26.3040   30.6120 H   0  0  0  0  0  0  0  0  0  0  0  0
   37.7260   27.7770   30.0180 C   0  0  0  0  0  0  0  0  0  0  0  0
   38.9170   28.4810   30.0660 C   0  0  0  0  0  0  0  0  0  0  0  0
   39.0120   29.3290   29.0440 N   0  0  0  0  0  0  0  0  0  0  0  0
   37.8750   29.1640   28.3390 C   0  0  0  0  0  0  0  0  0  0  0  0
   37.0870   28.2250   28.9210 N   0  0  0  0  0  0  0  0  0  0  0  0
   36.1520   27.9050   28.5800 H   0  0  0  0  0  0  0  0  0  0  0  0
   39.3070   25.6620   35.1740 C   0  0  0  0  0  0  0  0  0  0  0  0
   40.3210   25.6500   35.6590 H   0  0  0  0  0  0  0  0  0  0  0  0
   39.4370   25.8340   34.0810 H   0  0  0  0  0  0  0  0  0  0  0  0
   38.6900   24.2980   35.2680 C   0  0  0  0  0  0  0  0  0  0  0  0
   38.7130   23.5200   36.3760 N   0  0  0  0  0  0  0  0  0  0  0  0
   38.0900   22.4040   36.1190 O   0  0  0  0  0  0  0  0  0  0  0  0
   37.6540   22.4010   34.8970 C   0  0  0  0  0  0  0  0  0  0  0  0
   38.0140   23.5720   34.3410 N   0  0  0  0  0  0  0  0  0  0  0  0
   36.9090   21.4030   34.1380 C   0  0  0  0  0  0  0  0  0  0  0  0
   35.7650   20.6960   34.4310 C   0  0  0  0  0  0  0  0  0  0  0  0
   35.4880   19.8650   33.3380 C   0  0  0  0  0  0  0  0  0  0  0  0
   36.5050   20.1300   32.4350 C   0  0  0  0  0  0  0  0  0  0  0  0
   37.3080   21.0240   32.9330 O   0  0  0  0  0  0  0  0  0  0  0  0
   35.2200   20.8070   35.3610 H   0  0  0  0  0  0  0  0  0  0  0  0
   34.6540   19.1860   33.2640 H   0  0  0  0  0  0  0  0  0  0  0  0
   36.6170   19.6690   31.4720 H   0  0  0  0  0  0  0  0  0  0  0  0
  1  3  1  0  0  0  0
  1  2  1  0  0  0  0
  4 10  1  0  0  0  0
  4  9  1  0  0  0  0
  5  4  2  0  0  0  0
  6  5  1  0  0  0  0
  6  7  2  0  0  0  0
  7  8  1  0  0  0  0
  8  9  2  0  0  0  0
  8  1  1  0  0  0  0
 11  5  1  0  0  0  0
 12 13  1  0  0  0  0
 12  6  1  0  0  0  0
 14 12  1  0  0  0  0
 15 16  2  0  0  0  0
 15 12  1  0  0  0  0
 17 16  1  0  0  0  0
 18 19  1  0  0  0  0
 18 17  2  0  0  0  0
 19 15  1  0  0  0  0
 20 19  1  0  0  0  0
 21 24  1  0  0  0  0
 21 22  1  0  0  0  0
 21  1  1  0  0  0  0
 23 21  1  0  0  0  0
 24 25  2  0  0  0  0
 26 25  1  0  0  0  0
 27 26  1  0  0  0  0
 28 27  2  0  0  0  0
 28 24  1  0  0  0  0
 29 30  2  0  0  0  0
 29 27  1  0  0  0  0
 30 34  1  0  0  0  0
 31 30  1  0  0  0  0
 32 33  1  0  0  0  0
 32 31  2  0  0  0  0
 33 29  1  0  0  0  0
 35 31  1  0  0  0  0
 36 32  1  0  0  0  0
M  END
>  <minimizedAffinity>
-5.1914916

>  <minimizedRMSD>
8.43436623

$$$$
