
 OpenBabel03262518463D

 42 46  0  0  1  0  0  0  0  0999 V2000
   40.4170   26.8210   32.6230 C   0  0  0  0  0  0  0  0  0  0  0  0
   39.9770   27.3470   33.7700 N   0  0  0  0  0  0  0  0  0  0  0  0
   40.3150   26.5910   34.7570 O   0  0  0  0  0  0  0  0  0  0  0  0
   40.9900   25.5490   34.2320 C   0  0  0  0  0  0  0  0  0  0  0  0
   41.0780   25.6500   32.9050 N   0  0  0  0  0  0  0  0  0  0  0  0
   36.8740   24.1240   31.0310 C   0  0  0  0  0  0  0  0  0  0  0  0
   35.7070   24.8280   31.4140 C   0  0  0  0  0  0  0  0  0  0  0  0
   35.7550   26.2040   31.4970 C   0  0  0  0  0  0  0  0  0  0  0  0
   36.9450   26.8140   31.2010 N   0  0  0  0  0  0  0  0  0  0  0  0
   38.0380   26.0970   30.8380 C   0  0  0  0  0  0  0  0  0  0  0  0
   38.0180   24.7740   30.7500 N   0  0  0  0  0  0  0  0  0  0  0  0
   39.2110   26.8620   30.5590 N   0  0  0  0  0  0  0  0  0  0  0  0
   39.2700   27.3250   29.3380 N   0  0  0  0  0  0  0  0  0  0  0  0
   40.4180   28.0290   29.1890 C   0  0  0  0  0  0  0  0  0  0  0  0
   41.0930   27.9980   30.3680 C   0  0  0  0  0  0  0  0  0  0  0  0
   40.3140   27.2510   31.2320 C   0  0  0  0  0  0  0  0  0  0  0  0
   36.8360   22.6930   30.9400 N   0  0  0  0  0  0  0  0  0  0  0  0
   34.7940   24.3220   31.6370 H   0  0  0  0  0  0  0  0  0  0  0  0
   34.9400   26.8330   31.7740 H   0  0  0  0  0  0  0  0  0  0  0  0
   40.7860   28.5470   28.3110 H   0  0  0  0  0  0  0  0  0  0  0  0
   42.0190   28.4010   30.7200 H   0  0  0  0  0  0  0  0  0  0  0  0
   37.1880   22.0670   30.1820 H   0  0  0  0  0  0  0  0  0  0  0  0
   36.3760   22.2800   31.7940 H   0  0  0  0  0  0  0  0  0  0  0  0
   41.5590   24.4330   35.0300 C   0  0  2  0  0  0  0  0  0  0  0  0
   42.5070   23.4660   34.3610 C   0  0  0  0  0  0  0  0  0  0  0  0
   41.1170   23.0390   34.8220 C   0  0  1  0  0  0  0  0  0  0  0  0
   41.8940   24.7580   36.0240 H   0  0  0  0  0  0  0  0  0  0  0  0
   43.3930   23.1290   34.8960 H   0  0  0  0  0  0  0  0  0  0  0  0
   42.6860   23.7040   33.2950 H   0  0  0  0  0  0  0  0  0  0  0  0
   40.4460   22.8070   33.9460 H   0  0  0  0  0  0  0  0  0  0  0  0
   41.1260   22.0420   35.9210 C   0  0  0  0  0  0  0  0  0  0  0  0
   40.3080   21.2960   35.7620 H   0  0  0  0  0  0  0  0  0  0  0  0
   42.0570   21.4030   35.9260 H   0  0  0  0  0  0  0  0  0  0  0  0
   41.0210   22.6220   37.2880 C   0  0  0  0  0  0  0  0  0  0  0  0
   41.5230   22.0190   38.0640 H   0  0  0  0  0  0  0  0  0  0  0  0
   41.4740   23.6580   37.2560 H   0  0  0  0  0  0  0  0  0  0  0  0
   39.6020   22.8260   37.6580 C   0  0  0  0  0  0  0  0  0  0  0  0
   38.6340   22.8850   36.6690 C   0  0  0  0  0  0  0  0  0  0  0  0
   37.4130   23.0880   37.2450 N   0  0  0  0  0  0  0  0  0  0  0  0
   37.6040   23.1560   38.5800 C   0  0  0  0  0  0  0  0  0  0  0  0
   38.9180   22.9970   38.8020 N   0  0  0  0  0  0  0  0  0  0  0  0
   39.4230   22.9870   39.7000 H   0  0  0  0  0  0  0  0  0  0  0  0
  1  5  1  0  0  0  0
  1  2  2  0  0  0  0
  2  3  1  0  0  0  0
  4  3  1  0  0  0  0
  4 24  1  0  0  0  0
  5  4  2  0  0  0  0
  6  7  1  0  0  0  0
  7  8  2  0  0  0  0
  7 18  1  0  0  0  0
  8 19  1  0  0  0  0
  9  8  1  0  0  0  0
 10  9  2  0  0  0  0
 11 10  1  0  0  0  0
 11  6  2  0  0  0  0
 12 10  1  0  0  0  0
 12 16  1  0  0  0  0
 13 12  1  0  0  0  0
 14 13  2  0  0  0  0
 14 15  1  0  0  0  0
 15 21  1  0  0  0  0
 15 16  2  0  0  0  0
 16  1  1  0  0  0  0
 17  6  1  0  0  0  0
 17 23  1  0  0  0  0
 20 14  1  0  0  0  0
 22 17  1  0  0  0  0
 24 27  1  1  0  0  0
 25 26  1  0  0  0  0
 25 28  1  0  0  0  0
 25 24  1  0  0  0  0
 26 30  1  6  0  0  0
 26 24  1  0  0  0  0
 26 31  1  0  0  0  0
 29 25  1  0  0  0  0
 31 33  1  0  0  0  0
 31 34  1  0  0  0  0
 32 31  1  0  0  0  0
 34 37  1  0  0  0  0
 34 35  1  0  0  0  0
 36 34  1  0  0  0  0
 37 41  1  0  0  0  0
 38 39  1  0  0  0  0
 38 37  2  0  0  0  0
 39 40  2  0  0  0  0
 40 41  1  0  0  0  0
 41 42  1  0  0  0  0
M  END
>  <minimizedAffinity>
-5.43440294

>  <minimizedRMSD>
2.53677988

$$$$
