
 OpenBabel03262514503D

 32 34  0  0  1  0  0  0  0  0999 V2000
   38.5540   22.5250   33.7120 C   0  0  0  0  0  0  0  0  0  0  0  0
   39.6190   22.8800   33.8610 H   0  0  0  0  0  0  0  0  0  0  0  0
   38.6600   21.6600   33.0300 H   0  0  0  0  0  0  0  0  0  0  0  0
   37.7440   23.5320   33.0690 C   0  0  0  0  0  0  0  0  0  0  0  0
   36.9030   23.4090   31.9800 C   0  0  0  0  0  0  0  0  0  0  0  0
   36.2090   24.5420   31.5140 C   0  0  0  0  0  0  0  0  0  0  0  0
   36.4010   25.7260   32.1660 N   0  0  0  0  0  0  0  0  0  0  0  0
   37.2160   25.8160   33.2100 C   0  0  0  0  0  0  0  0  0  0  0  0
   37.8640   24.7520   33.6440 N   0  0  0  0  0  0  0  0  0  0  0  0
   35.5580   24.4310   30.6670 H   0  0  0  0  0  0  0  0  0  0  0  0
   37.2690   26.8150   33.6230 H   0  0  0  0  0  0  0  0  0  0  0  0
   36.7900   22.1350   31.3800 N   0  0  0  0  0  0  0  0  0  0  0  0
   35.8050   21.2180   31.2610 C   0  0  0  0  0  0  0  0  0  0  0  0
   36.2340   20.1490   30.5760 N   0  0  0  0  0  0  0  0  0  0  0  0
   37.5390   20.4050   30.2520 C   0  0  0  0  0  0  0  0  0  0  0  0
   37.8220   21.6180   30.7620 N   0  0  0  0  0  0  0  0  0  0  0  0
   34.8340   21.4600   31.7200 H   0  0  0  0  0  0  0  0  0  0  0  0
   38.1780   19.7360   29.6940 H   0  0  0  0  0  0  0  0  0  0  0  0
   37.9450   22.0250   35.0120 C   0  0  1  0  0  0  0  0  0  0  0  0
   38.4840   20.9600   34.9280 H   0  0  0  0  0  0  0  0  0  0  0  0
   38.2890   22.5830   36.2440 C   0  0  0  0  0  0  0  0  0  0  0  0
   37.6150   23.5780   36.9660 C   0  0  0  0  0  0  0  0  0  0  0  0
   38.2540   23.8740   38.1130 N   0  0  0  0  0  0  0  0  0  0  0  0
   39.3270   23.0960   38.1560 C   0  0  0  0  0  0  0  0  0  0  0  0
   39.3410   22.3370   37.0500 N   0  0  0  0  0  0  0  0  0  0  0  0
   40.1290   21.6650   36.9210 H   0  0  0  0  0  0  0  0  0  0  0  0
   36.5850   21.8470   34.8600 O   0  0  0  0  0  0  0  0  0  0  0  0
   35.8030   20.8160   35.2520 C   0  0  0  0  0  0  0  0  0  0  0  0
   35.3770   20.6850   36.6030 N   0  0  0  0  0  0  0  0  0  0  0  0
   35.5050   20.0090   34.2860 O   0  0  0  0  0  0  0  0  0  0  0  0
   35.8370   20.0140   37.2810 H   0  0  0  0  0  0  0  0  0  0  0  0
   34.5780   21.2750   36.9390 H   0  0  0  0  0  0  0  0  0  0  0  0
  1  2  1  0  0  0  0
  1 19  1  0  0  0  0
  3  1  1  0  0  0  0
  4  9  1  0  0  0  0
  4  1  1  0  0  0  0
  5  4  2  0  0  0  0
  6  5  1  0  0  0  0
  6  7  2  0  0  0  0
  7  8  1  0  0  0  0
  8 11  1  0  0  0  0
  8  9  2  0  0  0  0
 10  6  1  0  0  0  0
 12  5  1  0  0  0  0
 13 12  1  0  0  0  0
 13 17  1  0  0  0  0
 14 13  2  0  0  0  0
 15 14  1  0  0  0  0
 15 16  2  0  0  0  0
 16 12  1  0  0  0  0
 18 15  1  0  0  0  0
 19 20  1  1  0  0  0
 19 21  1  0  0  0  0
 21 22  2  0  0  0  0
 21 25  1  0  0  0  0
 22 23  1  0  0  0  0
 23 24  2  0  0  0  0
 25 24  1  0  0  0  0
 26 25  1  0  0  0  0
 27 19  1  0  0  0  0
 27 28  1  0  0  0  0
 28 29  1  0  0  0  0
 29 32  1  0  0  0  0
 29 31  1  0  0  0  0
 30 28  2  0  0  0  0
M  END
>  <minimizedAffinity>
-4.99816751

>  <minimizedRMSD>
1.20736742

$$$$
