
 OpenBabel03262516333D

 42 44  0  0  0  0  0  0  0  0999 V2000
   37.8350   23.0830   33.9090 C   0  0  0  0  0  0  0  0  0  0  0  0
   38.2060   24.4030   33.8650 C   0  0  0  0  0  0  0  0  0  0  0  0
   38.9650   24.9970   34.8170 C   0  0  0  0  0  0  0  0  0  0  0  0
   39.3680   24.2070   35.8650 N   0  0  0  0  0  0  0  0  0  0  0  0
   39.0140   22.8950   35.9320 C   0  0  0  0  0  0  0  0  0  0  0  0
   38.2580   22.3200   34.9790 N   0  0  0  0  0  0  0  0  0  0  0  0
   37.8460   24.9530   33.0070 H   0  0  0  0  0  0  0  0  0  0  0  0
   39.3390   22.2890   36.7630 H   0  0  0  0  0  0  0  0  0  0  0  0
   37.0320   22.3770   32.9410 C   0  0  0  0  0  0  0  0  0  0  0  0
   36.2860   21.2400   33.2900 C   0  0  0  0  0  0  0  0  0  0  0  0
   35.6280   20.7940   32.1560 C   0  0  0  0  0  0  0  0  0  0  0  0
   36.0060   21.6810   31.1820 C   0  0  0  0  0  0  0  0  0  0  0  0
   36.8380   22.6040   31.6890 O   0  0  0  0  0  0  0  0  0  0  0  0
   36.2170   20.7680   34.2630 H   0  0  0  0  0  0  0  0  0  0  0  0
   35.6750   21.6370   30.1450 H   0  0  0  0  0  0  0  0  0  0  0  0
   34.7310   19.6460   32.0000 C   0  0  0  0  0  0  0  0  0  0  0  0
   34.5990   19.4240   30.9280 H   0  0  0  0  0  0  0  0  0  0  0  0
   33.7480   19.8760   32.4320 H   0  0  0  0  0  0  0  0  0  0  0  0
   35.2590   18.3650   32.6430 C   0  0  0  0  0  0  0  0  0  0  0  0
   35.5580   18.5660   33.7030 H   0  0  0  0  0  0  0  0  0  0  0  0
   34.4130   17.6600   32.6870 H   0  0  0  0  0  0  0  0  0  0  0  0
   36.3970   17.8630   31.9240 N   0  0  0  0  0  0  0  0  0  0  0  0
   37.0500   18.6420   31.7340 H   0  0  0  0  0  0  0  0  0  0  0  0
   36.8580   17.1280   32.5060 H   0  0  0  0  0  0  0  0  0  0  0  0
   39.3660   26.3900   34.7870 C   0  0  0  0  0  0  0  0  0  0  0  0
   38.7030   27.2350   35.8440 C   0  0  0  0  0  0  0  0  0  0  0  0
   37.7490   27.6380   35.4830 H   0  0  0  0  0  0  0  0  0  0  0  0
   38.5920   26.5790   36.7370 H   0  0  0  0  0  0  0  0  0  0  0  0
   39.4270   28.0390   36.0920 H   0  0  0  0  0  0  0  0  0  0  0  0
   39.0540   27.0050   33.4180 C   0  0  0  0  0  0  0  0  0  0  0  0
   39.4250   26.3960   32.5930 H   0  0  0  0  0  0  0  0  0  0  0  0
   39.4060   28.0570   33.3890 H   0  0  0  0  0  0  0  0  0  0  0  0
   37.9460   27.0370   33.3470 H   0  0  0  0  0  0  0  0  0  0  0  0
   40.8760   26.4720   34.9330 C   0  0  0  0  0  0  0  0  0  0  0  0
   41.1110   27.3270   35.5990 H   0  0  0  0  0  0  0  0  0  0  0  0
   41.3110   25.5280   35.3230 H   0  0  0  0  0  0  0  0  0  0  0  0
   41.5310   26.7240   33.6230 C   0  0  0  0  0  0  0  0  0  0  0  0
   41.8010   25.7480   32.6770 C   0  0  0  0  0  0  0  0  0  0  0  0
   42.3970   26.3450   31.6200 N   0  0  0  0  0  0  0  0  0  0  0  0
   42.5150   27.6730   31.8680 C   0  0  0  0  0  0  0  0  0  0  0  0
   41.9810   27.8720   33.0870 N   0  0  0  0  0  0  0  0  0  0  0  0
   41.9100   28.7810   33.5810 H   0  0  0  0  0  0  0  0  0  0  0  0
  1  6  1  0  0  0  0
  2  1  2  0  0  0  0
  2  3  1  0  0  0  0
  3  4  2  0  0  0  0
  4  5  1  0  0  0  0
  5  8  1  0  0  0  0
  6  5  2  0  0  0  0
  7  2  1  0  0  0  0
  9 10  2  0  0  0  0
  9  1  1  0  0  0  0
 10 14  1  0  0  0  0
 11 10  1  0  0  0  0
 12 13  1  0  0  0  0
 12 11  2  0  0  0  0
 13  9  1  0  0  0  0
 15 12  1  0  0  0  0
 16 11  1  0  0  0  0
 16 18  1  0  0  0  0
 16 19  1  0  0  0  0
 17 16  1  0  0  0  0
 19 21  1  0  0  0  0
 19 20  1  0  0  0  0
 22 24  1  0  0  0  0
 22 19  1  0  0  0  0
 23 22  1  0  0  0  0
 25  3  1  0  0  0  0
 25 34  1  0  0  0  0
 25 26  1  0  0  0  0
 26 29  1  0  0  0  0
 26 28  1  0  0  0  0
 27 26  1  0  0  0  0
 30 25  1  0  0  0  0
 31 30  1  0  0  0  0
 32 30  1  0  0  0  0
 33 30  1  0  0  0  0
 34 36  1  0  0  0  0
 34 35  1  0  0  0  0
 37 34  1  0  0  0  0
 38 37  2  0  0  0  0
 39 40  2  0  0  0  0
 39 38  1  0  0  0  0
 40 41  1  0  0  0  0
 41 42  1  0  0  0  0
 41 37  1  0  0  0  0
M  END
>  <minimizedAffinity>
-4.89233828

>  <minimizedRMSD>
0.82968998

$$$$
