
 OpenBabel03262518483D

 33 35  0  0  0  0  0  0  0  0999 V2000
   38.6250   23.8540   31.7840 C   0  0  0  0  0  0  0  0  0  0  0  0
   37.5970   23.2300   32.4440 C   0  0  0  0  0  0  0  0  0  0  0  0
   37.7040   23.1470   33.8210 C   0  0  0  0  0  0  0  0  0  0  0  0
   38.7610   23.6470   34.5310 C   0  0  0  0  0  0  0  0  0  0  0  0
   39.7760   24.2700   33.8100 C   0  0  0  0  0  0  0  0  0  0  0  0
   39.7380   24.3910   32.4240 C   0  0  0  0  0  0  0  0  0  0  0  0
   36.9190   22.6660   34.3780 H   0  0  0  0  0  0  0  0  0  0  0  0
   40.6070   24.6630   34.3670 H   0  0  0  0  0  0  0  0  0  0  0  0
   40.5270   24.8740   31.8690 H   0  0  0  0  0  0  0  0  0  0  0  0
   39.8370   22.8220   37.9390 C   0  0  0  0  0  0  0  0  0  0  0  0
   38.8430   23.4100   38.7270 C   0  0  0  0  0  0  0  0  0  0  0  0
   37.8210   24.0780   38.0730 C   0  0  0  0  0  0  0  0  0  0  0  0
   37.8380   24.1280   36.7200 N   0  0  0  0  0  0  0  0  0  0  0  0
   38.8330   23.5370   35.9850 C   0  0  0  0  0  0  0  0  0  0  0  0
   39.8330   22.8840   36.5800 N   0  0  0  0  0  0  0  0  0  0  0  0
   40.6520   22.2910   38.4090 H   0  0  0  0  0  0  0  0  0  0  0  0
   38.8770   23.3410   39.8070 H   0  0  0  0  0  0  0  0  0  0  0  0
   37.0170   24.5570   38.6220 H   0  0  0  0  0  0  0  0  0  0  0  0
   38.5250   23.9760   30.0560 S   0  0  0  0  0  0  0  0  0  0  0  0
   39.2370   25.1950   29.5170 O   0  0  0  0  0  0  0  0  0  0  0  0
   39.0520   22.7060   29.4800 O   0  0  0  0  0  0  0  0  0  0  0  0
   37.1950   24.0320   29.6990 H   0  0  0  0  0  0  0  0  0  0  0  0
   36.1710   22.5380   31.6620 S   0  0  0  0  0  0  0  0  0  0  0  0
   36.0600   18.0170   32.0210 C   0  0  0  0  0  0  0  0  0  0  0  0
   35.3600   18.7780   32.9430 C   0  0  0  0  0  0  0  0  0  0  0  0
   35.3800   20.1470   32.8520 C   0  0  0  0  0  0  0  0  0  0  0  0
   36.0880   20.7650   31.8560 C   0  0  0  0  0  0  0  0  0  0  0  0
   36.7840   19.9960   30.9380 C   0  0  0  0  0  0  0  0  0  0  0  0
   36.7660   18.6160   31.0280 C   0  0  0  0  0  0  0  0  0  0  0  0
   37.3110   15.8130   32.5510 H   0  0  0  0  0  0  0  0  0  0  0  0
   36.1180   16.2540   32.0220 S   0  0  0  0  0  0  0  0  0  0  0  0
   34.9980   15.7140   32.8630 O   0  0  0  0  0  0  0  0  0  0  0  0
   36.0440   15.8100   30.5970 O   0  0  0  0  0  0  0  0  0  0  0  0
  1  6  2  0  0  0  0
  1  2  1  0  0  0  0
  2  3  2  0  0  0  0
  3  7  1  0  0  0  0
  3  4  1  0  0  0  0
  4 14  1  0  0  0  0
  5  8  1  0  0  0  0
  5  4  2  0  0  0  0
  6  5  1  0  0  0  0
  9  6  1  0  0  0  0
 10 16  1  0  0  0  0
 10 11  1  0  0  0  0
 11 17  1  0  0  0  0
 12 18  1  0  0  0  0
 12 11  2  0  0  0  0
 13 12  1  0  0  0  0
 14 15  1  0  0  0  0
 14 13  2  0  0  0  0
 15 10  2  0  0  0  0
 19  1  1  0  0  0  0
 20 19  2  0  0  0  0
 21 19  2  0  0  0  0
 22 19  1  0  0  0  0
 23 27  1  0  0  0  0
 23  2  1  0  0  0  0
 24 31  1  0  0  0  0
 24 25  1  0  0  0  0
 26 25  2  0  0  0  0
 27 26  1  0  0  0  0
 28 29  1  0  0  0  0
 28 27  2  0  0  0  0
 29 24  2  0  0  0  0
 31 30  1  0  0  0  0
 31 32  2  0  0  0  0
 33 31  2  0  0  0  0
M  END
>  <minimizedAffinity>
-5.17501688

>  <minimizedRMSD>
2.65710616

$$$$
