REMARK  Name = 
REMARK  4 active torsions:
REMARK  status: ('A' for Active; 'I' for Inactive)
REMARK    1  A    between atoms: C_1  and  C_6
REMARK    2  A    between atoms: N_5  and  C_12
REMARK    3  A    between atoms: C_14  and  C_15
REMARK    4  A    between atoms: C_14  and  S_27
REMARK                            x       y       z     vdW  Elec       q    Type
REMARK                         _______ _______ _______ _____ _____    ______ ____
ROOT
ATOM      1  C   UNL     1      37.868  23.699  33.501  0.00  0.00    +0.000 A 
ATOM      2  C   UNL     1      37.464  22.656  32.668  0.00  0.00    +0.000 A 
ATOM      3  N   UNL     1      37.487  21.563  33.484  0.00  0.00    +0.000 NA
ATOM      4  C   UNL     1      37.877  21.965  34.693  0.00  0.00    +0.000 A 
ATOM      5  N   UNL     1      38.116  23.270  34.729  0.00  0.00    +0.000 N 
ATOM      6  H   UNL     1      37.200  22.751  31.605  0.00  0.00    +0.000 HD
ATOM      7  H   UNL     1      37.968  21.244  35.518  0.00  0.00    +0.000 HD
ENDROOT
BRANCH   1   8
ATOM      8  C   UNL     1      38.011  25.084  33.078  0.00  0.00    +0.000 A 
ATOM      9  C   UNL     1      39.294  25.585  32.768  0.00  0.00    +0.000 A 
ATOM     10  C   UNL     1      39.389  26.931  32.355  0.00  0.00    +0.000 A 
ATOM     11  N   UNL     1      38.238  27.652  32.286  0.00  0.00    +0.000 NA
ATOM     12  C   UNL     1      37.028  27.132  32.593  0.00  0.00    +0.000 A 
ATOM     13  N   UNL     1      36.912  25.852  32.988  0.00  0.00    +0.000 NA
ATOM     14  H   UNL     1      40.168  24.958  32.844  0.00  0.00    +0.000 HD
ATOM     15  H   UNL     1      40.358  27.343  32.111  0.00  0.00    +0.000 HD
ATOM     16  H   UNL     1      36.215  27.827  32.489  0.00  0.00    +0.000 HD
ENDBRANCH   1   8
BRANCH   5  17
ATOM     17  C   UNL     1      38.543  23.947  35.898  0.00  0.00    +0.000 C 
ATOM     18  C   UNL     1      38.087  25.228  36.364  0.00  0.00    +0.000 C 
ATOM     19  C   UNL     1      37.561  23.924  37.028  0.00  0.00    +0.000 C 
ATOM     20  H   UNL     1      39.605  23.620  36.184  0.00  0.00    +0.000 HD
ATOM     21  H   UNL     1      37.394  25.879  35.834  0.00  0.00    +0.000 HD
ATOM     22  H   UNL     1      38.810  25.821  36.985  0.00  0.00    +0.000 HD
BRANCH  19  23
ATOM     23  C   UNL     1      38.121  23.765  38.427  0.00  0.00    +0.000 C 
ATOM     24  F   UNL     1      37.505  22.706  39.064  0.00  0.00    +0.000 F 
ATOM     25  F   UNL     1      39.508  23.340  38.308  0.00  0.00    +0.000 F 
ATOM     26  F   UNL     1      38.139  24.900  39.143  0.00  0.00    +0.000 F 
ENDBRANCH  19  23
BRANCH  19  27
ATOM     27  S   UNL     1      35.752  24.011  36.868  0.00  0.00    +0.000 S 
ATOM     28  H   UNL     1      35.228  24.195  38.162  0.00  0.00    +0.000 HD
ENDBRANCH  19  27
ENDBRANCH   5  17
TORSDOF 4
