
 OpenBabel03262519593D

 28 30  0  0  1  0  0  0  0  0999 V2000
   37.6440   23.6840   33.0170 C   0  0  0  0  0  0  0  0  0  0  0  0
   36.7400   22.8190   32.4000 C   0  0  0  0  0  0  0  0  0  0  0  0
   36.9670   21.6230   33.0140 N   0  0  0  0  0  0  0  0  0  0  0  0
   37.9310   21.8030   33.9160 C   0  0  0  0  0  0  0  0  0  0  0  0
   38.3620   23.0580   33.9370 N   0  0  0  0  0  0  0  0  0  0  0  0
   36.0320   23.0940   31.6050 H   0  0  0  0  0  0  0  0  0  0  0  0
   38.2790   20.9640   34.5350 H   0  0  0  0  0  0  0  0  0  0  0  0
   37.7910   25.0940   32.6900 C   0  0  0  0  0  0  0  0  0  0  0  0
   38.7570   25.4880   31.7400 C   0  0  0  0  0  0  0  0  0  0  0  0
   38.8640   26.8640   31.4450 C   0  0  0  0  0  0  0  0  0  0  0  0
   38.0280   27.7150   32.0990 N   0  0  0  0  0  0  0  0  0  0  0  0
   37.1150   27.2950   33.0040 C   0  0  0  0  0  0  0  0  0  0  0  0
   36.9950   25.9890   33.3010 N   0  0  0  0  0  0  0  0  0  0  0  0
   39.3900   24.7600   31.2570 H   0  0  0  0  0  0  0  0  0  0  0  0
   39.5950   27.1960   30.7220 H   0  0  0  0  0  0  0  0  0  0  0  0
   36.5300   28.0870   33.4340 H   0  0  0  0  0  0  0  0  0  0  0  0
   39.3830   23.5110   34.8080 C   0  0  1  0  0  0  0  0  0  0  0  0
   39.3310   24.6610   35.6690 C   0  0  0  0  0  0  0  0  0  0  0  0
   39.1360   23.2360   36.2590 C   0  0  2  0  0  0  0  0  0  0  0  0
   40.4120   23.1720   34.4290 H   0  0  0  0  0  0  0  0  0  0  0  0
   38.5120   25.3780   35.7110 H   0  0  0  0  0  0  0  0  0  0  0  0
   40.3120   25.1480   35.9130 H   0  0  0  0  0  0  0  0  0  0  0  0
   40.3290   22.8300   37.0990 C   0  0  0  0  0  0  0  0  0  0  0  0
   40.0680   23.0640   38.4340 F   0  0  0  0  0  0  0  0  0  0  0  0
   40.4600   21.3820   37.0190 F   0  0  0  0  0  0  0  0  0  0  0  0
   41.4980   23.3340   36.6720 F   0  0  0  0  0  0  0  0  0  0  0  0
   37.5200   23.2890   37.0920 S   0  0  0  0  0  0  0  0  0  0  0  0
   36.9140   24.5120   36.7460 H   0  0  0  0  0  0  0  0  0  0  0  0
  1  5  1  0  0  0  0
  2  3  1  0  0  0  0
  2  1  2  0  0  0  0
  3  4  2  0  0  0  0
  4  5  1  0  0  0  0
  4  7  1  0  0  0  0
  5 17  1  0  0  0  0
  6  2  1  0  0  0  0
  8  1  1  0  0  0  0
  8 13  1  0  0  0  0
  9  8  2  0  0  0  0
 10  9  1  0  0  0  0
 10 11  2  0  0  0  0
 11 12  1  0  0  0  0
 12 13  2  0  0  0  0
 12 16  1  0  0  0  0
 14  9  1  0  0  0  0
 15 10  1  0  0  0  0
 17 20  1  6  0  0  0
 17 18  1  0  0  0  0
 17 19  1  0  0  0  0
 18 21  1  0  0  0  0
 18 22  1  0  0  0  0
 18 19  1  0  0  0  0
 19 27  1  1  0  0  0
 19 23  1  0  0  0  0
 23 24  1  0  0  0  0
 25 23  1  0  0  0  0
 26 23  1  0  0  0  0
 28 27  1  0  0  0  0
M  END
>  <minimizedAffinity>
-4.38679981

>  <minimizedRMSD>
1.75277019

$$$$
