
 OpenBabel03262514143D

 44 48  0  0  0  0  0  0  0  0999 V2000
   35.4960   18.8410   32.8990 C   0  0  0  0  0  0  0  0  0  0  0  0
   36.1080   18.6570   33.8040 H   0  0  0  0  0  0  0  0  0  0  0  0
   34.5120   18.3270   33.0150 H   0  0  0  0  0  0  0  0  0  0  0  0
   36.1130   18.3670   31.6590 C   0  0  0  0  0  0  0  0  0  0  0  0
   36.8690   17.2600   31.5040 N   0  0  0  0  0  0  0  0  0  0  0  0
   37.2460   17.1610   30.2530 O   0  0  0  0  0  0  0  0  0  0  0  0
   36.7720   18.1610   29.5620 C   0  0  0  0  0  0  0  0  0  0  0  0
   36.0590   18.9280   30.4250 N   0  0  0  0  0  0  0  0  0  0  0  0
   36.9490   18.4330   28.1440 C   0  0  0  0  0  0  0  0  0  0  0  0
   36.3630   17.7760   27.1100 C   0  0  0  0  0  0  0  0  0  0  0  0
   36.8290   18.3820   25.9540 C   0  0  0  0  0  0  0  0  0  0  0  0
   37.6630   19.3670   26.2830 N   0  0  0  0  0  0  0  0  0  0  0  0
   37.7170   19.3750   27.5970 N   0  0  0  0  0  0  0  0  0  0  0  0
   35.6800   16.9590   27.1010 H   0  0  0  0  0  0  0  0  0  0  0  0
   36.6370   18.2000   24.8890 H   0  0  0  0  0  0  0  0  0  0  0  0
   40.0750   22.2140   24.5380 C   0  0  0  0  0  0  0  0  0  0  0  0
   40.2420   21.8850   25.8450 C   0  0  0  0  0  0  0  0  0  0  0  0
   39.4290   20.9410   26.3910 C   0  0  0  0  0  0  0  0  0  0  0  0
   38.4490   20.3370   25.5990 C   0  0  0  0  0  0  0  0  0  0  0  0
   38.2890   20.6810   24.2680 C   0  0  0  0  0  0  0  0  0  0  0  0
   39.1240   21.6450   23.7230 C   0  0  0  0  0  0  0  0  0  0  0  0
   42.0350   23.8540   24.6840 H   0  0  0  0  0  0  0  0  0  0  0  0
   41.0850   23.4140   23.7840 S   0  0  0  0  0  0  0  0  0  0  0  0
   41.8540   22.7740   22.6680 O   0  0  0  0  0  0  0  0  0  0  0  0
   40.2840   24.5960   23.3610 O   0  0  0  0  0  0  0  0  0  0  0  0
   35.1490   20.3400   32.7960 C   0  0  0  0  0  0  0  0  0  0  0  0
   35.0420   20.6340   31.7210 H   0  0  0  0  0  0  0  0  0  0  0  0
   34.2010   20.5580   33.2860 H   0  0  0  0  0  0  0  0  0  0  0  0
   37.6510   22.1840   34.8040 C   0  0  0  0  0  0  0  0  0  0  0  0
   36.6230   21.2760   34.7060 C   0  0  0  0  0  0  0  0  0  0  0  0
   36.2090   21.1690   33.4100 C   0  0  0  0  0  0  0  0  0  0  0  0
   37.0470   22.0640   32.7330 C   0  0  0  0  0  0  0  0  0  0  0  0
   37.8800   22.6390   33.5940 O   0  0  0  0  0  0  0  0  0  0  0  0
   36.1800   20.7100   35.5220 H   0  0  0  0  0  0  0  0  0  0  0  0
   37.0020   22.2430   31.6590 H   0  0  0  0  0  0  0  0  0  0  0  0
   38.2980   22.5120   36.0540 C   0  0  0  0  0  0  0  0  0  0  0  0
   39.6230   22.2790   36.3490 C   0  0  0  0  0  0  0  0  0  0  0  0
   40.1370   22.6400   37.5910 C   0  0  0  0  0  0  0  0  0  0  0  0
   39.3020   23.2120   38.4740 N   0  0  0  0  0  0  0  0  0  0  0  0
   38.0000   23.4400   38.1830 C   0  0  0  0  0  0  0  0  0  0  0  0
   37.4850   23.0940   36.9770 N   0  0  0  0  0  0  0  0  0  0  0  0
   40.1630   21.8130   35.5370 H   0  0  0  0  0  0  0  0  0  0  0  0
   41.1860   22.4260   37.7490 H   0  0  0  0  0  0  0  0  0  0  0  0
   37.4210   23.9060   38.9670 H   0  0  0  0  0  0  0  0  0  0  0  0
  1  3  1  0  0  0  0
  1  2  1  0  0  0  0
  4  1  1  0  0  0  0
  5  4  2  0  0  0  0
  6  5  1  0  0  0  0
  7  6  1  0  0  0  0
  7  8  2  0  0  0  0
  8  4  1  0  0  0  0
  9  7  1  0  0  0  0
 10  9  1  0  0  0  0
 11 12  1  0  0  0  0
 11 10  2  0  0  0  0
 12 13  1  0  0  0  0
 13  9  2  0  0  0  0
 14 10  1  0  0  0  0
 15 11  1  0  0  0  0
 16 17  1  0  0  0  0
 17 18  2  0  0  0  0
 19 12  1  0  0  0  0
 19 18  1  0  0  0  0
 20 19  2  0  0  0  0
 21 20  1  0  0  0  0
 21 16  2  0  0  0  0
 23 16  1  0  0  0  0
 23 22  1  0  0  0  0
 24 23  2  0  0  0  0
 25 23  2  0  0  0  0
 26  1  1  0  0  0  0
 26 28  1  0  0  0  0
 26 31  1  0  0  0  0
 27 26  1  0  0  0  0
 29 36  1  0  0  0  0
 30 29  2  0  0  0  0
 30 34  1  0  0  0  0
 31 30  1  0  0  0  0
 32 31  2  0  0  0  0
 32 33  1  0  0  0  0
 33 29  1  0  0  0  0
 35 32  1  0  0  0  0
 36 37  2  0  0  0  0
 36 41  1  0  0  0  0
 37 38  1  0  0  0  0
 38 43  1  0  0  0  0
 38 39  2  0  0  0  0
 40 39  1  0  0  0  0
 40 44  1  0  0  0  0
 41 40  2  0  0  0  0
 42 37  1  0  0  0  0
M  END
>  <minimizedAffinity>
-5.22326899

>  <minimizedRMSD>
1.01583385

$$$$
