
 OpenBabel03262519593D

 31 34  0  0  1  0  0  0  0  0999 V2000
   38.1760   23.4330   32.4470 C   0  0  0  0  0  0  0  0  0  0  0  0
   37.9760   22.1120   32.0450 C   0  0  0  0  0  0  0  0  0  0  0  0
   37.5940   21.4800   33.1940 N   0  0  0  0  0  0  0  0  0  0  0  0
   37.5830   22.3850   34.1680 C   0  0  0  0  0  0  0  0  0  0  0  0
   37.9350   23.5910   33.7350 N   0  0  0  0  0  0  0  0  0  0  0  0
   38.1040   21.7240   31.0440 H   0  0  0  0  0  0  0  0  0  0  0  0
   37.2950   22.0170   35.1490 H   0  0  0  0  0  0  0  0  0  0  0  0
   38.6080   24.5040   31.5630 C   0  0  0  0  0  0  0  0  0  0  0  0
   39.8930   24.4460   30.9800 C   0  0  0  0  0  0  0  0  0  0  0  0
   40.2720   25.5060   30.1240 C   0  0  0  0  0  0  0  0  0  0  0  0
   39.3730   26.5050   29.9220 N   0  0  0  0  0  0  0  0  0  0  0  0
   38.1500   26.5200   30.5030 C   0  0  0  0  0  0  0  0  0  0  0  0
   37.7650   25.5290   31.3180 N   0  0  0  0  0  0  0  0  0  0  0  0
   40.5130   23.6010   31.2180 H   0  0  0  0  0  0  0  0  0  0  0  0
   41.2440   25.4620   29.6820 H   0  0  0  0  0  0  0  0  0  0  0  0
   37.5580   27.3820   30.2400 H   0  0  0  0  0  0  0  0  0  0  0  0
   37.9980   24.7310   34.5760 C   0  0  1  0  0  0  0  0  0  0  0  0
   38.2590   24.7360   35.9890 C   0  0  0  0  0  0  0  0  0  0  0  0
   39.3820   25.1250   34.9890 C   0  0  1  0  0  0  0  0  0  0  0  0
   37.3410   25.5860   34.2120 H   0  0  0  0  0  0  0  0  0  0  0  0
   38.4220   23.8060   36.5500 H   0  0  0  0  0  0  0  0  0  0  0  0
   37.8860   25.5660   36.6320 H   0  0  0  0  0  0  0  0  0  0  0  0
   40.5230   24.1990   35.2840 C   0  0  0  0  0  0  0  0  0  0  0  0
   40.7470   23.3800   36.4920 C   0  0  0  0  0  3  0  0  0  0  0  0
   41.8850   22.6530   36.4240 C   0  0  0  0  0  3  0  0  0  0  0  0
   42.7620   22.6610   35.3410 C   0  0  0  0  0  3  0  0  0  0  0  0
   41.9180   23.8650   34.1890 S   0  0  0  0  0  0  0  0  0  0  0  0
   39.6810   26.6090   35.0640 C   0  0  0  0  0  0  0  0  0  0  0  0
   39.0290   27.2700   34.0410 F   0  0  0  0  0  0  0  0  0  0  0  0
   39.0510   27.1350   36.2640 F   0  0  0  0  0  0  0  0  0  0  0  0
   40.9850   26.9040   35.1630 F   0  0  0  0  0  0  0  0  0  0  0  0
  1  5  1  0  0  0  0
  2  1  2  0  0  0  0
  2  3  1  0  0  0  0
  3  4  2  0  0  0  0
  4  7  1  0  0  0  0
  5  4  1  0  0  0  0
  5 17  1  0  0  0  0
  6  2  1  0  0  0  0
  8  1  1  0  0  0  0
  9 14  1  0  0  0  0
  9  8  2  0  0  0  0
 10  9  1  0  0  0  0
 11 10  2  0  0  0  0
 11 12  1  0  0  0  0
 12 13  2  0  0  0  0
 13  8  1  0  0  0  0
 15 10  1  0  0  0  0
 16 12  1  0  0  0  0
 17 20  1  6  0  0  0
 17 19  1  0  0  0  0
 17 18  1  0  0  0  0
 18 21  1  0  0  0  0
 18 22  1  0  0  0  0
 19 28  1  6  0  0  0
 19 23  1  0  0  0  0
 19 18  1  0  0  0  0
 23 24  2  0  0  0  0
 25 24  1  0  0  0  0
 26 25  2  0  0  0  0
 27 23  1  0  0  0  0
 27 26  1  0  0  0  0
 28 31  1  0  0  0  0
 28 30  1  0  0  0  0
 29 28  1  0  0  0  0
M  END
>  <minimizedAffinity>
-4.25070333

>  <minimizedRMSD>
4.36812067

$$$$
