
 OpenBabel03262519453D

 30 32  0  0  1  0  0  0  0  0999 V2000
   36.9850   25.1420   32.7000 C   0  0  1  0  0  0  0  0  0  0  0  0
   35.9550   24.7570   32.8880 H   0  0  0  0  0  0  0  0  0  0  0  0
   37.7940   27.7340   35.3370 C   0  0  0  0  0  0  0  0  0  0  0  0
   37.3250   27.2030   34.1260 C   0  0  0  0  0  0  0  0  0  0  0  0
   37.4450   25.7860   33.9530 C   0  0  0  0  0  0  0  0  0  0  0  0
   38.0000   25.0430   34.9610 N   0  0  0  0  0  0  0  0  0  0  0  0
   38.4330   25.5850   36.0930 C   0  0  0  0  0  0  0  0  0  0  0  0
   38.3300   26.9470   36.2860 N   0  0  0  0  0  0  0  0  0  0  0  0
   37.7240   28.7950   35.5110 H   0  0  0  0  0  0  0  0  0  0  0  0
   36.8940   27.8040   33.3510 H   0  0  0  0  0  0  0  0  0  0  0  0
   38.8720   24.9910   36.8870 H   0  0  0  0  0  0  0  0  0  0  0  0
   36.9120   26.1290   31.5630 C   0  0  0  0  0  0  0  0  0  0  0  0
   36.4310   27.0550   31.8960 H   0  0  0  0  0  0  0  0  0  0  0  0
   37.9400   26.3230   31.1420 H   0  0  0  0  0  0  0  0  0  0  0  0
   36.2870   25.6510   30.7740 H   0  0  0  0  0  0  0  0  0  0  0  0
   37.8200   23.9580   32.3140 C   0  0  0  0  0  0  0  0  0  0  0  0
   37.1140   23.1230   32.0620 H   0  0  0  0  0  0  0  0  0  0  0  0
   38.3890   23.6210   33.1720 H   0  0  0  0  0  0  0  0  0  0  0  0
   38.6140   24.1960   31.1710 N   0  0  0  0  0  0  0  0  0  0  0  0
   38.4860   23.9920   29.8540 C   0  0  0  0  0  0  0  0  0  0  0  0
   39.5500   24.3970   29.0750 C   0  0  0  0  0  0  0  0  0  0  0  0
   40.4020   24.8930   30.0020 N   0  0  0  0  0  0  0  0  0  0  0  0
   39.8440   24.7710   31.2290 C   0  0  0  0  0  0  0  0  0  0  0  0
   37.5980   23.5340   29.4140 H   0  0  0  0  0  0  0  0  0  0  0  0
   39.6350   24.3210   28.0220 H   0  0  0  0  0  0  0  0  0  0  0  0
   40.5740   25.2370   32.4020 C   0  0  0  0  0  0  0  0  0  0  0  0
   41.1900   24.6850   33.4350 C   0  0  0  0  0  0  0  0  0  0  0  0
   41.8070   25.4200   34.4090 C   0  0  0  0  0  0  0  0  0  0  0  0
   41.7300   26.8410   34.2190 C   0  0  0  0  0  0  0  0  0  0  0  0
   40.7490   26.9860   32.6090 S   0  0  0  0  0  0  0  0  0  0  0  0
  1  2  1  1  0  0  0
  1  5  1  0  0  0  0
  3  9  1  0  0  0  0
  3  8  1  0  0  0  0
  4  3  2  0  0  0  0
  5  4  1  0  0  0  0
  5  6  2  0  0  0  0
  6  7  1  0  0  0  0
  7  8  2  0  0  0  0
  7 11  1  0  0  0  0
 10  4  1  0  0  0  0
 12 13  1  0  0  0  0
 12  1  1  0  0  0  0
 14 12  1  0  0  0  0
 15 12  1  0  0  0  0
 16  1  1  0  0  0  0
 16 18  1  0  0  0  0
 17 16  1  0  0  0  0
 19 23  1  0  0  0  0
 19 16  1  0  0  0  0
 20 19  1  0  0  0  0
 21 20  2  0  0  0  0
 21 22  1  0  0  0  0
 22 23  2  0  0  0  0
 23 26  1  0  0  0  0
 24 20  1  0  0  0  0
 25 21  1  0  0  0  0
 26 30  1  0  0  0  0
 26 27  2  0  0  0  0
 27 28  1  0  0  0  0
 29 28  2  0  0  0  0
 30 29  1  0  0  0  0
M  END
>  <minimizedAffinity>
-3.33526492

>  <minimizedRMSD>
5.55531311

$$$$
