REMARK  Name = 
REMARK  3 active torsions:
REMARK  status: ('A' for Active; 'I' for Inactive)
REMARK    1  A    between atoms: C_1  and  C_6
REMARK    2  A    between atoms: N_5  and  C_12
REMARK    3  A    between atoms: C_14  and  C_24
REMARK                            x       y       z     vdW  Elec       q    Type
REMARK                         _______ _______ _______ _____ _____    ______ ____
ROOT
ATOM      1  C   UNL     1      38.031  23.468  34.617  0.00  0.00    +0.000 A 
ATOM      2  C   UNL     1      38.264  24.572  33.796  0.00  0.00    +0.000 A 
ATOM      3  N   UNL     1      37.759  24.179  32.581  0.00  0.00    +0.000 NA
ATOM      4  C   UNL     1      37.284  22.954  32.718  0.00  0.00    +0.000 A 
ATOM      5  N   UNL     1      37.436  22.477  33.975  0.00  0.00    +0.000 N 
ATOM      6  H   UNL     1      38.733  25.481  34.112  0.00  0.00    +0.000 HD
ATOM      7  H   UNL     1      36.833  22.441  31.874  0.00  0.00    +0.000 HD
ENDROOT
BRANCH   1   8
ATOM      8  C   UNL     1      38.397  23.396  36.031  0.00  0.00    +0.000 A 
ATOM      9  C   UNL     1      39.600  22.799  36.423  0.00  0.00    +0.000 A 
ATOM     10  C   UNL     1      39.896  22.761  37.800  0.00  0.00    +0.000 A 
ATOM     11  N   UNL     1      39.015  23.296  38.657  0.00  0.00    +0.000 NA
ATOM     12  C   UNL     1      37.851  23.871  38.251  0.00  0.00    +0.000 A 
ATOM     13  N   UNL     1      37.533  23.926  36.942  0.00  0.00    +0.000 NA
ATOM     14  H   UNL     1      40.242  22.396  35.646  0.00  0.00    +0.000 HD
ATOM     15  H   UNL     1      40.826  22.297  38.078  0.00  0.00    +0.000 HD
ATOM     16  H   UNL     1      37.211  24.273  39.028  0.00  0.00    +0.000 HD
ENDBRANCH   1   8
BRANCH   5  17
ATOM     17  C   UNL     1      37.008  21.179  34.393  0.00  0.00    +0.000 C 
ATOM     18  C   UNL     1      35.838  20.957  35.251  0.00  0.00    +0.000 C 
ATOM     19  C   UNL     1      35.662  20.771  33.770  0.00  0.00    +0.000 C 
ATOM     20  H   UNL     1      37.788  20.387  34.345  0.00  0.00    +0.000 HD
ATOM     21  H   UNL     1      35.847  20.079  35.919  0.00  0.00    +0.000 HD
ATOM     22  H   UNL     1      35.382  21.851  35.758  0.00  0.00    +0.000 HD
ATOM     23  H   UNL     1      35.072  21.532  33.265  0.00  0.00    +0.000 HD
BRANCH  19  24
ATOM     24  C   UNL     1      35.500  19.413  33.282  0.00  0.00    +0.000 A 
ATOM     25  C   UNL     1      34.411  18.616  33.179  0.00  0.00    +0.000 A 
ATOM     26  C   UNL     1      34.489  17.343  32.681  0.00  0.00    +0.000 A 
ATOM     27  C   UNL     1      35.828  16.944  32.284  0.00  0.00    +0.000 A 
ATOM     28  S   UNL     1      36.838  18.408  32.655  0.00  0.00    +0.000 S 
ENDBRANCH  19  24
ENDBRANCH   5  17
TORSDOF 3
