
 OpenBabel03262518463D

 42 46  0  0  1  0  0  0  0  0999 V2000
   40.5890   27.0440   31.8850 C   0  0  0  0  0  0  0  0  0  0  0  0
   40.9100   27.4530   33.1010 N   0  0  0  0  0  0  0  0  0  0  0  0
   40.9730   26.4550   33.9120 O   0  0  0  0  0  0  0  0  0  0  0  0
   40.6840   25.3640   33.2070 C   0  0  0  0  0  0  0  0  0  0  0  0
   40.4370   25.6870   31.9390 N   0  0  0  0  0  0  0  0  0  0  0  0
   35.9270   26.6080   31.2090 C   0  0  0  0  0  0  0  0  0  0  0  0
   35.3770   27.6750   31.9570 C   0  0  0  0  0  0  0  0  0  0  0  0
   36.1060   28.8350   32.1210 C   0  0  0  0  0  0  0  0  0  0  0  0
   37.3410   28.8880   31.5410 N   0  0  0  0  0  0  0  0  0  0  0  0
   37.8360   27.8570   30.8360 C   0  0  0  0  0  0  0  0  0  0  0  0
   37.1450   26.7320   30.6680 N   0  0  0  0  0  0  0  0  0  0  0  0
   39.1320   28.0320   30.2800 N   0  0  0  0  0  0  0  0  0  0  0  0
   39.1350   28.6480   29.1210 N   0  0  0  0  0  0  0  0  0  0  0  0
   40.4040   28.7630   28.6830 C   0  0  0  0  0  0  0  0  0  0  0  0
   41.2150   28.1970   29.6050 C   0  0  0  0  0  0  0  0  0  0  0  0
   40.3860   27.7390   30.6140 C   0  0  0  0  0  0  0  0  0  0  0  0
   35.1760   25.4060   31.0370 N   0  0  0  0  0  0  0  0  0  0  0  0
   34.3940   27.5310   32.3730 H   0  0  0  0  0  0  0  0  0  0  0  0
   35.7080   29.6580   32.6860 H   0  0  0  0  0  0  0  0  0  0  0  0
   40.7840   29.2120   27.7710 H   0  0  0  0  0  0  0  0  0  0  0  0
   42.2860   28.0500   29.6960 H   0  0  0  0  0  0  0  0  0  0  0  0
   34.2880   25.5750   30.4960 H   0  0  0  0  0  0  0  0  0  0  0  0
   35.4060   24.4410   31.3750 H   0  0  0  0  0  0  0  0  0  0  0  0
   40.6340   23.9720   33.7290 C   0  0  2  0  0  0  0  0  0  0  0  0
   40.9320   22.8250   32.8310 C   0  0  0  0  0  0  0  0  0  0  0  0
   39.5000   23.0670   33.3490 C   0  0  1  0  0  0  0  0  0  0  0  0
   40.9130   23.9430   34.8130 H   0  0  0  0  0  0  0  0  0  0  0  0
   41.5260   22.0200   33.2950 H   0  0  0  0  0  0  0  0  0  0  0  0
   41.1570   23.0870   31.7760 H   0  0  0  0  0  0  0  0  0  0  0  0
   38.8340   23.4910   32.5690 H   0  0  0  0  0  0  0  0  0  0  0  0
   39.0200   22.0070   34.2810 C   0  0  0  0  0  0  0  0  0  0  0  0
   38.8090   21.0890   33.6970 H   0  0  0  0  0  0  0  0  0  0  0  0
   39.8050   21.6980   35.0280 H   0  0  0  0  0  0  0  0  0  0  0  0
   37.8200   22.4100   35.1110 C   0  0  0  0  0  0  0  0  0  0  0  0
   37.0850   21.6060   35.2590 H   0  0  0  0  0  0  0  0  0  0  0  0
   37.2890   23.2750   34.6660 H   0  0  0  0  0  0  0  0  0  0  0  0
   38.3540   22.7590   36.4720 C   0  0  0  0  0  0  0  0  0  0  0  0
   39.6040   22.5650   36.9210 N   0  0  0  0  0  0  0  0  0  0  0  0
   39.7150   22.9870   38.1460 O   0  0  0  0  0  0  0  0  0  0  0  0
   38.5650   23.4680   38.5550 C   0  0  0  0  0  0  0  0  0  0  0  0
   38.0700   23.9240   39.4020 H   0  0  0  0  0  0  0  0  0  0  0  0
   37.7230   23.3260   37.5150 N   0  0  0  0  0  0  0  0  0  0  0  0
  1  5  1  0  0  0  0
  1  2  2  0  0  0  0
  2  3  1  0  0  0  0
  4 24  1  0  0  0  0
  4  3  1  0  0  0  0
  5  4  2  0  0  0  0
  6  7  1  0  0  0  0
  7  8  2  0  0  0  0
  7 18  1  0  0  0  0
  8 19  1  0  0  0  0
  9  8  1  0  0  0  0
 10  9  2  0  0  0  0
 11 10  1  0  0  0  0
 11  6  2  0  0  0  0
 12 16  1  0  0  0  0
 12 10  1  0  0  0  0
 13 12  1  0  0  0  0
 14 13  2  0  0  0  0
 14 15  1  0  0  0  0
 15 21  1  0  0  0  0
 15 16  2  0  0  0  0
 16  1  1  0  0  0  0
 17  6  1  0  0  0  0
 17 23  1  0  0  0  0
 20 14  1  0  0  0  0
 22 17  1  0  0  0  0
 24 27  1  1  0  0  0
 25 28  1  0  0  0  0
 25 26  1  0  0  0  0
 25 24  1  0  0  0  0
 26 30  1  6  0  0  0
 26 24  1  0  0  0  0
 26 31  1  0  0  0  0
 29 25  1  0  0  0  0
 31 33  1  0  0  0  0
 31 34  1  0  0  0  0
 32 31  1  0  0  0  0
 34 35  1  0  0  0  0
 34 37  1  0  0  0  0
 36 34  1  0  0  0  0
 37 38  2  0  0  0  0
 37 42  1  0  0  0  0
 38 39  1  0  0  0  0
 39 40  1  0  0  0  0
 40 41  1  0  0  0  0
 42 40  2  0  0  0  0
M  END
>  <minimizedAffinity>
-4.6527586

>  <minimizedRMSD>
3.11390257

$$$$
