
 OpenBabel03262520003D

 31 34  0  0  1  0  0  0  0  0999 V2000
   38.7040   23.5940   32.8220 C   0  0  0  0  0  0  0  0  0  0  0  0
   39.3450   23.0190   31.7250 C   0  0  0  0  0  0  0  0  0  0  0  0
   39.5220   21.7180   32.1010 N   0  0  0  0  0  0  0  0  0  0  0  0
   39.0160   21.5780   33.3230 C   0  0  0  0  0  0  0  0  0  0  0  0
   38.5080   22.7140   33.7870 N   0  0  0  0  0  0  0  0  0  0  0  0
   39.6180   23.5240   30.8090 H   0  0  0  0  0  0  0  0  0  0  0  0
   39.0900   20.5820   33.7520 H   0  0  0  0  0  0  0  0  0  0  0  0
   38.3100   24.9920   32.9040 C   0  0  0  0  0  0  0  0  0  0  0  0
   39.2020   25.9310   33.4650 C   0  0  0  0  0  0  0  0  0  0  0  0
   38.7820   27.2810   33.5210 C   0  0  0  0  0  0  0  0  0  0  0  0
   37.5490   27.5770   33.0300 N   0  0  0  0  0  0  0  0  0  0  0  0
   36.7260   26.6420   32.5010 C   0  0  0  0  0  0  0  0  0  0  0  0
   37.0990   25.3570   32.4340 N   0  0  0  0  0  0  0  0  0  0  0  0
   40.1510   25.5720   33.8190 H   0  0  0  0  0  0  0  0  0  0  0  0
   39.4570   27.9930   33.9450 H   0  0  0  0  0  0  0  0  0  0  0  0
   35.7850   27.0410   32.1570 H   0  0  0  0  0  0  0  0  0  0  0  0
   37.9030   22.8310   35.0640 C   0  0  1  0  0  0  0  0  0  0  0  0
   38.0550   21.9220   36.1670 C   0  0  0  0  0  0  0  0  0  0  0  0
   38.8300   23.2680   36.1550 C   0  0  1  0  0  0  0  0  0  0  0  0
   36.9030   23.3750   35.0330 H   0  0  0  0  0  0  0  0  0  0  0  0
   38.6710   21.0170   36.0880 H   0  0  0  0  0  0  0  0  0  0  0  0
   37.2620   21.8360   36.9440 H   0  0  0  0  0  0  0  0  0  0  0  0
   40.2770   22.9010   36.2960 C   0  0  0  0  0  0  0  0  0  0  0  0
   40.8760   21.8720   37.1680 C   0  0  0  0  0  3  0  0  0  0  0  0
   42.2220   21.8050   37.0430 C   0  0  0  0  0  3  0  0  0  0  0  0
   42.9750   22.6090   36.1900 C   0  0  0  0  0  3  0  0  0  0  0  0
   41.6480   23.6590   35.4010 S   0  0  0  0  0  0  0  0  0  0  0  0
   38.2710   24.2220   37.1920 C   0  0  0  0  0  0  0  0  0  0  0  0
   38.4870   25.5270   36.7910 F   0  0  0  0  0  0  0  0  0  0  0  0
   36.8220   24.0980   37.1810 F   0  0  0  0  0  0  0  0  0  0  0  0
   38.6630   23.9630   38.4470 F   0  0  0  0  0  0  0  0  0  0  0  0
  1  8  1  0  0  0  0
  1  5  1  0  0  0  0
  2  3  1  0  0  0  0
  2  1  2  0  0  0  0
  3  4  2  0  0  0  0
  4  7  1  0  0  0  0
  4  5  1  0  0  0  0
  5 17  1  0  0  0  0
  6  2  1  0  0  0  0
  8  9  1  0  0  0  0
  9 10  2  0  0  0  0
  9 14  1  0  0  0  0
 10 15  1  0  0  0  0
 11 10  1  0  0  0  0
 12 11  2  0  0  0  0
 13 12  1  0  0  0  0
 13  8  2  0  0  0  0
 16 12  1  0  0  0  0
 17 20  1  6  0  0  0
 17 19  1  0  0  0  0
 17 18  1  0  0  0  0
 18 22  1  0  0  0  0
 19 18  1  0  0  0  0
 19 23  1  0  0  0  0
 19 28  1  1  0  0  0
 21 18  1  0  0  0  0
 23 24  2  0  0  0  0
 25 24  1  0  0  0  0
 26 25  2  0  0  0  0
 27 26  1  0  0  0  0
 27 23  1  0  0  0  0
 28 31  1  0  0  0  0
 29 28  1  0  0  0  0
 30 28  1  0  0  0  0
M  END
>  <minimizedAffinity>
-4.54317999

>  <minimizedRMSD>
3.88295364

$$$$
