
 OpenBabel03262519593D

 31 34  0  0  1  0  0  0  0  0999 V2000
   38.5430   23.6120   32.6200 C   0  0  0  0  0  0  0  0  0  0  0  0
   39.1720   23.0320   31.5180 C   0  0  0  0  0  0  0  0  0  0  0  0
   39.4760   21.7720   31.9470 N   0  0  0  0  0  0  0  0  0  0  0  0
   39.0480   21.6570   33.2010 C   0  0  0  0  0  0  0  0  0  0  0  0
   38.4710   22.7720   33.6360 N   0  0  0  0  0  0  0  0  0  0  0  0
   39.3540   23.5070   30.5650 H   0  0  0  0  0  0  0  0  0  0  0  0
   39.2270   20.6950   33.6740 H   0  0  0  0  0  0  0  0  0  0  0  0
   38.0390   24.9750   32.6550 C   0  0  0  0  0  0  0  0  0  0  0  0
   38.8470   26.0000   33.1940 C   0  0  0  0  0  0  0  0  0  0  0  0
   38.3200   27.3120   33.2040 C   0  0  0  0  0  0  0  0  0  0  0  0
   37.0740   27.4950   32.6940 N   0  0  0  0  0  0  0  0  0  0  0  0
   36.3330   26.4810   32.1870 C   0  0  0  0  0  0  0  0  0  0  0  0
   36.8070   25.2280   32.1640 N   0  0  0  0  0  0  0  0  0  0  0  0
   39.8170   25.7280   33.5670 H   0  0  0  0  0  0  0  0  0  0  0  0
   38.9320   28.0880   33.6110 H   0  0  0  0  0  0  0  0  0  0  0  0
   35.3670   26.7930   31.8220 H   0  0  0  0  0  0  0  0  0  0  0  0
   37.9250   22.9080   34.9380 C   0  0  1  0  0  0  0  0  0  0  0  0
   38.2650   22.1220   36.0930 C   0  0  0  0  0  0  0  0  0  0  0  0
   38.8390   23.5560   35.9320 C   0  0  1  0  0  0  0  0  0  0  0  0
   36.8580   23.3050   34.9320 H   0  0  0  0  0  0  0  0  0  0  0  0
   38.9990   21.3070   36.0410 H   0  0  0  0  0  0  0  0  0  0  0  0
   37.5360   21.9910   36.9240 H   0  0  0  0  0  0  0  0  0  0  0  0
   40.3280   23.4060   36.0050 C   0  0  0  0  0  0  0  0  0  0  0  0
   41.3580   24.1240   35.2290 C   0  0  0  0  0  3  0  0  0  0  0  0
   42.6140   23.7400   35.5530 C   0  0  0  0  0  3  0  0  0  0  0  0
   42.9220   22.7760   36.5100 C   0  0  0  0  0  3  0  0  0  0  0  0
   41.2200   22.2790   37.0970 S   0  0  0  0  0  0  0  0  0  0  0  0
   38.2060   24.5050   36.9300 C   0  0  0  0  0  0  0  0  0  0  0  0
   38.4380   25.8120   36.5440 F   0  0  0  0  0  0  0  0  0  0  0  0
   36.7620   24.3710   36.8250 F   0  0  0  0  0  0  0  0  0  0  0  0
   38.5170   24.2490   38.2080 F   0  0  0  0  0  0  0  0  0  0  0  0
  1  8  1  0  0  0  0
  1  5  1  0  0  0  0
  2  3  1  0  0  0  0
  2  1  2  0  0  0  0
  3  4  2  0  0  0  0
  4  5  1  0  0  0  0
  4  7  1  0  0  0  0
  5 17  1  0  0  0  0
  6  2  1  0  0  0  0
  8  9  1  0  0  0  0
  9 10  2  0  0  0  0
  9 14  1  0  0  0  0
 10 15  1  0  0  0  0
 11 10  1  0  0  0  0
 12 11  2  0  0  0  0
 13 12  1  0  0  0  0
 13  8  2  0  0  0  0
 16 12  1  0  0  0  0
 17 20  1  1  0  0  0
 17 19  1  0  0  0  0
 17 18  1  0  0  0  0
 18 22  1  0  0  0  0
 19 23  1  0  0  0  0
 19 18  1  0  0  0  0
 19 28  1  1  0  0  0
 21 18  1  0  0  0  0
 23 27  1  0  0  0  0
 24 25  1  0  0  0  0
 24 23  2  0  0  0  0
 25 26  2  0  0  0  0
 26 27  1  0  0  0  0
 28 31  1  0  0  0  0
 29 28  1  0  0  0  0
 30 28  1  0  0  0  0
M  END
>  <minimizedAffinity>
-4.51185036

>  <minimizedRMSD>
3.91953516

$$$$
