
 OpenBabel03262519573D

 28 31  0  0  1  0  0  0  0  0999 V2000
   38.1460   23.8990   34.6070 C   0  0  0  0  0  0  0  0  0  0  0  0
   38.2890   25.1390   33.9850 C   0  0  0  0  0  0  0  0  0  0  0  0
   37.8790   24.8990   32.6960 N   0  0  0  0  0  0  0  0  0  0  0  0
   37.5360   23.6260   32.6110 C   0  0  0  0  0  0  0  0  0  0  0  0
   37.6900   22.9700   33.7840 N   0  0  0  0  0  0  0  0  0  0  0  0
   38.6420   26.0280   34.4660 H   0  0  0  0  0  0  0  0  0  0  0  0
   37.1780   23.2140   31.6730 H   0  0  0  0  0  0  0  0  0  0  0  0
   38.4610   23.6360   36.0110 C   0  0  0  0  0  0  0  0  0  0  0  0
   39.6770   23.0410   36.3660 C   0  0  0  0  0  0  0  0  0  0  0  0
   39.9220   22.8140   37.7340 C   0  0  0  0  0  0  0  0  0  0  0  0
   38.9830   23.1780   38.6190 N   0  0  0  0  0  0  0  0  0  0  0  0
   37.8080   23.7540   38.2490 C   0  0  0  0  0  0  0  0  0  0  0  0
   37.5380   23.9870   36.9490 N   0  0  0  0  0  0  0  0  0  0  0  0
   40.3670   22.7860   35.5680 H   0  0  0  0  0  0  0  0  0  0  0  0
   40.8630   22.3560   37.9840 H   0  0  0  0  0  0  0  0  0  0  0  0
   37.1190   24.0090   39.0470 H   0  0  0  0  0  0  0  0  0  0  0  0
   37.3910   21.5840   33.9680 C   0  0  1  0  0  0  0  0  0  0  0  0
   36.1160   21.1030   34.5150 C   0  0  0  0  0  0  0  0  0  0  0  0
   36.2840   21.0870   33.0220 C   0  0  2  0  0  0  0  0  0  0  0  0
   38.2770   20.9130   34.0200 H   0  0  0  0  0  0  0  0  0  0  0  0
   36.1220   20.1560   35.0800 H   0  0  0  0  0  0  0  0  0  0  0  0
   35.4310   21.8580   34.9910 H   0  0  0  0  0  0  0  0  0  0  0  0
   35.7020   21.8230   32.4730 H   0  0  0  0  0  0  0  0  0  0  0  0
   36.4400   19.7940   32.3810 C   0  0  0  0  0  0  0  0  0  0  0  0
   37.3430   19.3370   31.4820 C   0  0  0  0  0  3  0  0  0  0  0  0
   37.3030   18.0570   31.0000 C   0  0  0  0  0  3  0  0  0  0  0  0
   36.2170   17.2560   31.5400 C   0  0  0  0  0  3  0  0  0  0  0  0
   35.3670   18.3950   32.6720 S   0  0  0  0  0  0  0  0  0  0  0  0
  1  8  1  0  0  0  0
  2  6  1  0  0  0  0
  2  1  2  0  0  0  0
  3  2  1  0  0  0  0
  4  3  2  0  0  0  0
  4  5  1  0  0  0  0
  5 17  1  0  0  0  0
  5  1  1  0  0  0  0
  7  4  1  0  0  0  0
  8  9  2  0  0  0  0
  8 13  1  0  0  0  0
  9 10  1  0  0  0  0
 10 15  1  0  0  0  0
 10 11  2  0  0  0  0
 12 11  1  0  0  0  0
 12 16  1  0  0  0  0
 13 12  2  0  0  0  0
 14  9  1  0  0  0  0
 17 20  1  1  0  0  0
 17 18  1  0  0  0  0
 18 22  1  0  0  0  0
 18 21  1  0  0  0  0
 19 23  1  6  0  0  0
 19 17  1  0  0  0  0
 19 18  1  0  0  0  0
 24 28  1  0  0  0  0
 24 19  1  0  0  0  0
 25 24  2  0  0  0  0
 26 25  1  0  0  0  0
 26 27  2  0  0  0  0
 27 28  1  0  0  0  0
M  END
>  <minimizedAffinity>
-4.53121614

>  <minimizedRMSD>
1.00781107

$$$$
