
 OpenBabel03262519563D

 28 31  0  0  1  0  0  0  0  0999 V2000
   38.1580   23.8960   34.6320 C   0  0  0  0  0  0  0  0  0  0  0  0
   38.3120   25.1250   33.9880 C   0  0  0  0  0  0  0  0  0  0  0  0
   37.9100   24.8640   32.7020 N   0  0  0  0  0  0  0  0  0  0  0  0
   37.5600   23.5920   32.6380 C   0  0  0  0  0  0  0  0  0  0  0  0
   37.7010   22.9550   33.8240 N   0  0  0  0  0  0  0  0  0  0  0  0
   38.6680   26.0200   34.4560 H   0  0  0  0  0  0  0  0  0  0  0  0
   37.2060   23.1640   31.7050 H   0  0  0  0  0  0  0  0  0  0  0  0
   38.4620   23.6570   36.0430 C   0  0  0  0  0  0  0  0  0  0  0  0
   39.6510   23.0210   36.4140 C   0  0  0  0  0  0  0  0  0  0  0  0
   39.8860   22.8200   37.7890 C   0  0  0  0  0  0  0  0  0  0  0  0
   38.9640   23.2460   38.6630 N   0  0  0  0  0  0  0  0  0  0  0  0
   37.8140   23.8620   38.2770 C   0  0  0  0  0  0  0  0  0  0  0  0
   37.5540   24.0720   36.9710 N   0  0  0  0  0  0  0  0  0  0  0  0
   40.3300   22.7160   35.6240 H   0  0  0  0  0  0  0  0  0  0  0  0
   40.8070   22.3290   38.0510 H   0  0  0  0  0  0  0  0  0  0  0  0
   37.1380   24.1660   39.0670 H   0  0  0  0  0  0  0  0  0  0  0  0
   37.3920   21.5750   34.0300 C   0  0  1  0  0  0  0  0  0  0  0  0
   36.0980   21.1100   34.5420 C   0  0  0  0  0  0  0  0  0  0  0  0
   36.3200   21.0570   33.0570 C   0  0  2  0  0  0  0  0  0  0  0  0
   38.2740   20.9050   34.1310 H   0  0  0  0  0  0  0  0  0  0  0  0
   36.0810   20.1770   35.1300 H   0  0  0  0  0  0  0  0  0  0  0  0
   35.3980   21.8770   34.9740 H   0  0  0  0  0  0  0  0  0  0  0  0
   35.7590   21.7800   32.4690 H   0  0  0  0  0  0  0  0  0  0  0  0
   36.4960   19.7480   32.4540 C   0  0  0  0  0  0  0  0  0  0  0  0
   37.4790   19.2400   31.6730 C   0  0  0  0  0  3  0  0  0  0  0  0
   37.4420   17.9550   31.2050 C   0  0  0  0  0  3  0  0  0  0  0  0
   36.2670   17.2070   31.6220 C   0  0  0  0  0  3  0  0  0  0  0  0
   35.3380   18.3980   32.6310 S   0  0  0  0  0  0  0  0  0  0  0  0
  1  8  1  0  0  0  0
  2  6  1  0  0  0  0
  2  1  2  0  0  0  0
  3  2  1  0  0  0  0
  4  3  2  0  0  0  0
  4  5  1  0  0  0  0
  5 17  1  0  0  0  0
  5  1  1  0  0  0  0
  7  4  1  0  0  0  0
  8  9  2  0  0  0  0
  8 13  1  0  0  0  0
  9 10  1  0  0  0  0
 10 15  1  0  0  0  0
 10 11  2  0  0  0  0
 12 11  1  0  0  0  0
 12 16  1  0  0  0  0
 13 12  2  0  0  0  0
 14  9  1  0  0  0  0
 17 20  1  1  0  0  0
 17 18  1  0  0  0  0
 18 22  1  0  0  0  0
 18 21  1  0  0  0  0
 19 23  1  6  0  0  0
 19 17  1  0  0  0  0
 19 18  1  0  0  0  0
 24 28  1  0  0  0  0
 24 19  1  0  0  0  0
 25 24  2  0  0  0  0
 26 27  2  0  0  0  0
 26 25  1  0  0  0  0
 27 28  1  0  0  0  0
M  END
>  <minimizedAffinity>
-4.56212616

>  <minimizedRMSD>
0.984921157

$$$$
