
 OpenBabel03262519343D

 18 19  0  0  0  0  0  0  0  0999 V2000
   37.9780   24.2290   38.4430 C   0  0  0  0  0  0  0  0  0  0  0  0
   37.8130   24.6750   37.1290 C   0  0  0  0  0  0  0  0  0  0  0  0
   38.6580   24.1620   36.1450 C   0  0  0  0  0  0  0  0  0  0  0  0
   39.6110   23.2450   36.5120 N   0  0  0  0  0  0  0  0  0  0  0  0
   39.7350   22.8420   37.7920 C   0  0  0  0  0  0  0  0  0  0  0  0
   38.9190   23.3360   38.7470 N   0  0  0  0  0  0  0  0  0  0  0  0
   37.3320   24.6170   39.2130 H   0  0  0  0  0  0  0  0  0  0  0  0
   37.0780   25.3880   36.8270 H   0  0  0  0  0  0  0  0  0  0  0  0
   40.5280   22.1160   37.9330 H   0  0  0  0  0  0  0  0  0  0  0  0
   38.5330   24.6010   34.7140 C   0  0  0  0  0  0  0  0  0  0  0  0
   37.6080   25.1870   34.6360 H   0  0  0  0  0  0  0  0  0  0  0  0
   38.5530   23.6720   34.1200 H   0  0  0  0  0  0  0  0  0  0  0  0
   39.7170   25.4460   34.3890 C   0  0  0  0  0  0  0  0  0  0  0  0
   40.1100   26.6030   34.9970 N   0  0  0  0  0  0  0  0  0  0  0  0
   41.1940   26.9940   34.3870 O   0  0  0  0  0  0  0  0  0  0  0  0
   41.4960   26.1430   33.4350 C   0  0  0  0  0  0  0  0  0  0  0  0
   42.3670   26.2410   32.7690 H   0  0  0  0  0  0  0  0  0  0  0  0
   40.5850   25.1280   33.3880 N   0  0  0  0  0  0  0  0  0  0  0  0
  1  6  1  0  0  0  0
  1  7  1  0  0  0  0
  2  1  2  0  0  0  0
  3  4  2  0  0  0  0
  3  2  1  0  0  0  0
  4  5  1  0  0  0  0
  5  9  1  0  0  0  0
  5  6  2  0  0  0  0
  8  2  1  0  0  0  0
 10  3  1  0  0  0  0
 11 10  1  0  0  0  0
 12 10  1  0  0  0  0
 13 10  1  0  0  0  0
 13 14  2  0  0  0  0
 15 14  1  0  0  0  0
 16 15  1  0  0  0  0
 17 16  1  0  0  0  0
 18 16  2  0  0  0  0
 18 13  1  0  0  0  0
M  END
>  <minimizedAffinity>
-3.28648376

>  <minimizedRMSD>
5.83384418

$$$$
