
 OpenBabel03262519503D

 20 21  0  0  0  0  0  0  0  0999 V2000
   37.9640   23.3360   33.9020 C   0  0  0  0  0  0  0  0  0  0  0  0
   38.2020   24.4420   34.8170 C   0  0  0  0  0  0  0  0  0  0  0  0
   37.7590   25.6470   34.3830 C   0  0  0  0  0  0  0  0  0  0  0  0
   37.1210   25.7740   33.1550 N   0  0  0  0  0  0  0  0  0  0  0  0
   36.9210   24.7310   32.3520 C   0  0  0  0  0  0  0  0  0  0  0  0
   37.3310   23.5250   32.7050 N   0  0  0  0  0  0  0  0  0  0  0  0
   38.1960   22.2760   33.9520 H   0  0  0  0  0  0  0  0  0  0  0  0
   36.4120   25.1130   31.4860 H   0  0  0  0  0  0  0  0  0  0  0  0
   38.8380   23.8730   36.0090 C   0  0  0  0  0  0  0  0  0  0  0  0
   38.3830   23.7110   37.3130 C   0  0  0  0  0  0  0  0  0  0  0  0
   39.2060   23.0500   38.1630 C   0  0  0  0  0  0  0  0  0  0  0  0
   40.4010   22.5690   37.7870 C   0  0  0  0  0  0  0  0  0  0  0  0
   40.4410   23.0770   36.0110 S   0  0  0  0  0  0  0  0  0  0  0  0
   38.1230   26.7370   35.3410 C   0  0  0  0  0  0  0  0  0  0  0  0
   38.0700   26.3350   36.3550 H   0  0  0  0  0  0  0  0  0  0  0  0
   37.4560   27.6110   35.1900 H   0  0  0  0  0  0  0  0  0  0  0  0
   39.5810   27.1100   35.0520 C   0  0  0  0  0  0  0  0  0  0  0  0
   39.4600   28.1280   34.5060 H   0  0  0  0  0  0  0  0  0  0  0  0
   40.1710   27.3310   35.9370 H   0  0  0  0  0  0  0  0  0  0  0  0
   40.0370   26.5050   34.2590 H   0  0  0  0  0  0  0  0  0  0  0  0
  1  7  1  0  0  0  0
  1  2  1  0  0  0  0
  2  9  1  0  0  0  0
  3  2  2  0  0  0  0
  3 14  1  0  0  0  0
  4  3  1  0  0  0  0
  5  6  1  0  0  0  0
  5  4  2  0  0  0  0
  6  1  2  0  0  0  0
  8  5  1  0  0  0  0
  9 13  1  0  0  0  0
  9 10  2  0  0  0  0
 10 11  1  0  0  0  0
 12 11  2  0  0  0  0
 13 12  1  0  0  0  0
 14 15  1  0  0  0  0
 16 14  1  0  0  0  0
 17 14  1  0  0  0  0
 17 19  1  0  0  0  0
 18 17  1  0  0  0  0
 20 17  1  0  0  0  0
M  END
>  <minimizedAffinity>
-3.85420728

>  <minimizedRMSD>
4.26712465

$$$$
