
 OpenBabel03262519563D

 28 31  0  0  1  0  0  0  0  0999 V2000
   38.1590   23.8960   34.6330 C   0  0  0  0  0  0  0  0  0  0  0  0
   38.3140   25.1240   33.9890 C   0  0  0  0  0  0  0  0  0  0  0  0
   37.9120   24.8640   32.7020 N   0  0  0  0  0  0  0  0  0  0  0  0
   37.5610   23.5920   32.6380 C   0  0  0  0  0  0  0  0  0  0  0  0
   37.7020   22.9550   33.8240 N   0  0  0  0  0  0  0  0  0  0  0  0
   38.6700   26.0190   34.4560 H   0  0  0  0  0  0  0  0  0  0  0  0
   37.2070   23.1650   31.7050 H   0  0  0  0  0  0  0  0  0  0  0  0
   38.4620   23.6570   36.0430 C   0  0  0  0  0  0  0  0  0  0  0  0
   39.6530   23.0230   36.4150 C   0  0  0  0  0  0  0  0  0  0  0  0
   39.8870   22.8210   37.7890 C   0  0  0  0  0  0  0  0  0  0  0  0
   38.9640   23.2450   38.6630 N   0  0  0  0  0  0  0  0  0  0  0  0
   37.8130   23.8590   38.2770 C   0  0  0  0  0  0  0  0  0  0  0  0
   37.5530   24.0690   36.9710 N   0  0  0  0  0  0  0  0  0  0  0  0
   40.3320   22.7190   35.6250 H   0  0  0  0  0  0  0  0  0  0  0  0
   40.8090   22.3310   38.0520 H   0  0  0  0  0  0  0  0  0  0  0  0
   37.1350   24.1620   39.0670 H   0  0  0  0  0  0  0  0  0  0  0  0
   37.3920   21.5760   34.0300 C   0  0  1  0  0  0  0  0  0  0  0  0
   36.0960   21.1110   34.5410 C   0  0  0  0  0  0  0  0  0  0  0  0
   36.3200   21.0580   33.0560 C   0  0  2  0  0  0  0  0  0  0  0  0
   38.2730   20.9040   34.1330 H   0  0  0  0  0  0  0  0  0  0  0  0
   36.0780   20.1780   35.1290 H   0  0  0  0  0  0  0  0  0  0  0  0
   35.3960   21.8790   34.9710 H   0  0  0  0  0  0  0  0  0  0  0  0
   35.7610   21.7810   32.4670 H   0  0  0  0  0  0  0  0  0  0  0  0
   36.4960   19.7480   32.4540 C   0  0  0  0  0  0  0  0  0  0  0  0
   37.4790   19.2410   31.6720 C   0  0  0  0  0  3  0  0  0  0  0  0
   37.4420   17.9550   31.2040 C   0  0  0  0  0  3  0  0  0  0  0  0
   36.2680   17.2080   31.6210 C   0  0  0  0  0  3  0  0  0  0  0  0
   35.3390   18.3990   32.6320 S   0  0  0  0  0  0  0  0  0  0  0  0
  1  8  1  0  0  0  0
  2  6  1  0  0  0  0
  2  1  2  0  0  0  0
  3  2  1  0  0  0  0
  4  3  2  0  0  0  0
  4  5  1  0  0  0  0
  5 17  1  0  0  0  0
  5  1  1  0  0  0  0
  7  4  1  0  0  0  0
  8  9  2  0  0  0  0
  8 13  1  0  0  0  0
  9 10  1  0  0  0  0
 10 15  1  0  0  0  0
 10 11  2  0  0  0  0
 12 11  1  0  0  0  0
 12 16  1  0  0  0  0
 13 12  2  0  0  0  0
 14  9  1  0  0  0  0
 17 20  1  1  0  0  0
 17 18  1  0  0  0  0
 18 22  1  0  0  0  0
 18 21  1  0  0  0  0
 19 23  1  6  0  0  0
 19 17  1  0  0  0  0
 19 18  1  0  0  0  0
 24 28  1  0  0  0  0
 24 19  1  0  0  0  0
 25 24  2  0  0  0  0
 26 27  2  0  0  0  0
 26 25  1  0  0  0  0
 27 28  1  0  0  0  0
M  END
>  <minimizedAffinity>
-4.56104183

>  <minimizedRMSD>
0.991114318

$$$$
