
 OpenBabel03262518223D

 21 22  0  0  0  0  0  0  0  0999 V2000
   39.7820   23.0360   37.0370 C   0  0  0  0  0  0  0  0  0  0  0  0
   39.2560   23.8440   36.0260 C   0  0  0  0  0  0  0  0  0  0  0  0
   38.1870   24.6980   36.4110 C   0  0  0  0  0  0  0  0  0  0  0  0
   37.7810   24.6560   37.6890 N   0  0  0  0  0  0  0  0  0  0  0  0
   38.3100   23.8650   38.6320 C   0  0  0  0  0  0  0  0  0  0  0  0
   39.3150   23.0550   38.2940 N   0  0  0  0  0  0  0  0  0  0  0  0
   39.5640   23.8910   35.0120 H   0  0  0  0  0  0  0  0  0  0  0  0
   37.9670   23.8480   39.6550 H   0  0  0  0  0  0  0  0  0  0  0  0
   37.5780   25.5680   35.4500 N   0  0  0  0  0  0  0  0  0  0  0  0
   38.0050   26.9140   35.3440 C   0  0  0  0  0  0  0  0  0  0  0  0
   38.6130   27.4980   36.3140 N   0  0  0  0  0  0  0  0  0  0  0  0
   37.7300   27.5720   34.1280 N   0  0  0  0  0  0  0  0  0  0  0  0
   38.9550   28.4830   36.3020 H   0  0  0  0  0  0  0  0  0  0  0  0
   36.8170   25.1210   34.8630 H   0  0  0  0  0  0  0  0  0  0  0  0
   38.4480   27.9380   33.4640 H   0  0  0  0  0  0  0  0  0  0  0  0
   36.9280   27.8810   33.5490 H   0  0  0  0  0  0  0  0  0  0  0  0
   40.8680   22.1630   36.6610 C   0  0  0  0  0  0  0  0  0  0  0  0
   41.6530   21.3390   37.4460 C   0  0  0  0  0  0  0  0  0  0  0  0
   42.6380   20.5920   36.8680 C   0  0  0  0  0  0  0  0  0  0  0  0
   42.7600   20.7480   35.4310 C   0  0  0  0  0  0  0  0  0  0  0  0
   41.4020   21.9960   35.0400 S   0  0  0  0  0  0  0  0  0  0  0  0
  1  6  1  0  0  0  0
  2  3  1  0  0  0  0
  2  1  2  0  0  0  0
  3  4  2  0  0  0  0
  4  5  1  0  0  0  0
  5  8  1  0  0  0  0
  6  5  2  0  0  0  0
  7  2  1  0  0  0  0
  9  3  1  0  0  0  0
 10  9  1  0  0  0  0
 10 11  2  0  0  0  0
 12 10  1  0  0  0  0
 13 11  1  0  0  0  0
 14  9  1  0  0  0  0
 15 12  1  0  0  0  0
 16 12  1  0  0  0  0
 17  1  1  0  0  0  0
 17 18  2  0  0  0  0
 19 18  1  0  0  0  0
 20 19  2  0  0  0  0
 21 20  1  0  0  0  0
 21 17  1  0  0  0  0
M  END
>  <minimizedAffinity>
-4.59619856

>  <minimizedRMSD>
0.881479979

$$$$
