
     RDKit          3D

 31 34  0  0  0  0  0  0  0  0999 V2000
   38.0308   23.4678   34.6166 C   0  0  0  0  0  0  0  0  0  0  0  0
   38.2638   24.5716   33.7961 C   0  0  0  0  0  0  0  0  0  0  0  0
   37.7593   24.1794   32.5811 N   0  0  0  0  0  0  0  0  0  0  0  0
   37.2839   22.9539   32.7178 C   0  0  0  0  0  0  0  0  0  0  0  0
   37.4356   22.4765   33.9750 N   0  0  0  0  0  0  0  0  0  0  0  0
   38.3965   23.3964   36.0307 C   0  0  0  0  0  0  0  0  0  0  0  0
   39.6001   22.7990   36.4234 C   0  0  0  0  0  0  0  0  0  0  0  0
   39.8964   22.7608   37.8002 C   0  0  0  0  0  0  0  0  0  0  0  0
   39.0152   23.2957   38.6573 N   0  0  0  0  0  0  0  0  0  0  0  0
   37.8514   23.8711   38.2506 C   0  0  0  0  0  0  0  0  0  0  0  0
   37.5335   23.9263   36.9417 N   0  0  0  0  0  0  0  0  0  0  0  0
   37.0085   21.1792   34.3927 C   0  0  1  0  0  0  0  0  0  0  0  0
   35.8381   20.9566   35.2506 C   0  0  0  0  0  0  0  0  0  0  0  0
   35.6618   20.7707   33.7704 C   0  0  2  0  0  0  0  0  0  0  0  0
   38.7332   25.4806   34.1118 H   0  0  0  0  0  0  0  0  0  0  0  0
   36.8328   22.4409   31.8744 H   0  0  0  0  0  0  0  0  0  0  0  0
   40.2424   22.3961   35.6458 H   0  0  0  0  0  0  0  0  0  0  0  0
   40.8264   22.2970   38.0778 H   0  0  0  0  0  0  0  0  0  0  0  0
   37.2110   24.2730   39.0282 H   0  0  0  0  0  0  0  0  0  0  0  0
   37.7884   20.3870   34.3453 H   0  0  0  0  0  0  0  0  0  0  0  0
   35.8471   20.0790   35.9194 H   0  0  0  0  0  0  0  0  0  0  0  0
   35.3816   21.8505   35.7581 H   0  0  0  0  0  0  0  0  0  0  0  0
   35.0720   21.5323   33.2647 H   0  0  0  0  0  0  0  0  0  0  0  0
   35.5004   19.4133   33.2821 C   0  0  0  0  0  0  0  0  0  0  0  0
   36.4003   18.4342   33.0265 C   0  0  0  0  0  0  0  0  0  0  0  0
   36.0205   17.2049   32.5596 C   0  0  0  0  0  0  0  0  0  0  0  0
   34.5872   17.0603   32.3707 C   0  0  0  0  0  0  0  0  0  0  0  0
   33.9249   18.6764   32.8722 S   0  0  0  0  0  0  0  0  0  0  0  0
   37.4424   18.6630   33.2071 H   0  0  0  0  0  0  0  0  0  0  0  0
   36.6975   16.3912   32.3403 H   0  0  0  0  0  0  0  0  0  0  0  0
   34.1863   16.0535   31.9797 H   0  0  0  0  0  0  0  0  0  0  0  0
  1  6  1  0
  2  1  2  0
  3  4  2  0
  3  2  1  0
  4  5  1  0
  5 12  1  0
  5  1  1  0
  6  7  2  0
  6 11  1  0
  7  8  1  0
  8  9  2  0
 10  9  1  0
 11 10  2  0
 12 13  1  0
 14 12  1  0
 14 13  1  0
  2 15  1  0
  4 16  1  0
  7 17  1  0
  8 18  1  0
 10 19  1  0
 12 20  1  1
 13 21  1  0
 13 22  1  0
 14 23  1  6
 24 25  2  0
 25 26  1  0
 26 27  2  0
 27 28  1  0
 28 24  1  0
 25 29  1  0
 26 30  1  0
 27 31  1  0
 14 24  1  0
M  ISO  8  15  14  16  14  17  14  18  14  19  14  20  13  21  13  22  13
M  ISO  1  23  13
M  END
>  <DihAtoms>  (1) 
11,13,23,24

>  <DihDeg>  (1) 
30.788064667125894

$$$$
