
 OpenBabel03262519593D

 33 36  0  0  1  0  0  0  0  0999 V2000
   39.0890   22.3760   36.2580 C   0  0  1  0  0  0  0  0  0  0  0  0
   40.2100   23.1730   36.6750 C   0  0  0  0  0  0  0  0  0  0  0  0
   38.7610   23.7540   36.7420 C   0  0  1  0  0  0  0  0  0  0  0  0
   38.8090   21.5150   36.9460 H   0  0  0  0  0  0  0  0  0  0  0  0
   40.6830   22.9600   37.6550 H   0  0  0  0  0  0  0  0  0  0  0  0
   40.9140   23.6670   35.9830 H   0  0  0  0  0  0  0  0  0  0  0  0
   39.3720   22.0560   33.7890 C   0  0  0  0  0  0  0  0  0  0  0  0
   38.5470   21.7710   32.7100 C   0  0  0  0  0  0  0  0  0  0  0  0
   37.3130   21.6580   33.2640 N   0  0  0  0  0  0  0  0  0  0  0  0
   37.4310   21.8650   34.5750 C   0  0  0  0  0  0  0  0  0  0  0  0
   38.6910   22.1140   34.9230 N   0  0  0  0  0  0  0  0  0  0  0  0
   38.9130   21.6800   31.6750 H   0  0  0  0  0  0  0  0  0  0  0  0
   36.4900   21.7950   35.1130 H   0  0  0  0  0  0  0  0  0  0  0  0
   40.8170   22.2500   33.7000 C   0  0  0  0  0  0  0  0  0  0  0  0
   41.6820   21.1670   33.9690 C   0  0  0  0  0  0  0  0  0  0  0  0
   43.0740   21.3980   33.8690 C   0  0  0  0  0  0  0  0  0  0  0  0
   43.4730   22.6500   33.5190 N   0  0  0  0  0  0  0  0  0  0  0  0
   42.6130   23.6570   33.2700 C   0  0  0  0  0  0  0  0  0  0  0  0
   41.2780   23.4660   33.3580 N   0  0  0  0  0  0  0  0  0  0  0  0
   41.2650   20.2080   34.2410 H   0  0  0  0  0  0  0  0  0  0  0  0
   43.7520   20.5860   34.0690 H   0  0  0  0  0  0  0  0  0  0  0  0
   43.0930   24.5810   33.0060 H   0  0  0  0  0  0  0  0  0  0  0  0
   38.7610   25.0240   35.9500 C   0  0  0  0  0  0  0  0  0  0  0  0
   39.7880   25.7970   35.5130 C   0  0  0  0  0  3  0  0  0  0  0  0
   39.4780   26.9320   34.7910 C   0  0  0  0  0  3  0  0  0  0  0  0
   38.2110   27.2780   34.5190 N   0  0  0  0  0  0  0  0  0  0  0  0
   37.1990   26.5040   34.9580 C   0  0  0  0  0  0  0  0  0  0  0  0
   36.2040   26.8340   34.7080 H   0  0  0  0  0  0  0  0  0  0  0  0
   37.4770   25.3910   35.6650 N   0  0  0  0  0  0  0  0  0  0  0  0
   38.3080   23.8970   38.1760 C   0  0  0  0  0  0  0  0  0  0  0  0
   37.3050   22.9920   38.4500 F   0  0  0  0  0  0  0  0  0  0  0  0
   39.4060   23.4500   39.0330 F   0  0  0  0  0  0  0  0  0  0  0  0
   38.0370   25.1540   38.5550 F   0  0  0  0  0  0  0  0  0  0  0  0
  1  2  1  0  0  0  0
  1  3  1  0  0  0  0
  1  4  1  1  0  0  0
  2  3  1  0  0  0  0
  2  5  1  0  0  0  0
  3 30  1  1  0  0  0
  6  2  1  0  0  0  0
  7 11  1  0  0  0  0
  8  9  1  0  0  0  0
  8  7  2  0  0  0  0
  9 10  2  0  0  0  0
 10 11  1  0  0  0  0
 10 13  1  0  0  0  0
 11  1  1  0  0  0  0
 12  8  1  0  0  0  0
 14  7  1  0  0  0  0
 14 15  1  0  0  0  0
 15 20  1  0  0  0  0
 16 15  2  0  0  0  0
 16 21  1  0  0  0  0
 17 16  1  0  0  0  0
 18 19  1  0  0  0  0
 18 17  2  0  0  0  0
 19 14  2  0  0  0  0
 22 18  1  0  0  0  0
 23  3  1  0  0  0  0
 24 23  2  0  0  0  0
 25 24  1  0  0  0  0
 26 25  2  0  0  0  0
 26 27  1  0  0  0  0
 27 29  2  0  0  0  0
 28 27  1  0  0  0  0
 29 23  1  0  0  0  0
 30 31  1  0  0  0  0
 30 33  1  0  0  0  0
 30 32  1  0  0  0  0
M  END
>  <minimizedAffinity>
-4.98334885

>  <minimizedRMSD>
4.05134821

$$$$
