
 OpenBabel03262519393D

 34 36  0  0  1  0  0  0  0  0999 V2000
   38.3220   25.4750   34.5380 N   0  0  0  0  0  0  0  0  0  0  0  0
   37.2870   26.4200   34.7500 C   0  0  0  0  0  0  0  0  0  0  0  0
   37.2260   27.2470   33.4990 C   0  0  0  0  0  0  0  0  0  0  0  0
   38.2870   26.6490   32.5940 C   0  0  0  0  0  0  0  0  0  0  0  0
   38.2460   25.1870   33.1080 C   0  0  2  0  0  0  0  0  0  0  0  0
   37.5850   27.0940   35.6020 H   0  0  0  0  0  0  0  0  0  0  0  0
   36.3120   25.9710   35.0230 H   0  0  0  0  0  0  0  0  0  0  0  0
   36.2520   27.0260   32.9970 H   0  0  0  0  0  0  0  0  0  0  0  0
   37.3630   28.3290   33.6790 H   0  0  0  0  0  0  0  0  0  0  0  0
   39.2910   27.0640   32.7620 H   0  0  0  0  0  0  0  0  0  0  0  0
   38.0030   26.6680   31.5280 H   0  0  0  0  0  0  0  0  0  0  0  0
   39.1730   24.6760   32.8140 H   0  0  0  0  0  0  0  0  0  0  0  0
   38.1310   24.2240   35.2060 C   0  0  0  0  0  0  0  0  0  0  0  0
   37.7330   23.4140   34.5790 H   0  0  0  0  0  0  0  0  0  0  0  0
   37.3990   24.4040   36.0390 H   0  0  0  0  0  0  0  0  0  0  0  0
   41.7900   23.5080   35.8990 C   0  0  0  0  0  0  0  0  0  0  0  0
   40.6450   24.0110   35.2890 C   0  0  0  0  0  0  0  0  0  0  0  0
   39.4000   23.7080   35.8240 C   0  0  0  0  0  0  0  0  0  0  0  0
   39.3630   22.9160   36.9480 N   0  0  0  0  0  0  0  0  0  0  0  0
   40.4970   22.4500   37.5060 C   0  0  0  0  0  0  0  0  0  0  0  0
   41.6910   22.7450   36.9860 N   0  0  0  0  0  0  0  0  0  0  0  0
   42.7620   23.7320   35.4970 H   0  0  0  0  0  0  0  0  0  0  0  0
   40.7190   24.6350   34.4010 H   0  0  0  0  0  0  0  0  0  0  0  0
   40.5020   21.8250   38.3870 H   0  0  0  0  0  0  0  0  0  0  0  0
   37.1040   24.5550   32.7470 O   0  0  0  0  0  0  0  0  0  0  0  0
   37.0720   23.3260   32.1400 C   0  0  0  0  0  0  0  0  0  0  0  0
   35.7690   22.9900   31.7920 C   0  0  0  0  0  0  0  0  0  0  0  0
   34.8720   23.5720   31.9510 H   0  0  0  0  0  0  0  0  0  0  0  0
   35.4550   21.7910   31.1600 C   0  0  0  0  0  0  0  0  0  0  0  0
   36.4670   20.8870   30.8590 C   0  0  0  0  0  0  0  0  0  0  0  0
   36.3590   19.9240   30.3730 H   0  0  0  0  0  0  0  0  0  0  0  0
   37.7620   21.2310   31.2110 C   0  0  0  0  0  0  0  0  0  0  0  0
   38.6260   20.5960   31.0220 H   0  0  0  0  0  0  0  0  0  0  0  0
   38.0630   22.4220   31.8370 C   0  0  0  0  0  0  0  0  0  0  0  0
  1  2  1  0  0  0  0
  1 13  1  0  0  0  0
  2  7  1  0  0  0  0
  2  6  1  0  0  0  0
  3  9  1  0  0  0  0
  3  2  1  0  0  0  0
  4 10  1  0  0  0  0
  4  5  1  0  0  0  0
  4  3  1  0  0  0  0
  5 12  1  6  0  0  0
  5  1  1  0  0  0  0
  8  3  1  0  0  0  0
 11  4  1  0  0  0  0
 13 18  1  0  0  0  0
 13 15  1  0  0  0  0
 14 13  1  0  0  0  0
 16 21  1  0  0  0  0
 17 18  1  0  0  0  0
 17 16  2  0  0  0  0
 18 19  2  0  0  0  0
 19 20  1  0  0  0  0
 20 24  1  0  0  0  0
 21 20  2  0  0  0  0
 22 16  1  0  0  0  0
 23 17  1  0  0  0  0
 25  5  1  0  0  0  0
 26 25  1  0  0  0  0
 27 28  1  0  0  0  0
 27 26  2  0  0  0  0
 29 27  1  0  0  0  0
 30 29  2  0  0  0  0
 30 32  1  0  0  0  0
 31 30  1  0  0  0  0
 32 34  2  0  0  0  0
 33 32  1  0  0  0  0
 34 26  1  0  0  0  0
M  END
>  <minimizedAffinity>
-4.36013126

>  <minimizedRMSD>
5.25323391

$$$$
