
     RDKit          3D

 32 35  0  0  0  0  0  0  0  0999 V2000
   38.0286   23.4685   34.6175 C   0  0  0  0  0  0  0  0  0  0  0  0
   38.2662   24.5722   33.8003 C   0  0  0  0  0  0  0  0  0  0  0  0
   37.7621   24.1761   32.5863 N   0  0  0  0  0  0  0  0  0  0  0  0
   37.2859   22.9602   32.7144 C   0  0  0  0  0  0  0  0  0  0  0  0
   37.4296   22.4733   33.9694 N   0  0  0  0  0  0  0  0  0  0  0  0
   38.3906   23.3987   36.0263 C   0  0  0  0  0  0  0  0  0  0  0  0
   39.5951   22.7976   36.4205 C   0  0  0  0  0  0  0  0  0  0  0  0
   39.8947   22.7578   37.7964 C   0  0  0  0  0  0  0  0  0  0  0  0
   39.0148   23.2958   38.6588 N   0  0  0  0  0  0  0  0  0  0  0  0
   37.8519   23.8735   38.2474 C   0  0  0  0  0  0  0  0  0  0  0  0
   37.5375   23.9274   36.9464 N   0  0  0  0  0  0  0  0  0  0  0  0
   37.0008   21.1730   34.3960 C   0  0  1  0  0  0  0  0  0  0  0  0
   35.8487   20.9617   35.2532 C   0  0  0  0  0  0  0  0  0  0  0  0
   35.6686   20.7690   33.7710 C   0  0  2  0  0  0  0  0  0  0  0  0
   38.7394   25.4778   34.1314 H   0  0  0  0  0  0  0  0  0  0  0  0
   36.8255   22.4104   31.8902 H   0  0  0  0  0  0  0  0  0  0  0  0
   40.2654   22.3809   35.6832 H   0  0  0  0  0  0  0  0  0  0  0  0
   40.8251   22.2963   38.1336 H   0  0  0  0  0  0  0  0  0  0  0  0
   37.1647   24.2975   38.9669 H   0  0  0  0  0  0  0  0  0  0  0  0
   37.8310   20.4378   34.4071 H   0  0  0  0  0  0  0  0  0  0  0  0
   35.8025   20.0708   35.9221 H   0  0  0  0  0  0  0  0  0  0  0  0
   35.2740   21.8132   35.6738 H   0  0  0  0  0  0  0  0  0  0  0  0
   35.0829   21.4988   33.2044 H   0  0  0  0  0  0  0  0  0  0  0  0
   35.5226   19.3431   33.3476 C   0  0  0  0  0  0  0  0  0  0  0  0
   34.3059   18.9734   32.8022 C   0  0  0  0  0  0  0  0  0  0  0  0
   34.2438   17.6389   32.4336 C   0  0  0  0  0  0  0  0  0  0  0  0
   35.2532   16.7858   32.5857 N   0  0  0  0  0  0  0  0  0  0  0  0
   36.4220   17.1846   33.1209 C   0  0  0  0  0  0  0  0  0  0  0  0
   37.3341   16.6376   33.3164 H   0  0  0  0  0  0  0  0  0  0  0  0
   36.5472   18.4884   33.5050 N   0  0  0  0  0  0  0  0  0  0  0  0
   33.4614   19.5999   32.6524 H   0  0  0  0  0  0  0  0  0  0  0  0
   33.3567   17.1944   31.9906 H   0  0  0  0  0  0  0  0  0  0  0  0
  1  6  1  0
  2  1  2  0
  3  4  2  0
  3  2  1  0
  4  5  1  0
  5 12  1  0
  5  1  1  0
  6  7  2  0
  6 11  1  0
  7  8  1  0
  8  9  2  0
 10  9  1  0
 11 10  2  0
 12 13  1  0
 14 12  1  0
 14 13  1  0
  2 15  1  0
  4 16  1  0
  7 17  1  0
  8 18  1  0
 10 19  1  0
 12 20  1  1
 13 21  1  0
 13 22  1  0
 14 23  1  6
 24 25  2  0
 25 26  1  0
 26 27  2  0
 27 28  1  0
 28 29  1  0
 28 30  2  0
 30 24  1  0
 25 31  1  0
 26 32  1  0
 14 24  1  0
M  ISO  8  15  14  16  14  17  14  18  14  19  14  20  13  21  13  22  13
M  ISO  2  23  13  29  14
M  END
>  <DihAtoms>  (1) 
11,13,23,24

>  <DihDeg>  (1) 
28.921082331084857

$$$$
