REMARK  Name = 
REMARK  4 active torsions:
REMARK  status: ('A' for Active; 'I' for Inactive)
REMARK    1  A    between atoms: C_1  and  C_6
REMARK    2  A    between atoms: N_5  and  C_12
REMARK    3  A    between atoms: C_14  and  C_15
REMARK    4  A    between atoms: C_14  and  C_27
REMARK                            x       y       z     vdW  Elec       q    Type
REMARK                         _______ _______ _______ _____ _____    ______ ____
ROOT
ATOM      1  C   UNL     1      38.544  23.950  35.899  0.00  0.00    +0.000 C 
ATOM      2  C   UNL     1      38.081  25.229  36.363  0.00  0.00    +0.000 C 
ATOM      3  C   UNL     1      37.561  23.914  37.028  0.00  0.00    +0.000 C 
ATOM      4  H   UNL     1      39.621  23.691  36.154  0.00  0.00    +0.000 HD
ATOM      5  H   UNL     1      38.754  25.847  36.991  0.00  0.00    +0.000 HD
ATOM      6  H   UNL     1      37.335  25.849  35.835  0.00  0.00    +0.000 HD
ENDROOT
BRANCH   1  11
ATOM      7  C   UNL     1      37.863  23.696  33.501  0.00  0.00    +0.000 A 
ATOM      8  C   UNL     1      37.458  22.657  32.675  0.00  0.00    +0.000 A 
ATOM      9  N   UNL     1      37.485  21.567  33.484  0.00  0.00    +0.000 NA
ATOM     10  C   UNL     1      37.880  21.964  34.693  0.00  0.00    +0.000 A 
ATOM     11  N   UNL     1      38.118  23.272  34.729  0.00  0.00    +0.000 N 
ATOM     12  H   UNL     1      37.196  22.794  31.614  0.00  0.00    +0.000 HD
ATOM     13  H   UNL     1      37.934  21.157  35.419  0.00  0.00    +0.000 HD
BRANCH   7  14
ATOM     14  C   UNL     1      38.012  25.085  33.075  0.00  0.00    +0.000 A 
ATOM     15  C   UNL     1      39.296  25.584  32.766  0.00  0.00    +0.000 A 
ATOM     16  C   UNL     1      39.395  26.934  32.355  0.00  0.00    +0.000 A 
ATOM     17  N   UNL     1      38.240  27.650  32.289  0.00  0.00    +0.000 NA
ATOM     18  C   UNL     1      37.033  27.134  32.593  0.00  0.00    +0.000 A 
ATOM     19  N   UNL     1      36.908  25.848  32.989  0.00  0.00    +0.000 NA
ATOM     20  H   UNL     1      40.154  24.933  32.851  0.00  0.00    +0.000 HD
ATOM     21  H   UNL     1      40.364  27.335  32.114  0.00  0.00    +0.000 HD
ATOM     22  H   UNL     1      36.225  27.834  32.488  0.00  0.00    +0.000 HD
ENDBRANCH   7  14
ENDBRANCH   1  11
BRANCH   3  23
ATOM     23  C   UNL     1      36.068  23.938  36.939  0.00  0.00    +0.000 A 
ATOM     24  C   UNL     1      35.169  22.926  36.833  0.00  0.00    +0.000 A 
ATOM     25  C   UNL     1      33.831  23.256  36.771  0.00  0.00    +0.000 A 
ATOM     26  N   UNL     1      33.410  24.529  36.812  0.00  0.00    +0.000 NA
ATOM     27  C   UNL     1      34.310  25.527  36.918  0.00  0.00    +0.000 A 
ATOM     28  H   UNL     1      33.910  26.527  36.946  0.00  0.00    +0.000 HD
ATOM     29  N   UNL     1      35.623  25.229  36.980  0.00  0.00    +0.000 NA
ENDBRANCH   3  23
BRANCH   3  30
ATOM     30  C   UNL     1      38.114  23.767  38.426  0.00  0.00    +0.000 C 
ATOM     31  F   UNL     1      37.516  22.701  39.064  0.00  0.00    +0.000 F 
ATOM     32  F   UNL     1      39.510  23.345  38.307  0.00  0.00    +0.000 F 
ATOM     33  F   UNL     1      38.135  24.900  39.142  0.00  0.00    +0.000 F 
ENDBRANCH   3  30
TORSDOF 4
