
 OpenBabel03262519563D

 30 33  0  0  1  0  0  0  0  0999 V2000
   38.1600   23.9500   34.5250 C   0  0  0  0  0  0  0  0  0  0  0  0
   38.3280   25.1970   33.9250 C   0  0  0  0  0  0  0  0  0  0  0  0
   37.9180   24.9790   32.6330 N   0  0  0  0  0  0  0  0  0  0  0  0
   37.5530   23.7240   32.5220 C   0  0  0  0  0  0  0  0  0  0  0  0
   37.6860   23.0380   33.6820 N   0  0  0  0  0  0  0  0  0  0  0  0
   38.6980   26.0670   34.4340 H   0  0  0  0  0  0  0  0  0  0  0  0
   37.1830   23.2900   31.5900 H   0  0  0  0  0  0  0  0  0  0  0  0
   38.4640   23.6650   35.9210 C   0  0  0  0  0  0  0  0  0  0  0  0
   39.6840   23.0720   36.2740 C   0  0  0  0  0  0  0  0  0  0  0  0
   39.9260   22.8180   37.6380 C   0  0  0  0  0  0  0  0  0  0  0  0
   38.9780   23.1560   38.5300 N   0  0  0  0  0  0  0  0  0  0  0  0
   37.8000   23.7310   38.1580 C   0  0  0  0  0  0  0  0  0  0  0  0
   37.5400   23.9850   36.8690 N   0  0  0  0  0  0  0  0  0  0  0  0
   40.4100   22.8220   35.5150 H   0  0  0  0  0  0  0  0  0  0  0  0
   40.8670   22.3570   37.9450 H   0  0  0  0  0  0  0  0  0  0  0  0
   37.0580   23.9900   38.9000 H   0  0  0  0  0  0  0  0  0  0  0  0
   37.3630   21.6510   33.8530 C   0  0  1  0  0  0  0  0  0  0  0  0
   36.2120   21.1950   34.6110 C   0  0  0  0  0  0  0  0  0  0  0  0
   36.0890   21.2580   33.1120 C   0  0  2  0  0  0  0  0  0  0  0  0
   38.2540   20.9970   33.7680 H   0  0  0  0  0  0  0  0  0  0  0  0
   36.2280   20.1970   35.1090 H   0  0  0  0  0  0  0  0  0  0  0  0
   35.5530   21.9060   35.1520 H   0  0  0  0  0  0  0  0  0  0  0  0
   35.4550   22.0270   32.6600 H   0  0  0  0  0  0  0  0  0  0  0  0
   36.0800   19.9250   32.4370 C   0  0  0  0  0  0  0  0  0  0  0  0
   36.6670   19.8520   31.1870 C   0  0  0  0  0  3  0  0  0  0  0  0
   36.6230   18.5870   30.6230 C   0  0  0  0  0  3  0  0  0  0  0  0
   36.0680   17.5350   31.2190 N   0  0  0  0  0  0  0  0  0  0  0  0
   35.5060   17.6460   32.4370 C   0  0  0  0  0  0  0  0  0  0  0  0
   35.0180   16.9100   33.0620 H   0  0  0  0  0  0  0  0  0  0  0  0
   35.5180   18.8680   33.0470 N   0  0  0  0  0  0  0  0  0  0  0  0
  1  8  1  0  0  0  0
  2  6  1  0  0  0  0
  2  1  2  0  0  0  0
  3  2  1  0  0  0  0
  4  3  2  0  0  0  0
  4  5  1  0  0  0  0
  5 17  1  0  0  0  0
  5  1  1  0  0  0  0
  7  4  1  0  0  0  0
  8  9  2  0  0  0  0
  8 13  1  0  0  0  0
  9 10  1  0  0  0  0
 10 15  1  0  0  0  0
 10 11  2  0  0  0  0
 12 11  1  0  0  0  0
 12 16  1  0  0  0  0
 13 12  2  0  0  0  0
 14  9  1  0  0  0  0
 17 20  1  6  0  0  0
 17 18  1  0  0  0  0
 18 21  1  0  0  0  0
 18 22  1  0  0  0  0
 19 23  1  6  0  0  0
 19 17  1  0  0  0  0
 19 18  1  0  0  0  0
 24 30  1  0  0  0  0
 24 19  1  0  0  0  0
 25 24  2  0  0  0  0
 26 25  1  0  0  0  0
 26 27  2  0  0  0  0
 27 28  1  0  0  0  0
 28 30  2  0  0  0  0
 28 29  1  0  0  0  0
M  END
>  <minimizedAffinity>
-4.7753253

>  <minimizedRMSD>
1.01751697

$$$$
