
 OpenBabel03262519573D

 30 33  0  0  1  0  0  0  0  0999 V2000
   38.1540   23.9250   34.5610 C   0  0  0  0  0  0  0  0  0  0  0  0
   38.3230   25.1670   33.9520 C   0  0  0  0  0  0  0  0  0  0  0  0
   37.9080   24.9410   32.6630 N   0  0  0  0  0  0  0  0  0  0  0  0
   37.5410   23.6860   32.5610 C   0  0  0  0  0  0  0  0  0  0  0  0
   37.6760   23.0070   33.7250 N   0  0  0  0  0  0  0  0  0  0  0  0
   38.6970   26.0400   34.4540 H   0  0  0  0  0  0  0  0  0  0  0  0
   37.1670   23.2470   31.6330 H   0  0  0  0  0  0  0  0  0  0  0  0
   38.4620   23.6490   35.9570 C   0  0  0  0  0  0  0  0  0  0  0  0
   39.6790   23.0490   36.3100 C   0  0  0  0  0  0  0  0  0  0  0  0
   39.9240   22.8040   37.6760 C   0  0  0  0  0  0  0  0  0  0  0  0
   38.9820   23.1570   38.5690 N   0  0  0  0  0  0  0  0  0  0  0  0
   37.8080   23.7370   38.1960 C   0  0  0  0  0  0  0  0  0  0  0  0
   37.5450   23.9830   36.9060 N   0  0  0  0  0  0  0  0  0  0  0  0
   40.4000   22.7870   35.5500 H   0  0  0  0  0  0  0  0  0  0  0  0
   40.8630   22.3380   37.9820 H   0  0  0  0  0  0  0  0  0  0  0  0
   37.0710   24.0090   38.9400 H   0  0  0  0  0  0  0  0  0  0  0  0
   37.3510   21.6230   33.9070 C   0  0  1  0  0  0  0  0  0  0  0  0
   36.1830   21.1750   34.6430 C   0  0  0  0  0  0  0  0  0  0  0  0
   36.0950   21.2180   33.1410 C   0  0  2  0  0  0  0  0  0  0  0  0
   38.2440   20.9690   33.8520 H   0  0  0  0  0  0  0  0  0  0  0  0
   36.1880   20.1840   35.1540 H   0  0  0  0  0  0  0  0  0  0  0  0
   35.5110   21.8920   35.1590 H   0  0  0  0  0  0  0  0  0  0  0  0
   35.4720   21.9810   32.6630 H   0  0  0  0  0  0  0  0  0  0  0  0
   36.1040   19.8760   32.4830 C   0  0  0  0  0  0  0  0  0  0  0  0
   36.7930   19.7690   31.2870 C   0  0  0  0  0  3  0  0  0  0  0  0
   36.7570   18.4980   30.7370 C   0  0  0  0  0  3  0  0  0  0  0  0
   36.1250   17.4710   31.2960 N   0  0  0  0  0  0  0  0  0  0  0  0
   35.4660   17.6150   32.4620 C   0  0  0  0  0  0  0  0  0  0  0  0
   34.9050   16.9020   33.0510 H   0  0  0  0  0  0  0  0  0  0  0  0
   35.4620   18.8440   33.0560 N   0  0  0  0  0  0  0  0  0  0  0  0
  1  8  1  0  0  0  0
  2  6  1  0  0  0  0
  2  1  2  0  0  0  0
  3  2  1  0  0  0  0
  4  3  2  0  0  0  0
  4  5  1  0  0  0  0
  5 17  1  0  0  0  0
  5  1  1  0  0  0  0
  7  4  1  0  0  0  0
  8  9  2  0  0  0  0
  8 13  1  0  0  0  0
  9 10  1  0  0  0  0
 10 15  1  0  0  0  0
 10 11  2  0  0  0  0
 12 11  1  0  0  0  0
 12 16  1  0  0  0  0
 13 12  2  0  0  0  0
 14  9  1  0  0  0  0
 17 20  1  6  0  0  0
 17 18  1  0  0  0  0
 18 21  1  0  0  0  0
 18 22  1  0  0  0  0
 19 23  1  6  0  0  0
 19 17  1  0  0  0  0
 19 18  1  0  0  0  0
 24 30  1  0  0  0  0
 24 19  1  0  0  0  0
 25 24  2  0  0  0  0
 26 25  1  0  0  0  0
 26 27  2  0  0  0  0
 27 28  1  0  0  0  0
 28 29  1  0  0  0  0
 28 30  2  0  0  0  0
M  END
>  <minimizedAffinity>
-4.7955327

>  <minimizedRMSD>
0.922847569

$$$$
