
 OpenBabel03262519593D

 33 36  0  0  1  0  0  0  0  0999 V2000
   40.7680   25.4920   34.5880 C   0  0  1  0  0  0  0  0  0  0  0  0
   41.0390   24.4510   33.6350 C   0  0  0  0  0  0  0  0  0  0  0  0
   41.2860   25.9470   33.2590 C   0  0  1  0  0  0  0  0  0  0  0  0
   41.4880   25.5600   35.4650 H   0  0  0  0  0  0  0  0  0  0  0  0
   41.9510   23.8340   33.7610 H   0  0  0  0  0  0  0  0  0  0  0  0
   40.2620   23.9150   33.0620 H   0  0  0  0  0  0  0  0  0  0  0  0
   38.2760   25.4990   34.8520 C   0  0  0  0  0  0  0  0  0  0  0  0
   37.3150   26.3940   35.3010 C   0  0  0  0  0  0  0  0  0  0  0  0
   38.0310   27.4890   35.6610 N   0  0  0  0  0  0  0  0  0  0  0  0
   39.3180   27.2320   35.4300 C   0  0  0  0  0  0  0  0  0  0  0  0
   39.4940   26.0120   34.9300 N   0  0  0  0  0  0  0  0  0  0  0  0
   36.2370   26.1660   35.3200 H   0  0  0  0  0  0  0  0  0  0  0  0
   39.9780   28.0550   35.6880 H   0  0  0  0  0  0  0  0  0  0  0  0
   37.9930   24.1500   34.3690 C   0  0  0  0  0  0  0  0  0  0  0  0
   38.0480   23.0640   35.2690 C   0  0  0  0  0  0  0  0  0  0  0  0
   37.7650   21.7740   34.7600 C   0  0  0  0  0  0  0  0  0  0  0  0
   37.4600   21.6810   33.4380 N   0  0  0  0  0  0  0  0  0  0  0  0
   37.4180   22.7460   32.6130 C   0  0  0  0  0  0  0  0  0  0  0  0
   37.6850   23.9890   33.0700 N   0  0  0  0  0  0  0  0  0  0  0  0
   38.3020   23.2420   36.3040 H   0  0  0  0  0  0  0  0  0  0  0  0
   37.8010   20.9320   35.4290 H   0  0  0  0  0  0  0  0  0  0  0  0
   37.1610   22.4970   31.6000 H   0  0  0  0  0  0  0  0  0  0  0  0
   40.4980   26.2240   32.0180 C   0  0  0  0  0  0  0  0  0  0  0  0
   39.5700   27.1780   31.7510 C   0  0  0  0  0  3  0  0  0  0  0  0
   39.0020   27.1900   30.4940 C   0  0  0  0  0  3  0  0  0  0  0  0
   39.3380   26.2970   29.5520 N   0  0  0  0  0  0  0  0  0  0  0  0
   40.2610   25.3530   29.8270 C   0  0  0  0  0  0  0  0  0  0  0  0
   40.4890   24.6640   29.0290 H   0  0  0  0  0  0  0  0  0  0  0  0
   40.8300   25.3210   31.0480 N   0  0  0  0  0  0  0  0  0  0  0  0
   42.7650   26.2340   33.1520 C   0  0  0  0  0  0  0  0  0  0  0  0
   42.9800   27.3290   32.3420 F   0  0  0  0  0  0  0  0  0  0  0  0
   43.2230   26.6930   34.4640 F   0  0  0  0  0  0  0  0  0  0  0  0
   43.5220   25.1690   32.8540 F   0  0  0  0  0  0  0  0  0  0  0  0
  1 11  1  0  0  0  0
  1  4  1  1  0  0  0
  2  5  1  0  0  0  0
  2  1  1  0  0  0  0
  3 30  1  6  0  0  0
  3  2  1  0  0  0  0
  3  1  1  0  0  0  0
  6  2  1  0  0  0  0
  7 11  1  0  0  0  0
  7  8  2  0  0  0  0
  8 12  1  0  0  0  0
  8  9  1  0  0  0  0
 10  9  2  0  0  0  0
 10 13  1  0  0  0  0
 11 10  1  0  0  0  0
 14  7  1  0  0  0  0
 14 15  1  0  0  0  0
 15 20  1  0  0  0  0
 16 15  2  0  0  0  0
 16 21  1  0  0  0  0
 17 16  1  0  0  0  0
 18 19  1  0  0  0  0
 18 17  2  0  0  0  0
 19 14  2  0  0  0  0
 22 18  1  0  0  0  0
 23  3  1  0  0  0  0
 24 23  1  0  0  0  0
 25 24  2  0  0  0  0
 26 27  2  0  0  0  0
 26 25  1  0  0  0  0
 27 29  1  0  0  0  0
 28 27  1  0  0  0  0
 29 23  2  0  0  0  0
 30 32  1  0  0  0  0
 31 30  1  0  0  0  0
 33 30  1  0  0  0  0
M  END
>  <minimizedAffinity>
-3.80585527

>  <minimizedRMSD>
6.31381655

$$$$
