
 OpenBabel03262519293D

 31 34  0  0  0  0  0  0  0  0999 V2000
   40.5440   21.9560   37.2850 O   0  0  0  0  0  0  0  0  0  0  0  0
   41.8190   22.0940   36.7810 C   0  0  0  0  0  0  0  0  0  0  0  0
   42.3730   23.2280   36.2140 C   0  0  0  0  0  0  0  0  0  0  0  0
   43.6370   23.0080   35.8300 N   0  0  0  0  0  0  0  0  0  0  0  0
   43.9810   21.7280   36.1200 C   0  0  0  0  0  0  0  0  0  0  0  0
   45.1380   21.0100   35.9350 C   0  0  0  0  0  0  0  0  0  0  0  0
   45.1840   19.6780   36.3500 C   0  0  0  0  0  0  0  0  0  0  0  0
   44.0610   19.0860   36.9460 C   0  0  0  0  0  0  0  0  0  0  0  0
   42.9110   19.8520   37.1130 C   0  0  0  0  0  0  0  0  0  0  0  0
   42.8620   21.1710   36.7030 C   0  0  0  0  0  0  0  0  0  0  0  0
   41.8210   24.1590   36.1120 H   0  0  0  0  0  0  0  0  0  0  0  0
   44.2240   23.7520   35.3770 H   0  0  0  0  0  0  0  0  0  0  0  0
   45.9880   21.5030   35.4700 H   0  0  0  0  0  0  0  0  0  0  0  0
   46.0970   19.1240   36.2000 H   0  0  0  0  0  0  0  0  0  0  0  0
   44.0880   18.0580   37.2690 H   0  0  0  0  0  0  0  0  0  0  0  0
   42.0570   19.3720   37.5770 H   0  0  0  0  0  0  0  0  0  0  0  0
   39.5900   22.9360   37.3260 C   0  0  0  0  0  0  0  0  0  0  0  0
   39.0470   23.2230   38.5790 C   0  0  0  0  0  0  0  0  0  0  0  0
   38.0630   24.2310   38.6320 C   0  0  0  0  0  0  0  0  0  0  0  0
   37.6990   24.8640   37.4770 N   0  0  0  0  0  0  0  0  0  0  0  0
   38.2680   24.5330   36.3000 C   0  0  0  0  0  0  0  0  0  0  0  0
   39.1940   23.5930   36.2100 N   0  0  0  0  0  0  0  0  0  0  0  0
   39.3420   22.7220   39.4700 H   0  0  0  0  0  0  0  0  0  0  0  0
   37.6510   24.4440   39.6090 H   0  0  0  0  0  0  0  0  0  0  0  0
   37.8430   25.2390   35.0970 C   0  0  0  0  0  0  0  0  0  0  0  0
   37.4260   26.5530   35.1510 C   0  0  0  0  0  0  0  0  0  0  0  0
   37.0130   27.2580   34.0290 C   0  0  0  0  0  0  0  0  0  0  0  0
   37.0130   26.6470   32.8140 N   0  0  0  0  0  0  0  0  0  0  0  0
   37.4290   25.3490   32.7770 C   0  0  0  0  0  0  0  0  0  0  0  0
   37.4070   24.9200   31.7850 H   0  0  0  0  0  0  0  0  0  0  0  0
   37.8260   24.6770   33.8750 N   0  0  0  0  0  0  0  0  0  0  0  0
  1 17  1  0  0  0  0
  2  1  1  0  0  0  0
  3  2  2  0  0  0  0
  4  5  1  0  0  0  0
  4  3  1  0  0  0  0
  5 10  1  0  0  0  0
  6  5  2  0  0  0  0
  6  7  1  0  0  0  0
  7  8  2  0  0  0  0
  8  9  1  0  0  0  0
  8 15  1  0  0  0  0
  9 16  1  0  0  0  0
 10  2  1  0  0  0  0
 10  9  2  0  0  0  0
 11  3  1  0  0  0  0
 12  4  1  0  0  0  0
 13  6  1  0  0  0  0
 14  7  1  0  0  0  0
 17 18  1  0  0  0  0
 18 19  2  0  0  0  0
 18 23  1  0  0  0  0
 19 24  1  0  0  0  0
 20 19  1  0  0  0  0
 21 20  2  0  0  0  0
 22 21  1  0  0  0  0
 22 17  2  0  0  0  0
 25 26  1  0  0  0  0
 25 21  1  0  0  0  0
 27 26  2  0  0  0  0
 28 27  1  0  0  0  0
 29 28  2  0  0  0  0
 29 31  1  0  0  0  0
 30 29  1  0  0  0  0
 31 25  2  0  0  0  0
M  END
>  <minimizedAffinity>
-5.29924774

>  <minimizedRMSD>
1.32738733

$$$$
