
 OpenBabel03262514213D

 27 29  0  0  0  0  0  0  0  0999 V2000
   37.3390   22.3750   33.3640 C   0  0  0  0  0  0  0  0  0  0  0  0
   36.7880   21.2720   33.9600 C   0  0  0  0  0  0  0  0  0  0  0  0
   35.6400   20.6520   33.4980 C   0  0  0  0  0  0  0  0  0  0  0  0
   35.0100   21.1650   32.3810 C   0  0  0  0  0  0  0  0  0  0  0  0
   35.5760   22.2760   31.7910 C   0  0  0  0  0  0  0  0  0  0  0  0
   36.7040   22.8870   32.2420 C   0  0  0  0  0  0  0  0  0  0  0  0
   37.3070   20.8820   34.8460 H   0  0  0  0  0  0  0  0  0  0  0  0
   35.2760   19.7850   34.0320 H   0  0  0  0  0  0  0  0  0  0  0  0
   34.1170   20.7100   31.9950 H   0  0  0  0  0  0  0  0  0  0  0  0
   35.0740   22.6670   30.9170 H   0  0  0  0  0  0  0  0  0  0  0  0
   37.3130   24.0610   31.6270 C   0  0  0  0  0  0  0  0  0  0  0  0
   38.2760   23.9990   30.6470 C   0  0  0  0  0  0  0  0  0  0  0  0
   38.8510   25.1090   30.0670 C   0  0  0  0  0  0  0  0  0  0  0  0
   38.4400   26.3160   30.4920 N   0  0  0  0  0  0  0  0  0  0  0  0
   37.5150   26.4170   31.4350 C   0  0  0  0  0  0  0  0  0  0  0  0
   37.2070   27.4060   31.7540 H   0  0  0  0  0  0  0  0  0  0  0  0
   36.9810   25.3300   31.9720 N   0  0  0  0  0  0  0  0  0  0  0  0
   38.8430   23.1640   33.9890 S   0  0  0  0  0  0  0  0  0  0  0  0
   39.7590   22.7700   37.8260 C   0  0  0  0  0  0  0  0  0  0  0  0
   38.7310   23.4150   38.5110 C   0  0  0  0  0  0  0  0  0  0  0  0
   37.7160   23.9930   37.7600 C   0  0  0  0  0  0  0  0  0  0  0  0
   37.7710   23.9050   36.3980 N   0  0  0  0  0  0  0  0  0  0  0  0
   38.7850   23.2710   35.7560 C   0  0  0  0  0  0  0  0  0  0  0  0
   39.7640   22.7130   36.4890 N   0  0  0  0  0  0  0  0  0  0  0  0
   40.5250   22.3350   38.4620 H   0  0  0  0  0  0  0  0  0  0  0  0
   38.6720   23.4930   39.5910 H   0  0  0  0  0  0  0  0  0  0  0  0
   36.8830   24.5120   38.2100 H   0  0  0  0  0  0  0  0  0  0  0  0
  1  2  1  0  0  0  0
  1 18  1  0  0  0  0
  2  7  1  0  0  0  0
  3  2  2  0  0  0  0
  3  8  1  0  0  0  0
  4  3  1  0  0  0  0
  5  6  1  0  0  0  0
  5  4  2  0  0  0  0
  6  1  2  0  0  0  0
  9  4  1  0  0  0  0
 10  5  1  0  0  0  0
 11 17  1  0  0  0  0
 11  6  1  0  0  0  0
 12 11  2  0  0  0  0
 13 14  2  0  0  0  0
 13 12  1  0  0  0  0
 14 15  1  0  0  0  0
 15 16  1  0  0  0  0
 15 17  2  0  0  0  0
 18 23  1  0  0  0  0
 19 25  1  0  0  0  0
 19 20  1  0  0  0  0
 20 26  1  0  0  0  0
 21 27  1  0  0  0  0
 21 20  2  0  0  0  0
 22 21  1  0  0  0  0
 23 22  2  0  0  0  0
 23 24  1  0  0  0  0
 24 19  2  0  0  0  0
M  END
>  <minimizedAffinity>
-4.99607706

>  <minimizedRMSD>
0.613592982

$$$$
