
 OpenBabel03262519593D

 33 36  0  0  1  0  0  0  0  0999 V2000
   39.2520   24.5670   34.4850 C   0  0  1  0  0  0  0  0  0  0  0  0
   37.8450   24.4090   34.7330 C   0  0  0  0  0  0  0  0  0  0  0  0
   38.8070   23.1830   34.8440 C   0  0  1  0  0  0  0  0  0  0  0  0
   39.8340   25.1360   35.2780 H   0  0  0  0  0  0  0  0  0  0  0  0
   37.4260   24.7750   35.6920 H   0  0  0  0  0  0  0  0  0  0  0  0
   37.0750   24.3680   33.9430 H   0  0  0  0  0  0  0  0  0  0  0  0
   39.4090   24.9770   32.0180 C   0  0  0  0  0  0  0  0  0  0  0  0
   40.4070   24.9440   31.0540 C   0  0  0  0  0  0  0  0  0  0  0  0
   41.5210   24.5960   31.7490 N   0  0  0  0  0  0  0  0  0  0  0  0
   41.1750   24.4410   33.0260 C   0  0  0  0  0  0  0  0  0  0  0  0
   39.8780   24.6700   33.2170 N   0  0  0  0  0  0  0  0  0  0  0  0
   40.2290   25.1660   29.9900 H   0  0  0  0  0  0  0  0  0  0  0  0
   42.0040   24.1590   33.6700 H   0  0  0  0  0  0  0  0  0  0  0  0
   38.0150   25.3260   31.7570 C   0  0  0  0  0  0  0  0  0  0  0  0
   37.5810   26.6550   31.9580 C   0  0  0  0  0  0  0  0  0  0  0  0
   36.2240   26.9500   31.6910 C   0  0  0  0  0  0  0  0  0  0  0  0
   35.4380   25.9270   31.2590 N   0  0  0  0  0  0  0  0  0  0  0  0
   35.8940   24.6710   31.0800 C   0  0  0  0  0  0  0  0  0  0  0  0
   37.1850   24.3600   31.3280 N   0  0  0  0  0  0  0  0  0  0  0  0
   38.2850   27.3970   32.3050 H   0  0  0  0  0  0  0  0  0  0  0  0
   35.8720   27.9560   31.8370 H   0  0  0  0  0  0  0  0  0  0  0  0
   35.1430   23.9850   30.7350 H   0  0  0  0  0  0  0  0  0  0  0  0
   38.2790   22.1260   33.9260 C   0  0  0  0  0  0  0  0  0  0  0  0
   37.0110   21.6950   33.7040 C   0  0  0  0  0  3  0  0  0  0  0  0
   36.8250   20.6880   32.7820 C   0  0  0  0  0  3  0  0  0  0  0  0
   37.8490   20.1360   32.1130 N   0  0  0  0  0  0  0  0  0  0  0  0
   39.1050   20.5710   32.3400 C   0  0  0  0  0  0  0  0  0  0  0  0
   39.8850   20.0890   31.7740 H   0  0  0  0  0  0  0  0  0  0  0  0
   39.3120   21.5550   33.2380 N   0  0  0  0  0  0  0  0  0  0  0  0
   38.9640   22.7550   36.2850 C   0  0  0  0  0  0  0  0  0  0  0  0
   39.7900   21.6540   36.3660 F   0  0  0  0  0  0  0  0  0  0  0  0
   39.7270   23.7970   36.9740 F   0  0  0  0  0  0  0  0  0  0  0  0
   37.8140   22.6360   36.9620 F   0  0  0  0  0  0  0  0  0  0  0  0
  1  2  1  0  0  0  0
  1  3  1  0  0  0  0
  1  4  1  1  0  0  0
  2  3  1  0  0  0  0
  2  5  1  0  0  0  0
  3 30  1  1  0  0  0
  6  2  1  0  0  0  0
  7 11  1  0  0  0  0
  8  9  1  0  0  0  0
  8  7  2  0  0  0  0
  9 10  2  0  0  0  0
 10 11  1  0  0  0  0
 10 13  1  0  0  0  0
 11  1  1  0  0  0  0
 12  8  1  0  0  0  0
 14 15  1  0  0  0  0
 14  7  1  0  0  0  0
 15 20  1  0  0  0  0
 16 21  1  0  0  0  0
 16 15  2  0  0  0  0
 17 16  1  0  0  0  0
 18 17  2  0  0  0  0
 18 19  1  0  0  0  0
 19 14  2  0  0  0  0
 22 18  1  0  0  0  0
 23  3  1  0  0  0  0
 24 23  1  0  0  0  0
 25 24  2  0  0  0  0
 26 27  2  0  0  0  0
 26 25  1  0  0  0  0
 27 29  1  0  0  0  0
 28 27  1  0  0  0  0
 29 23  2  0  0  0  0
 30 31  1  0  0  0  0
 30 33  1  0  0  0  0
 30 32  1  0  0  0  0
M  END
>  <minimizedAffinity>
-4.19581127

>  <minimizedRMSD>
4.01396704

$$$$
