
 OpenBabel03262516413D

 39 42  0  0  1  0  0  0  0  0999 V2000
   39.6670   22.9220   38.0160 C   0  0  0  0  0  0  0  0  0  0  0  0
   38.4290   23.3590   38.4920 C   0  0  0  0  0  0  0  0  0  0  0  0
   37.6740   24.1630   37.6440 C   0  0  0  0  0  0  0  0  0  0  0  0
   38.1850   24.4680   36.4220 N   0  0  0  0  0  0  0  0  0  0  0  0
   39.3980   24.0220   35.9930 C   0  0  0  0  0  0  0  0  0  0  0  0
   40.1230   23.2500   36.8040 N   0  0  0  0  0  0  0  0  0  0  0  0
   39.7990   24.4190   34.7000 N   0  0  0  0  0  0  0  0  0  0  0  0
   38.8480   24.3400   33.6190 C   0  0  0  0  0  0  0  0  0  0  0  0
   39.3270   24.9730   32.3490 C   0  0  0  0  0  0  0  0  0  0  0  0
   40.2440   26.0250   32.6610 N   0  0  0  0  0  0  0  0  0  0  0  0
   41.4620   25.3540   33.1460 C   0  0  0  0  0  0  0  0  0  0  0  0
   41.1840   24.8880   34.5700 C   0  0  2  0  0  0  0  0  0  0  0  0
   40.2250   22.2940   38.7100 H   0  0  0  0  0  0  0  0  0  0  0  0
   38.0360   23.1110   39.4570 H   0  0  0  0  0  0  0  0  0  0  0  0
   36.6910   24.5660   37.9070 H   0  0  0  0  0  0  0  0  0  0  0  0
   38.4940   23.2920   33.4240 H   0  0  0  0  0  0  0  0  0  0  0  0
   37.9300   24.8970   33.9490 H   0  0  0  0  0  0  0  0  0  0  0  0
   39.8630   24.1880   31.7620 H   0  0  0  0  0  0  0  0  0  0  0  0
   38.4730   25.2810   31.7290 H   0  0  0  0  0  0  0  0  0  0  0  0
   40.4500   26.5760   31.7980 H   0  0  0  0  0  0  0  0  0  0  0  0
   41.7360   24.5140   32.4870 H   0  0  0  0  0  0  0  0  0  0  0  0
   42.2660   26.1150   33.1980 H   0  0  0  0  0  0  0  0  0  0  0  0
   41.2780   25.7790   35.1970 H   0  0  0  0  0  0  0  0  0  0  0  0
   42.1450   23.8580   35.0370 C   0  0  0  0  0  0  0  0  0  0  0  0
   43.1370   24.2000   35.9260 C   0  0  0  0  0  0  0  0  0  0  0  0
   44.0870   23.3490   36.4410 C   0  0  0  0  0  0  0  0  0  0  0  0
   44.0050   22.0310   35.9970 C   0  0  0  0  0  0  0  0  0  0  0  0
   43.0090   21.6990   35.1060 C   0  0  0  0  0  0  0  0  0  0  0  0
   42.1110   22.5800   34.6410 N   0  0  0  0  0  0  0  0  0  0  0  0
   43.1780   25.2310   36.2560 H   0  0  0  0  0  0  0  0  0  0  0  0
   44.8280   23.6810   37.1280 H   0  0  0  0  0  0  0  0  0  0  0  0
   44.7320   21.3090   36.3690 H   0  0  0  0  0  0  0  0  0  0  0  0
   42.9620   20.3070   34.6680 C   0  0  0  0  0  0  0  0  0  0  0  0
   42.5740   19.9610   33.3700 C   0  0  0  0  0  0  0  0  0  0  0  0
   42.5740   18.6140   33.0890 C   0  0  0  0  0  0  0  0  0  0  0  0
   42.9070   17.6550   33.9460 N   0  0  0  0  0  0  0  0  0  0  0  0
   43.2840   18.0090   35.2080 C   0  0  0  0  0  0  0  0  0  0  0  0
   43.5600   17.2430   35.9210 H   0  0  0  0  0  0  0  0  0  0  0  0
   43.2960   19.3190   35.5190 N   0  0  0  0  0  0  0  0  0  0  0  0
  1  2  1  0  0  0  0
  1 13  1  0  0  0  0
  2 14  1  0  0  0  0
  3 15  1  0  0  0  0
  3  2  2  0  0  0  0
  4  3  1  0  0  0  0
  5  4  2  0  0  0  0
  5  6  1  0  0  0  0
  6  1  2  0  0  0  0
  7  5  1  0  0  0  0
  8 17  1  0  0  0  0
  8  7  1  0  0  0  0
  9 10  1  0  0  0  0
  9  8  1  0  0  0  0
 10 11  1  0  0  0  0
 11 22  1  0  0  0  0
 11 12  1  0  0  0  0
 12  7  1  0  0  0  0
 12 24  1  0  0  0  0
 12 23  1  1  0  0  0
 16  8  1  0  0  0  0
 18  9  1  0  0  0  0
 19  9  1  0  0  0  0
 20 10  1  0  0  0  0
 21 11  1  0  0  0  0
 24 25  1  0  0  0  0
 25 30  1  0  0  0  0
 25 26  2  0  0  0  0
 26 31  1  0  0  0  0
 27 32  1  0  0  0  0
 27 26  1  0  0  0  0
 28 27  2  0  0  0  0
 29 24  2  0  0  0  0
 29 28  1  0  0  0  0
 33 28  1  0  0  0  0
 33 39  1  0  0  0  0
 34 33  2  0  0  0  0
 35 34  1  0  0  0  0
 35 36  2  0  0  0  0
 36 37  1  0  0  0  0
 37 39  2  0  0  0  0
 37 38  1  0  0  0  0
M  END
>  <minimizedAffinity>
-4.54001856

>  <minimizedRMSD>
1.77328515

$$$$
