
 OpenBabel03262517393D

 30 32  0  0  0  0  0  0  0  0999 V2000
   39.0320   23.4190   35.6940 C   0  0  0  0  0  0  0  0  0  0  0  0
   40.4050   23.3370   35.4640 C   0  0  0  0  0  0  0  0  0  0  0  0
   41.2380   23.0040   36.5080 C   0  0  0  0  0  0  0  0  0  0  0  0
   40.6910   22.7700   37.7250 N   0  0  0  0  0  0  0  0  0  0  0  0
   39.3670   22.8550   37.9240 C   0  0  0  0  0  0  0  0  0  0  0  0
   38.5380   23.1750   36.9260 N   0  0  0  0  0  0  0  0  0  0  0  0
   42.6480   22.8730   36.4680 N   0  0  0  0  0  0  0  0  0  0  0  0
   43.6070   23.9400   36.6900 C   0  0  0  0  0  0  0  0  0  0  0  0
   44.4550   24.1310   35.4490 C   0  0  0  0  0  0  0  0  0  0  0  0
   44.2880   23.0390   34.5790 O   0  0  0  0  0  0  0  0  0  0  0  0
   44.5190   21.8590   35.2740 C   0  0  0  0  0  0  0  0  0  0  0  0
   43.3450   21.6210   36.1900 C   0  0  0  0  0  0  0  0  0  0  0  0
   40.9150   23.5090   34.5270 H   0  0  0  0  0  0  0  0  0  0  0  0
   38.9600   22.6580   38.9240 H   0  0  0  0  0  0  0  0  0  0  0  0
   44.2190   23.7460   37.5880 H   0  0  0  0  0  0  0  0  0  0  0  0
   43.0470   24.9040   36.8580 H   0  0  0  0  0  0  0  0  0  0  0  0
   45.5030   24.2930   35.7290 H   0  0  0  0  0  0  0  0  0  0  0  0
   44.1290   25.0280   34.8780 H   0  0  0  0  0  0  0  0  0  0  0  0
   44.5240   21.0220   34.5320 H   0  0  0  0  0  0  0  0  0  0  0  0
   45.4960   21.8860   35.8330 H   0  0  0  0  0  0  0  0  0  0  0  0
   42.6410   20.8480   35.8090 H   0  0  0  0  0  0  0  0  0  0  0  0
   43.7750   21.3120   37.1800 H   0  0  0  0  0  0  0  0  0  0  0  0
   38.2260   23.7690   34.5630 C   0  0  0  0  0  0  0  0  0  0  0  0
   37.7570   22.9410   33.7200 O   0  0  0  0  0  0  0  0  0  0  0  0
   37.7950   25.0650   34.1600 N   0  0  0  0  0  0  0  0  0  0  0  0
   37.3210   24.9400   32.7860 C   0  0  0  0  0  0  0  0  0  0  0  0
   36.8140   26.2310   32.2280 C   0  0  0  0  0  0  0  0  0  0  0  0
   37.6090   27.3270   32.4230 O   0  0  0  0  0  0  0  0  0  0  0  0
   38.4420   27.2450   33.5300 C   0  0  0  0  0  0  0  0  0  0  0  0
   37.6430   26.4600   34.5810 C   0  0  0  0  0  0  0  0  0  0  0  0
  1  6  1  0  0  0  0
  2  1  2  0  0  0  0
  2  3  1  0  0  0  0
  3  4  2  0  0  0  0
  4  5  1  0  0  0  0
  5 14  1  0  0  0  0
  6  5  2  0  0  0  0
  7  3  1  0  0  0  0
  7  8  1  0  0  0  0
  8 16  1  0  0  0  0
  8 15  1  0  0  0  0
  9 17  1  0  0  0  0
  9  8  1  0  0  0  0
 10 11  1  0  0  0  0
 10  9  1  0  0  0  0
 11 20  1  0  0  0  0
 11 12  1  0  0  0  0
 12  7  1  0  0  0  0
 12 22  1  0  0  0  0
 13  2  1  0  0  0  0
 18  9  1  0  0  0  0
 19 11  1  0  0  0  0
 21 12  1  0  0  0  0
 23  1  1  0  0  0  0
 24 23  2  0  0  0  0
 25 23  1  0  0  0  0
 25 30  1  0  0  0  0
 26 25  1  0  0  0  0
 27 28  1  0  0  0  0
 27 26  1  0  0  0  0
 28 29  1  0  0  0  0
 29 30  1  0  0  0  0
M  END
>  <minimizedAffinity>
-4.37106895

>  <minimizedRMSD>
6.10470104

$$$$
