
 OpenBabel03262519133D

 27 29  0  0  0  0  0  0  0  0999 V2000
   37.5060   25.5710   32.9770 C   0  0  0  0  0  0  0  0  0  0  0  0
   38.3000   26.6770   32.6930 C   0  0  0  0  0  0  0  0  0  0  0  0
   39.2640   27.0930   33.6240 C   0  0  0  0  0  0  0  0  0  0  0  0
   39.3610   26.3690   34.7710 N   0  0  0  0  0  0  0  0  0  0  0  0
   38.5730   25.2930   35.0200 C   0  0  0  0  0  0  0  0  0  0  0  0
   37.6520   24.9100   34.1130 N   0  0  0  0  0  0  0  0  0  0  0  0
   36.7950   25.3330   32.1940 H   0  0  0  0  0  0  0  0  0  0  0  0
   39.9170   27.9360   33.4860 H   0  0  0  0  0  0  0  0  0  0  0  0
   38.2240   27.4690   31.4890 C   0  0  0  0  0  0  0  0  0  0  0  0
   37.3640   28.5290   31.2610 C   0  0  0  0  0  0  0  0  0  0  0  0
   37.4370   29.1620   30.0720 C   0  0  0  0  0  0  0  0  0  0  0  0
   38.3730   28.7090   29.1350 C   0  0  0  0  0  0  0  0  0  0  0  0
   39.2000   27.2980   30.0090 S   0  0  0  0  0  0  0  0  0  0  0  0
   36.6500   28.8520   32.0130 H   0  0  0  0  0  0  0  0  0  0  0  0
   36.8510   30.0000   29.7250 H   0  0  0  0  0  0  0  0  0  0  0  0
   38.7300   29.0920   27.8310 C   0  0  0  0  0  0  0  0  0  0  0  0
   39.5550   28.4130   27.1870 O   0  0  0  0  0  0  0  0  0  0  0  0
   38.1850   30.2410   27.1970 N   0  0  0  0  0  0  0  0  0  0  0  0
   38.1770   31.2040   26.7970 H   0  0  0  0  0  0  0  0  0  0  0  0
   37.1850   30.0830   26.9700 H   0  0  0  0  0  0  0  0  0  0  0  0
   38.7150   24.5460   36.2680 C   0  0  0  0  0  0  0  0  0  0  0  0
   39.6730   23.5560   36.3560 C   0  0  0  0  0  0  0  0  0  0  0  0
   39.8890   22.7950   37.4840 C   0  0  0  0  0  0  0  0  0  0  0  0
   39.0980   23.0610   38.5390 N   0  0  0  0  0  0  0  0  0  0  0  0
   38.1470   24.0380   38.4630 C   0  0  0  0  0  0  0  0  0  0  0  0
   37.5350   24.2150   39.3390 H   0  0  0  0  0  0  0  0  0  0  0  0
   37.9520   24.7780   37.3370 N   0  0  0  0  0  0  0  0  0  0  0  0
  1  6  1  0  0  0  0
  2  1  2  0  0  0  0
  2  3  1  0  0  0  0
  3  4  2  0  0  0  0
  4  5  1  0  0  0  0
  5 21  1  0  0  0  0
  6  5  2  0  0  0  0
  7  1  1  0  0  0  0
  8  3  1  0  0  0  0
  9  2  1  0  0  0  0
 10  9  2  0  0  0  0
 10 14  1  0  0  0  0
 11 10  1  0  0  0  0
 12 13  1  0  0  0  0
 12 11  2  0  0  0  0
 13  9  1  0  0  0  0
 15 11  1  0  0  0  0
 16 12  1  0  0  0  0
 17 16  2  0  0  0  0
 18 16  1  0  0  0  0
 19 18  1  0  0  0  0
 20 18  1  0  0  0  0
 21 22  2  0  0  0  0
 21 27  1  0  0  0  0
 22 23  1  0  0  0  0
 23 24  2  0  0  0  0
 25 24  1  0  0  0  0
 25 26  1  0  0  0  0
 27 25  2  0  0  0  0
M  END
>  <minimizedAffinity>
-4.71461964

>  <minimizedRMSD>
4.52268744

$$$$
