
 OpenBabel03262515343D

 27 29  0  0  0  0  0  0  0  0999 V2000
   38.9720   26.5770   35.0220 C   0  0  0  0  0  0  0  0  0  0  0  0
   39.9430   26.8730   34.5580 H   0  0  0  0  0  0  0  0  0  0  0  0
   38.9360   26.7650   36.1160 H   0  0  0  0  0  0  0  0  0  0  0  0
   37.9290   27.2920   34.2650 C   0  0  0  0  0  0  0  0  0  0  0  0
   37.8550   27.3750   32.9180 N   0  0  0  0  0  0  0  0  0  0  0  0
   36.8020   28.0860   32.5930 O   0  0  0  0  0  0  0  0  0  0  0  0
   36.1720   28.4790   33.6670 C   0  0  0  0  0  0  0  0  0  0  0  0
   36.8760   27.9820   34.7210 N   0  0  0  0  0  0  0  0  0  0  0  0
   34.9530   29.2900   33.7590 C   0  0  0  0  0  0  0  0  0  0  0  0
   34.7560   30.2200   34.7600 C   0  0  0  0  0  0  0  0  0  0  0  0
   33.5430   30.9170   34.7170 C   0  0  0  0  0  0  0  0  0  0  0  0
   32.6280   30.6950   33.7550 N   0  0  0  0  0  0  0  0  0  0  0  0
   32.8440   29.7840   32.7890 C   0  0  0  0  0  0  0  0  0  0  0  0
   32.1050   29.6170   32.0270 H   0  0  0  0  0  0  0  0  0  0  0  0
   34.0070   29.1060   32.8200 N   0  0  0  0  0  0  0  0  0  0  0  0
   38.8660   25.0810   34.8180 C   0  0  0  0  0  0  0  0  0  0  0  0
   39.7070   24.6880   34.2240 H   0  0  0  0  0  0  0  0  0  0  0  0
   37.8950   24.8480   34.3370 H   0  0  0  0  0  0  0  0  0  0  0  0
   39.7300   22.8330   37.6730 C   0  0  0  0  0  0  0  0  0  0  0  0
   38.8140   23.2780   38.6450 C   0  0  0  0  0  0  0  0  0  0  0  0
   37.9340   24.3170   38.3160 C   0  0  0  0  0  0  0  0  0  0  0  0
   38.0170   24.8420   37.0610 N   0  0  0  0  0  0  0  0  0  0  0  0
   38.9130   24.3910   36.1450 C   0  0  0  0  0  0  0  0  0  0  0  0
   39.7370   23.4110   36.4650 N   0  0  0  0  0  0  0  0  0  0  0  0
   40.4470   22.0320   37.8450 H   0  0  0  0  0  0  0  0  0  0  0  0
   38.8170   22.8120   39.6010 H   0  0  0  0  0  0  0  0  0  0  0  0
   37.2200   24.6790   39.0430 H   0  0  0  0  0  0  0  0  0  0  0  0
  1  3  1  0  0  0  0
  2  1  1  0  0  0  0
  4  8  1  0  0  0  0
  4  1  1  0  0  0  0
  5  4  2  0  0  0  0
  6  5  1  0  0  0  0
  6  7  1  0  0  0  0
  7  9  1  0  0  0  0
  7  8  2  0  0  0  0
  9 10  1  0  0  0  0
 11 10  2  0  0  0  0
 12 11  1  0  0  0  0
 13 15  1  0  0  0  0
 13 12  2  0  0  0  0
 14 13  1  0  0  0  0
 15  9  2  0  0  0  0
 16  1  1  0  0  0  0
 16 23  1  0  0  0  0
 17 16  1  0  0  0  0
 18 16  1  0  0  0  0
 19 25  1  0  0  0  0
 19 20  1  0  0  0  0
 20 26  1  0  0  0  0
 21 20  2  0  0  0  0
 21 27  1  0  0  0  0
 22 21  1  0  0  0  0
 23 24  1  0  0  0  0
 23 22  2  0  0  0  0
 24 19  2  0  0  0  0
M  END
>  <minimizedAffinity>
-4.65216303

>  <minimizedRMSD>
1.07426119

$$$$
