
 OpenBabel03262519573D

 30 33  0  0  1  0  0  0  0  0999 V2000
   38.1520   23.9410   34.5420 C   0  0  0  0  0  0  0  0  0  0  0  0
   38.3080   25.1880   33.9390 C   0  0  0  0  0  0  0  0  0  0  0  0
   37.8990   24.9640   32.6480 N   0  0  0  0  0  0  0  0  0  0  0  0
   37.5450   23.7050   32.5400 C   0  0  0  0  0  0  0  0  0  0  0  0
   37.6860   23.0220   33.7010 N   0  0  0  0  0  0  0  0  0  0  0  0
   38.6720   26.0630   34.4460 H   0  0  0  0  0  0  0  0  0  0  0  0
   37.1780   23.2660   31.6090 H   0  0  0  0  0  0  0  0  0  0  0  0
   38.4590   23.6620   35.9380 C   0  0  0  0  0  0  0  0  0  0  0  0
   39.6770   23.0620   36.2900 C   0  0  0  0  0  0  0  0  0  0  0  0
   39.9230   22.8140   37.6550 C   0  0  0  0  0  0  0  0  0  0  0  0
   38.9810   23.1640   38.5480 N   0  0  0  0  0  0  0  0  0  0  0  0
   37.8060   23.7450   38.1770 C   0  0  0  0  0  0  0  0  0  0  0  0
   37.5420   23.9940   36.8880 N   0  0  0  0  0  0  0  0  0  0  0  0
   40.3980   22.8020   35.5290 H   0  0  0  0  0  0  0  0  0  0  0  0
   40.8620   22.3480   37.9600 H   0  0  0  0  0  0  0  0  0  0  0  0
   37.0680   24.0140   38.9220 H   0  0  0  0  0  0  0  0  0  0  0  0
   37.3750   21.6340   33.8760 C   0  0  1  0  0  0  0  0  0  0  0  0
   36.2010   21.1700   34.5930 C   0  0  0  0  0  0  0  0  0  0  0  0
   36.1360   21.2140   33.0900 C   0  0  2  0  0  0  0  0  0  0  0  0
   38.2770   20.9910   33.8340 H   0  0  0  0  0  0  0  0  0  0  0  0
   36.2100   20.1780   35.1030 H   0  0  0  0  0  0  0  0  0  0  0  0
   35.5120   21.8770   35.0990 H   0  0  0  0  0  0  0  0  0  0  0  0
   35.5110   21.9700   32.6030 H   0  0  0  0  0  0  0  0  0  0  0  0
   36.1730   19.8730   32.4310 C   0  0  0  0  0  0  0  0  0  0  0  0
   35.4090   18.8720   33.0040 C   0  0  0  0  0  3  0  0  0  0  0  0
   35.4920   17.6590   32.3400 C   0  0  0  0  0  3  0  0  0  0  0  0
   36.2340   17.4640   31.2530 N   0  0  0  0  0  0  0  0  0  0  0  0
   36.9620   18.4650   30.7240 C   0  0  0  0  0  0  0  0  0  0  0  0
   37.6110   18.4870   29.8600 H   0  0  0  0  0  0  0  0  0  0  0  0
   36.9240   19.6860   31.3320 N   0  0  0  0  0  0  0  0  0  0  0  0
  1  8  1  0  0  0  0
  2  6  1  0  0  0  0
  2  1  2  0  0  0  0
  3  2  1  0  0  0  0
  4  3  2  0  0  0  0
  4  5  1  0  0  0  0
  5 17  1  0  0  0  0
  5  1  1  0  0  0  0
  7  4  1  0  0  0  0
  8  9  2  0  0  0  0
  8 13  1  0  0  0  0
  9 10  1  0  0  0  0
 10 15  1  0  0  0  0
 10 11  2  0  0  0  0
 12 11  1  0  0  0  0
 12 16  1  0  0  0  0
 13 12  2  0  0  0  0
 14  9  1  0  0  0  0
 17 20  1  6  0  0  0
 17 18  1  0  0  0  0
 18 22  1  0  0  0  0
 18 21  1  0  0  0  0
 19 23  1  6  0  0  0
 19 17  1  0  0  0  0
 19 18  1  0  0  0  0
 24 25  1  0  0  0  0
 24 19  1  0  0  0  0
 26 25  2  0  0  0  0
 27 26  1  0  0  0  0
 28 27  2  0  0  0  0
 28 30  1  0  0  0  0
 29 28  1  0  0  0  0
 30 24  2  0  0  0  0
M  END
>  <minimizedAffinity>
-4.8623538

>  <minimizedRMSD>
0.980487525

$$$$
