
 OpenBabel03262519593D

 33 36  0  0  1  0  0  0  0  0999 V2000
   39.6390   23.8680   34.4400 C   0  0  1  0  0  0  0  0  0  0  0  0
   38.5840   24.4360   35.2330 C   0  0  0  0  0  0  0  0  0  0  0  0
   38.9930   22.9430   35.4220 C   0  0  1  0  0  0  0  0  0  0  0  0
   40.6900   24.2370   34.7110 H   0  0  0  0  0  0  0  0  0  0  0  0
   37.5690   24.5960   34.8390 H   0  0  0  0  0  0  0  0  0  0  0  0
   38.8180   25.1360   36.0680 H   0  0  0  0  0  0  0  0  0  0  0  0
   38.9360   23.9750   32.0440 C   0  0  0  0  0  0  0  0  0  0  0  0
   39.1230   23.2020   30.8980 C   0  0  0  0  0  0  0  0  0  0  0  0
   39.8970   22.1700   31.3280 N   0  0  0  0  0  0  0  0  0  0  0  0
   40.1310   22.3480   32.6310 C   0  0  0  0  0  0  0  0  0  0  0  0
   39.5490   23.4510   33.0890 N   0  0  0  0  0  0  0  0  0  0  0  0
   38.7000   23.4590   29.9280 H   0  0  0  0  0  0  0  0  0  0  0  0
   40.7460   21.5660   33.0660 H   0  0  0  0  0  0  0  0  0  0  0  0
   38.1700   25.2110   32.0830 C   0  0  0  0  0  0  0  0  0  0  0  0
   38.8450   26.4490   32.0900 C   0  0  0  0  0  0  0  0  0  0  0  0
   38.0590   27.6230   32.1250 C   0  0  0  0  0  0  0  0  0  0  0  0
   36.7080   27.4770   32.1520 N   0  0  0  0  0  0  0  0  0  0  0  0
   36.1010   26.2670   32.1440 C   0  0  0  0  0  0  0  0  0  0  0  0
   36.8190   25.1330   32.1110 N   0  0  0  0  0  0  0  0  0  0  0  0
   39.9240   26.4320   32.0680 H   0  0  0  0  0  0  0  0  0  0  0  0
   38.5740   28.5600   32.1310 H   0  0  0  0  0  0  0  0  0  0  0  0
   35.0230   26.3260   32.1680 H   0  0  0  0  0  0  0  0  0  0  0  0
   37.7570   22.1180   35.2270 C   0  0  0  0  0  0  0  0  0  0  0  0
   36.8020   21.6940   36.1290 C   0  0  0  0  0  3  0  0  0  0  0  0
   35.7600   20.9410   35.6590 C   0  0  0  0  0  3  0  0  0  0  0  0
   35.6520   20.6030   34.3200 C   0  0  0  0  0  0  0  0  0  0  0  0
   34.8070   20.0080   34.0190 H   0  0  0  0  0  0  0  0  0  0  0  0
   36.6210   21.0410   33.4400 C   0  0  0  0  0  3  0  0  0  0  0  0
   37.6410   21.7820   33.9110 N   0  0  0  0  0  0  0  0  0  0  0  0
   39.6900   22.7430   36.7490 C   0  0  0  0  0  0  0  0  0  0  0  0
   40.0760   21.4260   36.8890 F   0  0  0  0  0  0  0  0  0  0  0  0
   40.9660   23.4590   36.6940 F   0  0  0  0  0  0  0  0  0  0  0  0
   39.0380   23.2450   37.8060 F   0  0  0  0  0  0  0  0  0  0  0  0
  1  4  1  1  0  0  0
  1  2  1  0  0  0  0
  1  3  1  0  0  0  0
  2  3  1  0  0  0  0
  2  6  1  0  0  0  0
  3 30  1  1  0  0  0
  5  2  1  0  0  0  0
  7 14  1  0  0  0  0
  7 11  1  0  0  0  0
  8  9  1  0  0  0  0
  8  7  2  0  0  0  0
  9 10  2  0  0  0  0
 10 13  1  0  0  0  0
 10 11  1  0  0  0  0
 11  1  1  0  0  0  0
 12  8  1  0  0  0  0
 14 15  2  0  0  0  0
 14 19  1  0  0  0  0
 15 16  1  0  0  0  0
 16 21  1  0  0  0  0
 16 17  2  0  0  0  0
 18 17  1  0  0  0  0
 18 22  1  0  0  0  0
 19 18  2  0  0  0  0
 20 15  1  0  0  0  0
 23  3  1  0  0  0  0
 23 24  1  0  0  0  0
 25 24  2  0  0  0  0
 26 25  1  0  0  0  0
 27 26  1  0  0  0  0
 28 29  1  0  0  0  0
 28 26  2  0  0  0  0
 29 23  2  0  0  0  0
 30 31  1  0  0  0  0
 30 33  1  0  0  0  0
 32 30  1  0  0  0  0
M  END
>  <minimizedAffinity>
-4.75822115

>  <minimizedRMSD>
2.72891665

$$$$
