
 OpenBabel03262519123D

 26 27  0  0  0  0  0  0  0  0999 V2000
   38.2590   25.7180   35.4610 C   0  0  0  0  0  0  0  0  0  0  0  0
   38.0680   27.0260   35.9050 C   0  0  0  0  0  0  0  0  0  0  0  0
   37.5050   27.9200   35.0660 C   0  0  0  0  0  0  0  0  0  0  0  0
   37.1380   27.4740   33.7790 C   0  0  0  0  0  0  0  0  0  0  0  0
   37.6350   25.6660   33.7770 S   0  0  0  0  0  0  0  0  0  0  0  0
   38.3650   27.3220   36.9020 H   0  0  0  0  0  0  0  0  0  0  0  0
   37.2810   28.9520   35.2260 H   0  0  0  0  0  0  0  0  0  0  0  0
   36.5540   28.0440   32.6470 C   0  0  0  0  0  0  0  0  0  0  0  0
   35.6210   28.8550   32.7310 O   0  0  0  0  0  0  0  0  0  0  0  0
   36.9950   27.7310   31.3110 N   0  0  0  0  0  0  0  0  0  0  0  0
   36.6270   28.5260   30.2010 C   0  0  0  0  0  0  0  0  0  0  0  0
   35.8790   29.5600   30.3740 N   0  0  0  0  0  0  0  0  0  0  0  0
   37.1050   28.1520   28.8960 N   0  0  0  0  0  0  0  0  0  0  0  0
   37.6040   26.8840   31.1920 H   0  0  0  0  0  0  0  0  0  0  0  0
   35.6060   30.1490   29.5550 H   0  0  0  0  0  0  0  0  0  0  0  0
   37.8160   28.4600   28.1960 H   0  0  0  0  0  0  0  0  0  0  0  0
   36.5590   27.3100   28.5580 H   0  0  0  0  0  0  0  0  0  0  0  0
   38.3450   24.1550   37.4160 C   0  0  0  0  0  0  0  0  0  0  0  0
   38.8380   24.6310   36.1920 C   0  0  0  0  0  0  0  0  0  0  0  0
   39.9450   24.0250   35.6500 C   0  0  0  0  0  0  0  0  0  0  0  0
   40.5030   22.9920   36.3340 N   0  0  0  0  0  0  0  0  0  0  0  0
   40.0130   22.5510   37.5090 C   0  0  0  0  0  0  0  0  0  0  0  0
   38.9450   23.1360   38.0300 N   0  0  0  0  0  0  0  0  0  0  0  0
   37.4730   24.6410   37.8310 H   0  0  0  0  0  0  0  0  0  0  0  0
   40.3710   24.3470   34.7120 H   0  0  0  0  0  0  0  0  0  0  0  0
   40.5420   21.7230   37.9580 H   0  0  0  0  0  0  0  0  0  0  0  0
  1  2  2  0  0  0  0
  1 19  1  0  0  0  0
  2  6  1  0  0  0  0
  3  7  1  0  0  0  0
  3  2  1  0  0  0  0
  4  3  2  0  0  0  0
  5  4  1  0  0  0  0
  5  1  1  0  0  0  0
  8  9  2  0  0  0  0
  8  4  1  0  0  0  0
 10  8  1  0  0  0  0
 11 12  2  0  0  0  0
 11 10  1  0  0  0  0
 13 11  1  0  0  0  0
 14 10  1  0  0  0  0
 15 12  1  0  0  0  0
 16 13  1  0  0  0  0
 17 13  1  0  0  0  0
 18 24  1  0  0  0  0
 18 23  1  0  0  0  0
 19 18  2  0  0  0  0
 20 19  1  0  0  0  0
 20 21  2  0  0  0  0
 21 22  1  0  0  0  0
 22 26  1  0  0  0  0
 22 23  2  0  0  0  0
 25 20  1  0  0  0  0
M  END
>  <minimizedAffinity>
-5.16485882

>  <minimizedRMSD>
0.947450578

$$$$
