
 OpenBabel03262516543D

 31 33  0  0  1  0  0  0  0  0999 V2000
   37.3790   22.1310   34.7160 C   0  0  0  0  0  0  0  0  0  0  0  0
   36.5350   21.2210   34.8770 O   0  0  0  0  0  0  0  0  0  0  0  0
   37.5530   22.6540   33.4010 N   0  0  0  0  0  0  0  0  0  0  0  0
   37.2660   21.6890   32.3320 C   0  0  0  0  0  0  0  0  0  0  0  0
   37.1740   22.3730   30.9900 C   0  0  0  0  0  0  0  0  0  0  0  0
   36.5700   23.5930   31.0070 O   0  0  0  0  0  0  0  0  0  0  0  0
   36.7900   24.4150   32.0590 C   0  0  0  0  0  0  0  0  0  0  0  0
   37.9570   23.9300   32.9240 C   0  0  1  0  0  0  0  0  0  0  0  0
   36.3010   21.1580   32.5720 H   0  0  0  0  0  0  0  0  0  0  0  0
   38.1100   20.9670   32.3570 H   0  0  0  0  0  0  0  0  0  0  0  0
   38.1980   22.4050   30.5500 H   0  0  0  0  0  0  0  0  0  0  0  0
   36.5670   21.7130   30.3130 H   0  0  0  0  0  0  0  0  0  0  0  0
   37.0380   25.4310   31.6850 H   0  0  0  0  0  0  0  0  0  0  0  0
   35.8690   24.4600   32.6810 H   0  0  0  0  0  0  0  0  0  0  0  0
   38.7900   23.7540   32.1800 H   0  0  0  0  0  0  0  0  0  0  0  0
   39.9950   22.6250   37.2600 C   0  0  0  0  0  0  0  0  0  0  0  0
   39.3430   23.3890   38.2180 C   0  0  0  0  0  0  0  0  0  0  0  0
   38.0310   23.7240   37.9870 C   0  0  0  0  0  0  0  0  0  0  0  0
   37.4520   23.2830   36.8320 N   0  0  0  0  0  0  0  0  0  0  0  0
   38.0890   22.5490   35.9200 C   0  0  0  0  0  0  0  0  0  0  0  0
   39.3860   22.2210   36.1540 N   0  0  0  0  0  0  0  0  0  0  0  0
   41.0380   22.2820   37.3050 H   0  0  0  0  0  0  0  0  0  0  0  0
   39.9100   23.6710   39.0800 H   0  0  0  0  0  0  0  0  0  0  0  0
   37.5020   24.3190   38.7200 H   0  0  0  0  0  0  0  0  0  0  0  0
   38.3590   24.9380   33.8910 C   0  0  0  0  0  0  0  0  0  0  0  0
   37.3990   25.8310   34.3900 C   0  0  0  0  0  0  0  0  0  0  0  0
   37.6060   26.8340   35.3150 C   0  0  0  0  0  0  0  0  0  0  0  0
   38.8860   26.9730   35.7930 C   0  0  0  0  0  0  0  0  0  0  0  0
   39.1060   27.7420   36.5180 H   0  0  0  0  0  0  0  0  0  0  0  0
   39.8520   26.1150   35.3250 C   0  0  0  0  0  0  0  0  0  0  0  0
   39.5660   25.1670   34.4270 N   0  0  0  0  0  0  0  0  0  0  0  0
  1  2  2  0  0  0  0
  1 20  1  0  0  0  0
  3  1  1  0  0  0  0
  4 10  1  0  0  0  0
  4  9  1  0  0  0  0
  4  3  1  0  0  0  0
  5  6  1  0  0  0  0
  5  4  1  0  0  0  0
  6  7  1  0  0  0  0
  7 14  1  0  0  0  0
  7  8  1  0  0  0  0
  8 15  1  6  0  0  0
  8  3  1  0  0  0  0
  8 25  1  0  0  0  0
 11  5  1  0  0  0  0
 12  5  1  0  0  0  0
 13  7  1  0  0  0  0
 16 22  1  0  0  0  0
 16 17  1  0  0  0  0
 17 23  1  0  0  0  0
 18 17  2  0  0  0  0
 18 24  1  0  0  0  0
 19 18  1  0  0  0  0
 20 21  1  0  0  0  0
 20 19  2  0  0  0  0
 21 16  2  0  0  0  0
 25 26  2  0  0  0  0
 25 31  1  0  0  0  0
 26 27  1  0  0  0  0
 27 28  2  0  0  0  0
 28 29  1  0  0  0  0
 30 28  1  0  0  0  0
 31 30  2  0  0  0  0
M  END
>  <minimizedAffinity>
-5.19706583

>  <minimizedRMSD>
0.723605812

$$$$
