
 OpenBabel03262519593D

 33 36  0  0  1  0  0  0  0  0999 V2000
   39.5020   23.8080   34.6420 C   0  0  1  0  0  0  0  0  0  0  0  0
   38.6270   24.4890   35.5560 C   0  0  0  0  0  0  0  0  0  0  0  0
   38.9830   22.9870   35.7810 C   0  0  1  0  0  0  0  0  0  0  0  0
   40.6010   24.1250   34.7090 H   0  0  0  0  0  0  0  0  0  0  0  0
   37.5700   24.6890   35.3250 H   0  0  0  0  0  0  0  0  0  0  0  0
   39.0350   25.2230   36.2890 H   0  0  0  0  0  0  0  0  0  0  0  0
   38.5820   23.8880   32.3200 C   0  0  0  0  0  0  0  0  0  0  0  0
   38.4480   23.0000   31.2520 C   0  0  0  0  0  0  0  0  0  0  0  0
   38.9930   21.8460   31.7230 N   0  0  0  0  0  0  0  0  0  0  0  0
   39.4060   22.0680   32.9730 C   0  0  0  0  0  0  0  0  0  0  0  0
   39.1630   23.3160   33.3580 N   0  0  0  0  0  0  0  0  0  0  0  0
   37.9940   23.2730   30.3000 H   0  0  0  0  0  0  0  0  0  0  0  0
   39.8580   21.1950   33.4350 H   0  0  0  0  0  0  0  0  0  0  0  0
   38.1480   25.2760   32.2910 C   0  0  0  0  0  0  0  0  0  0  0  0
   39.0560   26.2830   31.9000 C   0  0  0  0  0  0  0  0  0  0  0  0
   38.5870   27.6160   31.8850 C   0  0  0  0  0  0  0  0  0  0  0  0
   37.2960   27.8350   32.2490 N   0  0  0  0  0  0  0  0  0  0  0  0
   36.4590   26.8380   32.6180 C   0  0  0  0  0  0  0  0  0  0  0  0
   36.8720   25.5610   32.6430 N   0  0  0  0  0  0  0  0  0  0  0  0
   40.0560   25.9790   31.6340 H   0  0  0  0  0  0  0  0  0  0  0  0
   39.2780   28.3770   31.5880 H   0  0  0  0  0  0  0  0  0  0  0  0
   35.4680   27.1800   32.8760 H   0  0  0  0  0  0  0  0  0  0  0  0
   37.6910   22.2320   35.8510 C   0  0  0  0  0  0  0  0  0  0  0  0
   37.0610   21.4320   34.9170 C   0  0  0  0  0  3  0  0  0  0  0  0
   35.8670   20.8590   35.2620 C   0  0  0  0  0  3  0  0  0  0  0  0
   35.2920   21.0650   36.5050 C   0  0  0  0  0  0  0  0  0  0  0  0
   34.3510   20.5830   36.7080 H   0  0  0  0  0  0  0  0  0  0  0  0
   35.9430   21.8690   37.4180 C   0  0  0  0  0  3  0  0  0  0  0  0
   37.1160   22.4290   37.0720 N   0  0  0  0  0  0  0  0  0  0  0  0
   39.8840   22.8250   36.9850 C   0  0  0  0  0  0  0  0  0  0  0  0
   40.2300   21.5000   37.1440 F   0  0  0  0  0  0  0  0  0  0  0  0
   41.1610   23.4690   36.6750 F   0  0  0  0  0  0  0  0  0  0  0  0
   39.4390   23.4200   38.1000 F   0  0  0  0  0  0  0  0  0  0  0  0
  1  4  1  1  0  0  0
  1  2  1  0  0  0  0
  1  3  1  0  0  0  0
  2  3  1  0  0  0  0
  2  6  1  0  0  0  0
  3 23  1  0  0  0  0
  3 30  1  1  0  0  0
  5  2  1  0  0  0  0
  7 11  1  0  0  0  0
  8  9  1  0  0  0  0
  8  7  2  0  0  0  0
  9 10  2  0  0  0  0
 10 11  1  0  0  0  0
 10 13  1  0  0  0  0
 11  1  1  0  0  0  0
 12  8  1  0  0  0  0
 14  7  1  0  0  0  0
 14 19  1  0  0  0  0
 15 14  2  0  0  0  0
 16 15  1  0  0  0  0
 16 17  2  0  0  0  0
 17 18  1  0  0  0  0
 18 19  2  0  0  0  0
 18 22  1  0  0  0  0
 20 15  1  0  0  0  0
 21 16  1  0  0  0  0
 23 29  1  0  0  0  0
 24 25  1  0  0  0  0
 24 23  2  0  0  0  0
 25 26  2  0  0  0  0
 26 27  1  0  0  0  0
 26 28  1  0  0  0  0
 29 28  2  0  0  0  0
 30 31  1  0  0  0  0
 30 33  1  0  0  0  0
 32 30  1  0  0  0  0
M  END
>  <minimizedAffinity>
-4.51260138

>  <minimizedRMSD>
2.36063814

$$$$
