
 OpenBabel03262519183D

 37 40  0  0  0  0  0  0  0  0999 V2000
   36.2210   28.2630   33.7200 C   0  0  0  0  0  0  0  0  0  0  0  0
   36.0260   29.4300   34.4700 C   0  0  0  0  0  0  0  0  0  0  0  0
   35.1440   30.3200   33.9550 C   0  0  0  0  0  0  0  0  0  0  0  0
   34.5240   30.0260   32.7740 C   0  0  0  0  0  0  0  0  0  0  0  0
   35.2100   28.3490   32.2970 S   0  0  0  0  0  0  0  0  0  0  0  0
   36.5420   29.6330   35.4140 H   0  0  0  0  0  0  0  0  0  0  0  0
   37.2770   25.9630   33.4830 C   0  0  0  0  0  0  0  0  0  0  0  0
   37.1390   27.2010   34.1340 C   0  0  0  0  0  0  0  0  0  0  0  0
   37.9050   27.4930   35.2600 C   0  0  0  0  0  0  0  0  0  0  0  0
   38.7570   26.5180   35.6520 N   0  0  0  0  0  0  0  0  0  0  0  0
   38.8910   25.3310   35.0280 C   0  0  0  0  0  0  0  0  0  0  0  0
   38.1380   25.0720   33.9400 N   0  0  0  0  0  0  0  0  0  0  0  0
   36.6280   25.8370   32.6120 H   0  0  0  0  0  0  0  0  0  0  0  0
   37.8350   28.4310   35.7940 H   0  0  0  0  0  0  0  0  0  0  0  0
   39.8550   24.3540   35.5380 C   0  0  0  0  0  0  0  0  0  0  0  0
   41.0570   24.3620   34.8950 C   0  0  0  0  0  0  0  0  0  0  0  0
   42.0220   23.0120   35.7720 S   0  0  0  0  0  0  0  0  0  0  0  0
   40.4840   22.6990   36.9030 C   0  0  0  0  0  0  0  0  0  0  0  0
   39.8070   23.4650   36.4750 N   0  0  0  0  0  0  0  0  0  0  0  0
   40.4680   21.7120   37.9230 N   0  0  0  0  0  0  0  0  0  0  0  0
   41.6200   24.8620   34.0870 H   0  0  0  0  0  0  0  0  0  0  0  0
   41.2520   21.7470   38.6330 H   0  0  0  0  0  0  0  0  0  0  0  0
   39.6770   21.0420   37.8710 H   0  0  0  0  0  0  0  0  0  0  0  0
   33.5670   30.6420   31.9030 C   0  0  0  0  0  0  0  0  0  0  0  0
   33.8940   31.4100   31.0180 O   0  0  0  0  0  0  0  0  0  0  0  0
   32.1580   30.3600   32.0580 N   0  0  0  0  0  0  0  0  0  0  0  0
   31.7200   29.4080   32.0990 H   0  0  0  0  0  0  0  0  0  0  0  0
   31.4070   31.0720   32.1480 H   0  0  0  0  0  0  0  0  0  0  0  0
   34.6620   31.8940   34.6440 S   0  0  0  0  0  0  0  0  0  0  0  0
   36.0430   33.0090   34.4120 C   0  0  0  0  0  0  0  0  0  0  0  0
   36.7270   33.4540   35.5200 C   0  0  0  0  0  0  0  0  0  0  0  0
   37.7820   34.3060   35.3450 C   0  0  0  0  0  0  0  0  0  0  0  0
   38.3100   34.6470   36.2160 H   0  0  0  0  0  0  0  0  0  0  0  0
   38.2160   34.7590   34.1150 C   0  0  0  0  0  0  0  0  0  0  0  0
   37.5240   34.3100   32.9880 C   0  0  0  0  0  0  0  0  0  0  0  0
   37.8110   34.6270   31.9770 H   0  0  0  0  0  0  0  0  0  0  0  0
   36.4580   33.4490   33.1650 C   0  0  0  0  0  0  0  0  0  0  0  0
  1  8  1  0  0  0  0
  1  2  2  0  0  0  0
  2  6  1  0  0  0  0
  3  2  1  0  0  0  0
  3 29  1  0  0  0  0
  4  3  2  0  0  0  0
  5  4  1  0  0  0  0
  5  1  1  0  0  0  0
  7 12  2  0  0  0  0
  7  8  1  0  0  0  0
  8  9  2  0  0  0  0
  9 10  1  0  0  0  0
  9 14  1  0  0  0  0
 11 15  1  0  0  0  0
 11 10  2  0  0  0  0
 12 11  1  0  0  0  0
 13  7  1  0  0  0  0
 15 19  1  0  0  0  0
 16 15  2  0  0  0  0
 16 17  1  0  0  0  0
 17 18  1  0  0  0  0
 18 20  1  0  0  0  0
 19 18  2  0  0  0  0
 20 22  1  0  0  0  0
 21 16  1  0  0  0  0
 23 20  1  0  0  0  0
 24 26  1  0  0  0  0
 24  4  1  0  0  0  0
 25 24  2  0  0  0  0
 26 27  1  0  0  0  0
 26 28  1  0  0  0  0
 30 29  1  0  0  0  0
 30 31  1  0  0  0  0
 32 31  2  0  0  0  0
 32 33  1  0  0  0  0
 34 32  1  0  0  0  0
 35 37  1  0  0  0  0
 35 34  2  0  0  0  0
 36 35  1  0  0  0  0
 37 30  2  0  0  0  0
M  END
>  <minimizedAffinity>
-5.91949034

>  <minimizedRMSD>
2.10741472

$$$$
