REMARK  Name = 
REMARK  3 active torsions:
REMARK  status: ('A' for Active; 'I' for Inactive)
REMARK    1  A    between atoms: C_1  and  C_6
REMARK    2  A    between atoms: N_5  and  C_12
REMARK    3  A    between atoms: C_14  and  C_24
REMARK                            x       y       z     vdW  Elec       q    Type
REMARK                         _______ _______ _______ _____ _____    ______ ____
ROOT
ATOM      1  C   UNL     1      38.029  23.462  34.620  0.00  0.00    +0.000 A 
ATOM      2  C   UNL     1      38.269  24.567  33.797  0.00  0.00    +0.000 A 
ATOM      3  N   UNL     1      37.765  24.180  32.592  0.00  0.00    +0.000 NA
ATOM      4  C   UNL     1      37.280  22.956  32.723  0.00  0.00    +0.000 A 
ATOM      5  N   UNL     1      37.427  22.480  33.967  0.00  0.00    +0.000 N 
ATOM      6  H   UNL     1      38.736  25.518  34.018  0.00  0.00    +0.000 HD
ATOM      7  H   UNL     1      36.815  22.421  31.881  0.00  0.00    +0.000 HD
ENDROOT
BRANCH   1   8
ATOM      8  C   UNL     1      38.395  23.394  36.026  0.00  0.00    +0.000 A 
ATOM      9  C   UNL     1      39.593  22.802  36.424  0.00  0.00    +0.000 A 
ATOM     10  C   UNL     1      39.898  22.764  37.803  0.00  0.00    +0.000 A 
ATOM     11  N   UNL     1      39.010  23.303  38.652  0.00  0.00    +0.000 NA
ATOM     12  C   UNL     1      37.855  23.872  38.249  0.00  0.00    +0.000 A 
ATOM     13  N   UNL     1      37.542  23.921  36.940  0.00  0.00    +0.000 NA
ATOM     14  H   UNL     1      40.282  22.379  35.714  0.00  0.00    +0.000 HD
ATOM     15  H   UNL     1      40.795  22.327  38.178  0.00  0.00    +0.000 HD
ATOM     16  H   UNL     1      37.117  24.316  38.902  0.00  0.00    +0.000 HD
ENDBRANCH   1   8
BRANCH   5  17
ATOM     17  C   UNL     1      36.992  21.178  34.393  0.00  0.00    +0.000 C 
ATOM     18  C   UNL     1      35.852  20.953  35.259  0.00  0.00    +0.000 C 
ATOM     19  C   UNL     1      35.668  20.773  33.759  0.00  0.00    +0.000 C 
ATOM     20  H   UNL     1      37.803  20.412  34.392  0.00  0.00    +0.000 HD
ATOM     21  H   UNL     1      35.827  20.054  35.914  0.00  0.00    +0.000 HD
ATOM     22  H   UNL     1      35.241  21.778  35.709  0.00  0.00    +0.000 HD
ATOM     23  H   UNL     1      35.058  21.532  33.236  0.00  0.00    +0.000 HD
BRANCH  19  24
ATOM     24  C   UNL     1      35.541  19.351  33.342  0.00  0.00    +0.000 A 
ATOM     25  C   UNL     1      36.645  18.535  33.483  0.00  0.00    +0.000 A 
ATOM     26  C   UNL     1      36.527  17.200  33.092  0.00  0.00    +0.000 A 
ATOM     27  C   UNL     1      35.291  16.790  32.583  0.00  0.00    +0.000 A 
ATOM     28  H   UNL     1      35.129  15.772  32.261  0.00  0.00    +0.000 HD
ATOM     29  C   UNL     1      34.206  17.616  32.451  0.00  0.00    +0.000 A 
ATOM     30  N   UNL     1      34.385  18.910  32.851  0.00  0.00    +0.000 NA
ENDBRANCH  19  24
ENDBRANCH   5  17
TORSDOF 3
