
 OpenBabel03262519263D

 43 48  0  0  0  0  0  0  0  0999 V2000
   39.2540   23.4380   32.4520 C   0  0  0  0  0  0  0  0  0  0  0  0
   40.0690   22.3570   32.7670 C   0  0  0  0  0  0  0  0  0  0  0  0
   39.6270   21.0360   32.6730 C   0  0  0  0  0  0  0  0  0  0  0  0
   38.3320   20.7730   32.2510 C   0  0  0  0  0  0  0  0  0  0  0  0
   37.5010   21.8270   31.9300 C   0  0  0  0  0  0  0  0  0  0  0  0
   36.2280   21.5840   31.5020 C   0  0  0  0  0  0  0  0  0  0  0  0
   35.3620   22.5880   31.1560 C   0  0  0  0  0  0  0  0  0  0  0  0
   35.8350   23.8970   31.2580 C   0  0  0  0  0  0  0  0  0  0  0  0
   37.1310   24.1080   31.6970 C   0  0  0  0  0  0  0  0  0  0  0  0
   37.9910   23.1150   32.0420 C   0  0  0  0  0  0  0  0  0  0  0  0
   41.0810   22.6070   33.0950 H   0  0  0  0  0  0  0  0  0  0  0  0
   40.2990   20.2290   32.9290 H   0  0  0  0  0  0  0  0  0  0  0  0
   37.9960   19.7590   32.1800 H   0  0  0  0  0  0  0  0  0  0  0  0
   35.9400   20.5490   31.4520 H   0  0  0  0  0  0  0  0  0  0  0  0
   34.3840   22.2430   30.8340 H   0  0  0  0  0  0  0  0  0  0  0  0
   35.0400   24.5700   30.9510 H   0  0  0  0  0  0  0  0  0  0  0  0
   39.7480   24.7790   32.5690 C   0  0  0  0  0  0  0  0  0  0  0  0
   39.7050   25.5050   33.7750 C   0  0  0  0  0  0  0  0  0  0  0  0
   40.2280   26.8020   33.7750 C   0  0  0  0  0  0  0  0  0  0  0  0
   40.7550   27.3150   32.6210 N   0  0  0  0  0  0  0  0  0  0  0  0
   40.7850   26.5930   31.4810 C   0  0  0  0  0  0  0  0  0  0  0  0
   40.2940   25.3720   31.4810 N   0  0  0  0  0  0  0  0  0  0  0  0
   40.2260   27.4070   34.6550 H   0  0  0  0  0  0  0  0  0  0  0  0
   41.1970   26.9810   30.5740 H   0  0  0  0  0  0  0  0  0  0  0  0
   39.1750   24.9310   34.9160 N   0  0  0  0  0  0  0  0  0  0  0  0
   37.9270   25.0950   35.3860 C   0  0  0  0  0  0  0  0  0  0  0  0
   37.7210   24.3950   36.5220 N   0  0  0  0  0  0  0  0  0  0  0  0
   38.8880   23.7560   36.7860 C   0  0  0  0  0  0  0  0  0  0  0  0
   39.3130   22.9090   37.7770 C   0  0  0  0  0  0  0  0  0  0  0  0
   40.5500   22.3790   37.8420 N   0  0  0  0  0  0  0  0  0  0  0  0
   41.3980   22.7380   36.8370 C   0  0  0  0  0  0  0  0  0  0  0  0
   40.9840   23.5610   35.8780 N   0  0  0  0  0  0  0  0  0  0  0  0
   39.7700   24.1020   35.7830 C   0  0  0  0  0  0  0  0  0  0  0  0
   37.1240   25.6950   34.9710 H   0  0  0  0  0  0  0  0  0  0  0  0
   38.5820   22.6710   38.5370 H   0  0  0  0  0  0  0  0  0  0  0  0
   42.3960   22.3430   36.8430 H   0  0  0  0  0  0  0  0  0  0  0  0
   37.2570   25.5520   31.6290 C   0  0  0  0  0  0  0  0  0  0  0  0
   36.7240   26.2610   32.7440 C   0  0  0  0  0  0  0  0  0  0  0  0
   36.6610   27.6320   33.0030 C   0  0  0  0  0  0  0  0  0  0  0  0
   37.2100   28.3920   31.9990 C   0  0  0  0  0  0  0  0  0  0  0  0
   37.2210   29.4630   32.0820 H   0  0  0  0  0  0  0  0  0  0  0  0
   37.7410   27.7720   30.8960 C   0  0  0  0  0  0  0  0  0  0  0  0
   37.7310   26.4590   30.7850 N   0  0  0  0  0  0  0  0  0  0  0  0
  1 17  1  0  0  0  0
  1  2  1  0  0  0  0
  2 11  1  0  0  0  0
  3  2  2  0  0  0  0
  3 12  1  0  0  0  0
  4  3  1  0  0  0  0
  5 10  1  0  0  0  0
  5  4  2  0  0  0  0
  6  5  1  0  0  0  0
  7  8  1  0  0  0  0
  7  6  2  0  0  0  0
  8  9  2  0  0  0  0
  9 10  1  0  0  0  0
 10  1  2  0  0  0  0
 13  4  1  0  0  0  0
 14  6  1  0  0  0  0
 15  7  1  0  0  0  0
 16  8  1  0  0  0  0
 17 18  1  0  0  0  0
 18 19  2  0  0  0  0
 18 25  1  0  0  0  0
 19 23  1  0  0  0  0
 20 19  1  0  0  0  0
 21 20  2  0  0  0  0
 22 21  1  0  0  0  0
 22 17  2  0  0  0  0
 24 21  1  0  0  0  0
 25 26  1  0  0  0  0
 25 33  1  0  0  0  0
 26 27  2  0  0  0  0
 27 28  1  0  0  0  0
 28 29  1  0  0  0  0
 29 30  2  0  0  0  0
 29 35  1  0  0  0  0
 31 36  1  0  0  0  0
 31 30  1  0  0  0  0
 32 31  2  0  0  0  0
 33 32  1  0  0  0  0
 33 28  2  0  0  0  0
 34 26  1  0  0  0  0
 37  9  1  0  0  0  0
 37 38  1  0  0  0  0
 38 39  2  0  0  0  0
 40 41  1  0  0  0  0
 40 39  1  0  0  0  0
 42 40  2  0  0  0  0
 43 42  1  0  0  0  0
 43 37  2  0  0  0  0
M  END
>  <minimizedAffinity>
-6.28381729

>  <minimizedRMSD>
1.49076843

$$$$
