
 OpenBabel03262519573D

 30 33  0  0  1  0  0  0  0  0999 V2000
   38.1570   23.9150   34.5710 C   0  0  0  0  0  0  0  0  0  0  0  0
   38.3300   25.1590   33.9550 C   0  0  0  0  0  0  0  0  0  0  0  0
   37.9150   24.9400   32.6760 N   0  0  0  0  0  0  0  0  0  0  0  0
   37.5380   23.6750   32.5770 C   0  0  0  0  0  0  0  0  0  0  0  0
   37.6740   23.0110   33.7320 N   0  0  0  0  0  0  0  0  0  0  0  0
   38.6990   26.0940   34.3550 H   0  0  0  0  0  0  0  0  0  0  0  0
   37.1600   23.2530   31.6330 H   0  0  0  0  0  0  0  0  0  0  0  0
   38.4670   23.6420   35.9650 C   0  0  0  0  0  0  0  0  0  0  0  0
   39.6740   23.0430   36.3240 C   0  0  0  0  0  0  0  0  0  0  0  0
   39.9230   22.8010   37.6930 C   0  0  0  0  0  0  0  0  0  0  0  0
   38.9760   23.1640   38.5720 N   0  0  0  0  0  0  0  0  0  0  0  0
   37.8130   23.7430   38.2070 C   0  0  0  0  0  0  0  0  0  0  0  0
   37.5530   23.9840   36.9080 N   0  0  0  0  0  0  0  0  0  0  0  0
   40.4110   22.7650   35.5910 H   0  0  0  0  0  0  0  0  0  0  0  0
   40.8230   22.3470   38.0390 H   0  0  0  0  0  0  0  0  0  0  0  0
   37.0290   24.0490   38.8840 H   0  0  0  0  0  0  0  0  0  0  0  0
   37.3410   21.6240   33.9140 C   0  0  1  0  0  0  0  0  0  0  0  0
   36.1810   21.1640   34.6500 C   0  0  0  0  0  0  0  0  0  0  0  0
   36.0990   21.2190   33.1310 C   0  0  2  0  0  0  0  0  0  0  0  0
   38.2200   20.9400   33.8480 H   0  0  0  0  0  0  0  0  0  0  0  0
   36.2050   20.1710   35.1500 H   0  0  0  0  0  0  0  0  0  0  0  0
   35.4710   21.8490   35.1820 H   0  0  0  0  0  0  0  0  0  0  0  0
   35.4500   22.0000   32.6940 H   0  0  0  0  0  0  0  0  0  0  0  0
   36.1310   19.8800   32.4850 C   0  0  0  0  0  0  0  0  0  0  0  0
   36.8600   19.7410   31.3210 C   0  0  0  0  0  3  0  0  0  0  0  0
   36.8890   18.4850   30.7140 C   0  0  0  0  0  3  0  0  0  0  0  0
   36.1730   17.4560   31.3350 C   0  0  0  0  0  0  0  0  0  0  0  0
   36.1530   16.4600   30.9200 H   0  0  0  0  0  0  0  0  0  0  0  0
   35.4550   17.6150   32.4910 C   0  0  0  0  0  3  0  0  0  0  0  0
   35.4650   18.8680   33.0360 N   0  0  0  0  0  0  0  0  0  0  0  0
  1  8  1  0  0  0  0
  2  6  1  0  0  0  0
  2  1  2  0  0  0  0
  3  2  1  0  0  0  0
  4  3  2  0  0  0  0
  4  5  1  0  0  0  0
  5 17  1  0  0  0  0
  5  1  1  0  0  0  0
  7  4  1  0  0  0  0
  8  9  2  0  0  0  0
  8 13  1  0  0  0  0
  9 10  1  0  0  0  0
 10 15  1  0  0  0  0
 10 11  2  0  0  0  0
 12 11  1  0  0  0  0
 12 16  1  0  0  0  0
 13 12  2  0  0  0  0
 14  9  1  0  0  0  0
 17 20  1  6  0  0  0
 17 18  1  0  0  0  0
 18 21  1  0  0  0  0
 18 22  1  0  0  0  0
 19 23  1  6  0  0  0
 19 17  1  0  0  0  0
 19 18  1  0  0  0  0
 24 30  1  0  0  0  0
 24 19  1  0  0  0  0
 25 24  2  0  0  0  0
 26 25  1  0  0  0  0
 26 27  2  0  0  0  0
 27 29  1  0  0  0  0
 28 27  1  0  0  0  0
 29 30  2  0  0  0  0
M  END
>  <minimizedAffinity>
-4.85463142

>  <minimizedRMSD>
1.05103433

$$$$
