
 OpenBabel03262520003D

 33 36  0  0  1  0  0  0  0  0999 V2000
   39.4980   24.2760   34.3700 C   0  0  1  0  0  0  0  0  0  0  0  0
   38.2850   24.6270   35.0560 C   0  0  0  0  0  0  0  0  0  0  0  0
   38.8570   23.1790   35.1590 C   0  0  1  0  0  0  0  0  0  0  0  0
   40.4480   24.7310   34.8200 H   0  0  0  0  0  0  0  0  0  0  0  0
   37.3180   24.7110   34.5390 H   0  0  0  0  0  0  0  0  0  0  0  0
   38.3170   25.2510   35.9780 H   0  0  0  0  0  0  0  0  0  0  0  0
   39.0410   24.5130   31.9240 C   0  0  0  0  0  0  0  0  0  0  0  0
   39.5030   23.9260   30.7460 C   0  0  0  0  0  0  0  0  0  0  0  0
   40.4240   23.0220   31.1750 N   0  0  0  0  0  0  0  0  0  0  0  0
   40.4790   23.0950   32.5070 C   0  0  0  0  0  0  0  0  0  0  0  0
   39.6370   24.0040   32.9860 N   0  0  0  0  0  0  0  0  0  0  0  0
   39.1390   24.2030   29.7570 H   0  0  0  0  0  0  0  0  0  0  0  0
   41.1940   22.4040   32.9440 H   0  0  0  0  0  0  0  0  0  0  0  0
   38.0370   25.5640   31.9780 C   0  0  0  0  0  0  0  0  0  0  0  0
   38.4360   26.8990   32.2000 C   0  0  0  0  0  0  0  0  0  0  0  0
   37.4250   27.8850   32.2410 C   0  0  0  0  0  0  0  0  0  0  0  0
   36.1400   27.4790   32.0650 N   0  0  0  0  0  0  0  0  0  0  0  0
   35.8020   26.1860   31.8550 C   0  0  0  0  0  0  0  0  0  0  0  0
   36.7380   25.2240   31.8100 N   0  0  0  0  0  0  0  0  0  0  0  0
   39.4900   27.0920   32.3250 H   0  0  0  0  0  0  0  0  0  0  0  0
   37.7310   28.8960   32.4090 H   0  0  0  0  0  0  0  0  0  0  0  0
   34.7390   26.0320   31.7340 H   0  0  0  0  0  0  0  0  0  0  0  0
   37.7740   22.2440   34.7140 C   0  0  0  0  0  0  0  0  0  0  0  0
   37.4570   21.7620   33.4590 C   0  0  0  0  0  3  0  0  0  0  0  0
   36.3960   20.9040   33.3460 C   0  0  0  0  0  3  0  0  0  0  0  0
   35.6500   20.5210   34.4500 C   0  0  0  0  0  0  0  0  0  0  0  0
   34.8290   19.8430   34.2890 H   0  0  0  0  0  0  0  0  0  0  0  0
   35.9890   21.0180   35.6910 C   0  0  0  0  0  3  0  0  0  0  0  0
   37.0330   21.8600   35.7920 N   0  0  0  0  0  0  0  0  0  0  0  0
   39.3980   22.9140   36.5460 C   0  0  0  0  0  0  0  0  0  0  0  0
   39.7080   21.5780   36.6880 F   0  0  0  0  0  0  0  0  0  0  0  0
   40.7020   23.5710   36.6470 F   0  0  0  0  0  0  0  0  0  0  0  0
   38.6580   23.4210   37.5420 F   0  0  0  0  0  0  0  0  0  0  0  0
  1  4  1  1  0  0  0
  1  2  1  0  0  0  0
  1  3  1  0  0  0  0
  2  3  1  0  0  0  0
  2  6  1  0  0  0  0
  3 30  1  1  0  0  0
  5  2  1  0  0  0  0
  7 14  1  0  0  0  0
  7 11  1  0  0  0  0
  8  9  1  0  0  0  0
  8  7  2  0  0  0  0
  9 10  2  0  0  0  0
 10 13  1  0  0  0  0
 10 11  1  0  0  0  0
 11  1  1  0  0  0  0
 12  8  1  0  0  0  0
 14 15  1  0  0  0  0
 15 16  2  0  0  0  0
 15 20  1  0  0  0  0
 16 21  1  0  0  0  0
 17 16  1  0  0  0  0
 18 17  2  0  0  0  0
 19 18  1  0  0  0  0
 19 14  2  0  0  0  0
 22 18  1  0  0  0  0
 23  3  1  0  0  0  0
 23 29  1  0  0  0  0
 24 23  2  0  0  0  0
 25 24  1  0  0  0  0
 25 26  2  0  0  0  0
 26 28  1  0  0  0  0
 27 26  1  0  0  0  0
 28 29  2  0  0  0  0
 30 32  1  0  0  0  0
 30 31  1  0  0  0  0
 30 33  1  0  0  0  0
M  END
>  <minimizedAffinity>
-4.66027975

>  <minimizedRMSD>
3.05684066

$$$$
