
 OpenBabel03262519563D

 30 33  0  0  1  0  0  0  0  0999 V2000
   38.1430   25.4810   33.5530 C   0  0  0  0  0  0  0  0  0  0  0  0
   38.9460   26.6150   33.4000 C   0  0  0  0  0  0  0  0  0  0  0  0
   38.5310   27.1390   32.2130 N   0  0  0  0  0  0  0  0  0  0  0  0
   37.5720   26.3640   31.7340 C   0  0  0  0  0  0  0  0  0  0  0  0
   37.3050   25.3270   32.5390 N   0  0  0  0  0  0  0  0  0  0  0  0
   39.7200   27.0180   34.0400 H   0  0  0  0  0  0  0  0  0  0  0  0
   37.0720   26.5800   30.7770 H   0  0  0  0  0  0  0  0  0  0  0  0
   38.2140   24.5750   34.6880 C   0  0  0  0  0  0  0  0  0  0  0  0
   38.7580   23.2990   34.5500 C   0  0  0  0  0  0  0  0  0  0  0  0
   38.8030   22.4600   35.6870 C   0  0  0  0  0  0  0  0  0  0  0  0
   38.3140   22.9460   36.8380 N   0  0  0  0  0  0  0  0  0  0  0  0
   37.7900   24.1840   36.9530 C   0  0  0  0  0  0  0  0  0  0  0  0
   37.7380   25.0020   35.8850 N   0  0  0  0  0  0  0  0  0  0  0  0
   39.1410   22.9420   33.6100 H   0  0  0  0  0  0  0  0  0  0  0  0
   39.2040   21.4740   35.6540 H   0  0  0  0  0  0  0  0  0  0  0  0
   37.3890   24.6100   37.8620 H   0  0  0  0  0  0  0  0  0  0  0  0
   36.3110   24.3250   32.2670 C   0  0  1  0  0  0  0  0  0  0  0  0
   35.6550   24.1680   30.9850 C   0  0  0  0  0  0  0  0  0  0  0  0
   36.8180   23.2460   31.3200 C   0  0  2  0  0  0  0  0  0  0  0  0
   35.7650   23.9780   33.1760 H   0  0  0  0  0  0  0  0  0  0  0  0
   34.6280   23.7420   30.9400 H   0  0  0  0  0  0  0  0  0  0  0  0
   35.8320   24.8450   30.1090 H   0  0  0  0  0  0  0  0  0  0  0  0
   37.7590   23.4060   30.7630 H   0  0  0  0  0  0  0  0  0  0  0  0
   36.4020   21.8500   31.6220 C   0  0  0  0  0  0  0  0  0  0  0  0
   35.0520   21.5930   31.7570 C   0  0  0  0  0  3  0  0  0  0  0  0
   34.6600   20.2830   32.0410 C   0  0  0  0  0  3  0  0  0  0  0  0
   35.6710   19.3260   32.1670 C   0  0  0  0  0  0  0  0  0  0  0  0
   35.4410   18.2950   32.3860 H   0  0  0  0  0  0  0  0  0  0  0  0
   37.0070   19.6020   32.0300 C   0  0  0  0  0  3  0  0  0  0  0  0
   37.3260   20.9010   31.7520 N   0  0  0  0  0  0  0  0  0  0  0  0
  1  8  1  0  0  0  0
  2  1  2  0  0  0  0
  2  6  1  0  0  0  0
  3  2  1  0  0  0  0
  4  3  2  0  0  0  0
  4  5  1  0  0  0  0
  5  1  1  0  0  0  0
  7  4  1  0  0  0  0
  8 13  1  0  0  0  0
  9  8  2  0  0  0  0
  9 10  1  0  0  0  0
 10 11  2  0  0  0  0
 11 12  1  0  0  0  0
 12 16  1  0  0  0  0
 13 12  2  0  0  0  0
 14  9  1  0  0  0  0
 15 10  1  0  0  0  0
 17  5  1  0  0  0  0
 17 20  1  1  0  0  0
 18 19  1  0  0  0  0
 18 17  1  0  0  0  0
 19 23  1  6  0  0  0
 19 24  1  0  0  0  0
 19 17  1  0  0  0  0
 21 18  1  0  0  0  0
 22 18  1  0  0  0  0
 24 30  2  0  0  0  0
 24 25  1  0  0  0  0
 25 26  2  0  0  0  0
 26 27  1  0  0  0  0
 27 28  1  0  0  0  0
 29 27  2  0  0  0  0
 30 29  1  0  0  0  0
M  END
>  <minimizedAffinity>
-4.68843031

>  <minimizedRMSD>
2.92882752

$$$$
