
 OpenBabel03262516473D

 37 41  0  0  0  0  0  0  0  0999 V2000
   37.5090   22.1180   34.6840 C   0  0  0  0  0  0  0  0  0  0  0  0
   38.4310   23.1300   34.3900 C   0  0  0  0  0  0  0  0  0  0  0  0
   38.8460   23.9530   35.4230 C   0  0  0  0  0  0  0  0  0  0  0  0
   38.3180   23.7160   36.6790 N   0  0  0  0  0  0  0  0  0  0  0  0
   37.4410   22.7430   36.9290 C   0  0  0  0  0  0  0  0  0  0  0  0
   37.0340   21.9460   35.9450 N   0  0  0  0  0  0  0  0  0  0  0  0
   38.7790   23.2260   33.3690 H   0  0  0  0  0  0  0  0  0  0  0  0
   37.0510   22.5920   37.9300 H   0  0  0  0  0  0  0  0  0  0  0  0
   37.0110   21.2120   33.7070 N   0  0  0  0  0  0  0  0  0  0  0  0
   35.7150   20.8010   33.7110 C   0  0  0  0  0  0  0  0  0  0  0  0
   35.4680   19.9480   32.6980 N   0  0  0  0  0  0  0  0  0  0  0  0
   36.6140   19.7940   32.0200 C   0  0  0  0  0  0  0  0  0  0  0  0
   37.0340   19.0760   30.9030 C   0  0  0  0  0  0  0  0  0  0  0  0
   38.3080   19.1500   30.4680 N   0  0  0  0  0  0  0  0  0  0  0  0
   39.1880   19.9410   31.1330 C   0  0  0  0  0  0  0  0  0  0  0  0
   38.8330   20.6620   32.2280 N   0  0  0  0  0  0  0  0  0  0  0  0
   37.5490   20.5850   32.6630 C   0  0  0  0  0  0  0  0  0  0  0  0
   36.0080   18.2880   30.3000 N   0  0  0  0  0  0  0  0  0  0  0  0
   34.8750   21.0280   34.3590 H   0  0  0  0  0  0  0  0  0  0  0  0
   40.2120   19.9980   30.7820 H   0  0  0  0  0  0  0  0  0  0  0  0
   35.9840   18.6420   29.3250 H   0  0  0  0  0  0  0  0  0  0  0  0
   35.5240   17.5680   30.9140 H   0  0  0  0  0  0  0  0  0  0  0  0
   39.8010   25.0040   35.1200 C   0  0  0  0  0  0  0  0  0  0  0  0
   39.4300   26.3460   34.9770 C   0  0  0  0  0  0  0  0  0  0  0  0
   40.5820   27.0160   34.7000 N   0  0  0  0  0  0  0  0  0  0  0  0
   41.5660   26.1050   34.6850 C   0  0  0  0  0  0  0  0  0  0  0  0
   41.1130   24.8960   34.9340 N   0  0  0  0  0  0  0  0  0  0  0  0
   38.4580   26.8300   35.0550 H   0  0  0  0  0  0  0  0  0  0  0  0
   42.6000   26.3610   34.4870 H   0  0  0  0  0  0  0  0  0  0  0  0
   41.9030   23.7130   34.9870 C   0  0  0  0  0  0  0  0  0  0  0  0
   42.2380   22.8530   33.9590 C   0  0  0  0  0  0  0  0  0  0  0  0
   43.0270   21.7490   34.2350 C   0  0  0  0  0  0  0  0  0  0  0  0
   43.2560   21.1070   33.3740 H   0  0  0  0  0  0  0  0  0  0  0  0
   43.4840   21.4850   35.4980 C   0  0  0  0  0  0  0  0  0  0  0  0
   43.1470   22.3520   36.5370 C   0  0  0  0  0  0  0  0  0  0  0  0
   43.5180   22.1250   37.5300 H   0  0  0  0  0  0  0  0  0  0  0  0
   42.3550   23.4690   36.2850 C   0  0  0  0  0  0  0  0  0  0  0  0
  1  6  1  0  0  0  0
  2  1  2  0  0  0  0
  2  3  1  0  0  0  0
  3  4  2  0  0  0  0
  4  5  1  0  0  0  0
  5  8  1  0  0  0  0
  6  5  2  0  0  0  0
  7  2  1  0  0  0  0
  9 10  1  0  0  0  0
  9  1  1  0  0  0  0
 10 19  1  0  0  0  0
 11 10  2  0  0  0  0
 12 17  1  0  0  0  0
 12 11  1  0  0  0  0
 13 12  2  0  0  0  0
 14 13  1  0  0  0  0
 14 15  2  0  0  0  0
 15 16  1  0  0  0  0
 16 17  2  0  0  0  0
 17  9  1  0  0  0  0
 18 13  1  0  0  0  0
 18 22  1  0  0  0  0
 20 15  1  0  0  0  0
 21 18  1  0  0  0  0
 23  3  1  0  0  0  0
 24 28  1  0  0  0  0
 24 23  2  0  0  0  0
 25 24  1  0  0  0  0
 26 25  2  0  0  0  0
 26 27  1  0  0  0  0
 27 30  1  0  0  0  0
 27 23  1  0  0  0  0
 29 26  1  0  0  0  0
 30 37  1  0  0  0  0
 31 32  1  0  0  0  0
 31 30  2  0  0  0  0
 32 34  2  0  0  0  0
 33 32  1  0  0  0  0
 34 35  1  0  0  0  0
 35 36  1  0  0  0  0
 37 35  2  0  0  0  0
M  END
>  <minimizedAffinity>
-5.24829817

>  <minimizedRMSD>
3.73130536

$$$$
