
 OpenBabel03262519593D

 33 36  0  0  1  0  0  0  0  0999 V2000
   39.6510   23.1650   34.7320 C   0  0  1  0  0  0  0  0  0  0  0  0
   40.2810   23.9860   35.7290 C   0  0  0  0  0  0  0  0  0  0  0  0
   38.7280   23.9810   35.5810 C   0  0  1  0  0  0  0  0  0  0  0  0
   39.6780   22.0410   34.9540 H   0  0  0  0  0  0  0  0  0  0  0  0
   40.7700   24.9400   35.4850 H   0  0  0  0  0  0  0  0  0  0  0  0
   40.7040   23.5290   36.6530 H   0  0  0  0  0  0  0  0  0  0  0  0
   40.2470   24.2590   32.5650 C   0  0  0  0  0  0  0  0  0  0  0  0
   39.8110   24.1890   31.2420 C   0  0  0  0  0  0  0  0  0  0  0  0
   38.8190   23.2600   31.2780 N   0  0  0  0  0  0  0  0  0  0  0  0
   38.7020   22.8340   32.5380 C   0  0  0  0  0  0  0  0  0  0  0  0
   39.5700   23.4360   33.3440 N   0  0  0  0  0  0  0  0  0  0  0  0
   40.2400   24.7880   30.4390 H   0  0  0  0  0  0  0  0  0  0  0  0
   37.9260   22.0850   32.6650 H   0  0  0  0  0  0  0  0  0  0  0  0
   41.3220   25.1220   33.0300 C   0  0  0  0  0  0  0  0  0  0  0  0
   42.6320   24.6080   33.1370 C   0  0  0  0  0  0  0  0  0  0  0  0
   43.6430   25.4840   33.5900 C   0  0  0  0  0  0  0  0  0  0  0  0
   43.2830   26.7600   33.8930 N   0  0  0  0  0  0  0  0  0  0  0  0
   42.0130   27.2100   33.7760 C   0  0  0  0  0  0  0  0  0  0  0  0
   41.0290   26.4040   33.3480 N   0  0  0  0  0  0  0  0  0  0  0  0
   42.7880   23.5750   32.8660 H   0  0  0  0  0  0  0  0  0  0  0  0
   44.6350   25.0930   33.6700 H   0  0  0  0  0  0  0  0  0  0  0  0
   41.8960   28.2470   34.0560 H   0  0  0  0  0  0  0  0  0  0  0  0
   38.3010   25.4010   35.3640 C   0  0  0  0  0  0  0  0  0  0  0  0
   38.6090   26.5540   36.0590 C   0  0  0  0  0  3  0  0  0  0  0  0
   38.0670   27.7330   35.6260 C   0  0  0  0  0  3  0  0  0  0  0  0
   37.2300   27.7860   34.5230 C   0  0  0  0  0  0  0  0  0  0  0  0
   36.8390   28.7490   34.2380 H   0  0  0  0  0  0  0  0  0  0  0  0
   36.9380   26.6200   33.8480 C   0  0  0  0  0  3  0  0  0  0  0  0
   37.4750   25.4650   34.2800 N   0  0  0  0  0  0  0  0  0  0  0  0
   38.0800   23.2920   36.7610 C   0  0  0  0  0  0  0  0  0  0  0  0
   37.0030   24.0280   37.2070 F   0  0  0  0  0  0  0  0  0  0  0  0
   37.4610   22.0600   36.2710 F   0  0  0  0  0  0  0  0  0  0  0  0
   38.9310   22.9130   37.7240 F   0  0  0  0  0  0  0  0  0  0  0  0
  1  4  1  1  0  0  0
  1  3  1  0  0  0  0
  1  2  1  0  0  0  0
  2  6  1  0  0  0  0
  3  2  1  0  0  0  0
  3 30  1  1  0  0  0
  5  2  1  0  0  0  0
  7 14  1  0  0  0  0
  7 11  1  0  0  0  0
  8  9  1  0  0  0  0
  8  7  2  0  0  0  0
  9 10  2  0  0  0  0
 10 13  1  0  0  0  0
 10 11  1  0  0  0  0
 11  1  1  0  0  0  0
 12  8  1  0  0  0  0
 14 15  2  0  0  0  0
 14 19  1  0  0  0  0
 15 16  1  0  0  0  0
 16 21  1  0  0  0  0
 16 17  2  0  0  0  0
 18 17  1  0  0  0  0
 18 22  1  0  0  0  0
 19 18  2  0  0  0  0
 20 15  1  0  0  0  0
 23  3  1  0  0  0  0
 23 24  1  0  0  0  0
 25 24  2  0  0  0  0
 26 25  1  0  0  0  0
 27 26  1  0  0  0  0
 28 29  1  0  0  0  0
 28 26  2  0  0  0  0
 29 23  2  0  0  0  0
 30 31  1  0  0  0  0
 30 33  1  0  0  0  0
 32 30  1  0  0  0  0
M  END
>  <minimizedAffinity>
-4.59154558

>  <minimizedRMSD>
3.7829864

$$$$
