
 OpenBabel03262517053D

 33 36  0  0  0  0  0  0  0  0999 V2000
   39.0520   24.2390   35.1710 C   0  0  0  0  0  0  0  0  0  0  0  0
   39.9280   25.2820   34.9850 C   0  0  0  0  0  0  0  0  0  0  0  0
   40.1650   25.7650   33.7100 C   0  0  0  0  0  0  0  0  0  0  0  0
   39.5380   25.2200   32.6040 C   0  0  0  0  0  0  0  0  0  0  0  0
   38.6580   24.1660   32.8260 C   0  0  0  0  0  0  0  0  0  0  0  0
   38.4130   23.6770   34.0860 C   0  0  0  0  0  0  0  0  0  0  0  0
   40.4720   25.7810   35.7780 H   0  0  0  0  0  0  0  0  0  0  0  0
   40.8400   26.5800   33.5050 H   0  0  0  0  0  0  0  0  0  0  0  0
   39.6770   25.5450   31.5980 H   0  0  0  0  0  0  0  0  0  0  0  0
   38.1160   23.6710   32.0130 H   0  0  0  0  0  0  0  0  0  0  0  0
   39.5800   22.8700   37.2790 C   0  0  0  0  0  0  0  0  0  0  0  0
   38.8730   23.8110   36.5400 C   0  0  0  0  0  0  0  0  0  0  0  0
   37.9340   24.2730   37.4020 N   0  0  0  0  0  0  0  0  0  0  0  0
   38.0810   23.6390   38.5770 C   0  0  0  0  0  0  0  0  0  0  0  0
   39.0710   22.7830   38.5330 N   0  0  0  0  0  0  0  0  0  0  0  0
   37.4070   23.8780   39.4120 H   0  0  0  0  0  0  0  0  0  0  0  0
   39.4180   22.1510   39.2940 H   0  0  0  0  0  0  0  0  0  0  0  0
   42.6050   20.6920   37.0950 C   0  0  0  0  0  0  0  0  0  0  0  0
   41.5430   21.4190   37.6470 C   0  0  0  0  0  0  0  0  0  0  0  0
   40.7150   22.0880   36.7610 C   0  0  0  0  0  0  0  0  0  0  0  0
   40.9680   22.0110   35.3980 N   0  0  0  0  0  0  0  0  0  0  0  0
   42.0220   21.2820   34.9430 C   0  0  0  0  0  0  0  0  0  0  0  0
   42.8250   20.6370   35.7730 N   0  0  0  0  0  0  0  0  0  0  0  0
   43.2150   20.1920   37.8350 H   0  0  0  0  0  0  0  0  0  0  0  0
   41.3730   21.4580   38.7200 H   0  0  0  0  0  0  0  0  0  0  0  0
   42.1560   21.2690   33.8760 H   0  0  0  0  0  0  0  0  0  0  0  0
   37.4840   22.5660   34.3130 C   0  0  0  0  0  0  0  0  0  0  0  0
   37.1830   21.8950   35.4880 C   0  0  0  0  0  0  0  0  0  0  0  0
   36.2570   20.8790   35.4010 C   0  0  0  0  0  0  0  0  0  0  0  0
   35.6650   20.5520   34.2060 C   0  0  0  0  0  0  0  0  0  0  0  0
   34.9500   19.7380   34.2440 H   0  0  0  0  0  0  0  0  0  0  0  0
   35.9790   21.2350   33.0380 C   0  0  0  0  0  0  0  0  0  0  0  0
   36.8930   22.2280   33.1530 N   0  0  0  0  0  0  0  0  0  0  0  0
  1 12  1  0  0  0  0
  2  1  1  0  0  0  0
  2  7  1  0  0  0  0
  3  2  2  0  0  0  0
  4  5  2  0  0  0  0
  4  3  1  0  0  0  0
  5  6  1  0  0  0  0
  6 27  1  0  0  0  0
  6  1  2  0  0  0  0
  8  3  1  0  0  0  0
  9  4  1  0  0  0  0
 10  5  1  0  0  0  0
 11 15  1  0  0  0  0
 12 11  2  0  0  0  0
 12 13  1  0  0  0  0
 13 14  2  0  0  0  0
 14 16  1  0  0  0  0
 15 14  1  0  0  0  0
 15 17  1  0  0  0  0
 18 19  1  0  0  0  0
 18 24  1  0  0  0  0
 19 25  1  0  0  0  0
 20 11  1  0  0  0  0
 20 19  2  0  0  0  0
 21 20  1  0  0  0  0
 22 21  2  0  0  0  0
 22 23  1  0  0  0  0
 23 18  2  0  0  0  0
 26 22  1  0  0  0  0
 27 28  1  0  0  0  0
 29 28  2  0  0  0  0
 30 31  1  0  0  0  0
 30 29  1  0  0  0  0
 32 33  1  0  0  0  0
 32 30  2  0  0  0  0
 33 27  2  0  0  0  0
M  END
>  <minimizedAffinity>
-5.74949408

>  <minimizedRMSD>
0.371727943

$$$$
