
 OpenBabel03262519573D

 30 33  0  0  1  0  0  0  0  0999 V2000
   38.1580   23.9320   34.5750 C   0  0  0  0  0  0  0  0  0  0  0  0
   38.3240   25.1800   33.9650 C   0  0  0  0  0  0  0  0  0  0  0  0
   37.9130   24.9630   32.6840 N   0  0  0  0  0  0  0  0  0  0  0  0
   37.5450   23.6970   32.5790 C   0  0  0  0  0  0  0  0  0  0  0  0
   37.6840   23.0280   33.7320 N   0  0  0  0  0  0  0  0  0  0  0  0
   38.6860   26.1160   34.3690 H   0  0  0  0  0  0  0  0  0  0  0  0
   37.1710   23.2760   31.6330 H   0  0  0  0  0  0  0  0  0  0  0  0
   38.4670   23.6560   35.9690 C   0  0  0  0  0  0  0  0  0  0  0  0
   39.6740   23.0550   36.3270 C   0  0  0  0  0  0  0  0  0  0  0  0
   39.9220   22.8100   37.6960 C   0  0  0  0  0  0  0  0  0  0  0  0
   38.9750   23.1720   38.5750 N   0  0  0  0  0  0  0  0  0  0  0  0
   37.8130   23.7520   38.2110 C   0  0  0  0  0  0  0  0  0  0  0  0
   37.5530   23.9970   36.9120 N   0  0  0  0  0  0  0  0  0  0  0  0
   40.4110   22.7780   35.5930 H   0  0  0  0  0  0  0  0  0  0  0  0
   40.8220   22.3540   38.0410 H   0  0  0  0  0  0  0  0  0  0  0  0
   37.0290   24.0570   38.8890 H   0  0  0  0  0  0  0  0  0  0  0  0
   37.3600   21.6390   33.9070 C   0  0  1  0  0  0  0  0  0  0  0  0
   36.1910   21.1680   34.6230 C   0  0  0  0  0  0  0  0  0  0  0  0
   36.1350   21.2230   33.1040 C   0  0  2  0  0  0  0  0  0  0  0  0
   38.2450   20.9620   33.8560 H   0  0  0  0  0  0  0  0  0  0  0  0
   36.2150   20.1750   35.1230 H   0  0  0  0  0  0  0  0  0  0  0  0
   35.4660   21.8470   35.1430 H   0  0  0  0  0  0  0  0  0  0  0  0
   35.4870   21.9990   32.6560 H   0  0  0  0  0  0  0  0  0  0  0  0
   36.1890   19.8850   32.4580 C   0  0  0  0  0  0  0  0  0  0  0  0
   35.4130   18.8770   32.9940 C   0  0  0  0  0  3  0  0  0  0  0  0
   35.4620   17.6200   32.3880 C   0  0  0  0  0  3  0  0  0  0  0  0
   36.3000   17.4770   31.2780 C   0  0  0  0  0  0  0  0  0  0  0  0
   36.3870   16.5330   30.7610 H   0  0  0  0  0  0  0  0  0  0  0  0
   37.0640   18.4910   30.7610 C   0  0  0  0  0  3  0  0  0  0  0  0
   36.9710   19.6970   31.3970 N   0  0  0  0  0  0  0  0  0  0  0  0
  1  8  1  0  0  0  0
  2  6  1  0  0  0  0
  2  1  2  0  0  0  0
  3  2  1  0  0  0  0
  4  3  2  0  0  0  0
  4  5  1  0  0  0  0
  5 17  1  0  0  0  0
  5  1  1  0  0  0  0
  7  4  1  0  0  0  0
  8  9  2  0  0  0  0
  8 13  1  0  0  0  0
  9 10  1  0  0  0  0
 10 15  1  0  0  0  0
 10 11  2  0  0  0  0
 12 11  1  0  0  0  0
 12 16  1  0  0  0  0
 13 12  2  0  0  0  0
 14  9  1  0  0  0  0
 17 20  1  6  0  0  0
 17 18  1  0  0  0  0
 18 21  1  0  0  0  0
 18 22  1  0  0  0  0
 19 23  1  6  0  0  0
 19 17  1  0  0  0  0
 19 18  1  0  0  0  0
 24 25  1  0  0  0  0
 24 19  1  0  0  0  0
 26 25  2  0  0  0  0
 27 26  1  0  0  0  0
 28 27  1  0  0  0  0
 29 27  2  0  0  0  0
 29 30  1  0  0  0  0
 30 24  2  0  0  0  0
M  END
>  <minimizedAffinity>
-4.98861933

>  <minimizedRMSD>
1.06340408

$$$$
