
 OpenBabel03262519563D

 30 33  0  0  1  0  0  0  0  0999 V2000
   37.4150   22.2270   33.8040 C   0  0  0  0  0  0  0  0  0  0  0  0
   37.8440   21.9710   35.1100 C   0  0  0  0  0  0  0  0  0  0  0  0
   38.3790   23.1600   35.5060 N   0  0  0  0  0  0  0  0  0  0  0  0
   38.2620   24.0170   34.5050 C   0  0  0  0  0  0  0  0  0  0  0  0
   37.6690   23.4720   33.4340 N   0  0  0  0  0  0  0  0  0  0  0  0
   37.7860   21.0680   35.7030 H   0  0  0  0  0  0  0  0  0  0  0  0
   38.6240   25.0540   34.5810 H   0  0  0  0  0  0  0  0  0  0  0  0
   36.7660   21.2450   32.9490 C   0  0  0  0  0  0  0  0  0  0  0  0
   37.5170   20.4110   32.1220 C   0  0  0  0  0  0  0  0  0  0  0  0
   36.8350   19.4750   31.3120 C   0  0  0  0  0  0  0  0  0  0  0  0
   35.4960   19.4460   31.3890 N   0  0  0  0  0  0  0  0  0  0  0  0
   34.7850   20.2610   32.1950 C   0  0  0  0  0  0  0  0  0  0  0  0
   35.4120   21.1610   32.9770 N   0  0  0  0  0  0  0  0  0  0  0  0
   38.5920   20.4630   32.0860 H   0  0  0  0  0  0  0  0  0  0  0  0
   37.3450   18.8080   30.6560 H   0  0  0  0  0  0  0  0  0  0  0  0
   33.7070   20.2660   32.2840 H   0  0  0  0  0  0  0  0  0  0  0  0
   37.4140   24.1730   32.2050 C   0  0  1  0  0  0  0  0  0  0  0  0
   36.0850   24.4620   31.7040 C   0  0  0  0  0  0  0  0  0  0  0  0
   36.8370   25.5630   32.4390 C   0  0  2  0  0  0  0  0  0  0  0  0
   38.2430   24.0930   31.4630 H   0  0  0  0  0  0  0  0  0  0  0  0
   35.9200   24.5650   30.6080 H   0  0  0  0  0  0  0  0  0  0  0  0
   35.1430   24.1230   32.2080 H   0  0  0  0  0  0  0  0  0  0  0  0
   36.4640   25.8370   33.4430 H   0  0  0  0  0  0  0  0  0  0  0  0
   37.3320   26.6440   31.5460 C   0  0  0  0  0  0  0  0  0  0  0  0
   38.6860   26.9130   31.5470 C   0  0  0  0  0  3  0  0  0  0  0  0
   39.1520   27.9280   30.7080 C   0  0  0  0  0  3  0  0  0  0  0  0
   38.2050   28.5990   29.9290 C   0  0  0  0  0  0  0  0  0  0  0  0
   38.4950   29.3940   29.2590 H   0  0  0  0  0  0  0  0  0  0  0  0
   36.8630   28.3170   29.9440 C   0  0  0  0  0  3  0  0  0  0  0  0
   36.4710   27.3140   30.7830 N   0  0  0  0  0  0  0  0  0  0  0  0
  1  2  2  0  0  0  0
  2  3  1  0  0  0  0
  2  6  1  0  0  0  0
  4  7  1  0  0  0  0
  4  3  2  0  0  0  0
  5  1  1  0  0  0  0
  5  4  1  0  0  0  0
  8 13  1  0  0  0  0
  8  1  1  0  0  0  0
  9  8  2  0  0  0  0
 10 11  2  0  0  0  0
 10  9  1  0  0  0  0
 11 12  1  0  0  0  0
 12 16  1  0  0  0  0
 12 13  2  0  0  0  0
 14  9  1  0  0  0  0
 15 10  1  0  0  0  0
 17 20  1  6  0  0  0
 17 19  1  0  0  0  0
 17  5  1  0  0  0  0
 18 17  1  0  0  0  0
 18 22  1  0  0  0  0
 18 19  1  0  0  0  0
 19 23  1  1  0  0  0
 21 18  1  0  0  0  0
 24 25  1  0  0  0  0
 24 19  1  0  0  0  0
 26 25  2  0  0  0  0
 27 29  2  0  0  0  0
 27 26  1  0  0  0  0
 28 27  1  0  0  0  0
 29 30  1  0  0  0  0
 30 24  2  0  0  0  0
M  END
>  <minimizedAffinity>
-4.39693069

>  <minimizedRMSD>
7.10525274

$$$$
