
 OpenBabel03262519563D

 30 33  0  0  1  0  0  0  0  0999 V2000
   38.5380   23.7290   33.4440 C   0  0  0  0  0  0  0  0  0  0  0  0
   38.6380   23.7100   34.8390 C   0  0  0  0  0  0  0  0  0  0  0  0
   38.7400   25.0290   35.1670 N   0  0  0  0  0  0  0  0  0  0  0  0
   38.7000   25.7350   34.0490 C   0  0  0  0  0  0  0  0  0  0  0  0
   38.5760   24.9620   32.9620 N   0  0  0  0  0  0  0  0  0  0  0  0
   38.6380   22.8780   35.5310 H   0  0  0  0  0  0  0  0  0  0  0  0
   38.7650   26.8340   34.0520 H   0  0  0  0  0  0  0  0  0  0  0  0
   38.4070   22.5400   32.6170 C   0  0  0  0  0  0  0  0  0  0  0  0
   39.5360   21.8620   32.1590 C   0  0  0  0  0  0  0  0  0  0  0  0
   39.3500   20.7120   31.3590 C   0  0  0  0  0  0  0  0  0  0  0  0
   38.0900   20.3400   31.0870 N   0  0  0  0  0  0  0  0  0  0  0  0
   37.0090   21.0090   31.5390 C   0  0  0  0  0  0  0  0  0  0  0  0
   37.1600   22.1070   32.3030 N   0  0  0  0  0  0  0  0  0  0  0  0
   40.5320   22.1890   32.3970 H   0  0  0  0  0  0  0  0  0  0  0  0
   40.1660   20.1450   30.9740 H   0  0  0  0  0  0  0  0  0  0  0  0
   35.9810   20.7400   31.3410 H   0  0  0  0  0  0  0  0  0  0  0  0
   38.5080   25.4610   31.6160 C   0  0  1  0  0  0  0  0  0  0  0  0
   38.0700   26.7990   31.2740 C   0  0  0  0  0  0  0  0  0  0  0  0
   39.5650   26.5210   31.3370 C   0  0  2  0  0  0  0  0  0  0  0  0
   38.3850   24.6620   30.8470 H   0  0  0  0  0  0  0  0  0  0  0  0
   37.6010   26.9890   30.2830 H   0  0  0  0  0  0  0  0  0  0  0  0
   37.7010   27.5430   32.0270 H   0  0  0  0  0  0  0  0  0  0  0  0
   40.1220   26.9720   32.1790 H   0  0  0  0  0  0  0  0  0  0  0  0
   40.2170   26.4720   30.0010 C   0  0  0  0  0  0  0  0  0  0  0  0
   41.3310   25.6690   29.8560 C   0  0  0  0  0  3  0  0  0  0  0  0
   41.9440   25.6220   28.6030 C   0  0  0  0  0  3  0  0  0  0  0  0
   41.3800   26.3950   27.5840 C   0  0  0  0  0  0  0  0  0  0  0  0
   41.8030   26.4070   26.5910 H   0  0  0  0  0  0  0  0  0  0  0  0
   40.2730   27.1860   27.7490 C   0  0  0  0  0  3  0  0  0  0  0  0
   39.7190   27.1900   28.9970 N   0  0  0  0  0  0  0  0  0  0  0  0
  1  2  2  0  0  0  0
  2  3  1  0  0  0  0
  2  6  1  0  0  0  0
  4  7  1  0  0  0  0
  4  3  2  0  0  0  0
  5  1  1  0  0  0  0
  5  4  1  0  0  0  0
  8  1  1  0  0  0  0
  9 14  1  0  0  0  0
  9  8  2  0  0  0  0
 10  9  1  0  0  0  0
 11 10  2  0  0  0  0
 11 12  1  0  0  0  0
 12 13  2  0  0  0  0
 13  8  1  0  0  0  0
 15 10  1  0  0  0  0
 16 12  1  0  0  0  0
 17 20  1  6  0  0  0
 17  5  1  0  0  0  0
 18 19  1  0  0  0  0
 18 17  1  0  0  0  0
 18 22  1  0  0  0  0
 19 17  1  0  0  0  0
 19 23  1  1  0  0  0
 21 18  1  0  0  0  0
 24 19  1  0  0  0  0
 25 24  1  0  0  0  0
 26 25  2  0  0  0  0
 27 29  2  0  0  0  0
 27 26  1  0  0  0  0
 28 27  1  0  0  0  0
 29 30  1  0  0  0  0
 30 24  2  0  0  0  0
M  END
>  <minimizedAffinity>
-2.65898609

>  <minimizedRMSD>
7.45727682

$$$$
