
 OpenBabel03262519483D

 39 42  0  0  1  0  0  0  0  0999 V2000
   37.3760   25.7670   32.8790 N   0  0  0  0  0  0  0  0  0  0  0  0
   36.8960   24.6470   32.3370 C   0  0  0  0  0  0  0  0  0  0  0  0
   35.8670   24.8490   31.4500 C   0  0  0  0  0  0  0  0  0  0  0  0
   35.6990   26.1720   31.4420 N   0  0  0  0  0  0  0  0  0  0  0  0
   36.6050   26.7250   32.2990 C   0  0  0  0  0  0  0  0  0  0  0  0
   37.3140   23.6610   32.5990 H   0  0  0  0  0  0  0  0  0  0  0  0
   35.3420   24.0810   30.9050 H   0  0  0  0  0  0  0  0  0  0  0  0
   36.6540   28.2290   32.4570 C   0  0  1  0  0  0  0  0  0  0  0  0
   35.8010   29.0360   31.5600 C   0  0  0  0  0  0  0  0  0  0  0  0
   35.3860   28.8760   33.0040 C   0  0  2  0  0  0  0  0  0  0  0  0
   37.6030   28.5680   32.8780 H   0  0  0  0  0  0  0  0  0  0  0  0
   35.1830   28.4930   30.8060 H   0  0  0  0  0  0  0  0  0  0  0  0
   36.2170   29.9700   31.1830 H   0  0  0  0  0  0  0  0  0  0  0  0
   34.5010   28.2820   33.2230 H   0  0  0  0  0  0  0  0  0  0  0  0
   35.6520   30.1080   33.7940 C   0  0  0  0  0  0  0  0  0  0  0  0
   35.8330   30.1730   35.1660 C   0  0  0  0  0  0  0  0  0  0  0  0
   36.0740   31.3650   35.8070 C   0  0  0  0  0  0  0  0  0  0  0  0
   36.1470   32.5490   35.1220 C   0  0  0  0  0  0  0  0  0  0  0  0
   36.3320   33.4880   35.5800 H   0  0  0  0  0  0  0  0  0  0  0  0
   35.9660   32.4620   33.7700 C   0  0  0  0  0  0  0  0  0  0  0  0
   35.7330   31.2940   33.1680 N   0  0  0  0  0  0  0  0  0  0  0  0
   38.3870   26.0750   33.8200 C   0  0  0  0  0  0  0  0  0  0  0  0
   39.2060   25.3260   33.7350 H   0  0  0  0  0  0  0  0  0  0  0  0
   38.8690   27.0520   33.5690 H   0  0  0  0  0  0  0  0  0  0  0  0
   37.9090   26.0720   35.2240 C   0  0  1  0  0  0  0  0  0  0  0  0
   36.7900   25.9590   35.2530 H   0  0  0  0  0  0  0  0  0  0  0  0
   38.4800   23.5500   37.9890 C   0  0  0  0  0  0  0  0  0  0  0  0
   37.8800   24.6320   37.3130 C   0  0  0  0  0  0  0  0  0  0  0  0
   38.4610   24.9630   36.0370 C   0  0  0  0  0  0  0  0  0  0  0  0
   39.5350   24.2360   35.5500 N   0  0  0  0  0  0  0  0  0  0  0  0
   40.0530   23.2250   36.2400 C   0  0  0  0  0  0  0  0  0  0  0  0
   39.5200   22.8770   37.4740 N   0  0  0  0  0  0  0  0  0  0  0  0
   38.0420   23.3040   38.9460 H   0  0  0  0  0  0  0  0  0  0  0  0
   37.0560   25.2080   37.6570 H   0  0  0  0  0  0  0  0  0  0  0  0
   40.8800   22.7010   35.8180 H   0  0  0  0  0  0  0  0  0  0  0  0
   38.2090   27.4120   35.8900 C   0  0  0  0  0  0  0  0  0  0  0  0
   39.0680   27.9160   35.3820 H   0  0  0  0  0  0  0  0  0  0  0  0
   37.3140   28.0340   35.9540 H   0  0  0  0  0  0  0  0  0  0  0  0
   38.5020   27.1840   36.9360 H   0  0  0  0  0  0  0  0  0  0  0  0
  1 22  1  0  0  0  0
  2  6  1  0  0  0  0
  2  1  1  0  0  0  0
  3  2  2  0  0  0  0
  4  3  1  0  0  0  0
  4  5  2  0  0  0  0
  5  8  1  0  0  0  0
  5  1  1  0  0  0  0
  7  3  1  0  0  0  0
  8 11  1  1  0  0  0
  8 10  1  0  0  0  0
  9  8  1  0  0  0  0
  9 10  1  0  0  0  0
 10 14  1  1  0  0  0
 10 15  1  0  0  0  0
 12  9  1  0  0  0  0
 13  9  1  0  0  0  0
 15 16  1  0  0  0  0
 16 17  2  0  0  0  0
 18 19  1  0  0  0  0
 18 17  1  0  0  0  0
 20 18  2  0  0  0  0
 21 20  1  0  0  0  0
 21 15  2  0  0  0  0
 22 25  1  0  0  0  0
 23 22  1  0  0  0  0
 24 22  1  0  0  0  0
 25 26  1  6  0  0  0
 25 36  1  0  0  0  0
 25 29  1  0  0  0  0
 27 33  1  0  0  0  0
 28 34  1  0  0  0  0
 28 27  2  0  0  0  0
 29 28  1  0  0  0  0
 30 29  2  0  0  0  0
 30 31  1  0  0  0  0
 31 32  2  0  0  0  0
 32 27  1  0  0  0  0
 35 31  1  0  0  0  0
 36 38  1  0  0  0  0
 36 39  1  0  0  0  0
 37 36  1  0  0  0  0
M  END
>  <minimizedAffinity>
-5.75888586

>  <minimizedRMSD>
0.813963711

$$$$
