
 OpenBabel03262519593D

 32 35  0  0  1  0  0  0  0  0999 V2000
   39.0090   23.4520   32.6750 C   0  0  0  0  0  0  0  0  0  0  0  0
   39.6890   22.7530   31.6810 C   0  0  0  0  0  0  0  0  0  0  0  0
   39.7090   21.4710   32.1480 N   0  0  0  0  0  0  0  0  0  0  0  0
   39.0830   21.4550   33.3220 C   0  0  0  0  0  0  0  0  0  0  0  0
   38.6430   22.6610   33.6680 N   0  0  0  0  0  0  0  0  0  0  0  0
   40.0830   23.1840   30.7750 H   0  0  0  0  0  0  0  0  0  0  0  0
   39.0470   20.4740   33.7780 H   0  0  0  0  0  0  0  0  0  0  0  0
   38.7390   24.8860   32.6340 C   0  0  0  0  0  0  0  0  0  0  0  0
   39.6470   25.7800   33.2410 C   0  0  0  0  0  0  0  0  0  0  0  0
   39.3500   27.1600   33.1790 C   0  0  0  0  0  0  0  0  0  0  0  0
   38.2090   27.5250   32.5380 N   0  0  0  0  0  0  0  0  0  0  0  0
   37.3660   26.6380   31.9710 C   0  0  0  0  0  0  0  0  0  0  0  0
   37.6250   25.3180   32.0150 N   0  0  0  0  0  0  0  0  0  0  0  0
   40.5150   25.3520   33.7170 H   0  0  0  0  0  0  0  0  0  0  0  0
   40.0440   27.8270   33.6410 H   0  0  0  0  0  0  0  0  0  0  0  0
   36.5020   27.0810   31.4980 H   0  0  0  0  0  0  0  0  0  0  0  0
   37.9410   22.9100   34.8700 C   0  0  1  0  0  0  0  0  0  0  0  0
   37.8460   22.0370   36.0090 C   0  0  0  0  0  0  0  0  0  0  0  0
   38.7890   23.2700   36.0390 C   0  0  1  0  0  0  0  0  0  0  0  0
   37.0330   23.5790   34.6910 H   0  0  0  0  0  0  0  0  0  0  0  0
   36.9980   22.0850   36.7100 H   0  0  0  0  0  0  0  0  0  0  0  0
   38.3410   21.0740   36.0010 H   0  0  0  0  0  0  0  0  0  0  0  0
   40.1680   22.7280   36.3560 C   0  0  0  0  0  0  0  0  0  0  0  0
   41.1980   23.6230   35.7970 C   0  0  0  0  0  3  0  0  0  0  0  0
   42.7340   22.8080   36.2810 S   0  0  0  0  0  0  0  0  0  0  0  0
   41.7750   21.3940   37.1600 C   0  0  0  0  0  0  0  0  0  0  0  0
   42.2410   20.5510   37.6730 H   0  0  0  0  0  0  0  0  0  0  0  0
   40.6860   21.6750   36.9980 N   0  0  0  0  0  0  0  0  0  0  0  0
   38.2710   24.3340   36.9820 C   0  0  0  0  0  0  0  0  0  0  0  0
   38.5810   25.5900   36.4990 F   0  0  0  0  0  0  0  0  0  0  0  0
   36.8150   24.2980   36.9370 F   0  0  0  0  0  0  0  0  0  0  0  0
   38.6120   24.1400   38.2640 F   0  0  0  0  0  0  0  0  0  0  0  0
  1  5  1  0  0  0  0
  2  3  1  0  0  0  0
  2  1  2  0  0  0  0
  3  4  2  0  0  0  0
  4  5  1  0  0  0  0
  4  7  1  0  0  0  0
  5 17  1  0  0  0  0
  6  2  1  0  0  0  0
  8  1  1  0  0  0  0
  8  9  1  0  0  0  0
  9 14  1  0  0  0  0
 10  9  2  0  0  0  0
 10 15  1  0  0  0  0
 11 10  1  0  0  0  0
 12 13  1  0  0  0  0
 12 11  2  0  0  0  0
 13  8  2  0  0  0  0
 16 12  1  0  0  0  0
 17 20  1  6  0  0  0
 17 18  1  0  0  0  0
 17 19  1  0  0  0  0
 18 19  1  0  0  0  0
 18 21  1  0  0  0  0
 19 23  1  0  0  0  0
 19 29  1  1  0  0  0
 22 18  1  0  0  0  0
 23 28  1  0  0  0  0
 24 25  1  0  0  0  0
 24 23  2  0  0  0  0
 25 26  1  0  0  0  0
 26 27  1  0  0  0  0
 28 26  2  0  0  0  0
 29 32  1  0  0  0  0
 30 29  1  0  0  0  0
 31 29  1  0  0  0  0
M  END
>  <minimizedAffinity>
-4.42419338

>  <minimizedRMSD>
3.73210883

$$$$
