
 OpenBabel03262518533D

 25 27  0  0  0  0  0  0  0  0999 V2000
   39.8770   22.7390   37.5070 C   0  0  0  0  0  0  0  0  0  0  0  0
   39.2110   23.5170   38.5050 C   0  0  0  0  0  0  0  0  0  0  0  0
   37.8110   23.6610   38.3820 C   0  0  0  0  0  0  0  0  0  0  0  0
   37.1750   23.0660   37.3400 N   0  0  0  0  0  0  0  0  0  0  0  0
   37.8490   22.3340   36.4120 C   0  0  0  0  0  0  0  0  0  0  0  0
   39.1770   22.1840   36.5100 N   0  0  0  0  0  0  0  0  0  0  0  0
   37.2010   21.7080   35.3200 N   0  0  0  0  0  0  0  0  0  0  0  0
   37.8260   21.7840   34.1140 C   0  0  0  0  0  0  0  0  0  0  0  0
   37.2410   21.1950   33.0190 C   0  0  0  0  0  0  0  0  0  0  0  0
   36.0140   20.5410   33.2200 C   0  0  0  0  0  0  0  0  0  0  0  0
   35.4480   19.9850   32.2190 O   0  0  0  0  0  0  0  0  0  0  0  0
   35.4280   20.4880   34.4300 N   0  0  0  0  0  0  0  0  0  0  0  0
   36.0370   21.0810   35.4820 C   0  0  0  0  0  0  0  0  0  0  0  0
   35.5570   21.0760   36.6410 O   0  0  0  0  0  0  0  0  0  0  0  0
   40.9490   22.6260   37.5990 H   0  0  0  0  0  0  0  0  0  0  0  0
   39.7600   23.9710   39.3160 H   0  0  0  0  0  0  0  0  0  0  0  0
   37.3060   24.2460   39.1310 H   0  0  0  0  0  0  0  0  0  0  0  0
   38.7700   22.3050   34.0340 H   0  0  0  0  0  0  0  0  0  0  0  0
   34.5300   20.0100   34.5760 H   0  0  0  0  0  0  0  0  0  0  0  0
   37.8710   21.2450   31.6840 C   0  0  0  0  0  0  0  0  0  0  0  0
   38.4090   20.0770   31.1090 C   0  0  0  0  0  0  0  0  0  0  0  0
   39.0440   20.6870   29.5010 S   0  0  0  0  0  0  0  0  0  0  0  0
   38.4580   22.4500   29.8960 C   0  0  0  0  0  0  0  0  0  0  0  0
   38.5570   23.3510   29.2670 H   0  0  0  0  0  0  0  0  0  0  0  0
   37.9770   22.3380   30.9500 N   0  0  0  0  0  0  0  0  0  0  0  0
  1 15  1  0  0  0  0
  1  2  1  0  0  0  0
  2 16  1  0  0  0  0
  3  2  2  0  0  0  0
  3 17  1  0  0  0  0
  4  3  1  0  0  0  0
  5  6  1  0  0  0  0
  5  4  2  0  0  0  0
  6  1  2  0  0  0  0
  7 13  1  0  0  0  0
  7  5  1  0  0  0  0
  8  7  1  0  0  0  0
  9 10  1  0  0  0  0
  9  8  2  0  0  0  0
 10 12  1  0  0  0  0
 11 10  2  0  0  0  0
 12 19  1  0  0  0  0
 12 13  1  0  0  0  0
 13 14  2  0  0  0  0
 18  8  1  0  0  0  0
 20  9  1  0  0  0  0
 21 20  2  0  0  0  0
 22 23  1  0  0  0  0
 22 21  1  0  0  0  0
 23 25  2  0  0  0  0
 24 23  1  0  0  0  0
 25 20  1  0  0  0  0
M  END
>  <minimizedAffinity>
-4.85401726

>  <minimizedRMSD>
0.312063187

$$$$
