
 OpenBabel03262519573D

 29 32  0  0  1  0  0  0  0  0999 V2000
   38.1400   23.8510   34.5750 C   0  0  0  0  0  0  0  0  0  0  0  0
   38.3190   25.0670   33.9170 C   0  0  0  0  0  0  0  0  0  0  0  0
   37.9010   24.8130   32.6430 N   0  0  0  0  0  0  0  0  0  0  0  0
   37.5130   23.5510   32.5840 C   0  0  0  0  0  0  0  0  0  0  0  0
   37.6460   22.9140   33.7670 N   0  0  0  0  0  0  0  0  0  0  0  0
   38.7100   25.9840   34.3650 H   0  0  0  0  0  0  0  0  0  0  0  0
   37.1370   23.1240   31.6550 H   0  0  0  0  0  0  0  0  0  0  0  0
   38.4480   23.6100   35.9760 C   0  0  0  0  0  0  0  0  0  0  0  0
   39.6620   23.0090   36.3430 C   0  0  0  0  0  0  0  0  0  0  0  0
   39.9240   22.7940   37.7080 C   0  0  0  0  0  0  0  0  0  0  0  0
   38.9800   23.1820   38.5950 N   0  0  0  0  0  0  0  0  0  0  0  0
   37.8240   23.7570   38.2110 C   0  0  0  0  0  0  0  0  0  0  0  0
   37.5370   23.9800   36.9120 N   0  0  0  0  0  0  0  0  0  0  0  0
   40.3220   22.7510   35.5260 H   0  0  0  0  0  0  0  0  0  0  0  0
   40.8570   22.3350   37.9480 H   0  0  0  0  0  0  0  0  0  0  0  0
   37.1590   24.0190   39.0070 H   0  0  0  0  0  0  0  0  0  0  0  0
   37.3030   21.5450   33.9900 C   0  0  1  0  0  0  0  0  0  0  0  0
   36.1040   21.1380   34.7340 C   0  0  0  0  0  0  0  0  0  0  0  0
   36.0400   21.1150   33.2310 C   0  0  2  0  0  0  0  0  0  0  0  0
   38.1750   20.8550   33.9180 H   0  0  0  0  0  0  0  0  0  0  0  0
   35.5760   21.9530   35.2830 H   0  0  0  0  0  0  0  0  0  0  0  0
   36.1210   20.1880   35.2950 H   0  0  0  0  0  0  0  0  0  0  0  0
   35.4220   21.8820   32.7720 H   0  0  0  0  0  0  0  0  0  0  0  0
   36.0910   19.7740   32.5510 C   0  0  0  0  0  0  0  0  0  0  0  0
   36.9090   19.6470   31.3750 C   0  0  0  0  0  0  0  0  0  0  0  0
   36.6210   17.8530   30.9520 S   0  0  0  0  0  0  0  0  0  0  0  0
   35.4580   17.6270   32.4390 C   0  0  0  0  0  0  0  0  0  0  0  0
   34.9680   16.6940   32.6830 H   0  0  0  0  0  0  0  0  0  0  0  0
   35.4350   18.7090   32.9650 N   0  0  0  0  0  0  0  0  0  0  0  0
  1  8  1  0  0  0  0
  2  6  1  0  0  0  0
  2  1  2  0  0  0  0
  3  2  1  0  0  0  0
  4  3  2  0  0  0  0
  4  5  1  0  0  0  0
  5 17  1  0  0  0  0
  5  1  1  0  0  0  0
  7  4  1  0  0  0  0
  8  9  2  0  0  0  0
  8 13  1  0  0  0  0
  9 10  1  0  0  0  0
 10 15  1  0  0  0  0
 10 11  2  0  0  0  0
 12 11  1  0  0  0  0
 12 16  1  0  0  0  0
 13 12  2  0  0  0  0
 14  9  1  0  0  0  0
 17 20  1  6  0  0  0
 17 18  1  0  0  0  0
 18 21  1  0  0  0  0
 18 22  1  0  0  0  0
 19 23  1  6  0  0  0
 19 17  1  0  0  0  0
 19 18  1  0  0  0  0
 24 29  1  0  0  0  0
 24 19  1  0  0  0  0
 25 24  2  0  0  0  0
 26 25  1  0  0  0  0
 26 27  1  0  0  0  0
 27 28  1  0  0  0  0
 27 29  2  0  0  0  0
M  END
>  <minimizedAffinity>
-4.67239857

>  <minimizedRMSD>
0.880866468

$$$$
