
 OpenBabel03262519503D

 21 22  0  0  0  0  0  0  0  0999 V2000
   37.5540   27.4730   34.7970 C   0  0  0  0  0  0  0  0  0  0  0  0
   38.4010   27.0270   33.7090 C   0  0  0  0  0  0  0  0  0  0  0  0
   37.9400   27.4720   32.5060 C   0  0  0  0  0  0  0  0  0  0  0  0
   36.8000   28.2600   32.3990 N   0  0  0  0  0  0  0  0  0  0  0  0
   36.0750   28.6330   33.4440 C   0  0  0  0  0  0  0  0  0  0  0  0
   36.4370   28.2470   34.6570 N   0  0  0  0  0  0  0  0  0  0  0  0
   37.6650   27.2730   35.8710 H   0  0  0  0  0  0  0  0  0  0  0  0
   35.2770   29.2260   33.0270 H   0  0  0  0  0  0  0  0  0  0  0  0
   39.5100   26.2580   34.2380 C   0  0  0  0  0  0  0  0  0  0  0  0
   39.2410   24.7570   34.5440 C   0  0  0  0  0  0  0  0  0  0  0  0
   40.8810   24.2180   35.0470 S   0  0  0  0  0  0  0  0  0  0  0  0
   41.6740   25.9280   34.8080 C   0  0  0  0  0  0  0  0  0  0  0  0
   42.7030   26.5000   34.9000 H   0  0  0  0  0  0  0  0  0  0  0  0
   40.7120   26.7980   34.3770 N   0  0  0  0  0  0  0  0  0  0  0  0
   38.7450   26.9420   31.3480 C   0  0  0  0  0  0  0  0  0  0  0  0
   38.7770   27.7160   30.5430 H   0  0  0  0  0  0  0  0  0  0  0  0
   39.7840   26.7090   31.5950 H   0  0  0  0  0  0  0  0  0  0  0  0
   38.0320   25.6770   30.8730 C   0  0  0  0  0  0  0  0  0  0  0  0
   37.5430   26.0470   29.8760 H   0  0  0  0  0  0  0  0  0  0  0  0
   38.6830   24.8670   30.5600 H   0  0  0  0  0  0  0  0  0  0  0  0
   37.1280   25.4260   31.4460 H   0  0  0  0  0  0  0  0  0  0  0  0
  1  7  1  0  0  0  0
  2  9  1  0  0  0  0
  2  1  2  0  0  0  0
  3  2  1  0  0  0  0
  4  3  2  0  0  0  0
  4  5  1  0  0  0  0
  5  6  2  0  0  0  0
  6  1  1  0  0  0  0
  8  5  1  0  0  0  0
  9 14  1  0  0  0  0
  9 10  2  0  0  0  0
 10 11  1  0  0  0  0
 12 13  1  0  0  0  0
 12 11  1  0  0  0  0
 14 12  2  0  0  0  0
 15 17  1  0  0  0  0
 15  3  1  0  0  0  0
 16 15  1  0  0  0  0
 18 15  1  0  0  0  0
 18 21  1  0  0  0  0
 19 18  1  0  0  0  0
 20 18  1  0  0  0  0
M  END
>  <minimizedAffinity>
-2.87900329

>  <minimizedRMSD>
7.07941103

$$$$
