
 OpenBabel03262519563D

 29 32  0  0  1  0  0  0  0  0999 V2000
   38.1370   23.8500   34.5740 C   0  0  0  0  0  0  0  0  0  0  0  0
   38.3150   25.0660   33.9160 C   0  0  0  0  0  0  0  0  0  0  0  0
   37.8950   24.8120   32.6420 N   0  0  0  0  0  0  0  0  0  0  0  0
   37.5080   23.5500   32.5830 C   0  0  0  0  0  0  0  0  0  0  0  0
   37.6430   22.9130   33.7670 N   0  0  0  0  0  0  0  0  0  0  0  0
   38.7060   25.9830   34.3630 H   0  0  0  0  0  0  0  0  0  0  0  0
   37.1320   23.1220   31.6550 H   0  0  0  0  0  0  0  0  0  0  0  0
   38.4470   23.6100   35.9740 C   0  0  0  0  0  0  0  0  0  0  0  0
   39.6620   23.0080   36.3400 C   0  0  0  0  0  0  0  0  0  0  0  0
   39.9250   22.7930   37.7050 C   0  0  0  0  0  0  0  0  0  0  0  0
   38.9820   23.1820   38.5930 N   0  0  0  0  0  0  0  0  0  0  0  0
   37.8250   23.7570   38.2100 C   0  0  0  0  0  0  0  0  0  0  0  0
   37.5370   23.9790   36.9120 N   0  0  0  0  0  0  0  0  0  0  0  0
   40.3200   22.7500   35.5220 H   0  0  0  0  0  0  0  0  0  0  0  0
   40.8570   22.3350   37.9440 H   0  0  0  0  0  0  0  0  0  0  0  0
   37.1610   24.0180   39.0070 H   0  0  0  0  0  0  0  0  0  0  0  0
   37.3010   21.5440   33.9890 C   0  0  1  0  0  0  0  0  0  0  0  0
   36.1020   21.1370   34.7330 C   0  0  0  0  0  0  0  0  0  0  0  0
   36.0370   21.1130   33.2310 C   0  0  2  0  0  0  0  0  0  0  0  0
   38.1730   20.8540   33.9180 H   0  0  0  0  0  0  0  0  0  0  0  0
   35.5730   21.9510   35.2830 H   0  0  0  0  0  0  0  0  0  0  0  0
   36.1190   20.1870   35.2950 H   0  0  0  0  0  0  0  0  0  0  0  0
   35.4190   21.8800   32.7720 H   0  0  0  0  0  0  0  0  0  0  0  0
   36.0900   19.7720   32.5510 C   0  0  0  0  0  0  0  0  0  0  0  0
   36.9080   19.6440   31.3760 C   0  0  0  0  0  3  0  0  0  0  0  0
   36.6210   17.8510   30.9520 S   0  0  0  0  0  0  0  0  0  0  0  0
   35.4570   17.6240   32.4390 C   0  0  0  0  0  0  0  0  0  0  0  0
   34.9680   16.6910   32.6820 H   0  0  0  0  0  0  0  0  0  0  0  0
   35.4320   18.7080   32.9640 N   0  0  0  0  0  0  0  0  0  0  0  0
  1  8  1  0  0  0  0
  2  6  1  0  0  0  0
  2  1  2  0  0  0  0
  3  2  1  0  0  0  0
  4  3  2  0  0  0  0
  4  5  1  0  0  0  0
  5 17  1  0  0  0  0
  5  1  1  0  0  0  0
  7  4  1  0  0  0  0
  8  9  2  0  0  0  0
  8 13  1  0  0  0  0
  9 10  1  0  0  0  0
 10 15  1  0  0  0  0
 10 11  2  0  0  0  0
 12 11  1  0  0  0  0
 12 16  1  0  0  0  0
 13 12  2  0  0  0  0
 14  9  1  0  0  0  0
 17 20  1  6  0  0  0
 17 18  1  0  0  0  0
 18 21  1  0  0  0  0
 18 22  1  0  0  0  0
 19 23  1  6  0  0  0
 19 17  1  0  0  0  0
 19 18  1  0  0  0  0
 24 29  1  0  0  0  0
 24 19  1  0  0  0  0
 25 24  2  0  0  0  0
 26 25  1  0  0  0  0
 26 27  1  0  0  0  0
 27 28  1  0  0  0  0
 27 29  2  0  0  0  0
M  END
>  <minimizedAffinity>
-4.6674099

>  <minimizedRMSD>
0.763533115

$$$$
