
 OpenBabel03262519343D

 15 16  0  0  0  0  0  0  0  0999 V2000
   39.9050   22.6140   37.7940 C   0  0  0  0  0  0  0  0  0  0  0  0
   38.9770   23.6460   37.5790 C   0  0  0  0  0  0  0  0  0  0  0  0
   38.6860   23.9930   36.2600 C   0  0  0  0  0  0  0  0  0  0  0  0
   39.3130   23.3180   35.2430 N   0  0  0  0  0  0  0  0  0  0  0  0
   40.1990   22.3310   35.5060 C   0  0  0  0  0  0  0  0  0  0  0  0
   40.4910   21.9820   36.7610 N   0  0  0  0  0  0  0  0  0  0  0  0
   40.0750   22.4050   38.8440 H   0  0  0  0  0  0  0  0  0  0  0  0
   38.4970   24.1630   38.4140 H   0  0  0  0  0  0  0  0  0  0  0  0
   40.6790   21.8130   34.6740 H   0  0  0  0  0  0  0  0  0  0  0  0
   37.7060   25.0860   35.9710 C   0  0  0  0  0  0  0  0  0  0  0  0
   36.8390   24.9020   36.6430 H   0  0  0  0  0  0  0  0  0  0  0  0
   37.4070   25.0560   34.9090 H   0  0  0  0  0  0  0  0  0  0  0  0
   38.3600   26.4040   36.3000 C   0  0  0  0  0  0  0  0  0  0  0  0
   37.9550   27.6250   35.4820 C   0  0  0  0  0  0  0  0  0  0  0  0
   39.2950   27.0250   35.3030 C   0  0  0  0  0  0  0  0  0  0  0  0
  1  7  1  0  0  0  0
  2  1  1  0  0  0  0
  2  8  1  0  0  0  0
  3  2  2  0  0  0  0
  4  5  2  0  0  0  0
  4  3  1  0  0  0  0
  5  6  1  0  0  0  0
  6  1  2  0  0  0  0
  9  5  1  0  0  0  0
 10  3  1  0  0  0  0
 10 13  1  0  0  0  0
 10 11  1  0  0  0  0
 12 10  1  0  0  0  0
 14 13  1  0  0  0  0
 15 14  1  0  0  0  0
 15 13  1  0  0  0  0
M  END
>  <minimizedAffinity>
-3.33075285

>  <minimizedRMSD>
2.58207798

$$$$
