
 OpenBabel03262520003D

 32 35  0  0  1  0  0  0  0  0999 V2000
   38.2290   24.8620   31.2450 C   0  0  0  0  0  0  0  0  0  0  0  0
   37.4780   23.9560   30.5020 C   0  0  0  0  0  0  0  0  0  0  0  0
   36.2260   24.0640   31.0350 N   0  0  0  0  0  0  0  0  0  0  0  0
   36.2750   24.9690   32.0090 C   0  0  0  0  0  0  0  0  0  0  0  0
   37.4960   25.4750   32.1580 N   0  0  0  0  0  0  0  0  0  0  0  0
   37.8570   23.3400   29.7020 H   0  0  0  0  0  0  0  0  0  0  0  0
   35.3230   25.1270   32.4990 H   0  0  0  0  0  0  0  0  0  0  0  0
   39.6560   25.1030   31.0510 C   0  0  0  0  0  0  0  0  0  0  0  0
   40.5930   24.3510   31.7900 C   0  0  0  0  0  0  0  0  0  0  0  0
   41.9650   24.6140   31.5720 C   0  0  0  0  0  0  0  0  0  0  0  0
   42.2790   25.5740   30.6640 N   0  0  0  0  0  0  0  0  0  0  0  0
   41.3510   26.2720   29.9770 C   0  0  0  0  0  0  0  0  0  0  0  0
   40.0390   26.0420   30.1650 N   0  0  0  0  0  0  0  0  0  0  0  0
   40.2020   23.6190   32.4790 H   0  0  0  0  0  0  0  0  0  0  0  0
   42.6640   24.0390   32.1360 H   0  0  0  0  0  0  0  0  0  0  0  0
   41.7570   27.0010   29.2910 H   0  0  0  0  0  0  0  0  0  0  0  0
   37.8100   26.4590   33.1230 C   0  0  1  0  0  0  0  0  0  0  0  0
   37.1170   26.7060   34.3580 C   0  0  0  0  0  0  0  0  0  0  0  0
   38.4740   25.9530   34.3550 C   0  0  1  0  0  0  0  0  0  0  0  0
   38.2920   27.3760   32.6420 H   0  0  0  0  0  0  0  0  0  0  0  0
   37.1360   27.6920   34.8500 H   0  0  0  0  0  0  0  0  0  0  0  0
   36.2550   26.1090   34.6290 H   0  0  0  0  0  0  0  0  0  0  0  0
   38.2120   24.6280   35.0430 C   0  0  0  0  0  0  0  0  0  0  0  0
   37.9130   24.8550   36.4690 C   0  0  0  0  0  3  0  0  0  0  0  0
   37.6380   23.1820   37.0870 S   0  0  0  0  0  0  0  0  0  0  0  0
   37.9610   22.4250   35.3490 C   0  0  0  0  0  0  0  0  0  0  0  0
   37.9230   21.3590   35.1180 H   0  0  0  0  0  0  0  0  0  0  0  0
   38.1800   23.3330   34.7040 N   0  0  0  0  0  0  0  0  0  0  0  0
   39.5730   26.7970   34.9600 C   0  0  0  0  0  0  0  0  0  0  0  0
   40.6310   25.9980   35.3470 F   0  0  0  0  0  0  0  0  0  0  0  0
   40.1350   27.6210   33.8980 F   0  0  0  0  0  0  0  0  0  0  0  0
   39.1510   27.6460   35.9090 F   0  0  0  0  0  0  0  0  0  0  0  0
  1  5  1  0  0  0  0
  2  3  1  0  0  0  0
  2  1  2  0  0  0  0
  3  4  2  0  0  0  0
  4  5  1  0  0  0  0
  4  7  1  0  0  0  0
  5 17  1  0  0  0  0
  6  2  1  0  0  0  0
  8  1  1  0  0  0  0
  8  9  1  0  0  0  0
  9 14  1  0  0  0  0
 10  9  2  0  0  0  0
 10 15  1  0  0  0  0
 11 10  1  0  0  0  0
 12 13  1  0  0  0  0
 12 11  2  0  0  0  0
 13  8  2  0  0  0  0
 16 12  1  0  0  0  0
 17 20  1  6  0  0  0
 17 19  1  0  0  0  0
 17 18  1  0  0  0  0
 18 22  1  0  0  0  0
 18 21  1  0  0  0  0
 19 18  1  0  0  0  0
 19 29  1  1  0  0  0
 19 23  1  0  0  0  0
 23 24  2  0  0  0  0
 24 25  1  0  0  0  0
 26 25  1  0  0  0  0
 27 26  1  0  0  0  0
 28 23  1  0  0  0  0
 28 26  2  0  0  0  0
 29 30  1  0  0  0  0
 29 32  1  0  0  0  0
 31 29  1  0  0  0  0
M  END
>  <minimizedAffinity>
-4.61215067

>  <minimizedRMSD>
4.00694084

$$$$
