
     RDKit          3D

 30 33  0  0  0  0  0  0  0  0999 V2000
   38.0290   23.4725   34.6211 C   0  0  0  0  0  0  0  0  0  0  0  0
   38.2611   24.5708   33.7939 C   0  0  0  0  0  0  0  0  0  0  0  0
   37.7647   24.1784   32.5844 N   0  0  0  0  0  0  0  0  0  0  0  0
   37.2884   22.9533   32.7157 C   0  0  0  0  0  0  0  0  0  0  0  0
   37.4332   22.4746   33.9715 N   0  0  0  0  0  0  0  0  0  0  0  0
   38.3868   23.4029   36.0295 C   0  0  0  0  0  0  0  0  0  0  0  0
   39.5930   22.8043   36.4261 C   0  0  0  0  0  0  0  0  0  0  0  0
   39.9038   22.7561   37.7968 C   0  0  0  0  0  0  0  0  0  0  0  0
   39.0132   23.2947   38.6598 N   0  0  0  0  0  0  0  0  0  0  0  0
   37.8632   23.8625   38.2474 C   0  0  0  0  0  0  0  0  0  0  0  0
   37.5304   23.9276   36.9417 N   0  0  0  0  0  0  0  0  0  0  0  0
   37.0073   21.1789   34.3945 C   0  0  1  0  0  0  0  0  0  0  0  0
   35.8318   20.9710   35.2510 C   0  0  0  0  0  0  0  0  0  0  0  0
   35.6689   20.7573   33.7708 C   0  0  2  0  0  0  0  0  0  0  0  0
   38.7355   25.5079   34.0939 H   0  0  0  0  0  0  0  0  0  0  0  0
   36.8389   22.4333   31.8710 H   0  0  0  0  0  0  0  0  0  0  0  0
   40.2079   22.4154   35.6260 H   0  0  0  0  0  0  0  0  0  0  0  0
   40.8276   22.2944   38.0612 H   0  0  0  0  0  0  0  0  0  0  0  0
   37.2415   24.2531   39.0256 H   0  0  0  0  0  0  0  0  0  0  0  0
   37.8201   20.4170   34.3701 H   0  0  0  0  0  0  0  0  0  0  0  0
   35.4005   21.8904   35.7129 H   0  0  0  0  0  0  0  0  0  0  0  0
   35.8161   20.1043   35.9343 H   0  0  0  0  0  0  0  0  0  0  0  0
   35.0803   21.5045   33.2467 H   0  0  0  0  0  0  0  0  0  0  0  0
   35.5790   19.3393   33.2770 C   0  0  0  0  0  0  0  0  0  0  0  0
   35.0735   18.3421   34.1818 C   0  0  0  0  0  0  0  0  0  0  0  0
   35.1722   16.8220   33.1046 S   0  0  0  0  0  0  0  0  0  0  0  0
   35.8738   17.8261   31.6494 C   0  0  0  0  0  0  0  0  0  0  0  0
   36.1325   17.3945   30.6920 H   0  0  0  0  0  0  0  0  0  0  0  0
   35.9349   18.9527   32.0688 N   0  0  0  0  0  0  0  0  0  0  0  0
   34.7415   18.5169   35.2111 H   0  0  0  0  0  0  0  0  0  0  0  0
  1  6  1  0
  2  1  2  0
  3  4  2  0
  3  2  1  0
  4  5  1  0
  5 12  1  0
  5  1  1  0
  6  7  2  0
  6 11  1  0
  7  8  1  0
  8  9  2  0
 10  9  1  0
 11 10  2  0
 12 13  1  0
 14 12  1  0
 14 13  1  0
  2 15  1  0
  4 16  1  0
  7 17  1  0
  8 18  1  0
 10 19  1  0
 12 20  1  1
 13 21  1  0
 13 22  1  0
 14 23  1  6
 24 25  2  0
 25 26  1  0
 26 27  1  0
 27 28  1  0
 27 29  2  0
 29 24  1  0
 25 30  1  0
 14 24  1  0
M  ISO  8  15  14  16  14  17  14  18  14  19  14  20  13  21  13  22  13
M  ISO  2  23  13  28  14
M  END
>  <DihAtoms>  (1) 
11,13,23,24

>  <DihDeg>  (1) 
32.40748466474972

$$$$
