
 OpenBabel03262519593D

 32 35  0  0  1  0  0  0  0  0999 V2000
   38.7040   23.5420   32.8800 C   0  0  0  0  0  0  0  0  0  0  0  0
   39.3550   22.9450   31.8040 C   0  0  0  0  0  0  0  0  0  0  0  0
   39.4930   21.6400   32.1960 N   0  0  0  0  0  0  0  0  0  0  0  0
   38.9550   21.5240   33.4070 C   0  0  0  0  0  0  0  0  0  0  0  0
   38.4630   22.6770   33.8490 N   0  0  0  0  0  0  0  0  0  0  0  0
   39.6480   23.4700   30.9020 H   0  0  0  0  0  0  0  0  0  0  0  0
   39.0110   20.5200   33.8160 H   0  0  0  0  0  0  0  0  0  0  0  0
   38.3360   24.9490   32.9390 C   0  0  0  0  0  0  0  0  0  0  0  0
   39.2350   25.8850   33.4880 C   0  0  0  0  0  0  0  0  0  0  0  0
   38.8350   27.2430   33.5110 C   0  0  0  0  0  0  0  0  0  0  0  0
   37.6110   27.5470   33.0020 N   0  0  0  0  0  0  0  0  0  0  0  0
   36.7810   26.6120   32.4850 C   0  0  0  0  0  0  0  0  0  0  0  0
   37.1290   25.3160   32.4470 N   0  0  0  0  0  0  0  0  0  0  0  0
   40.1590   25.5000   33.8500 H   0  0  0  0  0  0  0  0  0  0  0  0
   39.5230   27.9370   33.9290 H   0  0  0  0  0  0  0  0  0  0  0  0
   35.8490   27.0240   32.1240 H   0  0  0  0  0  0  0  0  0  0  0  0
   37.8380   22.8190   35.1090 C   0  0  1  0  0  0  0  0  0  0  0  0
   37.8900   21.8880   36.2050 C   0  0  0  0  0  0  0  0  0  0  0  0
   38.7570   23.1830   36.2300 C   0  0  1  0  0  0  0  0  0  0  0  0
   36.8840   23.4530   35.0260 H   0  0  0  0  0  0  0  0  0  0  0  0
   37.0940   21.8400   36.9650 H   0  0  0  0  0  0  0  0  0  0  0  0
   38.4690   20.9630   36.1280 H   0  0  0  0  0  0  0  0  0  0  0  0
   40.1860   22.7330   36.4080 C   0  0  0  0  0  0  0  0  0  0  0  0
   41.2480   23.4940   35.9110 C   0  0  0  0  0  3  0  0  0  0  0  0
   42.4130   22.7990   36.2430 C   0  0  0  0  0  3  0  0  0  0  0  0
   41.9790   21.6580   36.9220 C   0  0  0  0  0  0  0  0  0  0  0  0
   42.5950   20.8770   37.3350 H   0  0  0  0  0  0  0  0  0  0  0  0
   40.6880   21.6510   37.0000 O   0  0  0  0  0  0  0  0  0  0  0  0
   38.2330   24.1560   37.2650 C   0  0  0  0  0  0  0  0  0  0  0  0
   38.4000   25.4510   36.8200 F   0  0  0  0  0  0  0  0  0  0  0  0
   36.7830   24.0050   37.3270 F   0  0  0  0  0  0  0  0  0  0  0  0
   38.6820   23.9390   38.5090 F   0  0  0  0  0  0  0  0  0  0  0  0
  1  8  1  0  0  0  0
  1  5  1  0  0  0  0
  2  3  1  0  0  0  0
  2  1  2  0  0  0  0
  3  4  2  0  0  0  0
  4  7  1  0  0  0  0
  4  5  1  0  0  0  0
  5 17  1  0  0  0  0
  6  2  1  0  0  0  0
  8  9  1  0  0  0  0
  9 10  2  0  0  0  0
  9 14  1  0  0  0  0
 10 15  1  0  0  0  0
 11 10  1  0  0  0  0
 12 11  2  0  0  0  0
 13 12  1  0  0  0  0
 13  8  2  0  0  0  0
 16 12  1  0  0  0  0
 17 20  1  6  0  0  0
 17 18  1  0  0  0  0
 17 19  1  0  0  0  0
 18 19  1  0  0  0  0
 18 21  1  0  0  0  0
 19 23  1  0  0  0  0
 19 29  1  1  0  0  0
 22 18  1  0  0  0  0
 23 28  1  0  0  0  0
 24 25  1  0  0  0  0
 24 23  2  0  0  0  0
 25 26  2  0  0  0  0
 26 28  1  0  0  0  0
 26 27  1  0  0  0  0
 29 31  1  0  0  0  0
 29 32  1  0  0  0  0
 30 29  1  0  0  0  0
M  END
>  <minimizedAffinity>
-4.51970243

>  <minimizedRMSD>
3.62329268

$$$$
