REMARK  Name = 
REMARK  4 active torsions:
REMARK  status: ('A' for Active; 'I' for Inactive)
REMARK    1  A    between atoms: C_1  and  C_6
REMARK    2  A    between atoms: N_5  and  C_12
REMARK    3  A    between atoms: C_14  and  C_15
REMARK    4  A    between atoms: C_14  and  C_27
REMARK                            x       y       z     vdW  Elec       q    Type
REMARK                         _______ _______ _______ _____ _____    ______ ____
ROOT
ATOM      1  C   UNL     1      37.873  23.698  33.502  0.00  0.00    +0.000 A 
ATOM      2  C   UNL     1      37.469  22.662  32.665  0.00  0.00    +0.000 A 
ATOM      3  N   UNL     1      37.481  21.564  33.484  0.00  0.00    +0.000 NA
ATOM      4  C   UNL     1      37.865  21.967  34.692  0.00  0.00    +0.000 A 
ATOM      5  N   UNL     1      38.111  23.272  34.730  0.00  0.00    +0.000 N 
ATOM      6  H   UNL     1      37.222  22.786  31.617  0.00  0.00    +0.000 HD
ATOM      7  H   UNL     1      37.909  21.168  35.426  0.00  0.00    +0.000 HD
ENDROOT
BRANCH   1   8
ATOM      8  C   UNL     1      38.022  25.083  33.081  0.00  0.00    +0.000 A 
ATOM      9  C   UNL     1      39.301  25.588  32.776  0.00  0.00    +0.000 A 
ATOM     10  C   UNL     1      39.391  26.938  32.359  0.00  0.00    +0.000 A 
ATOM     11  N   UNL     1      38.236  27.651  32.283  0.00  0.00    +0.000 NA
ATOM     12  C   UNL     1      37.028  27.123  32.587  0.00  0.00    +0.000 A 
ATOM     13  N   UNL     1      36.907  25.846  32.985  0.00  0.00    +0.000 NA
ATOM     14  H   UNL     1      40.116  24.912  32.883  0.00  0.00    +0.000 HD
ATOM     15  H   UNL     1      40.363  27.305  32.133  0.00  0.00    +0.000 HD
ATOM     16  H   UNL     1      36.215  27.826  32.473  0.00  0.00    +0.000 HD
ENDBRANCH   1   8
BRANCH   5  17
ATOM     17  C   UNL     1      38.534  23.946  35.899  0.00  0.00    +0.000 C 
ATOM     18  C   UNL     1      38.078  25.228  36.365  0.00  0.00    +0.000 C 
ATOM     19  C   UNL     1      37.557  23.918  37.030  0.00  0.00    +0.000 C 
ATOM     20  H   UNL     1      39.613  23.661  36.170  0.00  0.00    +0.000 HD
ATOM     21  H   UNL     1      38.702  25.867  37.011  0.00  0.00    +0.000 HD
ATOM     22  H   UNL     1      37.314  25.785  35.816  0.00  0.00    +0.000 HD
BRANCH  19  23
ATOM     23  C   UNL     1      36.053  23.957  36.924  0.00  0.00    +0.000 A 
ATOM     24  C   UNL     1      35.414  24.855  36.067  0.00  0.00    +0.000 A 
ATOM     25  C   UNL     1      34.044  24.625  36.215  0.00  0.00    +0.000 A 
ATOM     26  C   UNL     1      33.944  23.599  37.156  0.00  0.00    +0.000 A 
ATOM     27  H   UNL     1      33.038  23.148  37.529  0.00  0.00    +0.000 HD
ATOM     28  O   UNL     1      35.121  23.235  37.545  0.00  0.00    +0.000 OA
ENDBRANCH  19  23
BRANCH  19  29
ATOM     29  C   UNL     1      38.122  23.767  38.427  0.00  0.00    +0.000 C 
ATOM     30  F   UNL     1      37.516  22.706  39.067  0.00  0.00    +0.000 F 
ATOM     31  F   UNL     1      39.511  23.339  38.304  0.00  0.00    +0.000 F 
ATOM     32  F   UNL     1      38.145  24.901  39.141  0.00  0.00    +0.000 F 
ENDBRANCH  19  29
ENDBRANCH   5  17
TORSDOF 4
