
 OpenBabel03262519383D

 35 38  0  0  1  0  0  0  0  0999 V2000
   38.3250   24.5130   33.6000 N   0  0  0  0  0  0  0  0  0  0  0  0
   38.9980   24.3620   32.3470 C   0  0  0  0  0  0  0  0  0  0  0  0
   37.9270   24.4490   31.2980 C   0  0  0  0  0  0  0  0  0  0  0  0
   36.6450   24.6930   32.0870 C   0  0  0  0  0  0  0  0  0  0  0  0
   37.2550   25.4490   33.2950 C   0  0  2  0  0  0  0  0  0  0  0  0
   39.5620   23.4090   32.2840 H   0  0  0  0  0  0  0  0  0  0  0  0
   39.7230   25.2080   32.2340 H   0  0  0  0  0  0  0  0  0  0  0  0
   37.9140   23.4940   30.7430 H   0  0  0  0  0  0  0  0  0  0  0  0
   38.0930   25.3240   30.6090 H   0  0  0  0  0  0  0  0  0  0  0  0
   35.9250   25.3300   31.5600 H   0  0  0  0  0  0  0  0  0  0  0  0
   36.2290   23.7260   32.4250 H   0  0  0  0  0  0  0  0  0  0  0  0
   36.4890   25.3830   34.0880 H   0  0  0  0  0  0  0  0  0  0  0  0
   39.1190   25.1510   34.6140 C   0  0  0  0  0  0  0  0  0  0  0  0
   40.1800   25.0460   34.2860 H   0  0  0  0  0  0  0  0  0  0  0  0
   38.9620   26.2440   34.7020 H   0  0  0  0  0  0  0  0  0  0  0  0
   37.9750   24.1740   38.0880 C   0  0  0  0  0  0  0  0  0  0  0  0
   38.0390   24.8360   36.8640 C   0  0  0  0  0  0  0  0  0  0  0  0
   39.0210   24.4670   35.9290 C   0  0  0  0  0  0  0  0  0  0  0  0
   39.8790   23.4580   36.2790 N   0  0  0  0  0  0  0  0  0  0  0  0
   39.7870   22.8350   37.4760 C   0  0  0  0  0  0  0  0  0  0  0  0
   38.8390   23.2000   38.3650 N   0  0  0  0  0  0  0  0  0  0  0  0
   37.1950   24.5090   38.7570 H   0  0  0  0  0  0  0  0  0  0  0  0
   37.3740   25.6270   36.5780 H   0  0  0  0  0  0  0  0  0  0  0  0
   40.4850   22.0420   37.7150 H   0  0  0  0  0  0  0  0  0  0  0  0
   37.6840   26.6950   32.9600 O   0  0  0  0  0  0  0  0  0  0  0  0
   36.9730   27.8860   32.9510 C   0  0  0  0  0  0  0  0  0  0  0  0
   36.2270   28.4090   33.9870 C   0  0  0  0  0  0  0  0  0  0  0  0
   35.5600   29.6090   33.8600 C   0  0  0  0  0  0  0  0  0  0  0  0
   35.6660   30.2810   32.6380 C   0  0  0  0  0  0  0  0  0  0  0  0
   36.4090   29.7770   31.5830 C   0  0  0  0  0  0  0  0  0  0  0  0
   36.4660   30.4950   30.4110 C   0  0  0  0  0  0  0  0  0  0  0  0
   37.2010   30.0040   29.3540 C   0  0  0  0  0  0  0  0  0  0  0  0
   37.8720   28.8050   29.4710 C   0  0  0  0  0  0  0  0  0  0  0  0
   37.7940   28.1110   30.6600 C   0  0  0  0  0  0  0  0  0  0  0  0
   37.0680   28.5650   31.7460 C   0  0  0  0  0  0  0  0  0  0  0  0
  1 13  1  0  0  0  0
  2  1  1  0  0  0  0
  3  4  1  0  0  0  0
  3  2  1  0  0  0  0
  4 11  1  0  0  0  0
  4  5  1  0  0  0  0
  5  1  1  0  0  0  0
  5 12  1  1  0  0  0
  6  2  1  0  0  0  0
  7  2  1  0  0  0  0
  8  3  1  0  0  0  0
  9  3  1  0  0  0  0
 10  4  1  0  0  0  0
 13 15  1  0  0  0  0
 13 18  1  0  0  0  0
 14 13  1  0  0  0  0
 16 21  1  0  0  0  0
 16 22  1  0  0  0  0
 17 16  2  0  0  0  0
 18 19  2  0  0  0  0
 18 17  1  0  0  0  0
 19 20  1  0  0  0  0
 20 24  1  0  0  0  0
 20 21  2  0  0  0  0
 23 17  1  0  0  0  0
 25  5  1  0  0  0  0
 26 25  1  0  0  0  0
 26 27  1  0  0  0  0
 28 27  2  0  0  0  0
 29 28  1  0  0  0  0
 30 35  1  0  0  0  0
 30 29  2  0  0  0  0
 31 30  1  0  0  0  0
 32 33  1  0  0  0  0
 32 31  2  0  0  0  0
 33 34  2  0  0  0  0
 34 35  1  0  0  0  0
 35 26  2  0  0  0  0
M  END
>  <minimizedAffinity>
-5.52449703

>  <minimizedRMSD>
4.72888899

$$$$
