
 OpenBabel03262519323D

 40 44  0  0  0  0  0  0  0  0999 V2000
   41.5010   21.9770   36.4840 O   0  0  0  0  0  0  0  0  0  0  0  0
   40.1580   22.2660   36.5960 C   0  0  0  0  0  0  0  0  0  0  0  0
   39.7810   22.9860   37.7350 C   0  0  0  0  0  0  0  0  0  0  0  0
   38.4050   23.2880   37.8610 C   0  0  0  0  0  0  0  0  0  0  0  0
   37.5530   22.8840   36.9150 N   0  0  0  0  0  0  0  0  0  0  0  0
   37.9760   22.1830   35.8220 C   0  0  0  0  0  0  0  0  0  0  0  0
   39.2570   21.8850   35.6760 N   0  0  0  0  0  0  0  0  0  0  0  0
   37.1340   21.7200   34.7760 N   0  0  0  0  0  0  0  0  0  0  0  0
   37.4170   22.0220   33.4760 C   0  0  0  0  0  0  0  0  0  0  0  0
   36.5480   21.5340   32.4980 C   0  0  0  0  0  0  0  0  0  0  0  0
   35.4330   20.7700   32.8290 C   0  0  0  0  0  0  0  0  0  0  0  0
   34.6430   20.3250   31.9550 O   0  0  0  0  0  0  0  0  0  0  0  0
   35.1990   20.5000   34.1270 N   0  0  0  0  0  0  0  0  0  0  0  0
   36.0390   20.9710   35.0820 C   0  0  0  0  0  0  0  0  0  0  0  0
   35.8330   20.7280   36.2930 O   0  0  0  0  0  0  0  0  0  0  0  0
   40.4970   23.2940   38.4760 H   0  0  0  0  0  0  0  0  0  0  0  0
   38.0770   23.8380   38.7200 H   0  0  0  0  0  0  0  0  0  0  0  0
   38.2840   22.6150   33.2390 H   0  0  0  0  0  0  0  0  0  0  0  0
   36.7390   21.7510   31.4630 H   0  0  0  0  0  0  0  0  0  0  0  0
   34.3940   19.9410   34.4510 H   0  0  0  0  0  0  0  0  0  0  0  0
   42.4890   22.8800   36.2060 C   0  0  0  0  0  0  0  0  0  0  0  0
   42.3250   24.2470   36.0850 C   0  0  0  0  0  0  0  0  0  0  0  0
   43.5070   24.8400   35.8050 N   0  0  0  0  0  0  0  0  0  0  0  0
   44.4860   23.8860   35.7330 C   0  0  0  0  0  0  0  0  0  0  0  0
   45.8260   23.9680   35.4780 C   0  0  0  0  0  0  0  0  0  0  0  0
   46.5860   22.8260   35.4640 C   0  0  0  0  0  0  0  0  0  0  0  0
   45.9690   21.6080   35.7110 C   0  0  0  0  0  0  0  0  0  0  0  0
   44.5980   21.5160   35.9720 C   0  0  0  0  0  0  0  0  0  0  0  0
   43.8550   22.6690   35.9820 C   0  0  0  0  0  0  0  0  0  0  0  0
   41.4110   24.8200   36.1880 H   0  0  0  0  0  0  0  0  0  0  0  0
   43.6990   25.8560   35.6580 H   0  0  0  0  0  0  0  0  0  0  0  0
   46.2570   24.9290   35.2940 H   0  0  0  0  0  0  0  0  0  0  0  0
   47.6440   22.8920   35.2630 H   0  0  0  0  0  0  0  0  0  0  0  0
   46.6240   20.7700   35.6830 H   0  0  0  0  0  0  0  0  0  0  0  0
   44.0120   20.1830   36.2330 C   0  0  0  0  0  0  0  0  0  0  0  0
   43.7780   19.2770   35.2210 C   0  0  0  0  0  0  0  0  0  0  0  0
   43.2320   18.1190   35.7220 C   0  0  0  0  0  0  0  0  0  0  0  0
   43.1650   18.4070   37.0660 C   0  0  0  0  0  0  0  0  0  0  0  0
   42.7860   17.7570   37.8680 H   0  0  0  0  0  0  0  0  0  0  0  0
   43.6180   19.5890   37.3190 O   0  0  0  0  0  0  0  0  0  0  0  0
  1  2  1  0  0  0  0
  2  3  1  0  0  0  0
  3  4  2  0  0  0  0
  3 16  1  0  0  0  0
  4 17  1  0  0  0  0
  5  4  1  0  0  0  0
  6  5  2  0  0  0  0
  7  6  1  0  0  0  0
  7  2  2  0  0  0  0
  8 14  1  0  0  0  0
  8  6  1  0  0  0  0
  9  8  1  0  0  0  0
 10 11  1  0  0  0  0
 10  9  2  0  0  0  0
 11 13  1  0  0  0  0
 12 11  2  0  0  0  0
 13 20  1  0  0  0  0
 13 14  1  0  0  0  0
 14 15  2  0  0  0  0
 18  9  1  0  0  0  0
 19 10  1  0  0  0  0
 21  1  1  0  0  0  0
 22 30  1  0  0  0  0
 22 21  2  0  0  0  0
 23 22  1  0  0  0  0
 24 23  1  0  0  0  0
 24 29  1  0  0  0  0
 25 24  2  0  0  0  0
 26 25  1  0  0  0  0
 26 27  2  0  0  0  0
 27 28  1  0  0  0  0
 28 29  2  0  0  0  0
 28 35  1  0  0  0  0
 29 21  1  0  0  0  0
 31 23  1  0  0  0  0
 32 25  1  0  0  0  0
 33 26  1  0  0  0  0
 34 27  1  0  0  0  0
 35 40  1  0  0  0  0
 36 37  1  0  0  0  0
 36 35  2  0  0  0  0
 37 38  2  0  0  0  0
 38 40  1  0  0  0  0
 38 39  1  0  0  0  0
M  END
>  <minimizedAffinity>
-5.74727345

>  <minimizedRMSD>
2.19621825

$$$$
