
 OpenBabel03262520003D

 32 35  0  0  1  0  0  0  0  0999 V2000
   38.2220   23.9990   32.3810 C   0  0  0  0  0  0  0  0  0  0  0  0
   38.7760   23.0590   31.5170 C   0  0  0  0  0  0  0  0  0  0  0  0
   39.3890   22.1700   32.3600 N   0  0  0  0  0  0  0  0  0  0  0  0
   39.1870   22.5910   33.6050 C   0  0  0  0  0  0  0  0  0  0  0  0
   38.4730   23.7100   33.6460 N   0  0  0  0  0  0  0  0  0  0  0  0
   38.6930   23.0990   30.4370 H   0  0  0  0  0  0  0  0  0  0  0  0
   39.6350   21.9520   34.3610 H   0  0  0  0  0  0  0  0  0  0  0  0
   37.4620   25.1630   31.9500 C   0  0  0  0  0  0  0  0  0  0  0  0
   38.1140   26.4000   31.7790 C   0  0  0  0  0  0  0  0  0  0  0  0
   37.3320   27.4980   31.3460 C   0  0  0  0  0  0  0  0  0  0  0  0
   36.0090   27.2810   31.1270 N   0  0  0  0  0  0  0  0  0  0  0  0
   35.4250   26.0730   31.3050 C   0  0  0  0  0  0  0  0  0  0  0  0
   36.1370   25.0100   31.7140 N   0  0  0  0  0  0  0  0  0  0  0  0
   39.1560   26.4200   31.9910 H   0  0  0  0  0  0  0  0  0  0  0  0
   37.8380   28.4250   31.2230 H   0  0  0  0  0  0  0  0  0  0  0  0
   34.3670   26.0750   31.0860 H   0  0  0  0  0  0  0  0  0  0  0  0
   38.1220   24.3600   34.8510 C   0  0  1  0  0  0  0  0  0  0  0  0
   38.8330   24.3000   36.1000 C   0  0  0  0  0  0  0  0  0  0  0  0
   38.9530   25.5570   35.1860 C   0  0  1  0  0  0  0  0  0  0  0  0
   36.9850   24.5120   34.9200 H   0  0  0  0  0  0  0  0  0  0  0  0
   38.3270   24.4670   37.0650 H   0  0  0  0  0  0  0  0  0  0  0  0
   39.7580   23.7240   36.1910 H   0  0  0  0  0  0  0  0  0  0  0  0
   40.4230   25.7410   34.9080 C   0  0  0  0  0  0  0  0  0  0  0  0
   40.8850   26.8240   34.1560 C   0  0  0  0  0  3  0  0  0  0  0  0
   42.2740   26.6890   34.0920 C   0  0  0  0  0  3  0  0  0  0  0  0
   42.5630   25.5280   34.8120 C   0  0  0  0  0  0  0  0  0  0  0  0
   43.5380   25.0990   34.9830 H   0  0  0  0  0  0  0  0  0  0  0  0
   41.4740   25.0050   35.2700 O   0  0  0  0  0  0  0  0  0  0  0  0
   38.2410   26.7400   35.8090 C   0  0  0  0  0  0  0  0  0  0  0  0
   38.7060   27.9140   35.2550 F   0  0  0  0  0  0  0  0  0  0  0  0
   36.8450   26.6950   35.3870 F   0  0  0  0  0  0  0  0  0  0  0  0
   38.2230   26.7330   37.1500 F   0  0  0  0  0  0  0  0  0  0  0  0
  1  5  1  0  0  0  0
  2  3  1  0  0  0  0
  2  1  2  0  0  0  0
  3  4  2  0  0  0  0
  4  5  1  0  0  0  0
  4  7  1  0  0  0  0
  5 17  1  0  0  0  0
  6  2  1  0  0  0  0
  8  1  1  0  0  0  0
  9  8  1  0  0  0  0
  9 14  1  0  0  0  0
 10  9  2  0  0  0  0
 11 12  2  0  0  0  0
 11 10  1  0  0  0  0
 12 13  1  0  0  0  0
 13  8  2  0  0  0  0
 15 10  1  0  0  0  0
 16 12  1  0  0  0  0
 17 20  1  1  0  0  0
 17 19  1  0  0  0  0
 17 18  1  0  0  0  0
 18 22  1  0  0  0  0
 18 21  1  0  0  0  0
 19 29  1  1  0  0  0
 19 18  1  0  0  0  0
 23 19  1  0  0  0  0
 23 28  1  0  0  0  0
 24 23  2  0  0  0  0
 25 24  1  0  0  0  0
 25 26  2  0  0  0  0
 26 27  1  0  0  0  0
 26 28  1  0  0  0  0
 29 32  1  0  0  0  0
 30 29  1  0  0  0  0
 31 29  1  0  0  0  0
M  END
>  <minimizedAffinity>
-4.83155489

>  <minimizedRMSD>
4.32994127

$$$$
