
 OpenBabel03262519483D

 38 41  0  0  1  0  0  0  0  0999 V2000
   37.4150   25.7930   32.9070 N   0  0  0  0  0  0  0  0  0  0  0  0
   36.9470   24.6850   32.3180 C   0  0  0  0  0  0  0  0  0  0  0  0
   35.9160   24.9110   31.4380 C   0  0  0  0  0  0  0  0  0  0  0  0
   35.7340   26.2340   31.4820 N   0  0  0  0  0  0  0  0  0  0  0  0
   36.6320   26.7660   32.3630 C   0  0  0  0  0  0  0  0  0  0  0  0
   37.3680   23.6970   32.5370 H   0  0  0  0  0  0  0  0  0  0  0  0
   35.4150   24.1400   30.8720 H   0  0  0  0  0  0  0  0  0  0  0  0
   36.6650   28.2580   32.5810 C   0  0  1  0  0  0  0  0  0  0  0  0
   35.7690   29.0920   31.7520 C   0  0  0  0  0  0  0  0  0  0  0  0
   35.3980   28.8540   33.1950 C   0  0  2  0  0  0  0  0  0  0  0  0
   37.6180   28.6880   32.9220 H   0  0  0  0  0  0  0  0  0  0  0  0
   35.0460   28.5760   31.0540 H   0  0  0  0  0  0  0  0  0  0  0  0
   36.0300   30.0930   31.4110 H   0  0  0  0  0  0  0  0  0  0  0  0
   34.5650   28.2120   33.4670 H   0  0  0  0  0  0  0  0  0  0  0  0
   35.6420   30.0390   34.0540 C   0  0  0  0  0  0  0  0  0  0  0  0
   35.5210   31.3660   33.6290 C   0  0  0  0  0  0  0  0  0  0  0  0
   35.8240   32.1960   34.6940 C   0  0  0  0  0  0  0  0  0  0  0  0
   36.1160   31.3140   35.7270 C   0  0  0  0  0  0  0  0  0  0  0  0
   36.4100   31.4900   36.7580 H   0  0  0  0  0  0  0  0  0  0  0  0
   35.9990   30.0760   35.3120 O   0  0  0  0  0  0  0  0  0  0  0  0
   38.4170   26.0680   33.8560 C   0  0  0  0  0  0  0  0  0  0  0  0
   38.9200   27.0480   33.6180 H   0  0  0  0  0  0  0  0  0  0  0  0
   39.2180   25.2930   33.7630 H   0  0  0  0  0  0  0  0  0  0  0  0
   37.9380   26.0430   35.2600 C   0  0  1  0  0  0  0  0  0  0  0  0
   36.8170   25.9120   35.2650 H   0  0  0  0  0  0  0  0  0  0  0  0
   38.5160   23.5030   38.0060 C   0  0  0  0  0  0  0  0  0  0  0  0
   37.9280   24.5760   37.3270 C   0  0  0  0  0  0  0  0  0  0  0  0
   38.4950   24.9360   36.0600 C   0  0  0  0  0  0  0  0  0  0  0  0
   39.5770   24.2210   35.5730 N   0  0  0  0  0  0  0  0  0  0  0  0
   40.0990   23.2040   36.2610 C   0  0  0  0  0  0  0  0  0  0  0  0
   39.5670   22.8390   37.4900 N   0  0  0  0  0  0  0  0  0  0  0  0
   38.0720   23.2540   38.9550 H   0  0  0  0  0  0  0  0  0  0  0  0
   37.0850   25.1480   37.6860 H   0  0  0  0  0  0  0  0  0  0  0  0
   40.9320   22.6650   35.8700 H   0  0  0  0  0  0  0  0  0  0  0  0
   38.2240   27.3790   35.9400 C   0  0  0  0  0  0  0  0  0  0  0  0
   38.5260   28.1420   35.2230 H   0  0  0  0  0  0  0  0  0  0  0  0
   37.4050   27.6200   36.6140 H   0  0  0  0  0  0  0  0  0  0  0  0
   39.1190   27.2070   36.6060 H   0  0  0  0  0  0  0  0  0  0  0  0
  1 21  1  0  0  0  0
  2  6  1  0  0  0  0
  2  1  1  0  0  0  0
  3  4  1  0  0  0  0
  3  2  2  0  0  0  0
  4  5  2  0  0  0  0
  5  8  1  0  0  0  0
  5  1  1  0  0  0  0
  7  3  1  0  0  0  0
  8 11  1  1  0  0  0
  8 10  1  0  0  0  0
  9  8  1  0  0  0  0
  9 10  1  0  0  0  0
 10 14  1  1  0  0  0
 10 15  1  0  0  0  0
 12  9  1  0  0  0  0
 13  9  1  0  0  0  0
 15 20  1  0  0  0  0
 16 15  2  0  0  0  0
 16 17  1  0  0  0  0
 17 18  2  0  0  0  0
 18 19  1  0  0  0  0
 20 18  1  0  0  0  0
 21 24  1  0  0  0  0
 22 21  1  0  0  0  0
 23 21  1  0  0  0  0
 24 25  1  6  0  0  0
 24 35  1  0  0  0  0
 24 28  1  0  0  0  0
 26 32  1  0  0  0  0
 27 33  1  0  0  0  0
 27 26  2  0  0  0  0
 28 27  1  0  0  0  0
 29 28  2  0  0  0  0
 29 30  1  0  0  0  0
 30 31  2  0  0  0  0
 31 26  1  0  0  0  0
 34 30  1  0  0  0  0
 35 38  1  0  0  0  0
 35 37  1  0  0  0  0
 36 35  1  0  0  0  0
M  END
>  <minimizedAffinity>
-5.4446311

>  <minimizedRMSD>
0.855225086

$$$$
