
     RDKit          3D

 31 34  0  0  0  0  0  0  0  0999 V2000
   38.0289   23.4655   34.6215 C   0  0  0  0  0  0  0  0  0  0  0  0
   38.2661   24.5681   33.8023 C   0  0  0  0  0  0  0  0  0  0  0  0
   37.7627   24.1745   32.5873 N   0  0  0  0  0  0  0  0  0  0  0  0
   37.2843   22.9538   32.7174 C   0  0  0  0  0  0  0  0  0  0  0  0
   37.4323   22.4814   33.9671 N   0  0  0  0  0  0  0  0  0  0  0  0
   38.3904   23.3978   36.0254 C   0  0  0  0  0  0  0  0  0  0  0  0
   39.5828   22.8099   36.4292 C   0  0  0  0  0  0  0  0  0  0  0  0
   39.9048   22.7602   37.8030 C   0  0  0  0  0  0  0  0  0  0  0  0
   39.0204   23.2952   38.6526 N   0  0  0  0  0  0  0  0  0  0  0  0
   37.8567   23.8679   38.2474 C   0  0  0  0  0  0  0  0  0  0  0  0
   37.5330   23.9241   36.9386 N   0  0  0  0  0  0  0  0  0  0  0  0
   36.9964   21.1666   34.3930 C   0  0  1  0  0  0  0  0  0  0  0  0
   35.8469   20.9666   35.2590 C   0  0  0  0  0  0  0  0  0  0  0  0
   35.6694   20.7733   33.7601 C   0  0  2  0  0  0  0  0  0  0  0  0
   38.7295   25.5074   34.0452 H   0  0  0  0  0  0  0  0  0  0  0  0
   36.8220   22.4043   31.8871 H   0  0  0  0  0  0  0  0  0  0  0  0
   40.2620   22.3947   35.7271 H   0  0  0  0  0  0  0  0  0  0  0  0
   40.8163   22.3160   38.1719 H   0  0  0  0  0  0  0  0  0  0  0  0
   37.1240   24.3075   38.9089 H   0  0  0  0  0  0  0  0  0  0  0  0
   37.7801   20.4048   34.2108 H   0  0  0  0  0  0  0  0  0  0  0  0
   35.8698   20.0969   35.9342 H   0  0  0  0  0  0  0  0  0  0  0  0
   35.3781   21.8581   35.7098 H   0  0  0  0  0  0  0  0  0  0  0  0
   35.0759   21.5258   33.2082 H   0  0  0  0  0  0  0  0  0  0  0  0
   35.4652   19.3444   33.3951 C   0  0  0  0  0  0  0  0  0  0  0  0
   34.5466   18.4364   33.9367 C   0  0  0  0  0  0  0  0  0  0  0  0
   34.7526   17.2406   33.2618 C   0  0  0  0  0  0  0  0  0  0  0  0
   35.7686   17.4794   32.3600 C   0  0  0  0  0  0  0  0  0  0  0  0
   36.1863   16.7481   31.6613 H   0  0  0  0  0  0  0  0  0  0  0  0
   36.1592   18.7048   32.4617 O   0  0  0  0  0  0  0  0  0  0  0  0
   33.8447   18.7100   34.7331 H   0  0  0  0  0  0  0  0  0  0  0  0
   34.1952   16.3492   33.4556 H   0  0  0  0  0  0  0  0  0  0  0  0
  1  6  1  0
  2  1  2  0
  3  4  2  0
  3  2  1  0
  4  5  1  0
  5 12  1  0
  5  1  1  0
  6  7  2  0
  6 11  1  0
  7  8  1  0
  8  9  2  0
 10  9  1  0
 11 10  2  0
 12 13  1  0
 14 12  1  0
 14 13  1  0
  2 15  1  0
  4 16  1  0
  7 17  1  0
  8 18  1  0
 10 19  1  0
 12 20  1  1
 13 21  1  0
 13 22  1  0
 14 23  1  6
 24 25  2  0
 25 26  1  0
 26 27  2  0
 27 28  1  0
 27 29  1  0
 29 24  1  0
 25 30  1  0
 26 31  1  0
 14 24  1  0
M  ISO  8  15  14  16  14  17  14  18  14  19  14  20  13  21  13  22  13
M  ISO  2  23  13  28  14
M  END
>  <DihAtoms>  (1) 
11,13,23,24

>  <DihDeg>  (1) 
24.563047808399663

$$$$
