
 OpenBabel03262518493D

 29 30  0  0  0  0  0  0  0  0999 V2000
   39.0680   21.7510   31.8060 C   0  0  0  0  0  0  0  0  0  0  0  0
   38.0840   21.2240   32.6170 C   0  0  0  0  0  0  0  0  0  0  0  0
   38.0490   21.5700   33.9480 C   0  0  0  0  0  0  0  0  0  0  0  0
   38.9580   22.4270   34.5060 C   0  0  0  0  0  0  0  0  0  0  0  0
   39.9490   22.9570   33.6810 C   0  0  0  0  0  0  0  0  0  0  0  0
   40.0240   22.6370   32.3360 C   0  0  0  0  0  0  0  0  0  0  0  0
   37.2900   21.1720   34.6100 H   0  0  0  0  0  0  0  0  0  0  0  0
   40.6570   23.6290   34.1310 H   0  0  0  0  0  0  0  0  0  0  0  0
   40.8110   23.0750   31.7370 H   0  0  0  0  0  0  0  0  0  0  0  0
   39.7800   22.8800   38.0660 C   0  0  0  0  0  0  0  0  0  0  0  0
   38.6470   23.5060   38.5600 C   0  0  0  0  0  0  0  0  0  0  0  0
   37.6220   23.7610   37.6700 C   0  0  0  0  0  0  0  0  0  0  0  0
   37.7500   23.4020   36.3650 N   0  0  0  0  0  0  0  0  0  0  0  0
   38.9000   22.7830   35.9290 C   0  0  0  0  0  0  0  0  0  0  0  0
   39.8880   22.5300   36.7580 N   0  0  0  0  0  0  0  0  0  0  0  0
   40.6390   22.6370   38.6870 H   0  0  0  0  0  0  0  0  0  0  0  0
   38.6690   23.7380   39.6080 H   0  0  0  0  0  0  0  0  0  0  0  0
   36.7410   24.2500   38.0620 H   0  0  0  0  0  0  0  0  0  0  0  0
   39.2450   21.1940   30.2290 S   0  0  0  0  0  0  0  0  0  0  0  0
   39.0920   22.4110   29.2610 O   0  0  0  0  0  0  0  0  0  0  0  0
   40.5930   20.5810   30.1260 O   0  0  0  0  0  0  0  0  0  0  0  0
   38.3820   20.1070   29.3200 C   0  0  0  0  0  0  0  0  0  0  0  0
   39.2200   18.7980   29.2120 C   0  0  0  0  0  0  0  0  0  0  0  0
   38.5740   18.0340   28.7950 H   0  0  0  0  0  0  0  0  0  0  0  0
   36.8230   20.1370   31.9850 S   0  0  0  0  0  0  0  0  0  0  0  0
   35.2030   20.5480   32.6390 C   0  0  0  0  0  0  0  0  0  0  0  0
   34.2040   19.8260   32.0490 F   0  0  0  0  0  0  0  0  0  0  0  0
   35.1940   20.1620   33.9740 F   0  0  0  0  0  0  0  0  0  0  0  0
   34.9830   21.8910   32.6530 F   0  0  0  0  0  0  0  0  0  0  0  0
  1  6  2  0  0  0  0
  1  2  1  0  0  0  0
  2  3  2  0  0  0  0
  3  4  1  0  0  0  0
  3  7  1  0  0  0  0
  4 14  1  0  0  0  0
  5  8  1  0  0  0  0
  5  4  2  0  0  0  0
  6  5  1  0  0  0  0
  9  6  1  0  0  0  0
 10 11  1  0  0  0  0
 10 16  1  0  0  0  0
 11 17  1  0  0  0  0
 12 18  1  0  0  0  0
 12 11  2  0  0  0  0
 13 12  1  0  0  0  0
 14 13  2  0  0  0  0
 14 15  1  0  0  0  0
 15 10  2  0  0  0  0
 19  1  1  0  0  0  0
 20 19  2  0  0  0  0
 21 19  2  0  0  0  0
 22 19  1  0  0  0  0
 23 22  1  0  0  0  0
 24 23  1  0  0  0  0
 25  2  1  0  0  0  0
 25 26  1  0  0  0  0
 26 29  1  0  0  0  0
 26 28  1  0  0  0  0
 27 26  1  0  0  0  0
M  END
>  <minimizedAffinity>
-4.32884026

>  <minimizedRMSD>
1.06185544

$$$$
