
 OpenBabel03262509493D

 28 30  0  0  0  0  0  0  0  0999 V2000
   39.0740   23.0810   37.7380 C   0  0  0  0  0  0  0  0  0  0  0  0
   40.3920   22.7060   37.3890 C   0  0  0  0  0  0  0  0  0  0  0  0
   40.8420   23.1190   36.1640 C   0  0  0  0  0  0  0  0  0  0  0  0
   39.9630   23.8330   35.4480 N   0  0  0  0  0  0  0  0  0  0  0  0
   38.7590   24.1950   35.7190 C   0  0  0  0  0  0  0  0  0  0  0  0
   38.3110   23.7950   36.9190 N   0  0  0  0  0  0  0  0  0  0  0  0
   38.0890   24.9440   34.7530 N   0  0  0  0  0  0  0  0  0  0  0  0
   37.7640   26.2310   35.0600 C   0  0  0  0  0  0  0  0  0  0  0  0
   37.0960   26.7810   33.9720 C   0  0  0  0  0  0  0  0  0  0  0  0
   37.0360   25.8210   33.0440 N   0  0  0  0  0  0  0  0  0  0  0  0
   37.6420   24.6900   33.5100 C   0  0  0  0  0  0  0  0  0  0  0  0
   40.9730   22.1320   38.0710 H   0  0  0  0  0  0  0  0  0  0  0  0
   41.8440   22.8630   35.8420 H   0  0  0  0  0  0  0  0  0  0  0  0
   37.9350   26.8130   35.9380 H   0  0  0  0  0  0  0  0  0  0  0  0
   36.6670   27.7460   33.7730 H   0  0  0  0  0  0  0  0  0  0  0  0
   37.7160   23.4510   32.8030 C   0  0  0  0  0  0  0  0  0  0  0  0
   37.3880   22.2020   33.4720 C   0  0  0  0  0  0  0  0  0  0  0  0
   37.6400   21.1810   32.5860 N   0  0  0  0  0  0  0  0  0  0  0  0
   38.0930   21.7650   31.4280 C   0  0  0  0  0  0  0  0  0  0  0  0
   38.1130   23.0910   31.5980 N   0  0  0  0  0  0  0  0  0  0  0  0
   37.0150   22.1280   34.4850 H   0  0  0  0  0  0  0  0  0  0  0  0
   38.2980   20.9690   30.7290 H   0  0  0  0  0  0  0  0  0  0  0  0
   38.3130   23.6740   30.3060 C   0  0  0  0  0  0  0  0  0  0  0  0
   39.5280   24.6460   30.2870 C   0  0  0  0  0  0  0  0  0  0  0  0
   39.2210   25.4760   30.9560 H   0  0  0  0  0  0  0  0  0  0  0  0
   38.5670   22.6940   39.0400 N   0  0  0  0  0  0  0  0  0  0  0  0
   37.7150   22.0760   39.0620 H   0  0  0  0  0  0  0  0  0  0  0  0
   39.1050   23.0710   39.8510 H   0  0  0  0  0  0  0  0  0  0  0  0
  1 26  1  0  0  0  0
  2  1  1  0  0  0  0
  2 12  1  0  0  0  0
  3  2  2  0  0  0  0
  4  5  2  0  0  0  0
  4  3  1  0  0  0  0
  5  6  1  0  0  0  0
  6  1  2  0  0  0  0
  7  8  1  0  0  0  0
  7  5  1  0  0  0  0
  8 14  1  0  0  0  0
  9  8  2  0  0  0  0
 10 11  2  0  0  0  0
 10  9  1  0  0  0  0
 11  7  1  0  0  0  0
 13  3  1  0  0  0  0
 15  9  1  0  0  0  0
 16 17  2  0  0  0  0
 16 11  1  0  0  0  0
 17 21  1  0  0  0  0
 18 17  1  0  0  0  0
 19 20  1  0  0  0  0
 19 18  2  0  0  0  0
 20 16  1  0  0  0  0
 22 19  1  0  0  0  0
 23 20  1  0  0  0  0
 24 23  1  0  0  0  0
 24 25  1  0  0  0  0
 26 27  1  0  0  0  0
 26 28  1  0  0  0  0
M  END
>  <minimizedAffinity>
-4.75683403

>  <minimizedRMSD>
1.62985134

$$$$
