
 OpenBabel03262519173D

 32 34  0  0  0  0  0  0  0  0999 V2000
   37.9050   27.6150   35.5150 C   0  0  0  0  0  0  0  0  0  0  0  0
   37.0910   27.4790   34.4000 C   0  0  0  0  0  0  0  0  0  0  0  0
   37.1460   26.3120   33.6350 C   0  0  0  0  0  0  0  0  0  0  0  0
   38.0260   25.3710   34.0610 N   0  0  0  0  0  0  0  0  0  0  0  0
   38.8130   25.5130   35.1470 C   0  0  0  0  0  0  0  0  0  0  0  0
   38.7340   26.6510   35.8630 N   0  0  0  0  0  0  0  0  0  0  0  0
   37.7740   28.5730   36.0380 H   0  0  0  0  0  0  0  0  0  0  0  0
   36.5600   26.1000   32.7500 H   0  0  0  0  0  0  0  0  0  0  0  0
   39.7160   24.4250   35.4980 C   0  0  0  0  0  0  0  0  0  0  0  0
   40.7420   24.2160   34.6650 C   0  0  0  0  0  0  0  0  0  0  0  0
   41.6590   22.7740   35.4190 S   0  0  0  0  0  0  0  0  0  0  0  0
   40.3650   22.7330   36.8310 C   0  0  0  0  0  0  0  0  0  0  0  0
   39.7590   23.5790   36.4630 N   0  0  0  0  0  0  0  0  0  0  0  0
   40.4190   21.7960   37.8940 N   0  0  0  0  0  0  0  0  0  0  0  0
   41.2090   24.6820   33.6160 H   0  0  0  0  0  0  0  0  0  0  0  0
   40.4530   20.7860   37.6420 H   0  0  0  0  0  0  0  0  0  0  0  0
   40.4200   22.2320   38.8580 H   0  0  0  0  0  0  0  0  0  0  0  0
   36.1320   28.4790   33.9150 C   0  0  0  0  0  0  0  0  0  0  0  0
   35.7310   29.5820   34.6900 C   0  0  0  0  0  0  0  0  0  0  0  0
   34.8450   30.4130   34.1030 C   0  0  0  0  0  0  0  0  0  0  0  0
   34.4090   30.1370   32.8350 C   0  0  0  0  0  0  0  0  0  0  0  0
   35.3090   28.5550   32.3750 S   0  0  0  0  0  0  0  0  0  0  0  0
   36.1030   29.7660   35.6990 H   0  0  0  0  0  0  0  0  0  0  0  0
   33.5170   30.7270   31.8910 C   0  0  0  0  0  0  0  0  0  0  0  0
   33.9270   31.4680   30.9910 O   0  0  0  0  0  0  0  0  0  0  0  0
   32.0820   30.4470   31.9920 N   0  0  0  0  0  0  0  0  0  0  0  0
   31.9930   29.4060   31.8280 H   0  0  0  0  0  0  0  0  0  0  0  0
   31.6140   31.3650   32.1930 H   0  0  0  0  0  0  0  0  0  0  0  0
   34.1350   31.9020   34.8130 S   0  0  0  0  0  0  0  0  0  0  0  0
   34.4650   31.8050   36.6020 C   0  0  0  0  0  0  0  0  0  0  0  0
   33.1500   31.5760   37.3180 C   0  0  0  0  0  0  0  0  0  0  0  0
   32.7390   30.5980   37.0170 H   0  0  0  0  0  0  0  0  0  0  0  0
  1  6  1  0  0  0  0
  1  7  1  0  0  0  0
  2  1  2  0  0  0  0
  3  4  2  0  0  0  0
  3  2  1  0  0  0  0
  4  5  1  0  0  0  0
  5  9  1  0  0  0  0
  5  6  2  0  0  0  0
  8  3  1  0  0  0  0
  9 13  1  0  0  0  0
 10 11  1  0  0  0  0
 10  9  2  0  0  0  0
 11 12  1  0  0  0  0
 12 14  1  0  0  0  0
 13 12  2  0  0  0  0
 14 17  1  0  0  0  0
 15 10  1  0  0  0  0
 16 14  1  0  0  0  0
 18  2  1  0  0  0  0
 18 19  2  0  0  0  0
 19 23  1  0  0  0  0
 20 19  1  0  0  0  0
 20 29  1  0  0  0  0
 21 20  2  0  0  0  0
 22 21  1  0  0  0  0
 22 18  1  0  0  0  0
 24 26  1  0  0  0  0
 24 21  1  0  0  0  0
 25 24  2  0  0  0  0
 26 28  1  0  0  0  0
 27 26  1  0  0  0  0
 29 30  1  0  0  0  0
 30 31  1  0  0  0  0
 32 31  1  0  0  0  0
M  END
>  <minimizedAffinity>
-5.35801077

>  <minimizedRMSD>
2.37028384

$$$$
