
 OpenBabel03262511043D

 35 39  0  0  0  0  0  0  0  0999 V2000
   38.5740   23.7250   36.3850 C   0  0  0  0  0  0  0  0  0  0  0  0
   37.8330   23.5580   37.5560 C   0  0  0  0  0  0  0  0  0  0  0  0
   38.6420   23.0550   38.4950 N   0  0  0  0  0  0  0  0  0  0  0  0
   39.8820   22.8960   37.9590 C   0  0  0  0  0  0  0  0  0  0  0  0
   39.8030   23.3070   36.6920 N   0  0  0  0  0  0  0  0  0  0  0  0
   36.7840   23.7830   37.7240 H   0  0  0  0  0  0  0  0  0  0  0  0
   40.7230   22.5020   38.5160 H   0  0  0  0  0  0  0  0  0  0  0  0
   40.9450   23.2690   35.8440 C   0  0  0  0  0  0  0  0  0  0  0  0
   41.1340   22.1480   35.0600 C   0  0  0  0  0  0  0  0  0  0  0  0
   42.6920   22.5830   34.1830 S   0  0  0  0  0  0  0  0  0  0  0  0
   42.7920   24.2510   35.0760 C   0  0  0  0  0  0  0  0  0  0  0  0
   41.8640   24.1750   35.7030 N   0  0  0  0  0  0  0  0  0  0  0  0
   43.8020   25.2740   34.9340 N   0  0  0  0  0  0  0  0  0  0  0  0
   44.6730   25.9050   35.7690 C   0  0  0  0  0  0  0  0  0  0  0  0
   45.3580   26.7700   35.0130 N   0  0  0  0  0  0  0  0  0  0  0  0
   44.9570   26.7080   33.7470 C   0  0  0  0  0  0  0  0  0  0  0  0
   43.9880   25.7720   33.7140 N   0  0  0  0  0  0  0  0  0  0  0  0
   40.5820   21.2410   34.9350 H   0  0  0  0  0  0  0  0  0  0  0  0
   44.6590   25.6220   36.8040 H   0  0  0  0  0  0  0  0  0  0  0  0
   45.2670   27.2420   32.8600 H   0  0  0  0  0  0  0  0  0  0  0  0
   37.4830   23.8720   32.8860 C   0  0  0  0  0  0  0  0  0  0  0  0
   37.1850   25.2320   32.7270 C   0  0  0  0  0  0  0  0  0  0  0  0
   37.3630   26.0600   33.8150 C   0  0  0  0  0  0  0  0  0  0  0  0
   37.8140   25.5440   34.9850 N   0  0  0  0  0  0  0  0  0  0  0  0
   38.0990   24.2370   35.1320 C   0  0  0  0  0  0  0  0  0  0  0  0
   37.9350   23.3820   34.0750 N   0  0  0  0  0  0  0  0  0  0  0  0
   37.3700   23.1570   32.0830 H   0  0  0  0  0  0  0  0  0  0  0  0
   36.8300   25.5860   31.7740 H   0  0  0  0  0  0  0  0  0  0  0  0
   37.0690   27.4710   33.7260 C   0  0  0  0  0  0  0  0  0  0  0  0
   36.8340   28.1590   34.7340 O   0  0  0  0  0  0  0  0  0  0  0  0
   37.0610   28.0480   32.4180 C   0  0  0  0  0  0  0  0  0  0  0  0
   36.0870   28.8760   31.9620 C   0  0  0  0  0  0  0  0  0  0  0  0
   36.0370   29.4380   30.7510 C   0  0  0  0  0  0  0  0  0  0  0  0
   37.1400   29.0850   29.9270 C   0  0  0  0  0  0  0  0  0  0  0  0
   38.1680   27.9230   31.0660 S   0  0  0  0  0  0  0  0  0  0  0  0
  1  5  1  0  0  0  0
  1  2  2  0  0  0  0
  2  6  1  0  0  0  0
  2  3  1  0  0  0  0
  4  3  2  0  0  0  0
  4  7  1  0  0  0  0
  5  4  1  0  0  0  0
  8  5  1  0  0  0  0
  9  8  2  0  0  0  0
 10  9  1  0  0  0  0
 10 11  1  0  0  0  0
 11 12  2  0  0  0  0
 12  8  1  0  0  0  0
 13 11  1  0  0  0  0
 13 14  1  0  0  0  0
 14 19  1  0  0  0  0
 15 14  2  0  0  0  0
 16 15  1  0  0  0  0
 17 16  2  0  0  0  0
 17 13  1  0  0  0  0
 18  9  1  0  0  0  0
 20 16  1  0  0  0  0
 21 26  1  0  0  0  0
 22 21  2  0  0  0  0
 22 23  1  0  0  0  0
 23 24  2  0  0  0  0
 24 25  1  0  0  0  0
 25  1  1  0  0  0  0
 26 25  2  0  0  0  0
 27 21  1  0  0  0  0
 28 22  1  0  0  0  0
 29 23  1  0  0  0  0
 29 30  2  0  0  0  0
 31 29  1  0  0  0  0
 32 31  2  0  0  0  0
 33 32  1  0  0  0  0
 34 33  2  0  0  0  0
 34 35  1  0  0  0  0
 35 31  1  0  0  0  0
M  END
>  <minimizedAffinity>
-5.57317352

>  <minimizedRMSD>
0.717234552

$$$$
