
 OpenBabel03262514253D

 24 24  0  0  1  0  0  0  0  0999 V2000
   39.9680   23.0090   35.1850 C   0  0  2  0  0  0  0  0  0  0  0  0
   40.3070   21.9480   35.3480 H   0  0  0  0  0  0  0  0  0  0  0  0
   38.4440   24.5940   36.3800 C   0  0  0  0  0  0  0  0  0  0  0  0
   39.3430   23.4970   36.3830 C   0  0  0  0  0  0  0  0  0  0  0  0
   39.5530   22.8700   37.6000 C   0  0  0  0  0  0  0  0  0  0  0  0
   38.8910   23.3340   38.7100 N   0  0  0  0  0  0  0  0  0  0  0  0
   38.0530   24.3630   38.6570 C   0  0  0  0  0  0  0  0  0  0  0  0
   37.8180   25.0120   37.4820 N   0  0  0  0  0  0  0  0  0  0  0  0
   40.4420   21.7660   37.7590 N   0  0  0  0  0  0  0  0  0  0  0  0
   38.2100   25.1370   35.4840 H   0  0  0  0  0  0  0  0  0  0  0  0
   37.5340   24.7290   39.5360 H   0  0  0  0  0  0  0  0  0  0  0  0
   41.4360   21.9650   38.0420 H   0  0  0  0  0  0  0  0  0  0  0  0
   40.1580   20.7810   37.6010 H   0  0  0  0  0  0  0  0  0  0  0  0
   41.3010   23.8030   35.0110 C   0  0  0  0  0  0  0  0  0  0  0  0
   42.1410   23.0800   34.9060 H   0  0  0  0  0  0  0  0  0  0  0  0
   41.4420   24.4760   35.8560 H   0  0  0  0  0  0  0  0  0  0  0  0
   41.2470   24.3710   34.0570 H   0  0  0  0  0  0  0  0  0  0  0  0
   39.1390   23.1220   33.9610 C   0  0  0  0  0  0  0  0  0  0  0  0
   38.6630   24.1040   33.8340 H   0  0  0  0  0  0  0  0  0  0  0  0
   39.8500   22.9290   33.0940 H   0  0  0  0  0  0  0  0  0  0  0  0
   37.8780   21.8630   33.9100 S   0  0  0  0  0  0  0  0  0  0  0  0
   36.7370   22.2280   32.5420 C   0  0  0  0  0  0  0  0  0  0  0  0
   35.5070   21.3900   32.5330 C   0  0  0  0  0  0  0  0  0  0  0  0
   35.6270   20.4210   33.0690 H   0  0  0  0  0  0  0  0  0  0  0  0
  1  2  1  1  0  0  0
  1  4  1  0  0  0  0
  3  4  2  0  0  0  0
  3  8  1  0  0  0  0
  4  5  1  0  0  0  0
  5  9  1  0  0  0  0
  5  6  2  0  0  0  0
  7  6  1  0  0  0  0
  7 11  1  0  0  0  0
  8  7  2  0  0  0  0
  9 12  1  0  0  0  0
 10  3  1  0  0  0  0
 13  9  1  0  0  0  0
 14  1  1  0  0  0  0
 14 16  1  0  0  0  0
 15 14  1  0  0  0  0
 17 14  1  0  0  0  0
 18  1  1  0  0  0  0
 19 18  1  0  0  0  0
 20 18  1  0  0  0  0
 21 18  1  0  0  0  0
 22 21  1  0  0  0  0
 23 22  1  0  0  0  0
 23 24  1  0  0  0  0
M  END
>  <minimizedAffinity>
-3.71324992

>  <minimizedRMSD>
0.519173026

$$$$
