
 OpenBabel03262513423D

 24 25  0  0  1  0  0  0  0  0999 V2000
   41.0380   21.7500   37.4040 C   0  0  0  0  0  0  0  0  0  0  0  0
   40.0870   22.7590   37.1500 C   0  0  0  0  0  0  0  0  0  0  0  0
   40.3460   23.5610   36.0160 C   0  0  0  0  0  0  0  0  0  0  0  0
   41.4550   23.3300   35.2540 N   0  0  0  0  0  0  0  0  0  0  0  0
   42.3270   22.3390   35.5580 C   0  0  0  0  0  0  0  0  0  0  0  0
   42.1150   21.5540   36.6310 N   0  0  0  0  0  0  0  0  0  0  0  0
   39.4770   24.6190   35.6420 N   0  0  0  0  0  0  0  0  0  0  0  0
   39.7270   26.0540   35.5190 C   0  0  0  0  0  0  0  0  0  0  0  0
   38.4510   26.5780   36.1620 C   0  0  2  0  0  0  0  0  0  0  0  0
   37.4440   25.7940   35.3140 C   0  0  0  0  0  0  0  0  0  0  0  0
   38.0890   24.4210   35.2960 C   0  0  0  0  0  0  0  0  0  0  0  0
   40.7800   21.1610   38.2990 H   0  0  0  0  0  0  0  0  0  0  0  0
   39.2230   22.9360   37.7480 H   0  0  0  0  0  0  0  0  0  0  0  0
   43.1930   22.1740   34.9460 H   0  0  0  0  0  0  0  0  0  0  0  0
   39.7700   26.3420   34.4550 H   0  0  0  0  0  0  0  0  0  0  0  0
   40.6290   26.3510   36.0920 H   0  0  0  0  0  0  0  0  0  0  0  0
   38.4060   26.2220   37.2050 H   0  0  0  0  0  0  0  0  0  0  0  0
   37.4280   26.2290   34.2960 H   0  0  0  0  0  0  0  0  0  0  0  0
   36.4950   25.8040   35.8500 H   0  0  0  0  0  0  0  0  0  0  0  0
   37.6350   23.8040   36.0880 H   0  0  0  0  0  0  0  0  0  0  0  0
   37.9620   23.9820   34.3010 H   0  0  0  0  0  0  0  0  0  0  0  0
   38.2930   27.9960   36.0160 N   0  0  0  0  0  0  0  0  0  0  0  0
   38.6570   28.4530   36.9040 H   0  0  0  0  0  0  0  0  0  0  0  0
   38.8720   28.3980   35.2610 H   0  0  0  0  0  0  0  0  0  0  0  0
  1 12  1  0  0  0  0
  2  1  1  0  0  0  0
  2 13  1  0  0  0  0
  3  2  2  0  0  0  0
  4  5  2  0  0  0  0
  4  3  1  0  0  0  0
  5  6  1  0  0  0  0
  6  1  2  0  0  0  0
  7  3  1  0  0  0  0
  8  7  1  0  0  0  0
  8 16  1  0  0  0  0
  8  9  1  0  0  0  0
  9 17  1  1  0  0  0
 10 19  1  0  0  0  0
 10  9  1  0  0  0  0
 11 10  1  0  0  0  0
 11  7  1  0  0  0  0
 11 20  1  0  0  0  0
 14  5  1  0  0  0  0
 15  8  1  0  0  0  0
 18 10  1  0  0  0  0
 21 11  1  0  0  0  0
 22  9  1  0  0  0  0
 22 23  1  0  0  0  0
 24 22  1  0  0  0  0
M  END
>  <minimizedAffinity>
-3.51233077

>  <minimizedRMSD>
0.914256155

$$$$
