
     RDKit          3D

 40 43  0  0  0  0  0  0  0  0999 V2000
   43.1210   23.3371   36.5388 C   0  0  0  0  0  0  0  0  0  0  0  0
   41.7294   23.1076   36.4043 C   0  0  0  0  0  0  0  0  0  0  0  0
   41.1738   24.0422   35.6243 C   0  0  0  0  0  0  0  0  0  0  0  0
   41.9027   25.0763   35.0477 N   0  0  0  0  0  0  0  0  0  0  0  0
   43.2092   25.2215   35.2228 C   0  0  0  0  0  0  0  0  0  0  0  0
   43.8206   24.3396   35.9777 N   0  0  0  0  0  0  0  0  0  0  0  0
   41.2378   21.9705   37.0873 C   0  0  0  0  0  0  0  0  0  0  0  0
   40.4760   22.3130   38.2304 F   0  0  0  0  0  0  0  0  0  0  0  0
   42.0342   21.1878   37.8362 F   0  0  0  0  0  0  0  0  0  0  0  0
   40.1505   21.2828   36.5389 F   0  0  0  0  0  0  0  0  0  0  0  0
   39.7880   23.9133   35.3787 C   0  0  0  0  0  0  0  0  0  0  0  0
   39.0186   25.0961   35.7126 C   0  0  0  0  0  0  0  0  0  0  0  0
   37.7722   24.6565   36.4912 C   0  0  2  0  0  0  0  0  0  0  0  0
   38.0200   24.3893   37.9290 C   0  0  0  0  0  0  0  0  0  0  0  0
   37.5531   23.3263   36.9530 C   0  0  1  0  0  0  0  0  0  0  0  0
   43.7696   22.6756   37.1460 H   0  0  0  0  0  0  0  0  0  0  0  0
   43.6517   26.0627   34.7209 H   0  0  0  0  0  0  0  0  0  0  0  0
   39.2291   23.0348   35.5463 H   0  0  0  0  0  0  0  0  0  0  0  0
   39.7614   23.9267   34.2224 H   0  0  0  0  0  0  0  0  0  0  0  0
   39.6134   25.7299   36.4381 H   0  0  0  0  0  0  0  0  0  0  0  0
   38.7759   25.8157   34.8997 H   0  0  0  0  0  0  0  0  0  0  0  0
   36.9330   25.3377   36.2670 H   0  0  0  0  0  0  0  0  0  0  0  0
   39.0070   24.5168   38.3080 H   0  0  0  0  0  0  0  0  0  0  0  0
   37.2429   24.7964   38.6492 H   0  0  0  0  0  0  0  0  0  0  0  0
   37.9907   22.4301   37.1926 H   0  0  0  0  0  0  0  0  0  0  0  0
   36.0566   23.0157   37.0687 C   0  0  0  0  0  0  0  0  0  0  0  0
   35.3680   23.1891   35.9089 N   0  0  0  0  0  0  0  0  0  0  0  0
   34.0193   22.9816   35.9477 C   0  0  0  0  0  0  0  0  0  0  0  0
   33.3663   22.6156   37.0869 N   0  0  0  0  0  0  0  0  0  0  0  0
   34.0984   22.4608   38.1907 C   0  0  0  0  0  0  0  0  0  0  0  0
   33.4687   22.0753   39.3697 C   0  0  0  0  0  0  0  0  0  0  0  0
   34.2435   21.9014   40.5230 C   0  0  0  0  0  0  0  0  0  0  0  0
   33.6917   21.6036   41.3972 H   0  0  0  0  0  0  0  0  0  0  0  0
   35.6295   22.0955   40.5551 C   0  0  0  0  0  0  0  0  0  0  0  0
   36.0946   21.9265   41.5047 H   0  0  0  0  0  0  0  0  0  0  0  0
   36.2325   22.4777   39.3746 C   0  0  0  0  0  0  0  0  0  0  0  0
   35.4760   22.6514   38.2387 C   0  0  0  0  0  0  0  0  0  0  0  0
   33.5037   23.1318   34.9947 H   0  0  0  0  0  0  0  0  0  0  0  0
   32.4089   21.9151   39.3914 H   0  0  0  0  0  0  0  0  0  0  0  0
   37.2951   22.6065   39.4105 H   0  0  0  0  0  0  0  0  0  0  0  0
  2  1  2  0
  2  7  1  0
  3  2  1  0
  4  5  1  0
  4  3  2  0
  5  6  2  0
  6  1  1  0
  7  9  1  0
  7  8  1  0
 10  7  1  0
 11  3  1  0
 11 12  1  0
 12 13  1  0
 13 15  1  0
 13 14  1  0
 15 14  1  0
  1 16  1  0
  5 17  1  0
 11 18  1  0
 11 19  1  0
 12 20  1  0
 12 21  1  0
 13 22  1  1
 14 23  1  0
 14 24  1  0
 15 25  1  6
 26 27  2  0
 27 28  1  0
 28 29  2  0
 29 30  1  0
 30 31  2  0
 31 32  1  0
 32 33  1  0
 32 34  2  0
 34 35  1  0
 34 36  1  0
 36 37  2  0
 37 26  1  0
 37 30  1  0
 28 38  1  0
 31 39  1  0
 36 40  1  0
 15 26  1  0
M  ISO  8  16  14  17  14  18   8  19   8  20   8  21   8  22  13  23  13
M  ISO  4  24  13  25  13  33  16  35  16
M  END
>  <DihAtoms>  (1) 
12,14,25,26

>  <DihDeg>  (1) 
56.95923281761307

$$$$
