
 OpenBabel03262519563D

 35 39  0  0  1  0  0  0  0  0999 V2000
   37.3820   21.6750   33.8350 C   0  0  1  0  0  0  0  0  0  0  0  0
   36.2070   21.2070   34.5370 C   0  0  0  0  0  0  0  0  0  0  0  0
   36.1530   21.2750   33.0120 C   0  0  2  0  0  0  0  0  0  0  0  0
   38.2570   20.9970   33.7370 H   0  0  0  0  0  0  0  0  0  0  0  0
   35.5640   21.9390   35.0310 H   0  0  0  0  0  0  0  0  0  0  0  0
   36.2470   20.2180   35.0490 H   0  0  0  0  0  0  0  0  0  0  0  0
   35.5360   22.0490   32.5410 H   0  0  0  0  0  0  0  0  0  0  0  0
   36.1820   19.9220   32.4030 C   0  0  0  0  0  0  0  0  0  0  0  0
   35.4460   19.0430   33.1440 N   0  0  0  0  0  0  0  0  0  0  0  0
   35.3250   17.7560   32.7020 C   0  0  0  0  0  3  0  0  0  0  0  0
   35.9110   17.3170   31.5510 N   0  0  0  0  0  0  0  0  0  0  0  0
   36.6370   18.1830   30.8210 C   0  0  0  0  0  0  0  0  0  0  0  0
   37.2870   17.8600   29.6470 C   0  0  0  0  0  3  0  0  0  0  0  0
   38.0240   18.8080   28.9640 C   0  0  0  0  0  0  0  0  0  0  0  0
   38.5350   18.5440   28.0350 H   0  0  0  0  0  0  0  0  0  0  0  0
   38.1490   20.1260   29.4170 C   0  0  0  0  0  0  0  0  0  0  0  0
   38.7400   20.8110   28.8330 H   0  0  0  0  0  0  0  0  0  0  0  0
   37.4970   20.4450   30.5920 C   0  0  0  0  0  3  0  0  0  0  0  0
   36.7760   19.4860   31.2420 C   0  0  0  0  0  0  0  0  0  0  0  0
   38.1770   23.9680   34.5190 C   0  0  0  0  0  0  0  0  0  0  0  0
   38.3540   25.2080   33.9170 C   0  0  0  0  0  0  0  0  0  0  0  0
   37.9650   25.0070   32.6350 N   0  0  0  0  0  0  0  0  0  0  0  0
   37.5930   23.7420   32.5130 C   0  0  0  0  0  0  0  0  0  0  0  0
   37.7130   23.0650   33.6680 N   0  0  0  0  0  0  0  0  0  0  0  0
   38.7180   26.1010   34.3920 H   0  0  0  0  0  0  0  0  0  0  0  0
   37.2470   23.4050   31.5370 H   0  0  0  0  0  0  0  0  0  0  0  0
   38.4650   23.6760   35.9200 C   0  0  0  0  0  0  0  0  0  0  0  0
   39.6720   23.0700   36.2850 C   0  0  0  0  0  0  0  0  0  0  0  0
   39.9220   22.8020   37.6370 C   0  0  0  0  0  0  0  0  0  0  0  0
   38.9710   23.1500   38.5160 N   0  0  0  0  0  0  0  0  0  0  0  0
   37.8060   23.7370   38.1510 C   0  0  0  0  0  0  0  0  0  0  0  0
   37.5530   24.0000   36.8590 N   0  0  0  0  0  0  0  0  0  0  0  0
   40.4180   22.8010   35.5490 H   0  0  0  0  0  0  0  0  0  0  0  0
   40.8520   22.3290   37.9620 H   0  0  0  0  0  0  0  0  0  0  0  0
   37.0650   24.0020   38.8900 H   0  0  0  0  0  0  0  0  0  0  0  0
  1  4  1  6  0  0  0
  1  2  1  0  0  0  0
  2  5  1  0  0  0  0
  2  6  1  0  0  0  0
  3  7  1  6  0  0  0
  3  1  1  0  0  0  0
  3  2  1  0  0  0  0
  8  3  1  0  0  0  0
  8  9  1  0  0  0  0
 10  9  2  0  0  0  0
 11 10  1  0  0  0  0
 12 19  1  0  0  0  0
 12 11  2  0  0  0  0
 13 12  1  0  0  0  0
 14 16  1  0  0  0  0
 14 13  2  0  0  0  0
 15 14  1  0  0  0  0
 16 18  2  0  0  0  0
 17 16  1  0  0  0  0
 18 19  1  0  0  0  0
 19  8  2  0  0  0  0
 20 27  1  0  0  0  0
 21 25  1  0  0  0  0
 21 20  2  0  0  0  0
 22 21  1  0  0  0  0
 23 22  2  0  0  0  0
 23 24  1  0  0  0  0
 24  1  1  0  0  0  0
 24 20  1  0  0  0  0
 26 23  1  0  0  0  0
 27 28  2  0  0  0  0
 27 32  1  0  0  0  0
 28 29  1  0  0  0  0
 29 34  1  0  0  0  0
 29 30  2  0  0  0  0
 31 30  1  0  0  0  0
 31 35  1  0  0  0  0
 32 31  2  0  0  0  0
 33 28  1  0  0  0  0
M  END
>  <minimizedAffinity>
-5.35477448

>  <minimizedRMSD>
1.21306813

$$$$
