REMARK  Name = 
REMARK  3 active torsions:
REMARK  status: ('A' for Active; 'I' for Inactive)
REMARK    1  A    between atoms: C_1  and  C_16
REMARK    2  A    between atoms: C_2  and  N_7
REMARK    3  A    between atoms: C_24  and  C_37
REMARK                            x       y       z     vdW  Elec       q    Type
REMARK                         _______ _______ _______ _____ _____    ______ ____
ROOT
ATOM      1  C   UNL     1      38.699  24.497  32.240  0.00  0.00    +0.000 A 
ATOM      2  C   UNL     1      39.094  23.166  32.338  0.00  0.00    +0.000 A 
ATOM      3  C   UNL     1      38.234  22.108  32.032  0.00  0.00    +0.000 A 
ATOM      4  C   UNL     1      36.934  22.385  31.615  0.00  0.00    +0.000 A 
ATOM      5  C   UNL     1      36.519  23.686  31.509  0.00  0.00    +0.000 A 
ATOM      6  C   UNL     1      35.252  23.965  31.084  0.00  0.00    +0.000 A 
ATOM      7  C   UNL     1      34.793  25.264  30.940  0.00  0.00    +0.000 A 
ATOM      8  C   UNL     1      35.685  26.295  31.250  0.00  0.00    +0.000 A 
ATOM      9  C   UNL     1      36.961  25.967  31.680  0.00  0.00    +0.000 A 
ATOM     10  C   UNL     1      37.408  24.688  31.821  0.00  0.00    +0.000 A 
ATOM     11  H   UNL     1      40.126  23.007  32.667  0.00  0.00    +0.000 HD
ATOM     12  H   UNL     1      38.559  21.096  32.117  0.00  0.00    +0.000 HD
ATOM     13  H   UNL     1      36.267  21.579  31.378  0.00  0.00    +0.000 HD
ATOM     14  H   UNL     1      34.613  23.108  30.857  0.00  0.00    +0.000 HD
ATOM     15  H   UNL     1      33.761  25.328  30.593  0.00  0.00    +0.000 HD
ATOM     16  H   UNL     1      35.158  27.219  31.078  0.00  0.00    +0.000 HD
ENDROOT
BRANCH   9  17
ATOM     17  C   UNL     1      37.532  27.269  31.981  0.00  0.00    +0.000 A 
ATOM     18  N   UNL     1      38.741  27.835  31.946  0.00  0.00    +0.000 NA
ATOM     19  C   UNL     1      39.078  29.074  32.248  0.00  0.00    +0.000 A 
ATOM     20  N   UNL     1      38.143  29.956  32.656  0.00  0.00    +0.000 NA
ATOM     21  C   UNL     1      36.870  29.545  32.744  0.00  0.00    +0.000 A 
ATOM     22  C   UNL     1      35.925  30.455  33.134  0.00  0.00    +0.000 A 
ATOM     23  C   UNL     1      34.630  30.002  33.182  0.00  0.00    +0.000 A 
ATOM     24  H   UNL     1      33.840  30.696  33.496  0.00  0.00    +0.000 HD
ATOM     25  C   UNL     1      34.208  28.730  32.878  0.00  0.00    +0.000 A 
ATOM     26  H   UNL     1      33.180  28.410  32.920  0.00  0.00    +0.000 HD
ATOM     27  C   UNL     1      35.228  27.853  32.490  0.00  0.00    +0.000 A 
ATOM     28  C   UNL     1      36.563  28.220  32.413  0.00  0.00    +0.000 A 
ENDBRANCH   9  17
BRANCH   1  29
ATOM     29  C   UNL     1      39.620  25.545  32.562  0.00  0.00    +0.000 A 
ATOM     30  C   UNL     1      39.880  25.957  33.883  0.00  0.00    +0.000 A 
ATOM     31  C   UNL     1      40.804  26.988  34.089  0.00  0.00    +0.000 A 
ATOM     32  N   UNL     1      41.418  27.554  33.012  0.00  0.00    +0.000 NA
ATOM     33  C   UNL     1      41.154  27.137  31.755  0.00  0.00    +0.000 A 
ATOM     34  N   UNL     1      40.290  26.172  31.562  0.00  0.00    +0.000 NA
ATOM     35  H   UNL     1      41.040  27.342  35.107  0.00  0.00    +0.000 HD
ATOM     36  H   UNL     1      41.635  27.582  30.891  0.00  0.00    +0.000 HD
BRANCH  30  37
ATOM     37  N   UNL     1      39.245  25.319  34.946  0.00  0.00    +0.000 N 
ATOM     38  C   UNL     1      38.001  25.571  35.390  0.00  0.00    +0.000 A 
ATOM     39  N   UNL     1      37.677  24.782  36.436  0.00  0.00    +0.000 NA
ATOM     40  C   UNL     1      38.759  23.996  36.666  0.00  0.00    +0.000 A 
ATOM     41  C   UNL     1      39.044  23.010  37.574  0.00  0.00    +0.000 A 
ATOM     42  N   UNL     1      40.210  22.345  37.625  0.00  0.00    +0.000 NA
ATOM     43  C   UNL     1      41.144  22.711  36.687  0.00  0.00    +0.000 A 
ATOM     44  N   UNL     1      40.858  23.668  35.810  0.00  0.00    +0.000 NA
ATOM     45  C   UNL     1      39.724  24.345  35.729  0.00  0.00    +0.000 A 
ATOM     46  H   UNL     1      37.225  26.240  35.110  0.00  0.00    +0.000 HD
ATOM     47  H   UNL     1      38.316  22.709  38.331  0.00  0.00    +0.000 HD
ATOM     48  H   UNL     1      42.152  22.331  36.510  0.00  0.00    +0.000 HD
ENDBRANCH  30  37
ENDBRANCH   1  29
TORSDOF 3
