
     RDKit          3D

 38 42  0  0  0  0  0  0  0  0999 V2000
   38.0252   23.4696   34.6169 C   0  0  0  0  0  0  0  0  0  0  0  0
   38.2638   24.5622   33.7921 C   0  0  0  0  0  0  0  0  0  0  0  0
   37.7720   24.1769   32.5902 N   0  0  0  0  0  0  0  0  0  0  0  0
   37.2866   22.9507   32.7191 C   0  0  0  0  0  0  0  0  0  0  0  0
   37.4287   22.4805   33.9703 N   0  0  0  0  0  0  0  0  0  0  0  0
   38.3831   23.4033   36.0307 C   0  0  0  0  0  0  0  0  0  0  0  0
   39.5850   22.8096   36.4312 C   0  0  0  0  0  0  0  0  0  0  0  0
   39.9031   22.7598   37.7939 C   0  0  0  0  0  0  0  0  0  0  0  0
   39.0187   23.2949   38.6492 N   0  0  0  0  0  0  0  0  0  0  0  0
   37.8579   23.8672   38.2502 C   0  0  0  0  0  0  0  0  0  0  0  0
   37.5396   23.9222   36.9469 N   0  0  0  0  0  0  0  0  0  0  0  0
   36.9942   21.1793   34.4025 C   0  0  1  0  0  0  0  0  0  0  0  0
   35.8479   20.9578   35.2582 C   0  0  0  0  0  0  0  0  0  0  0  0
   35.6693   20.7711   33.7527 C   0  0  2  0  0  0  0  0  0  0  0  0
   38.7339   25.4863   34.0767 H   0  0  0  0  0  0  0  0  0  0  0  0
   36.8481   22.4832   31.8403 H   0  0  0  0  0  0  0  0  0  0  0  0
   40.2763   22.3873   35.7143 H   0  0  0  0  0  0  0  0  0  0  0  0
   40.8316   22.3049   38.1474 H   0  0  0  0  0  0  0  0  0  0  0  0
   37.1716   24.2872   38.9701 H   0  0  0  0  0  0  0  0  0  0  0  0
   37.7949   20.4105   34.3662 H   0  0  0  0  0  0  0  0  0  0  0  0
   35.3174   21.8244   35.6576 H   0  0  0  0  0  0  0  0  0  0  0  0
   35.8460   20.0706   35.9326 H   0  0  0  0  0  0  0  0  0  0  0  0
   35.0830   21.5107   33.1959 H   0  0  0  0  0  0  0  0  0  0  0  0
   35.5274   19.3385   33.3931 C   0  0  0  0  0  0  0  0  0  0  0  0
   35.0261   18.6230   34.4426 N   0  0  0  0  0  0  0  0  0  0  0  0
   34.7869   17.2894   34.2703 C   0  0  0  0  0  0  0  0  0  0  0  0
   35.0297   16.6456   33.0918 N   0  0  0  0  0  0  0  0  0  0  0  0
   35.5243   17.3501   32.0589 C   0  0  0  0  0  0  0  0  0  0  0  0
   35.8230   16.8141   30.8219 C   0  0  0  0  0  0  0  0  0  0  0  0
   36.3411   17.6059   29.8155 C   0  0  0  0  0  0  0  0  0  0  0  0
   36.5745   17.1736   28.8391 H   0  0  0  0  0  0  0  0  0  0  0  0
   36.5879   18.9721   29.9922 C   0  0  0  0  0  0  0  0  0  0  0  0
   36.9933   19.5262   29.1631 H   0  0  0  0  0  0  0  0  0  0  0  0
   36.2874   19.5030   31.2298 C   0  0  0  0  0  0  0  0  0  0  0  0
   35.7757   18.6952   32.2028 C   0  0  0  0  0  0  0  0  0  0  0  0
   34.3867   16.6404   35.0544 H   0  0  0  0  0  0  0  0  0  0  0  0
   35.6348   15.7490   30.6722 H   0  0  0  0  0  0  0  0  0  0  0  0
   36.5058   20.5557   31.3317 H   0  0  0  0  0  0  0  0  0  0  0  0
  1  6  1  0
  2  1  2  0
  3  4  2  0
  3  2  1  0
  4  5  1  0
  5 12  1  0
  5  1  1  0
  6  7  2  0
  6 11  1  0
  7  8  1  0
  8  9  2  0
 10  9  1  0
 11 10  2  0
 12 13  1  0
 14 12  1  0
 14 13  1  0
  2 15  1  0
  4 16  1  0
  7 17  1  0
  8 18  1  0
 10 19  1  0
 12 20  1  1
 13 21  1  0
 13 22  1  0
 14 23  1  6
 24 25  2  0
 25 26  1  0
 26 27  2  0
 27 28  1  0
 28 29  2  0
 29 30  1  0
 30 31  1  0
 30 32  2  0
 32 33  1  0
 32 34  1  0
 34 35  2  0
 35 24  1  0
 35 28  1  0
 26 36  1  0
 29 37  1  0
 34 38  1  0
 14 24  1  0
M  ISO  8  15  14  16  14  17  14  18  14  19  14  20  13  21  13  22  13
M  ISO  3  23  13  31  16  33  16
M  END
>  <DihAtoms>  (1) 
11,13,23,24

>  <DihDeg>  (1) 
-61.77318107045852

$$$$
