
     RDKit          3D

 51 57  0  0  0  0  0  0  0  0999 V2000
   39.6203   25.5449   32.5625 C   0  0  0  0  0  0  0  0  0  0  0  0
   39.8805   25.9569   33.8834 C   0  0  0  0  0  0  0  0  0  0  0  0
   40.8036   26.9877   34.0885 C   0  0  0  0  0  0  0  0  0  0  0  0
   41.4184   27.5537   33.0123 N   0  0  0  0  0  0  0  0  0  0  0  0
   41.1539   27.1366   31.7546 C   0  0  0  0  0  0  0  0  0  0  0  0
   40.2896   26.1719   31.5623 N   0  0  0  0  0  0  0  0  0  0  0  0
   39.2446   25.3193   34.9458 N   0  0  0  0  0  0  0  0  0  0  0  0
   38.0012   25.5712   35.3896 C   0  0  0  0  0  0  0  0  0  0  0  0
   37.6771   24.7815   36.4360 N   0  0  0  0  0  0  0  0  0  0  0  0
   38.7592   23.9956   36.6657 C   0  0  0  0  0  0  0  0  0  0  0  0
   39.0440   23.0100   37.5743 C   0  0  0  0  0  0  0  0  0  0  0  0
   40.2101   22.3453   37.6249 N   0  0  0  0  0  0  0  0  0  0  0  0
   41.1440   22.7110   36.6872 C   0  0  0  0  0  0  0  0  0  0  0  0
   40.8584   23.6680   35.8100 N   0  0  0  0  0  0  0  0  0  0  0  0
   39.7239   24.3447   35.7287 C   0  0  0  0  0  0  0  0  0  0  0  0
   38.6991   24.4969   32.2400 C   0  0  0  0  0  0  0  0  0  0  0  0
   39.0945   23.1655   32.3379 C   0  0  0  0  0  0  0  0  0  0  0  0
   38.2343   22.1077   32.0323 C   0  0  0  0  0  0  0  0  0  0  0  0
   36.9342   22.3847   31.6148 C   0  0  0  0  0  0  0  0  0  0  0  0
   36.5187   23.6860   31.5089 C   0  0  0  0  0  0  0  0  0  0  0  0
   35.2522   23.9648   31.0838 C   0  0  0  0  0  0  0  0  0  0  0  0
   34.7931   25.2644   30.9397 C   0  0  0  0  0  0  0  0  0  0  0  0
   35.6851   26.2953   31.2495 C   0  0  0  0  0  0  0  0  0  0  0  0
   36.9612   25.9671   31.6799 C   0  0  0  0  0  0  0  0  0  0  0  0
   37.4081   24.6884   31.8214 C   0  0  0  0  0  0  0  0  0  0  0  0
   41.0398   27.3416   35.1069 H   0  0  0  0  0  0  0  0  0  0  0  0
   41.6353   27.5816   30.8911 H   0  0  0  0  0  0  0  0  0  0  0  0
   37.2252   26.2401   35.1102 H   0  0  0  0  0  0  0  0  0  0  0  0
   38.3164   22.7093   38.3309 H   0  0  0  0  0  0  0  0  0  0  0  0
   42.1521   22.3314   36.5099 H   0  0  0  0  0  0  0  0  0  0  0  0
   40.1259   23.0071   32.6669 H   0  0  0  0  0  0  0  0  0  0  0  0
   38.5589   21.0960   32.1173 H   0  0  0  0  0  0  0  0  0  0  0  0
   36.2674   21.5791   31.3778 H   0  0  0  0  0  0  0  0  0  0  0  0
   34.6126   23.1076   30.8567 H   0  0  0  0  0  0  0  0  0  0  0  0
   33.7606   25.3283   30.5935 H   0  0  0  0  0  0  0  0  0  0  0  0
   35.1582   27.2189   31.0782 H   0  0  0  0  0  0  0  0  0  0  0  0
   37.5316   27.2687   31.9813 C   0  0  0  0  0  0  0  0  0  0  0  0
   38.7407   27.8346   31.9456 N   0  0  0  0  0  0  0  0  0  0  0  0
   39.0776   29.0741   32.2485 C   0  0  0  0  0  0  0  0  0  0  0  0
   38.1431   29.9559   32.6557 N   0  0  0  0  0  0  0  0  0  0  0  0
   36.8698   29.5454   32.7440 C   0  0  0  0  0  0  0  0  0  0  0  0
   35.9253   30.4548   33.1336 C   0  0  0  0  0  0  0  0  0  0  0  0
   34.6303   30.0020   33.1823 C   0  0  0  0  0  0  0  0  0  0  0  0
   33.8397   30.6959   33.4956 H   0  0  0  0  0  0  0  0  0  0  0  0
   34.2077   28.7298   32.8782 C   0  0  0  0  0  0  0  0  0  0  0  0
   33.1800   28.4105   32.9199 H   0  0  0  0  0  0  0  0  0  0  0  0
   35.2277   27.8526   32.4903 C   0  0  0  0  0  0  0  0  0  0  0  0
   36.5626   28.2202   32.4130 C   0  0  0  0  0  0  0  0  0  0  0  0
   40.1624   29.2048   32.1072 H   0  0  0  0  0  0  0  0  0  0  0  0
   36.2176   31.4644   33.3776 H   0  0  0  0  0  0  0  0  0  0  0  0
   34.8709   26.8512   32.2454 H   0  0  0  0  0  0  0  0  0  0  0  0
  1  2  1  0
  2  3  2  0
  2  7  1  0
  4  3  1  0
  5  4  2  0
  6  5  1  0
  6  1  2  0
  7  8  1  0
  7 15  1  0
  8  9  2  0
  9 10  1  0
 10 11  2  0
 11 12  1  0
 13 12  2  0
 14 13  1  0
 15 14  2  0
 15 10  1  0
 16 17  2  0
 16  1  1  0
 18 17  1  0
 19 18  2  0
 20 19  1  0
 20 25  2  0
 21 20  1  0
 22 21  2  0
 22 23  1  0
 23 24  2  0
 24 25  1  0
 25 16  1  0
  3 26  1  0
  5 27  1  0
  8 28  1  0
 11 29  1  0
 13 30  1  0
 17 31  1  0
 18 32  1  0
 19 33  1  0
 21 34  1  0
 22 35  1  0
 23 36  1  0
 37 38  2  0
 38 39  1  0
 39 40  2  0
 40 41  1  0
 41 42  2  0
 42 43  1  0
 43 44  1  0
 43 45  2  0
 45 46  1  0
 45 47  1  0
 47 48  2  0
 48 37  1  0
 48 41  1  0
 39 49  1  0
 42 50  1  0
 47 51  1  0
 24 37  1  0
M  ISO  8  26  14  27  14  28  14  29  14  30  14  31  14  32  14  33  14
M  ISO  5  34  14  35  14  36  14  44  16  46  16
M  END
>  <DihAtoms>  (1) 
22,23,36,37

>  <DihDeg>  (1) 
106.61486426208691

$$$$
