REMARK  Name = 
REMARK  3 active torsions:
REMARK  status: ('A' for Active; 'I' for Inactive)
REMARK    1  A    between atoms: C_1  and  C_6
REMARK    2  A    between atoms: N_5  and  C_12
REMARK    3  A    between atoms: C_14  and  C_24
REMARK                            x       y       z     vdW  Elec       q    Type
REMARK                         _______ _______ _______ _____ _____    ______ ____
ROOT
ATOM      1  C   UNL     1      36.994  21.179  34.403  0.00  0.00    +0.000 C 
ATOM      2  C   UNL     1      35.848  20.958  35.258  0.00  0.00    +0.000 C 
ATOM      3  C   UNL     1      35.669  20.771  33.753  0.00  0.00    +0.000 C 
ATOM      4  H   UNL     1      37.795  20.410  34.366  0.00  0.00    +0.000 HD
ATOM      5  H   UNL     1      35.317  21.824  35.658  0.00  0.00    +0.000 HD
ATOM      6  H   UNL     1      35.846  20.071  35.933  0.00  0.00    +0.000 HD
ATOM      7  H   UNL     1      35.083  21.511  33.196  0.00  0.00    +0.000 HD
ENDROOT
BRANCH   3   8
ATOM      8  C   UNL     1      35.527  19.338  33.393  0.00  0.00    +0.000 A 
ATOM      9  N   UNL     1      34.734  18.689  34.295  0.00  0.00    +0.000 NA
ATOM     10  C   UNL     1      34.458  17.367  34.091  0.00  0.00    +0.000 A 
ATOM     11  N   UNL     1      34.944  16.672  33.022  0.00  0.00    +0.000 NA
ATOM     12  C   UNL     1      35.726  17.311  32.134  0.00  0.00    +0.000 A 
ATOM     13  C   UNL     1      36.287  16.718  31.021  0.00  0.00    +0.000 A 
ATOM     14  C   UNL     1      37.091  17.444  30.163  0.00  0.00    +0.000 A 
ATOM     15  H   UNL     1      37.531  16.967  29.284  0.00  0.00    +0.000 HD
ATOM     16  C   UNL     1      37.375  18.798  30.373  0.00  0.00    +0.000 A 
ATOM     17  H   UNL     1      38.010  19.300  29.663  0.00  0.00    +0.000 HD
ATOM     18  C   UNL     1      36.812  19.387  31.487  0.00  0.00    +0.000 A 
ATOM     19  C   UNL     1      36.021  18.643  32.314  0.00  0.00    +0.000 A 
ENDBRANCH   3   8
BRANCH   1  24
ATOM     20  C   UNL     1      38.025  23.470  34.617  0.00  0.00    +0.000 A 
ATOM     21  C   UNL     1      38.264  24.562  33.792  0.00  0.00    +0.000 A 
ATOM     22  N   UNL     1      37.772  24.177  32.590  0.00  0.00    +0.000 NA
ATOM     23  C   UNL     1      37.287  22.951  32.719  0.00  0.00    +0.000 A 
ATOM     24  N   UNL     1      37.429  22.480  33.970  0.00  0.00    +0.000 N 
ATOM     25  H   UNL     1      38.734  25.486  34.077  0.00  0.00    +0.000 HD
ATOM     26  H   UNL     1      36.848  22.483  31.840  0.00  0.00    +0.000 HD
BRANCH  20  27
ATOM     27  C   UNL     1      38.383  23.403  36.031  0.00  0.00    +0.000 A 
ATOM     28  C   UNL     1      39.585  22.810  36.431  0.00  0.00    +0.000 A 
ATOM     29  C   UNL     1      39.903  22.760  37.794  0.00  0.00    +0.000 A 
ATOM     30  N   UNL     1      39.019  23.295  38.649  0.00  0.00    +0.000 NA
ATOM     31  C   UNL     1      37.858  23.867  38.250  0.00  0.00    +0.000 A 
ATOM     32  N   UNL     1      37.540  23.922  36.947  0.00  0.00    +0.000 NA
ATOM     33  H   UNL     1      40.276  22.387  35.714  0.00  0.00    +0.000 HD
ATOM     34  H   UNL     1      40.832  22.305  38.147  0.00  0.00    +0.000 HD
ATOM     35  H   UNL     1      37.172  24.287  38.970  0.00  0.00    +0.000 HD
ENDBRANCH  20  27
ENDBRANCH   1  24
TORSDOF 3
