REMARK  Name = 
REMARK  5 active torsions:
REMARK  status: ('A' for Active; 'I' for Inactive)
REMARK    1  A    between atoms: N_1  and  C_6
REMARK    2  A    between atoms: C_5  and  O_13
REMARK    3  A    between atoms: C_6  and  C_9
REMARK    4  A    between atoms: O_13  and  C_14
REMARK    5  A    between atoms: C_16  and  C_33
REMARK                            x       y       z     vdW  Elec       q    Type
REMARK                         _______ _______ _______ _____ _____    ______ ____
ROOT
ATOM      1  N   UNL     1      37.644  25.374  34.366  0.00  0.00    +0.000 NA
ATOM      2  C   UNL     1      37.123  25.409  33.015  0.00  0.00    +0.000 C 
ATOM      3  C   UNL     1      36.843  26.845  32.732  0.00  0.00    +0.000 C 
ATOM      4  C   UNL     1      37.291  27.565  33.990  0.00  0.00    +0.000 C 
ATOM      5  C   UNL     1      38.397  26.582  34.466  0.00  0.00    +0.000 C 
ATOM      6  H   UNL     1      36.292  24.719  32.842  0.00  0.00    +0.000 HD
ATOM      7  H   UNL     1      37.974  25.093  32.363  0.00  0.00    +0.000 HD
ATOM      8  H   UNL     1      37.415  27.282  31.899  0.00  0.00    +0.000 HD
ATOM      9  H   UNL     1      35.758  27.034  32.587  0.00  0.00    +0.000 HD
ATOM     10  H   UNL     1      36.476  27.514  34.728  0.00  0.00    +0.000 HD
ATOM     11  H   UNL     1      37.704  28.556  33.819  0.00  0.00    +0.000 HD
ATOM     12  H   UNL     1      38.622  26.893  35.503  0.00  0.00    +0.000 HD
ENDROOT
BRANCH   1  13
ATOM     13  C   UNL     1      38.555  24.282  34.558  0.00  0.00    +0.000 C 
ATOM     14  H   UNL     1      38.169  23.416  33.965  0.00  0.00    +0.000 HD
ATOM     15  H   UNL     1      39.567  24.540  34.206  0.00  0.00    +0.000 HD
BRANCH  13  18
ATOM     16  C   UNL     1      37.860  23.912  38.266  0.00  0.00    +0.000 A 
ATOM     17  C   UNL     1      37.685  24.285  36.942  0.00  0.00    +0.000 A 
ATOM     18  C   UNL     1      38.682  23.915  36.003  0.00  0.00    +0.000 A 
ATOM     19  N   UNL     1      39.756  23.211  36.461  0.00  0.00    +0.000 NA
ATOM     20  C   UNL     1      39.869  22.878  37.761  0.00  0.00    +0.000 A 
ATOM     21  N   UNL     1      38.927  23.229  38.646  0.00  0.00    +0.000 NA
ATOM     22  H   UNL     1      37.017  24.271  38.841  0.00  0.00    +0.000 HD
ATOM     23  H   UNL     1      36.857  24.846  36.498  0.00  0.00    +0.000 HD
ATOM     24  H   UNL     1      40.671  22.323  38.221  0.00  0.00    +0.000 HD
ENDBRANCH  13  18
ENDBRANCH   1  13
BRANCH   5  25
ATOM     25  O   UNL     1      39.488  26.600  33.642  0.00  0.00    +0.000 OA
BRANCH  25  26
ATOM     26  C   UNL     1      40.611  27.169  34.186  0.00  0.00    +0.000 C 
ATOM     27  C   UNL     1      41.687  27.522  33.199  0.00  0.00    +0.000 C 
ATOM     28  C   UNL     1      41.913  26.430  34.210  0.00  0.00    +0.000 C 
ATOM     29  H   UNL     1      40.433  27.726  35.111  0.00  0.00    +0.000 HD
ATOM     30  H   UNL     1      42.228  28.486  33.294  0.00  0.00    +0.000 HD
ATOM     31  H   UNL     1      41.586  27.195  32.144  0.00  0.00    +0.000 HD
ATOM     32  H   UNL     1      41.865  25.382  33.857  0.00  0.00    +0.000 HD
BRANCH  28  33
ATOM     33  C   UNL     1      42.893  26.810  35.261  0.00  0.00    +0.000 A 
ATOM     34  N   UNL     1      43.234  28.119  35.457  0.00  0.00    +0.000 NA
ATOM     35  C   UNL     1      44.091  28.528  36.405  0.00  0.00    +0.000 A 
ATOM     36  N   UNL     1      44.689  27.669  37.248  0.00  0.00    +0.000 NA
ATOM     37  C   UNL     1      44.399  26.364  37.113  0.00  0.00    +0.000 A 
ATOM     38  C   UNL     1      45.025  25.485  37.968  0.00  0.00    +0.000 A 
ATOM     39  C   UNL     1      44.774  24.133  37.858  0.00  0.00    +0.000 A 
ATOM     40  H   UNL     1      45.255  23.443  38.518  0.00  0.00    +0.000 HD
ATOM     41  C   UNL     1      43.889  23.738  36.874  0.00  0.00    +0.000 A 
ATOM     42  H   UNL     1      43.725  22.680  36.817  0.00  0.00    +0.000 HD
ATOM     43  C   UNL     1      43.253  24.607  36.010  0.00  0.00    +0.000 A 
ATOM     44  C   UNL     1      43.519  25.950  36.138  0.00  0.00    +0.000 A 
ENDBRANCH  28  33
ENDBRANCH  25  26
ENDBRANCH   5  25
TORSDOF 5
