
     RDKit          3D

 47 51  0  0  0  0  0  0  0  0999 V2000
   37.6438   25.3743   34.3664 N   0  0  0  0  0  0  0  0  0  0  0  0
   37.1226   25.4089   33.0151 C   0  0  0  0  0  0  0  0  0  0  0  0
   36.8432   26.8446   32.7322 C   0  0  0  0  0  0  0  0  0  0  0  0
   37.2910   27.5648   33.9897 C   0  0  0  0  0  0  0  0  0  0  0  0
   38.3973   26.5823   34.4658 C   0  0  2  0  0  0  0  0  0  0  0  0
   38.5547   24.2820   34.5581 C   0  0  0  0  0  0  0  0  0  0  0  0
   37.8601   23.9122   38.2656 C   0  0  0  0  0  0  0  0  0  0  0  0
   37.6848   24.2853   36.9416 C   0  0  0  0  0  0  0  0  0  0  0  0
   38.6816   23.9147   36.0033 C   0  0  0  0  0  0  0  0  0  0  0  0
   39.7564   23.2111   36.4610 N   0  0  0  0  0  0  0  0  0  0  0  0
   39.8686   22.8782   37.7615 C   0  0  0  0  0  0  0  0  0  0  0  0
   38.9270   23.2288   38.6463 N   0  0  0  0  0  0  0  0  0  0  0  0
   39.4881   26.5998   33.6421 O   0  0  0  0  0  0  0  0  0  0  0  0
   40.6113   27.1686   34.1861 C   0  0  2  0  0  0  0  0  0  0  0  0
   41.6865   27.5220   33.1993 C   0  0  0  0  0  0  0  0  0  0  0  0
   41.9129   26.4303   34.2097 C   0  0  1  0  0  0  0  0  0  0  0  0
   36.2916   24.7189   32.8421 H   0  0  0  0  0  0  0  0  0  0  0  0
   37.9745   25.0934   32.3631 H   0  0  0  0  0  0  0  0  0  0  0  0
   37.4153   27.2821   31.8989 H   0  0  0  0  0  0  0  0  0  0  0  0
   35.7582   27.0343   32.5872 H   0  0  0  0  0  0  0  0  0  0  0  0
   36.4762   27.5138   34.7279 H   0  0  0  0  0  0  0  0  0  0  0  0
   37.7040   28.5565   33.8188 H   0  0  0  0  0  0  0  0  0  0  0  0
   38.6223   26.8934   35.5028 H   0  0  0  0  0  0  0  0  0  0  0  0
   38.1690   23.4162   33.9648 H   0  0  0  0  0  0  0  0  0  0  0  0
   39.5669   24.5398   34.2060 H   0  0  0  0  0  0  0  0  0  0  0  0
   37.0174   24.2707   38.8409 H   0  0  0  0  0  0  0  0  0  0  0  0
   36.8570   24.8460   36.4981 H   0  0  0  0  0  0  0  0  0  0  0  0
   40.6712   22.3234   38.2207 H   0  0  0  0  0  0  0  0  0  0  0  0
   40.4331   27.7264   35.1111 H   0  0  0  0  0  0  0  0  0  0  0  0
   42.2282   28.4856   33.2945 H   0  0  0  0  0  0  0  0  0  0  0  0
   41.5860   27.1951   32.1435 H   0  0  0  0  0  0  0  0  0  0  0  0
   41.8650   25.3822   33.8567 H   0  0  0  0  0  0  0  0  0  0  0  0
   42.8927   26.8099   35.2615 C   0  0  0  0  0  0  0  0  0  0  0  0
   43.2345   28.1186   35.4570 N   0  0  0  0  0  0  0  0  0  0  0  0
   44.0910   28.5284   36.4047 C   0  0  0  0  0  0  0  0  0  0  0  0
   44.6887   27.6693   37.2482 N   0  0  0  0  0  0  0  0  0  0  0  0
   44.3992   26.3642   37.1127 C   0  0  0  0  0  0  0  0  0  0  0  0
   45.0253   25.4855   37.9684 C   0  0  0  0  0  0  0  0  0  0  0  0
   44.7736   24.1332   37.8584 C   0  0  0  0  0  0  0  0  0  0  0  0
   45.2548   23.4434   38.5180 H   0  0  0  0  0  0  0  0  0  0  0  0
   43.8888   23.7378   36.8736 C   0  0  0  0  0  0  0  0  0  0  0  0
   43.7250   22.6800   36.8170 H   0  0  0  0  0  0  0  0  0  0  0  0
   43.2534   24.6069   36.0096 C   0  0  0  0  0  0  0  0  0  0  0  0
   43.5188   25.9502   36.1375 C   0  0  0  0  0  0  0  0  0  0  0  0
   44.2027   29.6227   36.3626 H   0  0  0  0  0  0  0  0  0  0  0  0
   45.7125   25.8676   38.7229 H   0  0  0  0  0  0  0  0  0  0  0  0
   42.5689   24.2829   35.2441 H   0  0  0  0  0  0  0  0  0  0  0  0
  1  5  1  0
  1  6  1  0
  2  1  1  0
  3  2  1  0
  3  4  1  0
  4  5  1  0
  6  9  1  0
  7 12  2  0
  8  7  1  0
  9 10  1  0
  9  8  2  0
 10 11  2  0
 11 12  1  0
 13 14  1  0
 13  5  1  0
 14 16  1  0
 15 14  1  0
 15 16  1  0
  2 17  1  0
  2 18  1  0
  3 19  1  0
  3 20  1  0
  4 21  1  0
  4 22  1  0
  5 23  1  1
  6 24  1  0
  6 25  1  0
  7 26  1  0
  8 27  1  0
 11 28  1  0
 14 29  1  1
 15 30  1  0
 15 31  1  0
 16 32  1  6
 33 34  2  0
 34 35  1  0
 35 36  2  0
 36 37  1  0
 37 38  2  0
 38 39  1  0
 39 40  1  0
 39 41  2  0
 41 42  1  0
 41 43  1  0
 43 44  2  0
 44 33  1  0
 44 37  1  0
 35 45  1  0
 38 46  1  0
 43 47  1  0
 16 33  1  0
M  ISO  8  17  13  18  13  19  13  20  13  21  13  22  13  23  13  24   8
M  ISO  8  25   8  26  14  27  14  28  14  29  13  30  13  31  13  32  13
M  ISO  2  40  16  42  16
M  END
>  <DihAtoms>  (1) 
13,15,32,33

>  <DihDeg>  (1) 
-65.44842799655927

$$$$
