
 OpenBabel03262519393D

 33 35  0  0  1  0  0  0  0  0999 V2000
   37.8140   24.6800   33.8660 N   0  0  0  0  0  0  0  0  0  0  0  0
   37.2120   23.9430   32.7940 C   0  0  0  0  0  0  0  0  0  0  0  0
   36.5260   24.9640   31.9330 C   0  0  0  0  0  0  0  0  0  0  0  0
   36.8620   26.2960   32.5730 C   0  0  0  0  0  0  0  0  0  0  0  0
   38.2160   25.9230   33.2230 C   0  0  2  0  0  0  0  0  0  0  0  0
   36.5470   23.1300   33.1360 H   0  0  0  0  0  0  0  0  0  0  0  0
   38.0500   23.5090   32.1990 H   0  0  0  0  0  0  0  0  0  0  0  0
   35.4380   24.8250   32.0780 H   0  0  0  0  0  0  0  0  0  0  0  0
   36.8500   24.9330   30.8740 H   0  0  0  0  0  0  0  0  0  0  0  0
   37.0940   27.0370   31.7870 H   0  0  0  0  0  0  0  0  0  0  0  0
   36.1480   26.6370   33.3190 H   0  0  0  0  0  0  0  0  0  0  0  0
   38.3910   26.7170   33.9660 H   0  0  0  0  0  0  0  0  0  0  0  0
   39.0080   24.0850   34.3850 C   0  0  0  0  0  0  0  0  0  0  0  0
   39.0790   23.0530   33.9340 H   0  0  0  0  0  0  0  0  0  0  0  0
   39.9390   24.5810   34.0800 H   0  0  0  0  0  0  0  0  0  0  0  0
   37.9170   24.2050   38.0040 C   0  0  0  0  0  0  0  0  0  0  0  0
   37.9410   24.4650   36.6350 C   0  0  0  0  0  0  0  0  0  0  0  0
   38.9300   23.8490   35.8510 C   0  0  0  0  0  0  0  0  0  0  0  0
   39.8120   23.0270   36.4940 N   0  0  0  0  0  0  0  0  0  0  0  0
   39.7580   22.8020   37.8120 C   0  0  0  0  0  0  0  0  0  0  0  0
   38.8040   23.3960   38.5660 N   0  0  0  0  0  0  0  0  0  0  0  0
   37.1550   24.6800   38.6040 H   0  0  0  0  0  0  0  0  0  0  0  0
   37.2280   25.1160   36.1750 H   0  0  0  0  0  0  0  0  0  0  0  0
   40.4810   22.1420   38.2710 H   0  0  0  0  0  0  0  0  0  0  0  0
   39.1920   25.7590   32.2900 O   0  0  0  0  0  0  0  0  0  0  0  0
   40.2620   26.6050   32.1030 C   0  0  0  0  0  0  0  0  0  0  0  0
   41.2450   27.0080   32.9820 C   0  0  0  0  0  3  0  0  0  0  0  0
   42.2400   27.8650   32.6090 C   0  0  0  0  0  0  0  0  0  0  0  0
   42.9860   28.1520   33.3310 H   0  0  0  0  0  0  0  0  0  0  0  0
   42.2550   28.3430   31.2990 C   0  0  0  0  0  3  0  0  0  0  0  0
   41.2930   27.9680   30.3810 C   0  0  0  0  0  0  0  0  0  0  0  0
   41.3510   28.3680   29.3750 H   0  0  0  0  0  0  0  0  0  0  0  0
   40.3040   27.0990   30.7960 C   0  0  0  0  0  3  0  0  0  0  0  0
  1 13  1  0  0  0  0
  2  6  1  0  0  0  0
  2  1  1  0  0  0  0
  3  8  1  0  0  0  0
  3  4  1  0  0  0  0
  3  2  1  0  0  0  0
  4  5  1  0  0  0  0
  4 11  1  0  0  0  0
  5  1  1  0  0  0  0
  5 12  1  1  0  0  0
  7  2  1  0  0  0  0
  9  3  1  0  0  0  0
 10  4  1  0  0  0  0
 13 18  1  0  0  0  0
 14 13  1  0  0  0  0
 15 13  1  0  0  0  0
 16 21  1  0  0  0  0
 16 22  1  0  0  0  0
 17 16  2  0  0  0  0
 18 19  2  0  0  0  0
 18 17  1  0  0  0  0
 19 20  1  0  0  0  0
 20 24  1  0  0  0  0
 20 21  2  0  0  0  0
 23 17  1  0  0  0  0
 25  5  1  0  0  0  0
 26 25  1  0  0  0  0
 26 27  1  0  0  0  0
 28 27  2  0  0  0  0
 28 29  1  0  0  0  0
 30 28  1  0  0  0  0
 31 33  1  0  0  0  0
 31 30  2  0  0  0  0
 32 31  1  0  0  0  0
 33 26  2  0  0  0  0
M  END
>  <minimizedAffinity>
-4.05931997

>  <minimizedRMSD>
1.9945941

$$$$
