
 OpenBabel03262518123D

 28 31  0  0  0  0  0  0  0  0999 V2000
   42.8900   21.1200   36.5250 C   0  0  0  0  0  0  0  0  0  0  0  0
   41.5280   21.2960   36.8140 C   0  0  0  0  0  0  0  0  0  0  0  0
   41.0730   22.5880   36.9620 C   0  0  0  0  0  0  0  0  0  0  0  0
   41.9920   23.5610   36.8130 N   0  0  0  0  0  0  0  0  0  0  0  0
   43.2680   23.4270   36.5440 C   0  0  0  0  0  0  0  0  0  0  0  0
   43.7180   22.1610   36.3980 N   0  0  0  0  0  0  0  0  0  0  0  0
   43.2200   20.0810   36.4130 H   0  0  0  0  0  0  0  0  0  0  0  0
   40.7940   20.5130   36.9330 H   0  0  0  0  0  0  0  0  0  0  0  0
   44.3050   24.4240   36.3710 C   0  0  0  0  0  0  0  0  0  0  0  0
   45.4060   24.4620   37.1340 N   0  0  0  0  0  0  0  0  0  0  0  0
   46.3990   25.3500   37.0290 C   0  0  0  0  0  0  0  0  0  0  0  0
   46.3520   26.3290   36.0880 N   0  0  0  0  0  0  0  0  0  0  0  0
   45.2760   26.3900   35.2510 C   0  0  0  0  0  0  0  0  0  0  0  0
   45.2140   27.3750   34.2930 C   0  0  0  0  0  0  0  0  0  0  0  0
   44.1350   27.4530   33.4390 C   0  0  0  0  0  0  0  0  0  0  0  0
   44.2030   28.2680   32.7330 H   0  0  0  0  0  0  0  0  0  0  0  0
   43.1340   26.5060   33.5910 C   0  0  0  0  0  0  0  0  0  0  0  0
   42.3140   26.6080   32.9030 H   0  0  0  0  0  0  0  0  0  0  0  0
   43.2510   25.5440   34.5680 C   0  0  0  0  0  0  0  0  0  0  0  0
   44.3090   25.4330   35.4380 C   0  0  0  0  0  0  0  0  0  0  0  0
   39.6730   22.8460   37.2610 C   0  0  0  0  0  0  0  0  0  0  0  0
   38.6760   23.0910   36.3300 C   0  0  0  0  0  0  0  0  0  0  0  0
   37.5260   23.2790   37.0220 N   0  0  0  0  0  0  0  0  0  0  0  0
   37.8460   23.1450   38.3390 C   0  0  0  0  0  0  0  0  0  0  0  0
   39.1270   22.8840   38.5120 N   0  0  0  0  0  0  0  0  0  0  0  0
   38.8750   23.1110   35.2490 H   0  0  0  0  0  0  0  0  0  0  0  0
   37.1510   23.2360   39.1750 H   0  0  0  0  0  0  0  0  0  0  0  0
   39.6260   22.7370   39.4350 H   0  0  0  0  0  0  0  0  0  0  0  0
  1  2  1  0  0  0  0
  2  8  1  0  0  0  0
  2  3  2  0  0  0  0
  3 21  1  0  0  0  0
  4  3  1  0  0  0  0
  5  4  2  0  0  0  0
  6  1  2  0  0  0  0
  6  5  1  0  0  0  0
  7  1  1  0  0  0  0
  9  5  1  0  0  0  0
  9 10  1  0  0  0  0
 11 10  2  0  0  0  0
 12 11  1  0  0  0  0
 13 20  1  0  0  0  0
 13 12  2  0  0  0  0
 14 13  1  0  0  0  0
 15 17  1  0  0  0  0
 15 14  2  0  0  0  0
 16 15  1  0  0  0  0
 17 19  2  0  0  0  0
 18 17  1  0  0  0  0
 19 20  1  0  0  0  0
 20  9  2  0  0  0  0
 21 25  1  0  0  0  0
 22 23  1  0  0  0  0
 22 21  2  0  0  0  0
 23 24  2  0  0  0  0
 24 25  1  0  0  0  0
 24 27  1  0  0  0  0
 25 28  1  0  0  0  0
 26 22  1  0  0  0  0
M  END
>  <minimizedAffinity>
-5.10481596

>  <minimizedRMSD>
5.31856585

$$$$
