REMARK  Name = 
REMARK  5 active torsions:
REMARK  status: ('A' for Active; 'I' for Inactive)
REMARK    1  A    between atoms: C_2  and  C_7
REMARK    2  A    between atoms: C_3  and  C_11
REMARK    3  A    between atoms: C_11  and  C_12
REMARK    4  A    between atoms: C_12  and  C_13
REMARK    5  A    between atoms: C_15  and  C_26
REMARK                            x       y       z     vdW  Elec       q    Type
REMARK                         _______ _______ _______ _____ _____    ______ ____
ROOT
ATOM      1  C   UNL     1      37.772  24.657  36.491  0.00  0.00    +0.000 C 
ATOM      2  C   UNL     1      38.020  24.389  37.929  0.00  0.00    +0.000 C 
ATOM      3  C   UNL     1      37.553  23.326  36.953  0.00  0.00    +0.000 C 
ATOM      4  H   UNL     1      36.933  25.338  36.267  0.00  0.00    +0.000 HD
ATOM      5  H   UNL     1      39.007  24.517  38.308  0.00  0.00    +0.000 HD
ATOM      6  H   UNL     1      37.243  24.796  38.649  0.00  0.00    +0.000 HD
ATOM      7  H   UNL     1      37.991  22.430  37.193  0.00  0.00    +0.000 HD
ENDROOT
BRANCH   3   8
ATOM      8  C   UNL     1      36.057  23.016  37.069  0.00  0.00    +0.000 A 
ATOM      9  N   UNL     1      35.266  24.122  37.098  0.00  0.00    +0.000 NA
ATOM     10  C   UNL     1      33.924  23.926  37.252  0.00  0.00    +0.000 A 
ATOM     11  N   UNL     1      33.374  22.684  37.374  0.00  0.00    +0.000 NA
ATOM     12  C   UNL     1      34.203  21.640  37.337  0.00  0.00    +0.000 A 
ATOM     13  C   UNL     1      33.677  20.357  37.446  0.00  0.00    +0.000 A 
ATOM     14  C   UNL     1      34.549  19.263  37.393  0.00  0.00    +0.000 A 
ATOM     15  H   UNL     1      34.075  18.302  37.484  0.00  0.00    +0.000 HD
ATOM     16  C   UNL     1      35.934  19.391  37.235  0.00  0.00    +0.000 A 
ATOM     17  H   UNL     1      36.480  18.470  37.211  0.00  0.00    +0.000 HD
ATOM     18  C   UNL     1      36.434  20.672  37.130  0.00  0.00    +0.000 A 
ATOM     19  C   UNL     1      35.581  21.751  37.182  0.00  0.00    +0.000 A 
ENDBRANCH   3   8
BRANCH   1  20
ATOM     20  C   UNL     1      39.019  25.096  35.713  0.00  0.00    +0.000 C 
ATOM     21  H   UNL     1      39.613  25.730  36.438  0.00  0.00    +0.000 HD
ATOM     22  H   UNL     1      38.776  25.816  34.900  0.00  0.00    +0.000 HD
BRANCH  20  23
ATOM     23  C   UNL     1      39.788  23.913  35.379  0.00  0.00    +0.000 C 
ATOM     24  H   UNL     1      39.229  23.035  35.546  0.00  0.00    +0.000 HD
ATOM     25  H   UNL     1      39.761  23.927  34.222  0.00  0.00    +0.000 HD
BRANCH  23  28
ATOM     26  C   UNL     1      43.121  23.337  36.539  0.00  0.00    +0.000 A 
ATOM     27  C   UNL     1      41.729  23.108  36.404  0.00  0.00    +0.000 A 
ATOM     28  C   UNL     1      41.174  24.042  35.624  0.00  0.00    +0.000 A 
ATOM     29  N   UNL     1      41.903  25.076  35.048  0.00  0.00    +0.000 NA
ATOM     30  C   UNL     1      43.209  25.221  35.223  0.00  0.00    +0.000 A 
ATOM     31  N   UNL     1      43.821  24.340  35.978  0.00  0.00    +0.000 NA
ATOM     32  H   UNL     1      43.770  22.676  37.146  0.00  0.00    +0.000 HD
ATOM     33  H   UNL     1      43.652  26.063  34.721  0.00  0.00    +0.000 HD
BRANCH  27  34
ATOM     34  C   UNL     1      41.238  21.971  37.087  0.00  0.00    +0.000 C 
ATOM     35  F   UNL     1      40.476  22.313  38.230  0.00  0.00    +0.000 F 
ATOM     36  F   UNL     1      42.034  21.188  37.836  0.00  0.00    +0.000 F 
ATOM     37  F   UNL     1      40.151  21.283  36.539  0.00  0.00    +0.000 F 
ENDBRANCH  27  34
ENDBRANCH  23  28
ENDBRANCH  20  23
ENDBRANCH   1  20
TORSDOF 5
