REMARK  Name = 
REMARK  6 active torsions:
REMARK  status: ('A' for Active; 'I' for Inactive)
REMARK    1  A    between atoms: C_1  and  C_4
REMARK    2  A    between atoms: C_1  and  C_8
REMARK    3  A    between atoms: C_1  and  C_9
REMARK    4  A    between atoms: C_9  and  N_10
REMARK    5  A    between atoms: C_14  and  C_15
REMARK    6  A    between atoms: C_17  and  C_33
REMARK                            x       y       z     vdW  Elec       q    Type
REMARK                         _______ _______ _______ _____ _____    ______ ____
ROOT
ATOM      1  N   UNL     1      37.583  25.438  33.076  0.00  0.00    +0.000 N 
ATOM      2  C   UNL     1      37.055  24.335  32.546  0.00  0.00    +0.000 A 
ATOM      3  C   UNL     1      36.059  24.565  31.629  0.00  0.00    +0.000 A 
ATOM      4  N   UNL     1      35.962  25.890  31.587  0.00  0.00    +0.000 NA
ATOM      5  C   UNL     1      36.878  26.422  32.455  0.00  0.00    +0.000 A 
ATOM      6  H   UNL     1      37.408  23.331  32.837  0.00  0.00    +0.000 HD
ATOM      7  H   UNL     1      35.505  23.813  31.088  0.00  0.00    +0.000 HD
ENDROOT
BRANCH   5   8
ATOM      8  C   UNL     1      36.995  27.931  32.574  0.00  0.00    +0.000 C 
ATOM      9  C   UNL     1      35.852  28.720  32.069  0.00  0.00    +0.000 C 
ATOM     10  C   UNL     1      36.036  28.578  33.567  0.00  0.00    +0.000 C 
ATOM     11  H   UNL     1      38.003  28.367  32.499  0.00  0.00    +0.000 HD
ATOM     12  H   UNL     1      35.985  29.681  31.568  0.00  0.00    +0.000 HD
ATOM     13  H   UNL     1      34.923  28.181  31.725  0.00  0.00    +0.000 HD
ATOM     14  H   UNL     1      35.374  27.950  34.161  0.00  0.00    +0.000 HD
BRANCH  10  15
ATOM     15  C   UNL     1      36.552  29.865  34.146  0.00  0.00    +0.000 A 
ATOM     16  N   UNL     1      37.101  30.065  35.350  0.00  0.00    +0.000 NA
ATOM     17  C   UNL     1      37.587  31.228  35.803  0.00  0.00    +0.000 A 
ATOM     18  N   UNL     1      37.556  32.324  35.048  0.00  0.00    +0.000 NA
ATOM     19  C   UNL     1      37.023  32.244  33.810  0.00  0.00    +0.000 A 
ATOM     20  C   UNL     1      37.001  33.405  33.071  0.00  0.00    +0.000 A 
ATOM     21  C   UNL     1      36.454  33.375  31.813  0.00  0.00    +0.000 A 
ATOM     22  H   UNL     1      36.438  34.275  31.241  0.00  0.00    +0.000 HD
ATOM     23  C   UNL     1      35.947  32.189  31.331  0.00  0.00    +0.000 A 
ATOM     24  H   UNL     1      35.526  32.201  30.340  0.00  0.00    +0.000 HD
ATOM     25  C   UNL     1      35.999  31.063  32.117  0.00  0.00    +0.000 A 
ATOM     26  C   UNL     1      36.539  31.023  33.398  0.00  0.00    +0.000 A 
ENDBRANCH  10  15
ENDBRANCH   5   8
BRANCH   1  27
ATOM     27  C   UNL     1      38.582  25.711  34.031  0.00  0.00    +0.000 C 
ATOM     28  H   UNL     1      39.135  26.642  33.757  0.00  0.00    +0.000 HD
ATOM     29  H   UNL     1      39.335  24.889  33.984  0.00  0.00    +0.000 HD
BRANCH  27  30
ATOM     30  C   UNL     1      38.078  25.767  35.427  0.00  0.00    +0.000 C 
ATOM     31  H   UNL     1      36.974  25.663  35.494  0.00  0.00    +0.000 HD
BRANCH  30  34
ATOM     32  C   UNL     1      38.640  23.379  38.308  0.00  0.00    +0.000 A 
ATOM     33  C   UNL     1      38.045  24.414  37.566  0.00  0.00    +0.000 A 
ATOM     34  C   UNL     1      38.642  24.703  36.294  0.00  0.00    +0.000 A 
ATOM     35  N   UNL     1      39.739  23.977  35.863  0.00  0.00    +0.000 NA
ATOM     36  C   UNL     1      40.259  23.008  36.609  0.00  0.00    +0.000 A 
ATOM     37  N   UNL     1      39.703  22.706  37.845  0.00  0.00    +0.000 NA
ATOM     38  H   UNL     1      38.181  23.175  39.259  0.00  0.00    +0.000 HD
ATOM     39  H   UNL     1      37.193  24.998  37.870  0.00  0.00    +0.000 HD
ATOM     40  H   UNL     1      41.099  22.420  36.327  0.00  0.00    +0.000 HD
ENDBRANCH  30  34
BRANCH  30  41
ATOM     41  C   UNL     1      38.366  27.138  36.021  0.00  0.00    +0.000 C 
ATOM     42  H   UNL     1      38.949  26.987  36.952  0.00  0.00    +0.000 HD
ATOM     43  H   UNL     1      39.073  27.689  35.335  0.00  0.00    +0.000 HD
ATOM     44  H   UNL     1      37.471  27.701  36.279  0.00  0.00    +0.000 HD
ENDBRANCH  30  41
ENDBRANCH  27  30
ENDBRANCH   1  27
TORSDOF 6
