REMARK  Name = 
REMARK  3 active torsions:
REMARK  status: ('A' for Active; 'I' for Inactive)
REMARK    1  A    between atoms: O_1  and  C_2
REMARK    2  A    between atoms: O_1  and  C_11
REMARK    3  A    between atoms: C_15  and  C_25
REMARK                            x       y       z     vdW  Elec       q    Type
REMARK                         _______ _______ _______ _____ _____    ______ ____
ROOT
ATOM      1  C   UNL     1      39.600  22.689  37.440  0.00  0.00    +0.000 A 
ATOM      2  C   UNL     1      39.091  23.355  38.542  0.00  0.00    +0.000 A 
ATOM      3  C   UNL     1      37.944  24.146  38.318  0.00  0.00    +0.000 A 
ATOM      4  N   UNL     1      37.409  24.218  37.081  0.00  0.00    +0.000 NA
ATOM      5  C   UNL     1      37.946  23.541  36.016  0.00  0.00    +0.000 A 
ATOM      6  N   UNL     1      39.011  22.818  36.268  0.00  0.00    +0.000 NA
ATOM      7  H   UNL     1      39.582  23.241  39.494  0.00  0.00    +0.000 HD
ATOM      8  H   UNL     1      37.541  24.663  39.153  0.00  0.00    +0.000 HD
ENDROOT
BRANCH   5   9
ATOM      9  C   UNL     1      37.177  23.794  34.806  0.00  0.00    +0.000 A 
ATOM     10  N   UNL     1      36.508  24.930  34.559  0.00  0.00    +0.000 NA
ATOM     11  C   UNL     1      35.798  25.175  33.453  0.00  0.00    +0.000 A 
ATOM     12  N   UNL     1      35.687  24.280  32.457  0.00  0.00    +0.000 NA
ATOM     13  C   UNL     1      36.326  23.109  32.616  0.00  0.00    +0.000 A 
ATOM     14  C   UNL     1      36.213  22.191  31.596  0.00  0.00    +0.000 A 
ATOM     15  C   UNL     1      36.844  20.970  31.697  0.00  0.00    +0.000 A 
ATOM     16  H   UNL     1      36.714  20.297  30.862  0.00  0.00    +0.000 HD
ATOM     17  C   UNL     1      37.584  20.709  32.846  0.00  0.00    +0.000 A 
ATOM     18  H   UNL     1      38.066  19.744  32.895  0.00  0.00    +0.000 HD
ATOM     19  C   UNL     1      37.657  21.671  33.829  0.00  0.00    +0.000 A 
ATOM     20  C   UNL     1      37.044  22.901  33.770  0.00  0.00    +0.000 A 
ENDBRANCH   5   9
BRANCH   1  21
ATOM     21  O   UNL     1      40.698  21.916  37.600  0.00  0.00    +0.000 OA
BRANCH  21  22
ATOM     22  C   UNL     1      41.919  22.053  36.990  0.00  0.00    +0.000 A 
ATOM     23  C   UNL     1      42.411  23.215  36.411  0.00  0.00    +0.000 A 
ATOM     24  N   UNL     1      43.626  23.010  35.909  0.00  0.00    +0.000 N 
ATOM     25  C   UNL     1      44.005  21.720  36.122  0.00  0.00    +0.000 A 
ATOM     26  C   UNL     1      45.137  20.993  35.814  0.00  0.00    +0.000 A 
ATOM     27  C   UNL     1      45.224  19.662  36.174  0.00  0.00    +0.000 A 
ATOM     28  C   UNL     1      44.153  19.060  36.852  0.00  0.00    +0.000 A 
ATOM     29  C   UNL     1      43.025  19.816  37.149  0.00  0.00    +0.000 A 
ATOM     30  C   UNL     1      42.947  21.146  36.786  0.00  0.00    +0.000 A 
ATOM     31  H   UNL     1      41.925  24.189  36.344  0.00  0.00    +0.000 HD
ATOM     32  H   UNL     1      44.260  23.699  35.406  0.00  0.00    +0.000 HD
ATOM     33  H   UNL     1      45.935  21.485  35.296  0.00  0.00    +0.000 HD
ATOM     34  H   UNL     1      46.135  19.136  35.909  0.00  0.00    +0.000 HD
ATOM     35  H   UNL     1      44.262  18.014  37.115  0.00  0.00    +0.000 HD
ATOM     36  H   UNL     1      42.214  19.334  37.670  0.00  0.00    +0.000 HD
ENDBRANCH  21  22
ENDBRANCH   1  21
TORSDOF 3
