
     RDKit          3D

 39 43  0  0  0  0  0  0  0  0999 V2000
   40.6976   21.9159   37.5996 O   0  0  0  0  0  0  0  0  0  0  0  0
   41.9192   22.0530   36.9905 C   0  0  0  0  0  0  0  0  0  0  0  0
   42.4114   23.2148   36.4115 C   0  0  0  0  0  0  0  0  0  0  0  0
   43.6255   23.0103   35.9087 N   0  0  0  0  0  0  0  0  0  0  0  0
   44.0045   21.7200   36.1216 C   0  0  0  0  0  0  0  0  0  0  0  0
   45.1374   20.9932   35.8141 C   0  0  0  0  0  0  0  0  0  0  0  0
   45.2245   19.6615   36.1738 C   0  0  0  0  0  0  0  0  0  0  0  0
   44.1525   19.0604   36.8520 C   0  0  0  0  0  0  0  0  0  0  0  0
   43.0248   19.8159   37.1490 C   0  0  0  0  0  0  0  0  0  0  0  0
   42.9473   21.1464   36.7856 C   0  0  0  0  0  0  0  0  0  0  0  0
   39.5998   22.6891   37.4397 C   0  0  0  0  0  0  0  0  0  0  0  0
   39.0910   23.3551   38.5419 C   0  0  0  0  0  0  0  0  0  0  0  0
   37.9438   24.1460   38.3184 C   0  0  0  0  0  0  0  0  0  0  0  0
   37.4087   24.2179   37.0814 N   0  0  0  0  0  0  0  0  0  0  0  0
   37.9457   23.5413   36.0155 C   0  0  0  0  0  0  0  0  0  0  0  0
   39.0111   22.8183   36.2678 N   0  0  0  0  0  0  0  0  0  0  0  0
   41.9253   24.1895   36.3438 H   0  0  0  0  0  0  0  0  0  0  0  0
   44.2601   23.6993   35.4058 H   0  0  0  0  0  0  0  0  0  0  0  0
   45.9348   21.4848   35.2962 H   0  0  0  0  0  0  0  0  0  0  0  0
   46.1347   19.1358   35.9092 H   0  0  0  0  0  0  0  0  0  0  0  0
   44.2620   18.0140   37.1153 H   0  0  0  0  0  0  0  0  0  0  0  0
   42.2136   19.3337   37.6705 H   0  0  0  0  0  0  0  0  0  0  0  0
   39.5822   23.2412   39.4936 H   0  0  0  0  0  0  0  0  0  0  0  0
   37.5414   24.6627   39.1528 H   0  0  0  0  0  0  0  0  0  0  0  0
   37.1772   23.7935   34.8058 C   0  0  0  0  0  0  0  0  0  0  0  0
   36.5077   24.9304   34.5595 N   0  0  0  0  0  0  0  0  0  0  0  0
   35.7984   25.1748   33.4531 C   0  0  0  0  0  0  0  0  0  0  0  0
   35.6868   24.2800   32.4569 N   0  0  0  0  0  0  0  0  0  0  0  0
   36.3259   23.1086   32.6160 C   0  0  0  0  0  0  0  0  0  0  0  0
   36.2127   22.1905   31.5962 C   0  0  0  0  0  0  0  0  0  0  0  0
   36.8442   20.9697   31.6972 C   0  0  0  0  0  0  0  0  0  0  0  0
   36.7136   20.2973   30.8616 H   0  0  0  0  0  0  0  0  0  0  0  0
   37.5842   20.7085   32.8462 C   0  0  0  0  0  0  0  0  0  0  0  0
   38.0663   19.7442   32.8949 H   0  0  0  0  0  0  0  0  0  0  0  0
   37.6566   21.6707   33.8286 C   0  0  0  0  0  0  0  0  0  0  0  0
   37.0438   22.9005   33.7703 C   0  0  0  0  0  0  0  0  0  0  0  0
   35.3108   26.1512   33.4049 H   0  0  0  0  0  0  0  0  0  0  0  0
   35.6237   22.4310   30.7104 H   0  0  0  0  0  0  0  0  0  0  0  0
   38.2462   21.3636   34.6569 H   0  0  0  0  0  0  0  0  0  0  0  0
  2  1  1  0
  3  2  2  0
  4  5  1  0
  4  3  1  0
  5 10  2  0
  6  5  1  0
  6  7  2  0
  7  8  1  0
  8  9  2  0
 10  2  1  0
 10  9  1  0
 11  1  1  0
 11 12  2  0
 13 12  1  0
 14 13  2  0
 15 16  2  0
 15 14  1  0
 16 11  1  0
  3 17  1  0
  4 18  1  0
  6 19  1  0
  7 20  1  0
  8 21  1  0
  9 22  1  0
 12 23  1  0
 13 24  1  0
 25 26  2  0
 26 27  1  0
 27 28  2  0
 28 29  1  0
 29 30  2  0
 30 31  1  0
 31 32  1  0
 31 33  2  0
 33 34  1  0
 33 35  1  0
 35 36  2  0
 36 25  1  0
 36 29  1  0
 27 37  1  0
 30 38  1  0
 35 39  1  0
 15 25  1  0
M  ISO  8  17  14  18   9  19  14  20  14  21  14  22  14  23  14  24  14
M  ISO  2  32  16  34  16
M  END
>  <DihAtoms>  (1) 
15,14,24,25

>  <DihDeg>  (1) 
-179.99721452213205

$$$$
