
 OpenBabel03262519523D

 37 40  0  0  1  0  0  0  0  0999 V2000
   42.5400   26.8460   33.9690 C   0  0  2  0  0  0  0  0  0  0  0  0
   42.9700   25.9200   35.0460 C   0  0  0  0  0  0  0  0  0  0  0  0
   42.0270   25.5160   33.9290 C   0  0  1  0  0  0  0  0  0  0  0  0
   41.9160   27.6980   34.2890 H   0  0  0  0  0  0  0  0  0  0  0  0
   44.0040   25.6780   35.1260 H   0  0  0  0  0  0  0  0  0  0  0  0
   42.5050   26.0980   36.0660 H   0  0  0  0  0  0  0  0  0  0  0  0
   42.2150   24.5430   33.6620 H   0  0  0  0  0  0  0  0  0  0  0  0
   40.5590   25.4720   34.3650 C   0  0  0  0  0  0  0  0  0  0  0  0
   39.8400   26.5620   33.9880 N   0  0  0  0  0  0  0  0  0  0  0  0
   38.5360   26.6180   34.3860 C   0  0  0  0  0  3  0  0  0  0  0  0
   37.9540   25.6360   35.1310 N   0  0  0  0  0  0  0  0  0  0  0  0
   38.7120   24.5910   35.4670 C   0  0  0  0  0  0  0  0  0  0  0  0
   38.1490   23.5620   36.2150 C   0  0  0  0  0  3  0  0  0  0  0  0
   38.9460   22.4620   36.5550 C   0  0  0  0  0  0  0  0  0  0  0  0
   38.4460   21.7040   37.1340 H   0  0  0  0  0  0  0  0  0  0  0  0
   40.2890   22.3390   36.1800 C   0  0  0  0  0  0  0  0  0  0  0  0
   40.7770   21.4430   36.5090 H   0  0  0  0  0  0  0  0  0  0  0  0
   40.8250   23.3700   35.4390 C   0  0  0  0  0  3  0  0  0  0  0  0
   40.0480   24.4550   35.1030 C   0  0  0  0  0  0  0  0  0  0  0  0
   43.6860   27.3460   33.0800 C   0  0  0  0  0  0  0  0  0  0  0  0
   44.4330   27.8090   33.7930 H   0  0  0  0  0  0  0  0  0  0  0  0
   43.3820   28.2100   32.4480 H   0  0  0  0  0  0  0  0  0  0  0  0
   44.2950   26.2000   32.4340 C   0  0  0  0  0  0  0  0  0  0  0  0
   44.0210   25.3020   32.9120 H   0  0  0  0  0  0  0  0  0  0  0  0
   43.6560   26.0960   31.4750 H   0  0  0  0  0  0  0  0  0  0  0  0
   47.8340   26.3820   31.9540 C   0  0  0  0  0  0  0  0  0  0  0  0
   46.6230   26.0940   32.6300 C   0  0  0  0  0  0  0  0  0  0  0  0
   45.5720   26.4620   31.8880 C   0  0  0  0  0  0  0  0  0  0  0  0
   45.7020   27.0430   30.6320 N   0  0  0  0  0  0  0  0  0  0  0  0
   46.8760   27.2800   30.0650 C   0  0  0  0  0  0  0  0  0  0  0  0
   47.9520   26.9440   30.7370 N   0  0  0  0  0  0  0  0  0  0  0  0
   48.8240   26.1550   32.3960 H   0  0  0  0  0  0  0  0  0  0  0  0
   46.8360   27.7330   29.0910 H   0  0  0  0  0  0  0  0  0  0  0  0
   46.7730   25.4860   33.8980 C   0  0  0  0  0  0  0  0  0  0  0  0
   46.2960   26.3040   34.9510 F   0  0  0  0  0  0  0  0  0  0  0  0
   47.9680   25.3810   34.5040 F   0  0  0  0  0  0  0  0  0  0  0  0
   45.8850   24.4660   34.2570 F   0  0  0  0  0  0  0  0  0  0  0  0
  1  4  1  1  0  0  0
  1  2  1  0  0  0  0
  2  5  1  0  0  0  0
  2  6  1  0  0  0  0
  3  7  1  6  0  0  0
  3  1  1  0  0  0  0
  3  8  1  0  0  0  0
  3  2  1  0  0  0  0
  8 19  1  0  0  0  0
  9  8  2  0  0  0  0
  9 10  1  0  0  0  0
 10 11  2  0  0  0  0
 11 12  1  0  0  0  0
 12 13  1  0  0  0  0
 13 14  2  0  0  0  0
 14 15  1  0  0  0  0
 16 17  1  0  0  0  0
 16 14  1  0  0  0  0
 18 16  2  0  0  0  0
 19 18  1  0  0  0  0
 19 12  2  0  0  0  0
 20 21  1  0  0  0  0
 20  1  1  0  0  0  0
 22 20  1  0  0  0  0
 23 24  1  0  0  0  0
 23 20  1  0  0  0  0
 25 23  1  0  0  0  0
 26 32  1  0  0  0  0
 26 27  1  0  0  0  0
 27 34  1  0  0  0  0
 28 23  1  0  0  0  0
 28 27  2  0  0  0  0
 29 28  1  0  0  0  0
 30 29  2  0  0  0  0
 30 31  1  0  0  0  0
 31 26  2  0  0  0  0
 33 30  1  0  0  0  0
 34 37  1  0  0  0  0
 34 36  1  0  0  0  0
 34 35  1  0  0  0  0
M  END
>  <minimizedAffinity>
-3.03485441

>  <minimizedRMSD>
6.31798172

$$$$
