REMARK  Name = 
REMARK  4 active torsions:
REMARK  status: ('A' for Active; 'I' for Inactive)
REMARK    1  A    between atoms: C_3  and  C_7
REMARK    2  A    between atoms: C_7  and  C_8
REMARK    3  A    between atoms: C_7  and  C_9
REMARK    4  A    between atoms: C_9  and  C_19
REMARK                            x       y       z     vdW  Elec       q    Type
REMARK                         _______ _______ _______ _____ _____    ______ ____
ROOT
ATOM      1  C   UNL     1      38.079  24.229  37.038  0.00  0.00    +0.000 C 
ATOM      2  H   UNL     1      37.183  23.698  36.582  0.00  0.00    +0.000 HD
ENDROOT
BRANCH   1   5
ATOM      3  C   UNL     1      41.064  21.924  37.438  0.00  0.00    +0.000 A 
ATOM      4  C   UNL     1      39.999  22.782  37.804  0.00  0.00    +0.000 A 
ATOM      5  C   UNL     1      39.208  23.330  36.757  0.00  0.00    +0.000 A 
ATOM      6  N   UNL     1      39.517  23.000  35.444  0.00  0.00    +0.000 NA
ATOM      7  C   UNL     1      40.538  22.183  35.166  0.00  0.00    +0.000 A 
ATOM      8  N   UNL     1      41.316  21.640  36.151  0.00  0.00    +0.000 NA
ATOM      9  H   UNL     1      41.590  21.571  38.312  0.00  0.00    +0.000 HD
ATOM     10  H   UNL     1      39.756  23.040  38.803  0.00  0.00    +0.000 HD
ATOM     11  H   UNL     1      40.746  21.951  34.130  0.00  0.00    +0.000 HD
ENDBRANCH   1   5
BRANCH   1  12
ATOM     12  C   UNL     1      37.821  24.338  38.534  0.00  0.00    +0.000 C 
ATOM     13  H   UNL     1      37.511  23.331  38.910  0.00  0.00    +0.000 HD
ATOM     14  H   UNL     1      36.927  24.987  38.650  0.00  0.00    +0.000 HD
ATOM     15  H   UNL     1      38.682  24.755  39.061  0.00  0.00    +0.000 HD
ENDBRANCH   1  12
BRANCH   1  16
ATOM     16  C   UNL     1      38.158  25.567  36.404  0.00  0.00    +0.000 C 
ATOM     17  H   UNL     1      37.193  26.094  36.667  0.00  0.00    +0.000 HD
ATOM     18  H   UNL     1      38.097  25.472  35.280  0.00  0.00    +0.000 HD
BRANCH  16  19
ATOM     19  C   UNL     1      39.269  26.462  36.730  0.00  0.00    +0.000 C 
ATOM     20  C   UNL     1      40.324  26.614  35.673  0.00  0.00    +0.000 C 
ATOM     21  C   UNL     1      40.940  27.990  35.939  0.00  0.00    +0.000 C 
ATOM     22  C   UNL     1      39.962  28.780  36.738  0.00  0.00    +0.000 C 
ATOM     23  C   UNL     1      38.757  27.908  36.837  0.00  0.00    +0.000 C 
ENDBRANCH  16  19
ENDBRANCH   1  16
TORSDOF 4
