
 OpenBabel03262513013D

 51 56  0  0  1  0  0  0  0  0999 V2000
   38.2040   27.7140   31.8670 C   0  0  1  0  0  0  0  0  0  0  0  0
   38.1690   28.8140   31.8900 H   0  0  0  0  0  0  0  0  0  0  0  0
   38.3190   25.7360   34.7830 C   0  0  0  0  0  0  0  0  0  0  0  0
   37.2910   26.6000   35.0910 C   0  0  0  0  0  0  0  0  0  0  0  0
   37.0500   27.4870   34.0870 C   0  0  0  0  0  0  0  0  0  0  0  0
   37.9380   27.1620   33.1580 N   0  0  0  0  0  0  0  0  0  0  0  0
   38.6810   26.1450   33.5540 N   0  0  0  0  0  0  0  0  0  0  0  0
   36.7350   26.5690   36.0420 H   0  0  0  0  0  0  0  0  0  0  0  0
   36.3230   28.2840   34.0120 H   0  0  0  0  0  0  0  0  0  0  0  0
   40.1100   23.0200   36.2270 C   0  0  0  0  0  0  0  0  0  0  0  0
   39.1130   23.2120   37.1960 C   0  0  0  0  0  0  0  0  0  0  0  0
   38.3520   24.2410   36.7540 N   0  0  0  0  0  0  0  0  0  0  0  0
   38.8920   24.6300   35.5700 C   0  0  0  0  0  0  0  0  0  0  0  0
   39.9380   23.9230   35.2330 N   0  0  0  0  0  0  0  0  0  0  0  0
   38.9550   22.6730   38.1120 H   0  0  0  0  0  0  0  0  0  0  0  0
   40.5360   23.9930   34.4040 H   0  0  0  0  0  0  0  0  0  0  0  0
   42.4560   20.4770   37.6110 C   0  0  0  0  0  0  0  0  0  0  0  0
   41.4570   21.4630   37.5590 C   0  0  0  0  0  0  0  0  0  0  0  0
   41.1470   21.9940   36.3090 C   0  0  0  0  0  0  0  0  0  0  0  0
   41.8170   21.5420   35.1930 N   0  0  0  0  0  0  0  0  0  0  0  0
   42.7550   20.6010   35.3240 C   0  0  0  0  0  0  0  0  0  0  0  0
   43.0750   20.0760   36.4870 N   0  0  0  0  0  0  0  0  0  0  0  0
   42.6800   20.0790   38.5930 H   0  0  0  0  0  0  0  0  0  0  0  0
   40.9480   21.7970   38.4670 H   0  0  0  0  0  0  0  0  0  0  0  0
   43.2530   20.2800   34.4080 H   0  0  0  0  0  0  0  0  0  0  0  0
   39.6440   27.3310   31.4730 C   0  0  0  0  0  0  0  0  0  0  0  0
   39.9510   26.3590   31.7990 H   0  0  0  0  0  0  0  0  0  0  0  0
   40.2080   27.9870   32.2690 H   0  0  0  0  0  0  0  0  0  0  0  0
   39.9650   27.8160   30.5770 H   0  0  0  0  0  0  0  0  0  0  0  0
   37.3640   27.2370   30.7810 C   0  0  0  0  0  0  0  0  0  0  0  0
   36.9340   28.1070   30.2790 H   0  0  0  0  0  0  0  0  0  0  0  0
   38.1180   26.8770   29.9800 H   0  0  0  0  0  0  0  0  0  0  0  0
   36.4720   26.1760   30.8930 N   0  0  0  0  0  0  0  0  0  0  0  0
   35.1220   26.3710   31.1030 C   0  0  0  0  0  0  0  0  0  0  0  0
   34.4350   25.1900   31.1650 C   0  0  0  0  0  0  0  0  0  0  0  0
   35.3780   24.2720   30.9940 N   0  0  0  0  0  0  0  0  0  0  0  0
   36.5670   24.8630   30.8270 C   0  0  0  0  0  0  0  0  0  0  0  0
   34.6260   27.3520   31.2110 H   0  0  0  0  0  0  0  0  0  0  0  0
   33.3670   25.1050   31.3210 H   0  0  0  0  0  0  0  0  0  0  0  0
   37.6170   23.8940   30.5130 C   0  0  0  0  0  0  0  0  0  0  0  0
   38.7510   24.0690   29.8830 N   0  0  0  0  0  0  0  0  0  0  0  0
   39.7850   23.3430   29.6350 C   0  0  0  0  0  0  0  0  0  0  0  0
   39.7430   22.0910   30.1160 N   0  0  0  0  0  0  0  0  0  0  0  0
   38.6310   21.7080   30.8110 C   0  0  0  0  0  0  0  0  0  0  0  0
   38.6410   20.4330   31.3090 C   0  0  0  0  0  0  0  0  0  0  0  0
   37.5930   19.9720   32.0400 C   0  0  0  0  0  0  0  0  0  0  0  0
   37.6530   18.9600   32.4070 H   0  0  0  0  0  0  0  0  0  0  0  0
   36.5070   20.8160   32.2760 C   0  0  0  0  0  0  0  0  0  0  0  0
   35.7300   20.3870   32.8520 H   0  0  0  0  0  0  0  0  0  0  0  0
   36.5840   22.0820   31.7360 C   0  0  0  0  0  0  0  0  0  0  0  0
   37.6160   22.6080   30.9860 C   0  0  0  0  0  0  0  0  0  0  0  0
  1  2  1  1  0  0  0
  1  6  1  0  0  0  0
  3  4  1  0  0  0  0
  3 13  1  0  0  0  0
  4  8  1  0  0  0  0
  5  4  2  0  0  0  0
  6  7  1  0  0  0  0
  6  5  1  0  0  0  0
  7  3  2  0  0  0  0
  9  5  1  0  0  0  0
 10 19  1  0  0  0  0
 10 11  2  0  0  0  0
 11 15  1  0  0  0  0
 12 11  1  0  0  0  0
 13 12  2  0  0  0  0
 14 13  1  0  0  0  0
 14 10  1  0  0  0  0
 16 14  1  0  0  0  0
 17 23  1  0  0  0  0
 18 17  1  0  0  0  0
 18 24  1  0  0  0  0
 19 18  2  0  0  0  0
 20 21  2  0  0  0  0
 20 19  1  0  0  0  0
 21 22  1  0  0  0  0
 22 17  2  0  0  0  0
 25 21  1  0  0  0  0
 26 27  1  0  0  0  0
 26  1  1  0  0  0  0
 26 28  1  0  0  0  0
 29 26  1  0  0  0  0
 30 33  1  0  0  0  0
 30  1  1  0  0  0  0
 31 30  1  0  0  0  0
 32 30  1  0  0  0  0
 33 34  1  0  0  0  0
 34 35  2  0  0  0  0
 34 38  1  0  0  0  0
 35 39  1  0  0  0  0
 36 35  1  0  0  0  0
 37 33  1  0  0  0  0
 37 36  2  0  0  0  0
 40 37  1  0  0  0  0
 40 51  1  0  0  0  0
 41 40  2  0  0  0  0
 42 41  1  0  0  0  0
 42 43  2  0  0  0  0
 43 44  1  0  0  0  0
 44 51  2  0  0  0  0
 44 45  1  0  0  0  0
 45 46  2  0  0  0  0
 46 48  1  0  0  0  0
 46 47  1  0  0  0  0
 48 49  1  0  0  0  0
 50 48  2  0  0  0  0
 51 50  1  0  0  0  0
M  END
>  <minimizedAffinity>
-5.77015543

>  <minimizedRMSD>
2.1119709

$$$$
