REMARK  Name = 
REMARK  4 active torsions:
REMARK  status: ('A' for Active; 'I' for Inactive)
REMARK    1  A    between atoms: C_1  and  C_6
REMARK    2  A    between atoms: N_5  and  C_12
REMARK    3  A    between atoms: C_14  and  C_15
REMARK    4  A    between atoms: C_14  and  C_27
REMARK                            x       y       z     vdW  Elec       q    Type
REMARK                         _______ _______ _______ _____ _____    ______ ____
ROOT
ATOM      1  C   UNL     1      38.531  23.946  35.908  0.00  0.00    +0.000 C 
ATOM      2  C   UNL     1      38.065  25.230  36.363  0.00  0.00    +0.000 C 
ATOM      3  C   UNL     1      37.516  23.945  37.036  0.00  0.00    +0.000 C 
ATOM      4  H   UNL     1      39.572  23.631  36.235  0.00  0.00    +0.000 HD
ATOM      5  H   UNL     1      38.741  25.843  36.992  0.00  0.00    +0.000 HD
ATOM      6  H   UNL     1      37.392  25.846  35.765  0.00  0.00    +0.000 HD
ENDROOT
BRANCH   3   7
ATOM      7  C   UNL     1      36.039  23.876  36.761  0.00  0.00    +0.000 A 
ATOM      8  N   UNL     1      35.608  22.575  36.953  0.00  0.00    +0.000 NA
ATOM      9  C   UNL     1      34.368  22.151  36.891  0.00  0.00    +0.000 A 
ATOM     10  N   UNL     1      33.350  22.979  36.620  0.00  0.00    +0.000 NA
ATOM     11  C   UNL     1      33.654  24.265  36.412  0.00  0.00    +0.000 A 
ATOM     12  C   UNL     1      32.780  25.278  36.090  0.00  0.00    +0.000 A 
ATOM     13  C   UNL     1      33.160  26.590  35.853  0.00  0.00    +0.000 A 
ATOM     14  H   UNL     1      32.358  27.268  35.612  0.00  0.00    +0.000 HD
ATOM     15  C   UNL     1      34.519  26.938  35.939  0.00  0.00    +0.000 A 
ATOM     16  H   UNL     1      34.757  27.969  35.744  0.00  0.00    +0.000 HD
ATOM     17  C   UNL     1      35.382  25.920  36.262  0.00  0.00    +0.000 A 
ATOM     18  C   UNL     1      34.959  24.645  36.490  0.00  0.00    +0.000 A 
ENDBRANCH   3   7
BRANCH   1  23
ATOM     19  C   UNL     1      37.869  23.699  33.503  0.00  0.00    +0.000 A 
ATOM     20  C   UNL     1      37.474  22.655  32.670  0.00  0.00    +0.000 A 
ATOM     21  N   UNL     1      37.501  21.564  33.487  0.00  0.00    +0.000 NA
ATOM     22  C   UNL     1      37.883  21.963  34.690  0.00  0.00    +0.000 A 
ATOM     23  N   UNL     1      38.118  23.283  34.733  0.00  0.00    +0.000 N 
ATOM     24  H   UNL     1      37.206  22.695  31.617  0.00  0.00    +0.000 HD
ATOM     25  H   UNL     1      37.972  21.235  35.506  0.00  0.00    +0.000 HD
BRANCH  19  26
ATOM     26  C   UNL     1      38.012  25.081  33.078  0.00  0.00    +0.000 A 
ATOM     27  C   UNL     1      39.297  25.588  32.776  0.00  0.00    +0.000 A 
ATOM     28  C   UNL     1      39.394  26.934  32.362  0.00  0.00    +0.000 A 
ATOM     29  N   UNL     1      38.241  27.648  32.282  0.00  0.00    +0.000 NA
ATOM     30  C   UNL     1      37.030  27.125  32.581  0.00  0.00    +0.000 A 
ATOM     31  N   UNL     1      36.904  25.850  32.977  0.00  0.00    +0.000 NA
ATOM     32  H   UNL     1      40.186  24.980  32.855  0.00  0.00    +0.000 HD
ATOM     33  H   UNL     1      40.344  27.385  32.116  0.00  0.00    +0.000 HD
ATOM     34  H   UNL     1      36.214  27.825  32.466  0.00  0.00    +0.000 HD
ENDBRANCH  19  26
ENDBRANCH   1  23
BRANCH   3  35
ATOM     35  C   UNL     1      38.046  23.777  38.425  0.00  0.00    +0.000 C 
ATOM     36  F   UNL     1      37.544  22.685  39.065  0.00  0.00    +0.000 F 
ATOM     37  F   UNL     1      39.488  23.334  38.295  0.00  0.00    +0.000 F 
ATOM     38  F   UNL     1      38.233  24.890  39.146  0.00  0.00    +0.000 F 
ENDBRANCH   3  35
TORSDOF 4
