
 OpenBabel03262520003D

 32 35  0  0  1  0  0  0  0  0999 V2000
   37.9230   24.9630   31.3870 C   0  0  0  0  0  0  0  0  0  0  0  0
   37.5110   23.8760   30.6190 C   0  0  0  0  0  0  0  0  0  0  0  0
   37.0320   22.9910   31.5460 N   0  0  0  0  0  0  0  0  0  0  0  0
   37.1690   23.5480   32.7460 C   0  0  0  0  0  0  0  0  0  0  0  0
   37.7130   24.7590   32.6750 N   0  0  0  0  0  0  0  0  0  0  0  0
   37.5850   23.8210   29.5420 H   0  0  0  0  0  0  0  0  0  0  0  0
   36.8110   22.9100   33.5660 H   0  0  0  0  0  0  0  0  0  0  0  0
   38.5210   26.1740   30.8430 C   0  0  0  0  0  0  0  0  0  0  0  0
   39.9230   26.2550   30.7020 C   0  0  0  0  0  0  0  0  0  0  0  0
   40.4610   27.4450   30.1670 C   0  0  0  0  0  0  0  0  0  0  0  0
   39.5890   28.4300   29.8240 N   0  0  0  0  0  0  0  0  0  0  0  0
   38.2520   28.3120   29.9750 C   0  0  0  0  0  0  0  0  0  0  0  0
   37.7130   27.1900   30.4810 N   0  0  0  0  0  0  0  0  0  0  0  0
   40.5410   25.4240   31.0000 H   0  0  0  0  0  0  0  0  0  0  0  0
   41.5320   27.5370   30.0470 H   0  0  0  0  0  0  0  0  0  0  0  0
   37.6950   29.1810   29.6560 H   0  0  0  0  0  0  0  0  0  0  0  0
   37.9590   25.5600   33.8140 C   0  0  1  0  0  0  0  0  0  0  0  0
   38.0160   25.1220   35.1810 C   0  0  0  0  0  0  0  0  0  0  0  0
   39.3270   25.4330   34.3970 C   0  0  1  0  0  0  0  0  0  0  0  0
   37.5930   26.6360   33.6610 H   0  0  0  0  0  0  0  0  0  0  0  0
   37.8920   24.0620   35.4360 H   0  0  0  0  0  0  0  0  0  0  0  0
   37.7840   25.7850   36.0330 H   0  0  0  0  0  0  0  0  0  0  0  0
   40.1770   24.1880   34.4720 C   0  0  0  0  0  0  0  0  0  0  0  0
   40.4130   23.2470   35.4560 C   0  0  0  0  0  3  0  0  0  0  0  0
   41.2750   22.3670   34.9110 N   0  0  0  0  0  0  0  0  0  0  0  0
   41.5540   22.7520   33.6510 C   0  0  0  0  0  3  0  0  0  0  0  0
   40.8680   23.8950   33.3680 N   0  0  0  0  0  0  0  0  0  0  0  0
   40.9710   24.3350   32.4190 H   0  0  0  0  0  0  0  0  0  0  0  0
   39.9790   26.6970   34.9180 C   0  0  0  0  0  0  0  0  0  0  0  0
   41.2950   26.4440   35.2530 F   0  0  0  0  0  0  0  0  0  0  0  0
   40.0830   27.6370   33.8100 F   0  0  0  0  0  0  0  0  0  0  0  0
   39.2790   27.3230   35.8760 F   0  0  0  0  0  0  0  0  0  0  0  0
  1  5  1  0  0  0  0
  2  1  2  0  0  0  0
  2  3  1  0  0  0  0
  3  4  2  0  0  0  0
  4  7  1  0  0  0  0
  5  4  1  0  0  0  0
  5 17  1  0  0  0  0
  6  2  1  0  0  0  0
  8  1  1  0  0  0  0
  9  8  1  0  0  0  0
  9 14  1  0  0  0  0
 10  9  2  0  0  0  0
 11 12  2  0  0  0  0
 11 10  1  0  0  0  0
 12 13  1  0  0  0  0
 13  8  2  0  0  0  0
 15 10  1  0  0  0  0
 16 12  1  0  0  0  0
 17 20  1  6  0  0  0
 17 19  1  0  0  0  0
 17 18  1  0  0  0  0
 18 21  1  0  0  0  0
 18 22  1  0  0  0  0
 19 23  1  0  0  0  0
 19 29  1  1  0  0  0
 19 18  1  0  0  0  0
 23 24  2  0  0  0  0
 25 24  1  0  0  0  0
 26 25  2  0  0  0  0
 27 26  1  0  0  0  0
 27 23  1  0  0  0  0
 28 27  1  0  0  0  0
 29 30  1  0  0  0  0
 29 32  1  0  0  0  0
 31 29  1  0  0  0  0
M  END
>  <minimizedAffinity>
-4.08406019

>  <minimizedRMSD>
4.40905714

$$$$
