
     RDKit          3D

 31 34  0  0  0  0  0  0  0  0999 V2000
   38.0326   23.4754   34.6213 C   0  0  0  0  0  0  0  0  0  0  0  0
   38.2625   24.5688   33.8067 C   0  0  0  0  0  0  0  0  0  0  0  0
   37.7604   24.1834   32.5890 N   0  0  0  0  0  0  0  0  0  0  0  0
   37.2792   22.9506   32.7146 C   0  0  0  0  0  0  0  0  0  0  0  0
   37.4315   22.4755   33.9694 N   0  0  0  0  0  0  0  0  0  0  0  0
   38.3948   23.4018   36.0259 C   0  0  0  0  0  0  0  0  0  0  0  0
   39.5965   22.8011   36.4231 C   0  0  0  0  0  0  0  0  0  0  0  0
   39.8986   22.7572   37.8025 C   0  0  0  0  0  0  0  0  0  0  0  0
   39.0083   23.2981   38.6563 N   0  0  0  0  0  0  0  0  0  0  0  0
   37.8595   23.8699   38.2474 C   0  0  0  0  0  0  0  0  0  0  0  0
   37.5440   23.9269   36.9383 N   0  0  0  0  0  0  0  0  0  0  0  0
   37.0031   21.1690   34.3941 C   0  0  1  0  0  0  0  0  0  0  0  0
   35.8303   20.9712   35.2489 C   0  0  0  0  0  0  0  0  0  0  0  0
   35.6738   20.7561   33.7667 C   0  0  2  0  0  0  0  0  0  0  0  0
   38.7425   25.5075   34.1172 H   0  0  0  0  0  0  0  0  0  0  0  0
   36.8366   22.4838   31.8314 H   0  0  0  0  0  0  0  0  0  0  0  0
   40.2742   22.3817   35.6811 H   0  0  0  0  0  0  0  0  0  0  0  0
   40.8263   22.2907   38.0760 H   0  0  0  0  0  0  0  0  0  0  0  0
   37.2378   24.2630   39.0274 H   0  0  0  0  0  0  0  0  0  0  0  0
   37.8174   20.4481   34.4689 H   0  0  0  0  0  0  0  0  0  0  0  0
   35.7818   20.0881   35.9040 H   0  0  0  0  0  0  0  0  0  0  0  0
   35.2383   21.8207   35.6797 H   0  0  0  0  0  0  0  0  0  0  0  0
   35.0923   21.4894   33.1971 H   0  0  0  0  0  0  0  0  0  0  0  0
   35.6922   19.3364   33.2731 C   0  0  0  0  0  0  0  0  0  0  0  0
   36.8187   18.5206   33.1687 C   0  0  0  0  0  0  0  0  0  0  0  0
   36.3978   17.3413   32.6885 N   0  0  0  0  0  0  0  0  0  0  0  0
   35.0608   17.4510   32.5121 C   0  0  0  0  0  0  0  0  0  0  0  0
   34.6031   18.6640   32.8630 N   0  0  0  0  0  0  0  0  0  0  0  0
   37.8460   18.7659   33.4194 H   0  0  0  0  0  0  0  0  0  0  0  0
   34.4793   16.6022   32.1218 H   0  0  0  0  0  0  0  0  0  0  0  0
   33.5985   18.9551   32.8035 H   0  0  0  0  0  0  0  0  0  0  0  0
  1  6  1  0
  2  1  2  0
  3  4  2  0
  3  2  1  0
  4  5  1  0
  5 12  1  0
  5  1  1  0
  6  7  2  0
  6 11  1  0
  7  8  1  0
  8  9  2  0
 10  9  1  0
 11 10  2  0
 12 13  1  0
 14 12  1  0
 14 13  1  0
  2 15  1  0
  4 16  1  0
  7 17  1  0
  8 18  1  0
 10 19  1  0
 12 20  1  1
 13 21  1  0
 13 22  1  0
 14 23  1  6
 24 25  2  0
 25 26  1  0
 26 27  2  0
 27 28  1  0
 28 24  1  0
 25 29  1  0
 27 30  1  0
 28 31  1  0
 14 24  1  0
M  ISO  8  15  14  16  14  17  14  18  14  19  14  20  13  21  13  22  13
M  ISO  1  23  13
M  END
>  <DihAtoms>  (1) 
11,13,23,24

>  <DihDeg>  (1) 
-145.25716163963435

$$$$
