
 OpenBabel03262520003D

 32 35  0  0  1  0  0  0  0  0999 V2000
   38.7930   23.5660   32.0290 C   0  0  0  0  0  0  0  0  0  0  0  0
   38.6000   22.2090   31.7750 C   0  0  0  0  0  0  0  0  0  0  0  0
   37.8050   21.7980   32.8100 N   0  0  0  0  0  0  0  0  0  0  0  0
   37.5730   22.8530   33.5850 C   0  0  0  0  0  0  0  0  0  0  0  0
   38.1680   23.9510   33.1270 N   0  0  0  0  0  0  0  0  0  0  0  0
   39.0170   21.6770   30.9320 H   0  0  0  0  0  0  0  0  0  0  0  0
   36.9380   22.6260   34.4530 H   0  0  0  0  0  0  0  0  0  0  0  0
   39.5920   24.4520   31.1950 C   0  0  0  0  0  0  0  0  0  0  0  0
   40.9380   24.7030   31.5370 C   0  0  0  0  0  0  0  0  0  0  0  0
   41.6780   25.5650   30.6990 C   0  0  0  0  0  0  0  0  0  0  0  0
   41.0410   26.0930   29.6210 N   0  0  0  0  0  0  0  0  0  0  0  0
   39.7490   25.8270   29.3280 C   0  0  0  0  0  0  0  0  0  0  0  0
   39.0210   25.0090   30.1080 N   0  0  0  0  0  0  0  0  0  0  0  0
   41.3640   24.2410   32.4120 H   0  0  0  0  0  0  0  0  0  0  0  0
   42.7120   25.7760   30.9350 H   0  0  0  0  0  0  0  0  0  0  0  0
   39.3870   26.3220   28.4390 H   0  0  0  0  0  0  0  0  0  0  0  0
   38.0690   25.2060   33.7710 C   0  0  1  0  0  0  0  0  0  0  0  0
   37.3820   25.4950   34.9990 C   0  0  0  0  0  0  0  0  0  0  0  0
   38.9360   25.3720   34.9740 C   0  0  1  0  0  0  0  0  0  0  0  0
   38.1090   26.0710   33.0180 H   0  0  0  0  0  0  0  0  0  0  0  0
   36.8820   24.6960   35.5620 H   0  0  0  0  0  0  0  0  0  0  0  0
   36.9710   26.4910   35.2350 H   0  0  0  0  0  0  0  0  0  0  0  0
   39.2990   24.3190   35.9920 C   0  0  0  0  0  0  0  0  0  0  0  0
   38.7150   23.8780   37.1640 C   0  0  0  0  0  3  0  0  0  0  0  0
   39.5240   22.9040   37.6250 N   0  0  0  0  0  0  0  0  0  0  0  0
   40.5560   22.7560   36.7720 C   0  0  0  0  0  3  0  0  0  0  0  0
   40.4210   23.6410   35.7450 N   0  0  0  0  0  0  0  0  0  0  0  0
   41.1460   23.6590   34.9830 H   0  0  0  0  0  0  0  0  0  0  0  0
   39.5850   26.7250   35.1790 C   0  0  0  0  0  0  0  0  0  0  0  0
   40.9600   26.5890   35.2010 F   0  0  0  0  0  0  0  0  0  0  0  0
   39.3400   27.5250   33.9870 F   0  0  0  0  0  0  0  0  0  0  0  0
   39.0860   27.4250   36.2090 F   0  0  0  0  0  0  0  0  0  0  0  0
  1  5  1  0  0  0  0
  2  1  2  0  0  0  0
  2  3  1  0  0  0  0
  3  4  2  0  0  0  0
  4  7  1  0  0  0  0
  5  4  1  0  0  0  0
  5 17  1  0  0  0  0
  6  2  1  0  0  0  0
  8  9  1  0  0  0  0
  8  1  1  0  0  0  0
  9 14  1  0  0  0  0
 10 15  1  0  0  0  0
 10  9  2  0  0  0  0
 11 10  1  0  0  0  0
 12 11  2  0  0  0  0
 12 13  1  0  0  0  0
 13  8  2  0  0  0  0
 16 12  1  0  0  0  0
 17 20  1  6  0  0  0
 17 19  1  0  0  0  0
 17 18  1  0  0  0  0
 18 22  1  0  0  0  0
 18 21  1  0  0  0  0
 19 18  1  0  0  0  0
 19 29  1  1  0  0  0
 19 23  1  0  0  0  0
 23 24  2  0  0  0  0
 24 25  1  0  0  0  0
 26 25  2  0  0  0  0
 27 23  1  0  0  0  0
 27 26  1  0  0  0  0
 28 27  1  0  0  0  0
 29 30  1  0  0  0  0
 29 32  1  0  0  0  0
 31 29  1  0  0  0  0
M  END
>  <minimizedAffinity>
-4.21873188

>  <minimizedRMSD>
3.87239456

$$$$
