
 OpenBabel03262517283D

 51 54  0  0  0  0  0  0  0  0999 V2000
   37.8280   26.5910   31.3520 N   0  0  0  0  0  0  0  0  0  0  0  0
   36.6000   27.1270   31.0550 C   0  0  0  0  0  0  0  0  0  0  0  0
   36.8230   28.1280   30.1150 C   0  0  0  0  0  0  0  0  0  0  0  0
   38.1400   28.1850   29.8620 N   0  0  0  0  0  0  0  0  0  0  0  0
   38.7730   27.2400   30.6200 C   0  0  0  0  0  0  0  0  0  0  0  0
   35.7450   26.7380   31.5380 H   0  0  0  0  0  0  0  0  0  0  0  0
   35.9960   28.7090   29.7160 H   0  0  0  0  0  0  0  0  0  0  0  0
   38.7600   24.2900   33.9090 N   0  0  0  0  0  0  0  0  0  0  0  0
   38.8810   23.5780   32.7890 N   0  0  0  0  0  0  0  0  0  0  0  0
   38.5630   24.3120   31.7320 C   0  0  0  0  0  0  0  0  0  0  0  0
   38.2220   25.5640   32.2210 C   0  0  0  0  0  0  0  0  0  0  0  0
   38.3450   25.5570   33.6060 C   0  0  0  0  0  0  0  0  0  0  0  0
   38.6230   23.8400   30.7620 H   0  0  0  0  0  0  0  0  0  0  0  0
   37.9450   23.6310   36.0980 C   0  0  0  0  0  0  0  0  0  0  0  0
   39.0230   23.8070   35.2170 C   0  0  0  0  0  0  0  0  0  0  0  0
   40.3120   23.5170   35.6110 C   0  0  0  0  0  0  0  0  0  0  0  0
   40.4700   23.0570   36.8890 N   0  0  0  0  0  0  0  0  0  0  0  0
   39.4460   22.8870   37.7350 C   0  0  0  0  0  0  0  0  0  0  0  0
   38.1720   23.1750   37.3390 N   0  0  0  0  0  0  0  0  0  0  0  0
   36.9380   23.8490   35.8130 H   0  0  0  0  0  0  0  0  0  0  0  0
   41.1480   23.6510   34.9360 H   0  0  0  0  0  0  0  0  0  0  0  0
   39.6390   22.5160   38.7400 H   0  0  0  0  0  0  0  0  0  0  0  0
   38.0840   26.6480   34.4460 N   0  0  0  0  0  0  0  0  0  0  0  0
   39.0330   27.1290   35.4030 C   0  0  0  0  0  0  0  0  0  0  0  0
   40.2960   27.0860   35.0080 N   0  0  0  0  0  0  0  0  0  0  0  0
   38.5490   27.5980   36.6580 N   0  0  0  0  0  0  0  0  0  0  0  0
   40.9710   27.4520   35.7100 H   0  0  0  0  0  0  0  0  0  0  0  0
   37.1390   27.1290   34.3600 H   0  0  0  0  0  0  0  0  0  0  0  0
   38.7860   28.6200   36.8320 H   0  0  0  0  0  0  0  0  0  0  0  0
   38.0200   27.0110   37.3400 H   0  0  0  0  0  0  0  0  0  0  0  0
   40.2610   27.1580   30.4630 C   0  0  0  0  0  0  0  0  0  0  0  0
   40.6430   26.0570   29.4880 C   0  0  0  0  0  0  0  0  0  0  0  0
   41.1750   25.2180   29.9870 H   0  0  0  0  0  0  0  0  0  0  0  0
   39.6670   25.5810   29.1620 H   0  0  0  0  0  0  0  0  0  0  0  0
   41.1110   26.3690   28.5680 H   0  0  0  0  0  0  0  0  0  0  0  0
   41.0100   26.9020   31.7070 C   0  0  0  0  0  0  0  0  0  0  0  0
   40.8090   27.6760   32.4600 H   0  0  0  0  0  0  0  0  0  0  0  0
   40.7940   25.8730   32.0600 H   0  0  0  0  0  0  0  0  0  0  0  0
   42.0830   26.9040   31.4610 H   0  0  0  0  0  0  0  0  0  0  0  0
   40.6750   28.4670   29.7970 C   0  0  0  0  0  0  0  0  0  0  0  0
   40.4470   28.4280   28.6930 H   0  0  0  0  0  0  0  0  0  0  0  0
   39.9920   29.2990   30.1400 H   0  0  0  0  0  0  0  0  0  0  0  0
   42.0800   28.8220   29.9170 C   0  0  0  0  0  0  0  0  0  0  0  0
   42.8650   29.2830   30.9500 C   0  0  0  0  0  0  0  0  0  0  0  0
   42.3530   29.3860   31.8710 H   0  0  0  0  0  0  0  0  0  0  0  0
   44.2050   29.5660   30.7980 C   0  0  0  0  0  0  0  0  0  0  0  0
   44.8440   29.4040   29.5880 C   0  0  0  0  0  0  0  0  0  0  0  0
   45.8920   29.6650   29.6190 H   0  0  0  0  0  0  0  0  0  0  0  0
   44.0990   28.9460   28.5310 C   0  0  0  0  0  0  0  0  0  0  0  0
   44.6310   28.8300   27.6020 H   0  0  0  0  0  0  0  0  0  0  0  0
   42.7460   28.6610   28.6900 C   0  0  0  0  0  0  0  0  0  0  0  0
  1 11  1  0  0  0  0
  2  1  1  0  0  0  0
  2  6  1  0  0  0  0
  3  2  2  0  0  0  0
  4  3  1  0  0  0  0
  4  5  2  0  0  0  0
  5  1  1  0  0  0  0
  7  3  1  0  0  0  0
  8 15  1  0  0  0  0
  9  8  1  0  0  0  0
 10 11  1  0  0  0  0
 10  9  2  0  0  0  0
 11 12  2  0  0  0  0
 12  8  1  0  0  0  0
 12 23  1  0  0  0  0
 13 10  1  0  0  0  0
 14 19  1  0  0  0  0
 15 16  1  0  0  0  0
 15 14  2  0  0  0  0
 16 17  2  0  0  0  0
 17 18  1  0  0  0  0
 18 22  1  0  0  0  0
 19 18  2  0  0  0  0
 20 14  1  0  0  0  0
 21 16  1  0  0  0  0
 23 24  1  0  0  0  0
 24 26  1  0  0  0  0
 25 24  2  0  0  0  0
 25 27  1  0  0  0  0
 26 29  1  0  0  0  0
 26 30  1  0  0  0  0
 28 23  1  0  0  0  0
 31  5  1  0  0  0  0
 31 36  1  0  0  0  0
 32 33  1  0  0  0  0
 32 31  1  0  0  0  0
 34 32  1  0  0  0  0
 35 32  1  0  0  0  0
 36 38  1  0  0  0  0
 36 37  1  0  0  0  0
 39 36  1  0  0  0  0
 40 43  1  0  0  0  0
 40 42  1  0  0  0  0
 40 31  1  0  0  0  0
 41 40  1  0  0  0  0
 43 44  1  0  0  0  0
 44 45  1  0  0  0  0
 46 44  2  0  0  0  0
 47 48  1  0  0  0  0
 47 46  1  0  0  0  0
 49 51  1  0  0  0  0
 49 47  2  0  0  0  0
 50 49  1  0  0  0  0
 51 43  2  0  0  0  0
M  END
>  <minimizedAffinity>
-4.93121862

>  <minimizedRMSD>
0.487264037

$$$$
