
 OpenBabel03262519153D

 32 35  0  0  0  0  0  0  0  0999 V2000
   39.4620   23.3760   36.2080 C   0  0  0  0  0  0  0  0  0  0  0  0
   39.8120   24.5180   35.4500 C   0  0  0  0  0  0  0  0  0  0  0  0
   41.0820   24.6200   34.9150 C   0  0  0  0  0  0  0  0  0  0  0  0
   41.9280   23.5830   35.1660 N   0  0  0  0  0  0  0  0  0  0  0  0
   41.5650   22.4860   35.9030 C   0  0  0  0  0  0  0  0  0  0  0  0
   40.3460   22.4140   36.4010 N   0  0  0  0  0  0  0  0  0  0  0  0
   38.4400   23.3480   36.6090 H   0  0  0  0  0  0  0  0  0  0  0  0
   41.4550   25.4370   34.3280 H   0  0  0  0  0  0  0  0  0  0  0  0
   38.9200   25.6250   35.1820 C   0  0  0  0  0  0  0  0  0  0  0  0
   38.8090   26.7540   35.9780 C   0  0  0  0  0  0  0  0  0  0  0  0
   37.9180   27.7030   35.5810 C   0  0  0  0  0  0  0  0  0  0  0  0
   37.1890   27.4820   34.4210 C   0  0  0  0  0  0  0  0  0  0  0  0
   37.7940   25.8220   33.8420 S   0  0  0  0  0  0  0  0  0  0  0  0
   39.3880   26.9070   36.8810 H   0  0  0  0  0  0  0  0  0  0  0  0
   37.6830   28.6440   36.0550 H   0  0  0  0  0  0  0  0  0  0  0  0
   36.2080   28.1880   33.6950 C   0  0  0  0  0  0  0  0  0  0  0  0
   35.9450   27.8940   32.5210 O   0  0  0  0  0  0  0  0  0  0  0  0
   35.4780   29.2790   34.3050 N   0  0  0  0  0  0  0  0  0  0  0  0
   35.9990   30.0090   34.8460 H   0  0  0  0  0  0  0  0  0  0  0  0
   34.4320   29.2300   34.1360 H   0  0  0  0  0  0  0  0  0  0  0  0
   42.6050   21.4530   36.0760 C   0  0  0  0  0  0  0  0  0  0  0  0
   43.8830   21.8110   35.7170 C   0  0  0  0  0  0  0  0  0  0  0  0
   44.8620   20.2410   36.0930 S   0  0  0  0  0  0  0  0  0  0  0  0
   43.2650   19.4170   36.6740 C   0  0  0  0  0  0  0  0  0  0  0  0
   42.5040   20.2270   36.5280 N   0  0  0  0  0  0  0  0  0  0  0  0
   44.4510   22.6520   35.3160 H   0  0  0  0  0  0  0  0  0  0  0  0
   43.3640   17.9820   37.1650 C   0  0  0  0  0  0  0  0  0  0  0  0
   42.5330   16.9480   36.8950 C   0  0  0  0  0  0  0  0  0  0  0  0
   43.1080   15.9440   37.5870 N   0  0  0  0  0  0  0  0  0  0  0  0
   44.2080   16.3940   38.2150 C   0  0  0  0  0  0  0  0  0  0  0  0
   44.3910   17.7160   37.9530 N   0  0  0  0  0  0  0  0  0  0  0  0
   45.1680   18.2870   38.3230 H   0  0  0  0  0  0  0  0  0  0  0  0
  1  6  1  0  0  0  0
  1  7  1  0  0  0  0
  2  1  2  0  0  0  0
  3  4  2  0  0  0  0
  3  2  1  0  0  0  0
  4  5  1  0  0  0  0
  5 21  1  0  0  0  0
  5  6  2  0  0  0  0
  8  3  1  0  0  0  0
  9  2  1  0  0  0  0
  9 10  2  0  0  0  0
 10 14  1  0  0  0  0
 11 10  1  0  0  0  0
 11 15  1  0  0  0  0
 12 11  2  0  0  0  0
 13 12  1  0  0  0  0
 13  9  1  0  0  0  0
 16 18  1  0  0  0  0
 16 12  1  0  0  0  0
 17 16  2  0  0  0  0
 18 19  1  0  0  0  0
 20 18  1  0  0  0  0
 21 25  1  0  0  0  0
 22 21  2  0  0  0  0
 22 23  1  0  0  0  0
 23 24  1  0  0  0  0
 24 27  1  0  0  0  0
 25 24  2  0  0  0  0
 26 22  1  0  0  0  0
 27 31  1  0  0  0  0
 28 27  2  0  0  0  0
 28 29  1  0  0  0  0
 29 30  2  0  0  0  0
 31 30  1  0  0  0  0
 31 32  1  0  0  0  0
M  END
>  <minimizedAffinity>
-4.70188236

>  <minimizedRMSD>
1.41251624

$$$$
