
 OpenBabel03262519573D

 29 32  0  0  1  0  0  0  0  0999 V2000
   37.9280   23.4170   34.1720 C   0  0  0  0  0  0  0  0  0  0  0  0
   38.0500   24.5820   33.4370 C   0  0  0  0  0  0  0  0  0  0  0  0
   37.4290   24.2880   32.2490 N   0  0  0  0  0  0  0  0  0  0  0  0
   36.9870   23.0360   32.3150 C   0  0  0  0  0  0  0  0  0  0  0  0
   37.2800   22.4610   33.5000 N   0  0  0  0  0  0  0  0  0  0  0  0
   38.5410   25.5050   33.7770 H   0  0  0  0  0  0  0  0  0  0  0  0
   36.4630   22.6340   31.4440 H   0  0  0  0  0  0  0  0  0  0  0  0
   38.4370   23.2350   35.5200 C   0  0  0  0  0  0  0  0  0  0  0  0
   39.6940   22.6550   35.7350 C   0  0  0  0  0  0  0  0  0  0  0  0
   40.1410   22.5010   37.0670 C   0  0  0  0  0  0  0  0  0  0  0  0
   39.3260   22.9230   38.0530 N   0  0  0  0  0  0  0  0  0  0  0  0
   38.1200   23.4770   37.8180 C   0  0  0  0  0  0  0  0  0  0  0  0
   37.6680   23.6370   36.5580 N   0  0  0  0  0  0  0  0  0  0  0  0
   40.3050   22.3360   34.8930 H   0  0  0  0  0  0  0  0  0  0  0  0
   41.1080   22.0550   37.2000 H   0  0  0  0  0  0  0  0  0  0  0  0
   37.5710   23.7700   38.6900 H   0  0  0  0  0  0  0  0  0  0  0  0
   36.9240   21.1110   33.8510 C   0  0  1  0  0  0  0  0  0  0  0  0
   35.7600   20.8010   34.6850 C   0  0  0  0  0  0  0  0  0  0  0  0
   35.6230   20.6590   33.1930 C   0  0  2  0  0  0  0  0  0  0  0  0
   37.7770   20.4330   33.8930 H   0  0  0  0  0  0  0  0  0  0  0  0
   35.7590   19.8830   35.2910 H   0  0  0  0  0  0  0  0  0  0  0  0
   35.1200   21.5920   35.1570 H   0  0  0  0  0  0  0  0  0  0  0  0
   35.0030   21.3880   32.6590 H   0  0  0  0  0  0  0  0  0  0  0  0
   35.7230   19.2710   32.6230 C   0  0  0  0  0  0  0  0  0  0  0  0
   36.4930   18.8920   31.5230 C   0  0  0  0  0  3  0  0  0  0  0  0
   36.2970   17.5760   31.3510 N   0  0  0  0  0  0  0  0  0  0  0  0
   35.4380   17.1830   32.3200 C   0  0  0  0  0  3  0  0  0  0  0  0
   35.0700   18.2030   33.1130 N   0  0  0  0  0  0  0  0  0  0  0  0
   34.4110   18.1130   33.9220 H   0  0  0  0  0  0  0  0  0  0  0  0
  1  8  1  0  0  0  0
  2  6  1  0  0  0  0
  2  1  2  0  0  0  0
  3  4  2  0  0  0  0
  3  2  1  0  0  0  0
  4  5  1  0  0  0  0
  5 17  1  0  0  0  0
  5  1  1  0  0  0  0
  7  4  1  0  0  0  0
  8  9  2  0  0  0  0
  8 13  1  0  0  0  0
  9 10  1  0  0  0  0
 10 15  1  0  0  0  0
 10 11  2  0  0  0  0
 12 11  1  0  0  0  0
 12 16  1  0  0  0  0
 13 12  2  0  0  0  0
 14  9  1  0  0  0  0
 17 20  1  1  0  0  0
 17 18  1  0  0  0  0
 18 22  1  0  0  0  0
 18 21  1  0  0  0  0
 19 23  1  6  0  0  0
 19 17  1  0  0  0  0
 19 18  1  0  0  0  0
 24 28  1  0  0  0  0
 24 19  1  0  0  0  0
 25 24  2  0  0  0  0
 26 25  1  0  0  0  0
 26 27  2  0  0  0  0
 27 28  1  0  0  0  0
 28 29  1  0  0  0  0
M  END
>  <minimizedAffinity>
-4.75809383

>  <minimizedRMSD>
0.754476845

$$$$
