
 OpenBabel03262519483D

 38 41  0  0  1  0  0  0  0  0999 V2000
   37.2150   26.1300   32.4550 N   0  0  0  0  0  0  0  0  0  0  0  0
   36.3740   25.1100   32.2740 C   0  0  0  0  0  0  0  0  0  0  0  0
   35.4990   25.2870   31.2230 C   0  0  0  0  0  0  0  0  0  0  0  0
   35.8210   26.4850   30.7300 N   0  0  0  0  0  0  0  0  0  0  0  0
   36.8440   26.9830   31.4670 C   0  0  0  0  0  0  0  0  0  0  0  0
   36.3970   24.2180   32.9200 H   0  0  0  0  0  0  0  0  0  0  0  0
   34.7410   24.5470   30.9360 H   0  0  0  0  0  0  0  0  0  0  0  0
   37.4140   28.3200   31.0980 C   0  0  1  0  0  0  0  0  0  0  0  0
   36.5930   29.2440   30.2860 C   0  0  0  0  0  0  0  0  0  0  0  0
   36.7800   29.5470   31.7350 C   0  0  1  0  0  0  0  0  0  0  0  0
   38.5090   28.3110   30.9910 H   0  0  0  0  0  0  0  0  0  0  0  0
   35.5400   28.9320   30.0400 H   0  0  0  0  0  0  0  0  0  0  0  0
   37.0650   29.9200   29.5260 H   0  0  0  0  0  0  0  0  0  0  0  0
   37.5850   30.3190   31.9360 H   0  0  0  0  0  0  0  0  0  0  0  0
   35.6860   29.4200   32.7080 C   0  0  0  0  0  0  0  0  0  0  0  0
   35.5770   29.2200   34.0690 C   0  0  0  0  0  0  0  0  0  0  0  0
   34.2820   29.1920   34.4470 N   0  0  0  0  0  0  0  0  0  0  0  0
   33.5530   29.3740   33.3340 C   0  0  0  0  0  0  0  0  0  0  0  0
   34.3800   29.5070   32.3140 N   0  0  0  0  0  0  0  0  0  0  0  0
   34.0160   29.6590   31.3460 H   0  0  0  0  0  0  0  0  0  0  0  0
   38.2520   26.4130   33.3680 C   0  0  0  0  0  0  0  0  0  0  0  0
   39.1040   25.7080   33.1970 H   0  0  0  0  0  0  0  0  0  0  0  0
   38.6740   27.4230   33.1790 H   0  0  0  0  0  0  0  0  0  0  0  0
   37.8450   26.2770   34.7870 C   0  0  1  0  0  0  0  0  0  0  0  0
   36.7290   26.3090   34.8580 H   0  0  0  0  0  0  0  0  0  0  0  0
   38.2940   23.3930   37.1980 C   0  0  0  0  0  0  0  0  0  0  0  0
   37.8630   24.6410   36.7210 C   0  0  0  0  0  0  0  0  0  0  0  0
   38.2630   24.9860   35.3890 C   0  0  0  0  0  0  0  0  0  0  0  0
   39.0320   24.1010   34.6530 N   0  0  0  0  0  0  0  0  0  0  0  0
   39.4120   22.9320   35.1530 C   0  0  0  0  0  0  0  0  0  0  0  0
   39.0390   22.5720   36.4410 N   0  0  0  0  0  0  0  0  0  0  0  0
   37.9890   23.1440   38.2020 H   0  0  0  0  0  0  0  0  0  0  0  0
   37.2650   25.3460   37.2740 H   0  0  0  0  0  0  0  0  0  0  0  0
   40.0110   22.2850   34.5270 H   0  0  0  0  0  0  0  0  0  0  0  0
   38.4120   27.4370   35.6040 C   0  0  0  0  0  0  0  0  0  0  0  0
   37.8490   27.4750   36.5530 H   0  0  0  0  0  0  0  0  0  0  0  0
   39.4490   27.1070   35.9070 H   0  0  0  0  0  0  0  0  0  0  0  0
   38.4380   28.3790   35.0560 H   0  0  0  0  0  0  0  0  0  0  0  0
  1 21  1  0  0  0  0
  2  1  1  0  0  0  0
  2  6  1  0  0  0  0
  3  2  2  0  0  0  0
  4  3  1  0  0  0  0
  4  5  2  0  0  0  0
  5  1  1  0  0  0  0
  7  3  1  0  0  0  0
  8 11  1  6  0  0  0
  8  5  1  0  0  0  0
  8 10  1  0  0  0  0
  9  8  1  0  0  0  0
  9 10  1  0  0  0  0
 10 14  1  1  0  0  0
 10 15  1  0  0  0  0
 12  9  1  0  0  0  0
 13  9  1  0  0  0  0
 15 16  2  0  0  0  0
 16 17  1  0  0  0  0
 18 17  2  0  0  0  0
 19 15  1  0  0  0  0
 19 18  1  0  0  0  0
 20 19  1  0  0  0  0
 21 24  1  0  0  0  0
 22 21  1  0  0  0  0
 23 21  1  0  0  0  0
 24 25  1  1  0  0  0
 24 28  1  0  0  0  0
 24 35  1  0  0  0  0
 26 32  1  0  0  0  0
 27 26  1  0  0  0  0
 27 33  1  0  0  0  0
 28 27  2  0  0  0  0
 29 30  2  0  0  0  0
 29 28  1  0  0  0  0
 30 31  1  0  0  0  0
 31 26  2  0  0  0  0
 34 30  1  0  0  0  0
 35 37  1  0  0  0  0
 35 36  1  0  0  0  0
 38 35  1  0  0  0  0
M  END
>  <minimizedAffinity>
-4.7607646

>  <minimizedRMSD>
1.74503171

$$$$
