
 OpenBabel03262519173D

 34 37  0  0  0  0  0  0  0  0999 V2000
   36.4440   22.0040   31.8900 C   0  0  0  0  0  0  0  0  0  0  0  0
   37.6630   22.5780   32.3370 C   0  0  0  0  0  0  0  0  0  0  0  0
   38.8850   22.0290   31.9870 C   0  0  0  0  0  0  0  0  0  0  0  0
   38.7990   20.9180   31.1960 N   0  0  0  0  0  0  0  0  0  0  0  0
   37.6340   20.3670   30.7670 C   0  0  0  0  0  0  0  0  0  0  0  0
   36.4790   20.9240   31.1260 N   0  0  0  0  0  0  0  0  0  0  0  0
   35.5340   22.5060   32.2170 H   0  0  0  0  0  0  0  0  0  0  0  0
   39.8230   22.4180   32.2930 H   0  0  0  0  0  0  0  0  0  0  0  0
   37.7360   19.1770   29.9100 C   0  0  0  0  0  0  0  0  0  0  0  0
   38.9720   18.8820   29.4430 C   0  0  0  0  0  0  0  0  0  0  0  0
   38.6960   17.3450   28.4020 S   0  0  0  0  0  0  0  0  0  0  0  0
   36.8250   17.4250   28.8480 C   0  0  0  0  0  0  0  0  0  0  0  0
   36.8370   18.3380   29.4970 N   0  0  0  0  0  0  0  0  0  0  0  0
   35.8490   16.4970   28.3820 N   0  0  0  0  0  0  0  0  0  0  0  0
   40.0500   19.2460   29.4790 H   0  0  0  0  0  0  0  0  0  0  0  0
   35.0150   16.9750   27.9680 H   0  0  0  0  0  0  0  0  0  0  0  0
   35.9800   15.4560   28.4590 H   0  0  0  0  0  0  0  0  0  0  0  0
   37.7300   23.7510   33.1930 C   0  0  0  0  0  0  0  0  0  0  0  0
   37.3550   25.0370   32.8060 C   0  0  0  0  0  0  0  0  0  0  0  0
   37.4910   26.0330   33.7140 C   0  0  0  0  0  0  0  0  0  0  0  0
   37.9880   25.7020   34.9490 C   0  0  0  0  0  0  0  0  0  0  0  0
   38.2950   23.8550   34.8520 S   0  0  0  0  0  0  0  0  0  0  0  0
   36.9910   25.0560   31.7710 H   0  0  0  0  0  0  0  0  0  0  0  0
   37.0260   27.3280   33.2490 C   0  0  0  0  0  0  0  0  0  0  0  0
   37.1850   28.0350   32.0960 C   0  0  0  0  0  0  0  0  0  0  0  0
   36.4870   29.1800   32.0520 N   0  0  0  0  0  0  0  0  0  0  0  0
   35.8100   29.2800   33.2170 C   0  0  0  0  0  0  0  0  0  0  0  0
   36.1570   28.1760   33.8820 N   0  0  0  0  0  0  0  0  0  0  0  0
   35.7360   28.0470   34.8370 H   0  0  0  0  0  0  0  0  0  0  0  0
   38.2520   26.3940   36.1520 C   0  0  0  0  0  0  0  0  0  0  0  0
   38.1350   25.8690   37.2510 O   0  0  0  0  0  0  0  0  0  0  0  0
   38.6640   27.7240   36.2140 N   0  0  0  0  0  0  0  0  0  0  0  0
   37.8370   28.3560   36.1830 H   0  0  0  0  0  0  0  0  0  0  0  0
   39.6700   28.0140   36.2840 H   0  0  0  0  0  0  0  0  0  0  0  0
  1  7  1  0  0  0  0
  1  2  1  0  0  0  0
  2 18  1  0  0  0  0
  3  8  1  0  0  0  0
  3  2  2  0  0  0  0
  4  3  1  0  0  0  0
  5  6  1  0  0  0  0
  5  4  2  0  0  0  0
  6  1  2  0  0  0  0
  9  5  1  0  0  0  0
 10 15  1  0  0  0  0
 10  9  2  0  0  0  0
 11 12  1  0  0  0  0
 11 10  1  0  0  0  0
 12 13  2  0  0  0  0
 13  9  1  0  0  0  0
 14 17  1  0  0  0  0
 14 12  1  0  0  0  0
 16 14  1  0  0  0  0
 18 22  1  0  0  0  0
 19 18  2  0  0  0  0
 19 20  1  0  0  0  0
 20 21  2  0  0  0  0
 21 30  1  0  0  0  0
 22 21  1  0  0  0  0
 23 19  1  0  0  0  0
 24 20  1  0  0  0  0
 24 28  1  0  0  0  0
 25 24  2  0  0  0  0
 26 25  1  0  0  0  0
 26 27  2  0  0  0  0
 27 28  1  0  0  0  0
 28 29  1  0  0  0  0
 30 32  1  0  0  0  0
 30 31  2  0  0  0  0
 32 34  1  0  0  0  0
 33 32  1  0  0  0  0
M  END
>  <minimizedAffinity>
-4.8326664

>  <minimizedRMSD>
6.29713964

$$$$
