
 OpenBabel03262519563D

 29 32  0  0  1  0  0  0  0  0999 V2000
   38.0820   23.7410   34.4720 C   0  0  0  0  0  0  0  0  0  0  0  0
   38.2620   24.9340   33.7960 C   0  0  0  0  0  0  0  0  0  0  0  0
   37.8030   24.6660   32.5300 N   0  0  0  0  0  0  0  0  0  0  0  0
   37.3920   23.4020   32.5010 C   0  0  0  0  0  0  0  0  0  0  0  0
   37.5510   22.7930   33.6950 N   0  0  0  0  0  0  0  0  0  0  0  0
   38.6800   25.8560   34.2240 H   0  0  0  0  0  0  0  0  0  0  0  0
   36.9930   23.0180   31.5590 H   0  0  0  0  0  0  0  0  0  0  0  0
   38.4240   23.5250   35.8670 C   0  0  0  0  0  0  0  0  0  0  0  0
   39.6450   22.9350   36.2200 C   0  0  0  0  0  0  0  0  0  0  0  0
   39.9270   22.7480   37.5920 C   0  0  0  0  0  0  0  0  0  0  0  0
   38.9980   23.1490   38.4810 N   0  0  0  0  0  0  0  0  0  0  0  0
   37.8310   23.7130   38.1150 C   0  0  0  0  0  0  0  0  0  0  0  0
   37.5350   23.9050   36.8140 N   0  0  0  0  0  0  0  0  0  0  0  0
   40.3530   22.6330   35.4500 H   0  0  0  0  0  0  0  0  0  0  0  0
   40.8700   22.2940   37.8300 H   0  0  0  0  0  0  0  0  0  0  0  0
   37.1800   23.9870   38.9210 H   0  0  0  0  0  0  0  0  0  0  0  0
   37.1930   21.4240   33.9550 C   0  0  1  0  0  0  0  0  0  0  0  0
   36.0040   21.0610   34.7310 C   0  0  0  0  0  0  0  0  0  0  0  0
   35.9170   21.0040   33.2290 C   0  0  2  0  0  0  0  0  0  0  0  0
   38.0480   20.7490   33.9870 H   0  0  0  0  0  0  0  0  0  0  0  0
   35.9890   20.1090   35.2830 H   0  0  0  0  0  0  0  0  0  0  0  0
   35.3430   21.8210   35.2260 H   0  0  0  0  0  0  0  0  0  0  0  0
   35.3110   21.7600   32.7170 H   0  0  0  0  0  0  0  0  0  0  0  0
   36.0450   19.6520   32.5840 C   0  0  0  0  0  0  0  0  0  0  0  0
   35.2920   18.5210   32.8970 C   0  0  0  0  0  3  0  0  0  0  0  0
   35.7220   17.5370   32.0950 N   0  0  0  0  0  0  0  0  0  0  0  0
   36.7020   18.0640   31.3270 C   0  0  0  0  0  3  0  0  0  0  0  0
   36.9210   19.3610   31.6070 N   0  0  0  0  0  0  0  0  0  0  0  0
   37.6360   19.9550   31.1260 H   0  0  0  0  0  0  0  0  0  0  0  0
  1  8  1  0  0  0  0
  2  6  1  0  0  0  0
  2  1  2  0  0  0  0
  3  2  1  0  0  0  0
  4  3  2  0  0  0  0
  4  5  1  0  0  0  0
  5 17  1  0  0  0  0
  5  1  1  0  0  0  0
  7  4  1  0  0  0  0
  8  9  2  0  0  0  0
  8 13  1  0  0  0  0
  9 10  1  0  0  0  0
 10 15  1  0  0  0  0
 10 11  2  0  0  0  0
 12 11  1  0  0  0  0
 12 16  1  0  0  0  0
 13 12  2  0  0  0  0
 14  9  1  0  0  0  0
 17 20  1  6  0  0  0
 17 18  1  0  0  0  0
 18 22  1  0  0  0  0
 18 21  1  0  0  0  0
 19 23  1  6  0  0  0
 19 17  1  0  0  0  0
 19 18  1  0  0  0  0
 24 25  2  0  0  0  0
 24 19  1  0  0  0  0
 26 25  1  0  0  0  0
 27 28  1  0  0  0  0
 27 26  2  0  0  0  0
 28 24  1  0  0  0  0
 29 28  1  0  0  0  0
M  END
>  <minimizedAffinity>
-4.59678125

>  <minimizedRMSD>
0.614969134

$$$$
