
 OpenBabel03262519263D

 42 47  0  0  0  0  0  0  0  0999 V2000
   38.9850   23.6980   32.4150 C   0  0  0  0  0  0  0  0  0  0  0  0
   39.6840   22.5200   32.6530 C   0  0  0  0  0  0  0  0  0  0  0  0
   39.0870   21.2630   32.5410 C   0  0  0  0  0  0  0  0  0  0  0  0
   37.7480   21.1670   32.1810 C   0  0  0  0  0  0  0  0  0  0  0  0
   37.0330   22.3160   31.9390 C   0  0  0  0  0  0  0  0  0  0  0  0
   35.7230   22.2380   31.5640 C   0  0  0  0  0  0  0  0  0  0  0  0
   34.9630   23.3430   31.2880 C   0  0  0  0  0  0  0  0  0  0  0  0
   35.5890   24.5800   31.4040 C   0  0  0  0  0  0  0  0  0  0  0  0
   36.9210   24.6420   31.7870 C   0  0  0  0  0  0  0  0  0  0  0  0
   37.6700   23.5440   32.0620 C   0  0  0  0  0  0  0  0  0  0  0  0
   40.7230   22.6210   32.9310 H   0  0  0  0  0  0  0  0  0  0  0  0
   39.6330   20.3580   32.7260 H   0  0  0  0  0  0  0  0  0  0  0  0
   37.2970   20.1950   32.0980 H   0  0  0  0  0  0  0  0  0  0  0  0
   35.3030   21.2460   31.4960 H   0  0  0  0  0  0  0  0  0  0  0  0
   33.9300   23.1420   31.0000 H   0  0  0  0  0  0  0  0  0  0  0  0
   34.8770   25.3640   31.1570 H   0  0  0  0  0  0  0  0  0  0  0  0
   39.6390   24.9690   32.5460 C   0  0  0  0  0  0  0  0  0  0  0  0
   39.7060   25.6620   33.7690 C   0  0  0  0  0  0  0  0  0  0  0  0
   40.3710   26.8940   33.7840 C   0  0  0  0  0  0  0  0  0  0  0  0
   40.9250   27.3720   32.6280 N   0  0  0  0  0  0  0  0  0  0  0  0
   40.8450   26.6790   31.4730 C   0  0  0  0  0  0  0  0  0  0  0  0
   40.2210   25.5200   31.4540 N   0  0  0  0  0  0  0  0  0  0  0  0
   40.4570   27.4790   34.6950 H   0  0  0  0  0  0  0  0  0  0  0  0
   41.2730   27.0280   30.5430 H   0  0  0  0  0  0  0  0  0  0  0  0
   39.1400   25.1240   34.9090 N   0  0  0  0  0  0  0  0  0  0  0  0
   37.9120   25.3720   35.3890 C   0  0  0  0  0  0  0  0  0  0  0  0
   37.6600   24.6850   36.5190 N   0  0  0  0  0  0  0  0  0  0  0  0
   38.7830   23.9620   36.7770 C   0  0  0  0  0  0  0  0  0  0  0  0
   39.1410   23.0850   37.7640 C   0  0  0  0  0  0  0  0  0  0  0  0
   40.3400   22.4670   37.8230 N   0  0  0  0  0  0  0  0  0  0  0  0
   41.2080   22.7700   36.8130 C   0  0  0  0  0  0  0  0  0  0  0  0
   40.8480   23.6230   35.8610 N   0  0  0  0  0  0  0  0  0  0  0  0
   39.6880   24.2490   35.7660 C   0  0  0  0  0  0  0  0  0  0  0  0
   37.0840   25.9900   35.0760 H   0  0  0  0  0  0  0  0  0  0  0  0
   38.3980   22.8970   38.5280 H   0  0  0  0  0  0  0  0  0  0  0  0
   42.2170   22.3640   36.7040 H   0  0  0  0  0  0  0  0  0  0  0  0
   37.2430   26.0540   31.7190 C   0  0  0  0  0  0  0  0  0  0  0  0
   37.2650   27.2280   32.4260 C   0  0  0  0  0  0  0  0  0  0  0  0
   37.5880   28.3010   31.7050 N   0  0  0  0  0  0  0  0  0  0  0  0
   37.8120   27.9310   30.4360 C   0  0  0  0  0  0  0  0  0  0  0  0
   37.5970   26.5920   30.4820 N   0  0  0  0  0  0  0  0  0  0  0  0
   37.7170   26.0520   29.5640 H   0  0  0  0  0  0  0  0  0  0  0  0
  1 17  1  0  0  0  0
  1  2  1  0  0  0  0
  2 11  1  0  0  0  0
  3  2  2  0  0  0  0
  3 12  1  0  0  0  0
  4  3  1  0  0  0  0
  5 10  1  0  0  0  0
  5  4  2  0  0  0  0
  6  5  1  0  0  0  0
  7  8  1  0  0  0  0
  7  6  2  0  0  0  0
  8  9  2  0  0  0  0
  9 10  1  0  0  0  0
 10  1  2  0  0  0  0
 13  4  1  0  0  0  0
 14  6  1  0  0  0  0
 15  7  1  0  0  0  0
 16  8  1  0  0  0  0
 17 18  1  0  0  0  0
 18 19  2  0  0  0  0
 18 25  1  0  0  0  0
 19 23  1  0  0  0  0
 20 19  1  0  0  0  0
 21 20  2  0  0  0  0
 22 21  1  0  0  0  0
 22 17  2  0  0  0  0
 24 21  1  0  0  0  0
 25 26  1  0  0  0  0
 25 33  1  0  0  0  0
 26 27  2  0  0  0  0
 27 28  1  0  0  0  0
 28 29  1  0  0  0  0
 29 30  2  0  0  0  0
 29 35  1  0  0  0  0
 31 30  1  0  0  0  0
 32 31  2  0  0  0  0
 33 32  1  0  0  0  0
 33 28  2  0  0  0  0
 34 26  1  0  0  0  0
 36 31  1  0  0  0  0
 37  9  1  0  0  0  0
 37 38  2  0  0  0  0
 39 38  1  0  0  0  0
 40 41  1  0  0  0  0
 40 39  2  0  0  0  0
 41 37  1  0  0  0  0
 42 41  1  0  0  0  0
M  END
>  <minimizedAffinity>
-6.06533051

>  <minimizedRMSD>
1.05822968

$$$$
