
 OpenBabel03262519413D

 38 41  0  0  1  0  0  0  0  0999 V2000
   37.5930   25.5100   34.6120 N   0  0  0  0  0  0  0  0  0  0  0  0
   37.1320   25.8110   33.2740 C   0  0  0  0  0  0  0  0  0  0  0  0
   37.1650   27.2980   33.1640 C   0  0  0  0  0  0  0  0  0  0  0  0
   37.7030   27.7600   34.5070 C   0  0  0  0  0  0  0  0  0  0  0  0
   38.5690   26.5160   34.8730 C   0  0  2  0  0  0  0  0  0  0  0  0
   37.7460   25.2940   32.5080 H   0  0  0  0  0  0  0  0  0  0  0  0
   36.0950   25.4070   33.1530 H   0  0  0  0  0  0  0  0  0  0  0  0
   37.8650   27.6710   32.3840 H   0  0  0  0  0  0  0  0  0  0  0  0
   36.1600   27.7500   33.0190 H   0  0  0  0  0  0  0  0  0  0  0  0
   36.9280   27.8900   35.2670 H   0  0  0  0  0  0  0  0  0  0  0  0
   38.3570   28.6540   34.3960 H   0  0  0  0  0  0  0  0  0  0  0  0
   38.8210   26.6360   35.9510 H   0  0  0  0  0  0  0  0  0  0  0  0
   38.2580   24.2390   34.6700 C   0  0  0  0  0  0  0  0  0  0  0  0
   37.7140   23.4260   34.1440 H   0  0  0  0  0  0  0  0  0  0  0  0
   39.2470   24.3100   34.1700 H   0  0  0  0  0  0  0  0  0  0  0  0
   37.9360   23.6710   38.4050 C   0  0  0  0  0  0  0  0  0  0  0  0
   37.6080   24.0710   37.1110 C   0  0  0  0  0  0  0  0  0  0  0  0
   38.5460   23.8340   36.0850 C   0  0  0  0  0  0  0  0  0  0  0  0
   39.7190   23.2260   36.4300 N   0  0  0  0  0  0  0  0  0  0  0  0
   39.9780   22.8630   37.7020 C   0  0  0  0  0  0  0  0  0  0  0  0
   39.0850   23.0900   38.6700 N   0  0  0  0  0  0  0  0  0  0  0  0
   37.1300   23.9120   39.0910 H   0  0  0  0  0  0  0  0  0  0  0  0
   36.7040   24.5470   36.8100 H   0  0  0  0  0  0  0  0  0  0  0  0
   40.9190   22.3770   37.9700 H   0  0  0  0  0  0  0  0  0  0  0  0
   39.6690   26.4200   34.0770 O   0  0  0  0  0  0  0  0  0  0  0  0
   40.8720   26.5030   34.7200 C   0  0  2  0  0  0  0  0  0  0  0  0
   42.0130   27.0360   33.9010 C   0  0  0  0  0  0  0  0  0  0  0  0
   42.0080   25.6010   34.3550 C   0  0  1  0  0  0  0  0  0  0  0  0
   40.8080   26.6260   35.8070 H   0  0  0  0  0  0  0  0  0  0  0  0
   41.8650   27.1400   32.7910 H   0  0  0  0  0  0  0  0  0  0  0  0
   42.7130   27.7690   34.3500 H   0  0  0  0  0  0  0  0  0  0  0  0
   41.8100   24.7940   33.6450 H   0  0  0  0  0  0  0  0  0  0  0  0
   43.0490   25.3230   35.3650 C   0  0  0  0  0  0  0  0  0  0  0  0
   43.2140   24.1200   36.0580 C   0  0  0  0  0  0  0  0  0  0  0  0
   44.2650   24.2280   36.8980 N   0  0  0  0  0  0  0  0  0  0  0  0
   44.7840   25.4760   36.7640 C   0  0  0  0  0  0  0  0  0  0  0  0
   44.0260   26.1180   35.8280 N   0  0  0  0  0  0  0  0  0  0  0  0
   44.1060   27.0890   35.4490 H   0  0  0  0  0  0  0  0  0  0  0  0
  1 13  1  0  0  0  0
  1  5  1  0  0  0  0
  2  1  1  0  0  0  0
  3  2  1  0  0  0  0
  3  4  1  0  0  0  0
  4  5  1  0  0  0  0
  4 10  1  0  0  0  0
  5 12  1  1  0  0  0
  6  2  1  0  0  0  0
  7  2  1  0  0  0  0
  8  3  1  0  0  0  0
  9  3  1  0  0  0  0
 11  4  1  0  0  0  0
 13 18  1  0  0  0  0
 14 13  1  0  0  0  0
 15 13  1  0  0  0  0
 16 21  1  0  0  0  0
 16 22  1  0  0  0  0
 17 16  2  0  0  0  0
 18 19  2  0  0  0  0
 18 17  1  0  0  0  0
 19 20  1  0  0  0  0
 20 24  1  0  0  0  0
 20 21  2  0  0  0  0
 23 17  1  0  0  0  0
 25 26  1  0  0  0  0
 25  5  1  0  0  0  0
 26 29  1  1  0  0  0
 27 31  1  0  0  0  0
 27 28  1  0  0  0  0
 27 26  1  0  0  0  0
 28 32  1  6  0  0  0
 28 26  1  0  0  0  0
 28 33  1  0  0  0  0
 30 27  1  0  0  0  0
 33 37  1  0  0  0  0
 33 34  2  0  0  0  0
 34 35  1  0  0  0  0
 36 35  2  0  0  0  0
 37 36  1  0  0  0  0
 38 37  1  0  0  0  0
M  END
>  <minimizedAffinity>
-4.89438581

>  <minimizedRMSD>
1.08745515

$$$$
