
 OpenBabel03262519293D

 30 33  0  0  0  0  0  0  0  0999 V2000
   40.5650   21.9630   37.3020 O   0  0  0  0  0  0  0  0  0  0  0  0
   41.8390   22.0930   36.7920 C   0  0  0  0  0  0  0  0  0  0  0  0
   42.3860   23.2290   36.2210 C   0  0  0  0  0  0  0  0  0  0  0  0
   43.6420   23.0090   35.8310 N   0  0  0  0  0  0  0  0  0  0  0  0
   43.9930   21.7270   36.1180 C   0  0  0  0  0  0  0  0  0  0  0  0
   45.1450   21.0070   35.9290 C   0  0  0  0  0  0  0  0  0  0  0  0
   45.1960   19.6760   36.3420 C   0  0  0  0  0  0  0  0  0  0  0  0
   44.0780   19.0960   36.9420 C   0  0  0  0  0  0  0  0  0  0  0  0
   42.9270   19.8520   37.1200 C   0  0  0  0  0  0  0  0  0  0  0  0
   42.8830   21.1710   36.7070 C   0  0  0  0  0  0  0  0  0  0  0  0
   41.8690   24.1720   36.1050 H   0  0  0  0  0  0  0  0  0  0  0  0
   44.2940   23.6840   35.3720 H   0  0  0  0  0  0  0  0  0  0  0  0
   46.0220   21.4460   35.4640 H   0  0  0  0  0  0  0  0  0  0  0  0
   46.0710   19.0490   36.2240 H   0  0  0  0  0  0  0  0  0  0  0  0
   44.0170   18.0750   37.2960 H   0  0  0  0  0  0  0  0  0  0  0  0
   42.0390   19.4270   37.5850 H   0  0  0  0  0  0  0  0  0  0  0  0
   39.6020   22.9230   37.2820 C   0  0  0  0  0  0  0  0  0  0  0  0
   39.0210   23.2330   38.5240 C   0  0  0  0  0  0  0  0  0  0  0  0
   38.0260   24.2140   38.5580 C   0  0  0  0  0  0  0  0  0  0  0  0
   37.6720   24.8150   37.3880 N   0  0  0  0  0  0  0  0  0  0  0  0
   38.2630   24.4800   36.2190 C   0  0  0  0  0  0  0  0  0  0  0  0
   39.2070   23.5550   36.1560 N   0  0  0  0  0  0  0  0  0  0  0  0
   39.3290   22.7360   39.4150 H   0  0  0  0  0  0  0  0  0  0  0  0
   37.5510   24.4820   39.4970 H   0  0  0  0  0  0  0  0  0  0  0  0
   37.8310   25.1690   35.0080 C   0  0  0  0  0  0  0  0  0  0  0  0
   37.3350   26.4460   34.8700 C   0  0  0  0  0  0  0  0  0  0  0  0
   37.0430   26.7350   33.5890 N   0  0  0  0  0  0  0  0  0  0  0  0
   37.3520   25.6340   32.8760 C   0  0  0  0  0  0  0  0  0  0  0  0
   37.8260   24.6980   33.7470 N   0  0  0  0  0  0  0  0  0  0  0  0
   38.1420   23.7350   33.4450 H   0  0  0  0  0  0  0  0  0  0  0  0
  2  1  1  0  0  0  0
  3  2  2  0  0  0  0
  4  5  1  0  0  0  0
  4  3  1  0  0  0  0
  5 10  1  0  0  0  0
  6  5  2  0  0  0  0
  6  7  1  0  0  0  0
  7  8  2  0  0  0  0
  8  9  1  0  0  0  0
  8 15  1  0  0  0  0
  9 16  1  0  0  0  0
 10  2  1  0  0  0  0
 10  9  2  0  0  0  0
 11  3  1  0  0  0  0
 12  4  1  0  0  0  0
 13  6  1  0  0  0  0
 14  7  1  0  0  0  0
 17  1  1  0  0  0  0
 17 18  1  0  0  0  0
 18 19  2  0  0  0  0
 18 23  1  0  0  0  0
 19 24  1  0  0  0  0
 20 19  1  0  0  0  0
 21 20  2  0  0  0  0
 22 21  1  0  0  0  0
 22 17  2  0  0  0  0
 25 21  1  0  0  0  0
 26 25  2  0  0  0  0
 27 26  1  0  0  0  0
 28 27  2  0  0  0  0
 28 29  1  0  0  0  0
 29 25  1  0  0  0  0
 30 29  1  0  0  0  0
M  END
>  <minimizedAffinity>
-5.03798676

>  <minimizedRMSD>
1.12768579

$$$$
