REMARK  Name = 
REMARK  3 active torsions:
REMARK  status: ('A' for Active; 'I' for Inactive)
REMARK    1  A    between atoms: C_1  and  C_6
REMARK    2  A    between atoms: N_5  and  C_12
REMARK    3  A    between atoms: C_14  and  C_24
REMARK                            x       y       z     vdW  Elec       q    Type
REMARK                         _______ _______ _______ _____ _____    ______ ____
ROOT
ATOM      1  C   UNL     1      38.033  23.475  34.621  0.00  0.00    +0.000 A 
ATOM      2  C   UNL     1      38.263  24.569  33.807  0.00  0.00    +0.000 A 
ATOM      3  N   UNL     1      37.760  24.183  32.589  0.00  0.00    +0.000 NA
ATOM      4  C   UNL     1      37.279  22.951  32.715  0.00  0.00    +0.000 A 
ATOM      5  N   UNL     1      37.431  22.476  33.969  0.00  0.00    +0.000 N 
ATOM      6  H   UNL     1      38.742  25.508  34.117  0.00  0.00    +0.000 HD
ATOM      7  H   UNL     1      36.837  22.484  31.831  0.00  0.00    +0.000 HD
ENDROOT
BRANCH   1   8
ATOM      8  C   UNL     1      38.395  23.402  36.026  0.00  0.00    +0.000 A 
ATOM      9  C   UNL     1      39.596  22.801  36.423  0.00  0.00    +0.000 A 
ATOM     10  C   UNL     1      39.899  22.757  37.803  0.00  0.00    +0.000 A 
ATOM     11  N   UNL     1      39.008  23.298  38.656  0.00  0.00    +0.000 NA
ATOM     12  C   UNL     1      37.859  23.870  38.247  0.00  0.00    +0.000 A 
ATOM     13  N   UNL     1      37.544  23.927  36.938  0.00  0.00    +0.000 NA
ATOM     14  H   UNL     1      40.274  22.382  35.681  0.00  0.00    +0.000 HD
ATOM     15  H   UNL     1      40.826  22.291  38.076  0.00  0.00    +0.000 HD
ATOM     16  H   UNL     1      37.238  24.263  39.027  0.00  0.00    +0.000 HD
ENDBRANCH   1   8
BRANCH   5  17
ATOM     17  C   UNL     1      37.003  21.169  34.394  0.00  0.00    +0.000 C 
ATOM     18  C   UNL     1      35.830  20.971  35.249  0.00  0.00    +0.000 C 
ATOM     19  C   UNL     1      35.674  20.756  33.767  0.00  0.00    +0.000 C 
ATOM     20  H   UNL     1      37.817  20.448  34.469  0.00  0.00    +0.000 HD
ATOM     21  H   UNL     1      35.782  20.088  35.904  0.00  0.00    +0.000 HD
ATOM     22  H   UNL     1      35.238  21.821  35.680  0.00  0.00    +0.000 HD
ATOM     23  H   UNL     1      35.092  21.489  33.197  0.00  0.00    +0.000 HD
BRANCH  19  24
ATOM     24  C   UNL     1      35.692  19.336  33.273  0.00  0.00    +0.000 A 
ATOM     25  C   UNL     1      36.407  18.861  32.174  0.00  0.00    +0.000 A 
ATOM     26  N   UNL     1      36.147  17.549  32.083  0.00  0.00    +0.000 NA
ATOM     27  C   UNL     1      35.303  17.251  33.097  0.00  0.00    +0.000 A 
ATOM     28  N   UNL     1      35.008  18.329  33.842  0.00  0.00    +0.000 N 
ATOM     29  H   UNL     1      34.373  18.314  34.675  0.00  0.00    +0.000 HD
ENDBRANCH  19  24
ENDBRANCH   5  17
TORSDOF 3
