
 OpenBabel03262519453D

 31 33  0  0  1  0  0  0  0  0999 V2000
   38.5520   25.5820   33.9760 C   0  0  0  0  0  0  0  0  0  0  0  0
   38.8320   26.5610   33.6120 H   0  0  0  0  0  0  0  0  0  0  0  0
   39.5060   24.9890   34.0280 H   0  0  0  0  0  0  0  0  0  0  0  0
   37.6580   24.8990   33.1260 N   0  0  0  0  0  0  0  0  0  0  0  0
   37.4000   23.6190   32.8330 C   0  0  0  0  0  0  0  0  0  0  0  0
   36.4020   23.4170   31.9090 C   0  0  0  0  0  0  0  0  0  0  0  0
   36.0140   24.6640   31.6050 N   0  0  0  0  0  0  0  0  0  0  0  0
   36.7590   25.5360   32.3270 C   0  0  0  0  0  0  0  0  0  0  0  0
   37.9410   22.7910   33.2970 H   0  0  0  0  0  0  0  0  0  0  0  0
   36.0580   22.4580   31.5520 H   0  0  0  0  0  0  0  0  0  0  0  0
   36.4990   26.9660   32.1480 C   0  0  0  0  0  0  0  0  0  0  0  0
   36.2550   28.0200   32.9680 N   0  0  0  0  0  0  0  0  0  0  0  0
   36.0950   29.0850   32.2370 O   0  0  0  0  0  0  0  0  0  0  0  0
   36.2210   28.7910   30.9530 C   0  0  0  0  0  0  0  0  0  0  0  0
   36.1410   29.4650   30.1190 H   0  0  0  0  0  0  0  0  0  0  0  0
   36.4770   27.4560   30.8900 N   0  0  0  0  0  0  0  0  0  0  0  0
   38.0550   25.6960   35.3870 C   0  0  1  0  0  0  0  0  0  0  0  0
   36.9540   25.5290   35.3640 H   0  0  0  0  0  0  0  0  0  0  0  0
   38.6560   23.4300   38.3560 C   0  0  0  0  0  0  0  0  0  0  0  0
   38.0410   24.4180   37.5710 C   0  0  0  0  0  0  0  0  0  0  0  0
   38.6230   24.6590   36.2850 C   0  0  0  0  0  0  0  0  0  0  0  0
   39.7220   23.9290   35.9000 N   0  0  0  0  0  0  0  0  0  0  0  0
   40.2670   23.0050   36.6790 C   0  0  0  0  0  0  0  0  0  0  0  0
   39.7190   22.7610   37.9200 N   0  0  0  0  0  0  0  0  0  0  0  0
   38.1840   23.2850   39.3120 H   0  0  0  0  0  0  0  0  0  0  0  0
   37.1760   24.9870   37.8860 H   0  0  0  0  0  0  0  0  0  0  0  0
   41.1320   22.4290   36.3790 H   0  0  0  0  0  0  0  0  0  0  0  0
   38.3050   27.0830   35.9190 C   0  0  0  0  0  0  0  0  0  0  0  0
   39.4090   27.2960   35.9220 H   0  0  0  0  0  0  0  0  0  0  0  0
   37.8350   27.2420   36.9070 H   0  0  0  0  0  0  0  0  0  0  0  0
   37.8630   27.7780   35.1480 H   0  0  0  0  0  0  0  0  0  0  0  0
  1  3  1  0  0  0  0
  1 17  1  0  0  0  0
  2  1  1  0  0  0  0
  4  1  1  0  0  0  0
  5  4  1  0  0  0  0
  5  9  1  0  0  0  0
  6  5  2  0  0  0  0
  7  6  1  0  0  0  0
  7  8  2  0  0  0  0
  8  4  1  0  0  0  0
 10  6  1  0  0  0  0
 11  8  1  0  0  0  0
 11 12  2  0  0  0  0
 13 12  1  0  0  0  0
 14 13  1  0  0  0  0
 15 14  1  0  0  0  0
 16 14  2  0  0  0  0
 16 11  1  0  0  0  0
 17 18  1  6  0  0  0
 17 28  1  0  0  0  0
 17 21  1  0  0  0  0
 19 25  1  0  0  0  0
 20 26  1  0  0  0  0
 20 19  2  0  0  0  0
 21 20  1  0  0  0  0
 22 21  2  0  0  0  0
 22 23  1  0  0  0  0
 23 24  2  0  0  0  0
 24 19  1  0  0  0  0
 27 23  1  0  0  0  0
 28 29  1  0  0  0  0
 28 30  1  0  0  0  0
 31 28  1  0  0  0  0
M  END
>  <minimizedAffinity>
-4.80980873

>  <minimizedRMSD>
3.42937565

$$$$
