
 OpenBabel03262520003D

 32 35  0  0  1  0  0  0  0  0999 V2000
   40.5700   23.7210   33.2140 C   0  0  0  0  0  0  0  0  0  0  0  0
   41.7250   23.5940   33.9810 C   0  0  0  0  0  0  0  0  0  0  0  0
   42.4870   24.6640   33.5930 N   0  0  0  0  0  0  0  0  0  0  0  0
   41.7980   25.3370   32.6730 C   0  0  0  0  0  0  0  0  0  0  0  0
   40.6190   24.7780   32.4240 N   0  0  0  0  0  0  0  0  0  0  0  0
   41.9540   22.8240   34.7100 H   0  0  0  0  0  0  0  0  0  0  0  0
   42.3110   26.2240   32.2820 H   0  0  0  0  0  0  0  0  0  0  0  0
   39.4460   22.8000   33.2690 C   0  0  0  0  0  0  0  0  0  0  0  0
   39.3380   21.7740   32.3050 C   0  0  0  0  0  0  0  0  0  0  0  0
   38.2300   20.8980   32.4010 C   0  0  0  0  0  0  0  0  0  0  0  0
   37.3500   21.1070   33.4160 N   0  0  0  0  0  0  0  0  0  0  0  0
   37.4920   22.1030   34.3180 C   0  0  0  0  0  0  0  0  0  0  0  0
   38.5310   22.9510   34.2550 N   0  0  0  0  0  0  0  0  0  0  0  0
   40.0920   21.6960   31.5400 H   0  0  0  0  0  0  0  0  0  0  0  0
   38.1340   20.1120   31.6740 H   0  0  0  0  0  0  0  0  0  0  0  0
   36.7080   22.1280   35.0560 H   0  0  0  0  0  0  0  0  0  0  0  0
   39.6970   25.3040   31.4860 C   0  0  1  0  0  0  0  0  0  0  0  0
   38.2640   25.2120   31.5530 C   0  0  0  0  0  0  0  0  0  0  0  0
   38.9820   26.5390   31.9340 C   0  0  1  0  0  0  0  0  0  0  0  0
   40.1330   25.3480   30.4240 H   0  0  0  0  0  0  0  0  0  0  0  0
   37.6250   25.2670   30.6570 H   0  0  0  0  0  0  0  0  0  0  0  0
   37.7790   24.7120   32.3920 H   0  0  0  0  0  0  0  0  0  0  0  0
   38.5410   26.8800   33.3240 C   0  0  0  0  0  0  0  0  0  0  0  0
   39.2550   27.2440   34.4280 N   0  0  0  0  0  0  0  0  0  0  0  0
   38.4510   27.4430   35.4060 O   0  0  0  0  0  0  0  0  0  0  0  0
   37.2050   27.2390   35.0510 C   0  0  0  0  0  0  0  0  0  0  0  0
   36.2200   27.2770   35.4980 H   0  0  0  0  0  0  0  0  0  0  0  0
   37.2430   26.8820   33.7370 N   0  0  0  0  0  0  0  0  0  0  0  0
   38.7290   27.6080   30.8930 C   0  0  0  0  0  0  0  0  0  0  0  0
   37.9180   28.5940   31.4170 F   0  0  0  0  0  0  0  0  0  0  0  0
   39.9900   28.3010   30.6490 F   0  0  0  0  0  0  0  0  0  0  0  0
   38.3270   27.1380   29.7040 F   0  0  0  0  0  0  0  0  0  0  0  0
  1  8  1  0  0  0  0
  1  2  2  0  0  0  0
  2  6  1  0  0  0  0
  3  2  1  0  0  0  0
  4  3  2  0  0  0  0
  5  4  1  0  0  0  0
  5  1  1  0  0  0  0
  7  4  1  0  0  0  0
  8 13  1  0  0  0  0
  9 10  1  0  0  0  0
  9  8  2  0  0  0  0
 10 11  2  0  0  0  0
 11 12  1  0  0  0  0
 12 16  1  0  0  0  0
 13 12  2  0  0  0  0
 14  9  1  0  0  0  0
 15 10  1  0  0  0  0
 17 20  1  6  0  0  0
 17 18  1  0  0  0  0
 17 19  1  0  0  0  0
 17  5  1  0  0  0  0
 18 19  1  0  0  0  0
 18 22  1  0  0  0  0
 19 29  1  6  0  0  0
 19 23  1  0  0  0  0
 21 18  1  0  0  0  0
 23 28  1  0  0  0  0
 23 24  2  0  0  0  0
 24 25  1  0  0  0  0
 26 25  1  0  0  0  0
 26 27  1  0  0  0  0
 28 26  2  0  0  0  0
 29 30  1  0  0  0  0
 31 29  1  0  0  0  0
 32 29  1  0  0  0  0
M  END
>  <minimizedAffinity>
-3.55177951

>  <minimizedRMSD>
5.98067331

$$$$
