
 OpenBabel03262517513D

 21 23  0  0  0  0  0  0  0  0999 V2000
   37.4580   23.8090   37.0770 C   0  0  0  0  0  0  0  0  0  0  0  0
   38.4840   23.1440   36.3420 C   0  0  0  0  0  0  0  0  0  0  0  0
   39.6450   22.7830   36.9900 C   0  0  0  0  0  0  0  0  0  0  0  0
   39.7300   23.1020   38.3300 N   0  0  0  0  0  0  0  0  0  0  0  0
   38.7590   23.7250   38.9990 C   0  0  0  0  0  0  0  0  0  0  0  0
   37.6300   24.0770   38.3790 N   0  0  0  0  0  0  0  0  0  0  0  0
   36.5380   24.1000   36.5870 H   0  0  0  0  0  0  0  0  0  0  0  0
   39.0330   23.8810   40.0510 H   0  0  0  0  0  0  0  0  0  0  0  0
   38.2060   22.9430   34.9860 N   0  0  0  0  0  0  0  0  0  0  0  0
   38.3900   23.7280   33.8760 C   0  0  0  0  0  0  0  0  0  0  0  0
   37.9120   23.0600   32.7890 N   0  0  0  0  0  0  0  0  0  0  0  0
   37.4300   21.8540   33.2400 C   0  0  0  0  0  0  0  0  0  0  0  0
   37.6190   21.8060   34.5750 N   0  0  0  0  0  0  0  0  0  0  0  0
   38.8060   24.7160   33.8130 H   0  0  0  0  0  0  0  0  0  0  0  0
   36.9650   21.0270   32.7030 H   0  0  0  0  0  0  0  0  0  0  0  0
   40.7160   22.0590   36.3270 C   0  0  0  0  0  0  0  0  0  0  0  0
   41.1770   21.8700   35.0880 N   0  0  0  0  0  0  0  0  0  0  0  0
   42.2040   21.0970   35.0630 O   0  0  0  0  0  0  0  0  0  0  0  0
   42.4860   20.7270   36.2880 C   0  0  0  0  0  0  0  0  0  0  0  0
   43.2980   20.0760   36.5950 H   0  0  0  0  0  0  0  0  0  0  0  0
   41.5700   21.3220   37.0470 N   0  0  0  0  0  0  0  0  0  0  0  0
  1  6  1  0  0  0  0
  2  3  1  0  0  0  0
  2  1  2  0  0  0  0
  3  4  2  0  0  0  0
  4  5  1  0  0  0  0
  5  8  1  0  0  0  0
  6  5  2  0  0  0  0
  7  1  1  0  0  0  0
  9  2  1  0  0  0  0
 10  9  1  0  0  0  0
 11 12  1  0  0  0  0
 11 10  2  0  0  0  0
 12 13  2  0  0  0  0
 13  9  1  0  0  0  0
 14 10  1  0  0  0  0
 15 12  1  0  0  0  0
 16  3  1  0  0  0  0
 16 21  1  0  0  0  0
 17 16  2  0  0  0  0
 18 17  1  0  0  0  0
 18 19  1  0  0  0  0
 19 20  1  0  0  0  0
 19 21  2  0  0  0  0
M  END
>  <minimizedAffinity>
-3.83768821

>  <minimizedRMSD>
1.58087194

$$$$
