
 OpenBabel03262519093D

 34 37  0  0  1  0  0  0  0  0999 V2000
   37.1450   26.8570   34.0420 C   0  0  0  0  0  0  0  0  0  0  0  0
   36.4980   26.5320   34.9030 H   0  0  0  0  0  0  0  0  0  0  0  0
   36.9620   26.0850   33.2460 H   0  0  0  0  0  0  0  0  0  0  0  0
   36.5520   28.1220   33.5670 C   0  0  0  0  0  0  0  0  0  0  0  0
   36.3760   28.6050   32.2880 C   0  0  0  0  0  0  0  0  0  0  0  0
   35.8030   29.8150   31.9840 C   0  0  0  0  0  0  0  0  0  0  0  0
   35.3790   30.5890   33.0510 C   0  0  0  0  0  0  0  0  0  0  0  0
   35.5640   30.0890   34.3120 C   0  0  0  0  0  0  0  0  0  0  0  0
   36.1270   28.9020   34.6010 N   0  0  0  0  0  0  0  0  0  0  0  0
   36.7470   27.9130   31.5390 H   0  0  0  0  0  0  0  0  0  0  0  0
   35.7240   30.0720   30.9580 H   0  0  0  0  0  0  0  0  0  0  0  0
   34.9260   31.5430   32.8320 H   0  0  0  0  0  0  0  0  0  0  0  0
   35.0850   30.9770   35.3760 C   0  0  0  0  0  0  0  0  0  0  0  0
   33.7870   31.0560   35.7610 N   0  0  0  0  0  0  0  0  0  0  0  0
   33.6720   31.9230   36.7180 O   0  0  0  0  0  0  0  0  0  0  0  0
   34.8670   32.4290   36.9850 C   0  0  0  0  0  0  0  0  0  0  0  0
   34.9500   33.1740   37.7650 H   0  0  0  0  0  0  0  0  0  0  0  0
   35.7710   31.8490   36.1530 N   0  0  0  0  0  0  0  0  0  0  0  0
   39.3530   25.9370   35.1550 C   0  0  2  0  0  0  0  0  0  0  0  0
   38.8970   27.2040   35.7910 C   0  0  0  0  0  0  0  0  0  0  0  0
   38.5840   26.9220   34.3520 C   0  0  2  0  0  0  0  0  0  0  0  0
   40.3770   25.7510   34.7890 H   0  0  0  0  0  0  0  0  0  0  0  0
   39.7420   27.9240   36.0050 H   0  0  0  0  0  0  0  0  0  0  0  0
   38.1360   27.1910   36.5780 H   0  0  0  0  0  0  0  0  0  0  0  0
   39.1730   27.5320   33.6070 H   0  0  0  0  0  0  0  0  0  0  0  0
   37.5300   23.5210   37.2370 C   0  0  0  0  0  0  0  0  0  0  0  0
   37.4450   22.3720   36.4420 C   0  0  0  0  0  0  0  0  0  0  0  0
   38.0450   22.4570   35.1400 C   0  0  0  0  0  0  0  0  0  0  0  0
   38.6370   23.6170   34.7770 N   0  0  0  0  0  0  0  0  0  0  0  0
   38.6780   24.7070   35.6170 C   0  0  0  0  0  0  0  0  0  0  0  0
   38.1180   24.6560   36.8630 N   0  0  0  0  0  0  0  0  0  0  0  0
   37.0640   23.4020   38.2040 H   0  0  0  0  0  0  0  0  0  0  0  0
   36.9610   21.4620   36.7710 H   0  0  0  0  0  0  0  0  0  0  0  0
   38.0110   21.6020   34.4830 H   0  0  0  0  0  0  0  0  0  0  0  0
  1 21  1  0  0  0  0
  1  2  1  0  0  0  0
  3  1  1  0  0  0  0
  4  1  1  0  0  0  0
  4  9  1  0  0  0  0
  5  4  2  0  0  0  0
  6  5  1  0  0  0  0
  6  7  2  0  0  0  0
  7  8  1  0  0  0  0
  8  9  2  0  0  0  0
  8 13  1  0  0  0  0
 10  5  1  0  0  0  0
 11  6  1  0  0  0  0
 12  7  1  0  0  0  0
 13 14  2  0  0  0  0
 13 18  1  0  0  0  0
 14 15  1  0  0  0  0
 15 16  1  0  0  0  0
 16 17  1  0  0  0  0
 18 16  2  0  0  0  0
 19 22  1  6  0  0  0
 19 30  1  0  0  0  0
 19 20  1  0  0  0  0
 20 23  1  0  0  0  0
 20 24  1  0  0  0  0
 21 25  1  6  0  0  0
 21 19  1  0  0  0  0
 21 20  1  0  0  0  0
 26 32  1  0  0  0  0
 27 33  1  0  0  0  0
 27 26  2  0  0  0  0
 28 27  1  0  0  0  0
 29 28  2  0  0  0  0
 29 30  1  0  0  0  0
 30 31  2  0  0  0  0
 31 26  1  0  0  0  0
 34 28  1  0  0  0  0
M  END
>  <minimizedAffinity>
-5.35017633

>  <minimizedRMSD>
5.59776783

$$$$
