
 OpenBabel03262520003D

 32 35  0  0  1  0  0  0  0  0999 V2000
   38.1550   24.1770   32.3130 C   0  0  0  0  0  0  0  0  0  0  0  0
   38.6190   23.2600   31.3750 C   0  0  0  0  0  0  0  0  0  0  0  0
   39.1120   22.2380   32.1410 N   0  0  0  0  0  0  0  0  0  0  0  0
   38.9320   22.5690   33.4190 C   0  0  0  0  0  0  0  0  0  0  0  0
   38.3460   23.7550   33.5500 N   0  0  0  0  0  0  0  0  0  0  0  0
   38.5900   23.3470   30.2940 H   0  0  0  0  0  0  0  0  0  0  0  0
   39.2910   21.8220   34.1350 H   0  0  0  0  0  0  0  0  0  0  0  0
   37.5390   25.4520   31.9780 C   0  0  0  0  0  0  0  0  0  0  0  0
   38.3370   26.6120   31.8990 C   0  0  0  0  0  0  0  0  0  0  0  0
   37.6950   27.8290   31.5630 C   0  0  0  0  0  0  0  0  0  0  0  0
   36.3540   27.7910   31.3400 N   0  0  0  0  0  0  0  0  0  0  0  0
   35.6280   26.6550   31.4270 C   0  0  0  0  0  0  0  0  0  0  0  0
   36.2070   25.4860   31.7420 N   0  0  0  0  0  0  0  0  0  0  0  0
   39.3930   26.5330   32.0960 H   0  0  0  0  0  0  0  0  0  0  0  0
   38.2910   28.7210   31.5000 H   0  0  0  0  0  0  0  0  0  0  0  0
   34.5810   26.8000   31.2190 H   0  0  0  0  0  0  0  0  0  0  0  0
   38.0430   24.3330   34.8070 C   0  0  1  0  0  0  0  0  0  0  0  0
   38.7570   24.1240   36.0380 C   0  0  0  0  0  0  0  0  0  0  0  0
   38.9610   25.4360   35.2260 C   0  0  1  0  0  0  0  0  0  0  0  0
   36.9230   24.5550   34.9260 H   0  0  0  0  0  0  0  0  0  0  0  0
   38.2840   24.2530   37.0240 H   0  0  0  0  0  0  0  0  0  0  0  0
   39.6350   23.4790   36.0670 H   0  0  0  0  0  0  0  0  0  0  0  0
   40.4300   25.5500   34.9580 C   0  0  0  0  0  0  0  0  0  0  0  0
   41.4600   24.6990   35.2340 N   0  0  0  0  0  0  0  0  0  0  0  0
   42.5580   25.2140   34.8170 O   0  0  0  0  0  0  0  0  0  0  0  0
   42.3570   26.3860   34.2620 C   0  0  0  0  0  0  0  0  0  0  0  0
   42.9380   27.1670   33.7890 H   0  0  0  0  0  0  0  0  0  0  0  0
   41.0170   26.6140   34.3420 N   0  0  0  0  0  0  0  0  0  0  0  0
   38.3410   26.6170   35.9440 C   0  0  0  0  0  0  0  0  0  0  0  0
   38.9840   27.7820   35.5790 F   0  0  0  0  0  0  0  0  0  0  0  0
   36.9910   26.7990   35.4210 F   0  0  0  0  0  0  0  0  0  0  0  0
   38.2090   26.4510   37.2670 F   0  0  0  0  0  0  0  0  0  0  0  0
  1  5  1  0  0  0  0
  2  3  1  0  0  0  0
  2  1  2  0  0  0  0
  3  4  2  0  0  0  0
  4  5  1  0  0  0  0
  4  7  1  0  0  0  0
  5 17  1  0  0  0  0
  6  2  1  0  0  0  0
  8  1  1  0  0  0  0
  9  8  1  0  0  0  0
  9 14  1  0  0  0  0
 10  9  2  0  0  0  0
 11 12  2  0  0  0  0
 11 10  1  0  0  0  0
 12 13  1  0  0  0  0
 13  8  2  0  0  0  0
 15 10  1  0  0  0  0
 16 12  1  0  0  0  0
 17 20  1  1  0  0  0
 17 19  1  0  0  0  0
 17 18  1  0  0  0  0
 18 22  1  0  0  0  0
 18 21  1  0  0  0  0
 19 29  1  1  0  0  0
 19 18  1  0  0  0  0
 23 19  1  0  0  0  0
 23 24  2  0  0  0  0
 25 24  1  0  0  0  0
 26 28  2  0  0  0  0
 26 25  1  0  0  0  0
 27 26  1  0  0  0  0
 28 23  1  0  0  0  0
 29 32  1  0  0  0  0
 30 29  1  0  0  0  0
 31 29  1  0  0  0  0
M  END
>  <minimizedAffinity>
-4.63423491

>  <minimizedRMSD>
4.26241732

$$$$
