
 OpenBabel03262520003D

 32 35  0  0  1  0  0  0  0  0999 V2000
   38.6460   23.5010   32.2740 C   0  0  0  0  0  0  0  0  0  0  0  0
   39.1470   22.5680   31.3700 C   0  0  0  0  0  0  0  0  0  0  0  0
   39.1190   21.3930   32.0710 N   0  0  0  0  0  0  0  0  0  0  0  0
   38.6340   21.6590   33.2830 C   0  0  0  0  0  0  0  0  0  0  0  0
   38.3360   22.9440   33.4320 N   0  0  0  0  0  0  0  0  0  0  0  0
   39.4780   22.7460   30.3520 H   0  0  0  0  0  0  0  0  0  0  0  0
   38.5640   20.7860   33.9430 H   0  0  0  0  0  0  0  0  0  0  0  0
   38.4860   24.9180   31.9860 C   0  0  0  0  0  0  0  0  0  0  0  0
   39.5190   25.8180   32.3250 C   0  0  0  0  0  0  0  0  0  0  0  0
   39.3220   27.1870   32.0210 C   0  0  0  0  0  0  0  0  0  0  0  0
   38.1510   27.5350   31.4230 N   0  0  0  0  0  0  0  0  0  0  0  0
   37.1880   26.6380   31.1160 C   0  0  0  0  0  0  0  0  0  0  0  0
   37.3440   25.3340   31.3910 N   0  0  0  0  0  0  0  0  0  0  0  0
   40.4080   25.4370   32.7980 H   0  0  0  0  0  0  0  0  0  0  0  0
   40.0990   27.8840   32.2730 H   0  0  0  0  0  0  0  0  0  0  0  0
   36.3260   27.0800   30.6460 H   0  0  0  0  0  0  0  0  0  0  0  0
   37.8030   23.4810   34.6290 C   0  0  1  0  0  0  0  0  0  0  0  0
   37.9440   22.9310   35.9490 C   0  0  0  0  0  0  0  0  0  0  0  0
   38.8030   24.1530   35.5140 C   0  0  1  0  0  0  0  0  0  0  0  0
   36.8340   24.0710   34.4480 H   0  0  0  0  0  0  0  0  0  0  0  0
   37.2190   23.1320   36.7540 H   0  0  0  0  0  0  0  0  0  0  0  0
   38.5190   22.0180   36.1110 H   0  0  0  0  0  0  0  0  0  0  0  0
   40.2340   23.7670   35.7260 C   0  0  0  0  0  0  0  0  0  0  0  0
   41.3450   23.9870   34.9640 N   0  0  0  0  0  0  0  0  0  0  0  0
   42.3650   23.4720   35.5450 O   0  0  0  0  0  0  0  0  0  0  0  0
   42.0350   22.9010   36.6790 C   0  0  0  0  0  0  0  0  0  0  0  0
   42.5170   22.3620   37.4840 H   0  0  0  0  0  0  0  0  0  0  0  0
   40.6910   23.0780   36.8100 N   0  0  0  0  0  0  0  0  0  0  0  0
   38.3580   25.4090   36.2330 C   0  0  0  0  0  0  0  0  0  0  0  0
   39.2040   26.4550   35.9230 F   0  0  0  0  0  0  0  0  0  0  0  0
   37.0830   25.8250   35.6580 F   0  0  0  0  0  0  0  0  0  0  0  0
   38.1410   25.2470   37.5450 F   0  0  0  0  0  0  0  0  0  0  0  0
  1  5  1  0  0  0  0
  2  3  1  0  0  0  0
  2  1  2  0  0  0  0
  3  4  2  0  0  0  0
  4  5  1  0  0  0  0
  4  7  1  0  0  0  0
  5 17  1  0  0  0  0
  6  2  1  0  0  0  0
  8  1  1  0  0  0  0
  8  9  1  0  0  0  0
  9 14  1  0  0  0  0
 10 15  1  0  0  0  0
 10  9  2  0  0  0  0
 11 10  1  0  0  0  0
 12 13  1  0  0  0  0
 12 11  2  0  0  0  0
 13  8  2  0  0  0  0
 16 12  1  0  0  0  0
 17 20  1  6  0  0  0
 17 19  1  0  0  0  0
 17 18  1  0  0  0  0
 18 22  1  0  0  0  0
 18 21  1  0  0  0  0
 19 23  1  0  0  0  0
 19 18  1  0  0  0  0
 19 29  1  1  0  0  0
 23 28  1  0  0  0  0
 24 25  1  0  0  0  0
 24 23  2  0  0  0  0
 25 26  1  0  0  0  0
 26 28  2  0  0  0  0
 26 27  1  0  0  0  0
 29 32  1  0  0  0  0
 30 29  1  0  0  0  0
 31 29  1  0  0  0  0
M  END
>  <minimizedAffinity>
-4.13004923

>  <minimizedRMSD>
3.75168252

$$$$
