
 OpenBabel03262520003D

 32 35  0  0  1  0  0  0  0  0999 V2000
   37.2640   23.5770   32.3530 C   0  0  0  0  0  0  0  0  0  0  0  0
   36.6740   22.9190   31.2770 C   0  0  0  0  0  0  0  0  0  0  0  0
   36.4820   21.6480   31.7440 N   0  0  0  0  0  0  0  0  0  0  0  0
   36.9360   21.6050   32.9960 C   0  0  0  0  0  0  0  0  0  0  0  0
   37.4200   22.7770   33.3920 N   0  0  0  0  0  0  0  0  0  0  0  0
   36.4300   23.3310   30.3030 H   0  0  0  0  0  0  0  0  0  0  0  0
   36.8360   20.6260   33.4800 H   0  0  0  0  0  0  0  0  0  0  0  0
   37.6670   24.9750   32.3370 C   0  0  0  0  0  0  0  0  0  0  0  0
   38.9500   25.3250   31.8670 C   0  0  0  0  0  0  0  0  0  0  0  0
   39.2970   26.6980   31.8650 C   0  0  0  0  0  0  0  0  0  0  0  0
   38.3670   27.5810   32.3160 N   0  0  0  0  0  0  0  0  0  0  0  0
   37.1480   27.2010   32.7590 C   0  0  0  0  0  0  0  0  0  0  0  0
   36.7890   25.9080   32.7730 N   0  0  0  0  0  0  0  0  0  0  0  0
   39.6130   24.5450   31.5310 H   0  0  0  0  0  0  0  0  0  0  0  0
   40.2710   26.9790   31.5090 H   0  0  0  0  0  0  0  0  0  0  0  0
   36.5330   28.0250   33.0800 H   0  0  0  0  0  0  0  0  0  0  0  0
   37.9610   22.9930   34.6820 C   0  0  1  0  0  0  0  0  0  0  0  0
   38.5760   22.0070   35.5280 C   0  0  0  0  0  0  0  0  0  0  0  0
   39.4550   23.0190   34.7390 C   0  0  1  0  0  0  0  0  0  0  0  0
   37.4350   23.8500   35.2370 H   0  0  0  0  0  0  0  0  0  0  0  0
   38.6140   22.1090   36.6250 H   0  0  0  0  0  0  0  0  0  0  0  0
   38.6770   20.9740   35.1930 H   0  0  0  0  0  0  0  0  0  0  0  0
   40.4110   22.2080   33.9190 C   0  0  0  0  0  0  0  0  0  0  0  0
   40.4660   21.9740   32.5760 N   0  0  0  0  0  0  0  0  0  0  0  0
   41.4660   21.2150   32.3190 O   0  0  0  0  0  0  0  0  0  0  0  0
   42.1210   20.8990   33.4100 C   0  0  0  0  0  0  0  0  0  0  0  0
   42.9850   20.3140   33.6940 H   0  0  0  0  0  0  0  0  0  0  0  0
   41.4680   21.5180   34.4320 N   0  0  0  0  0  0  0  0  0  0  0  0
   40.0950   24.0220   35.6750 C   0  0  0  0  0  0  0  0  0  0  0  0
   41.0050   24.7970   34.9860 F   0  0  0  0  0  0  0  0  0  0  0  0
   39.0690   24.9800   36.0730 F   0  0  0  0  0  0  0  0  0  0  0  0
   40.5710   23.4930   36.8110 F   0  0  0  0  0  0  0  0  0  0  0  0
  1  5  1  0  0  0  0
  2  3  1  0  0  0  0
  2  1  2  0  0  0  0
  3  4  2  0  0  0  0
  4  5  1  0  0  0  0
  4  7  1  0  0  0  0
  5 17  1  0  0  0  0
  6  2  1  0  0  0  0
  8  1  1  0  0  0  0
  8 13  1  0  0  0  0
  9  8  2  0  0  0  0
 10  9  1  0  0  0  0
 10 11  2  0  0  0  0
 11 12  1  0  0  0  0
 12 13  2  0  0  0  0
 12 16  1  0  0  0  0
 14  9  1  0  0  0  0
 15 10  1  0  0  0  0
 17 19  1  0  0  0  0
 17 20  1  1  0  0  0
 17 18  1  0  0  0  0
 18 21  1  0  0  0  0
 19 18  1  0  0  0  0
 19 29  1  1  0  0  0
 22 18  1  0  0  0  0
 23 28  1  0  0  0  0
 23 19  1  0  0  0  0
 24 23  2  0  0  0  0
 25 24  1  0  0  0  0
 25 26  1  0  0  0  0
 26 27  1  0  0  0  0
 26 28  2  0  0  0  0
 29 31  1  0  0  0  0
 29 32  1  0  0  0  0
 30 29  1  0  0  0  0
M  END
>  <minimizedAffinity>
-3.81370378

>  <minimizedRMSD>
4.25674105

$$$$
