
 OpenBabel03262519563D

 29 32  0  0  1  0  0  0  0  0999 V2000
   38.1490   23.9340   34.6290 C   0  0  0  0  0  0  0  0  0  0  0  0
   38.2860   25.1840   34.0120 C   0  0  0  0  0  0  0  0  0  0  0  0
   37.8890   24.9500   32.7290 N   0  0  0  0  0  0  0  0  0  0  0  0
   37.5550   23.6820   32.6200 C   0  0  0  0  0  0  0  0  0  0  0  0
   37.7030   23.0140   33.7850 N   0  0  0  0  0  0  0  0  0  0  0  0
   38.6340   26.1050   34.4860 H   0  0  0  0  0  0  0  0  0  0  0  0
   37.2020   23.2770   31.6620 H   0  0  0  0  0  0  0  0  0  0  0  0
   38.4550   23.6660   36.0210 C   0  0  0  0  0  0  0  0  0  0  0  0
   39.6830   23.0790   36.3700 C   0  0  0  0  0  0  0  0  0  0  0  0
   39.9390   22.8360   37.7360 C   0  0  0  0  0  0  0  0  0  0  0  0
   38.9950   23.1790   38.6270 N   0  0  0  0  0  0  0  0  0  0  0  0
   37.8170   23.7460   38.2570 C   0  0  0  0  0  0  0  0  0  0  0  0
   37.5420   23.9910   36.9640 N   0  0  0  0  0  0  0  0  0  0  0  0
   40.4230   22.8130   35.6370 H   0  0  0  0  0  0  0  0  0  0  0  0
   40.8880   22.3810   38.0190 H   0  0  0  0  0  0  0  0  0  0  0  0
   37.0730   24.0130   39.0060 H   0  0  0  0  0  0  0  0  0  0  0  0
   37.4100   21.6060   33.9580 C   0  0  1  0  0  0  0  0  0  0  0  0
   36.2350   21.1540   34.6860 C   0  0  0  0  0  0  0  0  0  0  0  0
   36.1810   21.1850   33.1710 C   0  0  2  0  0  0  0  0  0  0  0  0
   38.3030   20.9590   33.8360 H   0  0  0  0  0  0  0  0  0  0  0  0
   35.6450   21.9220   35.2480 H   0  0  0  0  0  0  0  0  0  0  0  0
   36.3100   20.1810   35.2170 H   0  0  0  0  0  0  0  0  0  0  0  0
   35.5030   21.9450   32.7540 H   0  0  0  0  0  0  0  0  0  0  0  0
   36.1110   19.8520   32.5710 C   0  0  0  0  0  0  0  0  0  0  0  0
   35.3710   18.8510   33.0980 N   0  0  0  0  0  0  0  0  0  0  0  0
   35.4880   17.7860   32.3700 O   0  0  0  0  0  0  0  0  0  0  0  0
   36.2950   18.0900   31.3810 C   0  0  0  0  0  0  0  0  0  0  0  0
   36.6320   17.4490   30.5610 H   0  0  0  0  0  0  0  0  0  0  0  0
   36.7140   19.3860   31.4640 N   0  0  0  0  0  0  0  0  0  0  0  0
  1  8  1  0  0  0  0
  2  6  1  0  0  0  0
  2  1  2  0  0  0  0
  3  2  1  0  0  0  0
  4  3  2  0  0  0  0
  4  5  1  0  0  0  0
  5 17  1  0  0  0  0
  5  1  1  0  0  0  0
  7  4  1  0  0  0  0
  8  9  2  0  0  0  0
  8 13  1  0  0  0  0
  9 10  1  0  0  0  0
 10 15  1  0  0  0  0
 10 11  2  0  0  0  0
 12 11  1  0  0  0  0
 12 16  1  0  0  0  0
 13 12  2  0  0  0  0
 14  9  1  0  0  0  0
 17 20  1  6  0  0  0
 17 18  1  0  0  0  0
 18 22  1  0  0  0  0
 18 21  1  0  0  0  0
 19 23  1  6  0  0  0
 19 17  1  0  0  0  0
 19 18  1  0  0  0  0
 24 25  2  0  0  0  0
 24 19  1  0  0  0  0
 26 25  1  0  0  0  0
 27 29  2  0  0  0  0
 27 26  1  0  0  0  0
 28 27  1  0  0  0  0
 29 24  1  0  0  0  0
M  END
>  <minimizedAffinity>
-4.58898687

>  <minimizedRMSD>
0.879928946

$$$$
