
 OpenBabel03262519573D

 29 32  0  0  1  0  0  0  0  0999 V2000
   38.9980   24.5230   33.3030 C   0  0  0  0  0  0  0  0  0  0  0  0
   37.6190   24.3370   33.4630 C   0  0  0  0  0  0  0  0  0  0  0  0
   37.0750   25.2570   32.6160 N   0  0  0  0  0  0  0  0  0  0  0  0
   38.0530   25.9100   32.0250 C   0  0  0  0  0  0  0  0  0  0  0  0
   39.2690   25.4810   32.4280 N   0  0  0  0  0  0  0  0  0  0  0  0
   37.1360   23.6120   34.1230 H   0  0  0  0  0  0  0  0  0  0  0  0
   37.8350   26.7030   31.2970 H   0  0  0  0  0  0  0  0  0  0  0  0
   40.0160   23.7660   34.0060 C   0  0  0  0  0  0  0  0  0  0  0  0
   40.5770   24.2730   35.1910 C   0  0  0  0  0  0  0  0  0  0  0  0
   41.5640   23.5040   35.8410 C   0  0  0  0  0  0  0  0  0  0  0  0
   41.9140   22.3290   35.2930 N   0  0  0  0  0  0  0  0  0  0  0  0
   41.3520   21.8650   34.1450 C   0  0  0  0  0  0  0  0  0  0  0  0
   40.4090   22.5740   33.5010 N   0  0  0  0  0  0  0  0  0  0  0  0
   40.2800   25.2180   35.6090 H   0  0  0  0  0  0  0  0  0  0  0  0
   42.0070   23.8870   36.7600 H   0  0  0  0  0  0  0  0  0  0  0  0
   41.6580   20.9080   33.7280 H   0  0  0  0  0  0  0  0  0  0  0  0
   40.5230   26.0210   31.9430 C   0  0  1  0  0  0  0  0  0  0  0  0
   40.6170   27.3670   31.4030 C   0  0  0  0  0  0  0  0  0  0  0  0
   41.0430   27.1310   32.8380 C   0  0  2  0  0  0  0  0  0  0  0  0
   41.2580   25.2340   31.6760 H   0  0  0  0  0  0  0  0  0  0  0  0
   39.6610   27.9230   31.2240 H   0  0  0  0  0  0  0  0  0  0  0  0
   41.3840   27.5480   30.6200 H   0  0  0  0  0  0  0  0  0  0  0  0
   40.3850   27.5900   33.5910 H   0  0  0  0  0  0  0  0  0  0  0  0
   42.4830   27.2970   33.0450 C   0  0  0  0  0  0  0  0  0  0  0  0
   43.2650   28.0040   32.2000 N   0  0  0  0  0  0  0  0  0  0  0  0
   44.4910   27.9920   32.6190 O   0  0  0  0  0  0  0  0  0  0  0  0
   44.5060   27.2840   33.7240 C   0  0  0  0  0  0  0  0  0  0  0  0
   45.3600   27.0490   34.3660 H   0  0  0  0  0  0  0  0  0  0  0  0
   43.2590   26.8230   34.0340 N   0  0  0  0  0  0  0  0  0  0  0  0
  1  2  2  0  0  0  0
  1  8  1  0  0  0  0
  2  6  1  0  0  0  0
  3  2  1  0  0  0  0
  4  5  1  0  0  0  0
  4  3  2  0  0  0  0
  5  1  1  0  0  0  0
  7  4  1  0  0  0  0
  8  9  1  0  0  0  0
  9 14  1  0  0  0  0
  9 10  2  0  0  0  0
 10 15  1  0  0  0  0
 11 10  1  0  0  0  0
 12 11  2  0  0  0  0
 13  8  2  0  0  0  0
 13 12  1  0  0  0  0
 16 12  1  0  0  0  0
 17 20  1  6  0  0  0
 17  5  1  0  0  0  0
 17 19  1  0  0  0  0
 18 17  1  0  0  0  0
 18 19  1  0  0  0  0
 19 24  1  0  0  0  0
 19 23  1  1  0  0  0
 21 18  1  0  0  0  0
 22 18  1  0  0  0  0
 24 29  1  0  0  0  0
 25 26  1  0  0  0  0
 25 24  2  0  0  0  0
 26 27  1  0  0  0  0
 27 29  2  0  0  0  0
 27 28  1  0  0  0  0
M  END
>  <minimizedAffinity>
-2.83702111

>  <minimizedRMSD>
7.65258026

$$$$
