
 OpenBabel03262520003D

 32 35  0  0  1  0  0  0  0  0999 V2000
   39.7580   22.7590   33.2330 C   0  0  0  0  0  0  0  0  0  0  0  0
   39.1250   22.0010   32.2520 C   0  0  0  0  0  0  0  0  0  0  0  0
   37.8200   22.4080   32.3230 N   0  0  0  0  0  0  0  0  0  0  0  0
   37.7380   23.3310   33.2810 C   0  0  0  0  0  0  0  0  0  0  0  0
   38.9140   23.5630   33.8540 N   0  0  0  0  0  0  0  0  0  0  0  0
   39.5730   21.2640   31.5930 H   0  0  0  0  0  0  0  0  0  0  0  0
   36.7310   23.7350   33.4340 H   0  0  0  0  0  0  0  0  0  0  0  0
   41.1770   22.6740   33.5450 C   0  0  0  0  0  0  0  0  0  0  0  0
   41.6120   21.8280   34.5870 C   0  0  0  0  0  0  0  0  0  0  0  0
   43.0010   21.7730   34.8510 C   0  0  0  0  0  0  0  0  0  0  0  0
   43.8180   22.5410   34.0810 N   0  0  0  0  0  0  0  0  0  0  0  0
   43.3570   23.3390   33.0920 C   0  0  0  0  0  0  0  0  0  0  0  0
   42.0460   23.4120   32.8170 N   0  0  0  0  0  0  0  0  0  0  0  0
   40.8800   21.2610   35.1380 H   0  0  0  0  0  0  0  0  0  0  0  0
   43.3480   21.1320   35.6420 H   0  0  0  0  0  0  0  0  0  0  0  0
   44.1370   23.8780   32.5800 H   0  0  0  0  0  0  0  0  0  0  0  0
   39.0930   24.5010   34.8990 C   0  0  1  0  0  0  0  0  0  0  0  0
   40.1560   25.4630   35.0110 C   0  0  0  0  0  0  0  0  0  0  0  0
   38.7400   25.9100   34.5430 C   0  0  1  0  0  0  0  0  0  0  0  0
   38.6690   24.1270   35.8980 H   0  0  0  0  0  0  0  0  0  0  0  0
   40.4800   25.8760   35.9790 H   0  0  0  0  0  0  0  0  0  0  0  0
   40.9220   25.5350   34.2380 H   0  0  0  0  0  0  0  0  0  0  0  0
   38.9200   26.5860   33.2190 C   0  0  0  0  0  0  0  0  0  0  0  0
   40.0440   27.0220   32.5800 N   0  0  0  0  0  0  0  0  0  0  0  0
   39.7170   27.5450   31.4560 O   0  0  0  0  0  0  0  0  0  0  0  0
   38.4190   27.5010   31.2670 C   0  0  0  0  0  0  0  0  0  0  0  0
   37.7010   27.7980   30.5140 H   0  0  0  0  0  0  0  0  0  0  0  0
   37.9000   26.8990   32.3720 N   0  0  0  0  0  0  0  0  0  0  0  0
   38.0580   26.7430   35.6070 C   0  0  0  0  0  0  0  0  0  0  0  0
   36.7040   26.8170   35.3530 F   0  0  0  0  0  0  0  0  0  0  0  0
   38.1250   26.0040   36.8640 F   0  0  0  0  0  0  0  0  0  0  0  0
   38.6400   27.9280   35.8400 F   0  0  0  0  0  0  0  0  0  0  0  0
  1  8  1  0  0  0  0
  1  5  1  0  0  0  0
  2  3  1  0  0  0  0
  2  1  2  0  0  0  0
  3  4  2  0  0  0  0
  4  7  1  0  0  0  0
  4  5  1  0  0  0  0
  5 17  1  0  0  0  0
  6  2  1  0  0  0  0
  8  9  1  0  0  0  0
  9 10  2  0  0  0  0
  9 14  1  0  0  0  0
 10 15  1  0  0  0  0
 11 10  1  0  0  0  0
 12 11  2  0  0  0  0
 13 12  1  0  0  0  0
 13  8  2  0  0  0  0
 16 12  1  0  0  0  0
 17 18  1  0  0  0  0
 17 20  1  1  0  0  0
 18 21  1  0  0  0  0
 19 17  1  0  0  0  0
 19 18  1  0  0  0  0
 19 29  1  1  0  0  0
 22 18  1  0  0  0  0
 23 19  1  0  0  0  0
 24 23  2  0  0  0  0
 25 24  1  0  0  0  0
 26 25  1  0  0  0  0
 26 28  2  0  0  0  0
 27 26  1  0  0  0  0
 28 23  1  0  0  0  0
 29 32  1  0  0  0  0
 29 31  1  0  0  0  0
 30 29  1  0  0  0  0
M  END
>  <minimizedAffinity>
-3.71226215

>  <minimizedRMSD>
5.11644077

$$$$
