
 OpenBabel03262520003D

 32 35  0  0  1  0  0  0  0  0999 V2000
   38.4520   23.5030   32.4700 C   0  0  0  0  0  0  0  0  0  0  0  0
   39.0190   22.7570   31.4410 C   0  0  0  0  0  0  0  0  0  0  0  0
   39.2910   21.5520   32.0280 N   0  0  0  0  0  0  0  0  0  0  0  0
   38.9000   21.6260   33.3000 C   0  0  0  0  0  0  0  0  0  0  0  0
   38.3820   22.8130   33.5950 N   0  0  0  0  0  0  0  0  0  0  0  0
   39.1970   23.0710   30.4170 H   0  0  0  0  0  0  0  0  0  0  0  0
   39.0690   20.7110   33.8800 H   0  0  0  0  0  0  0  0  0  0  0  0
   37.9960   24.8770   32.3320 C   0  0  0  0  0  0  0  0  0  0  0  0
   38.8920   25.9370   32.5870 C   0  0  0  0  0  0  0  0  0  0  0  0
   38.4060   27.2580   32.4340 C   0  0  0  0  0  0  0  0  0  0  0  0
   37.1100   27.4100   32.0510 N   0  0  0  0  0  0  0  0  0  0  0  0
   36.2870   26.3650   31.8160 C   0  0  0  0  0  0  0  0  0  0  0  0
   36.7170   25.1010   31.9520 N   0  0  0  0  0  0  0  0  0  0  0  0
   39.9010   25.7070   32.8870 H   0  0  0  0  0  0  0  0  0  0  0  0
   39.0770   28.0760   32.6250 H   0  0  0  0  0  0  0  0  0  0  0  0
   35.2940   26.6610   31.5200 H   0  0  0  0  0  0  0  0  0  0  0  0
   37.8900   23.1450   34.8810 C   0  0  1  0  0  0  0  0  0  0  0  0
   38.2570   22.5210   36.1230 C   0  0  0  0  0  0  0  0  0  0  0  0
   38.8470   23.9080   35.7390 C   0  0  1  0  0  0  0  0  0  0  0  0
   36.8220   23.5640   34.8440 H   0  0  0  0  0  0  0  0  0  0  0  0
   37.5950   22.5210   37.0030 H   0  0  0  0  0  0  0  0  0  0  0  0
   38.9930   21.7150   36.1430 H   0  0  0  0  0  0  0  0  0  0  0  0
   40.3370   23.7690   35.7870 C   0  0  0  0  0  0  0  0  0  0  0  0
   41.1460   23.0770   36.6410 N   0  0  0  0  0  0  0  0  0  0  0  0
   42.3690   23.2460   36.2970 O   0  0  0  0  0  0  0  0  0  0  0  0
   42.4680   24.0230   35.2430 C   0  0  0  0  0  0  0  0  0  0  0  0
   43.2440   24.4360   34.6130 H   0  0  0  0  0  0  0  0  0  0  0  0
   41.1920   24.3630   34.9080 N   0  0  0  0  0  0  0  0  0  0  0  0
   38.2710   25.0010   36.6150 C   0  0  0  0  0  0  0  0  0  0  0  0
   38.8920   26.2020   36.3410 F   0  0  0  0  0  0  0  0  0  0  0  0
   36.8920   25.2290   36.1960 F   0  0  0  0  0  0  0  0  0  0  0  0
   38.2180   24.6930   37.9190 F   0  0  0  0  0  0  0  0  0  0  0  0
  1  5  1  0  0  0  0
  2  3  1  0  0  0  0
  2  1  2  0  0  0  0
  3  4  2  0  0  0  0
  4  5  1  0  0  0  0
  4  7  1  0  0  0  0
  5 17  1  0  0  0  0
  6  2  1  0  0  0  0
  8  1  1  0  0  0  0
  8  9  1  0  0  0  0
  9 14  1  0  0  0  0
 10  9  2  0  0  0  0
 10 15  1  0  0  0  0
 11 10  1  0  0  0  0
 12 13  1  0  0  0  0
 12 11  2  0  0  0  0
 13  8  2  0  0  0  0
 16 12  1  0  0  0  0
 17 20  1  6  0  0  0
 17 19  1  0  0  0  0
 17 18  1  0  0  0  0
 18 22  1  0  0  0  0
 18 21  1  0  0  0  0
 19 23  1  0  0  0  0
 19 18  1  0  0  0  0
 19 29  1  1  0  0  0
 23 24  2  0  0  0  0
 25 24  1  0  0  0  0
 26 25  1  0  0  0  0
 27 26  1  0  0  0  0
 28 26  2  0  0  0  0
 28 23  1  0  0  0  0
 29 32  1  0  0  0  0
 30 29  1  0  0  0  0
 31 29  1  0  0  0  0
M  END
>  <minimizedAffinity>
-4.18967533

>  <minimizedRMSD>
3.72754622

$$$$
