
 OpenBabel03262519573D

 30 33  0  0  1  0  0  0  0  0999 V2000
   38.0830   23.7630   34.4500 C   0  0  0  0  0  0  0  0  0  0  0  0
   38.2750   24.9590   33.7760 C   0  0  0  0  0  0  0  0  0  0  0  0
   37.8200   24.6930   32.5130 N   0  0  0  0  0  0  0  0  0  0  0  0
   37.4030   23.4460   32.4770 C   0  0  0  0  0  0  0  0  0  0  0  0
   37.5530   22.8310   33.6760 N   0  0  0  0  0  0  0  0  0  0  0  0
   38.6850   25.9050   34.1230 H   0  0  0  0  0  0  0  0  0  0  0  0
   36.9930   23.0150   31.5560 H   0  0  0  0  0  0  0  0  0  0  0  0
   38.4220   23.5410   35.8560 C   0  0  0  0  0  0  0  0  0  0  0  0
   39.6430   22.9480   36.1960 C   0  0  0  0  0  0  0  0  0  0  0  0
   39.9310   22.7520   37.5640 C   0  0  0  0  0  0  0  0  0  0  0  0
   39.0160   23.1470   38.4620 N   0  0  0  0  0  0  0  0  0  0  0  0
   37.8400   23.7200   38.1000 C   0  0  0  0  0  0  0  0  0  0  0  0
   37.5420   23.9170   36.8040 N   0  0  0  0  0  0  0  0  0  0  0  0
   40.3540   22.6440   35.4500 H   0  0  0  0  0  0  0  0  0  0  0  0
   40.8530   22.3010   37.8930 H   0  0  0  0  0  0  0  0  0  0  0  0
   37.1220   24.0270   38.8490 H   0  0  0  0  0  0  0  0  0  0  0  0
   37.1830   21.4620   33.9340 C   0  0  1  0  0  0  0  0  0  0  0  0
   36.0170   21.0860   34.7180 C   0  0  0  0  0  0  0  0  0  0  0  0
   35.9000   21.0540   33.2190 C   0  0  2  0  0  0  0  0  0  0  0  0
   38.0500   20.7820   33.9350 H   0  0  0  0  0  0  0  0  0  0  0  0
   35.9920   20.1510   35.2950 H   0  0  0  0  0  0  0  0  0  0  0  0
   35.3620   21.8720   35.1780 H   0  0  0  0  0  0  0  0  0  0  0  0
   35.3050   21.8200   32.6920 H   0  0  0  0  0  0  0  0  0  0  0  0
   36.0450   19.7620   32.4930 C   0  0  0  0  0  0  0  0  0  0  0  0
   35.3840   18.6370   32.9640 C   0  0  0  0  0  3  0  0  0  0  0  0
   35.5480   17.4520   32.2530 C   0  0  0  0  0  0  0  0  0  0  0  0
   35.0280   16.5530   32.6170 H   0  0  0  0  0  0  0  0  0  0  0  0
   36.3080   17.3450   31.1410 N   0  0  0  0  0  0  0  0  0  0  0  0
   36.9290   18.4850   30.7320 C   0  0  0  0  0  3  0  0  0  0  0  0
   36.8050   19.6700   31.3880 N   0  0  0  0  0  0  0  0  0  0  0  0
  1  8  1  0  0  0  0
  2  6  1  0  0  0  0
  2  1  2  0  0  0  0
  3  2  1  0  0  0  0
  4  3  2  0  0  0  0
  4  5  1  0  0  0  0
  5 17  1  0  0  0  0
  5  1  1  0  0  0  0
  7  4  1  0  0  0  0
  8  9  2  0  0  0  0
  8 13  1  0  0  0  0
  9 10  1  0  0  0  0
 10 15  1  0  0  0  0
 10 11  2  0  0  0  0
 12 11  1  0  0  0  0
 12 16  1  0  0  0  0
 13 12  2  0  0  0  0
 14  9  1  0  0  0  0
 17 20  1  6  0  0  0
 17 18  1  0  0  0  0
 18 22  1  0  0  0  0
 18 21  1  0  0  0  0
 19 23  1  6  0  0  0
 19 17  1  0  0  0  0
 19 18  1  0  0  0  0
 24 25  1  0  0  0  0
 24 19  1  0  0  0  0
 26 27  1  0  0  0  0
 26 25  2  0  0  0  0
 28 26  1  0  0  0  0
 29 28  2  0  0  0  0
 29 30  1  0  0  0  0
 30 24  2  0  0  0  0
M  END
>  <minimizedAffinity>
-4.8646946

>  <minimizedRMSD>
0.869945347

$$$$
