
 OpenBabel03262520003D

 33 36  0  0  1  0  0  0  0  0999 V2000
   39.2880   24.7300   34.0980 C   0  0  1  0  0  0  0  0  0  0  0  0
   37.9100   24.5810   34.4780 C   0  0  0  0  0  0  0  0  0  0  0  0
   38.8950   23.3800   34.6000 C   0  0  1  0  0  0  0  0  0  0  0  0
   39.9020   25.3800   34.8020 H   0  0  0  0  0  0  0  0  0  0  0  0
   37.1040   24.4110   33.7500 H   0  0  0  0  0  0  0  0  0  0  0  0
   37.5160   25.0140   35.4240 H   0  0  0  0  0  0  0  0  0  0  0  0
   39.2230   24.9530   31.6090 C   0  0  0  0  0  0  0  0  0  0  0  0
   40.1380   24.8650   30.5610 C   0  0  0  0  0  0  0  0  0  0  0  0
   41.3180   24.5910   31.1840 N   0  0  0  0  0  0  0  0  0  0  0  0
   41.0800   24.5300   32.4940 C   0  0  0  0  0  0  0  0  0  0  0  0
   39.8020   24.7480   32.7780 N   0  0  0  0  0  0  0  0  0  0  0  0
   39.8790   24.9990   29.5270 H   0  0  0  0  0  0  0  0  0  0  0  0
   41.9690   24.3130   33.0860 H   0  0  0  0  0  0  0  0  0  0  0  0
   37.8070   25.2460   31.4430 C   0  0  0  0  0  0  0  0  0  0  0  0
   37.3490   26.5740   31.5750 C   0  0  0  0  0  0  0  0  0  0  0  0
   35.9680   26.8110   31.4000 C   0  0  0  0  0  0  0  0  0  0  0  0
   35.1750   25.7410   31.1200 N   0  0  0  0  0  0  0  0  0  0  0  0
   35.6580   24.4830   31.0030 C   0  0  0  0  0  0  0  0  0  0  0  0
   36.9660   24.2240   31.1620 N   0  0  0  0  0  0  0  0  0  0  0  0
   38.0750   27.3340   31.7990 H   0  0  0  0  0  0  0  0  0  0  0  0
   35.6190   27.8170   31.4980 H   0  0  0  0  0  0  0  0  0  0  0  0
   35.0260   23.6360   30.7800 H   0  0  0  0  0  0  0  0  0  0  0  0
   38.3130   22.2400   33.8140 C   0  0  0  0  0  0  0  0  0  0  0  0
   37.0250   21.7630   33.7050 C   0  0  0  0  0  3  0  0  0  0  0  0
   36.8020   20.6790   32.8840 C   0  0  0  0  0  0  0  0  0  0  0  0
   35.7470   20.3740   32.8630 H   0  0  0  0  0  0  0  0  0  0  0  0
   37.8030   20.0960   32.2050 N   0  0  0  0  0  0  0  0  0  0  0  0
   39.0410   20.5630   32.3180 C   0  0  0  0  0  3  0  0  0  0  0  0
   39.3080   21.6230   33.1090 N   0  0  0  0  0  0  0  0  0  0  0  0
   39.1810   23.0650   36.0510 C   0  0  0  0  0  0  0  0  0  0  0  0
   39.4040   21.7130   36.2070 F   0  0  0  0  0  0  0  0  0  0  0  0
   40.4780   23.6540   36.3830 F   0  0  0  0  0  0  0  0  0  0  0  0
   38.3090   23.5900   36.9210 F   0  0  0  0  0  0  0  0  0  0  0  0
  1  2  1  0  0  0  0
  1  3  1  0  0  0  0
  1  4  1  1  0  0  0
  2  3  1  0  0  0  0
  2  6  1  0  0  0  0
  3 30  1  1  0  0  0
  5  2  1  0  0  0  0
  7 11  1  0  0  0  0
  8  9  1  0  0  0  0
  8  7  2  0  0  0  0
  9 10  2  0  0  0  0
 10 11  1  0  0  0  0
 10 13  1  0  0  0  0
 11  1  1  0  0  0  0
 12  8  1  0  0  0  0
 14 15  1  0  0  0  0
 14  7  1  0  0  0  0
 15 20  1  0  0  0  0
 16 21  1  0  0  0  0
 16 15  2  0  0  0  0
 17 16  1  0  0  0  0
 18 17  2  0  0  0  0
 18 19  1  0  0  0  0
 19 14  2  0  0  0  0
 22 18  1  0  0  0  0
 23  3  1  0  0  0  0
 24 23  1  0  0  0  0
 25 24  2  0  0  0  0
 26 25  1  0  0  0  0
 27 28  2  0  0  0  0
 27 25  1  0  0  0  0
 28 29  1  0  0  0  0
 29 23  2  0  0  0  0
 30 31  1  0  0  0  0
 30 32  1  0  0  0  0
 30 33  1  0  0  0  0
M  END
>  <minimizedAffinity>
-4.24326897

>  <minimizedRMSD>
4.06715107

$$$$
