
 OpenBabel03262519343D

 22 24  0  0  0  0  0  0  0  0999 V2000
   41.6450   22.8190   34.6480 C   0  0  0  0  0  0  0  0  0  0  0  0
   42.3000   21.9730   34.3730 H   0  0  0  0  0  0  0  0  0  0  0  0
   40.8830   22.9390   33.8250 H   0  0  0  0  0  0  0  0  0  0  0  0
   40.9890   22.6290   35.9560 C   0  0  0  0  0  0  0  0  0  0  0  0
   41.3570   21.6850   36.9100 C   0  0  0  0  0  0  0  0  0  0  0  0
   40.5360   21.7940   37.9890 N   0  0  0  0  0  0  0  0  0  0  0  0
   39.6560   22.7960   37.7260 C   0  0  0  0  0  0  0  0  0  0  0  0
   38.6240   23.2860   38.5150 C   0  0  0  0  0  0  0  0  0  0  0  0
   37.8570   24.3280   38.0120 C   0  0  0  0  0  0  0  0  0  0  0  0
   38.1320   24.8540   36.7490 C   0  0  0  0  0  0  0  0  0  0  0  0
   39.1670   24.3580   35.9620 C   0  0  0  0  0  0  0  0  0  0  0  0
   39.9210   23.3280   36.4660 C   0  0  0  0  0  0  0  0  0  0  0  0
   40.6410   21.1730   38.8270 H   0  0  0  0  0  0  0  0  0  0  0  0
   44.2600   25.4330   35.5250 C   0  0  0  0  0  0  0  0  0  0  0  0
   43.5070   24.2590   35.5970 C   0  0  0  0  0  0  0  0  0  0  0  0
   42.5010   24.0470   34.6510 C   0  0  0  0  0  0  0  0  0  0  0  0
   42.3060   25.0170   33.6930 N   0  0  0  0  0  0  0  0  0  0  0  0
   43.0530   26.1390   33.6540 C   0  0  0  0  0  0  0  0  0  0  0  0
   44.0220   26.3440   34.5640 N   0  0  0  0  0  0  0  0  0  0  0  0
   45.0160   25.5320   36.2840 H   0  0  0  0  0  0  0  0  0  0  0  0
   43.6560   23.5060   36.3380 H   0  0  0  0  0  0  0  0  0  0  0  0
   42.8170   26.8450   32.8520 H   0  0  0  0  0  0  0  0  0  0  0  0
  1 16  1  0  0  0  0
  1  4  1  0  0  0  0
  2  1  1  0  0  0  0
  3  1  1  0  0  0  0
  4 12  1  0  0  0  0
  4  5  2  0  0  0  0
  5  6  1  0  0  0  0
  6 13  1  0  0  0  0
  7  6  1  0  0  0  0
  7  8  1  0  0  0  0
  9  8  2  0  0  0  0
 10  9  1  0  0  0  0
 11 12  1  0  0  0  0
 11 10  2  0  0  0  0
 12  7  2  0  0  0  0
 14 15  1  0  0  0  0
 14 20  1  0  0  0  0
 15 21  1  0  0  0  0
 16 15  2  0  0  0  0
 17 16  1  0  0  0  0
 18 17  2  0  0  0  0
 18 19  1  0  0  0  0
 19 14  2  0  0  0  0
 22 18  1  0  0  0  0
M  END
>  <minimizedAffinity>
-4.72909021

>  <minimizedRMSD>
5.21085596

$$$$
