
 OpenBabel03262513023D

 46 50  0  0  1  0  0  0  0  0999 V2000
   38.2030   25.8070   34.8220 C   0  0  0  0  0  0  0  0  0  0  0  0
   37.1790   26.6690   35.1460 C   0  0  0  0  0  0  0  0  0  0  0  0
   36.9090   27.5480   34.1380 C   0  0  0  0  0  0  0  0  0  0  0  0
   37.7780   27.2150   33.1960 N   0  0  0  0  0  0  0  0  0  0  0  0
   38.5380   26.2040   33.5790 N   0  0  0  0  0  0  0  0  0  0  0  0
   36.6580   26.6240   36.1180 H   0  0  0  0  0  0  0  0  0  0  0  0
   36.1760   28.3400   34.0750 H   0  0  0  0  0  0  0  0  0  0  0  0
   40.0390   23.1080   36.2470 C   0  0  0  0  0  0  0  0  0  0  0  0
   39.0910   23.3180   37.2420 C   0  0  0  0  0  0  0  0  0  0  0  0
   38.3120   24.3450   36.8150 N   0  0  0  0  0  0  0  0  0  0  0  0
   38.8050   24.7120   35.6050 C   0  0  0  0  0  0  0  0  0  0  0  0
   39.8320   23.9970   35.2380 N   0  0  0  0  0  0  0  0  0  0  0  0
   38.9580   22.7980   38.1800 H   0  0  0  0  0  0  0  0  0  0  0  0
   40.4260   24.0320   34.3740 H   0  0  0  0  0  0  0  0  0  0  0  0
   42.4000   20.5600   37.5710 C   0  0  0  0  0  0  0  0  0  0  0  0
   41.4010   21.5390   37.5460 C   0  0  0  0  0  0  0  0  0  0  0  0
   41.0820   22.0830   36.3010 C   0  0  0  0  0  0  0  0  0  0  0  0
   41.7430   21.6500   35.1700 N   0  0  0  0  0  0  0  0  0  0  0  0
   42.6840   20.7110   35.2820 C   0  0  0  0  0  0  0  0  0  0  0  0
   43.0160   20.1700   36.4360 N   0  0  0  0  0  0  0  0  0  0  0  0
   42.6100   20.1670   38.5690 H   0  0  0  0  0  0  0  0  0  0  0  0
   40.8910   21.8690   38.4450 H   0  0  0  0  0  0  0  0  0  0  0  0
   43.2380   20.3300   34.4280 H   0  0  0  0  0  0  0  0  0  0  0  0
   38.0100   27.7590   31.8900 C   0  0  1  0  0  0  0  0  0  0  0  0
   37.8860   28.8390   31.8970 H   0  0  0  0  0  0  0  0  0  0  0  0
   39.4630   27.4680   31.4830 C   0  0  0  0  0  0  0  0  0  0  0  0
   39.6740   27.6390   30.4430 H   0  0  0  0  0  0  0  0  0  0  0  0
   40.0030   28.3430   31.9880 H   0  0  0  0  0  0  0  0  0  0  0  0
   39.8750   26.6250   32.0170 H   0  0  0  0  0  0  0  0  0  0  0  0
   37.1610   27.2000   30.8300 C   0  0  0  0  0  0  0  0  0  0  0  0
   37.8560   27.1270   29.9250 H   0  0  0  0  0  0  0  0  0  0  0  0
   36.4770   28.0030   30.5160 H   0  0  0  0  0  0  0  0  0  0  0  0
   36.5570   25.9520   30.9200 N   0  0  0  0  0  0  0  0  0  0  0  0
   35.2110   25.8000   31.1090 C   0  0  0  0  0  0  0  0  0  0  0  0
   34.8380   24.4830   31.1430 C   0  0  0  0  0  0  0  0  0  0  0  0
   35.9980   23.7970   30.9700 N   0  0  0  0  0  0  0  0  0  0  0  0
   36.9580   24.7010   30.8450 C   0  0  0  0  0  0  0  0  0  0  0  0
   34.4780   26.6180   31.2240 H   0  0  0  0  0  0  0  0  0  0  0  0
   33.8010   24.1360   31.2850 H   0  0  0  0  0  0  0  0  0  0  0  0
   38.2370   24.0560   30.6130 C   0  0  0  0  0  0  0  0  0  0  0  0
   39.1010   24.0870   29.5090 C   0  0  0  0  0  0  0  0  0  0  0  0
   40.2830   23.3810   29.5700 C   0  0  0  0  0  0  0  0  0  0  0  0
   40.8620   23.4740   28.6800 H   0  0  0  0  0  0  0  0  0  0  0  0
   40.5770   22.6830   30.6800 N   0  0  0  0  0  0  0  0  0  0  0  0
   39.7660   22.6360   31.7510 C   0  0  0  0  0  0  0  0  0  0  0  0
   38.6190   23.3300   31.6750 N   0  0  0  0  0  0  0  0  0  0  0  0
  1  2  1  0  0  0  0
  1 11  1  0  0  0  0
  2  6  1  0  0  0  0
  3  2  2  0  0  0  0
  4  5  1  0  0  0  0
  4  3  1  0  0  0  0
  5  1  2  0  0  0  0
  7  3  1  0  0  0  0
  8 17  1  0  0  0  0
  8  9  2  0  0  0  0
  9 13  1  0  0  0  0
 10  9  1  0  0  0  0
 11 10  2  0  0  0  0
 12 11  1  0  0  0  0
 12  8  1  0  0  0  0
 14 12  1  0  0  0  0
 15 21  1  0  0  0  0
 16 15  1  0  0  0  0
 16 22  1  0  0  0  0
 17 16  2  0  0  0  0
 18 19  2  0  0  0  0
 18 17  1  0  0  0  0
 19 20  1  0  0  0  0
 20 15  2  0  0  0  0
 23 19  1  0  0  0  0
 24 25  1  1  0  0  0
 24  4  1  0  0  0  0
 26 24  1  0  0  0  0
 26 28  1  0  0  0  0
 26 29  1  0  0  0  0
 27 26  1  0  0  0  0
 30 33  1  0  0  0  0
 30 24  1  0  0  0  0
 31 30  1  0  0  0  0
 32 30  1  0  0  0  0
 33 34  1  0  0  0  0
 34 35  2  0  0  0  0
 34 38  1  0  0  0  0
 35 39  1  0  0  0  0
 36 35  1  0  0  0  0
 37 33  1  0  0  0  0
 37 36  2  0  0  0  0
 40 37  1  0  0  0  0
 40 46  1  0  0  0  0
 41 42  1  0  0  0  0
 41 40  2  0  0  0  0
 42 44  2  0  0  0  0
 43 42  1  0  0  0  0
 44 45  1  0  0  0  0
 46 45  2  0  0  0  0
M  END
>  <minimizedAffinity>
-5.17139292

>  <minimizedRMSD>
1.25572026

$$$$
