
     RDKit          3D

 32 35  0  0  0  0  0  0  0  0999 V2000
   38.0266   23.4712   34.6169 C   0  0  0  0  0  0  0  0  0  0  0  0
   38.2659   24.5650   33.7988 C   0  0  0  0  0  0  0  0  0  0  0  0
   37.7681   24.1733   32.5864 N   0  0  0  0  0  0  0  0  0  0  0  0
   37.2861   22.9565   32.7088 C   0  0  0  0  0  0  0  0  0  0  0  0
   37.4312   22.4828   33.9714 N   0  0  0  0  0  0  0  0  0  0  0  0
   38.3859   23.4033   36.0340 C   0  0  0  0  0  0  0  0  0  0  0  0
   39.5916   22.8080   36.4207 C   0  0  0  0  0  0  0  0  0  0  0  0
   39.9010   22.7627   37.7976 C   0  0  0  0  0  0  0  0  0  0  0  0
   39.0188   23.2943   38.6576 N   0  0  0  0  0  0  0  0  0  0  0  0
   37.8567   23.8651   38.2503 C   0  0  0  0  0  0  0  0  0  0  0  0
   37.5397   23.9204   36.9448 N   0  0  0  0  0  0  0  0  0  0  0  0
   36.9958   21.1781   34.4001 C   0  0  1  0  0  0  0  0  0  0  0  0
   35.8341   20.9644   35.2489 C   0  0  0  0  0  0  0  0  0  0  0  0
   35.6736   20.7599   33.7677 C   0  0  2  0  0  0  0  0  0  0  0  0
   38.7321   25.5220   34.0206 H   0  0  0  0  0  0  0  0  0  0  0  0
   36.8331   22.4399   31.8537 H   0  0  0  0  0  0  0  0  0  0  0  0
   40.2757   22.3917   35.7054 H   0  0  0  0  0  0  0  0  0  0  0  0
   40.8129   22.3186   38.1631 H   0  0  0  0  0  0  0  0  0  0  0  0
   37.1658   24.2853   38.9691 H   0  0  0  0  0  0  0  0  0  0  0  0
   37.8261   20.4553   34.4655 H   0  0  0  0  0  0  0  0  0  0  0  0
   35.7758   20.1073   35.9348 H   0  0  0  0  0  0  0  0  0  0  0  0
   35.2353   21.8353   35.6248 H   0  0  0  0  0  0  0  0  0  0  0  0
   35.1060   21.4904   33.1648 H   0  0  0  0  0  0  0  0  0  0  0  0
   35.7291   19.3852   33.1995 C   0  0  0  0  0  0  0  0  0  0  0  0
   34.5488   18.6863   32.9875 C   0  0  0  0  0  0  0  0  0  0  0  0
   34.6491   17.4048   32.4548 C   0  0  0  0  0  0  0  0  0  0  0  0
   33.7202   16.8414   32.2824 H   0  0  0  0  0  0  0  0  0  0  0  0
   35.8224   16.8149   32.1379 N   0  0  0  0  0  0  0  0  0  0  0  0
   36.9427   17.5540   32.3702 C   0  0  0  0  0  0  0  0  0  0  0  0
   36.9052   18.8106   32.8888 N   0  0  0  0  0  0  0  0  0  0  0  0
   33.5610   19.1025   33.2213 H   0  0  0  0  0  0  0  0  0  0  0  0
   37.9498   17.1697   32.1483 H   0  0  0  0  0  0  0  0  0  0  0  0
  1  6  1  0
  2  1  2  0
  3  4  2  0
  3  2  1  0
  4  5  1  0
  5 12  1  0
  5  1  1  0
  6  7  2  0
  6 11  1  0
  7  8  1  0
  8  9  2  0
 10  9  1  0
 11 10  2  0
 12 13  1  0
 14 12  1  0
 14 13  1  0
  2 15  1  0
  4 16  1  0
  7 17  1  0
  8 18  1  0
 10 19  1  0
 12 20  1  1
 13 21  1  0
 13 22  1  0
 14 23  1  6
 24 25  2  0
 25 26  1  0
 26 27  1  0
 26 28  2  0
 28 29  1  0
 29 30  2  0
 30 24  1  0
 25 31  1  0
 29 32  1  0
 14 24  1  0
M  ISO  8  15  14  16  14  17  14  18  14  19  14  20  13  21  13  22  13
M  ISO  2  23  13  27  14
M  END
>  <DihAtoms>  (1) 
11,13,23,24

>  <DihDeg>  (1) 
39.10101958495014

$$$$
