
 OpenBabel03262514223D

 27 29  0  0  0  0  0  0  0  0999 V2000
   37.3370   22.3670   33.3820 C   0  0  0  0  0  0  0  0  0  0  0  0
   36.7930   21.2650   33.9790 C   0  0  0  0  0  0  0  0  0  0  0  0
   35.6500   20.6560   33.5100 C   0  0  0  0  0  0  0  0  0  0  0  0
   35.0090   21.1720   32.3790 C   0  0  0  0  0  0  0  0  0  0  0  0
   35.5830   22.2850   31.8000 C   0  0  0  0  0  0  0  0  0  0  0  0
   36.7090   22.8910   32.2560 C   0  0  0  0  0  0  0  0  0  0  0  0
   37.2780   20.8550   34.8550 H   0  0  0  0  0  0  0  0  0  0  0  0
   35.2650   19.7880   34.0220 H   0  0  0  0  0  0  0  0  0  0  0  0
   34.1020   20.7060   31.9900 H   0  0  0  0  0  0  0  0  0  0  0  0
   35.0790   22.6630   30.9390 H   0  0  0  0  0  0  0  0  0  0  0  0
   37.3130   24.0690   31.6400 C   0  0  0  0  0  0  0  0  0  0  0  0
   38.2680   24.0050   30.6680 C   0  0  0  0  0  0  0  0  0  0  0  0
   38.8640   25.0940   30.0620 C   0  0  0  0  0  0  0  0  0  0  0  0
   39.6280   24.9730   29.2830 H   0  0  0  0  0  0  0  0  0  0  0  0
   38.4380   26.3120   30.4940 N   0  0  0  0  0  0  0  0  0  0  0  0
   37.5000   26.4300   31.4490 C   0  0  0  0  0  0  0  0  0  0  0  0
   36.9670   25.3230   31.9910 N   0  0  0  0  0  0  0  0  0  0  0  0
   38.8400   23.1660   34.0020 S   0  0  0  0  0  0  0  0  0  0  0  0
   39.7520   22.7790   37.8420 C   0  0  0  0  0  0  0  0  0  0  0  0
   38.7320   23.4180   38.5260 C   0  0  0  0  0  0  0  0  0  0  0  0
   37.7170   23.9950   37.7740 C   0  0  0  0  0  0  0  0  0  0  0  0
   37.7700   23.9070   36.4120 N   0  0  0  0  0  0  0  0  0  0  0  0
   38.7710   23.2800   35.7710 C   0  0  0  0  0  0  0  0  0  0  0  0
   39.7670   22.7130   36.5000 N   0  0  0  0  0  0  0  0  0  0  0  0
   40.5160   22.3470   38.4720 H   0  0  0  0  0  0  0  0  0  0  0  0
   38.6400   23.5170   39.6000 H   0  0  0  0  0  0  0  0  0  0  0  0
   36.8720   24.5190   38.2010 H   0  0  0  0  0  0  0  0  0  0  0  0
  1  2  1  0  0  0  0
  1 18  1  0  0  0  0
  2  7  1  0  0  0  0
  3  2  2  0  0  0  0
  3  8  1  0  0  0  0
  4  3  1  0  0  0  0
  5  6  1  0  0  0  0
  5  4  2  0  0  0  0
  6  1  2  0  0  0  0
  9  4  1  0  0  0  0
 10  5  1  0  0  0  0
 11 17  1  0  0  0  0
 11  6  1  0  0  0  0
 12 11  2  0  0  0  0
 13 15  2  0  0  0  0
 13 12  1  0  0  0  0
 14 13  1  0  0  0  0
 15 16  1  0  0  0  0
 16 17  2  0  0  0  0
 18 23  1  0  0  0  0
 19 25  1  0  0  0  0
 19 20  1  0  0  0  0
 20 26  1  0  0  0  0
 21 27  1  0  0  0  0
 21 20  2  0  0  0  0
 22 21  1  0  0  0  0
 23 22  2  0  0  0  0
 23 24  1  0  0  0  0
 24 19  2  0  0  0  0
M  END
>  <minimizedAffinity>
-4.99129391

>  <minimizedRMSD>
0.527962744

$$$$
