
 OpenBabel03262519573D

 30 33  0  0  1  0  0  0  0  0999 V2000
   38.0830   23.7630   34.4490 C   0  0  0  0  0  0  0  0  0  0  0  0
   38.2750   24.9590   33.7750 C   0  0  0  0  0  0  0  0  0  0  0  0
   37.8200   24.6930   32.5130 N   0  0  0  0  0  0  0  0  0  0  0  0
   37.4030   23.4460   32.4760 C   0  0  0  0  0  0  0  0  0  0  0  0
   37.5530   22.8310   33.6750 N   0  0  0  0  0  0  0  0  0  0  0  0
   38.6840   25.9050   34.1220 H   0  0  0  0  0  0  0  0  0  0  0  0
   36.9930   23.0160   31.5550 H   0  0  0  0  0  0  0  0  0  0  0  0
   38.4220   23.5410   35.8550 C   0  0  0  0  0  0  0  0  0  0  0  0
   39.6430   22.9490   36.1940 C   0  0  0  0  0  0  0  0  0  0  0  0
   39.9320   22.7530   37.5630 C   0  0  0  0  0  0  0  0  0  0  0  0
   39.0170   23.1460   38.4610 N   0  0  0  0  0  0  0  0  0  0  0  0
   37.8400   23.7190   38.0990 C   0  0  0  0  0  0  0  0  0  0  0  0
   37.5420   23.9160   36.8030 N   0  0  0  0  0  0  0  0  0  0  0  0
   40.3540   22.6450   35.4490 H   0  0  0  0  0  0  0  0  0  0  0  0
   40.8540   22.3020   37.8910 H   0  0  0  0  0  0  0  0  0  0  0  0
   37.1220   24.0260   38.8480 H   0  0  0  0  0  0  0  0  0  0  0  0
   37.1830   21.4630   33.9320 C   0  0  1  0  0  0  0  0  0  0  0  0
   36.0180   21.0860   34.7180 C   0  0  0  0  0  0  0  0  0  0  0  0
   35.9000   21.0540   33.2190 C   0  0  2  0  0  0  0  0  0  0  0  0
   38.0510   20.7820   33.9330 H   0  0  0  0  0  0  0  0  0  0  0  0
   35.9940   20.1500   35.2940 H   0  0  0  0  0  0  0  0  0  0  0  0
   35.3630   21.8720   35.1790 H   0  0  0  0  0  0  0  0  0  0  0  0
   35.3040   21.8210   32.6930 H   0  0  0  0  0  0  0  0  0  0  0  0
   36.0440   19.7630   32.4920 C   0  0  0  0  0  0  0  0  0  0  0  0
   35.3840   18.6370   32.9640 C   0  0  0  0  0  3  0  0  0  0  0  0
   35.5490   17.4530   32.2530 C   0  0  0  0  0  0  0  0  0  0  0  0
   35.0300   16.5530   32.6180 H   0  0  0  0  0  0  0  0  0  0  0  0
   36.3070   17.3460   31.1400 N   0  0  0  0  0  0  0  0  0  0  0  0
   36.9270   18.4870   30.7310 C   0  0  0  0  0  3  0  0  0  0  0  0
   36.8040   19.6720   31.3860 N   0  0  0  0  0  0  0  0  0  0  0  0
  1  8  1  0  0  0  0
  2  6  1  0  0  0  0
  2  1  2  0  0  0  0
  3  2  1  0  0  0  0
  4  3  2  0  0  0  0
  4  5  1  0  0  0  0
  5 17  1  0  0  0  0
  5  1  1  0  0  0  0
  7  4  1  0  0  0  0
  8  9  2  0  0  0  0
  8 13  1  0  0  0  0
  9 10  1  0  0  0  0
 10 15  1  0  0  0  0
 10 11  2  0  0  0  0
 12 11  1  0  0  0  0
 12 16  1  0  0  0  0
 13 12  2  0  0  0  0
 14  9  1  0  0  0  0
 17 20  1  6  0  0  0
 17 18  1  0  0  0  0
 18 22  1  0  0  0  0
 18 21  1  0  0  0  0
 19 23  1  6  0  0  0
 19 17  1  0  0  0  0
 19 18  1  0  0  0  0
 24 25  1  0  0  0  0
 24 19  1  0  0  0  0
 26 27  1  0  0  0  0
 26 25  2  0  0  0  0
 28 26  1  0  0  0  0
 29 28  2  0  0  0  0
 29 30  1  0  0  0  0
 30 24  2  0  0  0  0
M  END
>  <minimizedAffinity>
-4.86438847

>  <minimizedRMSD>
0.688223481

$$$$
