
 OpenBabel03262519483D

 39 42  0  0  1  0  0  0  0  0999 V2000
   37.3710   25.6920   32.8850 N   0  0  0  0  0  0  0  0  0  0  0  0
   36.8650   24.5810   32.3470 C   0  0  0  0  0  0  0  0  0  0  0  0
   35.8450   24.8040   31.4520 C   0  0  0  0  0  0  0  0  0  0  0  0
   35.7090   26.1260   31.4340 N   0  0  0  0  0  0  0  0  0  0  0  0
   36.6270   26.6660   32.2950 C   0  0  0  0  0  0  0  0  0  0  0  0
   37.2520   23.5850   32.6150 H   0  0  0  0  0  0  0  0  0  0  0  0
   35.3300   24.0210   30.9330 H   0  0  0  0  0  0  0  0  0  0  0  0
   36.7140   28.1730   32.4490 C   0  0  1  0  0  0  0  0  0  0  0  0
   35.7480   28.9660   31.6570 C   0  0  0  0  0  0  0  0  0  0  0  0
   35.5280   28.8210   33.1450 C   0  0  2  0  0  0  0  0  0  0  0  0
   37.6860   28.5710   32.7890 H   0  0  0  0  0  0  0  0  0  0  0  0
   36.1240   29.9130   31.2250 H   0  0  0  0  0  0  0  0  0  0  0  0
   35.0340   28.4190   31.0090 H   0  0  0  0  0  0  0  0  0  0  0  0
   34.7410   28.1530   33.4940 H   0  0  0  0  0  0  0  0  0  0  0  0
   35.6940   30.0890   33.8560 C   0  0  0  0  0  0  0  0  0  0  0  0
   35.6350   31.3220   33.2350 C   0  0  0  0  0  0  0  0  0  0  0  0
   35.7840   32.5480   33.8600 C   0  0  0  0  0  0  0  0  0  0  0  0
   35.7180   33.4640   33.2620 H   0  0  0  0  0  0  0  0  0  0  0  0
   36.0080   32.5420   35.2050 N   0  0  0  0  0  0  0  0  0  0  0  0
   36.0670   31.3360   35.8270 C   0  0  0  0  0  0  0  0  0  0  0  0
   35.9150   30.1710   35.1710 N   0  0  0  0  0  0  0  0  0  0  0  0
   38.3860   25.9750   33.8250 C   0  0  0  0  0  0  0  0  0  0  0  0
   38.9450   26.9120   33.5580 H   0  0  0  0  0  0  0  0  0  0  0  0
   39.1620   25.1730   33.7460 H   0  0  0  0  0  0  0  0  0  0  0  0
   37.9070   25.9970   35.2280 C   0  0  1  0  0  0  0  0  0  0  0  0
   36.7890   25.8800   35.2770 H   0  0  0  0  0  0  0  0  0  0  0  0
   38.5100   23.5320   38.0340 C   0  0  0  0  0  0  0  0  0  0  0  0
   37.9050   24.5890   37.3330 C   0  0  0  0  0  0  0  0  0  0  0  0
   38.4730   24.9160   36.0650 C   0  0  0  0  0  0  0  0  0  0  0  0
   39.5610   24.1950   35.6020 N   0  0  0  0  0  0  0  0  0  0  0  0
   40.0980   23.2030   36.3000 C   0  0  0  0  0  0  0  0  0  0  0  0
   39.5630   22.8660   37.5350 N   0  0  0  0  0  0  0  0  0  0  0  0
   38.0870   23.2770   38.9930 H   0  0  0  0  0  0  0  0  0  0  0  0
   37.0570   25.1550   37.6870 H   0  0  0  0  0  0  0  0  0  0  0  0
   40.9460   22.6270   35.9610 H   0  0  0  0  0  0  0  0  0  0  0  0
   38.1940   27.3510   35.8630 C   0  0  0  0  0  0  0  0  0  0  0  0
   38.3740   28.1290   35.1010 H   0  0  0  0  0  0  0  0  0  0  0  0
   37.3710   27.6450   36.5560 H   0  0  0  0  0  0  0  0  0  0  0  0
   39.1200   27.2980   36.4890 H   0  0  0  0  0  0  0  0  0  0  0  0
  1 22  1  0  0  0  0
  2  6  1  0  0  0  0
  2  1  1  0  0  0  0
  3  2  2  0  0  0  0
  4  3  1  0  0  0  0
  4  5  2  0  0  0  0
  5  8  1  0  0  0  0
  5  1  1  0  0  0  0
  7  3  1  0  0  0  0
  8 11  1  1  0  0  0
  8 10  1  0  0  0  0
  9  8  1  0  0  0  0
  9 10  1  0  0  0  0
 10 14  1  1  0  0  0
 10 15  1  0  0  0  0
 12  9  1  0  0  0  0
 13  9  1  0  0  0  0
 15 21  1  0  0  0  0
 16 15  2  0  0  0  0
 16 17  1  0  0  0  0
 17 19  2  0  0  0  0
 18 17  1  0  0  0  0
 19 20  1  0  0  0  0
 21 20  2  0  0  0  0
 22 25  1  0  0  0  0
 23 22  1  0  0  0  0
 24 22  1  0  0  0  0
 25 26  1  6  0  0  0
 25 36  1  0  0  0  0
 25 29  1  0  0  0  0
 27 33  1  0  0  0  0
 28 34  1  0  0  0  0
 28 27  2  0  0  0  0
 29 28  1  0  0  0  0
 30 29  2  0  0  0  0
 30 31  1  0  0  0  0
 31 32  2  0  0  0  0
 32 27  1  0  0  0  0
 35 31  1  0  0  0  0
 36 39  1  0  0  0  0
 36 38  1  0  0  0  0
 37 36  1  0  0  0  0
M  END
>  <minimizedAffinity>
-5.53781652

>  <minimizedRMSD>
0.695525587

$$$$
