
 OpenBabel03262518233D

 23 24  0  0  0  0  0  0  0  0999 V2000
   39.7720   23.0430   36.9780 C   0  0  0  0  0  0  0  0  0  0  0  0
   39.2220   23.8600   35.9860 C   0  0  0  0  0  0  0  0  0  0  0  0
   38.1660   24.7010   36.3860 C   0  0  0  0  0  0  0  0  0  0  0  0
   37.7580   24.6660   37.6890 N   0  0  0  0  0  0  0  0  0  0  0  0
   38.3240   23.8600   38.5990 C   0  0  0  0  0  0  0  0  0  0  0  0
   39.3310   23.0490   38.2410 N   0  0  0  0  0  0  0  0  0  0  0  0
   39.5520   23.8810   34.9540 H   0  0  0  0  0  0  0  0  0  0  0  0
   38.0230   23.8110   39.6320 H   0  0  0  0  0  0  0  0  0  0  0  0
   37.5140   25.5870   35.4720 N   0  0  0  0  0  0  0  0  0  0  0  0
   37.9690   26.9370   35.3700 C   0  0  0  0  0  0  0  0  0  0  0  0
   38.6160   27.5040   36.3350 N   0  0  0  0  0  0  0  0  0  0  0  0
   37.6730   27.6060   34.1630 N   0  0  0  0  0  0  0  0  0  0  0  0
   38.9640   28.4800   36.3150 H   0  0  0  0  0  0  0  0  0  0  0  0
   36.7320   25.1870   34.9260 H   0  0  0  0  0  0  0  0  0  0  0  0
   38.3100   27.3860   33.3510 H   0  0  0  0  0  0  0  0  0  0  0  0
   36.8940   28.2970   33.9810 H   0  0  0  0  0  0  0  0  0  0  0  0
   40.8630   22.1590   36.6050 C   0  0  0  0  0  0  0  0  0  0  0  0
   41.6340   21.3910   37.4530 C   0  0  0  0  0  0  0  0  0  0  0  0
   42.5850   20.6720   36.7340 C   0  0  0  0  0  0  0  0  0  0  0  0
   43.3430   19.9830   37.0670 H   0  0  0  0  0  0  0  0  0  0  0  0
   42.3500   21.0390   35.4460 N   0  0  0  0  0  0  0  0  0  0  0  0
   41.3480   21.9040   35.3770 N   0  0  0  0  0  0  0  0  0  0  0  0
   42.8810   20.6960   34.5970 H   0  0  0  0  0  0  0  0  0  0  0  0
  1  6  1  0  0  0  0
  2  3  1  0  0  0  0
  2  1  2  0  0  0  0
  3  4  2  0  0  0  0
  4  5  1  0  0  0  0
  5  8  1  0  0  0  0
  6  5  2  0  0  0  0
  7  2  1  0  0  0  0
  9  3  1  0  0  0  0
 10  9  1  0  0  0  0
 10 11  2  0  0  0  0
 12 10  1  0  0  0  0
 13 11  1  0  0  0  0
 14  9  1  0  0  0  0
 15 12  1  0  0  0  0
 16 12  1  0  0  0  0
 17  1  1  0  0  0  0
 17 18  1  0  0  0  0
 19 20  1  0  0  0  0
 19 18  2  0  0  0  0
 21 19  1  0  0  0  0
 22 21  1  0  0  0  0
 22 17  2  0  0  0  0
 23 21  1  0  0  0  0
M  END
>  <minimizedAffinity>
-4.49477243

>  <minimizedRMSD>
0.706834316

$$$$
