
 OpenBabel03262519433D

 28 30  0  0  1  0  0  0  0  0999 V2000
   38.1540   24.5500   36.9790 C   0  0  1  0  0  0  0  0  0  0  0  0
   37.3210   24.2910   36.2550 H   0  0  0  0  0  0  0  0  0  0  0  0
   40.9210   21.9890   37.3800 C   0  0  0  0  0  0  0  0  0  0  0  0
   39.9280   22.9210   37.7170 C   0  0  0  0  0  0  0  0  0  0  0  0
   39.2060   23.5630   36.6760 C   0  0  0  0  0  0  0  0  0  0  0  0
   39.5330   23.2250   35.3840 N   0  0  0  0  0  0  0  0  0  0  0  0
   40.4840   22.3330   35.0940 C   0  0  0  0  0  0  0  0  0  0  0  0
   41.1810   21.7130   36.0930 N   0  0  0  0  0  0  0  0  0  0  0  0
   41.4610   21.5100   38.1860 H   0  0  0  0  0  0  0  0  0  0  0  0
   39.7170   23.1430   38.7550 H   0  0  0  0  0  0  0  0  0  0  0  0
   40.7100   22.0970   34.0690 H   0  0  0  0  0  0  0  0  0  0  0  0
   37.6720   24.4460   38.4090 C   0  0  0  0  0  0  0  0  0  0  0  0
   37.0670   25.3460   38.6940 H   0  0  0  0  0  0  0  0  0  0  0  0
   36.9220   23.6050   38.4850 H   0  0  0  0  0  0  0  0  0  0  0  0
   38.4730   24.3990   39.1370 H   0  0  0  0  0  0  0  0  0  0  0  0
   38.5960   25.9710   36.7310 C   0  0  0  0  0  0  0  0  0  0  0  0
   38.0870   26.6510   37.4170 H   0  0  0  0  0  0  0  0  0  0  0  0
   39.6930   25.9950   36.9330 H   0  0  0  0  0  0  0  0  0  0  0  0
   38.3480   26.3790   35.3370 C   0  0  0  0  0  0  0  0  0  0  0  0
   37.0920   26.5140   34.7650 C   0  0  0  0  0  0  0  0  0  0  0  0
   36.8260   26.9070   33.4850 C   0  0  0  0  0  0  0  0  0  0  0  0
   37.8850   27.2040   32.6550 C   0  0  0  0  0  0  0  0  0  0  0  0
   39.1720   27.0970   33.1420 C   0  0  0  0  0  0  0  0  0  0  0  0
   40.2060   27.3890   32.2910 C   0  0  0  0  0  0  0  0  0  0  0  0
   41.5090   27.2860   32.7210 C   0  0  0  0  0  0  0  0  0  0  0  0
   41.7560   26.8840   34.0160 C   0  0  0  0  0  0  0  0  0  0  0  0
   40.6740   26.6030   34.8310 C   0  0  0  0  0  0  0  0  0  0  0  0
   39.3530   26.6930   34.4470 C   0  0  0  0  0  0  0  0  0  0  0  0
  1  2  1  6  0  0  0
  1 12  1  0  0  0  0
  3  4  1  0  0  0  0
  3  9  1  0  0  0  0
  4 10  1  0  0  0  0
  5  1  1  0  0  0  0
  5  4  2  0  0  0  0
  6  5  1  0  0  0  0
  7  6  2  0  0  0  0
  7  8  1  0  0  0  0
  8  3  2  0  0  0  0
 11  7  1  0  0  0  0
 12 14  1  0  0  0  0
 12 13  1  0  0  0  0
 12 15  1  0  0  0  0
 16 18  1  0  0  0  0
 16  1  1  0  0  0  0
 16 17  1  0  0  0  0
 19 16  1  0  0  0  0
 20 19  1  0  0  0  0
 21 20  2  0  0  0  0
 22 23  2  0  0  0  0
 22 21  1  0  0  0  0
 23 28  1  0  0  0  0
 24 25  2  0  0  0  0
 24 23  1  0  0  0  0
 25 26  1  0  0  0  0
 26 27  2  0  0  0  0
 28 27  1  0  0  0  0
 28 19  2  0  0  0  0
M  END
>  <minimizedAffinity>
-5.15708685

>  <minimizedRMSD>
1.21319926

$$$$
