
 OpenBabel03262519343D

 22 24  0  0  0  0  0  0  0  0999 V2000
   37.7630   25.1630   34.1840 C   0  0  0  0  0  0  0  0  0  0  0  0
   36.7810   24.7490   33.8840 H   0  0  0  0  0  0  0  0  0  0  0  0
   37.5230   25.9530   34.9220 H   0  0  0  0  0  0  0  0  0  0  0  0
   38.6500   24.2020   34.8370 C   0  0  0  0  0  0  0  0  0  0  0  0
   39.5230   23.4110   34.0810 C   0  0  0  0  0  0  0  0  0  0  0  0
   40.4080   22.4660   34.5090 C   0  0  0  0  0  0  0  0  0  0  0  0
   40.4360   22.2750   35.8810 C   0  0  0  0  0  0  0  0  0  0  0  0
   39.6090   23.0100   36.7200 C   0  0  0  0  0  0  0  0  0  0  0  0
   39.6490   22.8120   38.0880 C   0  0  0  0  0  0  0  0  0  0  0  0
   38.8330   23.5430   38.9130 C   0  0  0  0  0  0  0  0  0  0  0  0
   37.9740   24.4740   38.3780 C   0  0  0  0  0  0  0  0  0  0  0  0
   37.8860   24.7190   37.0280 C   0  0  0  0  0  0  0  0  0  0  0  0
   38.7290   23.9590   36.2150 C   0  0  0  0  0  0  0  0  0  0  0  0
   40.1680   27.3030   32.1950 C   0  0  0  0  0  0  0  0  0  0  0  0
   39.5490   26.6940   33.3140 C   0  0  0  0  0  0  0  0  0  0  0  0
   38.4790   25.8340   33.0500 C   0  0  0  0  0  0  0  0  0  0  0  0
   38.0920   25.6250   31.7650 N   0  0  0  0  0  0  0  0  0  0  0  0
   38.7220   26.2360   30.7290 C   0  0  0  0  0  0  0  0  0  0  0  0
   39.7450   27.0620   30.9480 N   0  0  0  0  0  0  0  0  0  0  0  0
   40.9950   27.9740   32.3320 H   0  0  0  0  0  0  0  0  0  0  0  0
   39.8950   26.8860   34.3280 H   0  0  0  0  0  0  0  0  0  0  0  0
   38.4480   26.1040   29.6890 H   0  0  0  0  0  0  0  0  0  0  0  0
  1  4  1  0  0  0  0
  1  3  1  0  0  0  0
  2  1  1  0  0  0  0
  4 13  1  0  0  0  0
  5  6  1  0  0  0  0
  5  4  2  0  0  0  0
  6  7  2  0  0  0  0
  7  8  1  0  0  0  0
  8  9  1  0  0  0  0
  9 10  2  0  0  0  0
 11 10  1  0  0  0  0
 12 11  2  0  0  0  0
 13  8  2  0  0  0  0
 13 12  1  0  0  0  0
 14 20  1  0  0  0  0
 14 15  1  0  0  0  0
 15 21  1  0  0  0  0
 16 15  2  0  0  0  0
 16  1  1  0  0  0  0
 17 16  1  0  0  0  0
 18 19  1  0  0  0  0
 18 17  2  0  0  0  0
 19 14  2  0  0  0  0
 22 18  1  0  0  0  0
M  END
>  <minimizedAffinity>
-4.37874508

>  <minimizedRMSD>
5.87356138

$$$$
