
 OpenBabel03262514583D

 29 31  0  0  0  0  0  0  0  0999 V2000
   40.4050   23.8760   34.5270 C   0  0  0  0  0  0  0  0  0  0  0  0
   39.1680   24.0120   35.2120 C   0  0  0  0  0  0  0  0  0  0  0  0
   38.0610   24.5000   34.4800 C   0  0  0  0  0  0  0  0  0  0  0  0
   38.2330   24.8110   33.1700 N   0  0  0  0  0  0  0  0  0  0  0  0
   39.4240   24.6700   32.5490 C   0  0  0  0  0  0  0  0  0  0  0  0
   40.4710   24.2120   33.2280 N   0  0  0  0  0  0  0  0  0  0  0  0
   39.6390   24.9870   31.1770 N   0  0  0  0  0  0  0  0  0  0  0  0
   40.6260   25.8240   30.7370 C   0  0  0  0  0  0  0  0  0  0  0  0
   40.7140   26.0380   29.3770 C   0  0  0  0  0  0  0  0  0  0  0  0
   39.8380   25.4230   28.5320 C   0  0  0  0  0  0  0  0  0  0  0  0
   39.9160   25.6170   27.2900 O   0  0  0  0  0  0  0  0  0  0  0  0
   38.8660   24.6010   28.9340 N   0  0  0  0  0  0  0  0  0  0  0  0
   38.8030   24.4090   30.2800 C   0  0  0  0  0  0  0  0  0  0  0  0
   37.8910   23.6330   30.6920 O   0  0  0  0  0  0  0  0  0  0  0  0
   41.2460   23.5020   35.0940 H   0  0  0  0  0  0  0  0  0  0  0  0
   37.0850   24.6300   34.9390 H   0  0  0  0  0  0  0  0  0  0  0  0
   41.2720   26.2660   31.4670 H   0  0  0  0  0  0  0  0  0  0  0  0
   38.1880   24.1210   28.3180 H   0  0  0  0  0  0  0  0  0  0  0  0
   38.9950   23.6800   36.5970 C   0  0  0  0  0  0  0  0  0  0  0  0
   38.0530   24.2860   37.3990 C   0  0  0  0  0  0  0  0  0  0  0  0
   38.0890   23.7910   38.6850 C   0  0  0  0  0  0  0  0  0  0  0  0
   37.5000   24.0360   39.5590 H   0  0  0  0  0  0  0  0  0  0  0  0
   39.0850   22.8640   38.6440 N   0  0  0  0  0  0  0  0  0  0  0  0
   39.5880   22.8200   37.4360 N   0  0  0  0  0  0  0  0  0  0  0  0
   39.4140   22.2650   39.4500 H   0  0  0  0  0  0  0  0  0  0  0  0
   41.7520   26.9260   28.8530 C   0  0  0  0  0  0  0  0  0  0  0  0
   42.7560   26.6830   29.2910 H   0  0  0  0  0  0  0  0  0  0  0  0
   41.5910   27.9960   29.0660 H   0  0  0  0  0  0  0  0  0  0  0  0
   41.8680   26.8220   27.7490 H   0  0  0  0  0  0  0  0  0  0  0  0
  1 15  1  0  0  0  0
  1  2  1  0  0  0  0
  2 19  1  0  0  0  0
  3 16  1  0  0  0  0
  3  2  2  0  0  0  0
  4  3  1  0  0  0  0
  5  4  2  0  0  0  0
  5  6  1  0  0  0  0
  6  1  2  0  0  0  0
  7  5  1  0  0  0  0
  8  7  1  0  0  0  0
  8 17  1  0  0  0  0
  9  8  2  0  0  0  0
 10 12  1  0  0  0  0
 10  9  1  0  0  0  0
 11 10  2  0  0  0  0
 12 13  1  0  0  0  0
 13 14  2  0  0  0  0
 13  7  1  0  0  0  0
 18 12  1  0  0  0  0
 19 20  1  0  0  0  0
 19 24  2  0  0  0  0
 20 21  2  0  0  0  0
 21 22  1  0  0  0  0
 23 21  1  0  0  0  0
 23 25  1  0  0  0  0
 24 23  1  0  0  0  0
 26 28  1  0  0  0  0
 26 27  1  0  0  0  0
 26  9  1  0  0  0  0
 29 26  1  0  0  0  0
M  END
>  <minimizedAffinity>
-4.83124971

>  <minimizedRMSD>
5.53957415

$$$$
