
 OpenBabel03262516373D

 30 32  0  0  1  0  0  0  0  0999 V2000
   39.8390   22.9830   37.5790 C   0  0  0  0  0  0  0  0  0  0  0  0
   38.7170   23.1150   38.4040 C   0  0  0  0  0  0  0  0  0  0  0  0
   37.7040   23.9640   37.9630 C   0  0  0  0  0  0  0  0  0  0  0  0
   37.8360   24.6260   36.7670 N   0  0  0  0  0  0  0  0  0  0  0  0
   38.9630   24.4480   36.0120 C   0  0  0  0  0  0  0  0  0  0  0  0
   39.9420   23.6370   36.4220 N   0  0  0  0  0  0  0  0  0  0  0  0
   39.0330   25.1680   34.7820 N   0  0  0  0  0  0  0  0  0  0  0  0
   37.8400   25.1650   33.9390 C   0  0  0  0  0  0  0  0  0  0  0  0
   37.9180   26.1260   32.8000 C   0  0  0  0  0  0  0  0  0  0  0  0
   38.7750   27.2050   33.1380 N   0  0  0  0  0  0  0  0  0  0  0  0
   40.1410   26.6780   33.2110 C   0  0  0  0  0  0  0  0  0  0  0  0
   40.2830   25.8450   34.4610 C   0  0  2  0  0  0  0  0  0  0  0  0
   40.5680   22.3070   38.0010 H   0  0  0  0  0  0  0  0  0  0  0  0
   38.5240   22.6450   39.3450 H   0  0  0  0  0  0  0  0  0  0  0  0
   36.7940   24.1600   38.4890 H   0  0  0  0  0  0  0  0  0  0  0  0
   37.7630   24.1220   33.5330 H   0  0  0  0  0  0  0  0  0  0  0  0
   36.9640   25.3620   34.5820 H   0  0  0  0  0  0  0  0  0  0  0  0
   36.8900   26.5550   32.6230 H   0  0  0  0  0  0  0  0  0  0  0  0
   38.2860   25.6730   31.8570 H   0  0  0  0  0  0  0  0  0  0  0  0
   38.7130   28.0540   32.5650 H   0  0  0  0  0  0  0  0  0  0  0  0
   40.8860   27.4940   33.1750 H   0  0  0  0  0  0  0  0  0  0  0  0
   40.2630   25.9870   32.3460 H   0  0  0  0  0  0  0  0  0  0  0  0
   40.4470   26.5910   35.2930 H   0  0  0  0  0  0  0  0  0  0  0  0
   41.4350   24.9390   34.4210 C   0  0  0  0  0  0  0  0  0  0  0  0
   41.6950   23.8530   33.6080 C   0  0  0  0  0  0  0  0  0  0  0  0
   42.9140   23.2980   33.9350 C   0  0  0  0  0  0  0  0  0  0  0  0
   43.4160   22.4340   33.4890 H   0  0  0  0  0  0  0  0  0  0  0  0
   43.3830   24.0490   34.9410 N   0  0  0  0  0  0  0  0  0  0  0  0
   42.5350   24.9970   35.2270 N   0  0  0  0  0  0  0  0  0  0  0  0
   44.2810   23.9480   35.4650 H   0  0  0  0  0  0  0  0  0  0  0  0
  1 13  1  0  0  0  0
  1  2  1  0  0  0  0
  2 14  1  0  0  0  0
  3  2  2  0  0  0  0
  3 15  1  0  0  0  0
  4  3  1  0  0  0  0
  5  6  1  0  0  0  0
  5  4  2  0  0  0  0
  6  1  2  0  0  0  0
  7  5  1  0  0  0  0
  8 17  1  0  0  0  0
  8  7  1  0  0  0  0
  9 10  1  0  0  0  0
  9  8  1  0  0  0  0
 10 11  1  0  0  0  0
 11 12  1  0  0  0  0
 12  7  1  0  0  0  0
 12 23  1  1  0  0  0
 16  8  1  0  0  0  0
 18  9  1  0  0  0  0
 19  9  1  0  0  0  0
 20 10  1  0  0  0  0
 21 11  1  0  0  0  0
 22 11  1  0  0  0  0
 24 12  1  0  0  0  0
 24 29  2  0  0  0  0
 25 26  2  0  0  0  0
 25 24  1  0  0  0  0
 26 28  1  0  0  0  0
 27 26  1  0  0  0  0
 28 29  1  0  0  0  0
 28 30  1  0  0  0  0
M  END
>  <minimizedAffinity>
-3.88631892

>  <minimizedRMSD>
3.92118907

$$$$
