
 OpenBabel03262519173D

 35 38  0  0  0  0  0  0  0  0999 V2000
   37.7870   26.8250   33.3990 C   0  0  0  0  0  0  0  0  0  0  0  0
   36.9120   27.6280   34.1030 C   0  0  0  0  0  0  0  0  0  0  0  0
   36.2660   28.5930   33.4090 C   0  0  0  0  0  0  0  0  0  0  0  0
   36.5170   28.7120   32.0610 C   0  0  0  0  0  0  0  0  0  0  0  0
   37.7570   27.3700   31.7310 S   0  0  0  0  0  0  0  0  0  0  0  0
   36.8190   27.4130   35.1700 H   0  0  0  0  0  0  0  0  0  0  0  0
   38.3590   25.2100   35.2520 C   0  0  0  0  0  0  0  0  0  0  0  0
   38.5710   25.7370   33.9780 C   0  0  0  0  0  0  0  0  0  0  0  0
   39.5850   25.2450   33.1700 C   0  0  0  0  0  0  0  0  0  0  0  0
   40.3240   24.2390   33.7120 N   0  0  0  0  0  0  0  0  0  0  0  0
   40.1100   23.7310   34.9550 C   0  0  0  0  0  0  0  0  0  0  0  0
   39.1210   24.2340   35.7050 N   0  0  0  0  0  0  0  0  0  0  0  0
   37.5410   25.6580   35.8110 H   0  0  0  0  0  0  0  0  0  0  0  0
   39.7950   25.6140   32.1780 H   0  0  0  0  0  0  0  0  0  0  0  0
   40.9950   22.6490   35.3990 C   0  0  0  0  0  0  0  0  0  0  0  0
   41.8350   22.1460   34.4690 C   0  0  0  0  0  0  0  0  0  0  0  0
   42.7680   20.8200   35.4150 S   0  0  0  0  0  0  0  0  0  0  0  0
   41.7610   21.2480   36.9780 C   0  0  0  0  0  0  0  0  0  0  0  0
   41.1390   22.0590   36.5390 N   0  0  0  0  0  0  0  0  0  0  0  0
   41.9440   20.5820   38.2110 N   0  0  0  0  0  0  0  0  0  0  0  0
   42.1210   22.2980   33.3180 H   0  0  0  0  0  0  0  0  0  0  0  0
   41.0310   20.2260   38.5780 H   0  0  0  0  0  0  0  0  0  0  0  0
   42.8670   20.4560   38.6980 H   0  0  0  0  0  0  0  0  0  0  0  0
   35.3220   29.4880   34.1190 C   0  0  0  0  0  0  0  0  0  0  0  0
   35.6320   30.5340   34.9890 C   0  0  0  0  0  0  0  0  0  0  0  0
   34.5260   31.1730   35.4850 C   0  0  0  0  0  0  0  0  0  0  0  0
   34.5110   32.0070   36.1720 H   0  0  0  0  0  0  0  0  0  0  0  0
   33.5210   30.5030   34.9050 N   0  0  0  0  0  0  0  0  0  0  0  0
   34.0120   29.5580   34.1400 N   0  0  0  0  0  0  0  0  0  0  0  0
   32.4890   30.7020   35.0410 H   0  0  0  0  0  0  0  0  0  0  0  0
   36.0750   29.5610   31.0240 C   0  0  0  0  0  0  0  0  0  0  0  0
   36.7490   29.7050   29.9870 O   0  0  0  0  0  0  0  0  0  0  0  0
   34.8510   30.2910   31.1060 N   0  0  0  0  0  0  0  0  0  0  0  0
   34.1430   29.5230   31.0870 H   0  0  0  0  0  0  0  0  0  0  0  0
   35.1220   31.3200   31.1540 H   0  0  0  0  0  0  0  0  0  0  0  0
  1  8  1  0  0  0  0
  1  2  2  0  0  0  0
  2  6  1  0  0  0  0
  3  2  1  0  0  0  0
  3 24  1  0  0  0  0
  4  3  2  0  0  0  0
  5  4  1  0  0  0  0
  5  1  1  0  0  0  0
  7 12  1  0  0  0  0
  7 13  1  0  0  0  0
  8  7  2  0  0  0  0
  9 10  2  0  0  0  0
  9  8  1  0  0  0  0
 10 11  1  0  0  0  0
 11 15  1  0  0  0  0
 11 12  2  0  0  0  0
 14  9  1  0  0  0  0
 15 19  1  0  0  0  0
 16 15  2  0  0  0  0
 16 17  1  0  0  0  0
 17 18  1  0  0  0  0
 18 20  1  0  0  0  0
 19 18  2  0  0  0  0
 20 22  1  0  0  0  0
 20 23  1  0  0  0  0
 21 16  1  0  0  0  0
 24 29  2  0  0  0  0
 24 25  1  0  0  0  0
 25 26  2  0  0  0  0
 26 27  1  0  0  0  0
 28 30  1  0  0  0  0
 28 26  1  0  0  0  0
 29 28  1  0  0  0  0
 31 33  1  0  0  0  0
 31  4  1  0  0  0  0
 32 31  2  0  0  0  0
 33 35  1  0  0  0  0
 34 33  1  0  0  0  0
M  END
>  <minimizedAffinity>
-5.38029003

>  <minimizedRMSD>
2.78376007

$$$$
