
 OpenBabel03262519253D

 43 48  0  0  0  0  0  0  0  0999 V2000
   39.2030   23.6080   32.4250 C   0  0  0  0  0  0  0  0  0  0  0  0
   39.9490   22.4640   32.6890 C   0  0  0  0  0  0  0  0  0  0  0  0
   39.4180   21.1790   32.5670 C   0  0  0  0  0  0  0  0  0  0  0  0
   38.1000   21.0170   32.1680 C   0  0  0  0  0  0  0  0  0  0  0  0
   37.3370   22.1260   31.8990 C   0  0  0  0  0  0  0  0  0  0  0  0
   36.0420   21.9890   31.4880 C   0  0  0  0  0  0  0  0  0  0  0  0
   35.2390   23.0540   31.1850 C   0  0  0  0  0  0  0  0  0  0  0  0
   35.7950   24.3190   31.3130 C   0  0  0  0  0  0  0  0  0  0  0  0
   37.1140   24.4490   31.7350 C   0  0  0  0  0  0  0  0  0  0  0  0
   37.9090   23.3840   32.0350 C   0  0  0  0  0  0  0  0  0  0  0  0
   40.9790   22.6330   32.9990 H   0  0  0  0  0  0  0  0  0  0  0  0
   40.0310   20.3140   32.7810 H   0  0  0  0  0  0  0  0  0  0  0  0
   37.7100   20.0080   32.0810 H   0  0  0  0  0  0  0  0  0  0  0  0
   35.6730   20.9780   31.4100 H   0  0  0  0  0  0  0  0  0  0  0  0
   34.2270   22.8070   30.8690 H   0  0  0  0  0  0  0  0  0  0  0  0
   35.0570   25.0720   31.0440 H   0  0  0  0  0  0  0  0  0  0  0  0
   39.7910   24.9090   32.5670 C   0  0  0  0  0  0  0  0  0  0  0  0
   39.7900   25.6090   33.7860 C   0  0  0  0  0  0  0  0  0  0  0  0
   40.3970   26.8700   33.8110 C   0  0  0  0  0  0  0  0  0  0  0  0
   40.9610   27.3710   32.6710 N   0  0  0  0  0  0  0  0  0  0  0  0
   40.9480   26.6690   31.5170 C   0  0  0  0  0  0  0  0  0  0  0  0
   40.3780   25.4810   31.4870 N   0  0  0  0  0  0  0  0  0  0  0  0
   40.4290   27.4610   34.7170 H   0  0  0  0  0  0  0  0  0  0  0  0
   41.3860   27.0320   30.5970 H   0  0  0  0  0  0  0  0  0  0  0  0
   39.2170   25.0510   34.9140 N   0  0  0  0  0  0  0  0  0  0  0  0
   37.9700   25.2700   35.3670 C   0  0  0  0  0  0  0  0  0  0  0  0
   37.7220   24.5670   36.4970 N   0  0  0  0  0  0  0  0  0  0  0  0
   38.8560   23.8750   36.7710 C   0  0  0  0  0  0  0  0  0  0  0  0
   39.2200   23.0040   37.7600 C   0  0  0  0  0  0  0  0  0  0  0  0
   40.4360   22.4150   37.8370 N   0  0  0  0  0  0  0  0  0  0  0  0
   41.3140   22.7450   36.8430 C   0  0  0  0  0  0  0  0  0  0  0  0
   40.9520   23.5920   35.8870 N   0  0  0  0  0  0  0  0  0  0  0  0
   39.7720   24.1890   35.7760 C   0  0  0  0  0  0  0  0  0  0  0  0
   37.2420   25.9280   34.8960 H   0  0  0  0  0  0  0  0  0  0  0  0
   38.4520   22.8090   38.4990 H   0  0  0  0  0  0  0  0  0  0  0  0
   42.3280   22.3800   36.7320 H   0  0  0  0  0  0  0  0  0  0  0  0
   37.3540   25.8970   31.7150 C   0  0  0  0  0  0  0  0  0  0  0  0
   36.7890   26.6880   32.7640 C   0  0  0  0  0  0  0  0  0  0  0  0
   37.0200   28.0460   32.6630 C   0  0  0  0  0  0  0  0  0  0  0  0
   36.7000   28.8310   33.3210 H   0  0  0  0  0  0  0  0  0  0  0  0
   37.7350   28.0360   31.5300 N   0  0  0  0  0  0  0  0  0  0  0  0
   37.9220   26.8620   31.0070 N   0  0  0  0  0  0  0  0  0  0  0  0
   38.1350   28.9070   31.0680 H   0  0  0  0  0  0  0  0  0  0  0  0
  1 17  1  0  0  0  0
  1  2  1  0  0  0  0
  2 11  1  0  0  0  0
  3  2  2  0  0  0  0
  3 12  1  0  0  0  0
  4  3  1  0  0  0  0
  5 10  1  0  0  0  0
  5  4  2  0  0  0  0
  6  5  1  0  0  0  0
  7  8  1  0  0  0  0
  7  6  2  0  0  0  0
  8  9  2  0  0  0  0
  9 10  1  0  0  0  0
 10  1  2  0  0  0  0
 13  4  1  0  0  0  0
 14  6  1  0  0  0  0
 15  7  1  0  0  0  0
 16  8  1  0  0  0  0
 17 18  1  0  0  0  0
 18 19  2  0  0  0  0
 18 25  1  0  0  0  0
 19 23  1  0  0  0  0
 20 19  1  0  0  0  0
 21 20  2  0  0  0  0
 22 21  1  0  0  0  0
 22 17  2  0  0  0  0
 24 21  1  0  0  0  0
 25 26  1  0  0  0  0
 25 33  1  0  0  0  0
 26 27  2  0  0  0  0
 27 28  1  0  0  0  0
 28 29  1  0  0  0  0
 29 30  2  0  0  0  0
 29 35  1  0  0  0  0
 31 30  1  0  0  0  0
 32 31  2  0  0  0  0
 33 32  1  0  0  0  0
 33 28  2  0  0  0  0
 34 26  1  0  0  0  0
 36 31  1  0  0  0  0
 37  9  1  0  0  0  0
 37 38  1  0  0  0  0
 39 38  2  0  0  0  0
 39 40  1  0  0  0  0
 41 39  1  0  0  0  0
 42 41  1  0  0  0  0
 42 37  2  0  0  0  0
 43 41  1  0  0  0  0
M  END
>  <minimizedAffinity>
-5.99433804

>  <minimizedRMSD>
1.25192559

$$$$
