
 OpenBabel03262519573D

 26 29  0  0  1  0  0  0  0  0999 V2000
   40.6880   24.7370   33.9200 C   0  0  0  0  0  0  0  0  0  0  0  0
   40.7880   24.4840   32.5600 C   0  0  0  0  0  0  0  0  0  0  0  0
   39.5970   24.9220   32.0620 N   0  0  0  0  0  0  0  0  0  0  0  0
   38.8750   25.3860   33.0700 C   0  0  0  0  0  0  0  0  0  0  0  0
   39.5160   25.2910   34.2450 N   0  0  0  0  0  0  0  0  0  0  0  0
   41.6210   24.0480   32.0520 H   0  0  0  0  0  0  0  0  0  0  0  0
   37.8680   25.8010   32.9440 H   0  0  0  0  0  0  0  0  0  0  0  0
   41.7270   24.4380   34.8940 C   0  0  0  0  0  0  0  0  0  0  0  0
   41.6860   23.2550   35.6410 C   0  0  0  0  0  0  0  0  0  0  0  0
   42.7190   23.0100   36.5770 C   0  0  0  0  0  0  0  0  0  0  0  0
   43.6830   23.9340   36.6890 N   0  0  0  0  0  0  0  0  0  0  0  0
   43.7110   25.0710   35.9620 C   0  0  0  0  0  0  0  0  0  0  0  0
   42.7320   25.3140   35.0700 N   0  0  0  0  0  0  0  0  0  0  0  0
   40.8950   22.5370   35.5210 H   0  0  0  0  0  0  0  0  0  0  0  0
   42.7360   22.1140   37.1780 H   0  0  0  0  0  0  0  0  0  0  0  0
   44.4730   25.8360   36.0290 H   0  0  0  0  0  0  0  0  0  0  0  0
   38.9760   25.7150   35.5020 C   0  0  1  0  0  0  0  0  0  0  0  0
   37.5600   25.9600   35.7190 C   0  0  0  0  0  0  0  0  0  0  0  0
   38.1150   24.6310   36.1540 C   0  0  2  0  0  0  0  0  0  0  0  0
   39.7000   26.2400   36.1520 H   0  0  0  0  0  0  0  0  0  0  0  0
   37.2720   26.6960   36.4920 H   0  0  0  0  0  0  0  0  0  0  0  0
   36.8890   26.0110   34.8190 H   0  0  0  0  0  0  0  0  0  0  0  0
   37.8280   23.7370   35.5790 H   0  0  0  0  0  0  0  0  0  0  0  0
   38.1980   24.4190   37.6230 C   0  0  0  0  0  3  0  0  0  0  0  0
   37.4740   23.2060   38.2110 C   0  0  0  0  0  2  0  0  0  0  0  0
   38.9740   23.3250   38.2360 C   0  0  0  0  0  2  0  0  0  0  0  0
  1  5  1  0  0  0  0
  1  8  1  0  0  0  0
  2  1  2  0  0  0  0
  3  2  1  0  0  0  0
  3  4  2  0  0  0  0
  4  5  1  0  0  0  0
  5 17  1  0  0  0  0
  6  2  1  0  0  0  0
  7  4  1  0  0  0  0
  8 13  2  0  0  0  0
  8  9  1  0  0  0  0
  9 10  2  0  0  0  0
 10 11  1  0  0  0  0
 10 15  1  0  0  0  0
 12 16  1  0  0  0  0
 12 11  2  0  0  0  0
 13 12  1  0  0  0  0
 14  9  1  0  0  0  0
 17 18  1  0  0  0  0
 17 20  1  1  0  0  0
 17 19  1  0  0  0  0
 18 19  1  0  0  0  0
 18 21  1  0  0  0  0
 19 23  1  6  0  0  0
 19 24  1  0  0  0  0
 22 18  1  0  0  0  0
 24 25  1  0  0  0  0
 24 26  1  0  0  0  0
 25 26  1  0  0  0  0
M  END
>  <minimizedAffinity>
-3.82199407

>  <minimizedRMSD>
5.00135708

$$$$
