REMARK  Name = 
REMARK  4 active torsions:
REMARK  status: ('A' for Active; 'I' for Inactive)
REMARK    1  A    between atoms: C_1  and  C_6
REMARK    2  A    between atoms: N_5  and  C_12
REMARK    3  A    between atoms: C_14  and  C_15
REMARK    4  A    between atoms: C_14  and  C_27
REMARK                            x       y       z     vdW  Elec       q    Type
REMARK                         _______ _______ _______ _____ _____    ______ ____
ROOT
ATOM      1  C   UNL     1      37.867  23.699  33.501  0.00  0.00    +0.000 A 
ATOM      2  C   UNL     1      37.466  22.656  32.667  0.00  0.00    +0.000 A 
ATOM      3  N   UNL     1      37.483  21.562  33.486  0.00  0.00    +0.000 NA
ATOM      4  C   UNL     1      37.866  21.966  34.692  0.00  0.00    +0.000 A 
ATOM      5  N   UNL     1      38.108  23.272  34.731  0.00  0.00    +0.000 N 
ATOM      6  H   UNL     1      37.220  22.781  31.628  0.00  0.00    +0.000 HD
ATOM      7  H   UNL     1      37.917  21.171  35.434  0.00  0.00    +0.000 HD
ENDROOT
BRANCH   1   8
ATOM      8  C   UNL     1      38.015  25.081  33.077  0.00  0.00    +0.000 A 
ATOM      9  C   UNL     1      39.297  25.584  32.772  0.00  0.00    +0.000 A 
ATOM     10  C   UNL     1      39.395  26.931  32.361  0.00  0.00    +0.000 A 
ATOM     11  N   UNL     1      38.247  27.655  32.287  0.00  0.00    +0.000 NA
ATOM     12  C   UNL     1      37.033  27.130  32.590  0.00  0.00    +0.000 A 
ATOM     13  N   UNL     1      36.916  25.850  32.984  0.00  0.00    +0.000 NA
ATOM     14  H   UNL     1      40.183  24.975  32.845  0.00  0.00    +0.000 HD
ATOM     15  H   UNL     1      40.354  27.378  32.112  0.00  0.00    +0.000 HD
ATOM     16  H   UNL     1      36.141  27.732  32.521  0.00  0.00    +0.000 HD
ENDBRANCH   1   8
BRANCH   5  17
ATOM     17  C   UNL     1      38.526  23.950  35.901  0.00  0.00    +0.000 C 
ATOM     18  C   UNL     1      38.060  25.230  36.364  0.00  0.00    +0.000 C 
ATOM     19  C   UNL     1      37.552  23.922  37.028  0.00  0.00    +0.000 C 
ATOM     20  H   UNL     1      39.604  23.691  36.178  0.00  0.00    +0.000 HD
ATOM     21  H   UNL     1      38.736  25.854  36.997  0.00  0.00    +0.000 HD
ATOM     22  H   UNL     1      37.337  25.860  35.825  0.00  0.00    +0.000 HD
BRANCH  19  23
ATOM     23  C   UNL     1      38.132  23.762  38.427  0.00  0.00    +0.000 C 
ATOM     24  F   UNL     1      37.531  22.695  39.066  0.00  0.00    +0.000 F 
ATOM     25  F   UNL     1      39.521  23.356  38.301  0.00  0.00    +0.000 F 
ATOM     26  F   UNL     1      38.130  24.898  39.142  0.00  0.00    +0.000 F 
ENDBRANCH  19  23
BRANCH  19  27
ATOM     27  C   UNL     1      36.059  23.965  37.021  0.00  0.00    +0.000 C 
ATOM     28  C   UNL     1      35.173  24.826  36.281  0.00  0.00    +0.000 C 
ATOM     29  C   UNL     1      35.483  25.193  37.742  0.00  0.00    +0.000 C 
ENDBRANCH  19  27
ENDBRANCH   5  17
TORSDOF 4
