
 OpenBabel03262517483D

 25 28  0  0  0  0  0  0  0  0999 V2000
   39.6890   22.9010   37.6400 C   0  0  0  0  0  0  0  0  0  0  0  0
   38.8940   23.4740   38.6530 C   0  0  0  0  0  0  0  0  0  0  0  0
   37.8570   24.3240   38.2750 C   0  0  0  0  0  0  0  0  0  0  0  0
   37.6880   24.5410   36.9300 N   0  0  0  0  0  0  0  0  0  0  0  0
   38.4660   23.9770   35.9950 C   0  0  0  0  0  0  0  0  0  0  0  0
   39.4800   23.1470   36.3390 N   0  0  0  0  0  0  0  0  0  0  0  0
   38.1720   24.2970   34.6290 N   0  0  0  0  0  0  0  0  0  0  0  0
   38.4180   23.4680   33.5880 C   0  0  0  0  0  0  0  0  0  0  0  0
   38.0340   24.0510   32.4340 N   0  0  0  0  0  0  0  0  0  0  0  0
   37.5320   25.2730   32.7190 C   0  0  0  0  0  0  0  0  0  0  0  0
   36.9890   26.3280   31.9850 C   0  0  0  0  0  0  0  0  0  0  0  0
   36.5680   27.4510   32.6060 N   0  0  0  0  0  0  0  0  0  0  0  0
   36.6790   27.5400   33.9420 C   0  0  0  0  0  0  0  0  0  0  0  0
   37.2020   26.5290   34.6710 N   0  0  0  0  0  0  0  0  0  0  0  0
   37.6290   25.4040   34.0910 C   0  0  0  0  0  0  0  0  0  0  0  0
   36.9560   26.0470   30.5810 N   0  0  0  0  0  0  0  0  0  0  0  0
   40.4940   22.2360   37.9780 H   0  0  0  0  0  0  0  0  0  0  0  0
   39.0450   23.2890   39.7060 H   0  0  0  0  0  0  0  0  0  0  0  0
   37.1850   24.8190   38.9620 H   0  0  0  0  0  0  0  0  0  0  0  0
   38.8610   22.4630   33.6170 H   0  0  0  0  0  0  0  0  0  0  0  0
   35.9990   25.9910   30.1470 H   0  0  0  0  0  0  0  0  0  0  0  0
   37.7180   25.8840   29.8990 H   0  0  0  0  0  0  0  0  0  0  0  0
   36.2100   28.7820   34.6070 C   0  0  0  0  0  0  0  0  0  0  0  0
   34.8030   29.2320   34.4260 C   0  0  0  0  0  0  0  0  0  0  0  0
   35.8990   29.9000   33.6050 C   0  0  0  0  0  0  0  0  0  0  0  0
  1 17  1  0  0  0  0
  1  2  1  0  0  0  0
  2 18  1  0  0  0  0
  3  2  2  0  0  0  0
  3 19  1  0  0  0  0
  4  3  1  0  0  0  0
  5  6  1  0  0  0  0
  5  4  2  0  0  0  0
  6  1  2  0  0  0  0
  7  5  1  0  0  0  0
  8 20  1  0  0  0  0
  8  7  1  0  0  0  0
  9 10  1  0  0  0  0
  9  8  2  0  0  0  0
 10 15  1  0  0  0  0
 11 12  1  0  0  0  0
 11 10  2  0  0  0  0
 12 13  2  0  0  0  0
 13 23  1  0  0  0  0
 13 14  1  0  0  0  0
 15  7  1  0  0  0  0
 15 14  2  0  0  0  0
 16 11  1  0  0  0  0
 21 16  1  0  0  0  0
 22 16  1  0  0  0  0
 24 23  1  0  0  0  0
 25 24  1  0  0  0  0
 25 23  1  0  0  0  0
M  END
>  <minimizedAffinity>
-5.41838455

>  <minimizedRMSD>
0.273639292

$$$$
