
 OpenBabel03262520003D

 29 32  0  0  1  0  0  0  0  0999 V2000
   39.5670   23.2910   33.2810 C   0  0  0  0  0  0  0  0  0  0  0  0
   39.7810   22.1230   32.5500 C   0  0  0  0  0  0  0  0  0  0  0  0
   39.2960   21.1380   33.3630 N   0  0  0  0  0  0  0  0  0  0  0  0
   38.8420   21.7150   34.4700 C   0  0  0  0  0  0  0  0  0  0  0  0
   38.9950   23.0350   34.4480 N   0  0  0  0  0  0  0  0  0  0  0  0
   40.2330   22.1020   31.5750 H   0  0  0  0  0  0  0  0  0  0  0  0
   38.4280   21.0200   35.1990 H   0  0  0  0  0  0  0  0  0  0  0  0
   39.9330   24.6230   32.8300 C   0  0  0  0  0  0  0  0  0  0  0  0
   41.1380   25.2040   33.2780 C   0  0  0  0  0  0  0  0  0  0  0  0
   41.4570   26.4990   32.8130 C   0  0  0  0  0  0  0  0  0  0  0  0
   40.5810   27.1000   31.9650 N   0  0  0  0  0  0  0  0  0  0  0  0
   39.4320   26.5020   31.5590 C   0  0  0  0  0  0  0  0  0  0  0  0
   39.1080   25.2710   31.9890 N   0  0  0  0  0  0  0  0  0  0  0  0
   41.8040   24.6930   33.9530 H   0  0  0  0  0  0  0  0  0  0  0  0
   42.3700   27.0010   33.1210 H   0  0  0  0  0  0  0  0  0  0  0  0
   38.7590   27.0070   30.8850 H   0  0  0  0  0  0  0  0  0  0  0  0
   38.5890   23.8830   35.5060 C   0  0  1  0  0  0  0  0  0  0  0  0
   37.3680   24.6400   35.5790 C   0  0  0  0  0  0  0  0  0  0  0  0
   37.5260   23.3250   36.3880 C   0  0  2  0  0  0  0  0  0  0  0  0
   39.4840   24.3420   36.0480 H   0  0  0  0  0  0  0  0  0  0  0  0
   37.3480   25.5750   36.1890 H   0  0  0  0  0  0  0  0  0  0  0  0
   36.6120   24.6770   34.7810 H   0  0  0  0  0  0  0  0  0  0  0  0
   37.6530   23.6150   37.8770 C   0  0  0  0  0  0  0  0  0  0  0  0
   37.3060   22.4940   38.6060 F   0  0  0  0  0  0  0  0  0  0  0  0
   39.0590   23.8110   38.1850 F   0  0  0  0  0  0  0  0  0  0  0  0
   37.0190   24.7340   38.2620 F   0  0  0  0  0  0  0  0  0  0  0  0
   36.3550   22.4550   36.0650 C   0  0  0  0  0  3  0  0  0  0  0  0
   35.4060   22.5630   34.9870 C   0  0  0  0  0  2  0  0  0  0  0  0
   35.0030   23.1210   36.3620 C   0  0  0  0  0  2  0  0  0  0  0  0
  1  5  1  0  0  0  0
  2  1  2  0  0  0  0
  2  3  1  0  0  0  0
  3  4  2  0  0  0  0
  4  7  1  0  0  0  0
  5  4  1  0  0  0  0
  5 17  1  0  0  0  0
  6  2  1  0  0  0  0
  8  9  1  0  0  0  0
  8  1  1  0  0  0  0
  9 14  1  0  0  0  0
 10 15  1  0  0  0  0
 10  9  2  0  0  0  0
 11 10  1  0  0  0  0
 12 11  2  0  0  0  0
 12 13  1  0  0  0  0
 13  8  2  0  0  0  0
 16 12  1  0  0  0  0
 17 18  1  0  0  0  0
 17 20  1  1  0  0  0
 17 19  1  0  0  0  0
 18 21  1  0  0  0  0
 18 19  1  0  0  0  0
 19 23  1  1  0  0  0
 22 18  1  0  0  0  0
 23 25  1  0  0  0  0
 23 26  1  0  0  0  0
 23 24  1  0  0  0  0
 27 29  1  0  0  0  0
 27 19  1  0  0  0  0
 28 27  1  0  0  0  0
 28 29  1  0  0  0  0
M  END
>  <minimizedAffinity>
3.39856076

>  <minimizedRMSD>
1.80054259

$$$$
