
 OpenBabel03262519453D

 28 30  0  0  1  0  0  0  0  0999 V2000
   38.0760   25.7760   35.4330 C   0  0  1  0  0  0  0  0  0  0  0  0
   36.9910   25.6040   35.3630 H   0  0  0  0  0  0  0  0  0  0  0  0
   38.6600   23.3920   38.3150 C   0  0  0  0  0  0  0  0  0  0  0  0
   38.0610   24.4160   37.5700 C   0  0  0  0  0  0  0  0  0  0  0  0
   38.6320   24.6960   36.2860 C   0  0  0  0  0  0  0  0  0  0  0  0
   39.7130   23.9580   35.8690 N   0  0  0  0  0  0  0  0  0  0  0  0
   40.2490   22.9980   36.6080 C   0  0  0  0  0  0  0  0  0  0  0  0
   39.7180   22.7080   37.8460 N   0  0  0  0  0  0  0  0  0  0  0  0
   38.2440   23.1650   39.2870 H   0  0  0  0  0  0  0  0  0  0  0  0
   37.2100   24.9850   37.9170 H   0  0  0  0  0  0  0  0  0  0  0  0
   41.1010   22.4120   36.2860 H   0  0  0  0  0  0  0  0  0  0  0  0
   38.3300   27.1340   36.0340 C   0  0  0  0  0  0  0  0  0  0  0  0
   38.1060   27.1820   37.1050 H   0  0  0  0  0  0  0  0  0  0  0  0
   39.3880   27.4710   35.8250 H   0  0  0  0  0  0  0  0  0  0  0  0
   37.7060   27.8610   35.4450 H   0  0  0  0  0  0  0  0  0  0  0  0
   38.5970   25.7220   34.0270 C   0  0  0  0  0  0  0  0  0  0  0  0
   39.3490   24.8880   33.9990 H   0  0  0  0  0  0  0  0  0  0  0  0
   39.1500   26.6290   33.8140 H   0  0  0  0  0  0  0  0  0  0  0  0
   37.5900   25.4420   33.0750 N   0  0  0  0  0  0  0  0  0  0  0  0
   37.0490   24.3320   32.5470 C   0  0  0  0  0  0  0  0  0  0  0  0
   36.0560   24.5630   31.6250 C   0  0  0  0  0  0  0  0  0  0  0  0
   35.9740   25.8940   31.5780 N   0  0  0  0  0  0  0  0  0  0  0  0
   36.8850   26.4180   32.4400 C   0  0  0  0  0  0  0  0  0  0  0  0
   37.3770   23.3350   32.8330 H   0  0  0  0  0  0  0  0  0  0  0  0
   35.5100   23.7930   31.0980 H   0  0  0  0  0  0  0  0  0  0  0  0
   36.9910   27.9150   32.5700 C   0  0  0  0  0  0  0  0  0  0  0  0
   35.8290   28.7270   32.0860 C   0  0  0  0  0  0  0  0  0  0  0  0
   36.0640   28.5900   33.5580 C   0  0  0  0  0  0  0  0  0  0  0  0
  1  2  1  6  0  0  0
  1 12  1  0  0  0  0
  1  5  1  0  0  0  0
  3  9  1  0  0  0  0
  4 10  1  0  0  0  0
  4  3  2  0  0  0  0
  5  4  1  0  0  0  0
  6  5  2  0  0  0  0
  6  7  1  0  0  0  0
  7  8  2  0  0  0  0
  8  3  1  0  0  0  0
 11  7  1  0  0  0  0
 12 13  1  0  0  0  0
 14 12  1  0  0  0  0
 15 12  1  0  0  0  0
 16  1  1  0  0  0  0
 17 16  1  0  0  0  0
 18 16  1  0  0  0  0
 19 16  1  0  0  0  0
 20 24  1  0  0  0  0
 20 19  1  0  0  0  0
 21 20  2  0  0  0  0
 22 21  1  0  0  0  0
 22 23  2  0  0  0  0
 23 26  1  0  0  0  0
 23 19  1  0  0  0  0
 25 21  1  0  0  0  0
 26 28  1  0  0  0  0
 27 26  1  0  0  0  0
 27 28  1  0  0  0  0
M  END
>  <minimizedAffinity>
-4.67149878

>  <minimizedRMSD>
2.83702779

$$$$
