
     RDKit          3D

 31 34  0  0  0  0  0  0  0  0999 V2000
   38.0295   23.4722   34.6167 C   0  0  0  0  0  0  0  0  0  0  0  0
   38.2627   24.5665   33.7978 C   0  0  0  0  0  0  0  0  0  0  0  0
   37.7652   24.1786   32.5899 N   0  0  0  0  0  0  0  0  0  0  0  0
   37.2848   22.9514   32.7179 C   0  0  0  0  0  0  0  0  0  0  0  0
   37.4283   22.4725   33.9631 N   0  0  0  0  0  0  0  0  0  0  0  0
   38.3899   23.4019   36.0247 C   0  0  0  0  0  0  0  0  0  0  0  0
   39.5916   22.8066   36.4252 C   0  0  0  0  0  0  0  0  0  0  0  0
   39.8978   22.7623   37.8063 C   0  0  0  0  0  0  0  0  0  0  0  0
   39.0089   23.2986   38.6532 N   0  0  0  0  0  0  0  0  0  0  0  0
   37.8535   23.8699   38.2546 C   0  0  0  0  0  0  0  0  0  0  0  0
   37.5523   23.9174   36.9425 N   0  0  0  0  0  0  0  0  0  0  0  0
   37.0006   21.1744   34.3892 C   0  0  1  0  0  0  0  0  0  0  0  0
   35.8518   20.9555   35.2523 C   0  0  0  0  0  0  0  0  0  0  0  0
   35.6580   20.7773   33.7706 C   0  0  2  0  0  0  0  0  0  0  0  0
   38.7277   25.4861   34.0808 H   0  0  0  0  0  0  0  0  0  0  0  0
   36.8237   22.3999   31.8901 H   0  0  0  0  0  0  0  0  0  0  0  0
   40.2797   22.3866   35.7134 H   0  0  0  0  0  0  0  0  0  0  0  0
   40.8111   22.3147   38.1676 H   0  0  0  0  0  0  0  0  0  0  0  0
   37.1160   24.3111   38.9117 H   0  0  0  0  0  0  0  0  0  0  0  0
   37.8003   20.4099   34.3862 H   0  0  0  0  0  0  0  0  0  0  0  0
   35.8509   20.0622   35.9007 H   0  0  0  0  0  0  0  0  0  0  0  0
   35.4003   21.8478   35.7649 H   0  0  0  0  0  0  0  0  0  0  0  0
   35.0583   21.5278   33.2333 H   0  0  0  0  0  0  0  0  0  0  0  0
   35.4503   19.3779   33.3137 C   0  0  0  0  0  0  0  0  0  0  0  0
   34.2584   19.0965   32.3972 C   0  0  0  0  0  0  0  0  0  0  0  0
   35.6777   18.9428   31.9224 C   0  0  0  0  0  0  0  0  0  0  0  0
   35.5722   18.6149   34.1110 H   0  0  0  0  0  0  0  0  0  0  0  0
   33.7044   19.9569   31.9808 H   0  0  0  0  0  0  0  0  0  0  0  0
   33.6283   18.2132   32.6110 H   0  0  0  0  0  0  0  0  0  0  0  0
   35.9809   17.8693   31.7572 H   0  0  0  0  0  0  0  0  0  0  0  0
   36.0329   19.6047   31.1165 H   0  0  0  0  0  0  0  0  0  0  0  0
  1  6  1  0
  2  1  2  0
  3  4  2  0
  3  2  1  0
  4  5  1  0
  5 12  1  0
  5  1  1  0
  6  7  2  0
  6 11  1  0
  7  8  1  0
  8  9  2  0
 10  9  1  0
 11 10  2  0
 12 13  1  0
 14 12  1  0
 14 13  1  0
  2 15  1  0
  4 16  1  0
  7 17  1  0
  8 18  1  0
 10 19  1  0
 12 20  1  1
 13 21  1  0
 13 22  1  0
 14 23  1  6
 24 25  1  0
 25 26  1  0
 26 24  1  0
 24 27  1  0
 25 28  1  0
 25 29  1  0
 26 30  1  0
 26 31  1  0
 14 24  1  0
M  ISO  8  15  14  16  14  17  14  18  14  19  14  20  13  21  13  22  13
M  ISO  1  23  13
M  END
>  <DihAtoms>  (1) 
11,13,23,24

>  <DihDeg>  (1) 
-59.99842268769347

$$$$
