
 OpenBabel03262515413D

 40 44  0  0  0  0  0  0  0  0999 V2000
   38.2390   25.3990   34.9700 C   0  0  0  0  0  0  0  0  0  0  0  0
   37.8020   24.6760   34.2550 H   0  0  0  0  0  0  0  0  0  0  0  0
   39.1570   25.8410   34.5480 H   0  0  0  0  0  0  0  0  0  0  0  0
   38.0110   24.1520   38.4690 C   0  0  0  0  0  0  0  0  0  0  0  0
   39.0070   23.1760   38.4790 C   0  0  0  0  0  0  0  0  0  0  0  0
   39.7240   22.9680   37.3090 C   0  0  0  0  0  0  0  0  0  0  0  0
   39.4380   23.7090   36.2110 N   0  0  0  0  0  0  0  0  0  0  0  0
   38.4520   24.6590   36.2390 C   0  0  0  0  0  0  0  0  0  0  0  0
   37.7520   24.8750   37.3520 N   0  0  0  0  0  0  0  0  0  0  0  0
   37.4150   24.3580   39.3610 H   0  0  0  0  0  0  0  0  0  0  0  0
   39.1790   22.6230   39.3980 H   0  0  0  0  0  0  0  0  0  0  0  0
   40.7690   21.9440   37.3220 C   0  0  0  0  0  0  0  0  0  0  0  0
   41.0310   21.7310   38.3970 H   0  0  0  0  0  0  0  0  0  0  0  0
   40.3980   20.9850   36.8910 H   0  0  0  0  0  0  0  0  0  0  0  0
   42.0180   22.3460   36.6430 C   0  0  0  0  0  0  0  0  0  0  0  0
   42.4440   21.8270   35.3230 C   0  0  0  0  0  0  0  0  0  0  0  0
   43.0670   21.2160   36.5610 C   0  0  0  0  0  0  0  0  0  0  0  0
   42.4130   23.3620   36.8990 H   0  0  0  0  0  0  0  0  0  0  0  0
   41.7240   21.2000   34.7580 H   0  0  0  0  0  0  0  0  0  0  0  0
   43.0680   22.4670   34.6580 H   0  0  0  0  0  0  0  0  0  0  0  0
   42.7420   20.1950   36.7970 H   0  0  0  0  0  0  0  0  0  0  0  0
   44.1310   21.5090   36.6910 H   0  0  0  0  0  0  0  0  0  0  0  0
   37.2850   26.5490   35.2050 C   0  0  0  0  0  0  0  0  0  0  0  0
   37.7260   27.2180   35.9500 H   0  0  0  0  0  0  0  0  0  0  0  0
   36.2900   26.1560   35.5370 H   0  0  0  0  0  0  0  0  0  0  0  0
   37.0990   27.3500   33.9520 C   0  0  0  0  0  0  0  0  0  0  0  0
   36.1620   28.2950   33.7870 N   0  0  0  0  0  0  0  0  0  0  0  0
   36.2660   28.8000   32.5950 O   0  0  0  0  0  0  0  0  0  0  0  0
   37.2380   28.2310   31.9460 C   0  0  0  0  0  0  0  0  0  0  0  0
   37.7760   27.3180   32.7790 N   0  0  0  0  0  0  0  0  0  0  0  0
   37.7490   28.4330   30.6130 C   0  0  0  0  0  0  0  0  0  0  0  0
   38.5790   27.6550   29.8230 C   0  0  0  0  0  0  0  0  0  0  0  0
   38.7700   28.3020   28.6120 C   0  0  0  0  0  0  0  0  0  0  0  0
   38.0210   29.4720   28.7420 C   0  0  0  0  0  0  0  0  0  0  0  0
   37.4440   29.5170   29.9080 O   0  0  0  0  0  0  0  0  0  0  0  0
   38.9570   26.6980   30.2160 H   0  0  0  0  0  0  0  0  0  0  0  0
   39.3830   27.8770   27.8450 H   0  0  0  0  0  0  0  0  0  0  0  0
   37.9690   30.4590   27.6220 C   0  0  0  0  0  0  0  0  0  0  0  0
   38.6720   31.8310   27.8850 C   0  0  0  0  0  0  0  0  0  0  0  0
   37.1970   31.7200   27.7910 C   0  0  0  0  0  0  0  0  0  0  0  0
  1 23  1  0  0  0  0
  1  8  1  0  0  0  0
  2  1  1  0  0  0  0
  3  1  1  0  0  0  0
  4  5  1  0  0  0  0
  4 10  1  0  0  0  0
  5 11  1  0  0  0  0
  6 12  1  0  0  0  0
  6  5  2  0  0  0  0
  7  8  2  0  0  0  0
  7  6  1  0  0  0  0
  8  9  1  0  0  0  0
  9  4  2  0  0  0  0
 12 13  1  0  0  0  0
 14 12  1  0  0  0  0
 15 18  1  0  0  0  0
 15 12  1  0  0  0  0
 16 17  1  0  0  0  0
 16 15  1  0  0  0  0
 17 15  1  0  0  0  0
 17 22  1  0  0  0  0
 17 21  1  0  0  0  0
 19 16  1  0  0  0  0
 20 16  1  0  0  0  0
 23 25  1  0  0  0  0
 23 24  1  0  0  0  0
 26 23  1  0  0  0  0
 27 26  2  0  0  0  0
 28 27  1  0  0  0  0
 29 28  1  0  0  0  0
 29 30  2  0  0  0  0
 30 26  1  0  0  0  0
 31 29  1  0  0  0  0
 32 36  1  0  0  0  0
 32 31  2  0  0  0  0
 33 34  2  0  0  0  0
 33 32  1  0  0  0  0
 34 35  1  0  0  0  0
 35 31  1  0  0  0  0
 37 33  1  0  0  0  0
 38 40  1  0  0  0  0
 38 39  1  0  0  0  0
 38 34  1  0  0  0  0
 40 39  1  0  0  0  0
M  END
>  <minimizedAffinity>
-4.96958208

>  <minimizedRMSD>
0.614255428

$$$$
