
 OpenBabel03262519173D

 31 34  0  0  0  0  0  0  0  0999 V2000
   37.1660   26.4080   35.2960 C   0  0  0  0  0  0  0  0  0  0  0  0
   37.4140   27.0910   34.1040 C   0  0  0  0  0  0  0  0  0  0  0  0
   38.4570   26.6680   33.2590 C   0  0  0  0  0  0  0  0  0  0  0  0
   39.1560   25.5920   33.6960 N   0  0  0  0  0  0  0  0  0  0  0  0
   38.9000   24.9400   34.8610 C   0  0  0  0  0  0  0  0  0  0  0  0
   37.9000   25.3690   35.6410 N   0  0  0  0  0  0  0  0  0  0  0  0
   36.3400   26.7870   35.9080 H   0  0  0  0  0  0  0  0  0  0  0  0
   38.7090   27.1410   32.3250 H   0  0  0  0  0  0  0  0  0  0  0  0
   39.7520   23.7920   35.1930 C   0  0  0  0  0  0  0  0  0  0  0  0
   40.4980   23.2950   34.1770 C   0  0  0  0  0  0  0  0  0  0  0  0
   41.4180   21.8710   34.9980 S   0  0  0  0  0  0  0  0  0  0  0  0
   40.5450   22.2720   36.6450 C   0  0  0  0  0  0  0  0  0  0  0  0
   39.9350   23.1390   36.3000 N   0  0  0  0  0  0  0  0  0  0  0  0
   40.7600   21.5440   37.8390 N   0  0  0  0  0  0  0  0  0  0  0  0
   40.7260   23.4520   33.0810 H   0  0  0  0  0  0  0  0  0  0  0  0
   41.7700   21.3700   38.0250 H   0  0  0  0  0  0  0  0  0  0  0  0
   39.8740   21.3020   38.3370 H   0  0  0  0  0  0  0  0  0  0  0  0
   36.6690   28.2520   33.6350 C   0  0  0  0  0  0  0  0  0  0  0  0
   36.0950   29.1910   34.4770 C   0  0  0  0  0  0  0  0  0  0  0  0
   35.4380   30.2090   33.8620 C   0  0  0  0  0  0  0  0  0  0  0  0
   35.3870   30.2420   32.4840 C   0  0  0  0  0  0  0  0  0  0  0  0
   36.3280   28.7330   31.9820 S   0  0  0  0  0  0  0  0  0  0  0  0
   36.1530   29.1370   35.5570 H   0  0  0  0  0  0  0  0  0  0  0  0
   34.8230   31.1030   31.5150 C   0  0  0  0  0  0  0  0  0  0  0  0
   35.4700   32.0140   31.0100 O   0  0  0  0  0  0  0  0  0  0  0  0
   33.4390   30.9170   31.0980 N   0  0  0  0  0  0  0  0  0  0  0  0
   32.6330   31.4540   31.5390 H   0  0  0  0  0  0  0  0  0  0  0  0
   32.9430   30.3300   30.3980 H   0  0  0  0  0  0  0  0  0  0  0  0
   34.7330   31.3490   34.5390 C   0  0  0  0  0  0  0  0  0  0  0  0
   35.3360   31.6660   35.9460 C   0  0  0  0  0  0  0  0  0  0  0  0
   35.5620   32.5880   34.8320 C   0  0  0  0  0  0  0  0  0  0  0  0
  1  6  1  0  0  0  0
  1  7  1  0  0  0  0
  2  1  2  0  0  0  0
  3  4  2  0  0  0  0
  3  2  1  0  0  0  0
  4  5  1  0  0  0  0
  5  9  1  0  0  0  0
  5  6  2  0  0  0  0
  8  3  1  0  0  0  0
  9 13  1  0  0  0  0
 10 11  1  0  0  0  0
 10  9  2  0  0  0  0
 11 12  1  0  0  0  0
 12 14  1  0  0  0  0
 13 12  2  0  0  0  0
 14 16  1  0  0  0  0
 14 17  1  0  0  0  0
 15 10  1  0  0  0  0
 18  2  1  0  0  0  0
 18 19  2  0  0  0  0
 19 23  1  0  0  0  0
 20 19  1  0  0  0  0
 20 29  1  0  0  0  0
 21 20  2  0  0  0  0
 22 21  1  0  0  0  0
 22 18  1  0  0  0  0
 24 21  1  0  0  0  0
 25 24  2  0  0  0  0
 26 24  1  0  0  0  0
 26 27  1  0  0  0  0
 28 26  1  0  0  0  0
 29 31  1  0  0  0  0
 29 30  1  0  0  0  0
 31 30  1  0  0  0  0
M  END
>  <minimizedAffinity>
-5.13210869

>  <minimizedRMSD>
3.67345023

$$$$
