
 OpenBabel03262518453D

 33 37  0  0  1  0  0  0  0  0999 V2000
   39.4610   26.8710   34.0120 C   0  0  0  0  0  0  0  0  0  0  0  0
   38.2690   27.4720   33.5540 C   0  0  0  0  0  0  0  0  0  0  0  0
   37.0670   27.1200   34.1470 C   0  0  0  0  0  0  0  0  0  0  0  0
   37.1090   26.2020   35.1520 N   0  0  0  0  0  0  0  0  0  0  0  0
   38.2600   25.6540   35.5590 C   0  0  0  0  0  0  0  0  0  0  0  0
   39.4350   25.9720   35.0080 N   0  0  0  0  0  0  0  0  0  0  0  0
   38.1670   24.7010   36.6250 N   0  0  0  0  0  0  0  0  0  0  0  0
   38.1570   25.2380   37.8120 N   0  0  0  0  0  0  0  0  0  0  0  0
   38.0670   24.2590   38.7420 C   0  0  0  0  0  0  0  0  0  0  0  0
   38.0200   23.0700   38.0930 C   0  0  0  0  0  0  0  0  0  0  0  0
   38.0850   23.3620   36.7440 C   0  0  0  0  0  0  0  0  0  0  0  0
   38.3450   28.1880   32.7510 H   0  0  0  0  0  0  0  0  0  0  0  0
   36.1570   27.5670   33.8090 H   0  0  0  0  0  0  0  0  0  0  0  0
   38.0320   24.3250   39.8220 H   0  0  0  0  0  0  0  0  0  0  0  0
   37.9480   22.0220   38.3960 H   0  0  0  0  0  0  0  0  0  0  0  0
   38.0840   22.5980   35.5090 C   0  0  0  0  0  0  0  0  0  0  0  0
   39.0740   22.1290   34.7450 N   0  0  0  0  0  0  0  0  0  0  0  0
   38.5940   21.4910   33.7230 O   0  0  0  0  0  0  0  0  0  0  0  0
   37.2590   21.5590   33.8400 C   0  0  0  0  0  0  0  0  0  0  0  0
   36.8930   22.2360   34.9350 N   0  0  0  0  0  0  0  0  0  0  0  0
   36.2890   20.9550   32.8800 C   0  0  2  0  0  0  0  0  0  0  0  0
   35.5610   19.6980   33.2490 C   0  0  0  0  0  0  0  0  0  0  0  0
   36.6280   19.7000   32.1610 C   0  0  1  0  0  0  0  0  0  0  0  0
   35.6580   21.6980   32.3220 H   0  0  0  0  0  0  0  0  0  0  0  0
   34.5050   19.6000   33.0010 H   0  0  0  0  0  0  0  0  0  0  0  0
   35.8210   19.2780   34.2530 H   0  0  0  0  0  0  0  0  0  0  0  0
   37.5720   19.2180   32.4870 H   0  0  0  0  0  0  0  0  0  0  0  0
   36.2170   19.4290   30.7450 C   0  0  0  0  0  0  0  0  0  0  0  0
   37.3060   19.6170   29.7120 C   0  0  0  0  0  0  0  0  0  0  0  0
   36.9510   18.2240   30.1370 C   0  0  0  0  0  0  0  0  0  0  0  0
   40.6980   27.2290   33.4050 N   0  0  0  0  0  0  0  0  0  0  0  0
   40.8780   28.1640   32.9650 H   0  0  0  0  0  0  0  0  0  0  0  0
   41.4730   26.5590   33.3790 H   0  0  0  0  0  0  0  0  0  0  0  0
  1  6  1  0  0  0  0
  2  1  2  0  0  0  0
  2  3  1  0  0  0  0
  3  4  2  0  0  0  0
  4  5  1  0  0  0  0
  5  7  1  0  0  0  0
  6  5  2  0  0  0  0
  7 11  1  0  0  0  0
  7  8  1  0  0  0  0
  8  9  2  0  0  0  0
  9 14  1  0  0  0  0
 10 15  1  0  0  0  0
 10  9  1  0  0  0  0
 11 10  2  0  0  0  0
 12  2  1  0  0  0  0
 13  3  1  0  0  0  0
 16 11  1  0  0  0  0
 17 16  2  0  0  0  0
 18 19  1  0  0  0  0
 18 17  1  0  0  0  0
 19 20  2  0  0  0  0
 20 16  1  0  0  0  0
 21 24  1  6  0  0  0
 21 22  1  0  0  0  0
 21 19  1  0  0  0  0
 22 26  1  0  0  0  0
 23 27  1  1  0  0  0
 23 21  1  0  0  0  0
 23 22  1  0  0  0  0
 25 22  1  0  0  0  0
 28 23  1  0  0  0  0
 29 30  1  0  0  0  0
 29 28  1  0  0  0  0
 30 28  1  0  0  0  0
 31  1  1  0  0  0  0
 32 31  1  0  0  0  0
 33 31  1  0  0  0  0
M  END
>  <minimizedAffinity>
-5.17652702

>  <minimizedRMSD>
6.01210117

$$$$
