
 OpenBabel03262519483D

 35 38  0  0  1  0  0  0  0  0999 V2000
   38.4440   25.9660   33.9130 C   0  0  0  0  0  0  0  0  0  0  0  0
   39.2140   25.1470   33.8290 H   0  0  0  0  0  0  0  0  0  0  0  0
   38.9770   26.9070   33.6850 H   0  0  0  0  0  0  0  0  0  0  0  0
   37.4440   25.7140   32.9590 N   0  0  0  0  0  0  0  0  0  0  0  0
   36.9760   24.6280   32.3410 C   0  0  0  0  0  0  0  0  0  0  0  0
   35.9400   24.8720   31.4650 C   0  0  0  0  0  0  0  0  0  0  0  0
   35.7600   26.1870   31.5470 N   0  0  0  0  0  0  0  0  0  0  0  0
   36.6610   26.7010   32.4420 C   0  0  0  0  0  0  0  0  0  0  0  0
   37.3990   23.6280   32.5340 H   0  0  0  0  0  0  0  0  0  0  0  0
   35.4530   24.0880   30.8860 H   0  0  0  0  0  0  0  0  0  0  0  0
   36.6790   28.1970   32.6930 C   0  0  1  0  0  0  0  0  0  0  0  0
   35.5100   28.9450   32.1740 C   0  0  0  0  0  0  0  0  0  0  0  0
   35.6430   28.7280   33.6700 C   0  0  2  0  0  0  0  0  0  0  0  0
   37.6620   28.6510   32.8180 H   0  0  0  0  0  0  0  0  0  0  0  0
   35.5830   29.9270   31.7230 H   0  0  0  0  0  0  0  0  0  0  0  0
   34.6660   28.3270   31.7500 H   0  0  0  0  0  0  0  0  0  0  0  0
   35.0640   27.9570   34.1750 H   0  0  0  0  0  0  0  0  0  0  0  0
   35.8210   30.0490   34.3650 C   0  0  0  0  0  0  0  0  0  0  0  0
   35.4090   31.3450   33.8450 C   0  0  0  0  0  0  0  0  0  0  0  0
   34.7140   30.7140   35.0680 C   0  0  0  0  0  0  0  0  0  0  0  0
   37.9470   25.9680   35.3130 C   0  0  1  0  0  0  0  0  0  0  0  0
   36.8410   25.8500   35.3790 H   0  0  0  0  0  0  0  0  0  0  0  0
   38.5360   23.4720   38.0970 C   0  0  0  0  0  0  0  0  0  0  0  0
   37.9400   24.5370   37.4030 C   0  0  0  0  0  0  0  0  0  0  0  0
   38.5170   24.8720   36.1290 C   0  0  0  0  0  0  0  0  0  0  0  0
   39.6010   24.1510   35.6590 N   0  0  0  0  0  0  0  0  0  0  0  0
   40.1250   23.1510   36.3610 C   0  0  0  0  0  0  0  0  0  0  0  0
   39.5860   22.8070   37.5940 N   0  0  0  0  0  0  0  0  0  0  0  0
   38.0900   23.2370   39.0470 H   0  0  0  0  0  0  0  0  0  0  0  0
   37.0940   25.1180   37.7420 H   0  0  0  0  0  0  0  0  0  0  0  0
   40.9710   22.5640   36.0270 H   0  0  0  0  0  0  0  0  0  0  0  0
   38.2310   27.3130   35.9700 C   0  0  0  0  0  0  0  0  0  0  0  0
   37.3430   27.9410   36.0320 H   0  0  0  0  0  0  0  0  0  0  0  0
   39.1110   27.7630   35.4910 H   0  0  0  0  0  0  0  0  0  0  0  0
   38.5230   27.0910   37.0280 H   0  0  0  0  0  0  0  0  0  0  0  0
  1 21  1  0  0  0  0
  2  1  1  0  0  0  0
  3  1  1  0  0  0  0
  4  1  1  0  0  0  0
  5  9  1  0  0  0  0
  5  4  1  0  0  0  0
  6  7  1  0  0  0  0
  6  5  2  0  0  0  0
  7  8  2  0  0  0  0
  8 11  1  0  0  0  0
  8  4  1  0  0  0  0
 10  6  1  0  0  0  0
 11 14  1  6  0  0  0
 11 13  1  0  0  0  0
 12 11  1  0  0  0  0
 12 13  1  0  0  0  0
 13 17  1  1  0  0  0
 13 18  1  0  0  0  0
 15 12  1  0  0  0  0
 16 12  1  0  0  0  0
 18 20  1  0  0  0  0
 19 18  1  0  0  0  0
 19 20  1  0  0  0  0
 21 22  1  6  0  0  0
 21 32  1  0  0  0  0
 21 25  1  0  0  0  0
 23 29  1  0  0  0  0
 24 30  1  0  0  0  0
 24 23  2  0  0  0  0
 25 24  1  0  0  0  0
 26 25  2  0  0  0  0
 26 27  1  0  0  0  0
 27 28  2  0  0  0  0
 28 23  1  0  0  0  0
 31 27  1  0  0  0  0
 32 33  1  0  0  0  0
 32 35  1  0  0  0  0
 34 32  1  0  0  0  0
M  END
>  <minimizedAffinity>
-5.08583879

>  <minimizedRMSD>
0.700708032

$$$$
