
 OpenBabel03262519573D

 26 29  0  0  1  0  0  0  0  0999 V2000
   37.3490   24.0630   32.4800 C   0  0  0  0  0  0  0  0  0  0  0  0
   36.7770   23.1430   31.6130 C   0  0  0  0  0  0  0  0  0  0  0  0
   36.8690   21.9630   32.2890 N   0  0  0  0  0  0  0  0  0  0  0  0
   37.4520   22.2000   33.4540 C   0  0  0  0  0  0  0  0  0  0  0  0
   37.7670   23.4940   33.6150 N   0  0  0  0  0  0  0  0  0  0  0  0
   36.3690   23.3470   30.6470 H   0  0  0  0  0  0  0  0  0  0  0  0
   37.6480   21.4160   34.1950 H   0  0  0  0  0  0  0  0  0  0  0  0
   37.4850   25.4850   32.2020 C   0  0  0  0  0  0  0  0  0  0  0  0
   38.4720   25.9490   31.3240 C   0  0  0  0  0  0  0  0  0  0  0  0
   38.5660   27.3410   31.0870 C   0  0  0  0  0  0  0  0  0  0  0  0
   37.6950   28.1360   31.7230 N   0  0  0  0  0  0  0  0  0  0  0  0
   36.7480   27.6770   32.5670 C   0  0  0  0  0  0  0  0  0  0  0  0
   36.6500   26.3540   32.8010 N   0  0  0  0  0  0  0  0  0  0  0  0
   39.1530   25.2780   30.8320 H   0  0  0  0  0  0  0  0  0  0  0  0
   39.3080   27.7510   30.4190 H   0  0  0  0  0  0  0  0  0  0  0  0
   36.0310   28.2910   33.0960 H   0  0  0  0  0  0  0  0  0  0  0  0
   38.4050   24.0370   34.7760 C   0  0  1  0  0  0  0  0  0  0  0  0
   39.5310   23.3990   35.4390 C   0  0  0  0  0  0  0  0  0  0  0  0
   39.8270   24.5200   34.4800 C   0  0  2  0  0  0  0  0  0  0  0  0
   37.7630   24.7080   35.3760 H   0  0  0  0  0  0  0  0  0  0  0  0
   39.6650   23.5750   36.5210 H   0  0  0  0  0  0  0  0  0  0  0  0
   39.7840   22.3430   35.1500 H   0  0  0  0  0  0  0  0  0  0  0  0
   40.3040   24.2670   33.5190 H   0  0  0  0  0  0  0  0  0  0  0  0
   40.3130   25.7820   35.0960 C   0  0  0  0  0  3  0  0  0  0  0  0
   40.8220   26.8820   34.1630 C   0  0  0  0  0  2  0  0  0  0  0  0
   39.5830   27.0600   34.9970 C   0  0  0  0  0  2  0  0  0  0  0  0
  1  5  1  0  0  0  0
  2  3  1  0  0  0  0
  2  1  2  0  0  0  0
  3  4  2  0  0  0  0
  4  5  1  0  0  0  0
  4  7  1  0  0  0  0
  5 17  1  0  0  0  0
  6  2  1  0  0  0  0
  8  1  1  0  0  0  0
  8 13  1  0  0  0  0
  9  8  2  0  0  0  0
 10  9  1  0  0  0  0
 10 11  2  0  0  0  0
 11 12  1  0  0  0  0
 12 13  2  0  0  0  0
 12 16  1  0  0  0  0
 14  9  1  0  0  0  0
 15 10  1  0  0  0  0
 17 20  1  1  0  0  0
 17 18  1  0  0  0  0
 18 21  1  0  0  0  0
 19 23  1  6  0  0  0
 19 17  1  0  0  0  0
 19 24  1  0  0  0  0
 19 18  1  0  0  0  0
 22 18  1  0  0  0  0
 25 26  1  0  0  0  0
 25 24  1  0  0  0  0
 26 24  1  0  0  0  0
M  END
>  <minimizedAffinity>
-3.75735569

>  <minimizedRMSD>
6.02774525

$$$$
