
 OpenBabel03262519263D

 39 44  0  0  0  0  0  0  0  0999 V2000
   39.6500   25.5300   32.5980 C   0  0  0  0  0  0  0  0  0  0  0  0
   39.8850   25.9280   33.9400 C   0  0  0  0  0  0  0  0  0  0  0  0
   40.7550   26.9990   34.1310 C   0  0  0  0  0  0  0  0  0  0  0  0
   41.3420   27.6150   33.0770 N   0  0  0  0  0  0  0  0  0  0  0  0
   41.1000   27.2040   31.8120 C   0  0  0  0  0  0  0  0  0  0  0  0
   40.2830   26.1990   31.6090 N   0  0  0  0  0  0  0  0  0  0  0  0
   40.9510   27.3270   35.1440 H   0  0  0  0  0  0  0  0  0  0  0  0
   41.5590   27.6810   30.9680 H   0  0  0  0  0  0  0  0  0  0  0  0
   38.7800   24.4480   32.2540 C   0  0  0  0  0  0  0  0  0  0  0  0
   39.2450   23.1430   32.3270 C   0  0  0  0  0  0  0  0  0  0  0  0
   38.4400   22.0490   32.0120 C   0  0  0  0  0  0  0  0  0  0  0  0
   37.1250   22.2510   31.6100 C   0  0  0  0  0  0  0  0  0  0  0  0
   36.6460   23.5390   31.5320 C   0  0  0  0  0  0  0  0  0  0  0  0
   35.3670   23.7360   31.1190 C   0  0  0  0  0  0  0  0  0  0  0  0
   34.8380   25.0060   30.9920 C   0  0  0  0  0  0  0  0  0  0  0  0
   35.6590   26.0930   31.3010 C   0  0  0  0  0  0  0  0  0  0  0  0
   36.9530   25.8330   31.7230 C   0  0  0  0  0  0  0  0  0  0  0  0
   37.4720   24.5870   31.8490 C   0  0  0  0  0  0  0  0  0  0  0  0
   40.2720   22.9770   32.6410 H   0  0  0  0  0  0  0  0  0  0  0  0
   38.8880   21.0900   32.0990 H   0  0  0  0  0  0  0  0  0  0  0  0
   36.4960   21.4080   31.3650 H   0  0  0  0  0  0  0  0  0  0  0  0
   34.7610   22.8510   30.8870 H   0  0  0  0  0  0  0  0  0  0  0  0
   33.8120   25.0360   30.6570 H   0  0  0  0  0  0  0  0  0  0  0  0
   35.0810   26.9880   31.1280 H   0  0  0  0  0  0  0  0  0  0  0  0
   37.6890   27.0990   32.0170 C   0  0  0  0  0  0  0  0  0  0  0  0
   37.0360   28.0990   33.0470 C   0  0  0  0  0  0  0  0  0  0  0  0
   36.9650   28.2970   31.6550 C   0  0  0  0  0  0  0  0  0  0  0  0
   39.2580   25.2710   34.9750 N   0  0  0  0  0  0  0  0  0  0  0  0
   37.9980   25.4870   35.4020 C   0  0  0  0  0  0  0  0  0  0  0  0
   37.6850   24.6800   36.4470 N   0  0  0  0  0  0  0  0  0  0  0  0
   38.7820   23.9320   36.6840 C   0  0  0  0  0  0  0  0  0  0  0  0
   39.0880   22.9560   37.5890 C   0  0  0  0  0  0  0  0  0  0  0  0
   40.2900   22.3260   37.6440 N   0  0  0  0  0  0  0  0  0  0  0  0
   41.2020   22.7300   36.7230 C   0  0  0  0  0  0  0  0  0  0  0  0
   40.8910   23.6810   35.8490 N   0  0  0  0  0  0  0  0  0  0  0  0
   39.7380   24.3180   35.7620 C   0  0  0  0  0  0  0  0  0  0  0  0
   37.2080   26.1540   35.0900 H   0  0  0  0  0  0  0  0  0  0  0  0
   38.3460   22.6320   38.3310 H   0  0  0  0  0  0  0  0  0  0  0  0
   42.2100   22.3380   36.6220 H   0  0  0  0  0  0  0  0  0  0  0  0
  1  2  1  0  0  0  0
  2  3  2  0  0  0  0
  2 28  1  0  0  0  0
  3  7  1  0  0  0  0
  4  3  1  0  0  0  0
  5  4  2  0  0  0  0
  6  5  1  0  0  0  0
  6  1  2  0  0  0  0
  8  5  1  0  0  0  0
  9 10  1  0  0  0  0
  9  1  1  0  0  0  0
 10 19  1  0  0  0  0
 11 20  1  0  0  0  0
 11 10  2  0  0  0  0
 12 11  1  0  0  0  0
 13 12  2  0  0  0  0
 13 18  1  0  0  0  0
 14 13  1  0  0  0  0
 15 14  2  0  0  0  0
 15 16  1  0  0  0  0
 16 17  2  0  0  0  0
 17 18  1  0  0  0  0
 17 25  1  0  0  0  0
 18  9  2  0  0  0  0
 21 12  1  0  0  0  0
 22 14  1  0  0  0  0
 23 15  1  0  0  0  0
 24 16  1  0  0  0  0
 25 26  1  0  0  0  0
 27 25  1  0  0  0  0
 27 26  1  0  0  0  0
 28 29  1  0  0  0  0
 28 36  1  0  0  0  0
 29 30  2  0  0  0  0
 30 31  1  0  0  0  0
 31 32  1  0  0  0  0
 32 33  2  0  0  0  0
 32 38  1  0  0  0  0
 34 33  1  0  0  0  0
 35 34  2  0  0  0  0
 36 35  1  0  0  0  0
 36 31  2  0  0  0  0
 37 29  1  0  0  0  0
 39 34  1  0  0  0  0
M  END
>  <minimizedAffinity>
-6.12540674

>  <minimizedRMSD>
0.276315212

$$$$
