
 OpenBabel03262519583D

 29 32  0  0  1  0  0  0  0  0999 V2000
   38.0890   23.9410   34.5690 C   0  0  0  0  0  0  0  0  0  0  0  0
   38.1640   25.2010   33.9840 C   0  0  0  0  0  0  0  0  0  0  0  0
   37.7320   24.9860   32.6990 N   0  0  0  0  0  0  0  0  0  0  0  0
   37.4380   23.7090   32.5740 C   0  0  0  0  0  0  0  0  0  0  0  0
   37.6470   23.0290   33.7150 N   0  0  0  0  0  0  0  0  0  0  0  0
   38.4860   26.1240   34.4340 H   0  0  0  0  0  0  0  0  0  0  0  0
   37.0660   23.2520   31.6490 H   0  0  0  0  0  0  0  0  0  0  0  0
   38.4510   23.6470   35.9560 C   0  0  0  0  0  0  0  0  0  0  0  0
   39.6930   23.0590   36.2570 C   0  0  0  0  0  0  0  0  0  0  0  0
   39.9770   22.8030   37.6220 C   0  0  0  0  0  0  0  0  0  0  0  0
   39.0440   23.1390   38.5390 N   0  0  0  0  0  0  0  0  0  0  0  0
   37.8640   23.7020   38.2080 C   0  0  0  0  0  0  0  0  0  0  0  0
   37.5460   23.9650   36.9180 N   0  0  0  0  0  0  0  0  0  0  0  0
   40.3960   22.8150   35.4730 H   0  0  0  0  0  0  0  0  0  0  0  0
   40.9110   22.3560   37.8910 H   0  0  0  0  0  0  0  0  0  0  0  0
   37.1090   23.9730   38.9340 H   0  0  0  0  0  0  0  0  0  0  0  0
   37.4140   21.6160   33.8800 C   0  0  1  0  0  0  0  0  0  0  0  0
   36.1870   21.0850   34.4450 C   0  0  0  0  0  0  0  0  0  0  0  0
   36.3560   21.0660   32.9520 C   0  0  2  0  0  0  0  0  0  0  0  0
   38.3330   21.0010   33.9010 H   0  0  0  0  0  0  0  0  0  0  0  0
   35.4610   21.8190   34.8350 H   0  0  0  0  0  0  0  0  0  0  0  0
   36.2830   20.1400   35.0190 H   0  0  0  0  0  0  0  0  0  0  0  0
   35.7650   21.7720   32.3310 H   0  0  0  0  0  0  0  0  0  0  0  0
   36.5270   19.7190   32.3460 C   0  0  0  0  0  3  0  0  0  0  0  0
   36.6340   19.7340   30.8400 C   0  0  0  0  0  2  0  0  0  0  0  0
   37.0840   18.3520   30.4180 C   0  0  0  0  0  2  0  0  0  0  0  0
   36.2510   17.2400   30.9530 C   0  0  0  0  0  2  0  0  0  0  0  0
   35.9030   17.3810   32.4060 C   0  0  0  0  0  2  0  0  0  0  0  0
   35.3800   18.7800   32.6610 C   0  0  0  0  0  2  0  0  0  0  0  0
  1  8  1  0  0  0  0
  2  6  1  0  0  0  0
  2  1  2  0  0  0  0
  3  2  1  0  0  0  0
  4  3  2  0  0  0  0
  4  5  1  0  0  0  0
  5 17  1  0  0  0  0
  5  1  1  0  0  0  0
  7  4  1  0  0  0  0
  8  9  2  0  0  0  0
  8 13  1  0  0  0  0
  9 10  1  0  0  0  0
 10 15  1  0  0  0  0
 10 11  2  0  0  0  0
 12 11  1  0  0  0  0
 12 16  1  0  0  0  0
 13 12  2  0  0  0  0
 14  9  1  0  0  0  0
 17 20  1  1  0  0  0
 17 18  1  0  0  0  0
 18 21  1  0  0  0  0
 18 22  1  0  0  0  0
 19 23  1  6  0  0  0
 19 17  1  0  0  0  0
 19 18  1  0  0  0  0
 24 29  1  0  0  0  0
 24 19  1  0  0  0  0
 25 24  1  0  0  0  0
 26 25  1  0  0  0  0
 26 27  1  0  0  0  0
 27 28  1  0  0  0  0
 28 29  1  0  0  0  0
M  END
>  <minimizedAffinity>
-4.97202301

>  <minimizedRMSD>
1.10057151

$$$$
