
 OpenBabel03262519573D

 29 32  0  0  1  0  0  0  0  0999 V2000
   38.0780   23.2060   34.8260 C   0  0  0  0  0  0  0  0  0  0  0  0
   38.1160   23.0340   36.2060 C   0  0  0  0  0  0  0  0  0  0  0  0
   38.1340   24.3180   36.6910 N   0  0  0  0  0  0  0  0  0  0  0  0
   38.1090   25.1430   35.6670 C   0  0  0  0  0  0  0  0  0  0  0  0
   38.0730   24.4890   34.4930 N   0  0  0  0  0  0  0  0  0  0  0  0
   38.1280   22.1100   36.7600 H   0  0  0  0  0  0  0  0  0  0  0  0
   38.1150   26.2360   35.7570 H   0  0  0  0  0  0  0  0  0  0  0  0
   38.0470   22.1130   33.8530 C   0  0  0  0  0  0  0  0  0  0  0  0
   39.2360   21.6700   33.2460 C   0  0  0  0  0  0  0  0  0  0  0  0
   39.1320   20.6070   32.3140 C   0  0  0  0  0  0  0  0  0  0  0  0
   37.9070   20.0920   32.0720 N   0  0  0  0  0  0  0  0  0  0  0  0
   36.7910   20.5470   32.6770 C   0  0  0  0  0  0  0  0  0  0  0  0
   36.8380   21.5600   33.5740 N   0  0  0  0  0  0  0  0  0  0  0  0
   40.1860   22.1270   33.4850 H   0  0  0  0  0  0  0  0  0  0  0  0
   40.0130   20.2420   31.8300 H   0  0  0  0  0  0  0  0  0  0  0  0
   35.8050   20.1430   32.4900 H   0  0  0  0  0  0  0  0  0  0  0  0
   38.0400   25.1270   33.2000 C   0  0  1  0  0  0  0  0  0  0  0  0
   37.1530   24.6940   32.1360 C   0  0  0  0  0  0  0  0  0  0  0  0
   36.7680   25.9020   32.9430 C   0  0  2  0  0  0  0  0  0  0  0  0
   38.9530   25.6980   32.9490 H   0  0  0  0  0  0  0  0  0  0  0  0
   36.5590   23.7840   32.3230 H   0  0  0  0  0  0  0  0  0  0  0  0
   37.5330   24.8260   31.1010 H   0  0  0  0  0  0  0  0  0  0  0  0
   35.9330   25.8240   33.6710 H   0  0  0  0  0  0  0  0  0  0  0  0
   36.8230   27.1990   32.2170 C   0  0  0  0  0  3  0  0  0  0  0  0
   36.0150   28.2970   32.8650 C   0  0  0  0  0  2  0  0  0  0  0  0
   36.4030   29.5900   32.1790 C   0  0  0  0  0  2  0  0  0  0  0  0
   36.2960   29.5580   30.6940 C   0  0  0  0  0  2  0  0  0  0  0  0
   36.8510   28.3130   30.0690 C   0  0  0  0  0  2  0  0  0  0  0  0
   36.3050   27.1010   30.7960 C   0  0  0  0  0  2  0  0  0  0  0  0
  1  2  2  0  0  0  0
  2  3  1  0  0  0  0
  2  6  1  0  0  0  0
  4  7  1  0  0  0  0
  4  3  2  0  0  0  0
  5  1  1  0  0  0  0
  5  4  1  0  0  0  0
  8  1  1  0  0  0  0
  9 14  1  0  0  0  0
  9  8  2  0  0  0  0
 10  9  1  0  0  0  0
 11 10  2  0  0  0  0
 11 12  1  0  0  0  0
 12 13  2  0  0  0  0
 13  8  1  0  0  0  0
 15 10  1  0  0  0  0
 16 12  1  0  0  0  0
 17 20  1  6  0  0  0
 17  5  1  0  0  0  0
 18 21  1  0  0  0  0
 18 19  1  0  0  0  0
 18 17  1  0  0  0  0
 19 17  1  0  0  0  0
 19 23  1  1  0  0  0
 22 18  1  0  0  0  0
 24 25  1  0  0  0  0
 24 19  1  0  0  0  0
 26 25  1  0  0  0  0
 27 26  1  0  0  0  0
 28 27  1  0  0  0  0
 28 29  1  0  0  0  0
 29 24  1  0  0  0  0
M  END
>  <minimizedAffinity>
-4.34980536

>  <minimizedRMSD>
7.05503511

$$$$
