
 OpenBabel03262519573D

 29 32  0  0  1  0  0  0  0  0999 V2000
   37.8540   23.7260   32.9420 C   0  0  0  0  0  0  0  0  0  0  0  0
   38.1180   24.9210   32.2800 C   0  0  0  0  0  0  0  0  0  0  0  0
   37.2360   24.9090   31.2280 N   0  0  0  0  0  0  0  0  0  0  0  0
   36.5340   23.7980   31.2950 C   0  0  0  0  0  0  0  0  0  0  0  0
   36.8910   23.0380   32.3450 N   0  0  0  0  0  0  0  0  0  0  0  0
   38.8430   25.6750   32.5360 H   0  0  0  0  0  0  0  0  0  0  0  0
   35.7510   23.5220   30.5780 H   0  0  0  0  0  0  0  0  0  0  0  0
   38.5490   23.2730   34.1470 C   0  0  0  0  0  0  0  0  0  0  0  0
   39.7550   22.5550   34.0450 C   0  0  0  0  0  0  0  0  0  0  0  0
   40.3730   22.1490   35.2540 C   0  0  0  0  0  0  0  0  0  0  0  0
   39.7700   22.4750   36.4170 N   0  0  0  0  0  0  0  0  0  0  0  0
   38.6120   23.1660   36.4710 C   0  0  0  0  0  0  0  0  0  0  0  0
   37.9830   23.5760   35.3450 N   0  0  0  0  0  0  0  0  0  0  0  0
   40.1840   22.3270   33.0800 H   0  0  0  0  0  0  0  0  0  0  0  0
   41.2910   21.6010   35.2180 H   0  0  0  0  0  0  0  0  0  0  0  0
   38.1200   23.4320   37.3970 H   0  0  0  0  0  0  0  0  0  0  0  0
   36.2980   21.7650   32.6740 C   0  0  1  0  0  0  0  0  0  0  0  0
   34.9150   21.4440   32.3720 C   0  0  0  0  0  0  0  0  0  0  0  0
   35.9890   20.9140   31.4630 C   0  0  2  0  0  0  0  0  0  0  0  0
   36.8250   21.2080   33.4700 H   0  0  0  0  0  0  0  0  0  0  0  0
   34.2960   22.2560   31.9580 H   0  0  0  0  0  0  0  0  0  0  0  0
   34.4090   20.7550   33.0810 H   0  0  0  0  0  0  0  0  0  0  0  0
   36.1070   21.3550   30.4510 H   0  0  0  0  0  0  0  0  0  0  0  0
   36.2020   19.4430   31.5160 C   0  0  0  0  0  3  0  0  0  0  0  0
   35.4080   18.7490   32.5960 C   0  0  0  0  0  2  0  0  0  0  0  0
   35.5160   17.2620   32.3310 C   0  0  0  0  0  2  0  0  0  0  0  0
   36.9100   16.7580   32.1890 C   0  0  0  0  0  2  0  0  0  0  0  0
   37.7860   17.6240   31.3330 C   0  0  0  0  0  2  0  0  0  0  0  0
   37.6480   19.0670   31.7720 C   0  0  0  0  0  2  0  0  0  0  0  0
  1  8  1  0  0  0  0
  2  6  1  0  0  0  0
  2  1  2  0  0  0  0
  3  4  2  0  0  0  0
  3  2  1  0  0  0  0
  4  5  1  0  0  0  0
  5 17  1  0  0  0  0
  5  1  1  0  0  0  0
  7  4  1  0  0  0  0
  8 13  1  0  0  0  0
  9  8  2  0  0  0  0
  9 10  1  0  0  0  0
 10 11  2  0  0  0  0
 11 12  1  0  0  0  0
 12 16  1  0  0  0  0
 13 12  2  0  0  0  0
 14  9  1  0  0  0  0
 15 10  1  0  0  0  0
 17 20  1  1  0  0  0
 18 17  1  0  0  0  0
 18 22  1  0  0  0  0
 19 23  1  6  0  0  0
 19 24  1  0  0  0  0
 19 18  1  0  0  0  0
 19 17  1  0  0  0  0
 21 18  1  0  0  0  0
 24 29  1  0  0  0  0
 24 25  1  0  0  0  0
 26 25  1  0  0  0  0
 27 26  1  0  0  0  0
 28 29  1  0  0  0  0
 28 27  1  0  0  0  0
M  END
>  <minimizedAffinity>
-4.62984276

>  <minimizedRMSD>
2.06304765

$$$$
