REMARK  Name = 
REMARK  3 active torsions:
REMARK  status: ('A' for Active; 'I' for Inactive)
REMARK    1  A    between atoms: C_1  and  C_6
REMARK    2  A    between atoms: N_5  and  C_12
REMARK    3  A    between atoms: C_14  and  C_24
REMARK                            x       y       z     vdW  Elec       q    Type
REMARK                         _______ _______ _______ _____ _____    ______ ____
ROOT
ATOM      1  C   UNL     1      38.028  23.470  34.620  0.00  0.00    +0.000 A 
ATOM      2  C   UNL     1      38.263  24.569  33.800  0.00  0.00    +0.000 A 
ATOM      3  N   UNL     1      37.753  24.180  32.586  0.00  0.00    +0.000 NA
ATOM      4  C   UNL     1      37.272  22.962  32.715  0.00  0.00    +0.000 A 
ATOM      5  N   UNL     1      37.425  22.489  33.964  0.00  0.00    +0.000 N 
ATOM      6  H   UNL     1      38.733  25.502  34.059  0.00  0.00    +0.000 HD
ATOM      7  H   UNL     1      36.801  22.398  31.901  0.00  0.00    +0.000 HD
ENDROOT
BRANCH   1   8
ATOM      8  C   UNL     1      38.398  23.395  36.034  0.00  0.00    +0.000 A 
ATOM      9  C   UNL     1      39.604  22.782  36.421  0.00  0.00    +0.000 A 
ATOM     10  C   UNL     1      39.898  22.746  37.807  0.00  0.00    +0.000 A 
ATOM     11  N   UNL     1      39.009  23.299  38.660  0.00  0.00    +0.000 NA
ATOM     12  C   UNL     1      37.863  23.878  38.247  0.00  0.00    +0.000 A 
ATOM     13  N   UNL     1      37.537  23.937  36.934  0.00  0.00    +0.000 NA
ATOM     14  H   UNL     1      40.272  22.358  35.685  0.00  0.00    +0.000 HD
ATOM     15  H   UNL     1      40.805  22.288  38.142  0.00  0.00    +0.000 HD
ATOM     16  H   UNL     1      37.144  24.323  38.921  0.00  0.00    +0.000 HD
ENDBRANCH   1   8
BRANCH   5  17
ATOM     17  C   UNL     1      36.996  21.184  34.404  0.00  0.00    +0.000 C 
ATOM     18  C   UNL     1      35.828  20.986  35.243  0.00  0.00    +0.000 C 
ATOM     19  C   UNL     1      35.703  20.728  33.767  0.00  0.00    +0.000 C 
ATOM     20  H   UNL     1      37.786  20.411  34.380  0.00  0.00    +0.000 HD
ATOM     21  H   UNL     1      35.323  21.893  35.614  0.00  0.00    +0.000 HD
ATOM     22  H   UNL     1      35.873  20.128  35.946  0.00  0.00    +0.000 HD
ATOM     23  H   UNL     1      35.131  21.443  33.139  0.00  0.00    +0.000 HD
BRANCH  19  24
ATOM     24  C   UNL     1      35.529  19.303  33.380  0.00  0.00    +0.000 C 
ATOM     25  C   UNL     1      35.645  18.337  34.535  0.00  0.00    +0.000 C 
ATOM     26  C   UNL     1      35.167  16.992  34.031  0.00  0.00    +0.000 C 
ATOM     27  C   UNL     1      35.836  16.526  32.785  0.00  0.00    +0.000 C 
ATOM     28  C   UNL     1      35.977  17.587  31.734  0.00  0.00    +0.000 C 
ATOM     29  C   UNL     1      36.552  18.840  32.362  0.00  0.00    +0.000 C 
ENDBRANCH  19  24
ENDBRANCH   5  17
TORSDOF 3
