
 OpenBabel03262519583D

 29 32  0  0  1  0  0  0  0  0999 V2000
   38.1550   24.2160   34.7750 C   0  0  0  0  0  0  0  0  0  0  0  0
   38.1930   25.5090   34.2630 C   0  0  0  0  0  0  0  0  0  0  0  0
   37.8240   25.3470   32.9510 N   0  0  0  0  0  0  0  0  0  0  0  0
   37.5980   24.0670   32.7440 C   0  0  0  0  0  0  0  0  0  0  0  0
   37.7940   23.3340   33.8540 N   0  0  0  0  0  0  0  0  0  0  0  0
   38.4510   26.4190   34.7770 H   0  0  0  0  0  0  0  0  0  0  0  0
   37.2870   23.6460   31.7800 H   0  0  0  0  0  0  0  0  0  0  0  0
   38.4750   23.8610   36.1580 C   0  0  0  0  0  0  0  0  0  0  0  0
   39.6760   23.1940   36.4610 C   0  0  0  0  0  0  0  0  0  0  0  0
   39.9200   22.8830   37.8220 C   0  0  0  0  0  0  0  0  0  0  0  0
   38.9910   23.2440   38.7340 N   0  0  0  0  0  0  0  0  0  0  0  0
   37.8510   23.8830   38.4010 C   0  0  0  0  0  0  0  0  0  0  0  0
   37.5720   24.2020   37.1150 N   0  0  0  0  0  0  0  0  0  0  0  0
   40.3780   22.9340   35.6820 H   0  0  0  0  0  0  0  0  0  0  0  0
   40.8220   22.3750   38.0940 H   0  0  0  0  0  0  0  0  0  0  0  0
   37.1000   24.1760   39.1220 H   0  0  0  0  0  0  0  0  0  0  0  0
   37.6240   21.9040   33.9320 C   0  0  1  0  0  0  0  0  0  0  0  0
   36.4940   21.2860   34.6010 C   0  0  0  0  0  0  0  0  0  0  0  0
   36.4710   21.3880   33.1020 C   0  0  2  0  0  0  0  0  0  0  0  0
   38.5540   21.3250   33.7880 H   0  0  0  0  0  0  0  0  0  0  0  0
   35.8040   21.9590   35.1370 H   0  0  0  0  0  0  0  0  0  0  0  0
   36.6890   20.3030   35.0800 H   0  0  0  0  0  0  0  0  0  0  0  0
   35.7860   22.1170   32.6190 H   0  0  0  0  0  0  0  0  0  0  0  0
   36.6010   20.0990   32.3720 C   0  0  0  0  0  3  0  0  0  0  0  0
   36.4920   20.2310   30.8720 C   0  0  0  0  0  2  0  0  0  0  0  0
   36.9260   18.9070   30.2820 C   0  0  0  0  0  2  0  0  0  0  0  0
   36.2150   17.7210   30.8370 C   0  0  0  0  0  2  0  0  0  0  0  0
   36.0730   17.7370   32.3290 C   0  0  0  0  0  2  0  0  0  0  0  0
   35.5430   19.0890   32.7660 C   0  0  0  0  0  2  0  0  0  0  0  0
  1  8  1  0  0  0  0
  2  1  2  0  0  0  0
  2  6  1  0  0  0  0
  3  2  1  0  0  0  0
  4  3  2  0  0  0  0
  4  5  1  0  0  0  0
  5 17  1  0  0  0  0
  5  1  1  0  0  0  0
  7  4  1  0  0  0  0
  8  9  2  0  0  0  0
  8 13  1  0  0  0  0
  9 10  1  0  0  0  0
 10 15  1  0  0  0  0
 10 11  2  0  0  0  0
 12 11  1  0  0  0  0
 12 16  1  0  0  0  0
 13 12  2  0  0  0  0
 14  9  1  0  0  0  0
 17 20  1  6  0  0  0
 17 18  1  0  0  0  0
 18 22  1  0  0  0  0
 18 21  1  0  0  0  0
 19 23  1  6  0  0  0
 19 17  1  0  0  0  0
 19 18  1  0  0  0  0
 24 29  1  0  0  0  0
 24 19  1  0  0  0  0
 25 24  1  0  0  0  0
 26 27  1  0  0  0  0
 26 25  1  0  0  0  0
 27 28  1  0  0  0  0
 28 29  1  0  0  0  0
M  END
>  <minimizedAffinity>
-5.01179886

>  <minimizedRMSD>
1.33030272

$$$$
