
 OpenBabel03262519143D

 26 28  0  0  0  0  0  0  0  0999 V2000
   37.9020   25.9170   35.7570 C   0  0  0  0  0  0  0  0  0  0  0  0
   37.5370   26.0290   34.4160 C   0  0  0  0  0  0  0  0  0  0  0  0
   37.7940   24.9610   33.5420 C   0  0  0  0  0  0  0  0  0  0  0  0
   38.3970   23.8660   34.0770 N   0  0  0  0  0  0  0  0  0  0  0  0
   38.7410   23.8000   35.4120 C   0  0  0  0  0  0  0  0  0  0  0  0
   38.4880   24.8240   36.2200 N   0  0  0  0  0  0  0  0  0  0  0  0
   37.6430   26.8210   36.3180 H   0  0  0  0  0  0  0  0  0  0  0  0
   37.5420   24.9650   32.4860 H   0  0  0  0  0  0  0  0  0  0  0  0
   36.9080   27.1840   33.8260 C   0  0  0  0  0  0  0  0  0  0  0  0
   36.3770   28.2640   34.5220 C   0  0  0  0  0  0  0  0  0  0  0  0
   35.8260   29.2700   33.8030 C   0  0  0  0  0  0  0  0  0  0  0  0
   35.8240   29.1630   32.4090 C   0  0  0  0  0  0  0  0  0  0  0  0
   36.6520   27.5400   32.1110 S   0  0  0  0  0  0  0  0  0  0  0  0
   36.3980   28.3120   35.6040 H   0  0  0  0  0  0  0  0  0  0  0  0
   35.3710   30.1770   34.1660 H   0  0  0  0  0  0  0  0  0  0  0  0
   35.3660   29.9620   31.3530 C   0  0  0  0  0  0  0  0  0  0  0  0
   34.3900   30.6940   31.4750 O   0  0  0  0  0  0  0  0  0  0  0  0
   36.0250   29.9600   30.0700 N   0  0  0  0  0  0  0  0  0  0  0  0
   35.7360   29.6370   29.1180 H   0  0  0  0  0  0  0  0  0  0  0  0
   36.9870   30.3290   29.9500 H   0  0  0  0  0  0  0  0  0  0  0  0
   39.4000   22.5850   35.9600 C   0  0  0  0  0  0  0  0  0  0  0  0
   39.9360   22.8010   37.3610 C   0  0  0  0  0  0  0  0  0  0  0  0
   41.0900   21.8160   37.5400 C   0  0  0  0  0  0  0  0  0  0  0  0
   42.2540   22.3500   36.7660 C   0  0  0  0  0  0  0  0  0  0  0  0
   41.8430   22.6240   35.3480 C   0  0  0  0  0  0  0  0  0  0  0  0
   40.4740   22.0750   35.0260 C   0  0  0  0  0  0  0  0  0  0  0  0
  1  6  1  0  0  0  0
  1  7  1  0  0  0  0
  2  1  2  0  0  0  0
  3  4  2  0  0  0  0
  3  2  1  0  0  0  0
  4  5  1  0  0  0  0
  5 21  1  0  0  0  0
  5  6  2  0  0  0  0
  8  3  1  0  0  0  0
  9  2  1  0  0  0  0
  9 10  2  0  0  0  0
 10 14  1  0  0  0  0
 11 15  1  0  0  0  0
 11 10  1  0  0  0  0
 12 11  2  0  0  0  0
 13 12  1  0  0  0  0
 13  9  1  0  0  0  0
 16 17  2  0  0  0  0
 16 12  1  0  0  0  0
 18 16  1  0  0  0  0
 19 18  1  0  0  0  0
 20 18  1  0  0  0  0
 21 22  1  0  0  0  0
 22 23  1  0  0  0  0
 24 23  1  0  0  0  0
 25 24  1  0  0  0  0
 26 25  1  0  0  0  0
 26 21  1  0  0  0  0
M  END
>  <minimizedAffinity>
-5.0824461

>  <minimizedRMSD>
2.81306529

$$$$
