
 OpenBabel03262519583D

 29 32  0  0  1  0  0  0  0  0999 V2000
   39.4650   25.1370   30.0970 C   0  0  0  0  0  0  0  0  0  0  0  0
   39.3210   24.2120   29.0680 C   0  0  0  0  0  0  0  0  0  0  0  0
   38.9860   23.0520   29.7230 N   0  0  0  0  0  0  0  0  0  0  0  0
   38.9470   23.3060   31.0130 C   0  0  0  0  0  0  0  0  0  0  0  0
   39.2390   24.5910   31.2830 N   0  0  0  0  0  0  0  0  0  0  0  0
   39.4420   24.3700   28.0110 H   0  0  0  0  0  0  0  0  0  0  0  0
   38.7050   22.5600   31.7800 H   0  0  0  0  0  0  0  0  0  0  0  0
   39.8230   26.5430   29.9050 C   0  0  0  0  0  0  0  0  0  0  0  0
   41.1660   26.9530   30.0010 C   0  0  0  0  0  0  0  0  0  0  0  0
   41.4390   28.3290   29.8020 C   0  0  0  0  0  0  0  0  0  0  0  0
   40.4020   29.1520   29.5360 N   0  0  0  0  0  0  0  0  0  0  0  0
   39.1280   28.7170   29.4520 C   0  0  0  0  0  0  0  0  0  0  0  0
   38.8150   27.4120   29.6340 N   0  0  0  0  0  0  0  0  0  0  0  0
   41.9490   26.2410   30.2170 H   0  0  0  0  0  0  0  0  0  0  0  0
   42.4480   28.6810   29.8670 H   0  0  0  0  0  0  0  0  0  0  0  0
   38.2900   29.3670   29.2400 H   0  0  0  0  0  0  0  0  0  0  0  0
   39.2740   25.1620   32.6070 C   0  0  1  0  0  0  0  0  0  0  0  0
   38.2970   26.1310   33.0680 C   0  0  0  0  0  0  0  0  0  0  0  0
   38.1420   24.6970   33.4950 C   0  0  2  0  0  0  0  0  0  0  0  0
   40.2620   25.1070   33.1020 H   0  0  0  0  0  0  0  0  0  0  0  0
   37.5650   26.4900   32.3260 H   0  0  0  0  0  0  0  0  0  0  0  0
   38.6630   26.8820   33.7990 H   0  0  0  0  0  0  0  0  0  0  0  0
   37.3280   24.0860   33.0530 H   0  0  0  0  0  0  0  0  0  0  0  0
   38.3910   24.4290   34.9360 C   0  0  0  0  0  3  0  0  0  0  0  0
   38.0730   23.0160   35.3600 C   0  0  0  0  0  2  0  0  0  0  0  0
   38.6420   22.8360   36.7520 C   0  0  0  0  0  2  0  0  0  0  0  0
   38.2120   23.8720   37.7320 C   0  0  0  0  0  2  0  0  0  0  0  0
   38.2580   25.2730   37.2010 C   0  0  0  0  0  2  0  0  0  0  0  0
   37.5720   25.3190   35.8510 C   0  0  0  0  0  2  0  0  0  0  0  0
  1  5  1  0  0  0  0
  2  3  1  0  0  0  0
  2  1  2  0  0  0  0
  3  4  2  0  0  0  0
  4  5  1  0  0  0  0
  4  7  1  0  0  0  0
  5 17  1  0  0  0  0
  6  2  1  0  0  0  0
  8  9  1  0  0  0  0
  8  1  1  0  0  0  0
  9 14  1  0  0  0  0
 10 15  1  0  0  0  0
 10  9  2  0  0  0  0
 11 10  1  0  0  0  0
 12 11  2  0  0  0  0
 12 13  1  0  0  0  0
 13  8  2  0  0  0  0
 16 12  1  0  0  0  0
 17 18  1  0  0  0  0
 17 20  1  1  0  0  0
 17 19  1  0  0  0  0
 18 19  1  0  0  0  0
 18 22  1  0  0  0  0
 19 23  1  6  0  0  0
 19 24  1  0  0  0  0
 21 18  1  0  0  0  0
 24 25  1  0  0  0  0
 24 29  1  0  0  0  0
 25 26  1  0  0  0  0
 26 27  1  0  0  0  0
 28 27  1  0  0  0  0
 29 28  1  0  0  0  0
M  END
>  <minimizedAffinity>
-3.45782876

>  <minimizedRMSD>
7.1493516

$$$$
