
 OpenBabel03262519493D

 38 41  0  0  1  0  0  0  0  0999 V2000
   37.3900   26.0640   32.9310 N   0  0  0  0  0  0  0  0  0  0  0  0
   37.0000   25.0000   32.2300 C   0  0  0  0  0  0  0  0  0  0  0  0
   35.9350   25.2380   31.3950 C   0  0  0  0  0  0  0  0  0  0  0  0
   35.6490   26.5250   31.5920 N   0  0  0  0  0  0  0  0  0  0  0  0
   36.5270   27.0250   32.5170 C   0  0  0  0  0  0  0  0  0  0  0  0
   37.5050   24.0270   32.3310 H   0  0  0  0  0  0  0  0  0  0  0  0
   35.4570   24.5190   30.7370 H   0  0  0  0  0  0  0  0  0  0  0  0
   36.4510   28.4840   32.9100 C   0  0  1  0  0  0  0  0  0  0  0  0
   35.7140   29.3770   31.9810 C   0  0  0  0  0  0  0  0  0  0  0  0
   35.0710   28.9950   33.2750 C   0  0  2  0  0  0  0  0  0  0  0  0
   37.2090   28.7920   33.6280 H   0  0  0  0  0  0  0  0  0  0  0  0
   35.3060   28.9190   31.0320 H   0  0  0  0  0  0  0  0  0  0  0  0
   36.2400   30.3140   31.8010 H   0  0  0  0  0  0  0  0  0  0  0  0
   34.2530   28.2670   33.1900 H   0  0  0  0  0  0  0  0  0  0  0  0
   34.9200   30.1510   34.2080 C   0  0  0  0  0  0  0  0  0  0  0  0
   36.0860   30.2810   35.1630 C   0  0  0  0  0  0  0  0  0  0  0  0
   35.8290   31.5060   36.0220 C   0  0  0  0  0  0  0  0  0  0  0  0
   36.2350   32.6880   35.1550 C   0  0  0  0  0  0  0  0  0  0  0  0
   36.0240   32.3580   33.6840 C   0  0  0  0  0  0  0  0  0  0  0  0
   34.7880   31.4710   33.5180 C   0  0  0  0  0  0  0  0  0  0  0  0
   38.3940   26.3130   33.8950 C   0  0  0  0  0  0  0  0  0  0  0  0
   38.8950   27.2830   33.6670 H   0  0  0  0  0  0  0  0  0  0  0  0
   39.1940   25.5430   33.7550 H   0  0  0  0  0  0  0  0  0  0  0  0
   37.9130   26.1950   35.2950 C   0  0  1  0  0  0  0  0  0  0  0  0
   36.7990   26.0910   35.3040 H   0  0  0  0  0  0  0  0  0  0  0  0
   38.4780   23.4390   37.8250 C   0  0  0  0  0  0  0  0  0  0  0  0
   37.9090   24.5830   37.2460 C   0  0  0  0  0  0  0  0  0  0  0  0
   38.4590   25.0050   35.9910 C   0  0  0  0  0  0  0  0  0  0  0  0
   39.4970   24.2880   35.4180 N   0  0  0  0  0  0  0  0  0  0  0  0
   39.9980   23.2100   36.0130 C   0  0  0  0  0  0  0  0  0  0  0  0
   39.4930   22.7750   37.2240 N   0  0  0  0  0  0  0  0  0  0  0  0
   38.0730   23.1190   38.7650 H   0  0  0  0  0  0  0  0  0  0  0  0
   37.1090   25.1450   37.6730 H   0  0  0  0  0  0  0  0  0  0  0  0
   40.7970   22.6970   35.5260 H   0  0  0  0  0  0  0  0  0  0  0  0
   38.2670   27.4580   36.0720 C   0  0  0  0  0  0  0  0  0  0  0  0
   37.4280   27.7110   36.7170 H   0  0  0  0  0  0  0  0  0  0  0  0
   39.1060   27.1820   36.7680 H   0  0  0  0  0  0  0  0  0  0  0  0
   38.6690   28.2400   35.4310 H   0  0  0  0  0  0  0  0  0  0  0  0
  1 21  1  0  0  0  0
  2  6  1  0  0  0  0
  2  1  1  0  0  0  0
  3  4  1  0  0  0  0
  3  2  2  0  0  0  0
  4  5  2  0  0  0  0
  5  8  1  0  0  0  0
  5  1  1  0  0  0  0
  7  3  1  0  0  0  0
  8 10  1  0  0  0  0
  8 11  1  1  0  0  0
  9  8  1  0  0  0  0
  9 10  1  0  0  0  0
 10 14  1  6  0  0  0
 10 15  1  0  0  0  0
 12  9  1  0  0  0  0
 13  9  1  0  0  0  0
 15 16  1  0  0  0  0
 16 17  1  0  0  0  0
 18 17  1  0  0  0  0
 19 18  1  0  0  0  0
 20 19  1  0  0  0  0
 20 15  1  0  0  0  0
 21 24  1  0  0  0  0
 22 21  1  0  0  0  0
 23 21  1  0  0  0  0
 24 25  1  6  0  0  0
 24 28  1  0  0  0  0
 24 35  1  0  0  0  0
 26 32  1  0  0  0  0
 27 33  1  0  0  0  0
 27 26  1  0  0  0  0
 28 27  2  0  0  0  0
 29 28  1  0  0  0  0
 29 30  2  0  0  0  0
 30 31  1  0  0  0  0
 31 26  2  0  0  0  0
 34 30  1  0  0  0  0
 35 36  1  0  0  0  0
 35 37  1  0  0  0  0
 38 35  1  0  0  0  0
M  END
>  <minimizedAffinity>
-5.7196703

>  <minimizedRMSD>
1.16048467

$$$$
