
 OpenBabel03262519583D

 29 32  0  0  1  0  0  0  0  0999 V2000
   38.0450   23.9360   34.5120 C   0  0  0  0  0  0  0  0  0  0  0  0
   38.1020   25.1960   33.9250 C   0  0  0  0  0  0  0  0  0  0  0  0
   37.6610   24.9740   32.6430 N   0  0  0  0  0  0  0  0  0  0  0  0
   37.3810   23.6940   32.5230 C   0  0  0  0  0  0  0  0  0  0  0  0
   37.6060   23.0190   33.6630 N   0  0  0  0  0  0  0  0  0  0  0  0
   38.4170   26.1230   34.3720 H   0  0  0  0  0  0  0  0  0  0  0  0
   37.0060   23.2320   31.6010 H   0  0  0  0  0  0  0  0  0  0  0  0
   38.4210   23.6480   35.8970 C   0  0  0  0  0  0  0  0  0  0  0  0
   39.6650   23.0580   36.1870 C   0  0  0  0  0  0  0  0  0  0  0  0
   39.9630   22.8080   37.5500 C   0  0  0  0  0  0  0  0  0  0  0  0
   39.0410   23.1510   38.4750 N   0  0  0  0  0  0  0  0  0  0  0  0
   37.8590   23.7150   38.1550 C   0  0  0  0  0  0  0  0  0  0  0  0
   37.5270   23.9740   36.8670 N   0  0  0  0  0  0  0  0  0  0  0  0
   40.3580   22.8090   35.3970 H   0  0  0  0  0  0  0  0  0  0  0  0
   40.8980   22.3600   37.8120 H   0  0  0  0  0  0  0  0  0  0  0  0
   37.1130   23.9930   38.8870 H   0  0  0  0  0  0  0  0  0  0  0  0
   37.3910   21.6020   33.8320 C   0  0  1  0  0  0  0  0  0  0  0  0
   36.1730   21.0590   34.4060 C   0  0  0  0  0  0  0  0  0  0  0  0
   36.3330   21.0390   32.9110 C   0  0  2  0  0  0  0  0  0  0  0  0
   38.3160   20.9980   33.8480 H   0  0  0  0  0  0  0  0  0  0  0  0
   35.4420   21.7850   34.7980 H   0  0  0  0  0  0  0  0  0  0  0  0
   36.2830   20.1160   34.9800 H   0  0  0  0  0  0  0  0  0  0  0  0
   35.7300   21.7380   32.2920 H   0  0  0  0  0  0  0  0  0  0  0  0
   36.5160   19.6940   32.3060 C   0  0  0  0  0  3  0  0  0  0  0  0
   36.5880   19.7040   30.7980 C   0  0  0  0  0  2  0  0  0  0  0  0
   37.0550   18.3290   30.3710 C   0  0  0  0  0  2  0  0  0  0  0  0
   36.2530   17.2040   30.9290 C   0  0  0  0  0  2  0  0  0  0  0  0
   35.9350   17.3450   32.3880 C   0  0  0  0  0  2  0  0  0  0  0  0
   35.3930   18.7360   32.6490 C   0  0  0  0  0  2  0  0  0  0  0  0
  1  8  1  0  0  0  0
  2  6  1  0  0  0  0
  2  1  2  0  0  0  0
  3  2  1  0  0  0  0
  4  3  2  0  0  0  0
  4  5  1  0  0  0  0
  5 17  1  0  0  0  0
  5  1  1  0  0  0  0
  7  4  1  0  0  0  0
  8  9  2  0  0  0  0
  8 13  1  0  0  0  0
  9 10  1  0  0  0  0
 10 15  1  0  0  0  0
 10 11  2  0  0  0  0
 12 11  1  0  0  0  0
 12 16  1  0  0  0  0
 13 12  2  0  0  0  0
 14  9  1  0  0  0  0
 17 20  1  1  0  0  0
 17 18  1  0  0  0  0
 18 21  1  0  0  0  0
 18 22  1  0  0  0  0
 19 23  1  6  0  0  0
 19 17  1  0  0  0  0
 19 18  1  0  0  0  0
 24 29  1  0  0  0  0
 24 19  1  0  0  0  0
 25 24  1  0  0  0  0
 26 25  1  0  0  0  0
 26 27  1  0  0  0  0
 27 28  1  0  0  0  0
 28 29  1  0  0  0  0
M  END
>  <minimizedAffinity>
-4.97215128

>  <minimizedRMSD>
1.11790645

$$$$
