
 OpenBabel03262519263D

 42 47  0  0  0  0  0  0  0  0999 V2000
   38.9300   24.1250   32.3740 C   0  0  0  0  0  0  0  0  0  0  0  0
   39.5820   22.9000   32.5230 C   0  0  0  0  0  0  0  0  0  0  0  0
   38.9350   21.6790   32.2940 C   0  0  0  0  0  0  0  0  0  0  0  0
   37.5960   21.6730   31.9040 C   0  0  0  0  0  0  0  0  0  0  0  0
   36.9460   22.8690   31.7550 C   0  0  0  0  0  0  0  0  0  0  0  0
   35.6640   22.8860   31.3450 C   0  0  0  0  0  0  0  0  0  0  0  0
   34.9600   24.0340   31.1290 C   0  0  0  0  0  0  0  0  0  0  0  0
   35.6280   25.2470   31.3560 C   0  0  0  0  0  0  0  0  0  0  0  0
   36.9630   25.2140   31.7940 C   0  0  0  0  0  0  0  0  0  0  0  0
   37.6280   24.0390   31.9920 C   0  0  0  0  0  0  0  0  0  0  0  0
   40.6380   22.9030   32.8300 H   0  0  0  0  0  0  0  0  0  0  0  0
   39.5380   20.8010   32.4400 H   0  0  0  0  0  0  0  0  0  0  0  0
   37.1240   20.7280   31.7340 H   0  0  0  0  0  0  0  0  0  0  0  0
   35.1900   21.9310   31.1880 H   0  0  0  0  0  0  0  0  0  0  0  0
   33.9360   23.9250   30.7960 H   0  0  0  0  0  0  0  0  0  0  0  0
   34.9490   26.0590   31.1220 H   0  0  0  0  0  0  0  0  0  0  0  0
   39.6570   25.3210   32.6100 C   0  0  0  0  0  0  0  0  0  0  0  0
   39.8040   25.8760   33.9230 C   0  0  0  0  0  0  0  0  0  0  0  0
   40.5540   27.0460   34.0140 C   0  0  0  0  0  0  0  0  0  0  0  0
   41.1100   27.6100   32.9130 N   0  0  0  0  0  0  0  0  0  0  0  0
   40.9580   27.0560   31.6980 C   0  0  0  0  0  0  0  0  0  0  0  0
   40.2540   25.9520   31.5690 N   0  0  0  0  0  0  0  0  0  0  0  0
   40.6780   27.4890   34.9970 H   0  0  0  0  0  0  0  0  0  0  0  0
   41.3960   27.4850   30.8080 H   0  0  0  0  0  0  0  0  0  0  0  0
   39.2170   25.2600   34.9980 N   0  0  0  0  0  0  0  0  0  0  0  0
   37.9910   25.5040   35.4670 C   0  0  0  0  0  0  0  0  0  0  0  0
   37.7070   24.7330   36.5470 N   0  0  0  0  0  0  0  0  0  0  0  0
   38.8080   23.9720   36.7600 C   0  0  0  0  0  0  0  0  0  0  0  0
   39.1370   23.0200   37.6800 C   0  0  0  0  0  0  0  0  0  0  0  0
   40.3330   22.3790   37.7030 N   0  0  0  0  0  0  0  0  0  0  0  0
   41.2050   22.7460   36.7350 C   0  0  0  0  0  0  0  0  0  0  0  0
   40.8710   23.6740   35.8440 N   0  0  0  0  0  0  0  0  0  0  0  0
   39.7200   24.3200   35.7890 C   0  0  0  0  0  0  0  0  0  0  0  0
   37.2060   26.1620   35.1800 H   0  0  0  0  0  0  0  0  0  0  0  0
   38.4380   22.7250   38.4560 H   0  0  0  0  0  0  0  0  0  0  0  0
   42.1940   22.3180   36.6320 H   0  0  0  0  0  0  0  0  0  0  0  0
   37.3820   26.5860   31.9350 C   0  0  0  0  0  0  0  0  0  0  0  0
   37.0950   27.2780   30.5760 C   0  0  0  0  0  0  0  0  0  0  0  0
   37.5040   28.7330   30.5850 C   0  0  0  0  0  0  0  0  0  0  0  0
   36.8550   29.4630   31.7210 C   0  0  0  0  0  0  0  0  0  0  0  0
   35.8260   28.5450   32.3110 C   0  0  0  0  0  0  0  0  0  0  0  0
   36.3660   27.2910   32.8710 C   0  0  0  0  0  0  0  0  0  0  0  0
  1  2  1  0  0  0  0
  1 17  1  0  0  0  0
  2 11  1  0  0  0  0
  3 12  1  0  0  0  0
  3  2  2  0  0  0  0
  4  3  1  0  0  0  0
  5  4  2  0  0  0  0
  5 10  1  0  0  0  0
  6  5  1  0  0  0  0
  7  6  2  0  0  0  0
  7  8  1  0  0  0  0
  8  9  2  0  0  0  0
  9 37  1  0  0  0  0
  9 10  1  0  0  0  0
 10  1  2  0  0  0  0
 13  4  1  0  0  0  0
 14  6  1  0  0  0  0
 15  7  1  0  0  0  0
 16  8  1  0  0  0  0
 17 18  1  0  0  0  0
 18 19  2  0  0  0  0
 18 25  1  0  0  0  0
 19 23  1  0  0  0  0
 20 19  1  0  0  0  0
 21 20  2  0  0  0  0
 22 21  1  0  0  0  0
 22 17  2  0  0  0  0
 24 21  1  0  0  0  0
 25 26  1  0  0  0  0
 25 33  1  0  0  0  0
 26 27  2  0  0  0  0
 27 28  1  0  0  0  0
 28 29  1  0  0  0  0
 29 30  2  0  0  0  0
 29 35  1  0  0  0  0
 31 30  1  0  0  0  0
 32 31  2  0  0  0  0
 33 32  1  0  0  0  0
 33 28  2  0  0  0  0
 34 26  1  0  0  0  0
 36 31  1  0  0  0  0
 37 42  1  0  0  0  0
 38 39  1  0  0  0  0
 38 37  1  0  0  0  0
 39 40  1  0  0  0  0
 40 41  1  0  0  0  0
 41 42  1  0  0  0  0
M  END
>  <minimizedAffinity>
-6.28880358

>  <minimizedRMSD>
0.866496086

$$$$
