
 OpenBabel03262519583D

 29 32  0  0  1  0  0  0  0  0999 V2000
   38.1260   24.3370   34.4140 C   0  0  0  0  0  0  0  0  0  0  0  0
   38.1730   25.6640   33.9980 C   0  0  0  0  0  0  0  0  0  0  0  0
   37.7510   25.6070   32.6930 N   0  0  0  0  0  0  0  0  0  0  0  0
   37.4890   24.3510   32.4010 C   0  0  0  0  0  0  0  0  0  0  0  0
   37.7110   23.5340   33.4450 N   0  0  0  0  0  0  0  0  0  0  0  0
   38.4700   26.5280   34.5670 H   0  0  0  0  0  0  0  0  0  0  0  0
   37.1320   24.0090   31.4220 H   0  0  0  0  0  0  0  0  0  0  0  0
   38.4900   23.8740   35.7540 C   0  0  0  0  0  0  0  0  0  0  0  0
   39.7180   23.2230   35.9710 C   0  0  0  0  0  0  0  0  0  0  0  0
   40.0050   22.8020   37.2940 C   0  0  0  0  0  0  0  0  0  0  0  0
   39.0870   23.0530   38.2530 N   0  0  0  0  0  0  0  0  0  0  0  0
   37.9210   23.6810   38.0020 C   0  0  0  0  0  0  0  0  0  0  0  0
   37.6010   24.1020   36.7550 N   0  0  0  0  0  0  0  0  0  0  0  0
   40.4080   23.0540   35.1570 H   0  0  0  0  0  0  0  0  0  0  0  0
   40.9280   22.3030   37.5000 H   0  0  0  0  0  0  0  0  0  0  0  0
   37.1790   23.8860   38.7620 H   0  0  0  0  0  0  0  0  0  0  0  0
   37.5130   22.1050   33.4240 C   0  0  1  0  0  0  0  0  0  0  0  0
   36.5500   21.4360   34.2800 C   0  0  0  0  0  0  0  0  0  0  0  0
   36.1790   21.6900   32.8460 C   0  0  2  0  0  0  0  0  0  0  0  0
   38.3620   21.5320   33.0080 H   0  0  0  0  0  0  0  0  0  0  0  0
   36.0300   22.0600   35.0260 H   0  0  0  0  0  0  0  0  0  0  0  0
   36.8160   20.4080   34.6020 H   0  0  0  0  0  0  0  0  0  0  0  0
   35.4270   22.4730   32.6110 H   0  0  0  0  0  0  0  0  0  0  0  0
   36.0880   20.4810   31.9850 C   0  0  0  0  0  3  0  0  0  0  0  0
   36.2120   19.1810   32.7430 C   0  0  0  0  0  2  0  0  0  0  0  0
   35.8170   18.0760   31.7870 C   0  0  0  0  0  2  0  0  0  0  0  0
   36.5500   18.0920   30.4900 C   0  0  0  0  0  2  0  0  0  0  0  0
   36.6730   19.4540   29.8740 C   0  0  0  0  0  2  0  0  0  0  0  0
   37.1660   20.4320   30.9200 C   0  0  0  0  0  2  0  0  0  0  0  0
  1  8  1  0  0  0  0
  2  1  2  0  0  0  0
  2  6  1  0  0  0  0
  3  2  1  0  0  0  0
  4  3  2  0  0  0  0
  4  5  1  0  0  0  0
  5  1  1  0  0  0  0
  7  4  1  0  0  0  0
  8  9  2  0  0  0  0
  8 13  1  0  0  0  0
  9 10  1  0  0  0  0
 10 15  1  0  0  0  0
 10 11  2  0  0  0  0
 12 11  1  0  0  0  0
 12 16  1  0  0  0  0
 13 12  2  0  0  0  0
 14  9  1  0  0  0  0
 17 20  1  6  0  0  0
 17  5  1  0  0  0  0
 17 18  1  0  0  0  0
 18 22  1  0  0  0  0
 18 21  1  0  0  0  0
 19 23  1  6  0  0  0
 19 17  1  0  0  0  0
 19 18  1  0  0  0  0
 24 25  1  0  0  0  0
 24 19  1  0  0  0  0
 26 25  1  0  0  0  0
 27 26  1  0  0  0  0
 28 27  1  0  0  0  0
 28 29  1  0  0  0  0
 29 24  1  0  0  0  0
M  END
>  <minimizedAffinity>
-4.68326092

>  <minimizedRMSD>
1.51595998

$$$$
