REMARK  Name = 
REMARK  3 active torsions:
REMARK  status: ('A' for Active; 'I' for Inactive)
REMARK    1  A    between atoms: C_1  and  C_6
REMARK    2  A    between atoms: N_5  and  C_12
REMARK    3  A    between atoms: C_14  and  C_24
REMARK                            x       y       z     vdW  Elec       q    Type
REMARK                         _______ _______ _______ _____ _____    ______ ____
ROOT
ATOM      1  C   UNL     1      38.035  23.474  34.611  0.00  0.00    +0.000 A 
ATOM      2  C   UNL     1      38.264  24.568  33.799  0.00  0.00    +0.000 A 
ATOM      3  N   UNL     1      37.758  24.184  32.585  0.00  0.00    +0.000 NA
ATOM      4  C   UNL     1      37.280  22.956  32.718  0.00  0.00    +0.000 A 
ATOM      5  N   UNL     1      37.434  22.476  33.973  0.00  0.00    +0.000 N 
ATOM      6  H   UNL     1      38.744  25.501  34.108  0.00  0.00    +0.000 HD
ATOM      7  H   UNL     1      36.830  22.470  31.854  0.00  0.00    +0.000 HD
ENDROOT
BRANCH   1   8
ATOM      8  C   UNL     1      38.403  23.396  36.022  0.00  0.00    +0.000 A 
ATOM      9  C   UNL     1      39.590  22.803  36.427  0.00  0.00    +0.000 A 
ATOM     10  C   UNL     1      39.895  22.755  37.802  0.00  0.00    +0.000 A 
ATOM     11  N   UNL     1      39.011  23.291  38.656  0.00  0.00    +0.000 NA
ATOM     12  C   UNL     1      37.844  23.873  38.248  0.00  0.00    +0.000 A 
ATOM     13  N   UNL     1      37.544  23.924  36.940  0.00  0.00    +0.000 NA
ATOM     14  H   UNL     1      40.276  22.382  35.700  0.00  0.00    +0.000 HD
ATOM     15  H   UNL     1      40.816  22.296  38.127  0.00  0.00    +0.000 HD
ATOM     16  H   UNL     1      37.183  24.285  39.012  0.00  0.00    +0.000 HD
ENDBRANCH   1   8
BRANCH   5  17
ATOM     17  C   UNL     1      37.006  21.176  34.387  0.00  0.00    +0.000 C 
ATOM     18  C   UNL     1      35.842  20.966  35.257  0.00  0.00    +0.000 C 
ATOM     19  C   UNL     1      35.667  20.761  33.779  0.00  0.00    +0.000 C 
ATOM     20  H   UNL     1      37.780  20.404  34.297  0.00  0.00    +0.000 HD
ATOM     21  H   UNL     1      35.918  20.153  35.975  0.00  0.00    +0.000 HD
ATOM     22  H   UNL     1      35.289  21.841  35.655  0.00  0.00    +0.000 HD
ATOM     23  H   UNL     1      35.093  21.521  33.197  0.00  0.00    +0.000 HD
BRANCH  19  24
ATOM     24  C   UNL     1      35.441  19.368  33.343  0.00  0.00    +0.000 C 
ATOM     25  C   UNL     1      36.686  18.894  32.576  0.00  0.00    +0.000 C 
ATOM     26  C   UNL     1      36.195  18.145  31.375  0.00  0.00    +0.000 C 
ATOM     27  C   UNL     1      34.768  17.827  31.691  0.00  0.00    +0.000 C 
ATOM     28  C   UNL     1      34.327  19.150  32.349  0.00  0.00    +0.000 C 
ENDBRANCH  19  24
ENDBRANCH   5  17
TORSDOF 3
