
 OpenBabel03262519573D

 28 31  0  0  1  0  0  0  0  0999 V2000
   38.3980   23.7900   34.9000 C   0  0  0  0  0  0  0  0  0  0  0  0
   38.9520   22.9470   35.8440 C   0  0  0  0  0  0  0  0  0  0  0  0
   38.8110   23.6370   37.0190 N   0  0  0  0  0  0  0  0  0  0  0  0
   38.2180   24.7880   36.7410 C   0  0  0  0  0  0  0  0  0  0  0  0
   37.9420   24.9220   35.4240 N   0  0  0  0  0  0  0  0  0  0  0  0
   39.3880   21.9640   35.6430 H   0  0  0  0  0  0  0  0  0  0  0  0
   38.0150   25.4850   37.5530 H   0  0  0  0  0  0  0  0  0  0  0  0
   38.3110   23.4940   33.4720 C   0  0  0  0  0  0  0  0  0  0  0  0
   39.3850   23.7110   32.6230 C   0  0  0  0  0  0  0  0  0  0  0  0
   39.2460   23.4080   31.2530 C   0  0  0  0  0  0  0  0  0  0  0  0
   38.0670   22.9200   30.8400 N   0  0  0  0  0  0  0  0  0  0  0  0
   37.0140   22.7090   31.6840 C   0  0  0  0  0  0  0  0  0  0  0  0
   37.1370   22.9950   32.9910 N   0  0  0  0  0  0  0  0  0  0  0  0
   40.3210   24.1080   33.0020 H   0  0  0  0  0  0  0  0  0  0  0  0
   40.0760   23.5730   30.5840 H   0  0  0  0  0  0  0  0  0  0  0  0
   36.0910   22.3080   31.2620 H   0  0  0  0  0  0  0  0  0  0  0  0
   37.3050   26.0680   34.8550 C   0  0  1  0  0  0  0  0  0  0  0  0
   37.6270   27.4400   35.2700 C   0  0  0  0  0  0  0  0  0  0  0  0
   38.2450   26.9190   34.0040 C   0  0  2  0  0  0  0  0  0  0  0  0
   36.3530   25.8460   34.3580 H   0  0  0  0  0  0  0  0  0  0  0  0
   36.7980   28.1430   35.2930 H   0  0  0  0  0  0  0  0  0  0  0  0
   38.3570   27.6090   36.0870 H   0  0  0  0  0  0  0  0  0  0  0  0
   39.3320   26.6660   34.0030 H   0  0  0  0  0  0  0  0  0  0  0  0
   37.7680   27.5390   32.7510 C   0  0  0  0  0  3  0  0  0  0  0  0
   36.5360   28.4000   33.0770 C   0  0  0  0  0  2  0  0  0  0  0  0
   35.5320   28.1450   31.9950 C   0  0  0  0  0  2  0  0  0  0  0  0
   36.3250   27.5290   30.8860 C   0  0  0  0  0  2  0  0  0  0  0  0
   37.2510   26.5960   31.6920 C   0  0  0  0  0  2  0  0  0  0  0  0
  1  5  1  0  0  0  0
  1  2  2  0  0  0  0
  2  3  1  0  0  0  0
  4  3  2  0  0  0  0
  4  7  1  0  0  0  0
  5  4  1  0  0  0  0
  6  2  1  0  0  0  0
  8  1  1  0  0  0  0
  9 14  1  0  0  0  0
  9  8  2  0  0  0  0
 10  9  1  0  0  0  0
 11 10  2  0  0  0  0
 11 12  1  0  0  0  0
 12 13  2  0  0  0  0
 13  8  1  0  0  0  0
 15 10  1  0  0  0  0
 16 12  1  0  0  0  0
 17 20  1  6  0  0  0
 17 18  1  0  0  0  0
 17  5  1  0  0  0  0
 18 21  1  0  0  0  0
 18 22  1  0  0  0  0
 19 23  1  1  0  0  0
 19 17  1  0  0  0  0
 19 18  1  0  0  0  0
 24 25  1  0  0  0  0
 24 19  1  0  0  0  0
 26 25  1  0  0  0  0
 27 28  1  0  0  0  0
 27 26  1  0  0  0  0
 28 24  1  0  0  0  0
M  END
>  <minimizedAffinity>
-4.22294331

>  <minimizedRMSD>
6.66432905

$$$$
