
 OpenBabel03262519573D

 28 31  0  0  1  0  0  0  0  0999 V2000
   37.4750   22.9950   33.2630 C   0  0  0  0  0  0  0  0  0  0  0  0
   36.6500   22.0020   32.7730 C   0  0  0  0  0  0  0  0  0  0  0  0
   35.9580   22.6200   31.7650 N   0  0  0  0  0  0  0  0  0  0  0  0
   36.3750   23.8750   31.7020 C   0  0  0  0  0  0  0  0  0  0  0  0
   37.3260   24.1500   32.6230 N   0  0  0  0  0  0  0  0  0  0  0  0
   36.6010   20.9740   33.1450 H   0  0  0  0  0  0  0  0  0  0  0  0
   35.9410   24.5370   30.9540 H   0  0  0  0  0  0  0  0  0  0  0  0
   38.4190   22.8230   34.3630 C   0  0  0  0  0  0  0  0  0  0  0  0
   38.0640   23.1160   35.6720 C   0  0  0  0  0  0  0  0  0  0  0  0
   39.0160   22.9310   36.6950 C   0  0  0  0  0  0  0  0  0  0  0  0
   40.2280   22.4770   36.3450 N   0  0  0  0  0  0  0  0  0  0  0  0
   40.5690   22.1910   35.0540 C   0  0  0  0  0  0  0  0  0  0  0  0
   39.6700   22.3640   34.0710 N   0  0  0  0  0  0  0  0  0  0  0  0
   37.0710   23.4810   35.9090 H   0  0  0  0  0  0  0  0  0  0  0  0
   38.7490   23.1560   37.7170 H   0  0  0  0  0  0  0  0  0  0  0  0
   41.5780   21.8250   34.8590 H   0  0  0  0  0  0  0  0  0  0  0  0
   37.9460   25.4300   32.7720 C   0  0  1  0  0  0  0  0  0  0  0  0
   39.3730   25.6540   32.5060 C   0  0  0  0  0  0  0  0  0  0  0  0
   38.3850   26.0440   31.4430 C   0  0  2  0  0  0  0  0  0  0  0  0
   37.3820   26.1260   33.4050 H   0  0  0  0  0  0  0  0  0  0  0  0
   39.8770   26.3670   33.1530 H   0  0  0  0  0  0  0  0  0  0  0  0
   40.0190   24.7980   32.2220 H   0  0  0  0  0  0  0  0  0  0  0  0
   38.3130   25.4180   30.5220 H   0  0  0  0  0  0  0  0  0  0  0  0
   38.2360   27.4940   31.2020 C   0  0  0  0  0  3  0  0  0  0  0  0
   36.8750   27.7330   30.5290 C   0  0  0  0  0  2  0  0  0  0  0  0
   37.1030   28.7310   29.4340 C   0  0  0  0  0  2  0  0  0  0  0  0
   38.4200   29.3560   29.7680 C   0  0  0  0  0  2  0  0  0  0  0  0
   39.2090   28.1140   30.2280 C   0  0  0  0  0  2  0  0  0  0  0  0
  1  8  1  0  0  0  0
  2  6  1  0  0  0  0
  2  1  2  0  0  0  0
  3  2  1  0  0  0  0
  4  3  2  0  0  0  0
  4  5  1  0  0  0  0
  5 17  1  0  0  0  0
  5  1  1  0  0  0  0
  7  4  1  0  0  0  0
  8  9  1  0  0  0  0
  9 14  1  0  0  0  0
  9 10  2  0  0  0  0
 10 15  1  0  0  0  0
 11 10  1  0  0  0  0
 12 11  2  0  0  0  0
 13  8  2  0  0  0  0
 13 12  1  0  0  0  0
 16 12  1  0  0  0  0
 17 20  1  1  0  0  0
 18 17  1  0  0  0  0
 18 21  1  0  0  0  0
 19 23  1  6  0  0  0
 19 18  1  0  0  0  0
 19 17  1  0  0  0  0
 22 18  1  0  0  0  0
 24 19  1  0  0  0  0
 25 24  1  0  0  0  0
 26 27  1  0  0  0  0
 26 25  1  0  0  0  0
 27 28  1  0  0  0  0
 28 24  1  0  0  0  0
M  END
>  <minimizedAffinity>
-3.80638719

>  <minimizedRMSD>
6.49689198

$$$$
