
     RDKit          3D

 37 40  0  0  0  0  0  0  0  0999 V2000
   38.0353   23.4745   34.6108 C   0  0  0  0  0  0  0  0  0  0  0  0
   38.2642   24.5682   33.7986 C   0  0  0  0  0  0  0  0  0  0  0  0
   37.7581   24.1843   32.5847 N   0  0  0  0  0  0  0  0  0  0  0  0
   37.2801   22.9565   32.7183 C   0  0  0  0  0  0  0  0  0  0  0  0
   37.4345   22.4757   33.9730 N   0  0  0  0  0  0  0  0  0  0  0  0
   38.4032   23.3961   36.0224 C   0  0  0  0  0  0  0  0  0  0  0  0
   39.5900   22.8031   36.4266 C   0  0  0  0  0  0  0  0  0  0  0  0
   39.8949   22.7548   37.8022 C   0  0  0  0  0  0  0  0  0  0  0  0
   39.0110   23.2909   38.6555 N   0  0  0  0  0  0  0  0  0  0  0  0
   37.8440   23.8732   38.2481 C   0  0  0  0  0  0  0  0  0  0  0  0
   37.5441   23.9244   36.9403 N   0  0  0  0  0  0  0  0  0  0  0  0
   37.0059   21.1764   34.3871 C   0  0  1  0  0  0  0  0  0  0  0  0
   35.8422   20.9660   35.2572 C   0  0  0  0  0  0  0  0  0  0  0  0
   35.6674   20.7608   33.7793 C   0  0  2  0  0  0  0  0  0  0  0  0
   38.7441   25.5013   34.1076 H   0  0  0  0  0  0  0  0  0  0  0  0
   36.8303   22.4703   31.8542 H   0  0  0  0  0  0  0  0  0  0  0  0
   40.2755   22.3820   35.7000 H   0  0  0  0  0  0  0  0  0  0  0  0
   40.8157   22.2956   38.1268 H   0  0  0  0  0  0  0  0  0  0  0  0
   37.1827   24.2846   39.0122 H   0  0  0  0  0  0  0  0  0  0  0  0
   37.7798   20.4043   34.2975 H   0  0  0  0  0  0  0  0  0  0  0  0
   35.9178   20.1534   35.9748 H   0  0  0  0  0  0  0  0  0  0  0  0
   35.2887   21.8413   35.6547 H   0  0  0  0  0  0  0  0  0  0  0  0
   35.0933   21.5209   33.1973 H   0  0  0  0  0  0  0  0  0  0  0  0
   35.4409   19.3679   33.3434 C   0  0  0  0  0  0  0  0  0  0  0  0
   34.4619   19.3865   32.1580 C   0  0  0  0  0  0  0  0  0  0  0  0
   33.4891   18.2699   32.3839 C   0  0  0  0  0  0  0  0  0  0  0  0
   34.1541   17.3931   33.3970 C   0  0  0  0  0  0  0  0  0  0  0  0
   34.7558   18.4592   34.3345 C   0  0  0  0  0  0  0  0  0  0  0  0
   36.3685   18.8728   33.0359 H   0  0  0  0  0  0  0  0  0  0  0  0
   34.9979   19.2822   31.2079 H   0  0  0  0  0  0  0  0  0  0  0  0
   33.8807   20.3251   32.1220 H   0  0  0  0  0  0  0  0  0  0  0  0
   32.4880   18.6317   32.7101 H   0  0  0  0  0  0  0  0  0  0  0  0
   33.3551   17.7449   31.3952 H   0  0  0  0  0  0  0  0  0  0  0  0
   34.9679   16.8466   32.8625 H   0  0  0  0  0  0  0  0  0  0  0  0
   33.4738   16.7341   33.9556 H   0  0  0  0  0  0  0  0  0  0  0  0
   35.4789   17.9682   35.0112 H   0  0  0  0  0  0  0  0  0  0  0  0
   33.8797   18.8942   34.8323 H   0  0  0  0  0  0  0  0  0  0  0  0
  1  6  1  0
  2  1  2  0
  3  4  2  0
  3  2  1  0
  4  5  1  0
  5 12  1  0
  5  1  1  0
  6  7  2  0
  6 11  1  0
  7  8  1  0
  8  9  2  0
 10  9  1  0
 11 10  2  0
 12 13  1  0
 14 12  1  0
 14 13  1  0
  2 15  1  0
  4 16  1  0
  7 17  1  0
  8 18  1  0
 10 19  1  0
 12 20  1  1
 13 21  1  0
 13 22  1  0
 14 23  1  6
 24 25  1  0
 25 26  1  0
 26 27  1  0
 27 28  1  0
 28 24  1  0
 24 29  1  0
 25 30  1  0
 25 31  1  0
 26 32  1  0
 26 33  1  0
 27 34  1  0
 27 35  1  0
 28 36  1  0
 28 37  1  0
 14 24  1  0
M  ISO  8  15  14  16  14  17  14  18  14  19  14  20  13  21  13  22  13
M  ISO  1  23  13
M  END
>  <DihAtoms>  (1) 
11,13,23,24

>  <DihDeg>  (1) 
-179.13351882125076

$$$$
