
 OpenBabel03262519583D

 32 35  0  0  1  0  0  0  0  0999 V2000
   38.1200   24.4580   34.7630 C   0  0  0  0  0  0  0  0  0  0  0  0
   38.0480   25.8050   34.4090 C   0  0  0  0  0  0  0  0  0  0  0  0
   37.6850   25.7800   33.0960 N   0  0  0  0  0  0  0  0  0  0  0  0
   37.5600   24.5060   32.7310 C   0  0  0  0  0  0  0  0  0  0  0  0
   37.8230   23.6580   33.7460 N   0  0  0  0  0  0  0  0  0  0  0  0
   38.2560   26.6170   35.1050 H   0  0  0  0  0  0  0  0  0  0  0  0
   37.2730   24.2110   31.7090 H   0  0  0  0  0  0  0  0  0  0  0  0
   38.4750   23.9720   36.0840 C   0  0  0  0  0  0  0  0  0  0  0  0
   39.7020   23.3190   36.2980 C   0  0  0  0  0  0  0  0  0  0  0  0
   39.9930   22.8680   37.5980 C   0  0  0  0  0  0  0  0  0  0  0  0
   39.0820   23.0860   38.5640 N   0  0  0  0  0  0  0  0  0  0  0  0
   37.9040   23.7200   38.3320 C   0  0  0  0  0  0  0  0  0  0  0  0
   37.6040   24.1580   37.0990 N   0  0  0  0  0  0  0  0  0  0  0  0
   40.4020   23.1610   35.5110 H   0  0  0  0  0  0  0  0  0  0  0  0
   40.9060   22.3600   37.8470 H   0  0  0  0  0  0  0  0  0  0  0  0
   37.1720   23.8950   39.1060 H   0  0  0  0  0  0  0  0  0  0  0  0
   37.7660   22.2330   33.6390 C   0  0  1  0  0  0  0  0  0  0  0  0
   36.6370   21.4410   34.0870 C   0  0  0  0  0  0  0  0  0  0  0  0
   36.7550   21.7640   32.6060 C   0  0  2  0  0  0  0  0  0  0  0  0
   38.7590   21.7570   33.6660 H   0  0  0  0  0  0  0  0  0  0  0  0
   36.7260   20.4070   34.4280 H   0  0  0  0  0  0  0  0  0  0  0  0
   35.8230   22.0060   34.6270 H   0  0  0  0  0  0  0  0  0  0  0  0
   36.0260   22.4550   32.1830 H   0  0  0  0  0  0  0  0  0  0  0  0
   37.0760   20.6000   31.7450 C   0  0  0  0  0  0  0  0  0  0  0  0
   38.3230   19.9950   31.9300 C   0  0  0  0  0  0  0  0  0  0  0  0
   39.0310   20.3580   32.6700 H   0  0  0  0  0  0  0  0  0  0  0  0
   38.6470   18.9090   31.1420 C   0  0  0  0  0  3  0  0  0  0  0  0
   37.7200   18.4630   30.1990 C   0  0  0  0  0  0  0  0  0  0  0  0
   37.9690   17.6120   29.5780 H   0  0  0  0  0  0  0  0  0  0  0  0
   36.4810   19.0750   30.0250 C   0  0  0  0  0  0  0  0  0  0  0  0
   35.7930   18.6770   29.2650 H   0  0  0  0  0  0  0  0  0  0  0  0
   36.1550   20.1660   30.8160 C   0  0  0  0  0  3  0  0  0  0  0  0
  1  8  1  0  0  0  0
  2  1  2  0  0  0  0
  2  6  1  0  0  0  0
  3  2  1  0  0  0  0
  4  3  2  0  0  0  0
  4  5  1  0  0  0  0
  5  1  1  0  0  0  0
  7  4  1  0  0  0  0
  8  9  2  0  0  0  0
  8 13  1  0  0  0  0
  9 10  1  0  0  0  0
 10 15  1  0  0  0  0
 10 11  2  0  0  0  0
 12 11  1  0  0  0  0
 12 16  1  0  0  0  0
 13 12  2  0  0  0  0
 14  9  1  0  0  0  0
 17 20  1  6  0  0  0
 17  5  1  0  0  0  0
 17 18  1  0  0  0  0
 18 21  1  0  0  0  0
 18 22  1  0  0  0  0
 19 23  1  6  0  0  0
 19 17  1  0  0  0  0
 19 18  1  0  0  0  0
 24 25  1  0  0  0  0
 24 19  1  0  0  0  0
 25 26  1  0  0  0  0
 27 25  2  0  0  0  0
 28 27  1  0  0  0  0
 29 28  1  0  0  0  0
 30 28  2  0  0  0  0
 30 32  1  0  0  0  0
 31 30  1  0  0  0  0
 32 24  2  0  0  0  0
M  END
>  <minimizedAffinity>
-4.68510246

>  <minimizedRMSD>
2.03334904

$$$$
