
 OpenBabel03262520003D

 35 38  0  0  1  0  0  0  0  0999 V2000
   39.4890   24.2710   34.3680 C   0  0  1  0  0  0  0  0  0  0  0  0
   38.2760   24.6160   35.0570 C   0  0  0  0  0  0  0  0  0  0  0  0
   38.8630   23.1800   35.1650 C   0  0  1  0  0  0  0  0  0  0  0  0
   40.4360   24.7360   34.8160 H   0  0  0  0  0  0  0  0  0  0  0  0
   38.2640   25.2040   35.9880 H   0  0  0  0  0  0  0  0  0  0  0  0
   37.3240   24.6780   34.5110 H   0  0  0  0  0  0  0  0  0  0  0  0
   37.7700   22.2420   34.7650 C   0  0  0  0  0  0  0  0  0  0  0  0
   36.9910   21.8490   35.8490 C   0  0  0  0  0  0  0  0  0  0  0  0
   37.0410   22.1020   36.8990 H   0  0  0  0  0  0  0  0  0  0  0  0
   35.9240   20.9710   35.6440 C   0  0  0  0  0  3  0  0  0  0  0  0
   35.6440   20.4950   34.3690 C   0  0  0  0  0  0  0  0  0  0  0  0
   34.8390   19.8200   34.1500 H   0  0  0  0  0  0  0  0  0  0  0  0
   36.4250   20.8970   33.3200 C   0  0  0  0  0  0  0  0  0  0  0  0
   36.2410   20.5480   32.3030 H   0  0  0  0  0  0  0  0  0  0  0  0
   37.4640   21.7500   33.5120 C   0  0  0  0  0  3  0  0  0  0  0  0
   39.0380   24.5150   31.9210 C   0  0  0  0  0  0  0  0  0  0  0  0
   39.5000   23.9330   30.7430 C   0  0  0  0  0  0  0  0  0  0  0  0
   40.4260   23.0240   31.1780 N   0  0  0  0  0  0  0  0  0  0  0  0
   40.4760   23.0970   32.5050 C   0  0  0  0  0  0  0  0  0  0  0  0
   39.6320   24.0050   32.9860 N   0  0  0  0  0  0  0  0  0  0  0  0
   39.1700   24.1790   29.7400 H   0  0  0  0  0  0  0  0  0  0  0  0
   41.1950   22.4040   32.9550 H   0  0  0  0  0  0  0  0  0  0  0  0
   38.0290   25.5650   31.9760 C   0  0  0  0  0  0  0  0  0  0  0  0
   38.4260   26.8990   32.2060 C   0  0  0  0  0  0  0  0  0  0  0  0
   37.4150   27.8840   32.2500 C   0  0  0  0  0  0  0  0  0  0  0  0
   36.1320   27.4780   32.0660 N   0  0  0  0  0  0  0  0  0  0  0  0
   35.7940   26.1880   31.8480 C   0  0  0  0  0  0  0  0  0  0  0  0
   36.7360   25.2280   31.8020 N   0  0  0  0  0  0  0  0  0  0  0  0
   39.4850   27.0640   32.3330 H   0  0  0  0  0  0  0  0  0  0  0  0
   37.7410   28.8820   32.4250 H   0  0  0  0  0  0  0  0  0  0  0  0
   34.7330   26.0240   31.7210 H   0  0  0  0  0  0  0  0  0  0  0  0
   39.4220   22.9240   36.5500 C   0  0  0  0  0  0  0  0  0  0  0  0
   39.7130   21.5810   36.6990 F   0  0  0  0  0  0  0  0  0  0  0  0
   40.7220   23.5740   36.6380 F   0  0  0  0  0  0  0  0  0  0  0  0
   38.6770   23.4350   37.5430 F   0  0  0  0  0  0  0  0  0  0  0  0
  1  4  1  1  0  0  0
  1  2  1  0  0  0  0
  1  3  1  0  0  0  0
  2  3  1  0  0  0  0
  2  5  1  0  0  0  0
  3 32  1  1  0  0  0
  6  2  1  0  0  0  0
  7  3  1  0  0  0  0
  7  8  1  0  0  0  0
  8  9  1  0  0  0  0
 10  8  2  0  0  0  0
 11 10  1  0  0  0  0
 12 11  1  0  0  0  0
 13 15  1  0  0  0  0
 13 11  2  0  0  0  0
 14 13  1  0  0  0  0
 15  7  2  0  0  0  0
 16 23  1  0  0  0  0
 16 20  1  0  0  0  0
 17 18  1  0  0  0  0
 17 16  2  0  0  0  0
 18 19  2  0  0  0  0
 19 22  1  0  0  0  0
 19 20  1  0  0  0  0
 20  1  1  0  0  0  0
 21 17  1  0  0  0  0
 23 24  1  0  0  0  0
 24 25  2  0  0  0  0
 24 29  1  0  0  0  0
 25 30  1  0  0  0  0
 26 25  1  0  0  0  0
 27 26  2  0  0  0  0
 28 27  1  0  0  0  0
 28 23  2  0  0  0  0
 31 27  1  0  0  0  0
 32 34  1  0  0  0  0
 32 33  1  0  0  0  0
 32 35  1  0  0  0  0
M  END
>  <minimizedAffinity>
-4.78176069

>  <minimizedRMSD>
3.07959008

$$$$
