
 OpenBabel03262515403D

 46 50  0  0  0  0  0  0  0  0999 V2000
   37.2800   26.4390   35.1270 C   0  0  0  0  0  0  0  0  0  0  0  0
   37.5520   27.0450   35.9950 H   0  0  0  0  0  0  0  0  0  0  0  0
   36.2810   26.0010   35.3250 H   0  0  0  0  0  0  0  0  0  0  0  0
   37.2040   27.2350   33.8680 C   0  0  0  0  0  0  0  0  0  0  0  0
   36.3400   28.2400   33.6930 N   0  0  0  0  0  0  0  0  0  0  0  0
   36.4990   28.7450   32.5070 O   0  0  0  0  0  0  0  0  0  0  0  0
   37.4390   28.1170   31.8740 C   0  0  0  0  0  0  0  0  0  0  0  0
   37.8940   27.1610   32.7210 N   0  0  0  0  0  0  0  0  0  0  0  0
   38.0020   28.2790   30.5450 C   0  0  0  0  0  0  0  0  0  0  0  0
   38.7920   27.4600   29.7750 C   0  0  0  0  0  0  0  0  0  0  0  0
   39.0410   28.1090   28.5850 C   0  0  0  0  0  0  0  0  0  0  0  0
   38.3680   29.3310   28.6940 C   0  0  0  0  0  0  0  0  0  0  0  0
   37.7750   29.3920   29.8510 O   0  0  0  0  0  0  0  0  0  0  0  0
   39.1280   26.4870   30.0990 H   0  0  0  0  0  0  0  0  0  0  0  0
   39.6330   27.7340   27.7580 H   0  0  0  0  0  0  0  0  0  0  0  0
   38.3480   30.3600   27.6600 C   0  0  0  0  0  0  0  0  0  0  0  0
   39.3640   30.3810   26.7250 C   0  0  0  0  0  0  0  0  0  0  0  0
   40.1860   29.6810   26.7000 H   0  0  0  0  0  0  0  0  0  0  0  0
   39.3680   31.3570   25.7240 C   0  0  0  0  0  0  0  0  0  0  0  0
   38.3230   32.2580   25.7430 C   0  0  0  0  0  0  0  0  0  0  0  0
   38.3070   33.0330   24.9660 H   0  0  0  0  0  0  0  0  0  0  0  0
   37.2740   32.2880   26.6570 C   0  0  0  0  0  0  0  0  0  0  0  0
   36.5050   33.0420   26.5780 H   0  0  0  0  0  0  0  0  0  0  0  0
   37.3360   31.2960   27.6140 C   0  0  0  0  0  0  0  0  0  0  0  0
   38.2260   25.2810   34.9720 C   0  0  0  0  0  0  0  0  0  0  0  0
   39.2190   25.7210   34.6710 H   0  0  0  0  0  0  0  0  0  0  0  0
   37.8800   24.5530   34.2400 H   0  0  0  0  0  0  0  0  0  0  0  0
   37.9630   24.2070   38.5290 C   0  0  0  0  0  0  0  0  0  0  0  0
   38.9680   23.2390   38.5940 C   0  0  0  0  0  0  0  0  0  0  0  0
   39.7030   22.9800   37.4350 C   0  0  0  0  0  0  0  0  0  0  0  0
   39.4160   23.6700   36.3020 N   0  0  0  0  0  0  0  0  0  0  0  0
   38.4230   24.6110   36.2780 C   0  0  0  0  0  0  0  0  0  0  0  0
   37.7050   24.8770   37.3790 N   0  0  0  0  0  0  0  0  0  0  0  0
   37.3620   24.4470   39.4020 H   0  0  0  0  0  0  0  0  0  0  0  0
   39.1740   22.7050   39.5110 H   0  0  0  0  0  0  0  0  0  0  0  0
   40.7600   21.9650   37.4960 C   0  0  0  0  0  0  0  0  0  0  0  0
   40.2980   20.9840   37.2590 H   0  0  0  0  0  0  0  0  0  0  0  0
   41.1660   21.8780   38.5380 H   0  0  0  0  0  0  0  0  0  0  0  0
   41.8850   22.2310   36.5750 C   0  0  0  0  0  0  0  0  0  0  0  0
   42.1680   21.4270   35.3780 C   0  0  0  0  0  0  0  0  0  0  0  0
   42.9850   21.1550   36.6230 C   0  0  0  0  0  0  0  0  0  0  0  0
   42.3010   23.2770   36.6530 H   0  0  0  0  0  0  0  0  0  0  0  0
   41.3670   20.7350   35.0640 H   0  0  0  0  0  0  0  0  0  0  0  0
   42.6700   21.9460   34.5210 H   0  0  0  0  0  0  0  0  0  0  0  0
   42.7340   20.1770   37.0820 H   0  0  0  0  0  0  0  0  0  0  0  0
   44.0300   21.4800   36.6070 H   0  0  0  0  0  0  0  0  0  0  0  0
  1  3  1  0  0  0  0
  1  2  1  0  0  0  0
  4  1  1  0  0  0  0
  5  4  2  0  0  0  0
  6  5  1  0  0  0  0
  7  6  1  0  0  0  0
  7  8  2  0  0  0  0
  8  4  1  0  0  0  0
  9  7  1  0  0  0  0
 10 14  1  0  0  0  0
 10  9  2  0  0  0  0
 11 12  2  0  0  0  0
 11 10  1  0  0  0  0
 12 13  1  0  0  0  0
 13  9  1  0  0  0  0
 15 11  1  0  0  0  0
 16 12  1  0  0  0  0
 17 16  2  0  0  0  0
 18 17  1  0  0  0  0
 19 20  2  0  0  0  0
 19 17  1  0  0  0  0
 20 22  1  0  0  0  0
 21 20  1  0  0  0  0
 22 24  2  0  0  0  0
 23 22  1  0  0  0  0
 24 16  1  0  0  0  0
 25  1  1  0  0  0  0
 25 32  1  0  0  0  0
 26 25  1  0  0  0  0
 27 25  1  0  0  0  0
 28 29  1  0  0  0  0
 28 34  1  0  0  0  0
 29 35  1  0  0  0  0
 30 36  1  0  0  0  0
 30 29  2  0  0  0  0
 31 30  1  0  0  0  0
 32 31  2  0  0  0  0
 32 33  1  0  0  0  0
 33 28  2  0  0  0  0
 36 38  1  0  0  0  0
 37 36  1  0  0  0  0
 39 41  1  0  0  0  0
 39 42  1  0  0  0  0
 39 36  1  0  0  0  0
 40 39  1  0  0  0  0
 40 41  1  0  0  0  0
 41 45  1  0  0  0  0
 43 40  1  0  0  0  0
 44 40  1  0  0  0  0
 46 41  1  0  0  0  0
M  END
>  <minimizedAffinity>
-5.16392279

>  <minimizedRMSD>
0.865237951

$$$$
