
     RDKit          3D

 34 37  0  0  0  0  0  0  0  0999 V2000
   38.0281   23.4684   34.6223 C   0  0  0  0  0  0  0  0  0  0  0  0
   38.2649   24.5674   33.7967 C   0  0  0  0  0  0  0  0  0  0  0  0
   37.7652   24.1841   32.5890 N   0  0  0  0  0  0  0  0  0  0  0  0
   37.2782   22.9520   32.7204 C   0  0  0  0  0  0  0  0  0  0  0  0
   37.4261   22.4776   33.9739 N   0  0  0  0  0  0  0  0  0  0  0  0
   38.3898   23.3986   36.0258 C   0  0  0  0  0  0  0  0  0  0  0  0
   39.5969   22.7956   36.4229 C   0  0  0  0  0  0  0  0  0  0  0  0
   39.8956   22.7567   37.7974 C   0  0  0  0  0  0  0  0  0  0  0  0
   39.0113   23.2976   38.6535 N   0  0  0  0  0  0  0  0  0  0  0  0
   37.8521   23.8745   38.2465 C   0  0  0  0  0  0  0  0  0  0  0  0
   37.5455   23.9234   36.9395 N   0  0  0  0  0  0  0  0  0  0  0  0
   36.9944   21.1826   34.3995 C   0  0  1  0  0  0  0  0  0  0  0  0
   35.8450   20.9634   35.2581 C   0  0  0  0  0  0  0  0  0  0  0  0
   35.6818   20.7632   33.7586 C   0  0  2  0  0  0  0  0  0  0  0  0
   38.7495   25.4803   34.1428 H   0  0  0  0  0  0  0  0  0  0  0  0
   36.8136   22.4094   31.8815 H   0  0  0  0  0  0  0  0  0  0  0  0
   40.2758   22.3763   35.7187 H   0  0  0  0  0  0  0  0  0  0  0  0
   40.7955   22.3149   38.1845 H   0  0  0  0  0  0  0  0  0  0  0  0
   37.1406   24.3095   38.9333 H   0  0  0  0  0  0  0  0  0  0  0  0
   37.8155   20.4505   34.4604 H   0  0  0  0  0  0  0  0  0  0  0  0
   35.7547   20.1097   35.9336 H   0  0  0  0  0  0  0  0  0  0  0  0
   35.3500   21.8916   35.6635 H   0  0  0  0  0  0  0  0  0  0  0  0
   35.0673   21.4827   33.2198 H   0  0  0  0  0  0  0  0  0  0  0  0
   35.4902   19.3519   33.3435 C   0  0  0  0  0  0  0  0  0  0  0  0
   36.6078   18.6760   32.8462 C   0  0  0  0  0  0  0  0  0  0  0  0
   37.5791   19.1587   32.7645 H   0  0  0  0  0  0  0  0  0  0  0  0
   36.4575   17.3612   32.4526 C   0  0  0  0  0  0  0  0  0  0  0  0
   35.1999   16.7661   32.5679 C   0  0  0  0  0  0  0  0  0  0  0  0
   35.0747   15.7364   32.2616 H   0  0  0  0  0  0  0  0  0  0  0  0
   34.0946   17.4517   33.0654 C   0  0  0  0  0  0  0  0  0  0  0  0
   33.1295   16.9281   33.1322 H   0  0  0  0  0  0  0  0  0  0  0  0
   34.2450   18.7724   33.4610 C   0  0  0  0  0  0  0  0  0  0  0  0
   37.2869   16.7612   32.0513 H   0  0  0  0  0  0  0  0  0  0  0  0
   33.3920   19.3088   33.8473 H   0  0  0  0  0  0  0  0  0  0  0  0
  1  6  1  0
  2  1  2  0
  3  4  2  0
  3  2  1  0
  4  5  1  0
  5 12  1  0
  5  1  1  0
  6  7  2  0
  6 11  1  0
  7  8  1  0
  8  9  2  0
 10  9  1  0
 11 10  2  0
 12 13  1  0
 14 12  1  0
 14 13  1  0
  2 15  1  0
  4 16  1  0
  7 17  1  0
  8 18  1  0
 10 19  1  0
 12 20  1  1
 13 21  1  0
 13 22  1  0
 14 23  1  6
 24 25  2  0
 25 26  1  0
 25 27  1  0
 27 28  2  0
 28 29  1  0
 28 30  1  0
 30 31  1  0
 30 32  2  0
 32 24  1  0
 27 33  1  0
 32 34  1  0
 14 24  1  0
M  ISO  8  15  14  16  14  17  14  18  14  19  14  20  13  21  13  22  13
M  ISO  4  23  13  26  16  29  16  31  16
M  END
>  <DihAtoms>  (1) 
11,13,23,24

>  <DihDeg>  (1) 
-155.35678572285352

$$$$
