
 OpenBabel03262519583D

 32 35  0  0  1  0  0  0  0  0999 V2000
   37.3810   22.2470   33.7130 C   0  0  0  0  0  0  0  0  0  0  0  0
   37.8400   22.0370   35.0130 C   0  0  0  0  0  0  0  0  0  0  0  0
   38.3450   23.2470   35.3820 N   0  0  0  0  0  0  0  0  0  0  0  0
   38.1840   24.0860   34.3620 C   0  0  0  0  0  0  0  0  0  0  0  0
   37.5860   23.4950   33.3070 N   0  0  0  0  0  0  0  0  0  0  0  0
   37.7630   21.0780   35.5250 H   0  0  0  0  0  0  0  0  0  0  0  0
   38.5120   25.1370   34.4050 H   0  0  0  0  0  0  0  0  0  0  0  0
   36.7510   21.2330   32.8880 C   0  0  0  0  0  0  0  0  0  0  0  0
   37.5270   20.4060   32.0560 C   0  0  0  0  0  0  0  0  0  0  0  0
   36.8620   19.4410   31.2780 C   0  0  0  0  0  0  0  0  0  0  0  0
   35.5220   19.3630   31.3730 N   0  0  0  0  0  0  0  0  0  0  0  0
   34.7950   20.1720   32.1840 C   0  0  0  0  0  0  0  0  0  0  0  0
   35.4070   21.1020   32.9350 N   0  0  0  0  0  0  0  0  0  0  0  0
   38.5860   20.4940   32.0030 H   0  0  0  0  0  0  0  0  0  0  0  0
   37.3790   18.7710   30.6160 H   0  0  0  0  0  0  0  0  0  0  0  0
   33.7200   20.1110   32.2610 H   0  0  0  0  0  0  0  0  0  0  0  0
   37.2870   24.1580   32.0760 C   0  0  1  0  0  0  0  0  0  0  0  0
   35.9370   24.4020   31.6040 C   0  0  0  0  0  0  0  0  0  0  0  0
   36.6850   25.5370   32.2850 C   0  0  2  0  0  0  0  0  0  0  0  0
   38.0730   24.0300   31.3140 H   0  0  0  0  0  0  0  0  0  0  0  0
   35.6760   24.4790   30.5460 H   0  0  0  0  0  0  0  0  0  0  0  0
   35.1110   23.9470   32.2220 H   0  0  0  0  0  0  0  0  0  0  0  0
   36.3340   25.8520   33.2680 H   0  0  0  0  0  0  0  0  0  0  0  0
   37.0730   26.6490   31.3820 C   0  0  0  0  0  0  0  0  0  0  0  0
   36.1740   27.7120   31.2590 C   0  0  0  0  0  0  0  0  0  0  0  0
   35.2290   27.7290   31.7980 H   0  0  0  0  0  0  0  0  0  0  0  0
   36.5080   28.7600   30.4250 C   0  0  0  0  0  3  0  0  0  0  0  0
   37.7260   28.7130   29.7440 C   0  0  0  0  0  0  0  0  0  0  0  0
   37.9950   29.5300   29.0890 H   0  0  0  0  0  0  0  0  0  0  0  0
   38.6130   27.6470   29.8760 C   0  0  0  0  0  0  0  0  0  0  0  0
   39.5580   27.6670   29.3150 H   0  0  0  0  0  0  0  0  0  0  0  0
   38.2770   26.5930   30.7140 C   0  0  0  0  0  3  0  0  0  0  0  0
  1  2  2  0  0  0  0
  2  3  1  0  0  0  0
  2  6  1  0  0  0  0
  4  7  1  0  0  0  0
  4  3  2  0  0  0  0
  5  1  1  0  0  0  0
  5  4  1  0  0  0  0
  8 13  1  0  0  0  0
  8  1  1  0  0  0  0
  9  8  2  0  0  0  0
 10 11  2  0  0  0  0
 10  9  1  0  0  0  0
 11 12  1  0  0  0  0
 12 16  1  0  0  0  0
 12 13  2  0  0  0  0
 14  9  1  0  0  0  0
 15 10  1  0  0  0  0
 17 20  1  6  0  0  0
 17 19  1  0  0  0  0
 17  5  1  0  0  0  0
 18 17  1  0  0  0  0
 18 22  1  0  0  0  0
 18 19  1  0  0  0  0
 19 23  1  1  0  0  0
 21 18  1  0  0  0  0
 24 19  1  0  0  0  0
 25 24  1  0  0  0  0
 25 26  1  0  0  0  0
 27 25  2  0  0  0  0
 28 30  2  0  0  0  0
 28 27  1  0  0  0  0
 29 28  1  0  0  0  0
 30 32  1  0  0  0  0
 31 30  1  0  0  0  0
 32 24  2  0  0  0  0
M  END
>  <minimizedAffinity>
-4.44017696

>  <minimizedRMSD>
7.12487841

$$$$
