
 OpenBabel03262518283D

 28 30  0  0  0  0  0  0  0  0999 V2000
   39.6670   22.6470   38.2500 N   0  0  0  0  0  0  0  0  0  0  0  0
   38.5650   23.3900   38.1050 N   0  0  0  0  0  0  0  0  0  0  0  0
   38.5920   23.9800   36.8750 C   0  0  0  0  0  0  0  0  0  0  0  0
   39.7440   23.5920   36.2380 C   0  0  0  0  0  0  0  0  0  0  0  0
   40.3840   22.7640   37.1250 C   0  0  0  0  0  0  0  0  0  0  0  0
   39.8620   22.0970   39.1230 H   0  0  0  0  0  0  0  0  0  0  0  0
   40.0260   23.9090   35.2450 H   0  0  0  0  0  0  0  0  0  0  0  0
   41.6620   22.1090   36.8720 C   0  0  0  0  0  0  0  0  0  0  0  0
   42.6880   22.7430   36.2040 C   0  0  0  0  0  0  0  0  0  0  0  0
   42.5820   23.7500   35.8430 H   0  0  0  0  0  0  0  0  0  0  0  0
   43.8910   22.1080   35.9740 C   0  0  0  0  0  0  0  0  0  0  0  0
   44.1070   20.8070   36.4070 C   0  0  0  0  0  0  0  0  0  0  0  0
   45.0020   20.2140   36.2840 H   0  0  0  0  0  0  0  0  0  0  0  0
   43.0860   20.1560   37.0800 C   0  0  0  0  0  0  0  0  0  0  0  0
   43.1500   19.1440   37.4610 H   0  0  0  0  0  0  0  0  0  0  0  0
   41.9090   20.8200   37.2890 C   0  0  0  0  0  0  0  0  0  0  0  0
   37.5500   24.8250   36.4480 O   0  0  0  0  0  0  0  0  0  0  0  0
   37.8290   26.0910   35.9320 C   0  0  0  0  0  0  0  0  0  0  0  0
   38.4770   26.9360   36.5830 O   0  0  0  0  0  0  0  0  0  0  0  0
   37.3490   26.4400   34.5900 C   0  0  0  0  0  0  0  0  0  0  0  0
   37.4620   25.4830   33.5900 C   0  0  0  0  0  0  0  0  0  0  0  0
   37.0060   25.8090   32.3040 C   0  0  0  0  0  0  0  0  0  0  0  0
   36.4850   27.0390   32.1300 N   0  0  0  0  0  0  0  0  0  0  0  0
   36.3880   27.9390   33.1080 C   0  0  0  0  0  0  0  0  0  0  0  0
   36.8170   27.6540   34.3460 N   0  0  0  0  0  0  0  0  0  0  0  0
   37.9010   24.5150   33.8430 H   0  0  0  0  0  0  0  0  0  0  0  0
   37.1070   25.0410   31.5470 H   0  0  0  0  0  0  0  0  0  0  0  0
   35.9520   28.8860   32.8350 H   0  0  0  0  0  0  0  0  0  0  0  0
  1  6  1  0  0  0  0
  2  1  1  0  0  0  0
  3  2  2  0  0  0  0
  4  3  1  0  0  0  0
  4  5  2  0  0  0  0
  5  1  1  0  0  0  0
  7  4  1  0  0  0  0
  8  5  1  0  0  0  0
  8 16  1  0  0  0  0
  9  8  2  0  0  0  0
 10  9  1  0  0  0  0
 11  9  1  0  0  0  0
 11 12  2  0  0  0  0
 12 14  1  0  0  0  0
 13 12  1  0  0  0  0
 14 16  2  0  0  0  0
 14 15  1  0  0  0  0
 17  3  1  0  0  0  0
 18 17  1  0  0  0  0
 18 19  2  0  0  0  0
 20 18  1  0  0  0  0
 21 26  1  0  0  0  0
 21 20  2  0  0  0  0
 22 21  1  0  0  0  0
 23 22  2  0  0  0  0
 23 24  1  0  0  0  0
 24 25  2  0  0  0  0
 25 20  1  0  0  0  0
 27 22  1  0  0  0  0
 28 24  1  0  0  0  0
M  END
>  <minimizedAffinity>
-5.28353167

>  <minimizedRMSD>
1.17035782

$$$$
