REMARK  Name = 
REMARK  4 active torsions:
REMARK  status: ('A' for Active; 'I' for Inactive)
REMARK    1  A    between atoms: C_1  and  C_6
REMARK    2  A    between atoms: N_5  and  C_12
REMARK    3  A    between atoms: C_14  and  C_15
REMARK    4  A    between atoms: C_14  and  C_27
REMARK                            x       y       z     vdW  Elec       q    Type
REMARK                         _______ _______ _______ _____ _____    ______ ____
ROOT
ATOM      1  C   UNL     1      38.529  23.947  35.900  0.00  0.00    +0.000 C 
ATOM      2  C   UNL     1      38.072  25.229  36.363  0.00  0.00    +0.000 C 
ATOM      3  C   UNL     1      37.560  23.921  37.030  0.00  0.00    +0.000 C 
ATOM      4  H   UNL     1      39.616  23.707  36.169  0.00  0.00    +0.000 HD
ATOM      5  H   UNL     1      38.685  25.887  36.999  0.00  0.00    +0.000 HD
ATOM      6  H   UNL     1      37.307  25.783  35.802  0.00  0.00    +0.000 HD
ENDROOT
BRANCH   3   7
ATOM      7  C   UNL     1      36.067  23.974  36.980  0.00  0.00    +0.000 A 
ATOM      8  C   UNL     1      35.483  22.840  37.539  0.00  0.00    +0.000 A 
ATOM      9  H   UNL     1      35.913  21.957  37.988  0.00  0.00    +0.000 HD
ATOM     10  C   UNL     1      34.090  22.733  37.572  0.00  0.00    +0.000 A 
ATOM     11  C   UNL     1      33.297  23.748  37.052  0.00  0.00    +0.000 A 
ATOM     12  H   UNL     1      32.224  23.722  37.049  0.00  0.00    +0.000 HD
ATOM     13  C   UNL     1      33.896  24.852  36.508  0.00  0.00    +0.000 A 
ATOM     14  H   UNL     1      33.312  25.672  36.090  0.00  0.00    +0.000 HD
ATOM     15  C   UNL     1      35.250  24.963  36.473  0.00  0.00    +0.000 A 
ENDBRANCH   3   7
BRANCH   1  20
ATOM     16  C   UNL     1      37.869  23.697  33.501  0.00  0.00    +0.000 A 
ATOM     17  C   UNL     1      37.467  22.658  32.665  0.00  0.00    +0.000 A 
ATOM     18  N   UNL     1      37.484  21.563  33.485  0.00  0.00    +0.000 NA
ATOM     19  C   UNL     1      37.869  21.965  34.693  0.00  0.00    +0.000 A 
ATOM     20  N   UNL     1      38.111  23.272  34.729  0.00  0.00    +0.000 N 
ATOM     21  H   UNL     1      37.212  22.750  31.615  0.00  0.00    +0.000 HD
ATOM     22  H   UNL     1      37.916  21.155  35.429  0.00  0.00    +0.000 HD
BRANCH  16  23
ATOM     23  C   UNL     1      38.015  25.083  33.076  0.00  0.00    +0.000 A 
ATOM     24  C   UNL     1      39.298  25.585  32.771  0.00  0.00    +0.000 A 
ATOM     25  C   UNL     1      39.392  26.933  32.361  0.00  0.00    +0.000 A 
ATOM     26  N   UNL     1      38.241  27.651  32.289  0.00  0.00    +0.000 NA
ATOM     27  C   UNL     1      37.031  27.131  32.590  0.00  0.00    +0.000 A 
ATOM     28  N   UNL     1      36.911  25.850  32.984  0.00  0.00    +0.000 NA
ATOM     29  H   UNL     1      40.117  24.890  32.877  0.00  0.00    +0.000 HD
ATOM     30  H   UNL     1      40.370  27.287  32.137  0.00  0.00    +0.000 HD
ATOM     31  H   UNL     1      36.211  27.828  32.484  0.00  0.00    +0.000 HD
ENDBRANCH  16  23
ENDBRANCH   1  20
BRANCH   3  32
ATOM     32  C   UNL     1      38.127  23.765  38.427  0.00  0.00    +0.000 C 
ATOM     33  F   UNL     1      37.518  22.702  39.066  0.00  0.00    +0.000 F 
ATOM     34  F   UNL     1      39.516  23.347  38.304  0.00  0.00    +0.000 F 
ATOM     35  F   UNL     1      38.137  24.900  39.143  0.00  0.00    +0.000 F 
ENDBRANCH   3  32
TORSDOF 4
