
 OpenBabel03262519573D

 32 35  0  0  1  0  0  0  0  0999 V2000
   38.1150   24.4570   34.7740 C   0  0  0  0  0  0  0  0  0  0  0  0
   38.0390   25.8030   34.4180 C   0  0  0  0  0  0  0  0  0  0  0  0
   37.6810   25.7740   33.1040 N   0  0  0  0  0  0  0  0  0  0  0  0
   37.5630   24.4990   32.7400 C   0  0  0  0  0  0  0  0  0  0  0  0
   37.8260   23.6540   33.7570 N   0  0  0  0  0  0  0  0  0  0  0  0
   38.2400   26.6170   35.1130 H   0  0  0  0  0  0  0  0  0  0  0  0
   37.2810   24.2010   31.7170 H   0  0  0  0  0  0  0  0  0  0  0  0
   38.4670   23.9740   36.0970 C   0  0  0  0  0  0  0  0  0  0  0  0
   39.6950   23.3240   36.3160 C   0  0  0  0  0  0  0  0  0  0  0  0
   39.9830   22.8760   37.6190 C   0  0  0  0  0  0  0  0  0  0  0  0
   39.0680   23.0950   38.5810 N   0  0  0  0  0  0  0  0  0  0  0  0
   37.8900   23.7260   38.3440 C   0  0  0  0  0  0  0  0  0  0  0  0
   37.5930   24.1600   37.1090 N   0  0  0  0  0  0  0  0  0  0  0  0
   40.3970   23.1650   35.5320 H   0  0  0  0  0  0  0  0  0  0  0  0
   40.8960   22.3710   37.8710 H   0  0  0  0  0  0  0  0  0  0  0  0
   37.1550   23.9010   39.1160 H   0  0  0  0  0  0  0  0  0  0  0  0
   37.7750   22.2290   33.6520 C   0  0  1  0  0  0  0  0  0  0  0  0
   36.6410   21.4330   34.0810 C   0  0  0  0  0  0  0  0  0  0  0  0
   36.7860   21.7540   32.6010 C   0  0  2  0  0  0  0  0  0  0  0  0
   38.7700   21.7560   33.7000 H   0  0  0  0  0  0  0  0  0  0  0  0
   36.7270   20.4000   34.4250 H   0  0  0  0  0  0  0  0  0  0  0  0
   35.8150   21.9970   34.6030 H   0  0  0  0  0  0  0  0  0  0  0  0
   36.0630   22.4410   32.1620 H   0  0  0  0  0  0  0  0  0  0  0  0
   37.1280   20.5890   31.7490 C   0  0  0  0  0  0  0  0  0  0  0  0
   36.1850   20.1960   30.7960 C   0  0  0  0  0  0  0  0  0  0  0  0
   35.2380   20.7200   30.6780 H   0  0  0  0  0  0  0  0  0  0  0  0
   36.4780   19.1140   29.9900 C   0  0  0  0  0  3  0  0  0  0  0  0
   37.6990   18.4610   30.1620 C   0  0  0  0  0  0  0  0  0  0  0  0
   37.9350   17.6120   29.5340 H   0  0  0  0  0  0  0  0  0  0  0  0
   38.6300   18.8620   31.1170 C   0  0  0  0  0  0  0  0  0  0  0  0
   39.5750   18.3070   31.2040 H   0  0  0  0  0  0  0  0  0  0  0  0
   38.3370   19.9490   31.9260 C   0  0  0  0  0  3  0  0  0  0  0  0
  1  8  1  0  0  0  0
  2  1  2  0  0  0  0
  2  6  1  0  0  0  0
  3  2  1  0  0  0  0
  4  3  2  0  0  0  0
  4  5  1  0  0  0  0
  5  1  1  0  0  0  0
  7  4  1  0  0  0  0
  8  9  2  0  0  0  0
  8 13  1  0  0  0  0
  9 10  1  0  0  0  0
 10 15  1  0  0  0  0
 10 11  2  0  0  0  0
 12 11  1  0  0  0  0
 12 16  1  0  0  0  0
 13 12  2  0  0  0  0
 14  9  1  0  0  0  0
 17 20  1  1  0  0  0
 17  5  1  0  0  0  0
 17 18  1  0  0  0  0
 18 21  1  0  0  0  0
 18 22  1  0  0  0  0
 19 23  1  6  0  0  0
 19 17  1  0  0  0  0
 19 18  1  0  0  0  0
 24 32  1  0  0  0  0
 24 19  1  0  0  0  0
 25 24  2  0  0  0  0
 26 25  1  0  0  0  0
 27 28  2  0  0  0  0
 27 25  1  0  0  0  0
 28 30  1  0  0  0  0
 29 28  1  0  0  0  0
 30 31  1  0  0  0  0
 30 32  2  0  0  0  0
M  END
>  <minimizedAffinity>
-4.69129658

>  <minimizedRMSD>
2.05443573

$$$$
