
 OpenBabel03262517253D

 39 42  0  0  0  0  0  0  0  0999 V2000
   39.6620   23.5670   34.7510 N   0  0  0  0  0  0  0  0  0  0  0  0
   40.2770   22.6320   34.0430 N   0  0  0  0  0  0  0  0  0  0  0  0
   40.5290   23.0550   32.7980 C   0  0  0  0  0  0  0  0  0  0  0  0
   40.0330   24.3440   32.7400 C   0  0  0  0  0  0  0  0  0  0  0  0
   39.4810   24.6770   33.9760 C   0  0  0  0  0  0  0  0  0  0  0  0
   41.0280   22.3940   32.1060 H   0  0  0  0  0  0  0  0  0  0  0  0
   37.9270   23.7040   36.4470 C   0  0  0  0  0  0  0  0  0  0  0  0
   39.2590   23.4370   36.0910 C   0  0  0  0  0  0  0  0  0  0  0  0
   40.1690   23.0470   37.0690 C   0  0  0  0  0  0  0  0  0  0  0  0
   39.6880   22.9470   38.3460 N   0  0  0  0  0  0  0  0  0  0  0  0
   38.4280   23.2010   38.6730 C   0  0  0  0  0  0  0  0  0  0  0  0
   37.5390   23.5810   37.7260 N   0  0  0  0  0  0  0  0  0  0  0  0
   37.1920   24.0120   35.6960 H   0  0  0  0  0  0  0  0  0  0  0  0
   41.1620   22.8590   36.7370 H   0  0  0  0  0  0  0  0  0  0  0  0
   38.1370   23.0950   39.7120 H   0  0  0  0  0  0  0  0  0  0  0  0
   38.8740   25.9240   34.2940 N   0  0  0  0  0  0  0  0  0  0  0  0
   39.5260   26.9000   35.1330 C   0  0  0  0  0  0  0  0  0  0  0  0
   40.8340   26.9940   34.9770 N   0  0  0  0  0  0  0  0  0  0  0  0
   38.7210   27.6560   36.0300 N   0  0  0  0  0  0  0  0  0  0  0  0
   41.2770   27.7140   35.5860 H   0  0  0  0  0  0  0  0  0  0  0  0
   37.9090   26.1490   33.9050 H   0  0  0  0  0  0  0  0  0  0  0  0
   39.2840   27.7900   36.9040 H   0  0  0  0  0  0  0  0  0  0  0  0
   37.7840   27.9460   35.7390 H   0  0  0  0  0  0  0  0  0  0  0  0
   40.1250   25.1190   31.5540 N   0  0  0  0  0  0  0  0  0  0  0  0
   41.1130   25.8260   30.9470 C   0  0  0  0  0  0  0  0  0  0  0  0
   40.5640   26.3760   29.7830 C   0  0  0  0  0  0  0  0  0  0  0  0
   39.2760   25.9930   29.7170 N   0  0  0  0  0  0  0  0  0  0  0  0
   39.0040   25.2330   30.7840 C   0  0  0  0  0  0  0  0  0  0  0  0
   42.0720   25.8670   31.3850 H   0  0  0  0  0  0  0  0  0  0  0  0
   41.1560   26.9880   29.1190 H   0  0  0  0  0  0  0  0  0  0  0  0
   37.6500   24.6710   30.9680 C   0  0  0  0  0  0  0  0  0  0  0  0
   36.4820   25.3160   31.2710 C   0  0  0  0  0  0  0  0  0  0  0  0
   36.6040   26.3760   31.3850 H   0  0  0  0  0  0  0  0  0  0  0  0
   35.3260   24.5920   31.3970 C   0  0  0  0  0  0  0  0  0  0  0  0
   35.2960   23.2180   31.2270 C   0  0  0  0  0  0  0  0  0  0  0  0
   34.3500   22.6660   31.3350 H   0  0  0  0  0  0  0  0  0  0  0  0
   36.4700   22.5350   30.9180 C   0  0  0  0  0  0  0  0  0  0  0  0
   36.4240   21.4780   30.7910 H   0  0  0  0  0  0  0  0  0  0  0  0
   37.6270   23.2830   30.7940 C   0  0  0  0  0  0  0  0  0  0  0  0
  1  8  1  0  0  0  0
  2  1  1  0  0  0  0
  3  2  2  0  0  0  0
  4  3  1  0  0  0  0
  4  5  2  0  0  0  0
  5 16  1  0  0  0  0
  5  1  1  0  0  0  0
  6  3  1  0  0  0  0
  7 12  1  0  0  0  0
  8  7  2  0  0  0  0
  8  9  1  0  0  0  0
  9 10  2  0  0  0  0
 10 11  1  0  0  0  0
 11 15  1  0  0  0  0
 12 11  2  0  0  0  0
 13  7  1  0  0  0  0
 14  9  1  0  0  0  0
 16 17  1  0  0  0  0
 17 19  1  0  0  0  0
 18 17  2  0  0  0  0
 18 20  1  0  0  0  0
 19 22  1  0  0  0  0
 21 16  1  0  0  0  0
 23 19  1  0  0  0  0
 24  4  1  0  0  0  0
 25 29  1  0  0  0  0
 25 24  1  0  0  0  0
 26 25  2  0  0  0  0
 27 26  1  0  0  0  0
 27 28  2  0  0  0  0
 28 31  1  0  0  0  0
 28 24  1  0  0  0  0
 30 26  1  0  0  0  0
 31 32  1  0  0  0  0
 32 33  1  0  0  0  0
 32 34  2  0  0  0  0
 35 36  1  0  0  0  0
 35 34  1  0  0  0  0
 37 35  2  0  0  0  0
 38 37  1  0  0  0  0
 39 37  1  0  0  0  0
 39 31  2  0  0  0  0
M  END
>  <minimizedAffinity>
-5.64490891

>  <minimizedRMSD>
2.53102684

$$$$
