
 OpenBabel03262519583D

 32 35  0  0  1  0  0  0  0  0999 V2000
   38.0950   23.8220   34.6230 C   0  0  0  0  0  0  0  0  0  0  0  0
   38.2440   25.0370   33.9530 C   0  0  0  0  0  0  0  0  0  0  0  0
   37.7860   24.7770   32.6970 N   0  0  0  0  0  0  0  0  0  0  0  0
   37.4050   23.5020   32.6560 C   0  0  0  0  0  0  0  0  0  0  0  0
   37.5840   22.8800   33.8400 N   0  0  0  0  0  0  0  0  0  0  0  0
   38.6460   25.9330   34.4250 H   0  0  0  0  0  0  0  0  0  0  0  0
   36.9940   23.0380   31.7450 H   0  0  0  0  0  0  0  0  0  0  0  0
   38.4520   23.5990   36.0120 C   0  0  0  0  0  0  0  0  0  0  0  0
   39.6780   22.9940   36.3450 C   0  0  0  0  0  0  0  0  0  0  0  0
   39.9710   22.8020   37.7070 C   0  0  0  0  0  0  0  0  0  0  0  0
   39.0630   23.2060   38.6150 N   0  0  0  0  0  0  0  0  0  0  0  0
   37.8870   23.7870   38.2680 C   0  0  0  0  0  0  0  0  0  0  0  0
   37.5850   23.9800   36.9740 N   0  0  0  0  0  0  0  0  0  0  0  0
   40.3750   22.6850   35.6020 H   0  0  0  0  0  0  0  0  0  0  0  0
   40.8830   22.3480   38.0470 H   0  0  0  0  0  0  0  0  0  0  0  0
   37.1570   24.1110   38.9950 H   0  0  0  0  0  0  0  0  0  0  0  0
   37.2610   21.5090   34.0840 C   0  0  1  0  0  0  0  0  0  0  0  0
   36.0000   21.0710   34.6530 C   0  0  0  0  0  0  0  0  0  0  0  0
   36.1870   20.9840   33.1460 C   0  0  2  0  0  0  0  0  0  0  0  0
   38.1470   20.8840   34.2820 H   0  0  0  0  0  0  0  0  0  0  0  0
   35.8910   20.1580   35.2420 H   0  0  0  0  0  0  0  0  0  0  0  0
   35.3030   21.8910   34.9910 H   0  0  0  0  0  0  0  0  0  0  0  0
   35.6040   21.6650   32.5260 H   0  0  0  0  0  0  0  0  0  0  0  0
   36.2900   19.6020   32.6170 C   0  0  0  0  0  0  0  0  0  0  0  0
   37.4480   19.2750   31.9060 C   0  0  0  0  0  0  0  0  0  0  0  0
   38.2430   19.9990   31.7430 H   0  0  0  0  0  0  0  0  0  0  0  0
   37.5700   17.9950   31.4030 C   0  0  0  0  0  3  0  0  0  0  0  0
   36.5340   17.0850   31.6270 C   0  0  0  0  0  0  0  0  0  0  0  0
   36.6230   16.0810   31.2360 H   0  0  0  0  0  0  0  0  0  0  0  0
   35.3850   17.4240   32.3380 C   0  0  0  0  0  0  0  0  0  0  0  0
   34.6050   16.6640   32.4810 H   0  0  0  0  0  0  0  0  0  0  0  0
   35.2630   18.7100   32.8430 C   0  0  0  0  0  3  0  0  0  0  0  0
  1  8  1  0  0  0  0
  2  6  1  0  0  0  0
  2  1  2  0  0  0  0
  3  2  1  0  0  0  0
  4  3  2  0  0  0  0
  4  5  1  0  0  0  0
  5 17  1  0  0  0  0
  5  1  1  0  0  0  0
  7  4  1  0  0  0  0
  8  9  2  0  0  0  0
  8 13  1  0  0  0  0
  9 10  1  0  0  0  0
 10 15  1  0  0  0  0
 10 11  2  0  0  0  0
 12 11  1  0  0  0  0
 12 16  1  0  0  0  0
 13 12  2  0  0  0  0
 14  9  1  0  0  0  0
 17 20  1  1  0  0  0
 17 18  1  0  0  0  0
 18 22  1  0  0  0  0
 18 21  1  0  0  0  0
 19 23  1  6  0  0  0
 19 17  1  0  0  0  0
 19 18  1  0  0  0  0
 24 32  1  0  0  0  0
 24 19  1  0  0  0  0
 25 24  2  0  0  0  0
 26 25  1  0  0  0  0
 27 28  2  0  0  0  0
 27 25  1  0  0  0  0
 28 30  1  0  0  0  0
 29 28  1  0  0  0  0
 30 31  1  0  0  0  0
 30 32  2  0  0  0  0
M  END
>  <minimizedAffinity>
-5.13126755

>  <minimizedRMSD>
0.962088466

$$$$
