
     RDKit          3D

 37 40  0  0  0  0  0  0  0  0999 V2000
   38.0312   23.4722   34.6182 C   0  0  0  0  0  0  0  0  0  0  0  0
   38.2663   24.5679   33.7946 C   0  0  0  0  0  0  0  0  0  0  0  0
   37.7638   24.1767   32.5916 N   0  0  0  0  0  0  0  0  0  0  0  0
   37.2794   22.9566   32.7124 C   0  0  0  0  0  0  0  0  0  0  0  0
   37.4272   22.4753   33.9721 N   0  0  0  0  0  0  0  0  0  0  0  0
   38.3965   23.3994   36.0352 C   0  0  0  0  0  0  0  0  0  0  0  0
   39.5945   22.8021   36.4262 C   0  0  0  0  0  0  0  0  0  0  0  0
   39.9047   22.7548   37.8012 C   0  0  0  0  0  0  0  0  0  0  0  0
   39.0112   23.2965   38.6521 N   0  0  0  0  0  0  0  0  0  0  0  0
   37.8551   23.8708   38.2496 C   0  0  0  0  0  0  0  0  0  0  0  0
   37.5308   23.9311   36.9392 N   0  0  0  0  0  0  0  0  0  0  0  0
   36.9906   21.1721   34.3901 C   0  0  1  0  0  0  0  0  0  0  0  0
   35.8490   20.9611   35.2604 C   0  0  0  0  0  0  0  0  0  0  0  0
   35.6746   20.7683   33.7609 C   0  0  2  0  0  0  0  0  0  0  0  0
   38.7473   25.4725   34.1408 H   0  0  0  0  0  0  0  0  0  0  0  0
   36.8412   22.5042   31.8322 H   0  0  0  0  0  0  0  0  0  0  0  0
   40.2305   22.4032   35.6632 H   0  0  0  0  0  0  0  0  0  0  0  0
   40.8278   22.2936   38.0924 H   0  0  0  0  0  0  0  0  0  0  0  0
   37.1636   24.2954   38.9701 H   0  0  0  0  0  0  0  0  0  0  0  0
   37.8160   20.4256   34.4155 H   0  0  0  0  0  0  0  0  0  0  0  0
   35.3381   21.8810   35.6474 H   0  0  0  0  0  0  0  0  0  0  0  0
   35.7588   20.1151   35.9437 H   0  0  0  0  0  0  0  0  0  0  0  0
   35.0600   21.4741   33.2050 H   0  0  0  0  0  0  0  0  0  0  0  0
   34.2079   14.4421   32.6361 H   0  0  0  0  0  0  0  0  0  0  0  0
   35.1926   15.0436   31.9238 S   0  0  0  0  0  0  0  0  0  0  0  0
   34.8087   15.0430   30.4610 O   0  0  0  0  0  0  0  0  0  0  0  0
   36.5038   14.3230   32.0762 O   0  0  0  0  0  0  0  0  0  0  0  0
   35.3183   16.7090   32.4660 C   0  0  0  0  0  0  0  0  0  0  0  0
   36.4500   17.4189   32.1193 C   0  0  0  0  0  0  0  0  0  0  0  0
   36.4949   18.7123   32.5687 C   0  0  0  0  0  0  0  0  0  0  0  0
   35.5237   19.3422   33.3198 C   0  0  0  0  0  0  0  0  0  0  0  0
   34.3947   18.5982   33.6525 C   0  0  0  0  0  0  0  0  0  0  0  0
   34.3231   17.2903   33.2122 C   0  0  0  0  0  0  0  0  0  0  0  0
   37.2779   17.0398   31.5369 H   0  0  0  0  0  0  0  0  0  0  0  0
   37.3622   19.3222   32.3272 H   0  0  0  0  0  0  0  0  0  0  0  0
   33.5987   19.0405   34.2409 H   0  0  0  0  0  0  0  0  0  0  0  0
   33.4294   16.7330   33.4871 H   0  0  0  0  0  0  0  0  0  0  0  0
  1  6  1  0
  2  1  2  0
  3  4  2  0
  3  2  1  0
  4  5  1  0
  5 12  1  0
  5  1  1  0
  6  7  2  0
  6 11  1  0
  7  8  1  0
  8  9  2  0
 10  9  1  0
 11 10  2  0
 12 13  1  0
 14 12  1  0
 14 13  1  0
  2 15  1  0
  4 16  1  0
  7 17  1  0
  8 18  1  0
 10 19  1  0
 12 20  1  1
 13 21  1  0
 13 22  1  0
 14 23  1  6
 24 25  1  0
 25 26  2  0
 25 27  2  0
 25 28  1  0
 28 29  2  0
 29 30  1  0
 30 31  2  0
 31 32  1  0
 32 33  2  0
 33 28  1  0
 29 34  1  0
 30 35  1  0
 32 36  1  0
 33 37  1  0
 14 31  1  0
M  ISO  8  15  14  16  14  17  14  18  14  19  14  20  13  21  13  22  13
M  ISO  2  23  13  24  12
M  END
>  <DihAtoms>  (1) 
11,13,30,29

>  <DihDeg>  (1) 
-152.91373497077112

$$$$
