
 OpenBabel03262519583D

 33 36  0  0  1  0  0  0  0  0999 V2000
   37.2570   21.5120   34.0750 C   0  0  1  0  0  0  0  0  0  0  0  0
   36.0390   21.0860   34.7380 C   0  0  0  0  0  0  0  0  0  0  0  0
   36.1040   21.0330   33.2190 C   0  0  2  0  0  0  0  0  0  0  0  0
   38.1570   20.8620   34.1610 H   0  0  0  0  0  0  0  0  0  0  0  0
   35.3680   21.8980   35.1210 H   0  0  0  0  0  0  0  0  0  0  0  0
   35.9590   20.1680   35.3240 H   0  0  0  0  0  0  0  0  0  0  0  0
   35.4910   21.7220   32.6390 H   0  0  0  0  0  0  0  0  0  0  0  0
   38.0950   23.8390   34.6290 C   0  0  0  0  0  0  0  0  0  0  0  0
   38.2400   25.0520   33.9660 C   0  0  0  0  0  0  0  0  0  0  0  0
   37.7810   24.7870   32.7120 N   0  0  0  0  0  0  0  0  0  0  0  0
   37.4020   23.5260   32.6580 C   0  0  0  0  0  0  0  0  0  0  0  0
   37.5830   22.8910   33.8440 N   0  0  0  0  0  0  0  0  0  0  0  0
   38.6390   25.9390   34.4390 H   0  0  0  0  0  0  0  0  0  0  0  0
   37.0100   23.1610   31.7180 H   0  0  0  0  0  0  0  0  0  0  0  0
   38.4570   23.6050   36.0300 C   0  0  0  0  0  0  0  0  0  0  0  0
   39.6710   23.0030   36.3550 C   0  0  0  0  0  0  0  0  0  0  0  0
   39.9780   22.7990   37.7170 C   0  0  0  0  0  0  0  0  0  0  0  0
   39.0630   23.2040   38.6200 N   0  0  0  0  0  0  0  0  0  0  0  0
   37.8900   23.7850   38.2810 C   0  0  0  0  0  0  0  0  0  0  0  0
   37.5700   23.9940   36.9850 N   0  0  0  0  0  0  0  0  0  0  0  0
   40.3230   22.7210   35.5540 H   0  0  0  0  0  0  0  0  0  0  0  0
   40.9140   22.3350   37.9570 H   0  0  0  0  0  0  0  0  0  0  0  0
   37.1830   24.0960   39.0420 H   0  0  0  0  0  0  0  0  0  0  0  0
   36.4360   17.1230   31.5240 C   0  0  0  0  0  0  0  0  0  0  0  0
   37.4300   18.0450   31.2640 C   0  0  0  0  0  3  0  0  0  0  0  0
   37.2560   19.2760   31.8400 C   0  0  0  0  0  3  0  0  0  0  0  0
   36.1960   19.6540   32.6370 C   0  0  0  0  0  0  0  0  0  0  0  0
   35.2110   18.7000   32.8790 C   0  0  0  0  0  3  0  0  0  0  0  0
   35.3610   17.4500   32.3110 C   0  0  0  0  0  3  0  0  0  0  0  0
   35.6920   14.7070   31.4190 H   0  0  0  0  0  0  0  0  0  0  0  0
   36.5940   15.5220   30.8180 S   0  0  0  0  0  0  0  0  0  0  0  0
   36.2640   15.6140   29.3450 O   0  0  0  0  0  0  0  0  0  0  0  0
   37.9960   14.9990   30.9640 O   0  0  0  0  0  0  0  0  0  0  0  0
  1  4  1  1  0  0  0
  1  2  1  0  0  0  0
  2  5  1  0  0  0  0
  2  6  1  0  0  0  0
  3  7  1  6  0  0  0
  3  1  1  0  0  0  0
  3  2  1  0  0  0  0
  8 15  1  0  0  0  0
  9 13  1  0  0  0  0
  9  8  2  0  0  0  0
 10  9  1  0  0  0  0
 11 10  2  0  0  0  0
 11 12  1  0  0  0  0
 12  1  1  0  0  0  0
 12  8  1  0  0  0  0
 14 11  1  0  0  0  0
 15 16  2  0  0  0  0
 15 20  1  0  0  0  0
 16 17  1  0  0  0  0
 17 22  1  0  0  0  0
 17 18  2  0  0  0  0
 19 18  1  0  0  0  0
 19 23  1  0  0  0  0
 20 19  2  0  0  0  0
 21 16  1  0  0  0  0
 24 29  1  0  0  0  0
 25 24  2  0  0  0  0
 25 26  1  0  0  0  0
 26 27  2  0  0  0  0
 27 28  1  0  0  0  0
 27  3  1  0  0  0  0
 29 28  2  0  0  0  0
 31 33  2  0  0  0  0
 31 30  1  0  0  0  0
 31 24  1  0  0  0  0
 32 31  2  0  0  0  0
M  END
>  <minimizedAffinity>
-5.11156654

>  <minimizedRMSD>
1.18837905

$$$$
