
 OpenBabel03262518033D

 27 29  0  0  0  0  0  0  0  0999 V2000
   43.6240   19.7180   37.0980 C   0  0  0  0  0  0  0  0  0  0  0  0
   42.4810   20.4830   37.3150 C   0  0  0  0  0  0  0  0  0  0  0  0
   41.9780   21.2150   36.2390 C   0  0  0  0  0  0  0  0  0  0  0  0
   42.6470   21.1260   35.0360 N   0  0  0  0  0  0  0  0  0  0  0  0
   43.7430   20.3760   34.8700 C   0  0  0  0  0  0  0  0  0  0  0  0
   44.2330   19.6630   35.9220 N   0  0  0  0  0  0  0  0  0  0  0  0
   43.9870   19.1590   37.9660 H   0  0  0  0  0  0  0  0  0  0  0  0
   41.9540   20.5560   38.2580 H   0  0  0  0  0  0  0  0  0  0  0  0
   45.7780   20.1340   31.1560 C   0  0  0  0  0  0  0  0  0  0  0  0
   44.5720   20.7650   31.2930 C   0  0  0  0  0  0  0  0  0  0  0  0
   43.8750   20.8720   32.4660 C   0  0  0  0  0  0  0  0  0  0  0  0
   44.4260   20.3050   33.5830 C   0  0  0  0  0  0  0  0  0  0  0  0
   45.6390   19.6550   33.5080 C   0  0  0  0  0  0  0  0  0  0  0  0
   46.3260   19.5650   32.2940 C   0  0  0  0  0  0  0  0  0  0  0  0
   47.5820   19.2700   29.6210 H   0  0  0  0  0  0  0  0  0  0  0  0
   46.5110   20.1050   29.5680 S   0  0  0  0  0  0  0  0  0  0  0  0
   46.9130   21.5170   29.2370 O   0  0  0  0  0  0  0  0  0  0  0  0
   45.4790   19.6620   28.5880 O   0  0  0  0  0  0  0  0  0  0  0  0
   40.7870   22.0440   36.3790 C   0  0  0  0  0  0  0  0  0  0  0  0
   39.9240   22.6290   35.4960 N   0  0  0  0  0  0  0  0  0  0  0  0
   39.0140   23.2710   36.1620 O   0  0  0  0  0  0  0  0  0  0  0  0
   39.2290   23.1420   37.4600 C   0  0  0  0  0  0  0  0  0  0  0  0
   40.3260   22.3830   37.5960 N   0  0  0  0  0  0  0  0  0  0  0  0
   38.4390   23.7090   38.5750 C   0  0  0  0  0  0  0  0  0  0  0  0
   39.2460   23.8710   39.6780 F   0  0  0  0  0  0  0  0  0  0  0  0
   37.3920   22.8680   38.9260 F   0  0  0  0  0  0  0  0  0  0  0  0
   37.9400   24.9460   38.2130 F   0  0  0  0  0  0  0  0  0  0  0  0
  1  2  1  0  0  0  0
  1  7  1  0  0  0  0
  2  8  1  0  0  0  0
  3 19  1  0  0  0  0
  3  2  2  0  0  0  0
  4  3  1  0  0  0  0
  5  4  2  0  0  0  0
  5  6  1  0  0  0  0
  6  1  2  0  0  0  0
  9 10  2  0  0  0  0
  9 14  1  0  0  0  0
 10 11  1  0  0  0  0
 11 12  2  0  0  0  0
 12  5  1  0  0  0  0
 13 12  1  0  0  0  0
 14 13  2  0  0  0  0
 16 15  1  0  0  0  0
 16  9  1  0  0  0  0
 17 16  2  0  0  0  0
 18 16  2  0  0  0  0
 19 23  1  0  0  0  0
 20 21  1  0  0  0  0
 20 19  2  0  0  0  0
 21 22  1  0  0  0  0
 22 23  2  0  0  0  0
 22 24  1  0  0  0  0
 24 26  1  0  0  0  0
 24 25  1  0  0  0  0
 27 24  1  0  0  0  0
M  END
>  <minimizedAffinity>
-3.90106702

>  <minimizedRMSD>
0.413569659

$$$$
