
 OpenBabel03262513573D

 34 37  0  0  0  0  0  0  0  0999 V2000
   37.2060   27.7850   33.0360 C   0  0  0  0  0  0  0  0  0  0  0  0
   35.9610   28.3380   32.9970 C   0  0  0  0  0  0  0  0  0  0  0  0
   35.4150   28.9290   31.8780 C   0  0  0  0  0  0  0  0  0  0  0  0
   36.1770   28.9510   30.7550 N   0  0  0  0  0  0  0  0  0  0  0  0
   37.4100   28.4050   30.7890 C   0  0  0  0  0  0  0  0  0  0  0  0
   37.9300   27.8280   31.8970 N   0  0  0  0  0  0  0  0  0  0  0  0
   35.3530   28.3210   33.8920 H   0  0  0  0  0  0  0  0  0  0  0  0
   34.4230   29.3600   31.8780 H   0  0  0  0  0  0  0  0  0  0  0  0
   38.6130   25.6780   35.5310 C   0  0  0  0  0  0  0  0  0  0  0  0
   38.3580   26.7960   36.3180 C   0  0  0  0  0  0  0  0  0  0  0  0
   37.7850   27.7520   35.4670 C   0  0  0  0  0  0  0  0  0  0  0  0
   37.7270   27.1770   34.2480 C   0  0  0  0  0  0  0  0  0  0  0  0
   38.2170   25.9630   34.3150 O   0  0  0  0  0  0  0  0  0  0  0  0
   38.5580   26.9170   37.3820 H   0  0  0  0  0  0  0  0  0  0  0  0
   37.4610   28.7560   35.7650 H   0  0  0  0  0  0  0  0  0  0  0  0
   38.7040   23.8210   37.2310 C   0  0  0  0  0  0  0  0  0  0  0  0
   39.2150   24.4630   36.0740 C   0  0  0  0  0  0  0  0  0  0  0  0
   40.3180   23.9150   35.4450 C   0  0  0  0  0  0  0  0  0  0  0  0
   40.8800   22.7690   35.9640 N   0  0  0  0  0  0  0  0  0  0  0  0
   40.3600   22.1860   37.0750 C   0  0  0  0  0  0  0  0  0  0  0  0
   39.2900   22.7100   37.6900 N   0  0  0  0  0  0  0  0  0  0  0  0
   37.8310   24.2630   37.7210 H   0  0  0  0  0  0  0  0  0  0  0  0
   40.7090   24.4050   34.5620 H   0  0  0  0  0  0  0  0  0  0  0  0
   40.8340   21.2930   37.4400 H   0  0  0  0  0  0  0  0  0  0  0  0
   39.7420   28.5160   27.2520 C   0  0  0  0  0  0  0  0  0  0  0  0
   39.8740   27.4520   28.1370 C   0  0  0  0  0  0  0  0  0  0  0  0
   39.1100   27.4260   29.2850 C   0  0  0  0  0  0  0  0  0  0  0  0
   38.2160   28.4380   29.5730 C   0  0  0  0  0  0  0  0  0  0  0  0
   38.0690   29.5120   28.7010 C   0  0  0  0  0  0  0  0  0  0  0  0
   38.8490   29.5070   27.5620 C   0  0  0  0  0  0  0  0  0  0  0  0
   42.0650   28.4210   26.1030 H   0  0  0  0  0  0  0  0  0  0  0  0
   40.7290   28.5030   25.8180 S   0  0  0  0  0  0  0  0  0  0  0  0
   40.3810   27.2410   25.0510 O   0  0  0  0  0  0  0  0  0  0  0  0
   40.4050   29.6740   24.9480 O   0  0  0  0  0  0  0  0  0  0  0  0
  1 12  1  0  0  0  0
  2  1  1  0  0  0  0
  2  7  1  0  0  0  0
  3  8  1  0  0  0  0
  3  2  2  0  0  0  0
  4  5  2  0  0  0  0
  4  3  1  0  0  0  0
  5  6  1  0  0  0  0
  6  1  2  0  0  0  0
  9 17  1  0  0  0  0
  9 10  2  0  0  0  0
 10 14  1  0  0  0  0
 11 15  1  0  0  0  0
 11 10  1  0  0  0  0
 12 13  1  0  0  0  0
 12 11  2  0  0  0  0
 13  9  1  0  0  0  0
 16 21  1  0  0  0  0
 16 22  1  0  0  0  0
 17 16  2  0  0  0  0
 18 19  2  0  0  0  0
 18 17  1  0  0  0  0
 19 20  1  0  0  0  0
 20 24  1  0  0  0  0
 20 21  2  0  0  0  0
 23 18  1  0  0  0  0
 25 30  2  0  0  0  0
 25 26  1  0  0  0  0
 26 27  2  0  0  0  0
 27 28  1  0  0  0  0
 28  5  1  0  0  0  0
 29 28  2  0  0  0  0
 30 29  1  0  0  0  0
 32 31  1  0  0  0  0
 32 25  1  0  0  0  0
 33 32  2  0  0  0  0
 34 32  2  0  0  0  0
M  END
>  <minimizedAffinity>
-5.26113176

>  <minimizedRMSD>
1.60703146

$$$$
