
 OpenBabel03262517363D

 37 40  0  0  0  0  0  0  0  0999 V2000
   38.1090   20.6830   30.8890 N   0  0  0  0  0  0  0  0  0  0  0  0
   38.7830   21.5880   29.9360 C   0  0  0  0  0  0  0  0  0  0  0  0
   39.5710   20.6460   29.0930 C   0  0  0  0  0  0  0  0  0  0  0  0
   38.6010   19.9540   28.3460 O   0  0  0  0  0  0  0  0  0  0  0  0
   37.9370   19.0170   29.1370 C   0  0  0  0  0  0  0  0  0  0  0  0
   37.6550   19.3600   30.5610 C   0  0  0  0  0  0  0  0  0  0  0  0
   39.3920   22.3090   30.4990 H   0  0  0  0  0  0  0  0  0  0  0  0
   38.0130   22.1110   29.3400 H   0  0  0  0  0  0  0  0  0  0  0  0
   40.1820   19.9840   29.7130 H   0  0  0  0  0  0  0  0  0  0  0  0
   40.2670   21.2260   28.4230 H   0  0  0  0  0  0  0  0  0  0  0  0
   37.5930   18.0350   28.8640 H   0  0  0  0  0  0  0  0  0  0  0  0
   38.2540   22.0090   34.7070 C   0  0  0  0  0  0  0  0  0  0  0  0
   37.0190   21.6680   34.3320 C   0  0  0  0  0  0  0  0  0  0  0  0
   36.6860   21.2160   33.1660 C   0  0  0  0  0  0  0  0  0  0  0  0
   37.8400   21.1110   32.2660 C   0  0  0  0  0  0  0  0  0  0  0  0
   39.3040   21.7010   33.2490 S   0  0  0  0  0  0  0  0  0  0  0  0
   36.1090   21.7290   34.9800 H   0  0  0  0  0  0  0  0  0  0  0  0
   35.8090   20.9290   32.6640 H   0  0  0  0  0  0  0  0  0  0  0  0
   39.9880   22.7370   37.7860 C   0  0  0  0  0  0  0  0  0  0  0  0
   39.0060   23.3050   38.5960 C   0  0  0  0  0  0  0  0  0  0  0  0
   37.7360   23.4550   38.1060 C   0  0  0  0  0  0  0  0  0  0  0  0
   37.5120   23.0310   36.8300 N   0  0  0  0  0  0  0  0  0  0  0  0
   38.4720   22.4810   36.0550 C   0  0  0  0  0  0  0  0  0  0  0  0
   39.7010   22.3390   36.5360 N   0  0  0  0  0  0  0  0  0  0  0  0
   40.9870   22.6390   38.2240 H   0  0  0  0  0  0  0  0  0  0  0  0
   39.1890   23.6370   39.5990 H   0  0  0  0  0  0  0  0  0  0  0  0
   36.8830   23.8780   38.6230 H   0  0  0  0  0  0  0  0  0  0  0  0
   36.0330   15.9390   32.4570 C   0  0  0  0  0  0  0  0  0  0  0  0
   35.2110   17.0420   32.4380 C   0  0  0  0  0  0  0  0  0  0  0  0
   35.7970   18.1320   31.8500 C   0  0  0  0  0  0  0  0  0  0  0  0
   37.0340   18.3020   31.2890 C   0  0  0  0  0  0  0  0  0  0  0  0
   37.7810   17.1180   31.3660 C   0  0  0  0  0  0  0  0  0  0  0  0
   37.3070   15.9570   31.9330 C   0  0  0  0  0  0  0  0  0  0  0  0
   34.9040   13.6150   32.2730 H   0  0  0  0  0  0  0  0  0  0  0  0
   35.3300   14.4990   33.2030 S   0  0  0  0  0  0  0  0  0  0  0  0
   34.1950   14.8890   34.0930 O   0  0  0  0  0  0  0  0  0  0  0  0
   36.4280   13.8630   34.0330 O   0  0  0  0  0  0  0  0  0  0  0  0
  1 15  1  0  0  0  0
  2  7  1  0  0  0  0
  2  1  1  0  0  0  0
  3  9  1  0  0  0  0
  3  2  1  0  0  0  0
  4  3  1  0  0  0  0
  4  5  1  0  0  0  0
  5  6  2  0  0  0  0
  6  1  1  0  0  0  0
  6 31  1  0  0  0  0
  8  2  1  0  0  0  0
 10  3  1  0  0  0  0
 11  5  1  0  0  0  0
 12 23  1  0  0  0  0
 13 12  2  0  0  0  0
 13 17  1  0  0  0  0
 14 13  1  0  0  0  0
 15 14  2  0  0  0  0
 15 16  1  0  0  0  0
 16 12  1  0  0  0  0
 18 14  1  0  0  0  0
 19 25  1  0  0  0  0
 19 20  1  0  0  0  0
 20 26  1  0  0  0  0
 21 20  2  0  0  0  0
 21 27  1  0  0  0  0
 22 21  1  0  0  0  0
 23 24  1  0  0  0  0
 23 22  2  0  0  0  0
 24 19  2  0  0  0  0
 28 35  1  0  0  0  0
 29 28  1  0  0  0  0
 30 29  2  0  0  0  0
 31 32  2  0  0  0  0
 31 30  1  0  0  0  0
 32 33  1  0  0  0  0
 33 28  2  0  0  0  0
 34 35  1  0  0  0  0
 35 37  2  0  0  0  0
 35 36  2  0  0  0  0
M  END
>  <minimizedAffinity>
-5.1016469

>  <minimizedRMSD>
1.35991156

$$$$
