REMARK  Name = 
REMARK  4 active torsions:
REMARK  status: ('A' for Active; 'I' for Inactive)
REMARK    1  A    between atoms: C_1  and  C_6
REMARK    2  A    between atoms: N_5  and  C_12
REMARK    3  A    between atoms: C_14  and  C_31
REMARK    4  A    between atoms: S_25  and  C_28
REMARK                            x       y       z     vdW  Elec       q    Type
REMARK                         _______ _______ _______ _____ _____    ______ ____
ROOT
ATOM      1  C   UNL     1      36.991  21.172  34.390  0.00  0.00    +0.000 C 
ATOM      2  C   UNL     1      35.849  20.961  35.260  0.00  0.00    +0.000 C 
ATOM      3  C   UNL     1      35.675  20.768  33.761  0.00  0.00    +0.000 C 
ATOM      4  H   UNL     1      37.816  20.426  34.416  0.00  0.00    +0.000 HD
ATOM      5  H   UNL     1      35.338  21.881  35.647  0.00  0.00    +0.000 HD
ATOM      6  H   UNL     1      35.759  20.115  35.944  0.00  0.00    +0.000 HD
ATOM      7  H   UNL     1      35.060  21.474  33.205  0.00  0.00    +0.000 HD
ENDROOT
BRANCH   1  12
ATOM      8  C   UNL     1      38.031  23.472  34.618  0.00  0.00    +0.000 A 
ATOM      9  C   UNL     1      38.266  24.568  33.795  0.00  0.00    +0.000 A 
ATOM     10  N   UNL     1      37.764  24.177  32.592  0.00  0.00    +0.000 NA
ATOM     11  C   UNL     1      37.279  22.957  32.712  0.00  0.00    +0.000 A 
ATOM     12  N   UNL     1      37.427  22.475  33.972  0.00  0.00    +0.000 N 
ATOM     13  H   UNL     1      38.747  25.473  34.141  0.00  0.00    +0.000 HD
ATOM     14  H   UNL     1      36.841  22.504  31.832  0.00  0.00    +0.000 HD
BRANCH   8  15
ATOM     15  C   UNL     1      38.397  23.399  36.035  0.00  0.00    +0.000 A 
ATOM     16  C   UNL     1      39.594  22.802  36.426  0.00  0.00    +0.000 A 
ATOM     17  C   UNL     1      39.905  22.755  37.801  0.00  0.00    +0.000 A 
ATOM     18  N   UNL     1      39.011  23.297  38.652  0.00  0.00    +0.000 NA
ATOM     19  C   UNL     1      37.855  23.871  38.250  0.00  0.00    +0.000 A 
ATOM     20  N   UNL     1      37.531  23.931  36.939  0.00  0.00    +0.000 NA
ATOM     21  H   UNL     1      40.230  22.403  35.663  0.00  0.00    +0.000 HD
ATOM     22  H   UNL     1      40.828  22.294  38.092  0.00  0.00    +0.000 HD
ATOM     23  H   UNL     1      37.164  24.295  38.970  0.00  0.00    +0.000 HD
ENDBRANCH   8  15
ENDBRANCH   1  12
BRANCH   3  27
ATOM     24  C   UNL     1      35.207  16.730  32.434  0.00  0.00    +0.000 A 
ATOM     25  C   UNL     1      34.738  17.751  31.632  0.00  0.00    +0.000 A 
ATOM     26  C   UNL     1      34.922  19.017  32.121  0.00  0.00    +0.000 A 
ATOM     27  C   UNL     1      35.524  19.342  33.320  0.00  0.00    +0.000 A 
ATOM     28  C   UNL     1      35.986  18.290  34.105  0.00  0.00    +0.000 A 
ATOM     29  C   UNL     1      35.813  17.002  33.636  0.00  0.00    +0.000 A 
BRANCH  24  31
ATOM     30  H   UNL     1      35.812  14.280  32.610  0.00  0.00    +0.000 HD
ATOM     31  S   UNL     1      35.005  15.080  31.871  0.00  0.00    +0.000 S 
ATOM     32  O   UNL     1      33.568  14.668  32.097  0.00  0.00    +0.000 OA
ATOM     33  O   UNL     1      35.311  14.967  30.402  0.00  0.00    +0.000 OA
ENDBRANCH  24  31
ENDBRANCH   3  27
TORSDOF 4
