
 OpenBabel03262513323D

 25 26  0  0  0  0  0  0  0  0999 V2000
   40.8780   22.2840   37.2820 C   0  0  0  0  0  0  0  0  0  0  0  0
   39.7650   22.8680   37.8980 C   0  0  0  0  0  0  0  0  0  0  0  0
   38.6190   23.1150   37.1620 C   0  0  0  0  0  0  0  0  0  0  0  0
   38.6140   22.7730   35.8420 N   0  0  0  0  0  0  0  0  0  0  0  0
   39.7100   22.2090   35.2730 C   0  0  0  0  0  0  0  0  0  0  0  0
   40.8120   21.9710   35.9760 N   0  0  0  0  0  0  0  0  0  0  0  0
   41.7950   22.0730   37.8140 H   0  0  0  0  0  0  0  0  0  0  0  0
   39.8810   23.0970   38.9480 H   0  0  0  0  0  0  0  0  0  0  0  0
   39.5990   21.2140   31.1750 C   0  0  0  0  0  0  0  0  0  0  0  0
   40.8260   21.5290   31.7330 C   0  0  0  0  0  0  0  0  0  0  0  0
   40.7900   21.8430   33.0770 C   0  0  0  0  0  0  0  0  0  0  0  0
   39.6550   21.8600   33.8500 C   0  0  0  0  0  0  0  0  0  0  0  0
   38.4370   21.5360   33.2530 C   0  0  0  0  0  0  0  0  0  0  0  0
   38.4220   21.2090   31.8950 C   0  0  0  0  0  0  0  0  0  0  0  0
   40.5760   20.0460   29.0820 H   0  0  0  0  0  0  0  0  0  0  0  0
   39.5050   20.7930   29.4760 S   0  0  0  0  0  0  0  0  0  0  0  0
   39.4700   22.0420   28.6130 O   0  0  0  0  0  0  0  0  0  0  0  0
   38.2020   20.0780   29.2450 O   0  0  0  0  0  0  0  0  0  0  0  0
   37.4510   23.7350   37.8400 C   0  0  0  0  0  0  0  0  0  0  0  0
   36.8810   24.3340   37.0820 H   0  0  0  0  0  0  0  0  0  0  0  0
   36.8040   23.0010   38.3350 H   0  0  0  0  0  0  0  0  0  0  0  0
   38.0080   24.7310   38.8410 C   0  0  0  0  0  0  0  0  0  0  0  0
   37.1770   25.4170   39.1670 H   0  0  0  0  0  0  0  0  0  0  0  0
   38.7070   25.4100   38.2950 H   0  0  0  0  0  0  0  0  0  0  0  0
   38.4450   24.2430   39.7110 H   0  0  0  0  0  0  0  0  0  0  0  0
  1  7  1  0  0  0  0
  1  2  1  0  0  0  0
  2  8  1  0  0  0  0
  3 19  1  0  0  0  0
  3  2  2  0  0  0  0
  4  3  1  0  0  0  0
  5  4  2  0  0  0  0
  5  6  1  0  0  0  0
  6  1  2  0  0  0  0
  9 10  2  0  0  0  0
  9 14  1  0  0  0  0
 10 11  1  0  0  0  0
 11 12  2  0  0  0  0
 12  5  1  0  0  0  0
 13 12  1  0  0  0  0
 14 13  2  0  0  0  0
 15 16  1  0  0  0  0
 16  9  1  0  0  0  0
 17 16  2  0  0  0  0
 18 16  2  0  0  0  0
 19 21  1  0  0  0  0
 19 22  1  0  0  0  0
 20 19  1  0  0  0  0
 22 23  1  0  0  0  0
 22 25  1  0  0  0  0
 24 22  1  0  0  0  0
M  END
>  <minimizedAffinity>
-3.39045501

>  <minimizedRMSD>
1.36608422

$$$$
