
 OpenBabel03262519583D

 33 36  0  0  1  0  0  0  0  0999 V2000
   37.2430   21.4760   34.0530 C   0  0  1  0  0  0  0  0  0  0  0  0
   35.9910   21.0560   34.6550 C   0  0  0  0  0  0  0  0  0  0  0  0
   36.1430   20.9730   33.1430 C   0  0  2  0  0  0  0  0  0  0  0  0
   38.1400   20.8340   34.2040 H   0  0  0  0  0  0  0  0  0  0  0  0
   35.2950   21.8720   34.9830 H   0  0  0  0  0  0  0  0  0  0  0  0
   35.8830   20.1500   35.2530 H   0  0  0  0  0  0  0  0  0  0  0  0
   35.5610   21.6460   32.5160 H   0  0  0  0  0  0  0  0  0  0  0  0
   38.0900   23.8030   34.5920 C   0  0  0  0  0  0  0  0  0  0  0  0
   38.2400   25.0110   33.9210 C   0  0  0  0  0  0  0  0  0  0  0  0
   37.7810   24.7400   32.6690 N   0  0  0  0  0  0  0  0  0  0  0  0
   37.3960   23.4800   32.6230 C   0  0  0  0  0  0  0  0  0  0  0  0
   37.5740   22.8530   33.8130 N   0  0  0  0  0  0  0  0  0  0  0  0
   38.6430   25.9000   34.3880 H   0  0  0  0  0  0  0  0  0  0  0  0
   37.0030   23.1100   31.6850 H   0  0  0  0  0  0  0  0  0  0  0  0
   38.4510   23.5780   35.9940 C   0  0  0  0  0  0  0  0  0  0  0  0
   39.6690   22.9870   36.3250 C   0  0  0  0  0  0  0  0  0  0  0  0
   39.9740   22.7900   37.6880 C   0  0  0  0  0  0  0  0  0  0  0  0
   39.0530   23.1910   38.5870 N   0  0  0  0  0  0  0  0  0  0  0  0
   37.8770   23.7610   38.2440 C   0  0  0  0  0  0  0  0  0  0  0  0
   37.5580   23.9630   36.9460 N   0  0  0  0  0  0  0  0  0  0  0  0
   40.3250   22.7080   35.5270 H   0  0  0  0  0  0  0  0  0  0  0  0
   40.9140   22.3360   37.9320 H   0  0  0  0  0  0  0  0  0  0  0  0
   37.1650   24.0690   39.0020 H   0  0  0  0  0  0  0  0  0  0  0  0
   36.4460   16.9910   31.6170 C   0  0  0  0  0  0  0  0  0  0  0  0
   35.3390   17.3310   32.3700 C   0  0  0  0  0  3  0  0  0  0  0  0
   35.3100   18.6230   32.8250 C   0  0  0  0  0  3  0  0  0  0  0  0
   36.2750   19.5830   32.5960 C   0  0  0  0  0  0  0  0  0  0  0  0
   37.3780   19.2080   31.8330 C   0  0  0  0  0  3  0  0  0  0  0  0
   37.4320   17.9100   31.3610 C   0  0  0  0  0  3  0  0  0  0  0  0
   37.5280   15.3150   30.0620 H   0  0  0  0  0  0  0  0  0  0  0  0
   36.5500   15.3500   31.0010 S   0  0  0  0  0  0  0  0  0  0  0  0
   36.9320   14.4330   32.1400 O   0  0  0  0  0  0  0  0  0  0  0  0
   35.2290   14.8950   30.4410 O   0  0  0  0  0  0  0  0  0  0  0  0
  1  4  1  1  0  0  0
  1  2  1  0  0  0  0
  2  5  1  0  0  0  0
  2  6  1  0  0  0  0
  3  7  1  6  0  0  0
  3  1  1  0  0  0  0
  3  2  1  0  0  0  0
  8 15  1  0  0  0  0
  9 13  1  0  0  0  0
  9  8  2  0  0  0  0
 10  9  1  0  0  0  0
 11 10  2  0  0  0  0
 11 12  1  0  0  0  0
 12  1  1  0  0  0  0
 12  8  1  0  0  0  0
 14 11  1  0  0  0  0
 15 16  2  0  0  0  0
 15 20  1  0  0  0  0
 16 17  1  0  0  0  0
 17 22  1  0  0  0  0
 17 18  2  0  0  0  0
 19 18  1  0  0  0  0
 19 23  1  0  0  0  0
 20 19  2  0  0  0  0
 21 16  1  0  0  0  0
 24 25  1  0  0  0  0
 25 26  2  0  0  0  0
 27 26  1  0  0  0  0
 27  3  1  0  0  0  0
 28 27  2  0  0  0  0
 29 24  2  0  0  0  0
 29 28  1  0  0  0  0
 30 31  1  0  0  0  0
 31 24  1  0  0  0  0
 31 32  2  0  0  0  0
 33 31  2  0  0  0  0
M  END
>  <minimizedAffinity>
-5.13007927

>  <minimizedRMSD>
1.06244957

$$$$
