
 OpenBabel03262518183D

 42 45  0  0  1  0  0  0  0  0999 V2000
   42.3270   21.3410   33.5470 C   0  0  1  0  0  0  0  0  0  0  0  0
   41.0100   21.4350   32.8260 C   0  0  0  0  0  0  0  0  0  0  0  0
   41.1310   21.6240   31.3480 C   0  0  0  0  0  0  0  0  0  0  0  0
   42.2760   22.5190   30.9900 C   0  0  0  0  0  0  0  0  0  0  0  0
   42.6860   23.3530   32.1540 C   0  0  0  0  0  0  0  0  0  0  0  0
   43.2710   22.4780   33.2110 C   0  0  1  0  0  0  0  0  0  0  0  0
   42.7600   20.3400   33.2790 H   0  0  0  0  0  0  0  0  0  0  0  0
   40.5050   20.4490   32.9800 H   0  0  0  0  0  0  0  0  0  0  0  0
   40.3200   22.1630   33.3170 H   0  0  0  0  0  0  0  0  0  0  0  0
   41.2850   20.6680   30.8210 H   0  0  0  0  0  0  0  0  0  0  0  0
   40.1490   22.0260   30.9840 H   0  0  0  0  0  0  0  0  0  0  0  0
   41.9030   23.2170   30.1990 H   0  0  0  0  0  0  0  0  0  0  0  0
   43.1360   21.9730   30.5460 H   0  0  0  0  0  0  0  0  0  0  0  0
   43.4050   24.1340   31.8590 H   0  0  0  0  0  0  0  0  0  0  0  0
   41.7450   23.8020   32.5860 H   0  0  0  0  0  0  0  0  0  0  0  0
   44.1560   21.9520   32.7350 H   0  0  0  0  0  0  0  0  0  0  0  0
   42.5930   20.7950   37.1410 C   0  0  0  0  0  0  0  0  0  0  0  0
   41.5140   21.5210   37.6570 C   0  0  0  0  0  0  0  0  0  0  0  0
   40.6830   22.2030   36.7760 C   0  0  0  0  0  0  0  0  0  0  0  0
   40.9950   22.1080   35.4520 N   0  0  0  0  0  0  0  0  0  0  0  0
   42.0200   21.4170   34.9860 C   0  0  0  0  0  0  0  0  0  0  0  0
   42.8130   20.7650   35.8220 N   0  0  0  0  0  0  0  0  0  0  0  0
   43.2090   20.2840   37.8710 H   0  0  0  0  0  0  0  0  0  0  0  0
   41.3310   21.5500   38.7070 H   0  0  0  0  0  0  0  0  0  0  0  0
   39.5630   22.9550   37.3210 C   0  0  0  0  0  0  0  0  0  0  0  0
   38.8240   23.8810   36.5880 C   0  0  0  0  0  0  0  0  0  0  0  0
   37.8800   24.3540   37.4540 N   0  0  0  0  0  0  0  0  0  0  0  0
   38.0700   23.7300   38.6210 C   0  0  0  0  0  0  0  0  0  0  0  0
   39.0670   22.8870   38.5790 N   0  0  0  0  0  0  0  0  0  0  0  0
   38.9380   24.1910   35.5520 H   0  0  0  0  0  0  0  0  0  0  0  0
   37.4660   23.9000   39.5130 H   0  0  0  0  0  0  0  0  0  0  0  0
   39.4620   22.2540   39.3220 H   0  0  0  0  0  0  0  0  0  0  0  0
   44.7630   24.7270   36.5700 C   0  0  0  0  0  0  0  0  0  0  0  0
   45.4070   23.5770   36.1740 C   0  0  0  0  0  0  0  0  0  0  0  0
   44.9490   22.8360   35.1050 C   0  0  0  0  0  0  0  0  0  0  0  0
   43.8180   23.1920   34.3610 C   0  0  0  0  0  0  0  0  0  0  0  0
   43.2320   24.3710   34.8360 C   0  0  0  0  0  0  0  0  0  0  0  0
   43.6450   25.1510   35.8970 C   0  0  0  0  0  0  0  0  0  0  0  0
   45.9580   26.8130   37.5770 H   0  0  0  0  0  0  0  0  0  0  0  0
   45.3380   25.6550   37.9100 S   0  0  0  0  0  0  0  0  0  0  0  0
   46.3820   24.8130   38.6300 O   0  0  0  0  0  0  0  0  0  0  0  0
   44.2340   25.8600   38.9300 O   0  0  0  0  0  0  0  0  0  0  0  0
  1  7  1  6  0  0  0
  1 21  1  0  0  0  0
  2  8  1  0  0  0  0
  2  9  1  0  0  0  0
  2  1  1  0  0  0  0
  3  2  1  0  0  0  0
  4  3  1  0  0  0  0
  4  5  1  0  0  0  0
  5 15  1  0  0  0  0
  5  6  1  0  0  0  0
  6 16  1  6  0  0  0
  6  1  1  0  0  0  0
  6 36  1  0  0  0  0
 10  3  1  0  0  0  0
 11  3  1  0  0  0  0
 12  4  1  0  0  0  0
 13  4  1  0  0  0  0
 14  5  1  0  0  0  0
 17 18  1  0  0  0  0
 17 23  1  0  0  0  0
 18 24  1  0  0  0  0
 19 25  1  0  0  0  0
 19 18  2  0  0  0  0
 20 19  1  0  0  0  0
 21 20  2  0  0  0  0
 21 22  1  0  0  0  0
 22 17  2  0  0  0  0
 25 29  1  0  0  0  0
 26 25  2  0  0  0  0
 26 27  1  0  0  0  0
 27 28  2  0  0  0  0
 28 31  1  0  0  0  0
 29 28  1  0  0  0  0
 29 32  1  0  0  0  0
 30 26  1  0  0  0  0
 33 40  1  0  0  0  0
 34 33  1  0  0  0  0
 35 34  2  0  0  0  0
 36 37  2  0  0  0  0
 36 35  1  0  0  0  0
 37 38  1  0  0  0  0
 38 33  2  0  0  0  0
 39 40  1  0  0  0  0
 40 41  2  0  0  0  0
 40 42  2  0  0  0  0
M  END
>  <minimizedAffinity>
-5.16133022

>  <minimizedRMSD>
1.41199327

$$$$
