
 OpenBabel03262519583D

 33 36  0  0  1  0  0  0  0  0999 V2000
   37.2330   21.4630   34.0550 C   0  0  1  0  0  0  0  0  0  0  0  0
   35.9710   21.0560   34.6450 C   0  0  0  0  0  0  0  0  0  0  0  0
   36.1410   20.9570   33.1360 C   0  0  2  0  0  0  0  0  0  0  0  0
   38.1240   20.8180   34.2230 H   0  0  0  0  0  0  0  0  0  0  0  0
   35.2760   21.8790   34.9550 H   0  0  0  0  0  0  0  0  0  0  0  0
   35.8500   20.1570   35.2520 H   0  0  0  0  0  0  0  0  0  0  0  0
   35.5700   21.6260   32.4950 H   0  0  0  0  0  0  0  0  0  0  0  0
   38.0940   23.7880   34.5770 C   0  0  0  0  0  0  0  0  0  0  0  0
   38.2560   24.9900   33.8960 C   0  0  0  0  0  0  0  0  0  0  0  0
   37.7990   24.7110   32.6450 N   0  0  0  0  0  0  0  0  0  0  0  0
   37.4050   23.4530   32.6080 C   0  0  0  0  0  0  0  0  0  0  0  0
   37.5740   22.8350   33.8040 N   0  0  0  0  0  0  0  0  0  0  0  0
   38.6630   25.8790   34.3570 H   0  0  0  0  0  0  0  0  0  0  0  0
   37.0130   23.0790   31.6710 H   0  0  0  0  0  0  0  0  0  0  0  0
   38.4480   23.5720   35.9820 C   0  0  0  0  0  0  0  0  0  0  0  0
   39.6600   22.9730   36.3220 C   0  0  0  0  0  0  0  0  0  0  0  0
   39.9580   22.7860   37.6880 C   0  0  0  0  0  0  0  0  0  0  0  0
   39.0390   23.2030   38.5810 N   0  0  0  0  0  0  0  0  0  0  0  0
   37.8690   23.7820   38.2280 C   0  0  0  0  0  0  0  0  0  0  0  0
   37.5560   23.9750   36.9270 N   0  0  0  0  0  0  0  0  0  0  0  0
   40.3160   22.6800   35.5290 H   0  0  0  0  0  0  0  0  0  0  0  0
   40.8930   22.3250   37.9390 H   0  0  0  0  0  0  0  0  0  0  0  0
   37.1570   24.1020   38.9810 H   0  0  0  0  0  0  0  0  0  0  0  0
   36.4400   16.9560   31.6570 C   0  0  0  0  0  0  0  0  0  0  0  0
   35.3230   17.3120   32.3870 C   0  0  0  0  0  3  0  0  0  0  0  0
   35.2970   18.6090   32.8290 C   0  0  0  0  0  3  0  0  0  0  0  0
   36.2720   19.5600   32.6050 C   0  0  0  0  0  0  0  0  0  0  0  0
   37.3840   19.1690   31.8650 C   0  0  0  0  0  3  0  0  0  0  0  0
   37.4380   17.8660   31.4070 C   0  0  0  0  0  3  0  0  0  0  0  0
   37.6120   15.2280   30.2290 H   0  0  0  0  0  0  0  0  0  0  0  0
   36.5410   15.3090   31.0580 S   0  0  0  0  0  0  0  0  0  0  0  0
   36.7630   14.3840   32.2350 O   0  0  0  0  0  0  0  0  0  0  0  0
   35.2720   14.9050   30.3620 O   0  0  0  0  0  0  0  0  0  0  0  0
  1  4  1  1  0  0  0
  1  2  1  0  0  0  0
  2  5  1  0  0  0  0
  2  6  1  0  0  0  0
  3  7  1  6  0  0  0
  3  1  1  0  0  0  0
  3  2  1  0  0  0  0
  8 15  1  0  0  0  0
  9 13  1  0  0  0  0
  9  8  2  0  0  0  0
 10  9  1  0  0  0  0
 11 10  2  0  0  0  0
 11 12  1  0  0  0  0
 12  1  1  0  0  0  0
 12  8  1  0  0  0  0
 14 11  1  0  0  0  0
 15 16  2  0  0  0  0
 15 20  1  0  0  0  0
 16 17  1  0  0  0  0
 17 22  1  0  0  0  0
 17 18  2  0  0  0  0
 19 18  1  0  0  0  0
 19 23  1  0  0  0  0
 20 19  2  0  0  0  0
 21 16  1  0  0  0  0
 24 25  1  0  0  0  0
 25 26  2  0  0  0  0
 27 26  1  0  0  0  0
 27  3  1  0  0  0  0
 28 27  2  0  0  0  0
 29 24  2  0  0  0  0
 29 28  1  0  0  0  0
 30 31  1  0  0  0  0
 31 24  1  0  0  0  0
 31 32  2  0  0  0  0
 33 31  2  0  0  0  0
M  END
>  <minimizedAffinity>
-5.13101816

>  <minimizedRMSD>
1.16257727

$$$$
