
 OpenBabel03262519413D

 42 45  0  0  1  0  0  0  0  0999 V2000
   37.6430   25.4450   34.5400 N   0  0  0  0  0  0  0  0  0  0  0  0
   37.1830   25.7040   33.1920 C   0  0  0  0  0  0  0  0  0  0  0  0
   37.2550   27.1820   33.0230 C   0  0  0  0  0  0  0  0  0  0  0  0
   37.8110   27.6850   34.3440 C   0  0  0  0  0  0  0  0  0  0  0  0
   38.6460   26.4380   34.7580 C   0  0  2  0  0  0  0  0  0  0  0  0
   36.1160   25.3880   33.1660 H   0  0  0  0  0  0  0  0  0  0  0  0
   37.7450   25.1310   32.4290 H   0  0  0  0  0  0  0  0  0  0  0  0
   36.2460   27.6390   32.8480 H   0  0  0  0  0  0  0  0  0  0  0  0
   37.9680   27.4760   32.2440 H   0  0  0  0  0  0  0  0  0  0  0  0
   38.4530   28.5620   34.2150 H   0  0  0  0  0  0  0  0  0  0  0  0
   37.0120   27.8070   35.1000 H   0  0  0  0  0  0  0  0  0  0  0  0
   38.8990   26.6160   35.8160 H   0  0  0  0  0  0  0  0  0  0  0  0
   38.2700   24.1600   34.6470 C   0  0  0  0  0  0  0  0  0  0  0  0
   37.5830   23.4250   34.1810 H   0  0  0  0  0  0  0  0  0  0  0  0
   39.2260   24.1810   34.1160 H   0  0  0  0  0  0  0  0  0  0  0  0
   37.9360   23.7040   38.3940 C   0  0  0  0  0  0  0  0  0  0  0  0
   37.6070   24.0620   37.0910 C   0  0  0  0  0  0  0  0  0  0  0  0
   38.5560   23.8040   36.0740 C   0  0  0  0  0  0  0  0  0  0  0  0
   39.7340   23.2170   36.4420 N   0  0  0  0  0  0  0  0  0  0  0  0
   39.9890   22.8950   37.7270 C   0  0  0  0  0  0  0  0  0  0  0  0
   39.0860   23.1430   38.6860 N   0  0  0  0  0  0  0  0  0  0  0  0
   37.2200   23.8960   39.1760 H   0  0  0  0  0  0  0  0  0  0  0  0
   36.6940   24.5180   36.7950 H   0  0  0  0  0  0  0  0  0  0  0  0
   40.9910   22.4410   37.7690 H   0  0  0  0  0  0  0  0  0  0  0  0
   39.7420   26.2780   33.9620 O   0  0  0  0  0  0  0  0  0  0  0  0
   40.9480   26.4810   34.5720 C   0  0  2  0  0  0  0  0  0  0  0  0
   41.9700   27.2090   33.7390 C   0  0  0  0  0  0  0  0  0  0  0  0
   42.1740   25.7610   34.1020 C   0  0  1  0  0  0  0  0  0  0  0  0
   40.9250   26.5180   35.6680 H   0  0  0  0  0  0  0  0  0  0  0  0
   41.7580   27.3680   32.6550 H   0  0  0  0  0  0  0  0  0  0  0  0
   42.5710   28.0090   34.2260 H   0  0  0  0  0  0  0  0  0  0  0  0
   42.0880   24.9800   33.3490 H   0  0  0  0  0  0  0  0  0  0  0  0
   45.4380   25.2000   36.8240 C   0  0  0  0  0  0  0  0  0  0  0  0
   44.2390   24.4910   36.9350 C   0  0  0  0  0  0  0  0  0  0  0  0
   43.1870   24.6700   36.0600 C   0  0  0  0  0  0  0  0  0  0  0  0
   43.3110   25.5760   35.0370 C   0  0  0  0  0  0  0  0  0  0  0  0
   44.5070   26.2770   34.9350 C   0  0  0  0  0  0  0  0  0  0  0  0
   45.5670   26.1120   35.7980 C   0  0  0  0  0  0  0  0  0  0  0  0
   47.1750   23.6060   37.9260 H   0  0  0  0  0  0  0  0  0  0  0  0
   46.7060   24.8950   37.9880 S   0  0  0  0  0  0  0  0  0  0  0  0
   46.2210   25.1180   39.3900 O   0  0  0  0  0  0  0  0  0  0  0  0
   47.8980   25.7870   37.7330 O   0  0  0  0  0  0  0  0  0  0  0  0
  1 13  1  0  0  0  0
  1  5  1  0  0  0  0
  2  1  1  0  0  0  0
  3  2  1  0  0  0  0
  3  4  1  0  0  0  0
  4  5  1  0  0  0  0
  4 11  1  0  0  0  0
  5 12  1  1  0  0  0
  6  2  1  0  0  0  0
  7  2  1  0  0  0  0
  8  3  1  0  0  0  0
  9  3  1  0  0  0  0
 10  4  1  0  0  0  0
 13 18  1  0  0  0  0
 14 13  1  0  0  0  0
 15 13  1  0  0  0  0
 16 21  1  0  0  0  0
 16 22  1  0  0  0  0
 17 16  2  0  0  0  0
 18 19  2  0  0  0  0
 18 17  1  0  0  0  0
 19 20  1  0  0  0  0
 20 24  1  0  0  0  0
 20 21  2  0  0  0  0
 23 17  1  0  0  0  0
 25 26  1  0  0  0  0
 25  5  1  0  0  0  0
 26 29  1  1  0  0  0
 27 28  1  0  0  0  0
 27 31  1  0  0  0  0
 27 26  1  0  0  0  0
 28 32  1  6  0  0  0
 28 26  1  0  0  0  0
 28 36  1  0  0  0  0
 30 27  1  0  0  0  0
 33 34  1  0  0  0  0
 33 40  1  0  0  0  0
 35 34  2  0  0  0  0
 36 35  1  0  0  0  0
 37 36  2  0  0  0  0
 37 38  1  0  0  0  0
 38 33  2  0  0  0  0
 39 40  1  0  0  0  0
 40 41  2  0  0  0  0
 42 40  2  0  0  0  0
M  END
>  <minimizedAffinity>
-5.47610807

>  <minimizedRMSD>
1.44346368

$$$$
