
 OpenBabel03262518283D

 29 31  0  0  0  0  0  0  0  0999 V2000
   39.6310   22.6500   38.2670 N   0  0  0  0  0  0  0  0  0  0  0  0
   38.5500   23.3850   38.0770 N   0  0  0  0  0  0  0  0  0  0  0  0
   38.6080   23.9670   36.8540 C   0  0  0  0  0  0  0  0  0  0  0  0
   39.7900   23.5800   36.2330 C   0  0  0  0  0  0  0  0  0  0  0  0
   40.3960   22.7520   37.1650 C   0  0  0  0  0  0  0  0  0  0  0  0
   39.9430   22.0610   39.0680 H   0  0  0  0  0  0  0  0  0  0  0  0
   40.0220   23.9400   35.2480 H   0  0  0  0  0  0  0  0  0  0  0  0
   44.1040   20.7630   36.4130 C   0  0  0  0  0  0  0  0  0  0  0  0
   43.9220   22.0740   35.9750 C   0  0  0  0  0  0  0  0  0  0  0  0
   42.7330   22.7470   36.2020 C   0  0  0  0  0  0  0  0  0  0  0  0
   41.6900   22.1330   36.8740 C   0  0  0  0  0  0  0  0  0  0  0  0
   41.8900   20.8280   37.3020 C   0  0  0  0  0  0  0  0  0  0  0  0
   43.0700   20.1440   37.0840 C   0  0  0  0  0  0  0  0  0  0  0  0
   45.6620   19.5680   34.7560 H   0  0  0  0  0  0  0  0  0  0  0  0
   45.6490   20.0060   36.0720 S   0  0  0  0  0  0  0  0  0  0  0  0
   45.8340   18.7750   36.9140 O   0  0  0  0  0  0  0  0  0  0  0  0
   46.7250   21.0300   36.3180 O   0  0  0  0  0  0  0  0  0  0  0  0
   37.5590   24.8100   36.4120 O   0  0  0  0  0  0  0  0  0  0  0  0
   37.8260   26.1020   35.9750 C   0  0  0  0  0  0  0  0  0  0  0  0
   38.4660   26.9090   36.6720 O   0  0  0  0  0  0  0  0  0  0  0  0
   37.3360   26.5180   34.6520 C   0  0  0  0  0  0  0  0  0  0  0  0
   37.4410   25.6200   33.5990 C   0  0  0  0  0  0  0  0  0  0  0  0
   36.9750   26.0170   32.3400 C   0  0  0  0  0  0  0  0  0  0  0  0
   36.4530   27.2520   32.2400 N   0  0  0  0  0  0  0  0  0  0  0  0
   36.3620   28.0950   33.2660 C   0  0  0  0  0  0  0  0  0  0  0  0
   36.8020   27.7430   34.4890 N   0  0  0  0  0  0  0  0  0  0  0  0
   37.8840   24.6470   33.8010 H   0  0  0  0  0  0  0  0  0  0  0  0
   37.0620   25.3100   31.5280 H   0  0  0  0  0  0  0  0  0  0  0  0
   35.9180   29.0720   33.0660 H   0  0  0  0  0  0  0  0  0  0  0  0
  1  6  1  0  0  0  0
  2  1  1  0  0  0  0
  3  2  2  0  0  0  0
  4  3  1  0  0  0  0
  4  5  2  0  0  0  0
  5  1  1  0  0  0  0
  7  4  1  0  0  0  0
  8 13  1  0  0  0  0
  9 10  1  0  0  0  0
  9  8  2  0  0  0  0
 10 11  2  0  0  0  0
 11  5  1  0  0  0  0
 11 12  1  0  0  0  0
 13 12  2  0  0  0  0
 14 15  1  0  0  0  0
 15 17  2  0  0  0  0
 15  8  1  0  0  0  0
 15 16  2  0  0  0  0
 18  3  1  0  0  0  0
 19 18  1  0  0  0  0
 19 20  2  0  0  0  0
 21 19  1  0  0  0  0
 22 27  1  0  0  0  0
 22 21  2  0  0  0  0
 23 22  1  0  0  0  0
 24 23  2  0  0  0  0
 24 25  1  0  0  0  0
 25 26  2  0  0  0  0
 26 21  1  0  0  0  0
 28 23  1  0  0  0  0
 29 25  1  0  0  0  0
M  END
>  <minimizedAffinity>
-5.33078861

>  <minimizedRMSD>
1.41255808

$$$$
