
 OpenBabel03262519553D

 30 33  0  0  1  0  0  0  0  0999 V2000
   38.1710   24.0720   34.7500 C   0  0  0  0  0  0  0  0  0  0  0  0
   38.2780   25.3240   34.1730 C   0  0  0  0  0  0  0  0  0  0  0  0
   37.8990   25.1120   32.8740 N   0  0  0  0  0  0  0  0  0  0  0  0
   37.6010   23.8200   32.7400 C   0  0  0  0  0  0  0  0  0  0  0  0
   37.7610   23.1420   33.8960 N   0  0  0  0  0  0  0  0  0  0  0  0
   38.5830   26.2550   34.6220 H   0  0  0  0  0  0  0  0  0  0  0  0
   37.2720   23.4050   31.7900 H   0  0  0  0  0  0  0  0  0  0  0  0
   38.4730   23.7800   36.1520 C   0  0  0  0  0  0  0  0  0  0  0  0
   39.6450   23.1420   36.5240 C   0  0  0  0  0  0  0  0  0  0  0  0
   39.9020   22.8770   37.8740 C   0  0  0  0  0  0  0  0  0  0  0  0
   38.9760   23.2660   38.7630 N   0  0  0  0  0  0  0  0  0  0  0  0
   37.8270   23.8930   38.4000 C   0  0  0  0  0  0  0  0  0  0  0  0
   37.5770   24.1470   37.1040 N   0  0  0  0  0  0  0  0  0  0  0  0
   40.3700   22.8410   35.7870 H   0  0  0  0  0  0  0  0  0  0  0  0
   40.8090   22.3810   38.1770 H   0  0  0  0  0  0  0  0  0  0  0  0
   37.0670   24.2140   39.1060 H   0  0  0  0  0  0  0  0  0  0  0  0
   37.5120   21.7430   34.0380 C   0  0  1  0  0  0  0  0  0  0  0  0
   36.3400   21.1960   34.6910 C   0  0  0  0  0  0  0  0  0  0  0  0
   36.3480   21.2490   33.1870 C   0  0  2  0  0  0  0  0  0  0  0  0
   38.4310   21.1190   34.0120 H   0  0  0  0  0  0  0  0  0  0  0  0
   36.3500   20.2480   35.2420 H   0  0  0  0  0  0  0  0  0  0  0  0
   35.6400   21.9310   35.1840 H   0  0  0  0  0  0  0  0  0  0  0  0
   35.6880   22.0100   32.7000 H   0  0  0  0  0  0  0  0  0  0  0  0
   36.4480   20.0120   32.4950 N   0  0  0  0  0  0  0  0  0  0  0  0
   36.5140   20.3040   31.0750 C   0  0  0  0  0  2  0  0  0  0  0  0
   36.3210   19.0910   30.2050 C   0  0  0  0  0  2  0  0  0  0  0  0
   36.4070   17.8410   30.9300 N   0  0  0  0  0  0  0  0  0  0  0  0
   36.1140   17.0930   30.2610 H   0  0  0  0  0  0  0  0  0  0  0  0
   35.5700   17.7890   32.0820 C   0  0  0  0  0  2  0  0  0  0  0  0
   35.3360   19.1210   32.7360 C   0  0  0  0  0  2  0  0  0  0  0  0
  1  8  1  0  0  0  0
  2  6  1  0  0  0  0
  2  1  2  0  0  0  0
  3  2  1  0  0  0  0
  4  3  2  0  0  0  0
  4  5  1  0  0  0  0
  5 17  1  0  0  0  0
  5  1  1  0  0  0  0
  7  4  1  0  0  0  0
  8  9  2  0  0  0  0
  8 13  1  0  0  0  0
  9 10  1  0  0  0  0
 10 15  1  0  0  0  0
 10 11  2  0  0  0  0
 12 11  1  0  0  0  0
 12 16  1  0  0  0  0
 13 12  2  0  0  0  0
 14  9  1  0  0  0  0
 17 20  1  1  0  0  0
 17 18  1  0  0  0  0
 18 22  1  0  0  0  0
 18 21  1  0  0  0  0
 19 23  1  6  0  0  0
 19 17  1  0  0  0  0
 19 18  1  0  0  0  0
 24 30  1  0  0  0  0
 24 19  1  0  0  0  0
 25 24  1  0  0  0  0
 26 27  1  0  0  0  0
 26 25  1  0  0  0  0
 27 29  1  0  0  0  0
 28 27  1  0  0  0  0
 29 30  1  0  0  0  0
M  END
>  <minimizedAffinity>
-4.86037016

>  <minimizedRMSD>
1.02345526

$$$$
