
 OpenBabel03262516113D

 33 36  0  0  0  0  0  0  0  0999 V2000
   44.3870   24.0500   35.9850 C   0  0  0  0  0  0  0  0  0  0  0  0
   43.8570   24.8010   35.3640 H   0  0  0  0  0  0  0  0  0  0  0  0
   45.1350   23.5260   35.4120 H   0  0  0  0  0  0  0  0  0  0  0  0
   41.1000   22.4720   37.0050 C   0  0  0  0  0  0  0  0  0  0  0  0
   42.0380   23.4330   36.6420 C   0  0  0  0  0  0  0  0  0  0  0  0
   43.3540   23.0350   36.3780 C   0  0  0  0  0  0  0  0  0  0  0  0
   43.6520   21.6830   36.4950 N   0  0  0  0  0  0  0  0  0  0  0  0
   42.7140   20.7760   36.8500 C   0  0  0  0  0  0  0  0  0  0  0  0
   41.4560   21.2010   37.0970 N   0  0  0  0  0  0  0  0  0  0  0  0
   41.8520   24.4870   36.5400 H   0  0  0  0  0  0  0  0  0  0  0  0
   43.0530   19.7690   36.9090 H   0  0  0  0  0  0  0  0  0  0  0  0
   39.7370   22.9200   37.2780 C   0  0  0  0  0  0  0  0  0  0  0  0
   38.7630   23.1210   36.3060 C   0  0  0  0  0  0  0  0  0  0  0  0
   37.6670   23.5300   37.0260 C   0  0  0  0  0  0  0  0  0  0  0  0
   37.9920   23.5660   38.3670 C   0  0  0  0  0  0  0  0  0  0  0  0
   39.2590   23.1870   38.4690 O   0  0  0  0  0  0  0  0  0  0  0  0
   38.8490   22.9860   35.2330 H   0  0  0  0  0  0  0  0  0  0  0  0
   36.7200   23.7740   36.5570 H   0  0  0  0  0  0  0  0  0  0  0  0
   37.2810   23.8600   39.1230 H   0  0  0  0  0  0  0  0  0  0  0  0
   44.9410   24.7190   37.1370 N   0  0  0  0  0  0  0  0  0  0  0  0
   44.4130   25.5860   37.9930 N   0  0  0  0  0  0  0  0  0  0  0  0
   45.2580   25.9610   38.9310 C   0  0  0  0  0  0  0  0  0  0  0  0
   46.4510   25.3060   38.7040 C   0  0  0  0  0  0  0  0  0  0  0  0
   46.2040   24.5350   37.5620 C   0  0  0  0  0  0  0  0  0  0  0  0
   44.9890   26.6650   39.7110 H   0  0  0  0  0  0  0  0  0  0  0  0
   47.3100   25.4470   39.3440 H   0  0  0  0  0  0  0  0  0  0  0  0
   47.3060   23.7570   37.0690 N   0  0  0  0  0  0  0  0  0  0  0  0
   48.6870   24.2110   37.1150 C   0  0  0  0  0  0  0  0  0  0  0  0
   49.5950   23.1440   37.7040 C   0  0  0  0  0  0  0  0  0  0  0  0
   49.3360   21.8430   37.1620 N   0  0  0  0  0  0  0  0  0  0  0  0
   49.2020   21.0880   37.8450 H   0  0  0  0  0  0  0  0  0  0  0  0
   48.3930   21.8630   36.0720 C   0  0  0  0  0  0  0  0  0  0  0  0
   47.0730   22.4340   36.4690 C   0  0  0  0  0  0  0  0  0  0  0  0
  1  6  1  0  0  0  0
  1 20  1  0  0  0  0
  2  1  1  0  0  0  0
  3  1  1  0  0  0  0
  4  9  1  0  0  0  0
  4 12  1  0  0  0  0
  5  4  2  0  0  0  0
  6  7  2  0  0  0  0
  6  5  1  0  0  0  0
  7  8  1  0  0  0  0
  8 11  1  0  0  0  0
  8  9  2  0  0  0  0
 10  5  1  0  0  0  0
 12 16  1  0  0  0  0
 13 14  1  0  0  0  0
 13 12  2  0  0  0  0
 14 15  2  0  0  0  0
 15 16  1  0  0  0  0
 15 19  1  0  0  0  0
 17 13  1  0  0  0  0
 18 14  1  0  0  0  0
 20 24  1  0  0  0  0
 20 21  1  0  0  0  0
 21 22  2  0  0  0  0
 22 25  1  0  0  0  0
 23 22  1  0  0  0  0
 23 26  1  0  0  0  0
 24 23  2  0  0  0  0
 27 28  1  0  0  0  0
 27 24  1  0  0  0  0
 28 29  1  0  0  0  0
 30 29  1  0  0  0  0
 30 31  1  0  0  0  0
 32 33  1  0  0  0  0
 32 30  1  0  0  0  0
 33 27  1  0  0  0  0
M  END
>  <minimizedAffinity>
-5.01061392

>  <minimizedRMSD>
0.541060865

$$$$
