
 OpenBabel03262519543D

 30 33  0  0  1  0  0  0  0  0999 V2000
   38.2250   24.1680   34.7560 C   0  0  0  0  0  0  0  0  0  0  0  0
   38.3180   25.4320   34.2040 C   0  0  0  0  0  0  0  0  0  0  0  0
   37.9680   25.2360   32.8940 N   0  0  0  0  0  0  0  0  0  0  0  0
   37.6990   23.9410   32.7320 C   0  0  0  0  0  0  0  0  0  0  0  0
   37.8500   23.2450   33.8790 N   0  0  0  0  0  0  0  0  0  0  0  0
   38.5950   26.3610   34.6740 H   0  0  0  0  0  0  0  0  0  0  0  0
   37.3950   23.5360   31.7680 H   0  0  0  0  0  0  0  0  0  0  0  0
   38.5060   23.8570   36.1590 C   0  0  0  0  0  0  0  0  0  0  0  0
   39.6530   23.1780   36.5350 C   0  0  0  0  0  0  0  0  0  0  0  0
   39.8910   22.8970   37.8850 C   0  0  0  0  0  0  0  0  0  0  0  0
   38.9720   23.3100   38.7700 N   0  0  0  0  0  0  0  0  0  0  0  0
   37.8470   23.9770   38.4020 C   0  0  0  0  0  0  0  0  0  0  0  0
   37.6160   24.2470   37.1060 N   0  0  0  0  0  0  0  0  0  0  0  0
   40.3750   22.8580   35.8010 H   0  0  0  0  0  0  0  0  0  0  0  0
   40.7790   22.3680   38.1920 H   0  0  0  0  0  0  0  0  0  0  0  0
   37.0930   24.3180   39.1050 H   0  0  0  0  0  0  0  0  0  0  0  0
   37.6270   21.8390   33.9910 C   0  0  1  0  0  0  0  0  0  0  0  0
   36.4970   21.2570   34.6870 C   0  0  0  0  0  0  0  0  0  0  0  0
   36.4260   21.3540   33.1860 C   0  0  2  0  0  0  0  0  0  0  0  0
   38.5500   21.2300   33.8990 H   0  0  0  0  0  0  0  0  0  0  0  0
   36.5470   20.2930   35.2080 H   0  0  0  0  0  0  0  0  0  0  0  0
   35.8140   21.9680   35.2370 H   0  0  0  0  0  0  0  0  0  0  0  0
   35.7330   22.1190   32.7580 H   0  0  0  0  0  0  0  0  0  0  0  0
   36.5060   20.1390   32.4540 N   0  0  0  0  0  0  0  0  0  0  0  0
   36.5060   20.4740   31.0420 C   0  0  0  0  0  2  0  0  0  0  0  0
   36.2850   19.2850   30.1450 C   0  0  0  0  0  2  0  0  0  0  0  0
   36.4130   18.0160   30.8280 N   0  0  0  0  0  0  0  0  0  0  0  0
   36.0960   17.2850   30.1510 H   0  0  0  0  0  0  0  0  0  0  0  0
   35.6290   17.9210   32.0140 C   0  0  0  0  0  2  0  0  0  0  0  0
   35.4130   19.2310   32.7170 C   0  0  0  0  0  2  0  0  0  0  0  0
  1  8  1  0  0  0  0
  2  6  1  0  0  0  0
  2  1  2  0  0  0  0
  3  2  1  0  0  0  0
  4  3  2  0  0  0  0
  4  5  1  0  0  0  0
  5 17  1  0  0  0  0
  5  1  1  0  0  0  0
  7  4  1  0  0  0  0
  8  9  2  0  0  0  0
  8 13  1  0  0  0  0
  9 10  1  0  0  0  0
 10 15  1  0  0  0  0
 10 11  2  0  0  0  0
 12 11  1  0  0  0  0
 12 16  1  0  0  0  0
 13 12  2  0  0  0  0
 14  9  1  0  0  0  0
 17 20  1  6  0  0  0
 17 18  1  0  0  0  0
 18 21  1  0  0  0  0
 18 22  1  0  0  0  0
 19 23  1  6  0  0  0
 19 17  1  0  0  0  0
 19 18  1  0  0  0  0
 24 30  1  0  0  0  0
 24 19  1  0  0  0  0
 25 24  1  0  0  0  0
 26 27  1  0  0  0  0
 26 25  1  0  0  0  0
 27 29  1  0  0  0  0
 28 27  1  0  0  0  0
 29 30  1  0  0  0  0
M  END
>  <minimizedAffinity>
-4.86860418

>  <minimizedRMSD>
1.16454256

$$$$
