
 OpenBabel03262519273D

 31 34  0  0  0  0  0  0  0  0999 V2000
   40.7500   22.0590   37.4700 O   0  0  0  0  0  0  0  0  0  0  0  0
   42.0120   22.0920   36.9560 C   0  0  0  0  0  0  0  0  0  0  0  0
   42.6620   23.2090   36.4820 C   0  0  0  0  0  0  0  0  0  0  0  0
   43.9030   22.9090   36.0410 N   0  0  0  0  0  0  0  0  0  0  0  0
   44.1090   21.5830   36.2120 C   0  0  0  0  0  0  0  0  0  0  0  0
   45.1780   20.7520   35.9400 C   0  0  0  0  0  0  0  0  0  0  0  0
   45.0880   19.3930   36.2350 C   0  0  0  0  0  0  0  0  0  0  0  0
   43.9240   18.8800   36.8000 C   0  0  0  0  0  0  0  0  0  0  0  0
   42.8540   19.7290   37.0690 C   0  0  0  0  0  0  0  0  0  0  0  0
   42.9470   21.0780   36.7750 C   0  0  0  0  0  0  0  0  0  0  0  0
   42.2490   24.2160   36.4570 H   0  0  0  0  0  0  0  0  0  0  0  0
   44.5730   23.5970   35.6400 H   0  0  0  0  0  0  0  0  0  0  0  0
   46.0450   21.2240   35.5010 H   0  0  0  0  0  0  0  0  0  0  0  0
   45.9340   18.7660   36.0150 H   0  0  0  0  0  0  0  0  0  0  0  0
   43.8740   17.8230   37.0230 H   0  0  0  0  0  0  0  0  0  0  0  0
   41.9440   19.3380   37.5090 H   0  0  0  0  0  0  0  0  0  0  0  0
   39.7460   22.9460   37.2330 C   0  0  0  0  0  0  0  0  0  0  0  0
   38.8880   23.2210   38.3220 C   0  0  0  0  0  0  0  0  0  0  0  0
   37.8420   24.1400   38.0870 C   0  0  0  0  0  0  0  0  0  0  0  0
   37.7230   24.6960   36.8570 N   0  0  0  0  0  0  0  0  0  0  0  0
   38.5770   24.3900   35.8600 C   0  0  0  0  0  0  0  0  0  0  0  0
   39.5700   23.5390   36.0220 N   0  0  0  0  0  0  0  0  0  0  0  0
   39.0020   22.7710   39.2810 H   0  0  0  0  0  0  0  0  0  0  0  0
   37.1750   24.3660   38.9020 H   0  0  0  0  0  0  0  0  0  0  0  0
   38.3270   25.0510   34.6230 N   0  0  0  0  0  0  0  0  0  0  0  0
   37.4450   26.2040   34.5670 C   0  0  0  0  0  0  0  0  0  0  0  0
   37.0010   26.3550   33.1110 C   0  0  0  0  0  0  0  0  0  0  0  0
   36.6960   25.0920   32.5100 N   0  0  0  0  0  0  0  0  0  0  0  0
   36.4310   25.2850   31.5230 H   0  0  0  0  0  0  0  0  0  0  0  0
   37.7500   24.1250   32.5220 C   0  0  0  0  0  0  0  0  0  0  0  0
   38.9010   24.6610   33.3450 C   0  0  0  0  0  0  0  0  0  0  0  0
  2  1  1  0  0  0  0
  3  2  2  0  0  0  0
  4  5  1  0  0  0  0
  4  3  1  0  0  0  0
  5 10  1  0  0  0  0
  6  5  2  0  0  0  0
  6  7  1  0  0  0  0
  7  8  2  0  0  0  0
  8 15  1  0  0  0  0
  8  9  1  0  0  0  0
  9 16  1  0  0  0  0
 10  2  1  0  0  0  0
 10  9  2  0  0  0  0
 11  3  1  0  0  0  0
 12  4  1  0  0  0  0
 13  6  1  0  0  0  0
 14  7  1  0  0  0  0
 17  1  1  0  0  0  0
 17 18  1  0  0  0  0
 18 23  1  0  0  0  0
 19 18  2  0  0  0  0
 19 24  1  0  0  0  0
 20 19  1  0  0  0  0
 21 22  1  0  0  0  0
 21 20  2  0  0  0  0
 22 17  2  0  0  0  0
 25 21  1  0  0  0  0
 26 25  1  0  0  0  0
 27 26  1  0  0  0  0
 28 30  1  0  0  0  0
 28 27  1  0  0  0  0
 29 28  1  0  0  0  0
 30 31  1  0  0  0  0
 31 25  1  0  0  0  0
M  END
>  <minimizedAffinity>
-5.34869385

>  <minimizedRMSD>
1.30823898

$$$$
