
 OpenBabel03262519543D

 30 33  0  0  1  0  0  0  0  0999 V2000
   38.2250   24.1680   34.7560 C   0  0  0  0  0  0  0  0  0  0  0  0
   38.3180   25.4330   34.2040 C   0  0  0  0  0  0  0  0  0  0  0  0
   37.9680   25.2360   32.8940 N   0  0  0  0  0  0  0  0  0  0  0  0
   37.6990   23.9410   32.7320 C   0  0  0  0  0  0  0  0  0  0  0  0
   37.8510   23.2460   33.8790 N   0  0  0  0  0  0  0  0  0  0  0  0
   38.5950   26.3610   34.6740 H   0  0  0  0  0  0  0  0  0  0  0  0
   37.3960   23.5370   31.7680 H   0  0  0  0  0  0  0  0  0  0  0  0
   38.5060   23.8570   36.1590 C   0  0  0  0  0  0  0  0  0  0  0  0
   39.6540   23.1790   36.5350 C   0  0  0  0  0  0  0  0  0  0  0  0
   39.8910   22.8970   37.8860 C   0  0  0  0  0  0  0  0  0  0  0  0
   38.9720   23.3100   38.7700 N   0  0  0  0  0  0  0  0  0  0  0  0
   37.8470   23.9760   38.4020 C   0  0  0  0  0  0  0  0  0  0  0  0
   37.6160   24.2470   37.1060 N   0  0  0  0  0  0  0  0  0  0  0  0
   40.3750   22.8590   35.8020 H   0  0  0  0  0  0  0  0  0  0  0  0
   40.7800   22.3690   38.1920 H   0  0  0  0  0  0  0  0  0  0  0  0
   37.0920   24.3170   39.1050 H   0  0  0  0  0  0  0  0  0  0  0  0
   37.6270   21.8400   33.9910 C   0  0  1  0  0  0  0  0  0  0  0  0
   36.4970   21.2580   34.6870 C   0  0  0  0  0  0  0  0  0  0  0  0
   36.4260   21.3550   33.1860 C   0  0  2  0  0  0  0  0  0  0  0  0
   38.5510   21.2300   33.8990 H   0  0  0  0  0  0  0  0  0  0  0  0
   36.5480   20.2930   35.2080 H   0  0  0  0  0  0  0  0  0  0  0  0
   35.8140   21.9680   35.2380 H   0  0  0  0  0  0  0  0  0  0  0  0
   35.7330   22.1200   32.7580 H   0  0  0  0  0  0  0  0  0  0  0  0
   36.5060   20.1400   32.4530 N   0  0  0  0  0  0  0  0  0  0  0  0
   36.5060   20.4740   31.0410 C   0  0  0  0  0  0  0  0  0  0  0  0
   36.2850   19.2860   30.1450 C   0  0  0  0  0  0  0  0  0  0  0  0
   36.4130   18.0160   30.8280 N   0  0  0  0  0  0  0  0  0  0  0  0
   36.0960   17.2850   30.1510 H   0  0  0  0  0  0  0  0  0  0  0  0
   35.6280   17.9210   32.0150 C   0  0  0  0  0  0  0  0  0  0  0  0
   35.4130   19.2310   32.7170 C   0  0  0  0  0  0  0  0  0  0  0  0
  1  8  1  0  0  0  0
  2  6  1  0  0  0  0
  2  1  2  0  0  0  0
  3  2  1  0  0  0  0
  4  3  2  0  0  0  0
  4  5  1  0  0  0  0
  5 17  1  0  0  0  0
  5  1  1  0  0  0  0
  7  4  1  0  0  0  0
  8  9  2  0  0  0  0
  8 13  1  0  0  0  0
  9 10  1  0  0  0  0
 10 15  1  0  0  0  0
 10 11  2  0  0  0  0
 12 11  1  0  0  0  0
 12 16  1  0  0  0  0
 13 12  2  0  0  0  0
 14  9  1  0  0  0  0
 17 20  1  6  0  0  0
 17 18  1  0  0  0  0
 18 21  1  0  0  0  0
 18 22  1  0  0  0  0
 19 23  1  6  0  0  0
 19 17  1  0  0  0  0
 19 18  1  0  0  0  0
 24 30  1  0  0  0  0
 24 19  1  0  0  0  0
 25 24  1  0  0  0  0
 26 27  1  0  0  0  0
 26 25  1  0  0  0  0
 27 29  1  0  0  0  0
 28 27  1  0  0  0  0
 29 30  1  0  0  0  0
M  END
>  <minimizedAffinity>
-4.86873341

>  <minimizedRMSD>
1.28455532

$$$$
