REMARK  Name = 
REMARK  3 active torsions:
REMARK  status: ('A' for Active; 'I' for Inactive)
REMARK    1  A    between atoms: C_1  and  C_6
REMARK    2  A    between atoms: N_5  and  C_12
REMARK    3  A    between atoms: C_14  and  N_24
REMARK                            x       y       z     vdW  Elec       q    Type
REMARK                         _______ _______ _______ _____ _____    ______ ____
ROOT
ATOM      1  C   UNL     1      38.031  23.473  34.608  0.00  0.00    +0.000 A 
ATOM      2  C   UNL     1      38.270  24.567  33.797  0.00  0.00    +0.000 A 
ATOM      3  N   UNL     1      37.765  24.182  32.583  0.00  0.00    +0.000 NA
ATOM      4  C   UNL     1      37.277  22.949  32.715  0.00  0.00    +0.000 A 
ATOM      5  N   UNL     1      37.428  22.477  33.971  0.00  0.00    +0.000 N 
ATOM      6  H   UNL     1      38.738  25.506  34.042  0.00  0.00    +0.000 HD
ATOM      7  H   UNL     1      36.819  22.423  31.880  0.00  0.00    +0.000 HD
ENDROOT
BRANCH   1   8
ATOM      8  C   UNL     1      38.396  23.399  36.024  0.00  0.00    +0.000 A 
ATOM      9  C   UNL     1      39.580  22.812  36.438  0.00  0.00    +0.000 A 
ATOM     10  C   UNL     1      39.898  22.758  37.800  0.00  0.00    +0.000 A 
ATOM     11  N   UNL     1      39.017  23.293  38.658  0.00  0.00    +0.000 NA
ATOM     12  C   UNL     1      37.856  23.870  38.253  0.00  0.00    +0.000 A 
ATOM     13  N   UNL     1      37.548  23.922  36.946  0.00  0.00    +0.000 NA
ATOM     14  H   UNL     1      40.269  22.390  35.725  0.00  0.00    +0.000 HD
ATOM     15  H   UNL     1      40.816  22.303  38.136  0.00  0.00    +0.000 HD
ATOM     16  H   UNL     1      37.132  24.307  38.934  0.00  0.00    +0.000 HD
ENDBRANCH   1   8
BRANCH   5  17
ATOM     17  C   UNL     1      36.994  21.183  34.391  0.00  0.00    +0.000 C 
ATOM     18  C   UNL     1      35.849  20.958  35.250  0.00  0.00    +0.000 C 
ATOM     19  C   UNL     1      35.668  20.761  33.769  0.00  0.00    +0.000 C 
ATOM     20  H   UNL     1      37.798  20.417  34.386  0.00  0.00    +0.000 HD
ATOM     21  H   UNL     1      35.790  20.125  35.962  0.00  0.00    +0.000 HD
ATOM     22  H   UNL     1      35.337  21.872  35.670  0.00  0.00    +0.000 HD
ATOM     23  H   UNL     1      35.071  21.532  33.222  0.00  0.00    +0.000 HD
BRANCH  19  24
ATOM     24  N   UNL     1      35.491  19.428  33.309  0.00  0.00    +0.000 NA
ATOM     25  C   UNL     1      36.323  18.564  34.125  0.00  0.00    +0.000 C 
ATOM     26  C   UNL     1      36.469  17.174  33.567  0.00  0.00    +0.000 C 
ATOM     27  N   UNL     1      35.531  16.875  32.506  0.00  0.00    +0.000 NA
ATOM     28  H   UNL     1      35.824  15.955  32.105  0.00  0.00    +0.000 HD
ATOM     29  C   UNL     1      35.512  17.851  31.466  0.00  0.00    +0.000 C 
ATOM     30  C   UNL     1      35.847  19.242  31.920  0.00  0.00    +0.000 C 
ENDBRANCH  19  24
ENDBRANCH   5  17
TORSDOF 3
