
 OpenBabel03262519553D

 30 33  0  0  1  0  0  0  0  0999 V2000
   38.1800   24.1010   34.4720 C   0  0  0  0  0  0  0  0  0  0  0  0
   38.2940   25.3750   33.9480 C   0  0  0  0  0  0  0  0  0  0  0  0
   37.9110   25.2210   32.6420 N   0  0  0  0  0  0  0  0  0  0  0  0
   37.6040   23.9370   32.4550 C   0  0  0  0  0  0  0  0  0  0  0  0
   37.7620   23.2100   33.5810 N   0  0  0  0  0  0  0  0  0  0  0  0
   38.6070   26.2850   34.4340 H   0  0  0  0  0  0  0  0  0  0  0  0
   37.2700   23.5650   31.4890 H   0  0  0  0  0  0  0  0  0  0  0  0
   38.4820   23.7480   35.8600 C   0  0  0  0  0  0  0  0  0  0  0  0
   39.6740   23.1360   36.2100 C   0  0  0  0  0  0  0  0  0  0  0  0
   39.9310   22.8110   37.5470 C   0  0  0  0  0  0  0  0  0  0  0  0
   38.9860   23.1200   38.4460 N   0  0  0  0  0  0  0  0  0  0  0  0
   37.8170   23.7210   38.1050 C   0  0  0  0  0  0  0  0  0  0  0  0
   37.5670   24.0320   36.8220 N   0  0  0  0  0  0  0  0  0  0  0  0
   40.4160   22.9000   35.4640 H   0  0  0  0  0  0  0  0  0  0  0  0
   40.8550   22.3340   37.8320 H   0  0  0  0  0  0  0  0  0  0  0  0
   37.0410   23.9770   38.8200 H   0  0  0  0  0  0  0  0  0  0  0  0
   37.5030   21.8080   33.6650 C   0  0  1  0  0  0  0  0  0  0  0  0
   36.4780   21.2280   34.5090 C   0  0  0  0  0  0  0  0  0  0  0  0
   36.1690   21.4040   33.0470 C   0  0  2  0  0  0  0  0  0  0  0  0
   38.3740   21.1750   33.3950 H   0  0  0  0  0  0  0  0  0  0  0  0
   36.5740   20.2370   34.9710 H   0  0  0  0  0  0  0  0  0  0  0  0
   35.9230   21.9300   35.1960 H   0  0  0  0  0  0  0  0  0  0  0  0
   35.4470   22.2120   32.7730 H   0  0  0  0  0  0  0  0  0  0  0  0
   36.0800   20.2260   32.2560 N   0  0  0  0  0  0  0  0  0  0  0  0
   35.3780   19.2230   33.0340 C   0  0  0  0  0  2  0  0  0  0  0  0
   35.4700   17.8400   32.4490 C   0  0  0  0  0  2  0  0  0  0  0  0
   35.9740   17.8180   31.0920 N   0  0  0  0  0  0  0  0  0  0  0  0
   36.1320   16.8130   30.8530 H   0  0  0  0  0  0  0  0  0  0  0  0
   37.1960   18.5340   30.9240 C   0  0  0  0  0  2  0  0  0  0  0  0
   37.3660   19.6950   31.8610 C   0  0  0  0  0  2  0  0  0  0  0  0
  1  8  1  0  0  0  0
  2  6  1  0  0  0  0
  2  1  2  0  0  0  0
  3  2  1  0  0  0  0
  4  3  2  0  0  0  0
  4  5  1  0  0  0  0
  5 17  1  0  0  0  0
  5  1  1  0  0  0  0
  7  4  1  0  0  0  0
  8  9  2  0  0  0  0
  8 13  1  0  0  0  0
  9 10  1  0  0  0  0
 10 15  1  0  0  0  0
 10 11  2  0  0  0  0
 12 11  1  0  0  0  0
 12 16  1  0  0  0  0
 13 12  2  0  0  0  0
 14  9  1  0  0  0  0
 17 20  1  6  0  0  0
 17 18  1  0  0  0  0
 18 21  1  0  0  0  0
 18 22  1  0  0  0  0
 19 23  1  6  0  0  0
 19 17  1  0  0  0  0
 19 18  1  0  0  0  0
 24 25  1  0  0  0  0
 24 19  1  0  0  0  0
 26 25  1  0  0  0  0
 27 26  1  0  0  0  0
 28 27  1  0  0  0  0
 29 27  1  0  0  0  0
 29 30  1  0  0  0  0
 30 24  1  0  0  0  0
M  END
>  <minimizedAffinity>
-4.80492592

>  <minimizedRMSD>
1.09110296

$$$$
