
 OpenBabel03262518453D

 43 47  0  0  1  0  0  0  0  0999 V2000
   40.3860   26.8530   32.6660 C   0  0  0  0  0  0  0  0  0  0  0  0
   39.7980   27.3220   33.7680 N   0  0  0  0  0  0  0  0  0  0  0  0
   40.1670   26.6340   34.7990 O   0  0  0  0  0  0  0  0  0  0  0  0
   41.0120   25.7040   34.3440 C   0  0  0  0  0  0  0  0  0  0  0  0
   41.1860   25.7960   33.0180 N   0  0  0  0  0  0  0  0  0  0  0  0
   36.8760   24.1460   31.0460 C   0  0  0  0  0  0  0  0  0  0  0  0
   35.7110   24.8520   31.3770 C   0  0  0  0  0  0  0  0  0  0  0  0
   35.7570   26.2300   31.4380 C   0  0  0  0  0  0  0  0  0  0  0  0
   36.9550   26.8360   31.1650 N   0  0  0  0  0  0  0  0  0  0  0  0
   38.0500   26.1060   30.8500 C   0  0  0  0  0  0  0  0  0  0  0  0
   38.0180   24.7900   30.7900 N   0  0  0  0  0  0  0  0  0  0  0  0
   39.2380   26.8710   30.5840 N   0  0  0  0  0  0  0  0  0  0  0  0
   39.3160   27.3100   29.3590 N   0  0  0  0  0  0  0  0  0  0  0  0
   40.4590   28.0040   29.2160 C   0  0  0  0  0  0  0  0  0  0  0  0
   41.1160   27.9930   30.4100 C   0  0  0  0  0  0  0  0  0  0  0  0
   40.3140   27.2610   31.2700 C   0  0  0  0  0  0  0  0  0  0  0  0
   36.8220   22.7140   30.9850 N   0  0  0  0  0  0  0  0  0  0  0  0
   34.7700   24.3760   31.5850 H   0  0  0  0  0  0  0  0  0  0  0  0
   34.9190   26.8840   31.6770 H   0  0  0  0  0  0  0  0  0  0  0  0
   40.9100   28.5260   28.3760 H   0  0  0  0  0  0  0  0  0  0  0  0
   42.0480   28.3780   30.8390 H   0  0  0  0  0  0  0  0  0  0  0  0
   37.5620   22.2170   30.4710 H   0  0  0  0  0  0  0  0  0  0  0  0
   36.0250   22.2140   31.4650 H   0  0  0  0  0  0  0  0  0  0  0  0
   41.7030   24.6670   35.1830 C   0  0  2  0  0  0  0  0  0  0  0  0
   42.8950   23.9480   34.6340 C   0  0  0  0  0  0  0  0  0  0  0  0
   41.5770   23.2230   34.8460 C   0  0  1  0  0  0  0  0  0  0  0  0
   41.6850   24.9150   36.2630 H   0  0  0  0  0  0  0  0  0  0  0  0
   43.7020   23.7490   35.3850 H   0  0  0  0  0  0  0  0  0  0  0  0
   43.1840   24.2170   33.5910 H   0  0  0  0  0  0  0  0  0  0  0  0
   41.0150   23.0470   33.8840 H   0  0  0  0  0  0  0  0  0  0  0  0
   41.6030   22.1470   35.8840 C   0  0  0  0  0  0  0  0  0  0  0  0
   40.9450   21.3320   35.5230 H   0  0  0  0  0  0  0  0  0  0  0  0
   42.6050   21.7040   36.0450 H   0  0  0  0  0  0  0  0  0  0  0  0
   40.9960   22.6070   37.2140 C   0  0  0  0  0  0  0  0  0  0  0  0
   41.2430   23.6410   37.4210 H   0  0  0  0  0  0  0  0  0  0  0  0
   41.4120   21.9540   37.9960 H   0  0  0  0  0  0  0  0  0  0  0  0
   39.5780   22.4430   37.1380 N   0  0  0  0  0  0  0  0  0  0  0  0
   38.9990   22.3520   35.8390 C   0  0  0  0  0  0  0  0  0  0  0  0
   37.5640   21.8870   35.8930 C   0  0  0  0  0  0  0  0  0  0  0  0
   36.8800   22.3880   37.0680 N   0  0  0  0  0  0  0  0  0  0  0  0
   37.0900   21.7270   37.8740 H   0  0  0  0  0  0  0  0  0  0  0  0
   37.5180   23.6540   37.4230 C   0  0  0  0  0  0  0  0  0  0  0  0
   38.8580   23.3110   38.0320 C   0  0  0  0  0  0  0  0  0  0  0  0
  1  5  1  0  0  0  0
  1  2  2  0  0  0  0
  2  3  1  0  0  0  0
  4  3  1  0  0  0  0
  4 24  1  0  0  0  0
  5  4  2  0  0  0  0
  6  7  1  0  0  0  0
  7  8  2  0  0  0  0
  7 18  1  0  0  0  0
  8 19  1  0  0  0  0
  9  8  1  0  0  0  0
 10  9  2  0  0  0  0
 11 10  1  0  0  0  0
 11  6  2  0  0  0  0
 12 10  1  0  0  0  0
 12 16  1  0  0  0  0
 13 12  1  0  0  0  0
 14 13  2  0  0  0  0
 14 15  1  0  0  0  0
 15 21  1  0  0  0  0
 15 16  2  0  0  0  0
 16  1  1  0  0  0  0
 17  6  1  0  0  0  0
 17 23  1  0  0  0  0
 20 14  1  0  0  0  0
 22 17  1  0  0  0  0
 24 27  1  1  0  0  0
 25 26  1  0  0  0  0
 25 24  1  0  0  0  0
 25 28  1  0  0  0  0
 26 30  1  6  0  0  0
 26 24  1  0  0  0  0
 26 31  1  0  0  0  0
 29 25  1  0  0  0  0
 31 33  1  0  0  0  0
 31 34  1  0  0  0  0
 32 31  1  0  0  0  0
 34 35  1  0  0  0  0
 34 36  1  0  0  0  0
 37 34  1  0  0  0  0
 37 43  1  0  0  0  0
 38 39  1  0  0  0  0
 38 37  1  0  0  0  0
 39 40  1  0  0  0  0
 40 42  1  0  0  0  0
 40 41  1  0  0  0  0
 42 43  1  0  0  0  0
M  END
>  <minimizedAffinity>
-5.36041403

>  <minimizedRMSD>
3.03085208

$$$$
