
 OpenBabel03262513583D

 37 40  0  0  0  0  0  0  0  0999 V2000
   37.4830   27.1550   32.4990 C   0  0  0  0  0  0  0  0  0  0  0  0
   37.0120   27.9030   33.5710 C   0  0  0  0  0  0  0  0  0  0  0  0
   36.9110   27.3800   34.8450 C   0  0  0  0  0  0  0  0  0  0  0  0
   37.2800   26.1110   35.0380 N   0  0  0  0  0  0  0  0  0  0  0  0
   37.7350   25.3930   33.9920 C   0  0  0  0  0  0  0  0  0  0  0  0
   37.8550   25.8620   32.7200 N   0  0  0  0  0  0  0  0  0  0  0  0
   36.7250   28.9170   33.3840 H   0  0  0  0  0  0  0  0  0  0  0  0
   36.5440   27.9830   35.6470 H   0  0  0  0  0  0  0  0  0  0  0  0
   38.3770   28.1540   29.2120 C   0  0  0  0  0  0  0  0  0  0  0  0
   37.1710   28.8620   29.3310 C   0  0  0  0  0  0  0  0  0  0  0  0
   36.6810   28.5670   30.6060 C   0  0  0  0  0  0  0  0  0  0  0  0
   37.5810   27.7270   31.1680 C   0  0  0  0  0  0  0  0  0  0  0  0
   38.5630   27.5030   30.3300 O   0  0  0  0  0  0  0  0  0  0  0  0
   36.6890   29.5130   28.6100 H   0  0  0  0  0  0  0  0  0  0  0  0
   35.7660   28.9510   31.0220 H   0  0  0  0  0  0  0  0  0  0  0  0
   39.4800   29.4220   27.3410 C   0  0  0  0  0  0  0  0  0  0  0  0
   39.1720   28.2240   28.0020 C   0  0  0  0  0  0  0  0  0  0  0  0
   39.6670   27.0450   27.4560 C   0  0  0  0  0  0  0  0  0  0  0  0
   40.4280   27.0890   26.3060 N   0  0  0  0  0  0  0  0  0  0  0  0
   40.6920   28.2750   25.7110 C   0  0  0  0  0  0  0  0  0  0  0  0
   40.2200   29.4060   26.2330 N   0  0  0  0  0  0  0  0  0  0  0  0
   39.0640   30.3110   27.8200 H   0  0  0  0  0  0  0  0  0  0  0  0
   39.5010   26.0620   27.8670 H   0  0  0  0  0  0  0  0  0  0  0  0
   41.2870   28.3100   24.8130 H   0  0  0  0  0  0  0  0  0  0  0  0
   38.1540   23.9690   34.1580 C   0  0  0  0  0  0  0  0  0  0  0  0
   37.5900   23.4790   34.9570 H   0  0  0  0  0  0  0  0  0  0  0  0
   38.0320   23.4020   33.2150 H   0  0  0  0  0  0  0  0  0  0  0  0
   39.6360   23.9890   34.4750 C   0  0  0  0  0  0  0  0  0  0  0  0
   40.0650   23.0430   34.0310 H   0  0  0  0  0  0  0  0  0  0  0  0
   40.1520   24.8480   34.0420 H   0  0  0  0  0  0  0  0  0  0  0  0
   39.9110   23.8980   35.8840 N   0  0  0  0  0  0  0  0  0  0  0  0
   38.8990   23.2650   36.6670 C   0  0  0  0  0  0  0  0  0  0  0  0
   39.5160   22.9610   38.0360 C   0  0  0  0  0  0  0  0  0  0  0  0
   40.4050   21.8300   37.8440 N   0  0  0  0  0  0  0  0  0  0  0  0
   39.8210   20.9690   37.9080 H   0  0  0  0  0  0  0  0  0  0  0  0
   41.0440   21.9080   36.5650 C   0  0  0  0  0  0  0  0  0  0  0  0
   41.2210   23.3450   36.0980 C   0  0  0  0  0  0  0  0  0  0  0  0
  1  6  2  0  0  0  0
  1  2  1  0  0  0  0
  2  3  2  0  0  0  0
  3  4  1  0  0  0  0
  3  8  1  0  0  0  0
  5 25  1  0  0  0  0
  5  4  2  0  0  0  0
  6  5  1  0  0  0  0
  7  2  1  0  0  0  0
  9 10  2  0  0  0  0
  9 13  1  0  0  0  0
 10 11  1  0  0  0  0
 11 15  1  0  0  0  0
 11 12  2  0  0  0  0
 12  1  1  0  0  0  0
 13 12  1  0  0  0  0
 14 10  1  0  0  0  0
 16 22  1  0  0  0  0
 16 17  1  0  0  0  0
 17  9  1  0  0  0  0
 18 23  1  0  0  0  0
 18 17  2  0  0  0  0
 19 18  1  0  0  0  0
 20 21  1  0  0  0  0
 20 19  2  0  0  0  0
 21 16  2  0  0  0  0
 24 20  1  0  0  0  0
 25 28  1  0  0  0  0
 25 26  1  0  0  0  0
 27 25  1  0  0  0  0
 28 31  1  0  0  0  0
 29 28  1  0  0  0  0
 30 28  1  0  0  0  0
 31 37  1  0  0  0  0
 31 32  1  0  0  0  0
 32 33  1  0  0  0  0
 34 35  1  0  0  0  0
 34 33  1  0  0  0  0
 36 34  1  0  0  0  0
 37 36  1  0  0  0  0
M  END
>  <minimizedAffinity>
-5.15549564

>  <minimizedRMSD>
8.66296577

$$$$
