
 OpenBabel03262519443D

 32 34  0  0  1  0  0  0  0  0999 V2000
   37.0700   24.7760   31.4960 C   0  0  0  0  0  0  0  0  0  0  0  0
   36.8350   23.9720   30.8150 H   0  0  0  0  0  0  0  0  0  0  0  0
   37.8670   25.4060   31.0110 H   0  0  0  0  0  0  0  0  0  0  0  0
   37.5830   24.3310   32.7340 N   0  0  0  0  0  0  0  0  0  0  0  0
   38.2680   24.8910   33.7410 C   0  0  0  0  0  0  0  0  0  0  0  0
   38.5690   24.0550   34.7940 C   0  0  0  0  0  0  0  0  0  0  0  0
   38.0180   22.8840   34.3960 N   0  0  0  0  0  0  0  0  0  0  0  0
   37.4410   23.0570   33.1830 C   0  0  0  0  0  0  0  0  0  0  0  0
   38.5730   25.9400   33.7330 H   0  0  0  0  0  0  0  0  0  0  0  0
   39.1100   24.3290   35.6840 H   0  0  0  0  0  0  0  0  0  0  0  0
   36.7740   21.9810   32.5070 N   0  0  0  0  0  0  0  0  0  0  0  0
   35.4170   21.8430   32.0660 C   0  0  0  0  0  0  0  0  0  0  0  0
   34.8670   20.4550   32.2980 C   0  0  0  0  0  0  0  0  0  0  0  0
   35.8730   19.4250   32.2690 N   0  0  0  0  0  0  0  0  0  0  0  0
   36.2200   19.3030   33.2610 H   0  0  0  0  0  0  0  0  0  0  0  0
   37.0080   19.8190   31.4880 C   0  0  0  0  0  0  0  0  0  0  0  0
   37.7410   20.9000   32.2800 C   0  0  0  0  0  0  0  0  0  0  0  0
   35.8720   25.6670   31.6420 C   0  0  1  0  0  0  0  0  0  0  0  0
   35.5210   25.5200   32.6930 H   0  0  0  0  0  0  0  0  0  0  0  0
   37.5230   28.8830   30.5260 C   0  0  0  0  0  0  0  0  0  0  0  0
   37.2840   27.5040   30.6260 C   0  0  0  0  0  0  0  0  0  0  0  0
   36.1940   27.1060   31.4610 C   0  0  0  0  0  0  0  0  0  0  0  0
   35.4590   28.0690   32.1060 N   0  0  0  0  0  0  0  0  0  0  0  0
   35.7210   29.3600   31.9830 C   0  0  0  0  0  0  0  0  0  0  0  0
   36.7660   29.7790   31.1840 N   0  0  0  0  0  0  0  0  0  0  0  0
   38.3510   29.1600   29.8890 H   0  0  0  0  0  0  0  0  0  0  0  0
   37.8720   26.7640   30.1130 H   0  0  0  0  0  0  0  0  0  0  0  0
   35.1500   30.1340   32.4850 H   0  0  0  0  0  0  0  0  0  0  0  0
   34.7700   25.2270   30.7160 C   0  0  0  0  0  0  0  0  0  0  0  0
   33.9420   25.9560   30.6860 H   0  0  0  0  0  0  0  0  0  0  0  0
   34.4120   24.2290   31.0930 H   0  0  0  0  0  0  0  0  0  0  0  0
   35.1600   25.0040   29.6900 H   0  0  0  0  0  0  0  0  0  0  0  0
  1 18  1  0  0  0  0
  1  4  1  0  0  0  0
  2  1  1  0  0  0  0
  3  1  1  0  0  0  0
  4  8  1  0  0  0  0
  4  5  1  0  0  0  0
  5  6  2  0  0  0  0
  6 10  1  0  0  0  0
  7  6  1  0  0  0  0
  8  7  2  0  0  0  0
  9  5  1  0  0  0  0
 11  8  1  0  0  0  0
 12 13  1  0  0  0  0
 12 11  1  0  0  0  0
 14 13  1  0  0  0  0
 14 15  1  0  0  0  0
 16 14  1  0  0  0  0
 16 17  1  0  0  0  0
 17 11  1  0  0  0  0
 18 19  1  1  0  0  0
 20 21  2  0  0  0  0
 20 25  1  0  0  0  0
 21 22  1  0  0  0  0
 22 18  1  0  0  0  0
 22 23  2  0  0  0  0
 24 23  1  0  0  0  0
 24 28  1  0  0  0  0
 25 24  2  0  0  0  0
 26 20  1  0  0  0  0
 27 21  1  0  0  0  0
 29 31  1  0  0  0  0
 29 18  1  0  0  0  0
 30 29  1  0  0  0  0
 32 29  1  0  0  0  0
M  END
>  <minimizedAffinity>
-4.35082769

>  <minimizedRMSD>
8.0727911

$$$$
