
 OpenBabel03262519543D

 30 33  0  0  1  0  0  0  0  0999 V2000
   38.3020   24.0060   30.6020 C   0  0  0  0  0  0  0  0  0  0  0  0
   38.9300   23.9740   29.3710 C   0  0  0  0  0  0  0  0  0  0  0  0
   39.3220   22.6670   29.2440 N   0  0  0  0  0  0  0  0  0  0  0  0
   38.9340   22.0160   30.3400 C   0  0  0  0  0  0  0  0  0  0  0  0
   38.2920   22.8260   31.2090 N   0  0  0  0  0  0  0  0  0  0  0  0
   39.0840   24.7740   28.6650 H   0  0  0  0  0  0  0  0  0  0  0  0
   39.1330   20.9550   30.4750 H   0  0  0  0  0  0  0  0  0  0  0  0
   37.7020   25.2040   31.1930 C   0  0  0  0  0  0  0  0  0  0  0  0
   38.4420   26.0730   31.9770 C   0  0  0  0  0  0  0  0  0  0  0  0
   37.8370   27.2090   32.5270 C   0  0  0  0  0  0  0  0  0  0  0  0
   36.5370   27.4040   32.2580 N   0  0  0  0  0  0  0  0  0  0  0  0
   35.8120   26.5530   31.4880 C   0  0  0  0  0  0  0  0  0  0  0  0
   36.3900   25.4610   30.9600 N   0  0  0  0  0  0  0  0  0  0  0  0
   39.4850   25.8900   32.1760 H   0  0  0  0  0  0  0  0  0  0  0  0
   38.4010   27.8940   33.1400 H   0  0  0  0  0  0  0  0  0  0  0  0
   34.7590   26.6960   31.2610 H   0  0  0  0  0  0  0  0  0  0  0  0
   37.7690   22.3890   32.4640 C   0  0  1  0  0  0  0  0  0  0  0  0
   37.6180   20.9960   32.8320 C   0  0  0  0  0  0  0  0  0  0  0  0
   38.8160   21.7370   33.3590 C   0  0  2  0  0  0  0  0  0  0  0  0
   37.1050   23.1310   32.9560 H   0  0  0  0  0  0  0  0  0  0  0  0
   36.8170   20.6340   33.4900 H   0  0  0  0  0  0  0  0  0  0  0  0
   37.8500   20.2290   32.0370 H   0  0  0  0  0  0  0  0  0  0  0  0
   39.8090   21.4820   32.9130 H   0  0  0  0  0  0  0  0  0  0  0  0
   38.8400   22.0240   34.7510 N   0  0  0  0  0  0  0  0  0  0  0  0
   37.4750   21.9730   35.2380 C   0  0  0  0  0  2  0  0  0  0  0  0
   37.3110   22.5450   36.6200 C   0  0  0  0  0  2  0  0  0  0  0  0
   38.5660   22.7570   37.3110 N   0  0  0  0  0  0  0  0  0  0  0  0
   38.3350   23.2860   38.1820 H   0  0  0  0  0  0  0  0  0  0  0  0
   39.5190   23.5000   36.5530 C   0  0  0  0  0  2  0  0  0  0  0  0
   39.4010   23.3180   35.0670 C   0  0  0  0  0  2  0  0  0  0  0  0
  1  8  1  0  0  0  0
  1  5  1  0  0  0  0
  2  1  2  0  0  0  0
  3  2  1  0  0  0  0
  3  4  2  0  0  0  0
  4  7  1  0  0  0  0
  4  5  1  0  0  0  0
  5 17  1  0  0  0  0
  6  2  1  0  0  0  0
  8  9  1  0  0  0  0
  9 14  1  0  0  0  0
  9 10  2  0  0  0  0
 10 15  1  0  0  0  0
 11 10  1  0  0  0  0
 12 11  2  0  0  0  0
 13  8  2  0  0  0  0
 13 12  1  0  0  0  0
 16 12  1  0  0  0  0
 17 18  1  0  0  0  0
 17 20  1  1  0  0  0
 17 19  1  0  0  0  0
 18 19  1  0  0  0  0
 18 21  1  0  0  0  0
 19 23  1  6  0  0  0
 19 24  1  0  0  0  0
 22 18  1  0  0  0  0
 24 30  1  0  0  0  0
 24 25  1  0  0  0  0
 25 26  1  0  0  0  0
 26 27  1  0  0  0  0
 27 28  1  0  0  0  0
 29 27  1  0  0  0  0
 30 29  1  0  0  0  0
M  END
>  <minimizedAffinity>
-3.88568377

>  <minimizedRMSD>
5.56080532

$$$$
