
 OpenBabel03262519013D

 37 40  0  0  0  0  0  0  0  0999 V2000
   37.7190   27.2000   35.0600 C   0  0  0  0  0  0  0  0  0  0  0  0
   38.0460   28.2750   35.2500 H   0  0  0  0  0  0  0  0  0  0  0  0
   37.0200   27.0040   35.8720 H   0  0  0  0  0  0  0  0  0  0  0  0
   38.9600   26.4460   35.0300 C   0  0  0  0  0  0  0  0  0  0  0  0
   40.0840   26.9640   34.3920 C   0  0  0  0  0  0  0  0  0  0  0  0
   41.2650   26.2640   34.3690 C   0  0  0  0  0  0  0  0  0  0  0  0
   41.3820   25.0160   34.9790 C   0  0  0  0  0  0  0  0  0  0  0  0
   40.2610   24.5080   35.6110 C   0  0  0  0  0  0  0  0  0  0  0  0
   40.3530   23.2650   36.2270 C   0  0  0  0  0  0  0  0  0  0  0  0
   39.2630   22.7100   36.8720 C   0  0  0  0  0  0  0  0  0  0  0  0
   38.0650   23.4130   36.8990 C   0  0  0  0  0  0  0  0  0  0  0  0
   38.0060   24.6560   36.2720 C   0  0  0  0  0  0  0  0  0  0  0  0
   39.0730   25.2340   35.6220 C   0  0  0  0  0  0  0  0  0  0  0  0
   39.9690   27.9360   33.9240 H   0  0  0  0  0  0  0  0  0  0  0  0
   42.0780   26.7480   33.8510 H   0  0  0  0  0  0  0  0  0  0  0  0
   42.3310   24.5030   34.9350 H   0  0  0  0  0  0  0  0  0  0  0  0
   41.3020   22.7480   36.1850 H   0  0  0  0  0  0  0  0  0  0  0  0
   39.4150   21.7500   37.3220 H   0  0  0  0  0  0  0  0  0  0  0  0
   37.2190   22.9690   37.4060 H   0  0  0  0  0  0  0  0  0  0  0  0
   37.0330   25.1200   36.3460 H   0  0  0  0  0  0  0  0  0  0  0  0
   36.3100   28.7230   32.0330 C   0  0  0  0  0  0  0  0  0  0  0  0
   35.8620   27.6580   31.2800 C   0  0  0  0  0  0  0  0  0  0  0  0
   36.0410   26.3620   31.8180 C   0  0  0  0  0  0  0  0  0  0  0  0
   36.6400   26.2370   33.0370 N   0  0  0  0  0  0  0  0  0  0  0  0
   37.0500   27.2960   33.7150 C   0  0  0  0  0  0  0  0  0  0  0  0
   36.8880   28.5390   33.2210 N   0  0  0  0  0  0  0  0  0  0  0  0
   36.1610   29.7130   31.5980 H   0  0  0  0  0  0  0  0  0  0  0  0
   35.3980   27.8110   30.3280 H   0  0  0  0  0  0  0  0  0  0  0  0
   35.5940   25.1970   31.0780 C   0  0  0  0  0  0  0  0  0  0  0  0
   34.5090   25.2480   30.4510 O   0  0  0  0  0  0  0  0  0  0  0  0
   36.3290   23.9590   31.0150 C   0  0  0  0  0  0  0  0  0  0  0  0
   35.7200   22.8000   31.4520 C   0  0  0  0  0  0  0  0  0  0  0  0
   36.4180   21.5880   31.3990 C   0  0  0  0  0  0  0  0  0  0  0  0
   37.6830   21.5870   30.9150 N   0  0  0  0  0  0  0  0  0  0  0  0
   38.2560   22.7420   30.4910 C   0  0  0  0  0  0  0  0  0  0  0  0
   39.2690   22.7260   30.1060 H   0  0  0  0  0  0  0  0  0  0  0  0
   37.6040   23.9310   30.5310 N   0  0  0  0  0  0  0  0  0  0  0  0
  1  2  1  0  0  0  0
  1  3  1  0  0  0  0
  4  1  1  0  0  0  0
  4 13  1  0  0  0  0
  5  4  2  0  0  0  0
  6  5  1  0  0  0  0
  6  7  2  0  0  0  0
  7  8  1  0  0  0  0
  8 13  2  0  0  0  0
  8  9  1  0  0  0  0
  9 10  2  0  0  0  0
 10 11  1  0  0  0  0
 10 18  1  0  0  0  0
 11 19  1  0  0  0  0
 12 20  1  0  0  0  0
 12 11  2  0  0  0  0
 13 12  1  0  0  0  0
 14  5  1  0  0  0  0
 15  6  1  0  0  0  0
 16  7  1  0  0  0  0
 17  9  1  0  0  0  0
 21 26  1  0  0  0  0
 22 23  1  0  0  0  0
 22 21  2  0  0  0  0
 23 24  2  0  0  0  0
 24 25  1  0  0  0  0
 25  1  1  0  0  0  0
 26 25  2  0  0  0  0
 27 21  1  0  0  0  0
 28 22  1  0  0  0  0
 29 23  1  0  0  0  0
 30 29  2  0  0  0  0
 31 29  1  0  0  0  0
 31 32  1  0  0  0  0
 33 32  2  0  0  0  0
 34 33  1  0  0  0  0
 35 37  1  0  0  0  0
 35 34  2  0  0  0  0
 36 35  1  0  0  0  0
 37 31  2  0  0  0  0
M  END
>  <minimizedAffinity>
-6.12091494

>  <minimizedRMSD>
2.1032908

$$$$
