
 OpenBabel03262519543D

 30 33  0  0  1  0  0  0  0  0999 V2000
   38.1730   24.0700   34.7490 C   0  0  0  0  0  0  0  0  0  0  0  0
   38.2810   25.3220   34.1720 C   0  0  0  0  0  0  0  0  0  0  0  0
   37.9020   25.1090   32.8730 N   0  0  0  0  0  0  0  0  0  0  0  0
   37.6030   23.8170   32.7400 C   0  0  0  0  0  0  0  0  0  0  0  0
   37.7620   23.1390   33.8960 N   0  0  0  0  0  0  0  0  0  0  0  0
   38.5870   26.2530   34.6200 H   0  0  0  0  0  0  0  0  0  0  0  0
   37.2730   23.4020   31.7900 H   0  0  0  0  0  0  0  0  0  0  0  0
   38.4740   23.7780   36.1520 C   0  0  0  0  0  0  0  0  0  0  0  0
   39.6450   23.1400   36.5250 C   0  0  0  0  0  0  0  0  0  0  0  0
   39.9020   22.8760   37.8750 C   0  0  0  0  0  0  0  0  0  0  0  0
   38.9760   23.2660   38.7630 N   0  0  0  0  0  0  0  0  0  0  0  0
   37.8270   23.8920   38.3990 C   0  0  0  0  0  0  0  0  0  0  0  0
   37.5780   24.1460   37.1030 N   0  0  0  0  0  0  0  0  0  0  0  0
   40.3720   22.8390   35.7880 H   0  0  0  0  0  0  0  0  0  0  0  0
   40.8100   22.3800   38.1790 H   0  0  0  0  0  0  0  0  0  0  0  0
   37.0670   24.2130   39.1050 H   0  0  0  0  0  0  0  0  0  0  0  0
   37.5110   21.7410   34.0380 C   0  0  1  0  0  0  0  0  0  0  0  0
   36.3380   21.1960   34.6910 C   0  0  0  0  0  0  0  0  0  0  0  0
   36.3470   21.2480   33.1870 C   0  0  2  0  0  0  0  0  0  0  0  0
   38.4290   21.1160   34.0140 H   0  0  0  0  0  0  0  0  0  0  0  0
   36.3460   20.2480   35.2430 H   0  0  0  0  0  0  0  0  0  0  0  0
   35.6380   21.9320   35.1830 H   0  0  0  0  0  0  0  0  0  0  0  0
   35.6890   22.0090   32.6990 H   0  0  0  0  0  0  0  0  0  0  0  0
   36.4460   20.0100   32.4960 N   0  0  0  0  0  0  0  0  0  0  0  0
   36.5140   20.3010   31.0760 C   0  0  0  0  0  2  0  0  0  0  0  0
   36.3230   19.0860   30.2070 C   0  0  0  0  0  2  0  0  0  0  0  0
   36.4070   17.8370   30.9330 N   0  0  0  0  0  0  0  0  0  0  0  0
   36.1140   17.0890   30.2660 H   0  0  0  0  0  0  0  0  0  0  0  0
   35.5690   17.7860   32.0860 C   0  0  0  0  0  2  0  0  0  0  0  0
   35.3350   19.1200   32.7370 C   0  0  0  0  0  2  0  0  0  0  0  0
  1  8  1  0  0  0  0
  2  6  1  0  0  0  0
  2  1  2  0  0  0  0
  3  2  1  0  0  0  0
  4  3  2  0  0  0  0
  4  5  1  0  0  0  0
  5 17  1  0  0  0  0
  5  1  1  0  0  0  0
  7  4  1  0  0  0  0
  8  9  2  0  0  0  0
  8 13  1  0  0  0  0
  9 10  1  0  0  0  0
 10 15  1  0  0  0  0
 10 11  2  0  0  0  0
 12 11  1  0  0  0  0
 12 16  1  0  0  0  0
 13 12  2  0  0  0  0
 14  9  1  0  0  0  0
 17 20  1  1  0  0  0
 17 18  1  0  0  0  0
 18 22  1  0  0  0  0
 18 21  1  0  0  0  0
 19 23  1  6  0  0  0
 19 17  1  0  0  0  0
 19 18  1  0  0  0  0
 24 30  1  0  0  0  0
 24 19  1  0  0  0  0
 25 24  1  0  0  0  0
 26 27  1  0  0  0  0
 26 25  1  0  0  0  0
 27 29  1  0  0  0  0
 28 27  1  0  0  0  0
 29 30  1  0  0  0  0
M  END
>  <minimizedAffinity>
-4.85535812

>  <minimizedRMSD>
1.23821139

$$$$
