
 OpenBabel03262519553D

 30 33  0  0  1  0  0  0  0  0999 V2000
   38.1180   25.4910   35.0280 C   0  0  0  0  0  0  0  0  0  0  0  0
   37.4900   26.7010   34.7960 C   0  0  0  0  0  0  0  0  0  0  0  0
   37.9740   27.0830   33.5730 N   0  0  0  0  0  0  0  0  0  0  0  0
   38.8200   26.1420   33.1550 C   0  0  0  0  0  0  0  0  0  0  0  0
   38.9320   25.1310   34.0430 N   0  0  0  0  0  0  0  0  0  0  0  0
   36.7850   27.2310   35.4150 H   0  0  0  0  0  0  0  0  0  0  0  0
   39.3370   26.2200   32.2010 H   0  0  0  0  0  0  0  0  0  0  0  0
   37.9210   24.6750   36.2280 C   0  0  0  0  0  0  0  0  0  0  0  0
   38.1980   25.1670   37.4930 C   0  0  0  0  0  0  0  0  0  0  0  0
   37.9980   24.3600   38.6190 C   0  0  0  0  0  0  0  0  0  0  0  0
   37.5360   23.1180   38.4110 N   0  0  0  0  0  0  0  0  0  0  0  0
   37.2640   22.6350   37.1710 C   0  0  0  0  0  0  0  0  0  0  0  0
   37.4560   23.4080   36.0880 N   0  0  0  0  0  0  0  0  0  0  0  0
   38.5680   26.1700   37.6300 H   0  0  0  0  0  0  0  0  0  0  0  0
   38.2110   24.7300   39.6090 H   0  0  0  0  0  0  0  0  0  0  0  0
   36.8900   21.6330   36.9850 H   0  0  0  0  0  0  0  0  0  0  0  0
   39.7690   23.9910   33.8490 C   0  0  1  0  0  0  0  0  0  0  0  0
   41.1340   24.0680   33.3690 C   0  0  0  0  0  0  0  0  0  0  0  0
   40.9160   23.9090   34.8490 C   0  0  2  0  0  0  0  0  0  0  0  0
   39.2090   23.0480   33.6740 H   0  0  0  0  0  0  0  0  0  0  0  0
   41.5980   23.2830   32.7580 H   0  0  0  0  0  0  0  0  0  0  0  0
   41.5090   25.0850   33.0540 H   0  0  0  0  0  0  0  0  0  0  0  0
   41.1220   24.8000   35.4930 H   0  0  0  0  0  0  0  0  0  0  0  0
   41.2690   22.6590   35.4260 N   0  0  0  0  0  0  0  0  0  0  0  0
   40.9650   22.7250   36.8430 C   0  0  0  0  0  2  0  0  0  0  0  0
   41.5560   21.5890   37.6350 C   0  0  0  0  0  2  0  0  0  0  0  0
   42.0500   20.5060   36.8110 N   0  0  0  0  0  0  0  0  0  0  0  0
   42.5630   19.8600   37.4530 H   0  0  0  0  0  0  0  0  0  0  0  0
   42.9340   20.9310   35.7760 C   0  0  0  0  0  2  0  0  0  0  0  0
   42.6630   22.3160   35.2630 C   0  0  0  0  0  2  0  0  0  0  0  0
  1  8  1  0  0  0  0
  2  1  2  0  0  0  0
  2  6  1  0  0  0  0
  3  2  1  0  0  0  0
  4  3  2  0  0  0  0
  4  5  1  0  0  0  0
  5  1  1  0  0  0  0
  7  4  1  0  0  0  0
  8  9  1  0  0  0  0
  9 14  1  0  0  0  0
  9 10  2  0  0  0  0
 10 15  1  0  0  0  0
 11 10  1  0  0  0  0
 12 11  2  0  0  0  0
 13  8  2  0  0  0  0
 13 12  1  0  0  0  0
 16 12  1  0  0  0  0
 17 20  1  6  0  0  0
 17  5  1  0  0  0  0
 17 19  1  0  0  0  0
 18 17  1  0  0  0  0
 18 19  1  0  0  0  0
 19 24  1  0  0  0  0
 19 23  1  1  0  0  0
 21 18  1  0  0  0  0
 22 18  1  0  0  0  0
 24 25  1  0  0  0  0
 25 26  1  0  0  0  0
 27 28  1  0  0  0  0
 27 26  1  0  0  0  0
 29 27  1  0  0  0  0
 30 24  1  0  0  0  0
 30 29  1  0  0  0  0
M  END
>  <minimizedAffinity>
-3.78901124

>  <minimizedRMSD>
5.62905884

$$$$
