
 OpenBabel03262519553D

 30 33  0  0  1  0  0  0  0  0999 V2000
   38.1710   24.0710   34.7490 C   0  0  0  0  0  0  0  0  0  0  0  0
   38.2780   25.3230   34.1730 C   0  0  0  0  0  0  0  0  0  0  0  0
   37.8990   25.1110   32.8730 N   0  0  0  0  0  0  0  0  0  0  0  0
   37.6020   23.8190   32.7400 C   0  0  0  0  0  0  0  0  0  0  0  0
   37.7610   23.1410   33.8960 N   0  0  0  0  0  0  0  0  0  0  0  0
   38.5830   26.2540   34.6210 H   0  0  0  0  0  0  0  0  0  0  0  0
   37.2720   23.4040   31.7900 H   0  0  0  0  0  0  0  0  0  0  0  0
   38.4730   23.7790   36.1520 C   0  0  0  0  0  0  0  0  0  0  0  0
   39.6450   23.1420   36.5240 C   0  0  0  0  0  0  0  0  0  0  0  0
   39.9010   22.8780   37.8750 C   0  0  0  0  0  0  0  0  0  0  0  0
   38.9750   23.2660   38.7630 N   0  0  0  0  0  0  0  0  0  0  0  0
   37.8260   23.8930   38.3990 C   0  0  0  0  0  0  0  0  0  0  0  0
   37.5770   24.1460   37.1030 N   0  0  0  0  0  0  0  0  0  0  0  0
   40.3710   22.8410   35.7870 H   0  0  0  0  0  0  0  0  0  0  0  0
   40.8090   22.3810   38.1780 H   0  0  0  0  0  0  0  0  0  0  0  0
   37.0670   24.2130   39.1060 H   0  0  0  0  0  0  0  0  0  0  0  0
   37.5120   21.7420   34.0380 C   0  0  1  0  0  0  0  0  0  0  0  0
   36.3390   21.1960   34.6910 C   0  0  0  0  0  0  0  0  0  0  0  0
   36.3470   21.2480   33.1870 C   0  0  2  0  0  0  0  0  0  0  0  0
   38.4300   21.1180   34.0120 H   0  0  0  0  0  0  0  0  0  0  0  0
   36.3490   20.2470   35.2430 H   0  0  0  0  0  0  0  0  0  0  0  0
   35.6390   21.9310   35.1840 H   0  0  0  0  0  0  0  0  0  0  0  0
   35.6880   22.0090   32.7000 H   0  0  0  0  0  0  0  0  0  0  0  0
   36.4470   20.0110   32.4950 N   0  0  0  0  0  0  0  0  0  0  0  0
   36.5140   20.3020   31.0750 C   0  0  0  0  0  2  0  0  0  0  0  0
   36.3220   19.0900   30.2050 C   0  0  0  0  0  2  0  0  0  0  0  0
   36.4060   17.8390   30.9310 N   0  0  0  0  0  0  0  0  0  0  0  0
   36.1130   17.0920   30.2630 H   0  0  0  0  0  0  0  0  0  0  0  0
   35.5690   17.7880   32.0830 C   0  0  0  0  0  2  0  0  0  0  0  0
   35.3350   19.1200   32.7360 C   0  0  0  0  0  2  0  0  0  0  0  0
  1  8  1  0  0  0  0
  2  6  1  0  0  0  0
  2  1  2  0  0  0  0
  3  2  1  0  0  0  0
  4  3  2  0  0  0  0
  4  5  1  0  0  0  0
  5 17  1  0  0  0  0
  5  1  1  0  0  0  0
  7  4  1  0  0  0  0
  8  9  2  0  0  0  0
  8 13  1  0  0  0  0
  9 10  1  0  0  0  0
 10 15  1  0  0  0  0
 10 11  2  0  0  0  0
 12 11  1  0  0  0  0
 12 16  1  0  0  0  0
 13 12  2  0  0  0  0
 14  9  1  0  0  0  0
 17 20  1  1  0  0  0
 17 18  1  0  0  0  0
 18 22  1  0  0  0  0
 18 21  1  0  0  0  0
 19 23  1  6  0  0  0
 19 17  1  0  0  0  0
 19 18  1  0  0  0  0
 24 30  1  0  0  0  0
 24 19  1  0  0  0  0
 25 24  1  0  0  0  0
 26 27  1  0  0  0  0
 26 25  1  0  0  0  0
 27 29  1  0  0  0  0
 28 27  1  0  0  0  0
 29 30  1  0  0  0  0
M  END
>  <minimizedAffinity>
-4.86071873

>  <minimizedRMSD>
1.04567683

$$$$
