
 OpenBabel03262520003D

 36 40  0  0  1  0  0  0  0  0999 V2000
   40.4090   23.2250   34.3740 C   0  0  1  0  0  0  0  0  0  0  0  0
   40.1420   24.2120   35.3800 C   0  0  0  0  0  0  0  0  0  0  0  0
   38.9610   23.5540   34.6010 C   0  0  1  0  0  0  0  0  0  0  0  0
   40.7460   22.1970   34.7390 H   0  0  0  0  0  0  0  0  0  0  0  0
   40.1900   23.9660   36.4470 H   0  0  0  0  0  0  0  0  0  0  0  0
   40.3940   25.2310   35.1470 H   0  0  0  0  0  0  0  0  0  0  0  0
   38.1160   24.6160   34.0460 C   0  0  0  0  0  0  0  0  0  0  0  0
   37.6550   24.1080   32.8020 C   0  0  0  0  0  3  0  0  0  0  0  0
   36.9130   25.0400   32.1250 N   0  0  0  0  0  0  0  0  0  0  0  0
   36.8700   26.1440   32.8840 C   0  0  0  0  0  0  0  0  0  0  0  0
   36.3220   27.4320   32.8730 C   0  0  0  0  0  3  0  0  0  0  0  0
   36.5030   28.3160   33.9190 C   0  0  0  0  0  3  0  0  0  0  0  0
   37.2470   27.9510   35.0390 C   0  0  0  0  0  3  0  0  0  0  0  0
   37.7960   26.6990   35.0780 C   0  0  0  0  0  3  0  0  0  0  0  0
   37.5850   25.8710   34.0150 C   0  0  0  0  0  0  0  0  0  0  0  0
   36.3900   25.1450   31.2270 H   0  0  0  0  0  0  0  0  0  0  0  0
   40.9070   22.6960   31.9790 C   0  0  0  0  0  0  0  0  0  0  0  0
   41.4480   23.3720   30.8860 C   0  0  0  0  0  0  0  0  0  0  0  0
   41.7270   24.6120   31.3790 N   0  0  0  0  0  0  0  0  0  0  0  0
   41.3690   24.6310   32.6610 C   0  0  0  0  0  0  0  0  0  0  0  0
   40.8640   23.4650   33.0520 N   0  0  0  0  0  0  0  0  0  0  0  0
   41.5860   22.9480   29.8970 H   0  0  0  0  0  0  0  0  0  0  0  0
   41.5460   25.5850   33.1760 H   0  0  0  0  0  0  0  0  0  0  0  0
   40.4390   21.3160   31.9440 C   0  0  0  0  0  0  0  0  0  0  0  0
   39.0680   21.0540   31.7390 C   0  0  0  0  0  0  0  0  0  0  0  0
   38.6690   19.6960   31.7130 C   0  0  0  0  0  0  0  0  0  0  0  0
   39.6270   18.7480   31.8860 N   0  0  0  0  0  0  0  0  0  0  0  0
   40.9310   19.0500   32.0780 C   0  0  0  0  0  0  0  0  0  0  0  0
   41.3370   20.3250   32.1090 N   0  0  0  0  0  0  0  0  0  0  0  0
   38.4360   21.9050   31.6190 H   0  0  0  0  0  0  0  0  0  0  0  0
   37.6330   19.5160   31.5580 H   0  0  0  0  0  0  0  0  0  0  0  0
   41.5530   18.1820   32.1980 H   0  0  0  0  0  0  0  0  0  0  0  0
   38.2090   22.5880   35.5240 C   0  0  0  0  0  0  0  0  0  0  0  0
   37.5580   21.6410   34.7420 F   0  0  0  0  0  0  0  0  0  0  0  0
   39.1660   21.8200   36.2790 F   0  0  0  0  0  0  0  0  0  0  0  0
   37.4060   23.2030   36.4000 F   0  0  0  0  0  0  0  0  0  0  0  0
  1  3  1  0  0  0  0
  1  4  1  1  0  0  0
  1  2  1  0  0  0  0
  2  5  1  0  0  0  0
  3  2  1  0  0  0  0
  3 33  1  1  0  0  0
  6  2  1  0  0  0  0
  7  3  1  0  0  0  0
  8  7  2  0  0  0  0
  9  8  1  0  0  0  0
  9 10  1  0  0  0  0
 10 15  1  0  0  0  0
 11 10  2  0  0  0  0
 11 12  1  0  0  0  0
 12 13  2  0  0  0  0
 13 14  1  0  0  0  0
 15  7  1  0  0  0  0
 15 14  2  0  0  0  0
 16  9  1  0  0  0  0
 17 21  1  0  0  0  0
 18 19  1  0  0  0  0
 18 17  2  0  0  0  0
 19 20  2  0  0  0  0
 20 21  1  0  0  0  0
 20 23  1  0  0  0  0
 21  1  1  0  0  0  0
 22 18  1  0  0  0  0
 24 17  1  0  0  0  0
 24 29  1  0  0  0  0
 25 24  2  0  0  0  0
 26 25  1  0  0  0  0
 26 27  2  0  0  0  0
 27 28  1  0  0  0  0
 28 29  2  0  0  0  0
 28 32  1  0  0  0  0
 30 25  1  0  0  0  0
 31 26  1  0  0  0  0
 33 35  1  0  0  0  0
 33 36  1  0  0  0  0
 34 33  1  0  0  0  0
M  END
>  <minimizedAffinity>
-4.36038685

>  <minimizedRMSD>
5.09123325

$$$$
