
     RDKit          3D

 47 51  0  0  0  0  0  0  0  0999 V2000
   37.6462   25.3744   34.3685 N   0  0  0  0  0  0  0  0  0  0  0  0
   37.1145   25.4032   33.0225 C   0  0  0  0  0  0  0  0  0  0  0  0
   36.8480   26.8402   32.7269 C   0  0  0  0  0  0  0  0  0  0  0  0
   37.2953   27.5688   33.9826 C   0  0  0  0  0  0  0  0  0  0  0  0
   38.3976   26.5833   34.4692 C   0  0  2  0  0  0  0  0  0  0  0  0
   38.5530   24.2809   34.5584 C   0  0  0  0  0  0  0  0  0  0  0  0
   37.8617   23.9111   38.2682 C   0  0  0  0  0  0  0  0  0  0  0  0
   37.6834   24.2862   36.9387 C   0  0  0  0  0  0  0  0  0  0  0  0
   38.6782   23.9132   36.0029 C   0  0  0  0  0  0  0  0  0  0  0  0
   39.7545   23.2076   36.4578 N   0  0  0  0  0  0  0  0  0  0  0  0
   39.8718   22.8727   37.7601 C   0  0  0  0  0  0  0  0  0  0  0  0
   38.9224   23.2294   38.6499 N   0  0  0  0  0  0  0  0  0  0  0  0
   39.4896   26.6059   33.6459 O   0  0  0  0  0  0  0  0  0  0  0  0
   40.6166   27.1716   34.1953 C   0  0  2  0  0  0  0  0  0  0  0  0
   41.6832   27.5249   33.1843 C   0  0  0  0  0  0  0  0  0  0  0  0
   41.9140   26.4346   34.2129 C   0  0  1  0  0  0  0  0  0  0  0  0
   37.9359   25.0688   32.3285 H   0  0  0  0  0  0  0  0  0  0  0  0
   36.1869   24.8221   32.8924 H   0  0  0  0  0  0  0  0  0  0  0  0
   37.3539   27.2267   31.8209 H   0  0  0  0  0  0  0  0  0  0  0  0
   35.7455   27.0455   32.6237 H   0  0  0  0  0  0  0  0  0  0  0  0
   37.7767   28.5430   33.7491 H   0  0  0  0  0  0  0  0  0  0  0  0
   36.5184   27.6189   34.7498 H   0  0  0  0  0  0  0  0  0  0  0  0
   38.6626   26.9076   35.4787 H   0  0  0  0  0  0  0  0  0  0  0  0
   39.5691   24.4808   34.1469 H   0  0  0  0  0  0  0  0  0  0  0  0
   38.1686   23.3808   34.0350 H   0  0  0  0  0  0  0  0  0  0  0  0
   37.0227   24.2693   38.8455 H   0  0  0  0  0  0  0  0  0  0  0  0
   36.8534   24.8455   36.5143 H   0  0  0  0  0  0  0  0  0  0  0  0
   40.7481   22.3124   38.0611 H   0  0  0  0  0  0  0  0  0  0  0  0
   40.4283   27.6775   35.1493 H   0  0  0  0  0  0  0  0  0  0  0  0
   41.5532   27.1787   32.1387 H   0  0  0  0  0  0  0  0  0  0  0  0
   42.1787   28.5040   33.2686 H   0  0  0  0  0  0  0  0  0  0  0  0
   41.9963   25.3844   33.9033 H   0  0  0  0  0  0  0  0  0  0  0  0
   42.9347   26.8823   35.2192 C   0  0  0  0  0  0  0  0  0  0  0  0
   42.7437   26.9741   36.6084 C   0  0  0  0  0  0  0  0  0  0  0  0
   43.8203   27.4067   37.2478 N   0  0  0  0  0  0  0  0  0  0  0  0
   44.7694   27.6207   36.3205 C   0  0  0  0  0  0  0  0  0  0  0  0
   46.0698   28.0675   36.4266 C   0  0  0  0  0  0  0  0  0  0  0  0
   46.8560   28.2044   35.3085 C   0  0  0  0  0  0  0  0  0  0  0  0
   46.3212   27.8856   34.0666 C   0  0  0  0  0  0  0  0  0  0  0  0
   45.0184   27.4415   33.9906 C   0  0  0  0  0  0  0  0  0  0  0  0
   44.2356   27.3039   35.0918 C   0  0  0  0  0  0  0  0  0  0  0  0
   41.8013   26.7147   37.1117 H   0  0  0  0  0  0  0  0  0  0  0  0
   43.8923   27.5465   38.2785 H   0  0  0  0  0  0  0  0  0  0  0  0
   46.4541   28.3069   37.4104 H   0  0  0  0  0  0  0  0  0  0  0  0
   47.8832   28.5569   35.3883 H   0  0  0  0  0  0  0  0  0  0  0  0
   46.9688   28.0039   33.1951 H   0  0  0  0  0  0  0  0  0  0  0  0
   44.6145   27.1962   33.0294 H   0  0  0  0  0  0  0  0  0  0  0  0
  1  5  1  0
  1  6  1  0
  2  1  1  0
  3  2  1  0
  3  4  1  0
  4  5  1  0
  6  9  1  0
  7 12  2  0
  8  7  1  0
  9 10  1  0
  9  8  2  0
 10 11  2  0
 11 12  1  0
 13 14  1  0
 13  5  1  0
 14 16  1  0
 15 14  1  0
 15 16  1  0
  2 17  1  0
  2 18  1  0
  3 19  1  0
  3 20  1  0
  4 21  1  0
  4 22  1  0
  5 23  1  1
  6 24  1  0
  6 25  1  0
  7 26  1  0
  8 27  1  0
 11 28  1  0
 14 29  1  1
 15 30  1  0
 15 31  1  0
 16 32  1  6
 33 34  2  0
 34 35  1  0
 35 36  1  0
 36 37  2  0
 37 38  1  0
 38 39  2  0
 39 40  1  0
 40 41  2  0
 41 33  1  0
 41 36  1  0
 34 42  1  0
 35 43  1  0
 37 44  1  0
 38 45  1  0
 39 46  1  0
 40 47  1  0
 16 33  1  0
M  ISO  8  17  13  18  13  19  13  20  13  21  13  22  13  23  13  24   8
M  ISO  8  25   8  26  14  27  14  28  14  29  13  30  13  31  13  32  13
M  END
>  <DihAtoms>  (1) 
13,15,32,33

>  <DihDeg>  (1) 
-94.19856026410412

$$$$
