
 OpenBabel03262518243D

 26 28  0  0  0  0  0  0  0  0999 V2000
   40.3330   23.0840   36.9160 C   0  0  0  0  0  0  0  0  0  0  0  0
   39.7130   23.8960   35.9530 C   0  0  0  0  0  0  0  0  0  0  0  0
   38.5050   24.5250   36.3210 C   0  0  0  0  0  0  0  0  0  0  0  0
   38.0080   24.3170   37.5680 N   0  0  0  0  0  0  0  0  0  0  0  0
   38.6440   23.5270   38.4550 C   0  0  0  0  0  0  0  0  0  0  0  0
   39.7980   22.9130   38.1350 N   0  0  0  0  0  0  0  0  0  0  0  0
   40.1380   24.0400   34.9650 H   0  0  0  0  0  0  0  0  0  0  0  0
   38.2000   23.4000   39.4310 H   0  0  0  0  0  0  0  0  0  0  0  0
   41.5830   22.4390   36.5180 C   0  0  0  0  0  0  0  0  0  0  0  0
   41.7960   21.1480   36.1040 C   0  0  0  0  0  0  0  0  0  0  0  0
   43.1050   20.9310   35.8230 N   0  0  0  0  0  0  0  0  0  0  0  0
   43.7810   22.0910   36.0510 C   0  0  0  0  0  0  0  0  0  0  0  0
   45.1300   22.4430   35.9310 C   0  0  0  0  0  0  0  0  0  0  0  0
   45.5190   23.7300   36.2440 C   0  0  0  0  0  0  0  0  0  0  0  0
   44.6130   24.7030   36.6800 C   0  0  0  0  0  0  0  0  0  0  0  0
   43.3060   24.2710   36.7710 C   0  0  0  0  0  0  0  0  0  0  0  0
   42.8400   23.0080   36.4760 C   0  0  0  0  0  0  0  0  0  0  0  0
   43.5750   20.0740   35.4930 H   0  0  0  0  0  0  0  0  0  0  0  0
   37.8180   25.3700   35.3850 N   0  0  0  0  0  0  0  0  0  0  0  0
   38.1050   26.7640   35.3800 C   0  0  0  0  0  0  0  0  0  0  0  0
   38.6270   27.3660   36.3980 N   0  0  0  0  0  0  0  0  0  0  0  0
   37.7810   27.4530   34.1830 N   0  0  0  0  0  0  0  0  0  0  0  0
   38.8580   28.3710   36.4190 H   0  0  0  0  0  0  0  0  0  0  0  0
   37.1330   24.8800   34.7540 H   0  0  0  0  0  0  0  0  0  0  0  0
   36.9340   28.0630   34.2140 H   0  0  0  0  0  0  0  0  0  0  0  0
   38.3050   27.4120   33.2670 H   0  0  0  0  0  0  0  0  0  0  0  0
  1  6  1  0  0  0  0
  2  3  1  0  0  0  0
  2  1  2  0  0  0  0
  3  4  2  0  0  0  0
  4  5  1  0  0  0  0
  5  8  1  0  0  0  0
  6  5  2  0  0  0  0
  7  2  1  0  0  0  0
  9  1  1  0  0  0  0
 10  9  2  0  0  0  0
 11 12  1  0  0  0  0
 11 10  1  0  0  0  0
 12 17  1  0  0  0  0
 13 12  2  0  0  0  0
 13 14  1  0  0  0  0
 14 15  2  0  0  0  0
 15 16  1  0  0  0  0
 17  9  1  0  0  0  0
 17 16  2  0  0  0  0
 18 11  1  0  0  0  0
 19  3  1  0  0  0  0
 20 19  1  0  0  0  0
 20 21  2  0  0  0  0
 21 23  1  0  0  0  0
 22 25  1  0  0  0  0
 22 20  1  0  0  0  0
 24 19  1  0  0  0  0
 26 22  1  0  0  0  0
M  END
>  <minimizedAffinity>
-5.17286921

>  <minimizedRMSD>
1.89856184

$$$$
