
 OpenBabel03262518443D

 40 45  0  0  1  0  0  0  0  0999 V2000
   37.6910   24.3600   31.8970 C   0  0  0  0  0  0  0  0  0  0  0  0
   36.9040   24.4820   30.8280 N   0  0  0  0  0  0  0  0  0  0  0  0
   35.9590   23.6010   30.8630 O   0  0  0  0  0  0  0  0  0  0  0  0
   36.1460   22.8950   31.9860 C   0  0  0  0  0  0  0  0  0  0  0  0
   37.2140   23.3270   32.6700 N   0  0  0  0  0  0  0  0  0  0  0  0
   36.2730   28.8570   31.5410 C   0  0  0  0  0  0  0  0  0  0  0  0
   35.5900   29.1010   32.7510 C   0  0  0  0  0  0  0  0  0  0  0  0
   35.9820   28.4190   33.8900 C   0  0  0  0  0  0  0  0  0  0  0  0
   37.0240   27.5360   33.7770 N   0  0  0  0  0  0  0  0  0  0  0  0
   37.6460   27.3310   32.6190 C   0  0  0  0  0  0  0  0  0  0  0  0
   37.2850   27.9800   31.4970 N   0  0  0  0  0  0  0  0  0  0  0  0
   38.7130   26.3910   32.6210 N   0  0  0  0  0  0  0  0  0  0  0  0
   39.8640   26.8900   32.9940 N   0  0  0  0  0  0  0  0  0  0  0  0
   40.8060   25.9120   32.9580 C   0  0  0  0  0  0  0  0  0  0  0  0
   40.2070   24.7810   32.5480 C   0  0  0  0  0  0  0  0  0  0  0  0
   38.8770   25.0870   32.3340 C   0  0  0  0  0  0  0  0  0  0  0  0
   34.7750   29.8090   32.7830 H   0  0  0  0  0  0  0  0  0  0  0  0
   35.5010   28.5630   34.8370 H   0  0  0  0  0  0  0  0  0  0  0  0
   41.8570   25.9770   33.2020 H   0  0  0  0  0  0  0  0  0  0  0  0
   40.5400   23.7710   32.3710 H   0  0  0  0  0  0  0  0  0  0  0  0
   35.8780   29.5530   30.3590 N   0  0  0  0  0  0  0  0  0  0  0  0
   36.6380   30.2510   30.1780 H   0  0  0  0  0  0  0  0  0  0  0  0
   35.0170   29.4100   29.7860 H   0  0  0  0  0  0  0  0  0  0  0  0
   35.2870   21.7630   32.4370 C   0  0  2  0  0  0  0  0  0  0  0  0
   35.8570   20.6960   33.3200 C   0  0  0  0  0  0  0  0  0  0  0  0
   35.4570   20.4010   31.8730 C   0  0  2  0  0  0  0  0  0  0  0  0
   34.2390   22.1060   32.6420 H   0  0  0  0  0  0  0  0  0  0  0  0
   35.1960   20.3710   34.1450 H   0  0  0  0  0  0  0  0  0  0  0  0
   36.9270   20.7720   33.5800 H   0  0  0  0  0  0  0  0  0  0  0  0
   34.5490   19.7500   31.8170 H   0  0  0  0  0  0  0  0  0  0  0  0
   36.5080   20.0680   30.8990 C   0  0  0  0  0  0  0  0  0  0  0  0
   36.4560   19.6820   29.5750 C   0  0  0  0  0  0  0  0  0  0  0  0
   37.6840   19.4770   29.0630 N   0  0  0  0  0  0  0  0  0  0  0  0
   38.5520   19.7340   30.0710 C   0  0  0  0  0  0  0  0  0  0  0  0
   39.9300   19.6660   30.0480 C   0  0  0  0  0  0  0  0  0  0  0  0
   40.6580   19.9640   31.1790 C   0  0  0  0  0  0  0  0  0  0  0  0
   39.9950   20.3360   32.3440 C   0  0  0  0  0  0  0  0  0  0  0  0
   38.6190   20.3930   32.3290 C   0  0  0  0  0  0  0  0  0  0  0  0
   37.8590   20.1000   31.2130 C   0  0  0  0  0  0  0  0  0  0  0  0
   37.8640   19.1800   28.0780 H   0  0  0  0  0  0  0  0  0  0  0  0
  1 16  1  0  0  0  0
  1  5  1  0  0  0  0
  2  3  1  0  0  0  0
  2  1  2  0  0  0  0
  3  4  1  0  0  0  0
  4 24  1  0  0  0  0
  4  5  2  0  0  0  0
  6  7  1  0  0  0  0
  7 17  1  0  0  0  0
  7  8  2  0  0  0  0
  8 18  1  0  0  0  0
  9  8  1  0  0  0  0
 10 12  1  0  0  0  0
 10  9  2  0  0  0  0
 11  6  2  0  0  0  0
 11 10  1  0  0  0  0
 12 13  1  0  0  0  0
 14 13  2  0  0  0  0
 14 19  1  0  0  0  0
 15 14  1  0  0  0  0
 16 15  2  0  0  0  0
 16 12  1  0  0  0  0
 20 15  1  0  0  0  0
 21  6  1  0  0  0  0
 22 21  1  0  0  0  0
 23 21  1  0  0  0  0
 24 27  1  1  0  0  0
 24 25  1  0  0  0  0
 25 29  1  0  0  0  0
 25 28  1  0  0  0  0
 26 30  1  6  0  0  0
 26 24  1  0  0  0  0
 26 25  1  0  0  0  0
 31 39  1  0  0  0  0
 31 26  1  0  0  0  0
 32 31  2  0  0  0  0
 33 32  1  0  0  0  0
 33 34  1  0  0  0  0
 34 39  1  0  0  0  0
 35 34  2  0  0  0  0
 35 36  1  0  0  0  0
 36 37  2  0  0  0  0
 38 37  1  0  0  0  0
 39 38  2  0  0  0  0
 40 33  1  0  0  0  0
M  END
>  <minimizedAffinity>
-5.51114702

>  <minimizedRMSD>
6.27938318

$$$$
