REMARK  Name = 
REMARK  6 active torsions:
REMARK  status: ('A' for Active; 'I' for Inactive)
REMARK    1  A    between atoms: C_1  and  C_4
REMARK    2  A    between atoms: C_1  and  C_8
REMARK    3  A    between atoms: C_1  and  C_9
REMARK    4  A    between atoms: C_9  and  N_10
REMARK    5  A    between atoms: C_14  and  C_15
REMARK    6  A    between atoms: C_17  and  C_33
REMARK                            x       y       z     vdW  Elec       q    Type
REMARK                         _______ _______ _______ _____ _____    ______ ____
ROOT
ATOM      1  N   UNL     1      37.581  25.436  33.072  0.00  0.00    +0.000 N 
ATOM      2  C   UNL     1      37.057  24.328  32.549  0.00  0.00    +0.000 A 
ATOM      3  C   UNL     1      36.054  24.564  31.630  0.00  0.00    +0.000 A 
ATOM      4  N   UNL     1      35.961  25.895  31.589  0.00  0.00    +0.000 NA
ATOM      5  C   UNL     1      36.872  26.407  32.448  0.00  0.00    +0.000 A 
ATOM      6  H   UNL     1      37.413  23.326  32.844  0.00  0.00    +0.000 HD
ATOM      7  H   UNL     1      35.520  23.779  31.109  0.00  0.00    +0.000 HD
ENDROOT
BRANCH   5   8
ATOM      8  C   UNL     1      36.993  27.918  32.582  0.00  0.00    +0.000 C 
ATOM      9  C   UNL     1      35.848  28.724  32.089  0.00  0.00    +0.000 C 
ATOM     10  C   UNL     1      36.065  28.601  33.545  0.00  0.00    +0.000 C 
ATOM     11  H   UNL     1      38.044  28.186  32.565  0.00  0.00    +0.000 HD
ATOM     12  H   UNL     1      35.907  29.659  31.547  0.00  0.00    +0.000 HD
ATOM     13  H   UNL     1      35.014  28.092  31.619  0.00  0.00    +0.000 HD
ATOM     14  H   UNL     1      35.346  27.849  34.011  0.00  0.00    +0.000 HD
BRANCH  10  15
ATOM     15  C   UNL     1      36.437  29.650  34.462  0.00  0.00    +0.000 A 
ATOM     16  C   UNL     1      37.728  29.877  34.971  0.00  0.00    +0.000 A 
ATOM     17  N   UNL     1      37.757  30.878  35.829  0.00  0.00    +0.000 N 
ATOM     18  C   UNL     1      36.536  31.402  35.974  0.00  0.00    +0.000 A 
ATOM     19  C   UNL     1      36.014  32.429  36.709  0.00  0.00    +0.000 A 
ATOM     20  C   UNL     1      34.686  32.767  36.659  0.00  0.00    +0.000 A 
ATOM     21  C   UNL     1      33.886  32.020  35.825  0.00  0.00    +0.000 A 
ATOM     22  C   UNL     1      34.422  30.991  35.092  0.00  0.00    +0.000 A 
ATOM     23  C   UNL     1      35.754  30.643  35.137  0.00  0.00    +0.000 A 
ATOM     24  H   UNL     1      38.609  31.232  36.339  0.00  0.00    +0.000 HD
ENDBRANCH  10  15
ENDBRANCH   5   8
BRANCH   1  25
ATOM     25  C   UNL     1      38.583  25.716  34.026  0.00  0.00    +0.000 C 
ATOM     26  H   UNL     1      39.366  24.911  33.986  0.00  0.00    +0.000 HD
ATOM     27  H   UNL     1      39.110  26.668  33.772  0.00  0.00    +0.000 HD
BRANCH  25  28
ATOM     28  C   UNL     1      38.077  25.765  35.420  0.00  0.00    +0.000 C 
ATOM     29  H   UNL     1      36.964  25.610  35.414  0.00  0.00    +0.000 HD
BRANCH  28  32
ATOM     30  C   UNL     1      38.642  23.373  38.302  0.00  0.00    +0.000 A 
ATOM     31  C   UNL     1      38.035  24.410  37.568  0.00  0.00    +0.000 A 
ATOM     32  C   UNL     1      38.640  24.705  36.293  0.00  0.00    +0.000 A 
ATOM     33  N   UNL     1      39.744  23.984  35.867  0.00  0.00    +0.000 NA
ATOM     34  C   UNL     1      40.262  23.015  36.617  0.00  0.00    +0.000 A 
ATOM     35  N   UNL     1      39.713  22.704  37.842  0.00  0.00    +0.000 NA
ATOM     36  H   UNL     1      38.209  23.133  39.260  0.00  0.00    +0.000 HD
ATOM     37  H   UNL     1      37.191  24.975  37.874  0.00  0.00    +0.000 HD
ATOM     38  H   UNL     1      41.120  22.526  36.178  0.00  0.00    +0.000 HD
ENDBRANCH  28  32
BRANCH  28  39
ATOM     39  C   UNL     1      38.346  27.136  36.028  0.00  0.00    +0.000 C 
ATOM     40  H   UNL     1      38.561  27.913  35.303  0.00  0.00    +0.000 HD
ATOM     41  H   UNL     1      37.547  27.338  36.740  0.00  0.00    +0.000 HD
ATOM     42  H   UNL     1      39.274  27.008  36.664  0.00  0.00    +0.000 HD
ENDBRANCH  28  39
ENDBRANCH  25  28
ENDBRANCH   1  25
TORSDOF 6
