REMARK  Name = 
REMARK  5 active torsions:
REMARK  status: ('A' for Active; 'I' for Inactive)
REMARK    1  A    between atoms: N_1  and  C_6
REMARK    2  A    between atoms: C_5  and  O_13
REMARK    3  A    between atoms: C_6  and  C_9
REMARK    4  A    between atoms: O_13  and  C_14
REMARK    5  A    between atoms: C_16  and  C_33
REMARK                            x       y       z     vdW  Elec       q    Type
REMARK                         _______ _______ _______ _____ _____    ______ ____
ROOT
ATOM      1  N   UNL     1      37.646  25.374  34.368  0.00  0.00    +0.000 NA
ATOM      2  C   UNL     1      37.114  25.403  33.023  0.00  0.00    +0.000 C 
ATOM      3  C   UNL     1      36.848  26.840  32.727  0.00  0.00    +0.000 C 
ATOM      4  C   UNL     1      37.295  27.569  33.983  0.00  0.00    +0.000 C 
ATOM      5  C   UNL     1      38.398  26.583  34.469  0.00  0.00    +0.000 C 
ATOM      6  H   UNL     1      37.936  25.069  32.328  0.00  0.00    +0.000 HD
ATOM      7  H   UNL     1      36.187  24.822  32.892  0.00  0.00    +0.000 HD
ATOM      8  H   UNL     1      37.354  27.227  31.821  0.00  0.00    +0.000 HD
ATOM      9  H   UNL     1      35.745  27.046  32.624  0.00  0.00    +0.000 HD
ATOM     10  H   UNL     1      37.777  28.543  33.749  0.00  0.00    +0.000 HD
ATOM     11  H   UNL     1      36.518  27.619  34.750  0.00  0.00    +0.000 HD
ATOM     12  H   UNL     1      38.663  26.908  35.479  0.00  0.00    +0.000 HD
ENDROOT
BRANCH   1  13
ATOM     13  C   UNL     1      38.553  24.281  34.558  0.00  0.00    +0.000 C 
ATOM     14  H   UNL     1      39.569  24.481  34.147  0.00  0.00    +0.000 HD
ATOM     15  H   UNL     1      38.169  23.381  34.035  0.00  0.00    +0.000 HD
BRANCH  13  18
ATOM     16  C   UNL     1      37.862  23.911  38.268  0.00  0.00    +0.000 A 
ATOM     17  C   UNL     1      37.683  24.286  36.939  0.00  0.00    +0.000 A 
ATOM     18  C   UNL     1      38.678  23.913  36.003  0.00  0.00    +0.000 A 
ATOM     19  N   UNL     1      39.755  23.208  36.458  0.00  0.00    +0.000 NA
ATOM     20  C   UNL     1      39.872  22.873  37.760  0.00  0.00    +0.000 A 
ATOM     21  N   UNL     1      38.922  23.229  38.650  0.00  0.00    +0.000 NA
ATOM     22  H   UNL     1      37.023  24.269  38.846  0.00  0.00    +0.000 HD
ATOM     23  H   UNL     1      36.853  24.846  36.514  0.00  0.00    +0.000 HD
ATOM     24  H   UNL     1      40.748  22.312  38.061  0.00  0.00    +0.000 HD
ENDBRANCH  13  18
ENDBRANCH   1  13
BRANCH   5  25
ATOM     25  O   UNL     1      39.490  26.606  33.646  0.00  0.00    +0.000 OA
BRANCH  25  26
ATOM     26  C   UNL     1      40.617  27.172  34.195  0.00  0.00    +0.000 C 
ATOM     27  C   UNL     1      41.683  27.525  33.184  0.00  0.00    +0.000 C 
ATOM     28  C   UNL     1      41.914  26.435  34.213  0.00  0.00    +0.000 C 
ATOM     29  H   UNL     1      40.428  27.677  35.149  0.00  0.00    +0.000 HD
ATOM     30  H   UNL     1      41.553  27.179  32.139  0.00  0.00    +0.000 HD
ATOM     31  H   UNL     1      42.179  28.504  33.269  0.00  0.00    +0.000 HD
ATOM     32  H   UNL     1      41.996  25.384  33.903  0.00  0.00    +0.000 HD
BRANCH  28  33
ATOM     33  C   UNL     1      42.935  26.882  35.219  0.00  0.00    +0.000 A 
ATOM     34  C   UNL     1      42.744  26.974  36.608  0.00  0.00    +0.000 A 
ATOM     35  N   UNL     1      43.820  27.407  37.248  0.00  0.00    +0.000 N 
ATOM     36  C   UNL     1      44.769  27.621  36.321  0.00  0.00    +0.000 A 
ATOM     37  C   UNL     1      46.070  28.067  36.427  0.00  0.00    +0.000 A 
ATOM     38  C   UNL     1      46.856  28.204  35.309  0.00  0.00    +0.000 A 
ATOM     39  C   UNL     1      46.321  27.886  34.067  0.00  0.00    +0.000 A 
ATOM     40  C   UNL     1      45.018  27.442  33.991  0.00  0.00    +0.000 A 
ATOM     41  C   UNL     1      44.236  27.304  35.092  0.00  0.00    +0.000 A 
ATOM     42  H   UNL     1      43.892  27.547  38.279  0.00  0.00    +0.000 HD
ENDBRANCH  28  33
ENDBRANCH  25  26
ENDBRANCH   5  25
TORSDOF 5
