
     RDKit          3D

 39 43  0  0  0  0  0  0  0  0999 V2000
   40.7064   21.9295   37.6190 O   0  0  0  0  0  0  0  0  0  0  0  0
   41.9215   22.0601   37.0083 C   0  0  0  0  0  0  0  0  0  0  0  0
   42.4175   23.2119   36.4359 C   0  0  0  0  0  0  0  0  0  0  0  0
   43.6342   23.0188   35.9199 N   0  0  0  0  0  0  0  0  0  0  0  0
   44.0105   21.7258   36.1233 C   0  0  0  0  0  0  0  0  0  0  0  0
   45.1396   20.9960   35.8046 C   0  0  0  0  0  0  0  0  0  0  0  0
   45.2042   19.6616   36.1643 C   0  0  0  0  0  0  0  0  0  0  0  0
   44.1481   19.0596   36.8383 C   0  0  0  0  0  0  0  0  0  0  0  0
   43.0257   19.8018   37.1505 C   0  0  0  0  0  0  0  0  0  0  0  0
   42.9470   21.1437   36.7951 C   0  0  0  0  0  0  0  0  0  0  0  0
   39.6023   22.6874   37.4194 C   0  0  0  0  0  0  0  0  0  0  0  0
   39.0912   23.3762   38.5180 C   0  0  0  0  0  0  0  0  0  0  0  0
   37.9515   24.1614   38.3243 C   0  0  0  0  0  0  0  0  0  0  0  0
   37.3977   24.2173   37.0842 N   0  0  0  0  0  0  0  0  0  0  0  0
   37.9273   23.5329   36.0492 C   0  0  0  0  0  0  0  0  0  0  0  0
   39.0202   22.7750   36.2166 N   0  0  0  0  0  0  0  0  0  0  0  0
   41.8696   24.1521   36.4172 H   0  0  0  0  0  0  0  0  0  0  0  0
   44.2338   23.7119   35.4337 H   0  0  0  0  0  0  0  0  0  0  0  0
   45.9592   21.4592   35.2830 H   0  0  0  0  0  0  0  0  0  0  0  0
   46.0873   19.0823   35.9173 H   0  0  0  0  0  0  0  0  0  0  0  0
   44.2137   18.0114   37.1138 H   0  0  0  0  0  0  0  0  0  0  0  0
   42.2039   19.3343   37.6748 H   0  0  0  0  0  0  0  0  0  0  0  0
   39.5523   23.3128   39.4913 H   0  0  0  0  0  0  0  0  0  0  0  0
   37.5274   24.7089   39.1515 H   0  0  0  0  0  0  0  0  0  0  0  0
   37.2986   23.6216   34.7296 C   0  0  0  0  0  0  0  0  0  0  0  0
   36.8640   24.7848   34.1286 C   0  0  0  0  0  0  0  0  0  0  0  0
   36.3425   24.4673   32.9234 N   0  0  0  0  0  0  0  0  0  0  0  0
   36.4379   23.1204   32.7467 C   0  0  0  0  0  0  0  0  0  0  0  0
   36.0622   22.2908   31.7082 C   0  0  0  0  0  0  0  0  0  0  0  0
   36.2555   20.9179   31.7335 C   0  0  0  0  0  0  0  0  0  0  0  0
   36.8559   20.4306   32.8802 C   0  0  0  0  0  0  0  0  0  0  0  0
   37.2544   21.2046   33.9515 C   0  0  0  0  0  0  0  0  0  0  0  0
   37.0409   22.5653   33.8795 C   0  0  0  0  0  0  0  0  0  0  0  0
   36.9362   25.7739   34.5627 H   0  0  0  0  0  0  0  0  0  0  0  0
   35.9234   25.1061   32.2074 H   0  0  0  0  0  0  0  0  0  0  0  0
   35.5914   22.6841   30.8124 H   0  0  0  0  0  0  0  0  0  0  0  0
   35.9623   20.2626   30.9210 H   0  0  0  0  0  0  0  0  0  0  0  0
   37.0076   19.3474   32.8983 H   0  0  0  0  0  0  0  0  0  0  0  0
   37.7197   20.7668   34.8230 H   0  0  0  0  0  0  0  0  0  0  0  0
  2  1  1  0
  3  2  2  0
  4  5  1  0
  4  3  1  0
  5 10  2  0
  6  5  1  0
  6  7  2  0
  7  8  1  0
  8  9  2  0
 10  2  1  0
 10  9  1  0
 11  1  1  0
 11 12  2  0
 13 12  1  0
 14 13  2  0
 15 16  2  0
 15 14  1  0
 16 11  1  0
  3 17  1  0
  4 18  1  0
  6 19  1  0
  7 20  1  0
  8 21  1  0
  9 22  1  0
 12 23  1  0
 13 24  1  0
 25 26  2  0
 26 27  1  0
 27 28  1  0
 28 29  2  0
 29 30  1  0
 30 31  2  0
 31 32  1  0
 32 33  2  0
 33 25  1  0
 33 28  1  0
 26 34  1  0
 27 35  1  0
 29 36  1  0
 30 37  1  0
 31 38  1  0
 32 39  1  0
 15 25  1  0
M  ISO  8  17  14  18   9  19  14  20  14  21  14  22  14  23  14  24  14
M  END
>  <DihAtoms>  (1) 
15,14,24,25

>  <DihDeg>  (1) 
0.0007323099351249469

$$$$
