REMARK  Name = 
REMARK  3 active torsions:
REMARK  status: ('A' for Active; 'I' for Inactive)
REMARK    1  A    between atoms: O_1  and  C_2
REMARK    2  A    between atoms: O_1  and  C_11
REMARK    3  A    between atoms: C_15  and  C_25
REMARK                            x       y       z     vdW  Elec       q    Type
REMARK                         _______ _______ _______ _____ _____    ______ ____
ROOT
ATOM      1  C   UNL     1      39.602  22.687  37.419  0.00  0.00    +0.000 A 
ATOM      2  C   UNL     1      39.091  23.376  38.518  0.00  0.00    +0.000 A 
ATOM      3  C   UNL     1      37.952  24.161  38.324  0.00  0.00    +0.000 A 
ATOM      4  N   UNL     1      37.398  24.217  37.084  0.00  0.00    +0.000 NA
ATOM      5  C   UNL     1      37.927  23.533  36.049  0.00  0.00    +0.000 A 
ATOM      6  N   UNL     1      39.020  22.775  36.217  0.00  0.00    +0.000 NA
ATOM      7  H   UNL     1      39.552  23.313  39.491  0.00  0.00    +0.000 HD
ATOM      8  H   UNL     1      37.527  24.709  39.151  0.00  0.00    +0.000 HD
ENDROOT
BRANCH   5   9
ATOM      9  C   UNL     1      37.299  23.622  34.730  0.00  0.00    +0.000 A 
ATOM     10  C   UNL     1      36.864  24.785  34.129  0.00  0.00    +0.000 A 
ATOM     11  N   UNL     1      36.343  24.467  32.923  0.00  0.00    +0.000 N 
ATOM     12  C   UNL     1      36.438  23.120  32.747  0.00  0.00    +0.000 A 
ATOM     13  C   UNL     1      36.062  22.291  31.708  0.00  0.00    +0.000 A 
ATOM     14  C   UNL     1      36.255  20.918  31.733  0.00  0.00    +0.000 A 
ATOM     15  C   UNL     1      36.856  20.431  32.880  0.00  0.00    +0.000 A 
ATOM     16  C   UNL     1      37.254  21.205  33.952  0.00  0.00    +0.000 A 
ATOM     17  C   UNL     1      37.041  22.565  33.880  0.00  0.00    +0.000 A 
ATOM     18  H   UNL     1      35.923  25.106  32.207  0.00  0.00    +0.000 HD
ENDBRANCH   5   9
BRANCH   1  19
ATOM     19  O   UNL     1      40.706  21.930  37.619  0.00  0.00    +0.000 OA
BRANCH  19  20
ATOM     20  C   UNL     1      41.922  22.060  37.008  0.00  0.00    +0.000 A 
ATOM     21  C   UNL     1      42.417  23.212  36.436  0.00  0.00    +0.000 A 
ATOM     22  N   UNL     1      43.634  23.019  35.920  0.00  0.00    +0.000 N 
ATOM     23  C   UNL     1      44.011  21.726  36.123  0.00  0.00    +0.000 A 
ATOM     24  C   UNL     1      45.140  20.996  35.805  0.00  0.00    +0.000 A 
ATOM     25  C   UNL     1      45.204  19.662  36.164  0.00  0.00    +0.000 A 
ATOM     26  C   UNL     1      44.148  19.060  36.838  0.00  0.00    +0.000 A 
ATOM     27  C   UNL     1      43.026  19.802  37.151  0.00  0.00    +0.000 A 
ATOM     28  C   UNL     1      42.947  21.144  36.795  0.00  0.00    +0.000 A 
ATOM     29  H   UNL     1      41.870  24.152  36.417  0.00  0.00    +0.000 HD
ATOM     30  H   UNL     1      44.234  23.712  35.434  0.00  0.00    +0.000 HD
ATOM     31  H   UNL     1      45.959  21.459  35.283  0.00  0.00    +0.000 HD
ATOM     32  H   UNL     1      46.087  19.082  35.917  0.00  0.00    +0.000 HD
ATOM     33  H   UNL     1      44.214  18.011  37.114  0.00  0.00    +0.000 HD
ATOM     34  H   UNL     1      42.204  19.334  37.675  0.00  0.00    +0.000 HD
ENDBRANCH  19  20
ENDBRANCH   1  19
TORSDOF 3
