
 OpenBabel03262519303D

 34 38  0  0  0  0  0  0  0  0999 V2000
   39.8410   22.4060   37.1960 C   0  0  0  0  0  0  0  0  0  0  0  0
   39.1710   23.1720   38.1490 C   0  0  0  0  0  0  0  0  0  0  0  0
   38.0110   23.8410   37.7510 C   0  0  0  0  0  0  0  0  0  0  0  0
   37.5910   23.7150   36.4640 N   0  0  0  0  0  0  0  0  0  0  0  0
   38.2720   22.9630   35.5760 C   0  0  0  0  0  0  0  0  0  0  0  0
   39.3870   22.3150   35.9400 N   0  0  0  0  0  0  0  0  0  0  0  0
   39.5280   23.2540   39.1640 H   0  0  0  0  0  0  0  0  0  0  0  0
   37.4650   24.4430   38.4610 H   0  0  0  0  0  0  0  0  0  0  0  0
   37.7850   22.8550   34.2000 C   0  0  0  0  0  0  0  0  0  0  0  0
   38.1430   23.6860   33.1580 C   0  0  0  0  0  3  0  0  0  0  0  0
   37.4920   23.2750   32.0480 N   0  0  0  0  0  0  0  0  0  0  0  0
   36.7230   22.1970   32.3660 C   0  0  0  0  0  0  0  0  0  0  0  0
   35.8730   21.4080   31.6140 C   0  0  0  0  0  3  0  0  0  0  0  0
   35.1730   20.3370   32.1460 C   0  0  0  0  0  3  0  0  0  0  0  0
   35.3850   20.1090   33.4940 C   0  0  0  0  0  3  0  0  0  0  0  0
   36.2180   20.8590   34.3000 C   0  0  0  0  0  3  0  0  0  0  0  0
   36.8930   21.9140   33.7250 C   0  0  0  0  0  0  0  0  0  0  0  0
   37.5320   23.6790   31.0820 H   0  0  0  0  0  0  0  0  0  0  0  0
   40.9640   21.7630   37.5930 O   0  0  0  0  0  0  0  0  0  0  0  0
   42.1920   21.7940   36.9940 C   0  0  0  0  0  0  0  0  0  0  0  0
   42.8110   22.9130   36.4810 C   0  0  0  0  0  0  0  0  0  0  0  0
   44.0050   22.6180   35.9600 N   0  0  0  0  0  0  0  0  0  0  0  0
   44.2420   21.2840   36.1010 C   0  0  0  0  0  0  0  0  0  0  0  0
   45.2910   20.4550   35.7520 C   0  0  0  0  0  0  0  0  0  0  0  0
   45.2110   19.1060   36.0460 C   0  0  0  0  0  0  0  0  0  0  0  0
   44.0920   18.5870   36.6860 C   0  0  0  0  0  0  0  0  0  0  0  0
   43.0510   19.4270   37.0310 C   0  0  0  0  0  0  0  0  0  0  0  0
   43.1170   20.7860   36.7400 C   0  0  0  0  0  0  0  0  0  0  0  0
   42.3660   23.9050   36.5050 H   0  0  0  0  0  0  0  0  0  0  0  0
   44.6790   23.2660   35.5110 H   0  0  0  0  0  0  0  0  0  0  0  0
   46.1590   20.8530   35.2570 H   0  0  0  0  0  0  0  0  0  0  0  0
   46.0300   18.4480   35.7750 H   0  0  0  0  0  0  0  0  0  0  0  0
   44.0440   17.5250   36.9110 H   0  0  0  0  0  0  0  0  0  0  0  0
   42.1800   19.0240   37.5280 H   0  0  0  0  0  0  0  0  0  0  0  0
  1 19  1  0  0  0  0
  1  2  1  0  0  0  0
  2  7  1  0  0  0  0
  3  2  2  0  0  0  0
  3  8  1  0  0  0  0
  4  3  1  0  0  0  0
  5  6  1  0  0  0  0
  5  4  2  0  0  0  0
  6  1  2  0  0  0  0
  9  5  1  0  0  0  0
 10  9  2  0  0  0  0
 11 12  1  0  0  0  0
 11 10  1  0  0  0  0
 12 17  1  0  0  0  0
 13 14  1  0  0  0  0
 13 12  2  0  0  0  0
 14 15  2  0  0  0  0
 15 16  1  0  0  0  0
 17  9  1  0  0  0  0
 17 16  2  0  0  0  0
 18 11  1  0  0  0  0
 20 19  1  0  0  0  0
 21 29  1  0  0  0  0
 21 20  2  0  0  0  0
 22 23  1  0  0  0  0
 22 21  1  0  0  0  0
 23 28  1  0  0  0  0
 24 25  1  0  0  0  0
 24 23  2  0  0  0  0
 25 26  2  0  0  0  0
 26 33  1  0  0  0  0
 26 27  1  0  0  0  0
 27 34  1  0  0  0  0
 28 20  1  0  0  0  0
 28 27  2  0  0  0  0
 30 22  1  0  0  0  0
 31 24  1  0  0  0  0
 32 25  1  0  0  0  0
M  END
>  <minimizedAffinity>
-5.86196375

>  <minimizedRMSD>
0.921385229

$$$$
