
     RDKit          3D

 40 43  0  0  0  0  0  0  0  0999 V2000
   43.1265   23.3336   36.5349 C   0  0  0  0  0  0  0  0  0  0  0  0
   41.7330   23.1058   36.4038 C   0  0  0  0  0  0  0  0  0  0  0  0
   41.1744   24.0403   35.6270 C   0  0  0  0  0  0  0  0  0  0  0  0
   41.9001   25.0751   35.0485 N   0  0  0  0  0  0  0  0  0  0  0  0
   43.2084   25.2222   35.2180 C   0  0  0  0  0  0  0  0  0  0  0  0
   43.8217   24.3400   35.9696 N   0  0  0  0  0  0  0  0  0  0  0  0
   41.2375   21.9689   37.0887 C   0  0  0  0  0  0  0  0  0  0  0  0
   40.4839   22.3169   38.2371 F   0  0  0  0  0  0  0  0  0  0  0  0
   42.0350   21.1887   37.8394 F   0  0  0  0  0  0  0  0  0  0  0  0
   40.1467   21.2872   36.5463 F   0  0  0  0  0  0  0  0  0  0  0  0
   39.7884   23.9138   35.3818 C   0  0  0  0  0  0  0  0  0  0  0  0
   39.0236   25.0986   35.7215 C   0  0  0  0  0  0  0  0  0  0  0  0
   37.7756   24.6698   36.5099 C   0  0  2  0  0  0  0  0  0  0  0  0
   38.0015   24.3746   37.9152 C   0  0  0  0  0  0  0  0  0  0  0  0
   37.5509   23.3245   36.9312 C   0  0  1  0  0  0  0  0  0  0  0  0
   43.7767   22.6716   37.1390 H   0  0  0  0  0  0  0  0  0  0  0  0
   43.6479   26.0655   34.7141 H   0  0  0  0  0  0  0  0  0  0  0  0
   39.7628   23.9098   34.2271 H   0  0  0  0  0  0  0  0  0  0  0  0
   39.2242   23.0411   35.5686 H   0  0  0  0  0  0  0  0  0  0  0  0
   39.6277   25.7011   36.4665 H   0  0  0  0  0  0  0  0  0  0  0  0
   38.8218   25.8112   34.9124 H   0  0  0  0  0  0  0  0  0  0  0  0
   36.9120   25.2594   36.1292 H   0  0  0  0  0  0  0  0  0  0  0  0
   37.2729   24.4923   38.7335 H   0  0  0  0  0  0  0  0  0  0  0  0
   38.9930   24.4936   38.3017 H   0  0  0  0  0  0  0  0  0  0  0  0
   38.0063   22.4517   37.2647 H   0  0  0  0  0  0  0  0  0  0  0  0
   36.0874   22.9203   36.8971 C   0  0  0  0  0  0  0  0  0  0  0  0
   35.1574   23.9473   37.0118 C   0  0  0  0  0  0  0  0  0  0  0  0
   33.9509   23.3488   36.9912 N   0  0  0  0  0  0  0  0  0  0  0  0
   34.0809   21.9960   36.8683 C   0  0  0  0  0  0  0  0  0  0  0  0
   33.2161   20.9277   36.7900 C   0  0  0  0  0  0  0  0  0  0  0  0
   33.7440   19.6398   36.6540 C   0  0  0  0  0  0  0  0  0  0  0  0
   35.1176   19.3989   36.5946 C   0  0  0  0  0  0  0  0  0  0  0  0
   35.9413   20.5026   36.6776 C   0  0  0  0  0  0  0  0  0  0  0  0
   35.4379   21.7594   36.8112 C   0  0  0  0  0  0  0  0  0  0  0  0
   35.2157   25.0430   37.1065 H   0  0  0  0  0  0  0  0  0  0  0  0
   33.0070   23.8015   37.0563 H   0  0  0  0  0  0  0  0  0  0  0  0
   32.1784   21.1485   36.8384 H   0  0  0  0  0  0  0  0  0  0  0  0
   33.0038   18.8440   36.5984 H   0  0  0  0  0  0  0  0  0  0  0  0
   35.4425   18.3664   36.4877 H   0  0  0  0  0  0  0  0  0  0  0  0
   36.9924   20.2700   36.6145 H   0  0  0  0  0  0  0  0  0  0  0  0
  2  1  2  0
  2  7  1  0
  3  2  1  0
  4  5  1  0
  4  3  2  0
  5  6  2  0
  6  1  1  0
  7  9  1  0
  7  8  1  0
 10  7  1  0
 11  3  1  0
 11 12  1  0
 12 13  1  0
 13 15  1  0
 13 14  1  0
 15 14  1  0
  1 16  1  0
  5 17  1  0
 11 18  1  0
 11 19  1  0
 12 20  1  0
 12 21  1  0
 13 22  1  1
 14 23  1  0
 14 24  1  0
 15 25  1  6
 26 27  2  0
 27 28  1  0
 28 29  1  0
 29 30  2  0
 30 31  1  0
 31 32  2  0
 32 33  1  0
 33 34  2  0
 34 26  1  0
 34 29  1  0
 27 35  1  0
 28 36  1  0
 30 37  1  0
 31 38  1  0
 32 39  1  0
 33 40  1  0
 15 26  1  0
M  ISO  8  16  14  17  14  18   8  19   8  20   8  21   8  22  13  23  13
M  ISO  2  24  13  25  13
M  END
>  <DihAtoms>  (1) 
12,14,25,26

>  <DihDeg>  (1) 
64.72694160866166

$$$$
