
 OpenBabel03262519313D

 34 38  0  0  0  0  0  0  0  0999 V2000
   39.7850   22.7690   37.3320 C   0  0  0  0  0  0  0  0  0  0  0  0
   39.0160   23.2880   38.3730 C   0  0  0  0  0  0  0  0  0  0  0  0
   37.8800   24.0300   38.0370 C   0  0  0  0  0  0  0  0  0  0  0  0
   37.5800   24.2110   36.7240 N   0  0  0  0  0  0  0  0  0  0  0  0
   38.3540   23.6890   35.7500 C   0  0  0  0  0  0  0  0  0  0  0  0
   39.4470   22.9750   36.0540 N   0  0  0  0  0  0  0  0  0  0  0  0
   39.2790   23.1290   39.4060 H   0  0  0  0  0  0  0  0  0  0  0  0
   37.2600   24.4480   38.8150 H   0  0  0  0  0  0  0  0  0  0  0  0
   37.9940   23.9080   34.3490 C   0  0  0  0  0  0  0  0  0  0  0  0
   38.1310   25.0980   33.6650 C   0  0  0  0  0  3  0  0  0  0  0  0
   37.6950   24.9110   32.4000 N   0  0  0  0  0  0  0  0  0  0  0  0
   37.2810   23.6200   32.2660 C   0  0  0  0  0  0  0  0  0  0  0  0
   36.7550   22.9190   31.1990 C   0  0  0  0  0  3  0  0  0  0  0  0
   36.3940   21.5830   31.2810 C   0  0  0  0  0  3  0  0  0  0  0  0
   36.5970   20.9950   32.5160 C   0  0  0  0  0  3  0  0  0  0  0  0
   37.1180   21.6380   33.6210 C   0  0  0  0  0  3  0  0  0  0  0  0
   37.4620   22.9680   33.4900 C   0  0  0  0  0  0  0  0  0  0  0  0
   37.6580   25.6040   31.6150 H   0  0  0  0  0  0  0  0  0  0  0  0
   40.8820   22.0520   37.6690 O   0  0  0  0  0  0  0  0  0  0  0  0
   42.0960   22.0490   37.0400 C   0  0  0  0  0  0  0  0  0  0  0  0
   42.7370   23.1530   36.5220 C   0  0  0  0  0  0  0  0  0  0  0  0
   43.9080   22.8250   35.9690 N   0  0  0  0  0  0  0  0  0  0  0  0
   44.1050   21.4830   36.0910 C   0  0  0  0  0  0  0  0  0  0  0  0
   45.1180   20.6240   35.7080 C   0  0  0  0  0  0  0  0  0  0  0  0
   45.0010   19.2750   35.9910 C   0  0  0  0  0  0  0  0  0  0  0  0
   43.8820   18.7860   36.6540 C   0  0  0  0  0  0  0  0  0  0  0  0
   42.8780   19.6560   37.0330 C   0  0  0  0  0  0  0  0  0  0  0  0
   42.9810   21.0150   36.7530 C   0  0  0  0  0  0  0  0  0  0  0  0
   42.3260   24.1590   36.5670 H   0  0  0  0  0  0  0  0  0  0  0  0
   44.5920   23.4560   35.5090 H   0  0  0  0  0  0  0  0  0  0  0  0
   45.9850   20.9990   35.1950 H   0  0  0  0  0  0  0  0  0  0  0  0
   45.7920   18.5950   35.6930 H   0  0  0  0  0  0  0  0  0  0  0  0
   43.8060   17.7240   36.8700 H   0  0  0  0  0  0  0  0  0  0  0  0
   42.0070   19.2760   37.5480 H   0  0  0  0  0  0  0  0  0  0  0  0
  1 19  1  0  0  0  0
  1  2  1  0  0  0  0
  2  7  1  0  0  0  0
  3  2  2  0  0  0  0
  3  8  1  0  0  0  0
  4  3  1  0  0  0  0
  5  6  1  0  0  0  0
  5  4  2  0  0  0  0
  6  1  2  0  0  0  0
  9  5  1  0  0  0  0
 10  9  2  0  0  0  0
 11 10  1  0  0  0  0
 12 11  1  0  0  0  0
 12 17  1  0  0  0  0
 13 14  1  0  0  0  0
 13 12  2  0  0  0  0
 14 15  2  0  0  0  0
 15 16  1  0  0  0  0
 17 16  2  0  0  0  0
 17  9  1  0  0  0  0
 18 11  1  0  0  0  0
 20 19  1  0  0  0  0
 21 29  1  0  0  0  0
 21 20  2  0  0  0  0
 22 23  1  0  0  0  0
 22 21  1  0  0  0  0
 23 28  1  0  0  0  0
 24 25  1  0  0  0  0
 24 23  2  0  0  0  0
 25 26  2  0  0  0  0
 26 33  1  0  0  0  0
 26 27  1  0  0  0  0
 27 34  1  0  0  0  0
 28 27  2  0  0  0  0
 28 20  1  0  0  0  0
 30 22  1  0  0  0  0
 31 24  1  0  0  0  0
 32 25  1  0  0  0  0
M  END
>  <minimizedAffinity>
-5.63455439

>  <minimizedRMSD>
0.737737894

$$$$
