REMARK  Name = 
REMARK  5 active torsions:
REMARK  status: ('A' for Active; 'I' for Inactive)
REMARK    1  A    between atoms: C_1  and  C_4
REMARK    2  A    between atoms: C_1  and  C_8
REMARK    3  A    between atoms: C_1  and  C_9
REMARK    4  A    between atoms: C_9  and  N_10
REMARK    5  A    between atoms: C_14  and  C_26
REMARK                            x       y       z     vdW  Elec       q    Type
REMARK                         _______ _______ _______ _____ _____    ______ ____
ROOT
ATOM      1  C   UNL     1      38.587  25.717  36.342  0.00  0.00    +0.000 C 
ATOM      2  H   UNL     1      39.681  25.741  36.208  0.00  0.00    +0.000 HD
ATOM      3  H   UNL     1      38.341  26.414  37.169  0.00  0.00    +0.000 HD
ENDROOT
BRANCH   1   4
ATOM      4  N   UNL     1      37.941  26.102  35.158  0.00  0.00    +0.000 N 
ATOM      5  C   UNL     1      37.671  25.482  33.972  0.00  0.00    +0.000 A 
ATOM      6  C   UNL     1      36.949  26.227  33.070  0.00  0.00    +0.000 A 
ATOM      7  N   UNL     1      36.757  27.373  33.721  0.00  0.00    +0.000 NA
ATOM      8  C   UNL     1      37.352  27.304  34.972  0.00  0.00    +0.000 A 
ATOM      9  H   UNL     1      38.007  24.466  33.763  0.00  0.00    +0.000 HD
ATOM     10  H   UNL     1      36.649  25.911  32.105  0.00  0.00    +0.000 HD
BRANCH   8  11
ATOM     11  C   UNL     1      37.154  28.510  35.753  0.00  0.00    +0.000 A 
ATOM     12  C   UNL     1      38.155  29.394  36.188  0.00  0.00    +0.000 A 
ATOM     13  N   UNL     1      37.685  30.392  36.947  0.00  0.00    +0.000 N 
ATOM     14  C   UNL     1      36.374  30.226  37.054  0.00  0.00    +0.000 A 
ATOM     15  C   UNL     1      35.443  30.969  37.745  0.00  0.00    +0.000 A 
ATOM     16  C   UNL     1      34.121  30.603  37.751  0.00  0.00    +0.000 A 
ATOM     17  C   UNL     1      33.765  29.483  37.053  0.00  0.00    +0.000 A 
ATOM     18  C   UNL     1      34.728  28.775  36.379  0.00  0.00    +0.000 A 
ATOM     19  C   UNL     1      36.056  29.094  36.336  0.00  0.00    +0.000 A 
ATOM     20  H   UNL     1      38.253  31.155  37.370  0.00  0.00    +0.000 HD
ENDBRANCH   8  11
ENDBRANCH   1   4
BRANCH   1  21
ATOM     21  C   UNL     1      38.215  24.330  36.805  0.00  0.00    +0.000 C 
ATOM     22  H   UNL     1      37.333  24.045  36.202  0.00  0.00    +0.000 HD
BRANCH  21  25
ATOM     23  C   UNL     1      41.024  21.889  37.483  0.00  0.00    +0.000 A 
ATOM     24  C   UNL     1      39.972  22.767  37.753  0.00  0.00    +0.000 A 
ATOM     25  C   UNL     1      39.326  23.372  36.624  0.00  0.00    +0.000 A 
ATOM     26  N   UNL     1      39.774  23.054  35.364  0.00  0.00    +0.000 NA
ATOM     27  C   UNL     1      40.779  22.213  35.156  0.00  0.00    +0.000 A 
ATOM     28  N   UNL     1      41.412  21.623  36.224  0.00  0.00    +0.000 NA
ATOM     29  H   UNL     1      41.495  21.447  38.348  0.00  0.00    +0.000 HD
ATOM     30  H   UNL     1      39.630  23.008  38.752  0.00  0.00    +0.000 HD
ATOM     31  H   UNL     1      41.155  21.942  34.187  0.00  0.00    +0.000 HD
ENDBRANCH  21  25
BRANCH  21  32
ATOM     32  C   UNL     1      37.790  24.396  38.261  0.00  0.00    +0.000 C 
ATOM     33  H   UNL     1      37.627  23.402  38.695  0.00  0.00    +0.000 HD
ATOM     34  H   UNL     1      38.521  25.015  38.817  0.00  0.00    +0.000 HD
ATOM     35  H   UNL     1      36.823  24.964  38.313  0.00  0.00    +0.000 HD
ENDBRANCH  21  32
ENDBRANCH   1  21
TORSDOF 5
