
     RDKit          3D

 51 57  0  0  0  0  0  0  0  0999 V2000
   39.6256   25.5458   32.5642 C   0  0  0  0  0  0  0  0  0  0  0  0
   39.8732   25.9623   33.8890 C   0  0  0  0  0  0  0  0  0  0  0  0
   40.7955   26.9987   34.0912 C   0  0  0  0  0  0  0  0  0  0  0  0
   41.4132   27.5560   33.0047 N   0  0  0  0  0  0  0  0  0  0  0  0
   41.1580   27.1321   31.7483 C   0  0  0  0  0  0  0  0  0  0  0  0
   40.2913   26.1599   31.5605 N   0  0  0  0  0  0  0  0  0  0  0  0
   39.2412   25.3267   34.9425 N   0  0  0  0  0  0  0  0  0  0  0  0
   38.0047   25.5673   35.3916 C   0  0  0  0  0  0  0  0  0  0  0  0
   37.6838   24.7750   36.4389 N   0  0  0  0  0  0  0  0  0  0  0  0
   38.7713   23.9912   36.6661 C   0  0  0  0  0  0  0  0  0  0  0  0
   39.0392   23.0072   37.5758 C   0  0  0  0  0  0  0  0  0  0  0  0
   40.2144   22.3396   37.6169 N   0  0  0  0  0  0  0  0  0  0  0  0
   41.1275   22.7112   36.6854 C   0  0  0  0  0  0  0  0  0  0  0  0
   40.8487   23.6672   35.8134 N   0  0  0  0  0  0  0  0  0  0  0  0
   39.7120   24.3514   35.7323 C   0  0  0  0  0  0  0  0  0  0  0  0
   38.7107   24.4945   32.2312 C   0  0  0  0  0  0  0  0  0  0  0  0
   39.0955   23.1633   32.3386 C   0  0  0  0  0  0  0  0  0  0  0  0
   38.2271   22.1100   32.0381 C   0  0  0  0  0  0  0  0  0  0  0  0
   36.9329   22.3840   31.6179 C   0  0  0  0  0  0  0  0  0  0  0  0
   36.5288   23.6970   31.5037 C   0  0  0  0  0  0  0  0  0  0  0  0
   35.2539   23.9663   31.0911 C   0  0  0  0  0  0  0  0  0  0  0  0
   34.7912   25.2592   30.9556 C   0  0  0  0  0  0  0  0  0  0  0  0
   35.6800   26.2906   31.2560 C   0  0  0  0  0  0  0  0  0  0  0  0
   36.9630   25.9672   31.6702 C   0  0  0  0  0  0  0  0  0  0  0  0
   37.4260   24.6954   31.8107 C   0  0  0  0  0  0  0  0  0  0  0  0
   41.0001   27.3354   35.0897 H   0  0  0  0  0  0  0  0  0  0  0  0
   41.6481   27.5734   30.9077 H   0  0  0  0  0  0  0  0  0  0  0  0
   37.2004   26.2364   35.1209 H   0  0  0  0  0  0  0  0  0  0  0  0
   38.2525   22.7662   38.2928 H   0  0  0  0  0  0  0  0  0  0  0  0
   42.1252   22.3112   36.5389 H   0  0  0  0  0  0  0  0  0  0  0  0
   40.1154   22.9882   32.6712 H   0  0  0  0  0  0  0  0  0  0  0  0
   38.5650   21.0864   32.1334 H   0  0  0  0  0  0  0  0  0  0  0  0
   36.3055   21.5291   31.4007 H   0  0  0  0  0  0  0  0  0  0  0  0
   34.6170   23.1173   30.8738 H   0  0  0  0  0  0  0  0  0  0  0  0
   33.7530   25.3313   30.6193 H   0  0  0  0  0  0  0  0  0  0  0  0
   35.1715   27.2318   31.1013 H   0  0  0  0  0  0  0  0  0  0  0  0
   37.6024   27.2693   31.7831 C   0  0  0  0  0  0  0  0  0  0  0  0
   37.4454   28.5075   32.3694 C   0  0  0  0  0  0  0  0  0  0  0  0
   38.4173   29.3621   32.0305 N   0  0  0  0  0  0  0  0  0  0  0  0
   39.3150   28.8103   31.1991 C   0  0  0  0  0  0  0  0  0  0  0  0
   40.4410   29.2392   30.5896 C   0  0  0  0  0  0  0  0  0  0  0  0
   41.1405   28.3818   29.7764 C   0  0  0  0  0  0  0  0  0  0  0  0
   40.7092   27.1035   29.5794 C   0  0  0  0  0  0  0  0  0  0  0  0
   39.5707   26.6919   30.2043 C   0  0  0  0  0  0  0  0  0  0  0  0
   38.8049   27.5106   31.0480 C   0  0  0  0  0  0  0  0  0  0  0  0
   36.5878   28.6435   33.0086 H   0  0  0  0  0  0  0  0  0  0  0  0
   38.4242   30.3359   32.4023 H   0  0  0  0  0  0  0  0  0  0  0  0
   40.7247   30.2702   30.7927 H   0  0  0  0  0  0  0  0  0  0  0  0
   42.0320   28.7582   29.3081 H   0  0  0  0  0  0  0  0  0  0  0  0
   41.2748   26.4445   28.9351 H   0  0  0  0  0  0  0  0  0  0  0  0
   39.2757   25.6660   30.0109 H   0  0  0  0  0  0  0  0  0  0  0  0
  1  2  1  0
  2  3  2  0
  2  7  1  0
  4  3  1  0
  5  4  2  0
  6  5  1  0
  6  1  2  0
  7  8  1  0
  7 15  1  0
  8  9  2  0
  9 10  1  0
 10 11  2  0
 11 12  1  0
 13 12  2  0
 14 13  1  0
 15 14  2  0
 15 10  1  0
 16 17  2  0
 16  1  1  0
 18 17  1  0
 19 18  2  0
 20 19  1  0
 20 25  2  0
 21 20  1  0
 22 21  2  0
 22 23  1  0
 23 24  2  0
 24 25  1  0
 25 16  1  0
  3 26  1  0
  5 27  1  0
  8 28  1  0
 11 29  1  0
 13 30  1  0
 17 31  1  0
 18 32  1  0
 19 33  1  0
 21 34  1  0
 22 35  1  0
 23 36  1  0
 37 38  2  0
 38 39  1  0
 39 40  1  0
 40 41  2  0
 41 42  1  0
 42 43  2  0
 43 44  1  0
 44 45  2  0
 45 37  1  0
 45 40  1  0
 38 46  1  0
 39 47  1  0
 41 48  1  0
 42 49  1  0
 43 50  1  0
 44 51  1  0
 24 37  1  0
M  ISO  8  26  14  27  14  28  14  29  14  30  14  31  14  32  14  33  14
M  ISO  3  34  14  35  14  36  14
M  END
>  <DihAtoms>  (1) 
22,23,36,37

>  <DihDeg>  (1) 
98.09251030619656

$$$$
