
     RDKit          3D

 38 42  0  0  0  0  0  0  0  0999 V2000
   38.0241   23.4677   34.6204 C   0  0  0  0  0  0  0  0  0  0  0  0
   38.2580   24.5689   33.8008 C   0  0  0  0  0  0  0  0  0  0  0  0
   37.7641   24.1750   32.5921 N   0  0  0  0  0  0  0  0  0  0  0  0
   37.2917   22.9552   32.7194 C   0  0  0  0  0  0  0  0  0  0  0  0
   37.4336   22.4770   33.9666 N   0  0  0  0  0  0  0  0  0  0  0  0
   38.3831   23.4024   36.0332 C   0  0  0  0  0  0  0  0  0  0  0  0
   39.5934   22.7980   36.4181 C   0  0  0  0  0  0  0  0  0  0  0  0
   39.9025   22.7559   37.7962 C   0  0  0  0  0  0  0  0  0  0  0  0
   39.0112   23.3008   38.6516 N   0  0  0  0  0  0  0  0  0  0  0  0
   37.8521   23.8769   38.2511 C   0  0  0  0  0  0  0  0  0  0  0  0
   37.5466   23.9234   36.9447 N   0  0  0  0  0  0  0  0  0  0  0  0
   37.0030   21.1648   34.3880 C   0  0  1  0  0  0  0  0  0  0  0  0
   35.8426   20.9649   35.2598 C   0  0  0  0  0  0  0  0  0  0  0  0
   35.6690   20.7741   33.7619 C   0  0  2  0  0  0  0  0  0  0  0  0
   38.7304   25.4890   34.1294 H   0  0  0  0  0  0  0  0  0  0  0  0
   36.8658   22.5181   31.8256 H   0  0  0  0  0  0  0  0  0  0  0  0
   40.2633   22.3813   35.6942 H   0  0  0  0  0  0  0  0  0  0  0  0
   40.8230   22.3005   38.1375 H   0  0  0  0  0  0  0  0  0  0  0  0
   37.1941   24.2874   38.9766 H   0  0  0  0  0  0  0  0  0  0  0  0
   37.7807   20.3869   34.2522 H   0  0  0  0  0  0  0  0  0  0  0  0
   35.3929   21.8354   35.7430 H   0  0  0  0  0  0  0  0  0  0  0  0
   35.8390   20.0563   35.8968 H   0  0  0  0  0  0  0  0  0  0  0  0
   35.0728   21.5249   33.2147 H   0  0  0  0  0  0  0  0  0  0  0  0
   35.4406   19.3732   33.3433 C   0  0  0  0  0  0  0  0  0  0  0  0
   34.3218   18.5806   33.5570 C   0  0  0  0  0  0  0  0  0  0  0  0
   34.5081   17.3490   33.0128 N   0  0  0  0  0  0  0  0  0  0  0  0
   35.7217   17.2871   32.4371 C   0  0  0  0  0  0  0  0  0  0  0  0
   36.4129   16.2986   31.7538 C   0  0  0  0  0  0  0  0  0  0  0  0
   37.6811   16.5229   31.2601 C   0  0  0  0  0  0  0  0  0  0  0  0
   38.2639   17.7512   31.4530 C   0  0  0  0  0  0  0  0  0  0  0  0
   37.5717   18.7205   32.1297 C   0  0  0  0  0  0  0  0  0  0  0  0
   36.2882   18.5350   32.6448 C   0  0  0  0  0  0  0  0  0  0  0  0
   33.4376   18.9337   34.0913 H   0  0  0  0  0  0  0  0  0  0  0  0
   33.8152   16.5695   33.0374 H   0  0  0  0  0  0  0  0  0  0  0  0
   35.9659   15.3243   31.5939 H   0  0  0  0  0  0  0  0  0  0  0  0
   38.2469   15.7660   30.7202 H   0  0  0  0  0  0  0  0  0  0  0  0
   39.2590   17.9277   31.0659 H   0  0  0  0  0  0  0  0  0  0  0  0
   38.0664   19.6741   32.2601 H   0  0  0  0  0  0  0  0  0  0  0  0
  1  6  1  0
  2  1  2  0
  3  4  2  0
  3  2  1  0
  4  5  1  0
  5 12  1  0
  5  1  1  0
  6  7  2  0
  6 11  1  0
  7  8  1  0
  8  9  2  0
 10  9  1  0
 11 10  2  0
 12 13  1  0
 14 12  1  0
 14 13  1  0
  2 15  1  0
  4 16  1  0
  7 17  1  0
  8 18  1  0
 10 19  1  0
 12 20  1  1
 13 21  1  0
 13 22  1  0
 14 23  1  6
 24 25  2  0
 25 26  1  0
 26 27  1  0
 27 28  2  0
 28 29  1  0
 29 30  2  0
 30 31  1  0
 31 32  2  0
 32 24  1  0
 32 27  1  0
 25 33  1  0
 26 34  1  0
 28 35  1  0
 29 36  1  0
 30 37  1  0
 31 38  1  0
 14 24  1  0
M  ISO  8  15  14  16  14  17  14  18  14  19  14  20  13  21  13  22  13
M  ISO  1  23  13
M  END
>  <DihAtoms>  (1) 
11,13,23,24

>  <DihDeg>  (1) 
90.00191111803724

$$$$
