
 OpenBabel03262519093D

 38 42  0  0  1  0  0  0  0  0999 V2000
   37.4960   26.7230   33.7700 C   0  0  0  0  0  0  0  0  0  0  0  0
   37.5860   25.9870   32.9200 H   0  0  0  0  0  0  0  0  0  0  0  0
   36.7790   26.2370   34.4670 H   0  0  0  0  0  0  0  0  0  0  0  0
   36.8200   27.9020   33.1920 C   0  0  0  0  0  0  0  0  0  0  0  0
   36.6120   28.2870   31.9000 C   0  0  0  0  0  0  0  0  0  0  0  0
   35.9490   29.4310   31.5200 C   0  0  0  0  0  0  0  0  0  0  0  0
   35.4670   30.2360   32.5290 C   0  0  0  0  0  0  0  0  0  0  0  0
   35.6780   29.8480   33.8210 C   0  0  0  0  0  0  0  0  0  0  0  0
   36.3330   28.7170   34.1410 N   0  0  0  0  0  0  0  0  0  0  0  0
   37.0310   27.5840   31.1920 H   0  0  0  0  0  0  0  0  0  0  0  0
   35.8420   29.6360   30.4780 H   0  0  0  0  0  0  0  0  0  0  0  0
   34.9540   31.0740   32.1760 H   0  0  0  0  0  0  0  0  0  0  0  0
   35.1810   30.6010   34.9690 C   0  0  0  0  0  0  0  0  0  0  0  0
   36.0060   31.3430   35.8040 C   0  0  0  0  0  0  0  0  0  0  0  0
   35.3320   31.9790   36.7780 N   0  0  0  0  0  0  0  0  0  0  0  0
   34.0400   31.6800   36.6190 C   0  0  0  0  0  0  0  0  0  0  0  0
   32.8950   32.0450   37.2940 C   0  0  0  0  0  0  0  0  0  0  0  0
   31.6450   31.6050   36.9090 C   0  0  0  0  0  0  0  0  0  0  0  0
   31.5650   30.7680   35.8010 C   0  0  0  0  0  0  0  0  0  0  0  0
   32.7220   30.4190   35.1460 C   0  0  0  0  0  0  0  0  0  0  0  0
   33.9610   30.8530   35.5280 C   0  0  0  0  0  0  0  0  0  0  0  0
   35.6690   32.5970   37.5420 H   0  0  0  0  0  0  0  0  0  0  0  0
   39.6480   26.0420   35.1390 C   0  0  2  0  0  0  0  0  0  0  0  0
   38.9170   27.1650   35.7830 C   0  0  0  0  0  0  0  0  0  0  0  0
   38.8520   26.9710   34.2980 C   0  0  2  0  0  0  0  0  0  0  0  0
   40.7270   26.0610   34.9260 H   0  0  0  0  0  0  0  0  0  0  0  0
   38.0630   26.9340   36.4450 H   0  0  0  0  0  0  0  0  0  0  0  0
   39.5770   27.9460   36.2180 H   0  0  0  0  0  0  0  0  0  0  0  0
   39.4100   27.7760   33.7410 H   0  0  0  0  0  0  0  0  0  0  0  0
   37.8740   23.2270   36.6980 C   0  0  0  0  0  0  0  0  0  0  0  0
   38.1700   22.1230   35.8670 C   0  0  0  0  0  0  0  0  0  0  0  0
   39.0120   22.4010   34.7410 C   0  0  0  0  0  0  0  0  0  0  0  0
   39.4530   23.6630   34.5520 N   0  0  0  0  0  0  0  0  0  0  0  0
   39.1220   24.6890   35.4050 C   0  0  0  0  0  0  0  0  0  0  0  0
   38.3220   24.4680   36.4920 N   0  0  0  0  0  0  0  0  0  0  0  0
   37.2470   23.1160   37.5720 H   0  0  0  0  0  0  0  0  0  0  0  0
   37.7870   21.1590   36.0780 H   0  0  0  0  0  0  0  0  0  0  0  0
   39.2640   21.5920   34.0820 H   0  0  0  0  0  0  0  0  0  0  0  0
  1 25  1  0  0  0  0
  1  3  1  0  0  0  0
  2  1  1  0  0  0  0
  4  1  1  0  0  0  0
  4  9  1  0  0  0  0
  5  4  2  0  0  0  0
  6  5  1  0  0  0  0
  6  7  2  0  0  0  0
  7  8  1  0  0  0  0
  8  9  2  0  0  0  0
  8 13  1  0  0  0  0
 10  5  1  0  0  0  0
 11  6  1  0  0  0  0
 12  7  1  0  0  0  0
 13 21  1  0  0  0  0
 13 14  2  0  0  0  0
 14 15  1  0  0  0  0
 15 22  1  0  0  0  0
 16 15  1  0  0  0  0
 16 17  1  0  0  0  0
 18 17  2  0  0  0  0
 19 18  1  0  0  0  0
 20 21  1  0  0  0  0
 20 19  2  0  0  0  0
 21 16  2  0  0  0  0
 23 26  1  6  0  0  0
 23 34  1  0  0  0  0
 23 24  1  0  0  0  0
 24 28  1  0  0  0  0
 24 27  1  0  0  0  0
 25 29  1  6  0  0  0
 25 23  1  0  0  0  0
 25 24  1  0  0  0  0
 30 36  1  0  0  0  0
 31 37  1  0  0  0  0
 31 30  2  0  0  0  0
 32 31  1  0  0  0  0
 33 32  2  0  0  0  0
 33 34  1  0  0  0  0
 34 35  2  0  0  0  0
 35 30  1  0  0  0  0
 38 32  1  0  0  0  0
M  END
>  <minimizedAffinity>
-6.50573397

>  <minimizedRMSD>
6.82893181

$$$$
