REMARK  Name = 
REMARK  3 active torsions:
REMARK  status: ('A' for Active; 'I' for Inactive)
REMARK    1  A    between atoms: C_1  and  C_6
REMARK    2  A    between atoms: N_5  and  C_12
REMARK    3  A    between atoms: C_14  and  C_24
REMARK                            x       y       z     vdW  Elec       q    Type
REMARK                         _______ _______ _______ _____ _____    ______ ____
ROOT
ATOM      1  C   UNL     1      36.993  21.178  34.405  0.00  0.00    +0.000 C 
ATOM      2  C   UNL     1      35.842  20.964  35.255  0.00  0.00    +0.000 C 
ATOM      3  C   UNL     1      35.672  20.764  33.749  0.00  0.00    +0.000 C 
ATOM      4  H   UNL     1      37.811  20.441  34.436  0.00  0.00    +0.000 HD
ATOM      5  H   UNL     1      35.857  20.082  35.935  0.00  0.00    +0.000 HD
ATOM      6  H   UNL     1      35.189  21.763  35.662  0.00  0.00    +0.000 HD
ATOM      7  H   UNL     1      35.096  21.524  33.193  0.00  0.00    +0.000 HD
ENDROOT
BRANCH   3   8
ATOM      8  C   UNL     1      35.485  19.331  33.412  0.00  0.00    +0.000 A 
ATOM      9  C   UNL     1      35.290  18.584  34.580  0.00  0.00    +0.000 A 
ATOM     10  C   UNL     1      35.047  17.209  34.499  0.00  0.00    +0.000 A 
ATOM     11  C   UNL     1      35.004  16.614  33.236  0.00  0.00    +0.000 A 
ATOM     12  C   UNL     1      35.197  17.357  32.094  0.00  0.00    +0.000 A 
ATOM     13  C   UNL     1      35.182  16.845  30.809  0.00  0.00    +0.000 A 
ATOM     14  C   UNL     1      35.398  17.658  29.702  0.00  0.00    +0.000 A 
ATOM     15  C   UNL     1      35.640  19.030  29.847  0.00  0.00    +0.000 A 
ATOM     16  C   UNL     1      35.655  19.544  31.128  0.00  0.00    +0.000 A 
ATOM     17  C   UNL     1      35.437  18.712  32.187  0.00  0.00    +0.000 A 
ENDBRANCH   3   8
BRANCH   1  22
ATOM     18  C   UNL     1      38.035  23.468  34.622  0.00  0.00    +0.000 A 
ATOM     19  C   UNL     1      38.266  24.558  33.792  0.00  0.00    +0.000 A 
ATOM     20  N   UNL     1      37.761  24.174  32.589  0.00  0.00    +0.000 NA
ATOM     21  C   UNL     1      37.277  22.958  32.718  0.00  0.00    +0.000 A 
ATOM     22  N   UNL     1      37.431  22.488  33.973  0.00  0.00    +0.000 N 
ATOM     23  H   UNL     1      38.749  25.498  34.082  0.00  0.00    +0.000 HD
ATOM     24  H   UNL     1      36.829  22.500  31.828  0.00  0.00    +0.000 HD
BRANCH  18  25
ATOM     25  C   UNL     1      38.402  23.395  36.030  0.00  0.00    +0.000 A 
ATOM     26  C   UNL     1      39.596  22.806  36.420  0.00  0.00    +0.000 A 
ATOM     27  C   UNL     1      39.906  22.761  37.796  0.00  0.00    +0.000 A 
ATOM     28  N   UNL     1      39.007  23.301  38.655  0.00  0.00    +0.000 NA
ATOM     29  C   UNL     1      37.848  23.871  38.252  0.00  0.00    +0.000 A 
ATOM     30  N   UNL     1      37.540  23.921  36.946  0.00  0.00    +0.000 NA
ATOM     31  H   UNL     1      40.283  22.387  35.700  0.00  0.00    +0.000 HD
ATOM     32  H   UNL     1      40.831  22.308  38.148  0.00  0.00    +0.000 HD
ATOM     33  H   UNL     1      37.176  24.283  38.989  0.00  0.00    +0.000 HD
ENDBRANCH  18  25
ENDBRANCH   1  22
TORSDOF 3
