
 OpenBabel03262518133D

 26 29  0  0  0  0  0  0  0  0999 V2000
   40.8040   21.8490   34.5350 C   0  0  0  0  0  0  0  0  0  0  0  0
   40.5110   22.3390   35.8090 C   0  0  0  0  0  0  0  0  0  0  0  0
   39.2600   22.8870   35.9900 C   0  0  0  0  0  0  0  0  0  0  0  0
   38.4320   22.8970   34.9130 N   0  0  0  0  0  0  0  0  0  0  0  0
   38.7170   22.4300   33.7070 C   0  0  0  0  0  0  0  0  0  0  0  0
   39.9200   21.9030   33.5340 N   0  0  0  0  0  0  0  0  0  0  0  0
   41.7740   21.4020   34.3230 H   0  0  0  0  0  0  0  0  0  0  0  0
   41.2230   22.2890   36.5970 H   0  0  0  0  0  0  0  0  0  0  0  0
   37.5910   22.6070   32.7990 C   0  0  0  0  0  0  0  0  0  0  0  0
   37.4080   23.7360   32.0400 C   0  0  0  0  0  0  0  0  0  0  0  0
   36.3660   23.9410   31.1780 C   0  0  0  0  0  0  0  0  0  0  0  0
   35.4030   22.9840   31.0180 C   0  0  0  0  0  0  0  0  0  0  0  0
   35.5230   21.8230   31.7490 C   0  0  0  0  0  0  0  0  0  0  0  0
   34.5500   20.8620   31.5830 C   0  0  0  0  0  0  0  0  0  0  0  0
   34.6060   19.6780   32.2800 C   0  0  0  0  0  0  0  0  0  0  0  0
   35.6870   19.5090   33.1510 C   0  0  0  0  0  0  0  0  0  0  0  0
   36.6200   20.4950   33.2730 C   0  0  0  0  0  0  0  0  0  0  0  0
   36.5950   21.6790   32.5990 C   0  0  0  0  0  0  0  0  0  0  0  0
   38.8730   23.4250   37.3020 C   0  0  0  0  0  0  0  0  0  0  0  0
   38.0490   24.5350   37.4880 C   0  0  0  0  0  0  0  0  0  0  0  0
   37.9490   24.6880   38.8430 N   0  0  0  0  0  0  0  0  0  0  0  0
   38.6870   23.7040   39.4100 C   0  0  0  0  0  0  0  0  0  0  0  0
   39.2600   22.9220   38.5040 N   0  0  0  0  0  0  0  0  0  0  0  0
   37.6160   25.1060   36.6610 H   0  0  0  0  0  0  0  0  0  0  0  0
   38.7110   23.6860   40.4890 H   0  0  0  0  0  0  0  0  0  0  0  0
   39.8590   22.1190   38.7170 H   0  0  0  0  0  0  0  0  0  0  0  0
  1  2  1  0  0  0  0
  2  3  2  0  0  0  0
  2  8  1  0  0  0  0
  3 19  1  0  0  0  0
  4  3  1  0  0  0  0
  5  4  2  0  0  0  0
  6  5  1  0  0  0  0
  6  1  2  0  0  0  0
  7  1  1  0  0  0  0
  9  5  1  0  0  0  0
 10  9  2  0  0  0  0
 11 10  1  0  0  0  0
 12 11  2  0  0  0  0
 12 13  1  0  0  0  0
 13 18  1  0  0  0  0
 14 13  2  0  0  0  0
 14 15  1  0  0  0  0
 15 16  2  0  0  0  0
 16 17  1  0  0  0  0
 18  9  1  0  0  0  0
 18 17  2  0  0  0  0
 19 20  2  0  0  0  0
 19 23  1  0  0  0  0
 20 21  1  0  0  0  0
 21 22  2  0  0  0  0
 22 25  1  0  0  0  0
 23 26  1  0  0  0  0
 23 22  1  0  0  0  0
 24 20  1  0  0  0  0
M  END
>  <minimizedAffinity>
-5.40121412

>  <minimizedRMSD>
4.30343533

$$$$
