
 OpenBabel03262519583D

 33 37  0  0  1  0  0  0  0  0999 V2000
   38.1430   21.9430   30.4410 C   0  0  1  0  0  0  0  0  0  0  0  0
   39.1390   22.5620   29.5950 C   0  0  0  0  0  0  0  0  0  0  0  0
   39.3590   21.1110   30.0220 C   0  0  2  0  0  0  0  0  0  0  0  0
   37.1650   21.6920   30.0010 H   0  0  0  0  0  0  0  0  0  0  0  0
   38.8530   22.7950   28.5430 H   0  0  0  0  0  0  0  0  0  0  0  0
   39.9430   23.2430   29.9430 H   0  0  0  0  0  0  0  0  0  0  0  0
   40.1460   20.9110   30.7700 H   0  0  0  0  0  0  0  0  0  0  0  0
   39.2000   20.1800   28.8780 C   0  0  0  0  0  0  0  0  0  0  0  0
   37.9700   19.5170   28.9640 C   0  0  0  0  0  3  0  0  0  0  0  0
   37.5870   18.6200   27.9610 C   0  0  0  0  0  3  0  0  0  0  0  0
   38.4550   18.4110   26.8890 C   0  0  0  0  0  3  0  0  0  0  0  0
   39.6620   19.0680   26.8130 C   0  0  0  0  0  0  0  0  0  0  0  0
   40.5820   18.9090   25.7920 C   0  0  0  0  0  3  0  0  0  0  0  0
   41.7900   19.6000   25.7910 C   0  0  0  0  0  3  0  0  0  0  0  0
   42.1180   20.4840   26.8250 C   0  0  0  0  0  3  0  0  0  0  0  0
   41.2020   20.6450   27.8440 C   0  0  0  0  0  3  0  0  0  0  0  0
   40.0290   19.9480   27.8070 C   0  0  0  0  0  0  0  0  0  0  0  0
   37.5350   23.0950   32.6050 C   0  0  0  0  0  0  0  0  0  0  0  0
   37.7270   22.8680   33.9620 C   0  0  0  0  0  0  0  0  0  0  0  0
   38.4300   21.7050   34.0080 N   0  0  0  0  0  0  0  0  0  0  0  0
   38.6270   21.2960   32.7740 C   0  0  0  0  0  0  0  0  0  0  0  0
   38.0820   22.1400   31.8740 N   0  0  0  0  0  0  0  0  0  0  0  0
   37.3750   23.5080   34.7790 H   0  0  0  0  0  0  0  0  0  0  0  0
   39.1850   20.3620   32.6390 H   0  0  0  0  0  0  0  0  0  0  0  0
   36.8250   24.2350   32.0390 C   0  0  0  0  0  0  0  0  0  0  0  0
   35.5660   24.0770   31.4780 C   0  0  0  0  0  0  0  0  0  0  0  0
   34.9200   25.2130   30.9440 C   0  0  0  0  0  0  0  0  0  0  0  0
   35.5800   26.3950   31.0140 N   0  0  0  0  0  0  0  0  0  0  0  0
   36.8080   26.5260   31.5670 C   0  0  0  0  0  0  0  0  0  0  0  0
   37.4340   25.4540   32.0790 N   0  0  0  0  0  0  0  0  0  0  0  0
   35.0780   23.1150   31.4420 H   0  0  0  0  0  0  0  0  0  0  0  0
   33.9330   25.1360   30.4930 H   0  0  0  0  0  0  0  0  0  0  0  0
   37.2770   27.4980   31.5910 H   0  0  0  0  0  0  0  0  0  0  0  0
  1  4  1  6  0  0  0
  1 22  1  0  0  0  0
  2  6  1  0  0  0  0
  2  3  1  0  0  0  0
  2  1  1  0  0  0  0
  3  1  1  0  0  0  0
  3  7  1  1  0  0  0
  5  2  1  0  0  0  0
  8  9  1  0  0  0  0
  8  3  1  0  0  0  0
 10  9  2  0  0  0  0
 11 10  1  0  0  0  0
 12 11  2  0  0  0  0
 12 17  1  0  0  0  0
 13 12  1  0  0  0  0
 14 13  2  0  0  0  0
 14 15  1  0  0  0  0
 15 16  2  0  0  0  0
 17 16  1  0  0  0  0
 17  8  2  0  0  0  0
 18 19  2  0  0  0  0
 19 20  1  0  0  0  0
 19 23  1  0  0  0  0
 21 20  2  0  0  0  0
 22 18  1  0  0  0  0
 22 21  1  0  0  0  0
 24 21  1  0  0  0  0
 25 30  1  0  0  0  0
 25 18  1  0  0  0  0
 26 25  2  0  0  0  0
 27 28  2  0  0  0  0
 27 26  1  0  0  0  0
 28 29  1  0  0  0  0
 29 33  1  0  0  0  0
 29 30  2  0  0  0  0
 31 26  1  0  0  0  0
 32 27  1  0  0  0  0
M  END
>  <minimizedAffinity>
-3.57274103

>  <minimizedRMSD>
6.03694344

$$$$
