REMARK  Name = 
REMARK  3 active torsions:
REMARK  status: ('A' for Active; 'I' for Inactive)
REMARK    1  A    between atoms: O_1  and  C_2
REMARK    2  A    between atoms: O_1  and  C_11
REMARK    3  A    between atoms: C_15  and  C_25
REMARK                            x       y       z     vdW  Elec       q    Type
REMARK                         _______ _______ _______ _____ _____    ______ ____
ROOT
ATOM      1  C   UNL     1      39.598  22.692  37.433  0.00  0.00    +0.000 A 
ATOM      2  C   UNL     1      39.094  23.353  38.542  0.00  0.00    +0.000 A 
ATOM      3  C   UNL     1      37.941  24.140  38.308  0.00  0.00    +0.000 A 
ATOM      4  N   UNL     1      37.409  24.208  37.076  0.00  0.00    +0.000 NA
ATOM      5  C   UNL     1      37.933  23.547  36.028  0.00  0.00    +0.000 A 
ATOM      6  N   UNL     1      39.010  22.813  36.245  0.00  0.00    +0.000 NA
ATOM      7  H   UNL     1      39.477  23.333  39.538  0.00  0.00    +0.000 HD
ATOM      8  H   UNL     1      37.460  24.700  39.097  0.00  0.00    +0.000 HD
ENDROOT
BRANCH   5   9
ATOM      9  C   UNL     1      37.494  23.502  34.639  0.00  0.00    +0.000 A 
ATOM     10  C   UNL     1      36.877  24.581  34.042  0.00  0.00    +0.000 A 
ATOM     11  C   UNL     1      36.435  24.611  32.739  0.00  0.00    +0.000 A 
ATOM     12  C   UNL     1      36.601  23.506  31.939  0.00  0.00    +0.000 A 
ATOM     13  C   UNL     1      37.208  22.403  32.476  0.00  0.00    +0.000 A 
ATOM     14  C   UNL     1      37.367  21.304  31.673  0.00  0.00    +0.000 A 
ATOM     15  C   UNL     1      37.969  20.156  32.151  0.00  0.00    +0.000 A 
ATOM     16  C   UNL     1      38.403  20.164  33.476  0.00  0.00    +0.000 A 
ATOM     17  C   UNL     1      38.213  21.296  34.228  0.00  0.00    +0.000 A 
ATOM     18  C   UNL     1      37.621  22.442  33.776  0.00  0.00    +0.000 A 
ENDBRANCH   5   9
BRANCH   1  19
ATOM     19  O   UNL     1      40.709  21.923  37.621  0.00  0.00    +0.000 OA
BRANCH  19  20
ATOM     20  C   UNL     1      41.927  22.070  36.999  0.00  0.00    +0.000 A 
ATOM     21  C   UNL     1      42.417  23.217  36.423  0.00  0.00    +0.000 A 
ATOM     22  N   UNL     1      43.631  23.008  35.911  0.00  0.00    +0.000 N 
ATOM     23  C   UNL     1      43.999  21.724  36.121  0.00  0.00    +0.000 A 
ATOM     24  C   UNL     1      45.130  20.982  35.809  0.00  0.00    +0.000 A 
ATOM     25  C   UNL     1      45.216  19.650  36.167  0.00  0.00    +0.000 A 
ATOM     26  C   UNL     1      44.155  19.069  36.843  0.00  0.00    +0.000 A 
ATOM     27  C   UNL     1      43.029  19.811  37.153  0.00  0.00    +0.000 A 
ATOM     28  C   UNL     1      42.946  21.153  36.791  0.00  0.00    +0.000 A 
ATOM     29  H   UNL     1      41.935  24.182  36.362  0.00  0.00    +0.000 HD
ATOM     30  H   UNL     1      44.260  23.671  35.414  0.00  0.00    +0.000 HD
ATOM     31  H   UNL     1      45.948  21.464  35.278  0.00  0.00    +0.000 HD
ATOM     32  H   UNL     1      46.083  19.047  35.938  0.00  0.00    +0.000 HD
ATOM     33  H   UNL     1      44.138  18.020  37.165  0.00  0.00    +0.000 HD
ATOM     34  H   UNL     1      42.204  19.349  37.682  0.00  0.00    +0.000 HD
ENDBRANCH  19  20
ENDBRANCH   1  19
TORSDOF 3
