
 OpenBabel03262519323D

 44 49  0  0  0  0  0  0  0  0999 V2000
   43.9700   24.1950   35.6820 C   0  0  0  0  0  0  0  0  0  0  0  0
   43.7130   25.4770   36.1620 C   0  0  0  0  0  0  0  0  0  0  0  0
   44.7670   25.9100   36.9040 N   0  0  0  0  0  0  0  0  0  0  0  0
   45.7300   24.9610   36.9430 C   0  0  0  0  0  0  0  0  0  0  0  0
   46.9630   24.9030   37.5430 C   0  0  0  0  0  0  0  0  0  0  0  0
   47.7390   23.7680   37.3990 C   0  0  0  0  0  0  0  0  0  0  0  0
   47.2500   22.6960   36.6390 C   0  0  0  0  0  0  0  0  0  0  0  0
   46.0030   22.7750   36.0410 C   0  0  0  0  0  0  0  0  0  0  0  0
   45.2310   23.9040   36.1860 C   0  0  0  0  0  0  0  0  0  0  0  0
   42.8140   26.0450   35.9740 H   0  0  0  0  0  0  0  0  0  0  0  0
   44.8900   26.8220   37.4000 H   0  0  0  0  0  0  0  0  0  0  0  0
   47.3180   25.7240   38.1150 H   0  0  0  0  0  0  0  0  0  0  0  0
   48.6980   23.7720   37.8890 H   0  0  0  0  0  0  0  0  0  0  0  0
   47.9100   21.8420   36.5700 H   0  0  0  0  0  0  0  0  0  0  0  0
   45.5400   21.6400   35.2670 C   0  0  0  0  0  0  0  0  0  0  0  0
   44.8900   20.6570   36.0170 C   0  0  0  0  0  3  0  0  0  0  0  0
   44.4190   19.5370   35.3260 C   0  0  0  0  0  3  0  0  0  0  0  0
   44.6170   19.4610   33.9620 C   0  0  0  0  0  3  0  0  0  0  0  0
   45.2650   20.4420   33.2220 C   0  0  0  0  0  0  0  0  0  0  0  0
   45.4500   20.3400   31.8580 C   0  0  0  0  0  3  0  0  0  0  0  0
   46.1100   21.3600   31.1650 C   0  0  0  0  0  3  0  0  0  0  0  0
   46.5680   22.4660   31.8870 C   0  0  0  0  0  3  0  0  0  0  0  0
   46.3800   22.5650   33.2660 C   0  0  0  0  0  3  0  0  0  0  0  0
   45.7250   21.5420   33.9160 C   0  0  0  0  0  0  0  0  0  0  0  0
   43.1360   23.4300   34.8940 O   0  0  0  0  0  0  0  0  0  0  0  0
   41.8490   23.0930   35.2000 C   0  0  0  0  0  0  0  0  0  0  0  0
   41.6590   22.3800   36.3860 C   0  0  0  0  0  0  0  0  0  0  0  0
   40.3290   22.0210   36.7200 C   0  0  0  0  0  0  0  0  0  0  0  0
   39.3310   22.3780   35.8960 N   0  0  0  0  0  0  0  0  0  0  0  0
   39.5760   23.0730   34.7530 C   0  0  0  0  0  0  0  0  0  0  0  0
   40.8090   23.4170   34.4220 N   0  0  0  0  0  0  0  0  0  0  0  0
   38.5740   23.4900   33.8240 N   0  0  0  0  0  0  0  0  0  0  0  0
   38.4760   24.7980   33.4340 C   0  0  0  0  0  0  0  0  0  0  0  0
   37.4780   25.1240   32.5300 C   0  0  0  0  0  0  0  0  0  0  0  0
   36.6040   24.1860   32.0250 C   0  0  0  0  0  0  0  0  0  0  0  0
   35.6990   24.4750   31.2080 O   0  0  0  0  0  0  0  0  0  0  0  0
   36.7340   22.9210   32.4310 N   0  0  0  0  0  0  0  0  0  0  0  0
   37.7050   22.5710   33.3190 C   0  0  0  0  0  0  0  0  0  0  0  0
   37.8390   21.3980   33.7070 O   0  0  0  0  0  0  0  0  0  0  0  0
   42.4830   22.1120   37.0220 H   0  0  0  0  0  0  0  0  0  0  0  0
   40.1280   21.4680   37.6290 H   0  0  0  0  0  0  0  0  0  0  0  0
   39.1650   25.5460   33.8300 H   0  0  0  0  0  0  0  0  0  0  0  0
   37.4000   26.1670   32.2190 H   0  0  0  0  0  0  0  0  0  0  0  0
   36.1220   22.1300   32.1100 H   0  0  0  0  0  0  0  0  0  0  0  0
  1  2  2  0  0  0  0
  1  9  1  0  0  0  0
  2  3  1  0  0  0  0
  3  4  1  0  0  0  0
  3 11  1  0  0  0  0
  4  5  1  0  0  0  0
  5 12  1  0  0  0  0
  6  5  2  0  0  0  0
  6 13  1  0  0  0  0
  7  6  1  0  0  0  0
  8  9  1  0  0  0  0
  8  7  2  0  0  0  0
  9  4  2  0  0  0  0
 10  2  1  0  0  0  0
 14  7  1  0  0  0  0
 15 16  1  0  0  0  0
 15  8  1  0  0  0  0
 17 16  2  0  0  0  0
 18 17  1  0  0  0  0
 19 24  1  0  0  0  0
 19 18  2  0  0  0  0
 20 19  1  0  0  0  0
 21 20  2  0  0  0  0
 21 22  1  0  0  0  0
 22 23  2  0  0  0  0
 23 24  1  0  0  0  0
 24 15  2  0  0  0  0
 25 26  1  0  0  0  0
 25  1  1  0  0  0  0
 26 27  1  0  0  0  0
 27 28  2  0  0  0  0
 27 40  1  0  0  0  0
 28 41  1  0  0  0  0
 29 28  1  0  0  0  0
 30 29  2  0  0  0  0
 31 30  1  0  0  0  0
 31 26  2  0  0  0  0
 32 30  1  0  0  0  0
 33 32  1  0  0  0  0
 33 42  1  0  0  0  0
 34 33  2  0  0  0  0
 35 37  1  0  0  0  0
 35 34  1  0  0  0  0
 36 35  2  0  0  0  0
 37 38  1  0  0  0  0
 38 39  2  0  0  0  0
 38 32  1  0  0  0  0
 43 34  1  0  0  0  0
 44 37  1  0  0  0  0
M  END
>  <minimizedAffinity>
-5.17722034

>  <minimizedRMSD>
5.38826799

$$$$
