REMARK  Name = 
REMARK  3 active torsions:
REMARK  status: ('A' for Active; 'I' for Inactive)
REMARK    1  A    between atoms: C_1  and  O_15
REMARK    2  A    between atoms: O_15  and  C_16
REMARK    3  A    between atoms: C_23  and  C_35
REMARK                            x       y       z     vdW  Elec       q    Type
REMARK                         _______ _______ _______ _____ _____    ______ ____
ROOT
ATOM      1  C   UNL     1      41.975  22.405  36.856  0.00  0.00    +0.000 A 
ATOM      2  C   UNL     1      42.350  23.389  35.944  0.00  0.00    +0.000 A 
ATOM      3  N   UNL     1      43.342  22.918  35.142  0.00  0.00    +0.000 N 
ATOM      4  C   UNL     1      43.652  21.646  35.483  0.00  0.00    +0.000 A 
ATOM      5  C   UNL     1      44.562  20.742  34.995  0.00  0.00    +0.000 A 
ATOM      6  C   UNL     1      44.648  19.485  35.565  0.00  0.00    +0.000 A 
ATOM      7  C   UNL     1      43.800  19.158  36.633  0.00  0.00    +0.000 A 
ATOM      8  C   UNL     1      42.888  20.085  37.110  0.00  0.00    +0.000 A 
ATOM      9  C   UNL     1      42.804  21.335  36.543  0.00  0.00    +0.000 A 
ATOM     10  H   UNL     1      41.919  24.377  35.880  0.00  0.00    +0.000 HD
ATOM     11  H   UNL     1      43.840  23.402  34.361  0.00  0.00    +0.000 HD
ATOM     12  H   UNL     1      45.197  21.006  34.186  0.00  0.00    +0.000 HD
ATOM     13  H   UNL     1      45.378  18.813  35.147  0.00  0.00    +0.000 HD
ATOM     14  H   UNL     1      43.923  18.160  37.029  0.00  0.00    +0.000 HD
ENDROOT
BRANCH   8  15
ATOM     15  C   UNL     1      42.034  19.701  38.216  0.00  0.00    +0.000 A 
ATOM     16  C   UNL     1      40.940  20.545  38.420  0.00  0.00    +0.000 A 
ATOM     17  C   UNL     1      40.077  20.227  39.473  0.00  0.00    +0.000 A 
ATOM     18  C   UNL     1      40.346  19.114  40.243  0.00  0.00    +0.000 A 
ATOM     19  C   UNL     1      41.436  18.278  40.036  0.00  0.00    +0.000 A 
ATOM     20  C   UNL     1      41.681  17.171  40.823  0.00  0.00    +0.000 A 
ATOM     21  C   UNL     1      42.795  16.365  40.567  0.00  0.00    +0.000 A 
ATOM     22  C   UNL     1      43.637  16.713  39.506  0.00  0.00    +0.000 A 
ATOM     23  C   UNL     1      43.386  17.833  38.713  0.00  0.00    +0.000 A 
ATOM     24  C   UNL     1      42.279  18.604  38.994  0.00  0.00    +0.000 A 
ENDBRANCH   8  15
BRANCH   1  25
ATOM     25  O   UNL     1      41.003  22.513  37.828  0.00  0.00    +0.000 OA
BRANCH  25  26
ATOM     26  C   UNL     1      39.678  22.750  37.598  0.00  0.00    +0.000 A 
ATOM     27  C   UNL     1      39.042  23.629  38.478  0.00  0.00    +0.000 A 
ATOM     28  C   UNL     1      37.666  23.886  38.254  0.00  0.00    +0.000 A 
ATOM     29  N   UNL     1      37.049  23.285  37.224  0.00  0.00    +0.000 NA
ATOM     30  C   UNL     1      37.720  22.438  36.399  0.00  0.00    +0.000 A 
ATOM     31  N   UNL     1      39.003  22.183  36.590  0.00  0.00    +0.000 NA
ATOM     32  N   UNL     1      37.140  21.759  35.284  0.00  0.00    +0.000 N 
ATOM     33  C   UNL     1      37.699  21.845  34.038  0.00  0.00    +0.000 A 
ATOM     34  C   UNL     1      37.078  21.158  33.008  0.00  0.00    +0.000 A 
ATOM     35  C   UNL     1      35.939  20.408  33.202  0.00  0.00    +0.000 A 
ATOM     36  O   UNL     1      35.372  19.785  32.274  0.00  0.00    +0.000 OA
ATOM     37  N   UNL     1      35.425  20.350  34.433  0.00  0.00    +0.000 N 
ATOM     38  C   UNL     1      36.014  21.015  35.465  0.00  0.00    +0.000 A 
ATOM     39  O   UNL     1      35.548  20.971  36.617  0.00  0.00    +0.000 OA
ATOM     40  H   UNL     1      39.569  24.092  39.292  0.00  0.00    +0.000 HD
ATOM     41  H   UNL     1      37.127  24.560  38.908  0.00  0.00    +0.000 HD
ATOM     42  H   UNL     1      38.602  22.438  33.877  0.00  0.00    +0.000 HD
ATOM     43  H   UNL     1      37.524  21.227  32.014  0.00  0.00    +0.000 HD
ATOM     44  H   UNL     1      34.562  19.809  34.690  0.00  0.00    +0.000 HD
ENDBRANCH  25  26
ENDBRANCH   1  25
TORSDOF 3
