
 OpenBabel03262519303D

 34 38  0  0  0  0  0  0  0  0999 V2000
   39.7650   22.5920   37.3110 C   0  0  0  0  0  0  0  0  0  0  0  0
   39.0810   23.2620   38.3140 C   0  0  0  0  0  0  0  0  0  0  0  0
   37.9020   23.9290   37.9040 C   0  0  0  0  0  0  0  0  0  0  0  0
   37.5130   23.8850   36.6190 N   0  0  0  0  0  0  0  0  0  0  0  0
   38.2090   23.2200   35.6790 C   0  0  0  0  0  0  0  0  0  0  0  0
   39.3110   22.5980   36.0590 N   0  0  0  0  0  0  0  0  0  0  0  0
   39.3460   23.3280   39.3450 H   0  0  0  0  0  0  0  0  0  0  0  0
   37.2870   24.4830   38.5990 H   0  0  0  0  0  0  0  0  0  0  0  0
   37.9400   23.0640   34.2550 C   0  0  0  0  0  0  0  0  0  0  0  0
   38.5370   23.8760   33.3140 C   0  0  0  0  0  3  0  0  0  0  0  0
   38.3310   23.7890   31.9560 C   0  0  0  0  0  3  0  0  0  0  0  0
   37.4750   22.8370   31.4580 C   0  0  0  0  0  3  0  0  0  0  0  0
   36.8520   22.0000   32.3440 C   0  0  0  0  0  0  0  0  0  0  0  0
   35.9970   21.0540   31.8400 C   0  0  0  0  0  3  0  0  0  0  0  0
   35.3330   20.1790   32.6770 C   0  0  0  0  0  3  0  0  0  0  0  0
   35.5670   20.2980   34.0460 C   0  0  0  0  0  3  0  0  0  0  0  0
   36.4340   21.2670   34.4870 C   0  0  0  0  0  3  0  0  0  0  0  0
   37.1020   22.1420   33.6780 C   0  0  0  0  0  0  0  0  0  0  0  0
   40.9060   21.9370   37.6690 O   0  0  0  0  0  0  0  0  0  0  0  0
   42.1190   21.9820   37.0210 C   0  0  0  0  0  0  0  0  0  0  0  0
   42.7180   23.0970   36.4860 C   0  0  0  0  0  0  0  0  0  0  0  0
   43.8910   22.7840   35.9320 N   0  0  0  0  0  0  0  0  0  0  0  0
   44.1210   21.4590   36.0710 C   0  0  0  0  0  0  0  0  0  0  0  0
   45.1570   20.6160   35.6940 C   0  0  0  0  0  0  0  0  0  0  0  0
   45.1060   19.2660   35.9870 C   0  0  0  0  0  0  0  0  0  0  0  0
   44.0030   18.7700   36.6640 C   0  0  0  0  0  0  0  0  0  0  0  0
   42.9710   19.6130   37.0390 C   0  0  0  0  0  0  0  0  0  0  0  0
   43.0270   20.9720   36.7430 C   0  0  0  0  0  0  0  0  0  0  0  0
   42.3430   24.1100   36.4840 H   0  0  0  0  0  0  0  0  0  0  0  0
   44.5770   23.3990   35.4490 H   0  0  0  0  0  0  0  0  0  0  0  0
   46.0110   21.0320   35.1640 H   0  0  0  0  0  0  0  0  0  0  0  0
   45.8960   18.5850   35.7070 H   0  0  0  0  0  0  0  0  0  0  0  0
   43.8790   17.7150   36.9370 H   0  0  0  0  0  0  0  0  0  0  0  0
   42.1130   19.2170   37.5680 H   0  0  0  0  0  0  0  0  0  0  0  0
  1 19  1  0  0  0  0
  1  2  1  0  0  0  0
  2  7  1  0  0  0  0
  3  2  2  0  0  0  0
  3  8  1  0  0  0  0
  4  3  1  0  0  0  0
  5  6  1  0  0  0  0
  5  4  2  0  0  0  0
  6  1  2  0  0  0  0
  9  5  1  0  0  0  0
 10  9  2  0  0  0  0
 11 10  1  0  0  0  0
 12 11  2  0  0  0  0
 12 13  1  0  0  0  0
 13 18  1  0  0  0  0
 14 13  2  0  0  0  0
 14 15  1  0  0  0  0
 15 16  2  0  0  0  0
 16 17  1  0  0  0  0
 18  9  1  0  0  0  0
 18 17  2  0  0  0  0
 20 19  1  0  0  0  0
 21 20  2  0  0  0  0
 22 23  1  0  0  0  0
 22 21  1  0  0  0  0
 23 28  1  0  0  0  0
 24 25  1  0  0  0  0
 24 23  2  0  0  0  0
 25 26  2  0  0  0  0
 26 33  1  0  0  0  0
 26 27  1  0  0  0  0
 27 34  1  0  0  0  0
 28 20  1  0  0  0  0
 28 27  2  0  0  0  0
 29 21  1  0  0  0  0
 30 22  1  0  0  0  0
 31 24  1  0  0  0  0
 32 25  1  0  0  0  0
M  END
>  <minimizedAffinity>
-6.00534153

>  <minimizedRMSD>
1.14758217

$$$$
