
 OpenBabel03262519233D

 30 34  0  0  0  0  0  0  0  0999 V2000
   39.6410   25.5430   32.5650 C   0  0  0  0  0  0  0  0  0  0  0  0
   39.8980   25.9450   33.8720 C   0  0  0  0  0  0  0  0  0  0  0  0
   40.8000   26.9860   34.0890 C   0  0  0  0  0  0  0  0  0  0  0  0
   41.4010   27.5780   33.0260 N   0  0  0  0  0  0  0  0  0  0  0  0
   41.1320   27.1660   31.7560 C   0  0  0  0  0  0  0  0  0  0  0  0
   40.2750   26.1750   31.5380 N   0  0  0  0  0  0  0  0  0  0  0  0
   41.0220   27.3250   35.1140 H   0  0  0  0  0  0  0  0  0  0  0  0
   41.7080   27.7600   31.0660 H   0  0  0  0  0  0  0  0  0  0  0  0
   39.2600   25.3110   34.9370 N   0  0  0  0  0  0  0  0  0  0  0  0
   38.0080   25.5650   35.3870 C   0  0  0  0  0  0  0  0  0  0  0  0
   37.6820   24.7830   36.4340 N   0  0  0  0  0  0  0  0  0  0  0  0
   38.7590   24.0000   36.6660 C   0  0  0  0  0  0  0  0  0  0  0  0
   39.0360   23.0190   37.5790 C   0  0  0  0  0  0  0  0  0  0  0  0
   40.2080   22.3490   37.6310 N   0  0  0  0  0  0  0  0  0  0  0  0
   41.1350   22.7110   36.6960 C   0  0  0  0  0  0  0  0  0  0  0  0
   40.8550   23.6640   35.8140 N   0  0  0  0  0  0  0  0  0  0  0  0
   39.7150   24.3430   35.7330 C   0  0  0  0  0  0  0  0  0  0  0  0
   37.3170   26.3040   34.9800 H   0  0  0  0  0  0  0  0  0  0  0  0
   38.3110   22.7200   38.3310 H   0  0  0  0  0  0  0  0  0  0  0  0
   42.0790   22.1840   36.7250 H   0  0  0  0  0  0  0  0  0  0  0  0
   38.7210   24.4670   32.2360 C   0  0  0  0  0  0  0  0  0  0  0  0
   39.0970   23.1420   32.3380 C   0  0  0  0  0  0  0  0  0  0  0  0
   38.2260   22.1010   32.0350 C   0  0  0  0  0  0  0  0  0  0  0  0
   36.9270   22.3730   31.6130 C   0  0  0  0  0  0  0  0  0  0  0  0
   36.5260   23.6780   31.5020 C   0  0  0  0  0  0  0  0  0  0  0  0
   35.2480   23.9830   31.0850 C   0  0  0  0  0  0  0  0  0  0  0  0
   34.7930   25.2830   30.9520 C   0  0  0  0  0  0  0  0  0  0  0  0
   35.6870   26.3120   31.2620 C   0  0  0  0  0  0  0  0  0  0  0  0
   36.9540   25.9650   31.6750 C   0  0  0  0  0  0  0  0  0  0  0  0
   37.4250   24.6770   31.8130 C   0  0  0  0  0  0  0  0  0  0  0  0
  1  2  1  0  0  0  0
  2  3  2  0  0  0  0
  2  9  1  0  0  0  0
  3  7  1  0  0  0  0
  4  3  1  0  0  0  0
  5  4  2  0  0  0  0
  6  5  1  0  0  0  0
  6  1  2  0  0  0  0
  8  5  1  0  0  0  0
  9 10  1  0  0  0  0
  9 17  1  0  0  0  0
 10 11  2  0  0  0  0
 11 12  1  0  0  0  0
 12 13  1  0  0  0  0
 13 14  2  0  0  0  0
 13 19  1  0  0  0  0
 15 20  1  0  0  0  0
 15 14  1  0  0  0  0
 16 15  2  0  0  0  0
 17 16  1  0  0  0  0
 17 12  2  0  0  0  0
 18 10  1  0  0  0  0
 21 22  1  0  0  0  0
 21  1  1  0  0  0  0
 23 22  2  0  0  0  0
 24 23  1  0  0  0  0
 25 24  2  0  0  0  0
 25 30  1  0  0  0  0
 26 25  1  0  0  0  0
 27 26  2  0  0  0  0
 27 28  1  0  0  0  0
 28 29  2  0  0  0  0
 29 30  1  0  0  0  0
 30 21  2  0  0  0  0
M  END
>  <minimizedAffinity>
-5.7442956

>  <minimizedRMSD>
2.57332349

$$$$
