
 OpenBabel03262519303D

 34 38  0  0  0  0  0  0  0  0999 V2000
   39.7130   22.5440   37.2030 C   0  0  0  0  0  0  0  0  0  0  0  0
   39.0270   23.2280   38.1950 C   0  0  0  0  0  0  0  0  0  0  0  0
   37.8560   23.8990   37.7710 C   0  0  0  0  0  0  0  0  0  0  0  0
   37.4760   23.8460   36.4830 N   0  0  0  0  0  0  0  0  0  0  0  0
   38.1740   23.1670   35.5540 C   0  0  0  0  0  0  0  0  0  0  0  0
   39.2680   22.5410   35.9490 N   0  0  0  0  0  0  0  0  0  0  0  0
   39.2850   23.3010   39.2280 H   0  0  0  0  0  0  0  0  0  0  0  0
   37.2400   24.4640   38.4550 H   0  0  0  0  0  0  0  0  0  0  0  0
   37.9140   23.0000   34.1300 C   0  0  0  0  0  0  0  0  0  0  0  0
   38.5290   23.7950   33.1860 C   0  0  0  0  0  3  0  0  0  0  0  0
   38.3320   23.6970   31.8280 C   0  0  0  0  0  3  0  0  0  0  0  0
   37.4680   22.7500   31.3330 C   0  0  0  0  0  3  0  0  0  0  0  0
   36.8270   21.9300   32.2220 C   0  0  0  0  0  0  0  0  0  0  0  0
   35.9670   20.9880   31.7210 C   0  0  0  0  0  3  0  0  0  0  0  0
   35.2850   20.1290   32.5620 C   0  0  0  0  0  3  0  0  0  0  0  0
   35.5100   20.2610   33.9310 C   0  0  0  0  0  3  0  0  0  0  0  0
   36.3850   21.2230   34.3690 C   0  0  0  0  0  3  0  0  0  0  0  0
   37.0700   22.0830   33.5550 C   0  0  0  0  0  0  0  0  0  0  0  0
   40.8470   21.8840   37.5760 O   0  0  0  0  0  0  0  0  0  0  0  0
   42.0820   21.9640   36.9740 C   0  0  0  0  0  0  0  0  0  0  0  0
   42.6590   23.0910   36.4410 C   0  0  0  0  0  0  0  0  0  0  0  0
   43.8630   22.8140   35.9380 N   0  0  0  0  0  0  0  0  0  0  0  0
   44.1370   21.5020   36.1120 C   0  0  0  0  0  0  0  0  0  0  0  0
   45.2190   20.6920   35.7910 C   0  0  0  0  0  0  0  0  0  0  0  0
   45.2070   19.3470   36.1080 C   0  0  0  0  0  0  0  0  0  0  0  0
   44.0980   18.8210   36.7520 C   0  0  0  0  0  0  0  0  0  0  0  0
   43.0220   19.6300   37.0710 C   0  0  0  0  0  0  0  0  0  0  0  0
   43.0380   20.9850   36.7500 C   0  0  0  0  0  0  0  0  0  0  0  0
   42.2460   24.0890   36.4040 H   0  0  0  0  0  0  0  0  0  0  0  0
   44.5430   23.4460   35.4700 H   0  0  0  0  0  0  0  0  0  0  0  0
   46.0760   21.1320   35.2860 H   0  0  0  0  0  0  0  0  0  0  0  0
   46.0330   18.6920   35.8710 H   0  0  0  0  0  0  0  0  0  0  0  0
   44.0040   17.7670   37.0410 H   0  0  0  0  0  0  0  0  0  0  0  0
   42.1590   19.2110   37.5750 H   0  0  0  0  0  0  0  0  0  0  0  0
  1 19  1  0  0  0  0
  1  2  1  0  0  0  0
  2  7  1  0  0  0  0
  3  2  2  0  0  0  0
  3  8  1  0  0  0  0
  4  3  1  0  0  0  0
  5  6  1  0  0  0  0
  5  4  2  0  0  0  0
  6  1  2  0  0  0  0
  9  5  1  0  0  0  0
 10  9  2  0  0  0  0
 11 10  1  0  0  0  0
 12 11  2  0  0  0  0
 12 13  1  0  0  0  0
 13 18  1  0  0  0  0
 14 13  2  0  0  0  0
 14 15  1  0  0  0  0
 15 16  2  0  0  0  0
 16 17  1  0  0  0  0
 18  9  1  0  0  0  0
 18 17  2  0  0  0  0
 20 19  1  0  0  0  0
 21 20  2  0  0  0  0
 22 23  1  0  0  0  0
 22 21  1  0  0  0  0
 23 28  1  0  0  0  0
 24 25  1  0  0  0  0
 24 23  2  0  0  0  0
 25 26  2  0  0  0  0
 26 33  1  0  0  0  0
 26 27  1  0  0  0  0
 27 34  1  0  0  0  0
 28 20  1  0  0  0  0
 28 27  2  0  0  0  0
 29 21  1  0  0  0  0
 30 22  1  0  0  0  0
 31 24  1  0  0  0  0
 32 25  1  0  0  0  0
M  END
>  <minimizedAffinity>
-6.0197258

>  <minimizedRMSD>
0.934326708

$$$$
