
 OpenBabel03262519413D

 42 46  0  0  1  0  0  0  0  0999 V2000
   37.8350   25.6070   34.3990 N   0  0  0  0  0  0  0  0  0  0  0  0
   37.1030   25.4600   33.1570 C   0  0  0  0  0  0  0  0  0  0  0  0
   36.8390   26.8490   32.6830 C   0  0  0  0  0  0  0  0  0  0  0  0
   37.5060   27.7320   33.7250 C   0  0  0  0  0  0  0  0  0  0  0  0
   38.6370   26.7650   34.1830 C   0  0  2  0  0  0  0  0  0  0  0  0
   37.7240   24.9150   32.4040 H   0  0  0  0  0  0  0  0  0  0  0  0
   36.1380   24.9320   33.2950 H   0  0  0  0  0  0  0  0  0  0  0  0
   37.3060   27.0900   31.7090 H   0  0  0  0  0  0  0  0  0  0  0  0
   35.7550   27.1180   32.7310 H   0  0  0  0  0  0  0  0  0  0  0  0
   37.9730   28.6260   33.2970 H   0  0  0  0  0  0  0  0  0  0  0  0
   36.8560   27.9080   34.5990 H   0  0  0  0  0  0  0  0  0  0  0  0
   39.1060   27.2130   35.0700 H   0  0  0  0  0  0  0  0  0  0  0  0
   38.7240   24.5030   34.6220 C   0  0  0  0  0  0  0  0  0  0  0  0
   39.7590   24.6880   34.2590 H   0  0  0  0  0  0  0  0  0  0  0  0
   38.3150   23.6360   34.0620 H   0  0  0  0  0  0  0  0  0  0  0  0
   37.9510   24.2750   38.3260 C   0  0  0  0  0  0  0  0  0  0  0  0
   37.8710   24.6880   36.9980 C   0  0  0  0  0  0  0  0  0  0  0  0
   38.7550   24.1100   36.0680 C   0  0  0  0  0  0  0  0  0  0  0  0
   39.6390   23.1800   36.5280 N   0  0  0  0  0  0  0  0  0  0  0  0
   39.6710   22.8210   37.8250 C   0  0  0  0  0  0  0  0  0  0  0  0
   38.8260   23.3720   38.7130 N   0  0  0  0  0  0  0  0  0  0  0  0
   37.2550   24.7430   39.0100 H   0  0  0  0  0  0  0  0  0  0  0  0
   37.1760   25.4200   36.6330 H   0  0  0  0  0  0  0  0  0  0  0  0
   40.3430   22.0930   38.2510 H   0  0  0  0  0  0  0  0  0  0  0  0
   39.5810   26.5890   33.2150 O   0  0  0  0  0  0  0  0  0  0  0  0
   40.8380   27.0220   33.5570 C   0  0  2  0  0  0  0  0  0  0  0  0
   41.6490   27.6060   32.4310 C   0  0  0  0  0  0  0  0  0  0  0  0
   42.0590   26.3060   33.0600 C   0  0  1  0  0  0  0  0  0  0  0  0
   40.9140   27.3330   34.6040 H   0  0  0  0  0  0  0  0  0  0  0  0
   41.1980   27.5770   31.3960 H   0  0  0  0  0  0  0  0  0  0  0  0
   42.1950   28.5430   32.5700 H   0  0  0  0  0  0  0  0  0  0  0  0
   41.8080   25.4280   32.4430 H   0  0  0  0  0  0  0  0  0  0  0  0
   43.2310   26.3520   33.9180 C   0  0  0  0  0  0  0  0  0  0  0  0
   44.1520   27.3790   33.9220 C   0  0  0  0  0  0  0  0  0  0  0  0
   45.2580   27.4430   34.7530 C   0  0  0  0  0  0  0  0  0  0  0  0
   45.5060   26.4380   35.6590 C   0  0  0  0  0  0  0  0  0  0  0  0
   44.6170   25.3850   35.6960 C   0  0  0  0  0  0  0  0  0  0  0  0
   44.9010   24.3870   36.6030 C   0  0  0  0  0  0  0  0  0  0  0  0
   44.0740   23.2900   36.6980 C   0  0  0  0  0  0  0  0  0  0  0  0
   42.9840   23.2550   35.8580 C   0  0  0  0  0  0  0  0  0  0  0  0
   42.7270   24.2690   34.9620 C   0  0  0  0  0  0  0  0  0  0  0  0
   43.5220   25.3700   34.8400 C   0  0  0  0  0  0  0  0  0  0  0  0
  1 13  1  0  0  0  0
  2  7  1  0  0  0  0
  2  1  1  0  0  0  0
  3  9  1  0  0  0  0
  3  2  1  0  0  0  0
  3  4  1  0  0  0  0
  4  5  1  0  0  0  0
  4 11  1  0  0  0  0
  5  1  1  0  0  0  0
  5 12  1  1  0  0  0
  6  2  1  0  0  0  0
  8  3  1  0  0  0  0
 10  4  1  0  0  0  0
 13 18  1  0  0  0  0
 14 13  1  0  0  0  0
 15 13  1  0  0  0  0
 16 21  1  0  0  0  0
 16 22  1  0  0  0  0
 17 16  2  0  0  0  0
 18 19  2  0  0  0  0
 18 17  1  0  0  0  0
 19 20  1  0  0  0  0
 20 24  1  0  0  0  0
 20 21  2  0  0  0  0
 23 17  1  0  0  0  0
 25 26  1  0  0  0  0
 25  5  1  0  0  0  0
 26 29  1  1  0  0  0
 27 31  1  0  0  0  0
 27 28  1  0  0  0  0
 27 26  1  0  0  0  0
 28 32  1  6  0  0  0
 28 26  1  0  0  0  0
 28 33  1  0  0  0  0
 30 27  1  0  0  0  0
 33 34  2  0  0  0  0
 33 42  1  0  0  0  0
 34 35  1  0  0  0  0
 35 36  2  0  0  0  0
 36 37  1  0  0  0  0
 37 38  1  0  0  0  0
 38 39  2  0  0  0  0
 40 39  1  0  0  0  0
 41 40  2  0  0  0  0
 42 41  1  0  0  0  0
 42 37  2  0  0  0  0
M  END
>  <minimizedAffinity>
-5.36529636

>  <minimizedRMSD>
1.47261381

$$$$
