
 OpenBabel03262517323D

 26 29  0  0  0  0  0  0  0  0999 V2000
   38.3240   21.9900   34.6350 C   0  0  0  0  0  0  0  0  0  0  0  0
   37.0930   21.7260   34.1820 C   0  0  0  0  0  0  0  0  0  0  0  0
   36.7750   21.2980   32.9430 C   0  0  0  0  0  0  0  0  0  0  0  0
   37.9490   21.1430   32.1150 C   0  0  0  0  0  0  0  0  0  0  0  0
   39.3990   21.6320   33.1930 S   0  0  0  0  0  0  0  0  0  0  0  0
   36.1830   21.8430   34.8300 H   0  0  0  0  0  0  0  0  0  0  0  0
   35.8210   21.1150   32.5450 H   0  0  0  0  0  0  0  0  0  0  0  0
   38.2600   20.8100   30.7700 C   0  0  0  0  0  0  0  0  0  0  0  0
   39.1080   21.6620   30.0450 C   0  0  0  0  0  0  0  0  0  0  0  0
   39.4910   21.4400   28.7460 C   0  0  0  0  0  0  0  0  0  0  0  0
   39.0340   20.3260   28.0950 C   0  0  0  0  0  0  0  0  0  0  0  0
   38.2000   19.4360   28.7330 C   0  0  0  0  0  0  0  0  0  0  0  0
   37.7910   18.3110   28.0580 C   0  0  0  0  0  0  0  0  0  0  0  0
   36.9910   17.3880   28.6990 C   0  0  0  0  0  0  0  0  0  0  0  0
   36.6400   17.6650   30.0260 C   0  0  0  0  0  0  0  0  0  0  0  0
   37.0840   18.8110   30.6400 C   0  0  0  0  0  0  0  0  0  0  0  0
   37.8760   19.7470   30.0300 C   0  0  0  0  0  0  0  0  0  0  0  0
   39.9900   22.7180   37.7380 C   0  0  0  0  0  0  0  0  0  0  0  0
   38.9640   23.2940   38.5270 C   0  0  0  0  0  0  0  0  0  0  0  0
   37.6780   23.4360   37.9760 C   0  0  0  0  0  0  0  0  0  0  0  0
   37.4890   23.0050   36.6930 N   0  0  0  0  0  0  0  0  0  0  0  0
   38.5100   22.4540   35.9700 C   0  0  0  0  0  0  0  0  0  0  0  0
   39.7310   22.3150   36.4820 N   0  0  0  0  0  0  0  0  0  0  0  0
   40.9730   22.6150   38.1730 H   0  0  0  0  0  0  0  0  0  0  0  0
   39.2210   23.5990   39.5240 H   0  0  0  0  0  0  0  0  0  0  0  0
   36.9040   23.8720   38.5720 H   0  0  0  0  0  0  0  0  0  0  0  0
  1 22  1  0  0  0  0
  2  1  2  0  0  0  0
  2  6  1  0  0  0  0
  3  2  1  0  0  0  0
  4  3  2  0  0  0  0
  4  5  1  0  0  0  0
  5  1  1  0  0  0  0
  7  3  1  0  0  0  0
  8  4  1  0  0  0  0
  9  8  1  0  0  0  0
 10  9  2  0  0  0  0
 11 12  2  0  0  0  0
 11 10  1  0  0  0  0
 12 17  1  0  0  0  0
 13 14  2  0  0  0  0
 13 12  1  0  0  0  0
 14 15  1  0  0  0  0
 15 16  2  0  0  0  0
 17 16  1  0  0  0  0
 17  8  2  0  0  0  0
 18 24  1  0  0  0  0
 18 19  1  0  0  0  0
 19 25  1  0  0  0  0
 20 19  2  0  0  0  0
 20 26  1  0  0  0  0
 21 20  1  0  0  0  0
 22 23  1  0  0  0  0
 22 21  2  0  0  0  0
 23 18  2  0  0  0  0
M  END
>  <minimizedAffinity>
-4.61760092

>  <minimizedRMSD>
2.01880193

$$$$
