
 OpenBabel03262519303D

 34 38  0  0  0  0  0  0  0  0999 V2000
   39.6580   22.3820   37.3620 C   0  0  0  0  0  0  0  0  0  0  0  0
   39.2510   23.3720   38.2420 C   0  0  0  0  0  0  0  0  0  0  0  0
   38.0020   23.9690   37.9490 C   0  0  0  0  0  0  0  0  0  0  0  0
   37.2960   23.5670   36.8780 N   0  0  0  0  0  0  0  0  0  0  0  0
   37.7320   22.6000   36.0510 C   0  0  0  0  0  0  0  0  0  0  0  0
   38.8980   22.0430   36.3230 N   0  0  0  0  0  0  0  0  0  0  0  0
   39.7710   23.7270   39.1040 H   0  0  0  0  0  0  0  0  0  0  0  0
   37.5820   24.7520   38.5650 H   0  0  0  0  0  0  0  0  0  0  0  0
   37.1070   22.0410   34.8580 C   0  0  0  0  0  0  0  0  0  0  0  0
   36.2440   20.9690   34.9320 C   0  0  0  0  0  3  0  0  0  0  0  0
   35.6200   20.3880   33.8520 C   0  0  0  0  0  3  0  0  0  0  0  0
   35.8450   20.8820   32.5900 C   0  0  0  0  0  3  0  0  0  0  0  0
   36.6930   21.9480   32.4530 C   0  0  0  0  0  0  0  0  0  0  0  0
   36.9140   22.4350   31.1910 C   0  0  0  0  0  3  0  0  0  0  0  0
   37.7590   23.5060   30.9800 C   0  0  0  0  0  3  0  0  0  0  0  0
   38.3750   24.0670   32.0990 C   0  0  0  0  0  3  0  0  0  0  0  0
   38.1110   23.5330   33.3360 C   0  0  0  0  0  3  0  0  0  0  0  0
   37.2780   22.4740   33.5670 C   0  0  0  0  0  0  0  0  0  0  0  0
   40.8580   21.7830   37.6130 O   0  0  0  0  0  0  0  0  0  0  0  0
   42.0390   21.9900   36.9390 C   0  0  0  0  0  0  0  0  0  0  0  0
   42.4360   23.1520   36.3240 C   0  0  0  0  0  0  0  0  0  0  0  0
   43.6380   23.0050   35.7650 N   0  0  0  0  0  0  0  0  0  0  0  0
   44.0900   21.7490   35.9810 C   0  0  0  0  0  0  0  0  0  0  0  0
   45.2500   21.0690   35.6350 C   0  0  0  0  0  0  0  0  0  0  0  0
   45.4290   19.7520   36.0110 C   0  0  0  0  0  0  0  0  0  0  0  0
   44.4330   19.1220   36.7400 C   0  0  0  0  0  0  0  0  0  0  0  0
   43.2780   19.8030   37.0840 C   0  0  0  0  0  0  0  0  0  0  0  0
   43.1010   21.1300   36.7040 C   0  0  0  0  0  0  0  0  0  0  0  0
   41.8950   24.0860   36.2670 H   0  0  0  0  0  0  0  0  0  0  0  0
   44.2060   23.6950   35.2320 H   0  0  0  0  0  0  0  0  0  0  0  0
   46.0150   21.5880   35.0620 H   0  0  0  0  0  0  0  0  0  0  0  0
   46.3210   19.1970   35.7560 H   0  0  0  0  0  0  0  0  0  0  0  0
   44.4920   18.0810   37.0800 H   0  0  0  0  0  0  0  0  0  0  0  0
   42.5050   19.3030   37.6550 H   0  0  0  0  0  0  0  0  0  0  0  0
  1 19  1  0  0  0  0
  1  2  1  0  0  0  0
  2  7  1  0  0  0  0
  3  2  2  0  0  0  0
  3  8  1  0  0  0  0
  4  3  1  0  0  0  0
  5  6  1  0  0  0  0
  5  4  2  0  0  0  0
  6  1  2  0  0  0  0
  9 10  1  0  0  0  0
  9  5  1  0  0  0  0
 11 10  2  0  0  0  0
 12 11  1  0  0  0  0
 13 12  2  0  0  0  0
 13 18  1  0  0  0  0
 14 13  1  0  0  0  0
 15 14  2  0  0  0  0
 15 16  1  0  0  0  0
 16 17  2  0  0  0  0
 17 18  1  0  0  0  0
 18  9  2  0  0  0  0
 20 19  1  0  0  0  0
 21 20  2  0  0  0  0
 22 23  1  0  0  0  0
 22 21  1  0  0  0  0
 23 28  1  0  0  0  0
 24 23  2  0  0  0  0
 24 25  1  0  0  0  0
 25 26  2  0  0  0  0
 26 33  1  0  0  0  0
 26 27  1  0  0  0  0
 27 34  1  0  0  0  0
 28 20  1  0  0  0  0
 28 27  2  0  0  0  0
 29 21  1  0  0  0  0
 30 22  1  0  0  0  0
 31 24  1  0  0  0  0
 32 25  1  0  0  0  0
M  END
>  <minimizedAffinity>
-5.80400705

>  <minimizedRMSD>
2.18105793

$$$$
