
 OpenBabel03262519263D

 46 52  0  0  0  0  0  0  0  0999 V2000
   38.6740   23.0480   32.7690 C   0  0  0  0  0  0  0  0  0  0  0  0
   38.4910   21.8060   33.3630 C   0  0  0  0  0  0  0  0  0  0  0  0
   37.2670   21.1310   33.3290 C   0  0  0  0  0  0  0  0  0  0  0  0
   36.1810   21.7100   32.6800 C   0  0  0  0  0  0  0  0  0  0  0  0
   36.3400   22.9450   32.0810 C   0  0  0  0  0  0  0  0  0  0  0  0
   35.2740   23.5150   31.4450 C   0  0  0  0  0  0  0  0  0  0  0  0
   35.3700   24.7440   30.8240 C   0  0  0  0  0  0  0  0  0  0  0  0
   36.6120   25.3920   30.8680 C   0  0  0  0  0  0  0  0  0  0  0  0
   37.6560   24.7650   31.5280 C   0  0  0  0  0  0  0  0  0  0  0  0
   37.5700   23.5580   32.1470 C   0  0  0  0  0  0  0  0  0  0  0  0
   39.3630   21.3850   33.8620 H   0  0  0  0  0  0  0  0  0  0  0  0
   37.1700   20.1640   33.8060 H   0  0  0  0  0  0  0  0  0  0  0  0
   35.2430   21.1850   32.6590 H   0  0  0  0  0  0  0  0  0  0  0  0
   34.3470   22.9580   31.4490 H   0  0  0  0  0  0  0  0  0  0  0  0
   34.4390   25.0780   30.3580 H   0  0  0  0  0  0  0  0  0  0  0  0
   36.5120   26.3290   30.3400 H   0  0  0  0  0  0  0  0  0  0  0  0
   38.7650   25.6540   31.2430 C   0  0  0  0  0  0  0  0  0  0  0  0
   39.3490   26.7510   31.8170 C   0  0  0  0  0  0  0  0  0  0  0  0
   40.3880   27.4890   31.3300 C   0  0  0  0  0  0  0  0  0  0  0  0
   40.9510   27.1340   30.1270 C   0  0  0  0  0  0  0  0  0  0  0  0
   40.4550   26.0480   29.4460 C   0  0  0  0  0  0  0  0  0  0  0  0
   41.0410   25.7310   28.2580 C   0  0  0  0  0  0  0  0  0  0  0  0
   40.5690   24.6510   27.5510 C   0  0  0  0  0  0  0  0  0  0  0  0
   39.5280   23.8970   28.0200 C   0  0  0  0  0  0  0  0  0  0  0  0
   38.9880   24.2670   29.2110 C   0  0  0  0  0  0  0  0  0  0  0  0
   39.4020   25.3470   29.9970 C   0  0  0  0  0  0  0  0  0  0  0  0
   39.9390   23.7130   32.8430 C   0  0  0  0  0  0  0  0  0  0  0  0
   40.2820   24.6080   33.8790 C   0  0  0  0  0  0  0  0  0  0  0  0
   41.5560   25.1950   33.8530 C   0  0  0  0  0  0  0  0  0  0  0  0
   42.4090   24.8730   32.8320 N   0  0  0  0  0  0  0  0  0  0  0  0
   42.0530   24.0080   31.8580 C   0  0  0  0  0  0  0  0  0  0  0  0
   40.8570   23.4610   31.8840 N   0  0  0  0  0  0  0  0  0  0  0  0
   41.8230   25.8850   34.6430 H   0  0  0  0  0  0  0  0  0  0  0  0
   42.7390   23.7630   31.0600 H   0  0  0  0  0  0  0  0  0  0  0  0
   39.3850   24.8510   34.9070 N   0  0  0  0  0  0  0  0  0  0  0  0
   38.4270   25.7810   34.9230 C   0  0  0  0  0  0  0  0  0  0  0  0
   37.7200   25.7610   36.0710 N   0  0  0  0  0  0  0  0  0  0  0  0
   38.2560   24.7640   36.8280 C   0  0  0  0  0  0  0  0  0  0  0  0
   37.9700   24.2690   38.0720 C   0  0  0  0  0  0  0  0  0  0  0  0
   38.6460   23.2500   38.6390 N   0  0  0  0  0  0  0  0  0  0  0  0
   39.6490   22.7300   37.8910 C   0  0  0  0  0  0  0  0  0  0  0  0
   39.9110   23.2240   36.6850 N   0  0  0  0  0  0  0  0  0  0  0  0
   39.2790   24.2200   36.0870 C   0  0  0  0  0  0  0  0  0  0  0  0
   38.0360   26.5590   34.2860 H   0  0  0  0  0  0  0  0  0  0  0  0
   37.1440   24.7540   38.5980 H   0  0  0  0  0  0  0  0  0  0  0  0
   40.2890   21.8980   38.2160 H   0  0  0  0  0  0  0  0  0  0  0  0
  1 27  1  0  0  0  0
  1  2  1  0  0  0  0
  2 11  1  0  0  0  0
  3  2  2  0  0  0  0
  3 12  1  0  0  0  0
  4  3  1  0  0  0  0
  5 10  1  0  0  0  0
  5  4  2  0  0  0  0
  6 14  1  0  0  0  0
  6  5  1  0  0  0  0
  7  8  1  0  0  0  0
  7  6  2  0  0  0  0
  8  9  2  0  0  0  0
  9 10  1  0  0  0  0
 10  1  2  0  0  0  0
 13  4  1  0  0  0  0
 15  7  1  0  0  0  0
 16  8  1  0  0  0  0
 17  9  1  0  0  0  0
 17 18  1  0  0  0  0
 19 18  2  0  0  0  0
 20 19  1  0  0  0  0
 21 26  1  0  0  0  0
 21 20  2  0  0  0  0
 22 21  1  0  0  0  0
 23 24  1  0  0  0  0
 23 22  2  0  0  0  0
 24 25  2  0  0  0  0
 25 26  1  0  0  0  0
 26 17  2  0  0  0  0
 27 28  1  0  0  0  0
 28 35  1  0  0  0  0
 29 28  2  0  0  0  0
 29 33  1  0  0  0  0
 30 29  1  0  0  0  0
 31 32  1  0  0  0  0
 31 30  2  0  0  0  0
 32 27  2  0  0  0  0
 34 31  1  0  0  0  0
 35 36  1  0  0  0  0
 35 43  1  0  0  0  0
 36 37  2  0  0  0  0
 37 38  1  0  0  0  0
 38 39  1  0  0  0  0
 39 45  1  0  0  0  0
 39 40  2  0  0  0  0
 41 46  1  0  0  0  0
 41 40  1  0  0  0  0
 42 41  2  0  0  0  0
 43 42  1  0  0  0  0
 43 38  2  0  0  0  0
 44 36  1  0  0  0  0
M  END
>  <minimizedAffinity>
-6.40047455

>  <minimizedRMSD>
2.14510155

$$$$
