
     RDKit          3D

 41 45  0  0  0  0  0  0  0  0999 V2000
   40.7093   21.9228   37.6207 O   0  0  0  0  0  0  0  0  0  0  0  0
   41.9267   22.0702   36.9991 C   0  0  0  0  0  0  0  0  0  0  0  0
   42.4175   23.2169   36.4231 C   0  0  0  0  0  0  0  0  0  0  0  0
   43.6314   23.0076   35.9107 N   0  0  0  0  0  0  0  0  0  0  0  0
   43.9989   21.7240   36.1213 C   0  0  0  0  0  0  0  0  0  0  0  0
   45.1302   20.9818   35.8088 C   0  0  0  0  0  0  0  0  0  0  0  0
   45.2161   19.6496   36.1675 C   0  0  0  0  0  0  0  0  0  0  0  0
   44.1548   19.0694   36.8432 C   0  0  0  0  0  0  0  0  0  0  0  0
   43.0294   19.8109   37.1534 C   0  0  0  0  0  0  0  0  0  0  0  0
   42.9460   21.1530   36.7908 C   0  0  0  0  0  0  0  0  0  0  0  0
   39.5979   22.6915   37.4326 C   0  0  0  0  0  0  0  0  0  0  0  0
   39.0939   23.3534   38.5418 C   0  0  0  0  0  0  0  0  0  0  0  0
   37.9410   24.1398   38.3080 C   0  0  0  0  0  0  0  0  0  0  0  0
   37.4088   24.2080   37.0764 N   0  0  0  0  0  0  0  0  0  0  0  0
   37.9332   23.5475   36.0280 C   0  0  0  0  0  0  0  0  0  0  0  0
   39.0099   22.8126   36.2455 N   0  0  0  0  0  0  0  0  0  0  0  0
   41.9351   24.1818   36.3625 H   0  0  0  0  0  0  0  0  0  0  0  0
   44.2596   23.6714   35.4143 H   0  0  0  0  0  0  0  0  0  0  0  0
   45.9477   21.4638   35.2778 H   0  0  0  0  0  0  0  0  0  0  0  0
   46.0830   19.0469   35.9384 H   0  0  0  0  0  0  0  0  0  0  0  0
   44.1383   18.0205   37.1651 H   0  0  0  0  0  0  0  0  0  0  0  0
   42.2042   19.3485   37.6821 H   0  0  0  0  0  0  0  0  0  0  0  0
   39.4773   23.3333   39.5384 H   0  0  0  0  0  0  0  0  0  0  0  0
   37.4601   24.7002   39.0967 H   0  0  0  0  0  0  0  0  0  0  0  0
   37.4940   23.5019   34.6391 C   0  0  0  0  0  0  0  0  0  0  0  0
   37.6764   22.3780   33.8621 C   0  0  0  0  0  0  0  0  0  0  0  0
   37.2903   22.2616   32.5462 C   0  0  0  0  0  0  0  0  0  0  0  0
   36.6743   23.3194   31.9225 C   0  0  0  0  0  0  0  0  0  0  0  0
   36.4655   24.4644   32.6433 C   0  0  0  0  0  0  0  0  0  0  0  0
   35.8524   25.5162   32.0138 C   0  0  0  0  0  0  0  0  0  0  0  0
   35.6129   26.7017   32.6811 C   0  0  0  0  0  0  0  0  0  0  0  0
   36.0189   26.7813   34.0124 C   0  0  0  0  0  0  0  0  0  0  0  0
   36.6274   25.6929   34.5849 C   0  0  0  0  0  0  0  0  0  0  0  0
   36.8740   24.5105   33.9441 C   0  0  0  0  0  0  0  0  0  0  0  0
   38.1605   21.4735   34.2654 H   0  0  0  0  0  0  0  0  0  0  0  0
   37.4582   21.3623   31.9911 H   0  0  0  0  0  0  0  0  0  0  0  0
   36.3816   23.2089   30.8986 H   0  0  0  0  0  0  0  0  0  0  0  0
   35.5474   25.4212   30.9722 H   0  0  0  0  0  0  0  0  0  0  0  0
   35.1256   27.4879   32.1219 H   0  0  0  0  0  0  0  0  0  0  0  0
   35.8107   27.7227   34.4867 H   0  0  0  0  0  0  0  0  0  0  0  0
   36.9035   25.8508   35.6040 H   0  0  0  0  0  0  0  0  0  0  0  0
  2  1  1  0
  3  2  2  0
  4  5  1  0
  4  3  1  0
  5 10  2  0
  6  5  1  0
  6  7  2  0
  7  8  1  0
  8  9  2  0
 10  2  1  0
 10  9  1  0
 11  1  1  0
 11 12  2  0
 13 12  1  0
 14 13  2  0
 15 16  2  0
 15 14  1  0
 16 11  1  0
  3 17  1  0
  4 18  1  0
  6 19  1  0
  7 20  1  0
  8 21  1  0
  9 22  1  0
 12 23  1  0
 13 24  1  0
 25 26  2  0
 26 27  1  0
 27 28  2  0
 28 29  1  0
 29 30  2  0
 30 31  1  0
 31 32  2  0
 32 33  1  0
 33 34  2  0
 34 25  1  0
 34 29  1  0
 26 35  1  0
 27 36  1  0
 28 37  1  0
 30 38  1  0
 31 39  1  0
 32 40  1  0
 33 41  1  0
 15 25  1  0
M  ISO  8  17  14  18   9  19  14  20  14  21  14  22  14  23  14  24  14
M  END
>  <DihAtoms>  (1) 
15,14,24,25

>  <DihDeg>  (1) 
1.6579778244768135

$$$$
