
 OpenBabel03262518183D

 42 46  0  0  1  0  0  0  0  0999 V2000
   43.3380   23.5560   34.3320 C   0  0  1  0  0  0  0  0  0  0  0  0
   42.4900   23.4210   33.1030 C   0  0  0  0  0  0  0  0  0  0  0  0
   42.9520   24.2650   31.9670 C   0  0  0  0  0  0  0  0  0  0  0  0
   43.3700   25.6230   32.4210 C   0  0  0  0  0  0  0  0  0  0  0  0
   42.8580   25.9310   33.7860 C   0  0  0  0  0  0  0  0  0  0  0  0
   43.4750   24.9900   34.8120 C   0  0  2  0  0  0  0  0  0  0  0  0
   44.3040   23.0890   34.1440 H   0  0  0  0  0  0  0  0  0  0  0  0
   42.5340   22.3640   32.7960 H   0  0  0  0  0  0  0  0  0  0  0  0
   41.4230   23.6110   33.3900 H   0  0  0  0  0  0  0  0  0  0  0  0
   42.1550   24.2670   31.1900 H   0  0  0  0  0  0  0  0  0  0  0  0
   43.8240   23.7790   31.4850 H   0  0  0  0  0  0  0  0  0  0  0  0
   42.8460   26.3440   31.7420 H   0  0  0  0  0  0  0  0  0  0  0  0
   44.4330   25.8490   32.2600 H   0  0  0  0  0  0  0  0  0  0  0  0
   41.7540   25.7580   33.7460 H   0  0  0  0  0  0  0  0  0  0  0  0
   43.0200   26.9710   34.0670 H   0  0  0  0  0  0  0  0  0  0  0  0
   42.7760   25.1570   35.6520 H   0  0  0  0  0  0  0  0  0  0  0  0
   44.8680   25.3920   35.0820 C   0  0  0  0  0  0  0  0  0  0  0  0
   45.7530   25.6340   34.0550 C   0  0  0  0  0  0  0  0  0  0  0  0
   47.0660   26.0120   34.2440 C   0  0  0  0  0  0  0  0  0  0  0  0
   47.5690   26.1710   35.5190 C   0  0  0  0  0  0  0  0  0  0  0  0
   46.7300   25.9440   36.5890 C   0  0  0  0  0  0  0  0  0  0  0  0
   47.2020   26.0990   37.8760 C   0  0  0  0  0  0  0  0  0  0  0  0
   46.3960   25.8860   38.9710 C   0  0  0  0  0  0  0  0  0  0  0  0
   45.0850   25.5080   38.7300 C   0  0  0  0  0  0  0  0  0  0  0  0
   44.6370   25.3600   37.4350 C   0  0  0  0  0  0  0  0  0  0  0  0
   45.4300   25.5690   36.3270 C   0  0  0  0  0  0  0  0  0  0  0  0
   42.5680   21.0690   36.9000 C   0  0  0  0  0  0  0  0  0  0  0  0
   41.3380   21.4740   37.3960 C   0  0  0  0  0  0  0  0  0  0  0  0
   40.7450   22.5990   36.8560 C   0  0  0  0  0  0  0  0  0  0  0  0
   41.4160   23.2510   35.8590 N   0  0  0  0  0  0  0  0  0  0  0  0
   42.6020   22.8280   35.4090 C   0  0  0  0  0  0  0  0  0  0  0  0
   43.1670   21.7500   35.9260 N   0  0  0  0  0  0  0  0  0  0  0  0
   43.0680   20.1770   37.3080 H   0  0  0  0  0  0  0  0  0  0  0  0
   40.8730   20.9010   38.1870 H   0  0  0  0  0  0  0  0  0  0  0  0
   39.4500   23.0210   37.3800 C   0  0  0  0  0  0  0  0  0  0  0  0
   38.4920   23.7090   36.6310 C   0  0  0  0  0  0  0  0  0  0  0  0
   37.4430   23.9140   37.4750 N   0  0  0  0  0  0  0  0  0  0  0  0
   37.7800   23.3680   38.6570 C   0  0  0  0  0  0  0  0  0  0  0  0
   38.9730   22.8260   38.6360 N   0  0  0  0  0  0  0  0  0  0  0  0
   38.5780   24.0090   35.6050 H   0  0  0  0  0  0  0  0  0  0  0  0
   37.1990   23.3270   39.5930 H   0  0  0  0  0  0  0  0  0  0  0  0
   39.5250   22.3320   39.3580 H   0  0  0  0  0  0  0  0  0  0  0  0
  1  7  1  6  0  0  0
  1  6  1  0  0  0  0
  1 31  1  0  0  0  0
  2  9  1  0  0  0  0
  2  1  1  0  0  0  0
  3  4  1  0  0  0  0
  3  2  1  0  0  0  0
  4  5  1  0  0  0  0
  5 15  1  0  0  0  0
  5  6  1  0  0  0  0
  6 17  1  0  0  0  0
  6 16  1  1  0  0  0
  8  2  1  0  0  0  0
 10  3  1  0  0  0  0
 11  3  1  0  0  0  0
 12  4  1  0  0  0  0
 13  4  1  0  0  0  0
 14  5  1  0  0  0  0
 17 26  1  0  0  0  0
 18 19  1  0  0  0  0
 18 17  2  0  0  0  0
 19 20  2  0  0  0  0
 20 21  1  0  0  0  0
 21 22  1  0  0  0  0
 22 23  2  0  0  0  0
 24 23  1  0  0  0  0
 25 24  2  0  0  0  0
 26 21  2  0  0  0  0
 26 25  1  0  0  0  0
 27 33  1  0  0  0  0
 27 28  1  0  0  0  0
 28 34  1  0  0  0  0
 29 35  1  0  0  0  0
 29 28  2  0  0  0  0
 30 29  1  0  0  0  0
 31 30  2  0  0  0  0
 31 32  1  0  0  0  0
 32 27  2  0  0  0  0
 35 39  1  0  0  0  0
 36 35  2  0  0  0  0
 36 37  1  0  0  0  0
 37 38  2  0  0  0  0
 38 41  1  0  0  0  0
 39 38  1  0  0  0  0
 39 42  1  0  0  0  0
 40 36  1  0  0  0  0
M  END
>  <minimizedAffinity>
-6.18824434

>  <minimizedRMSD>
3.21509862

$$$$
