REMARK  Name = 
REMARK  5 active torsions:
REMARK  status: ('A' for Active; 'I' for Inactive)
REMARK    1  A    between atoms: C_2  and  C_7
REMARK    2  A    between atoms: C_3  and  C_11
REMARK    3  A    between atoms: C_11  and  C_12
REMARK    4  A    between atoms: C_12  and  C_13
REMARK    5  A    between atoms: C_15  and  C_26
REMARK                            x       y       z     vdW  Elec       q    Type
REMARK                         _______ _______ _______ _____ _____    ______ ____
ROOT
ATOM      1  C   UNL     1      39.014  25.092  35.695  0.00  0.00    +0.000 C 
ATOM      2  H   UNL     1      38.760  25.795  34.876  0.00  0.00    +0.000 HD
ATOM      3  H   UNL     1      39.609  25.729  36.415  0.00  0.00    +0.000 HD
ENDROOT
BRANCH   1   4
ATOM      4  C   UNL     1      37.774  24.654  36.490  0.00  0.00    +0.000 C 
ATOM      5  C   UNL     1      38.024  24.393  37.930  0.00  0.00    +0.000 C 
ATOM      6  C   UNL     1      37.553  23.333  36.958  0.00  0.00    +0.000 C 
ATOM      7  H   UNL     1      36.944  25.354  36.294  0.00  0.00    +0.000 HD
ATOM      8  H   UNL     1      39.019  24.522  38.289  0.00  0.00    +0.000 HD
ATOM      9  H   UNL     1      37.270  24.803  38.669  0.00  0.00    +0.000 HD
ATOM     10  H   UNL     1      37.979  22.432  37.211  0.00  0.00    +0.000 HD
BRANCH   6  11
ATOM     11  C   UNL     1      36.056  23.022  37.014  0.00  0.00    +0.000 A 
ATOM     12  C   UNL     1      35.097  23.934  36.727  0.00  0.00    +0.000 A 
ATOM     13  C   UNL     1      33.752  23.655  36.782  0.00  0.00    +0.000 A 
ATOM     14  C   UNL     1      33.343  22.390  37.144  0.00  0.00    +0.000 A 
ATOM     15  C   UNL     1      34.276  21.445  37.439  0.00  0.00    +0.000 A 
ATOM     16  C   UNL     1      33.854  20.181  37.801  0.00  0.00    +0.000 A 
ATOM     17  C   UNL     1      34.744  19.192  38.108  0.00  0.00    +0.000 A 
ATOM     18  C   UNL     1      36.081  19.488  38.049  0.00  0.00    +0.000 A 
ATOM     19  C   UNL     1      36.491  20.759  37.685  0.00  0.00    +0.000 A 
ATOM     20  C   UNL     1      35.611  21.767  37.372  0.00  0.00    +0.000 A 
ENDBRANCH   6  11
ENDBRANCH   1   4
BRANCH   1  21
ATOM     21  C   UNL     1      39.789  23.910  35.381  0.00  0.00    +0.000 C 
ATOM     22  H   UNL     1      39.235  23.033  35.566  0.00  0.00    +0.000 HD
ATOM     23  H   UNL     1      39.770  23.906  34.224  0.00  0.00    +0.000 HD
BRANCH  21  26
ATOM     24  C   UNL     1      43.132  23.334  36.534  0.00  0.00    +0.000 A 
ATOM     25  C   UNL     1      41.730  23.106  36.398  0.00  0.00    +0.000 A 
ATOM     26  C   UNL     1      41.173  24.043  35.627  0.00  0.00    +0.000 A 
ATOM     27  N   UNL     1      41.906  25.082  35.057  0.00  0.00    +0.000 NA
ATOM     28  C   UNL     1      43.203  25.229  35.229  0.00  0.00    +0.000 A 
ATOM     29  N   UNL     1      43.813  24.340  35.977  0.00  0.00    +0.000 NA
ATOM     30  H   UNL     1      43.778  22.666  37.136  0.00  0.00    +0.000 HD
ATOM     31  H   UNL     1      43.646  26.074  34.733  0.00  0.00    +0.000 HD
BRANCH  25  32
ATOM     32  C   UNL     1      41.236  21.962  37.084  0.00  0.00    +0.000 C 
ATOM     33  F   UNL     1      40.480  22.314  38.230  0.00  0.00    +0.000 F 
ATOM     34  F   UNL     1      42.032  21.184  37.839  0.00  0.00    +0.000 F 
ATOM     35  F   UNL     1      40.148  21.284  36.545  0.00  0.00    +0.000 F 
ENDBRANCH  25  32
ENDBRANCH  21  26
ENDBRANCH   1  21
TORSDOF 5
