REMARK  Name = 
REMARK  4 active torsions:
REMARK  status: ('A' for Active; 'I' for Inactive)
REMARK    1  A    between atoms: C_1  and  C_6
REMARK    2  A    between atoms: N_5  and  C_12
REMARK    3  A    between atoms: C_14  and  C_15
REMARK    4  A    between atoms: C_14  and  C_27
REMARK                            x       y       z     vdW  Elec       q    Type
REMARK                         _______ _______ _______ _____ _____    ______ ____
ROOT
ATOM      1  C   UNL     1      38.529  23.947  35.900  0.00  0.00    +0.000 C 
ATOM      2  C   UNL     1      38.069  25.228  36.364  0.00  0.00    +0.000 C 
ATOM      3  C   UNL     1      37.556  23.918  37.030  0.00  0.00    +0.000 C 
ATOM      4  H   UNL     1      39.613  23.703  36.158  0.00  0.00    +0.000 HD
ATOM      5  H   UNL     1      38.672  25.882  37.008  0.00  0.00    +0.000 HD
ATOM      6  H   UNL     1      37.305  25.785  35.800  0.00  0.00    +0.000 HD
ENDROOT
BRANCH   3   7
ATOM      7  C   UNL     1      36.051  23.965  36.948  0.00  0.00    +0.000 A 
ATOM      8  C   UNL     1      35.522  25.202  37.328  0.00  0.00    +0.000 A 
ATOM      9  C   UNL     1      34.157  25.382  37.299  0.00  0.00    +0.000 A 
ATOM     10  H   UNL     1      33.618  26.301  37.572  0.00  0.00    +0.000 HD
ATOM     11  C   UNL     1      33.300  24.373  36.903  0.00  0.00    +0.000 A 
ATOM     12  C   UNL     1      33.841  23.168  36.534  0.00  0.00    +0.000 A 
ATOM     13  H   UNL     1      33.220  22.336  36.213  0.00  0.00    +0.000 HD
ATOM     14  C   UNL     1      35.189  22.963  36.554  0.00  0.00    +0.000 A 
ENDBRANCH   3   7
BRANCH   1  19
ATOM     15  C   UNL     1      37.868  23.697  33.502  0.00  0.00    +0.000 A 
ATOM     16  C   UNL     1      37.467  22.657  32.666  0.00  0.00    +0.000 A 
ATOM     17  N   UNL     1      37.486  21.562  33.484  0.00  0.00    +0.000 NA
ATOM     18  C   UNL     1      37.871  21.965  34.692  0.00  0.00    +0.000 A 
ATOM     19  N   UNL     1      38.111  23.272  34.729  0.00  0.00    +0.000 N 
ATOM     20  H   UNL     1      37.204  22.732  31.606  0.00  0.00    +0.000 HD
ATOM     21  H   UNL     1      37.928  21.169  35.449  0.00  0.00    +0.000 HD
BRANCH  15  22
ATOM     22  C   UNL     1      38.012  25.084  33.076  0.00  0.00    +0.000 A 
ATOM     23  C   UNL     1      39.296  25.584  32.770  0.00  0.00    +0.000 A 
ATOM     24  C   UNL     1      39.395  26.931  32.359  0.00  0.00    +0.000 A 
ATOM     25  N   UNL     1      38.243  27.651  32.289  0.00  0.00    +0.000 NA
ATOM     26  C   UNL     1      37.033  27.134  32.591  0.00  0.00    +0.000 A 
ATOM     27  N   UNL     1      36.911  25.852  32.985  0.00  0.00    +0.000 NA
ATOM     28  H   UNL     1      40.142  24.919  32.862  0.00  0.00    +0.000 HD
ATOM     29  H   UNL     1      40.367  27.319  32.125  0.00  0.00    +0.000 HD
ATOM     30  H   UNL     1      36.218  27.830  32.485  0.00  0.00    +0.000 HD
ENDBRANCH  15  22
ENDBRANCH   1  19
BRANCH   3  31
ATOM     31  C   UNL     1      38.129  23.766  38.427  0.00  0.00    +0.000 C 
ATOM     32  F   UNL     1      37.521  22.702  39.065  0.00  0.00    +0.000 F 
ATOM     33  F   UNL     1      39.516  23.349  38.304  0.00  0.00    +0.000 F 
ATOM     34  F   UNL     1      38.136  24.900  39.143  0.00  0.00    +0.000 F 
ENDBRANCH   3  31
TORSDOF 4
