
 OpenBabel03262519583D

 31 34  0  0  1  0  0  0  0  0999 V2000
   38.1640   23.9920   34.6960 C   0  0  0  0  0  0  0  0  0  0  0  0
   38.3040   25.2230   34.0790 C   0  0  0  0  0  0  0  0  0  0  0  0
   37.9220   24.9880   32.7840 N   0  0  0  0  0  0  0  0  0  0  0  0
   37.5930   23.7120   32.6850 C   0  0  0  0  0  0  0  0  0  0  0  0
   37.7310   23.0620   33.8530 N   0  0  0  0  0  0  0  0  0  0  0  0
   38.6310   26.1780   34.4730 H   0  0  0  0  0  0  0  0  0  0  0  0
   37.2590   23.3130   31.7340 H   0  0  0  0  0  0  0  0  0  0  0  0
   38.4530   23.7280   36.1030 C   0  0  0  0  0  0  0  0  0  0  0  0
   39.6590   23.0960   36.4620 C   0  0  0  0  0  0  0  0  0  0  0  0
   39.8930   22.8620   37.8330 C   0  0  0  0  0  0  0  0  0  0  0  0
   38.9510   23.2570   38.7090 N   0  0  0  0  0  0  0  0  0  0  0  0
   37.8070   23.8600   38.3320 C   0  0  0  0  0  0  0  0  0  0  0  0
   37.5510   24.0990   37.0310 N   0  0  0  0  0  0  0  0  0  0  0  0
   40.3780   22.8020   35.6950 H   0  0  0  0  0  0  0  0  0  0  0  0
   40.8220   22.3760   38.1020 H   0  0  0  0  0  0  0  0  0  0  0  0
   37.1060   24.1430   39.1100 H   0  0  0  0  0  0  0  0  0  0  0  0
   37.4380   21.6600   34.0220 C   0  0  1  0  0  0  0  0  0  0  0  0
   36.2200   21.1850   34.6870 C   0  0  0  0  0  0  0  0  0  0  0  0
   36.2570   21.2060   33.1770 C   0  0  2  0  0  0  0  0  0  0  0  0
   38.3130   21.0120   33.9610 H   0  0  0  0  0  0  0  0  0  0  0  0
   35.5360   21.9110   35.1620 H   0  0  0  0  0  0  0  0  0  0  0  0
   36.3110   20.2280   35.2340 H   0  0  0  0  0  0  0  0  0  0  0  0
   35.6560   21.9460   32.6310 H   0  0  0  0  0  0  0  0  0  0  0  0
   36.2760   19.8600   32.5750 C   0  0  0  0  0  0  0  0  0  0  0  0
   37.1490   19.4770   31.5820 C   0  0  0  0  0  3  0  0  0  0  0  0
   37.1500   18.2150   31.0330 C   0  0  0  0  0  0  0  0  0  0  0  0
   37.8510   17.9190   30.2410 H   0  0  0  0  0  0  0  0  0  0  0  0
   36.2560   17.2590   31.4660 C   0  0  0  0  0  3  0  0  0  0  0  0
   35.3710   17.5970   32.4510 C   0  0  0  0  0  0  0  0  0  0  0  0
   34.6410   16.8660   32.8270 H   0  0  0  0  0  0  0  0  0  0  0  0
   35.4010   18.8710   32.9750 C   0  0  0  0  0  3  0  0  0  0  0  0
  1  8  1  0  0  0  0
  2  6  1  0  0  0  0
  2  1  2  0  0  0  0
  3  2  1  0  0  0  0
  4  3  2  0  0  0  0
  4  5  1  0  0  0  0
  5 17  1  0  0  0  0
  5  1  1  0  0  0  0
  7  4  1  0  0  0  0
  8  9  2  0  0  0  0
  8 13  1  0  0  0  0
  9 10  1  0  0  0  0
 10 15  1  0  0  0  0
 10 11  2  0  0  0  0
 12 11  1  0  0  0  0
 12 16  1  0  0  0  0
 13 12  2  0  0  0  0
 14  9  1  0  0  0  0
 17 20  1  1  0  0  0
 17 18  1  0  0  0  0
 18 21  1  0  0  0  0
 18 22  1  0  0  0  0
 19 23  1  6  0  0  0
 19 17  1  0  0  0  0
 19 18  1  0  0  0  0
 24 31  1  0  0  0  0
 24 19  1  0  0  0  0
 25 24  2  0  0  0  0
 26 28  2  0  0  0  0
 26 25  1  0  0  0  0
 27 26  1  0  0  0  0
 28 29  1  0  0  0  0
 29 30  1  0  0  0  0
 29 31  2  0  0  0  0
M  END
>  <minimizedAffinity>
-5.12343168

>  <minimizedRMSD>
1.17867124

$$$$
