
     RDKit          3D

 37 40  0  0  0  0  0  0  0  0999 V2000
   37.8676   23.6965   33.5020 C   0  0  0  0  0  0  0  0  0  0  0  0
   37.4667   22.6575   32.6658 C   0  0  0  0  0  0  0  0  0  0  0  0
   37.4861   21.5623   33.4845 N   0  0  0  0  0  0  0  0  0  0  0  0
   37.8712   21.9654   34.6923 C   0  0  0  0  0  0  0  0  0  0  0  0
   38.1109   23.2719   34.7292 N   0  0  0  0  0  0  0  0  0  0  0  0
   38.0119   25.0837   33.0762 C   0  0  0  0  0  0  0  0  0  0  0  0
   39.2959   25.5840   32.7699 C   0  0  0  0  0  0  0  0  0  0  0  0
   39.3945   26.9309   32.3594 C   0  0  0  0  0  0  0  0  0  0  0  0
   38.2426   27.6508   32.2886 N   0  0  0  0  0  0  0  0  0  0  0  0
   37.0326   27.1341   32.5906 C   0  0  0  0  0  0  0  0  0  0  0  0
   36.9113   25.8515   32.9849 N   0  0  0  0  0  0  0  0  0  0  0  0
   38.5290   23.9465   35.8995 C   0  0  1  0  0  0  0  0  0  0  0  0
   38.0694   25.2279   36.3643 C   0  0  0  0  0  0  0  0  0  0  0  0
   37.5559   23.9183   37.0297 C   0  0  2  0  0  0  0  0  0  0  0  0
   38.1294   23.7663   38.4274 C   0  0  0  0  0  0  0  0  0  0  0  0
   37.5206   22.7019   39.0654 F   0  0  0  0  0  0  0  0  0  0  0  0
   39.5160   23.3485   38.3045 F   0  0  0  0  0  0  0  0  0  0  0  0
   38.1355   24.9002   39.1429 F   0  0  0  0  0  0  0  0  0  0  0  0
   37.2042   22.7318   31.6059 H   0  0  0  0  0  0  0  0  0  0  0  0
   37.9279   21.1692   35.4494 H   0  0  0  0  0  0  0  0  0  0  0  0
   40.1421   24.9186   32.8623 H   0  0  0  0  0  0  0  0  0  0  0  0
   40.3675   27.3191   32.1247 H   0  0  0  0  0  0  0  0  0  0  0  0
   36.2176   27.8298   32.4853 H   0  0  0  0  0  0  0  0  0  0  0  0
   39.6126   23.7027   36.1583 H   0  0  0  0  0  0  0  0  0  0  0  0
   38.6715   25.8822   37.0075 H   0  0  0  0  0  0  0  0  0  0  0  0
   37.3046   25.7853   35.8001 H   0  0  0  0  0  0  0  0  0  0  0  0
   36.0513   23.9650   36.9478 C   0  0  0  0  0  0  0  0  0  0  0  0
   35.5730   25.1334   36.3470 C   0  0  0  0  0  0  0  0  0  0  0  0
   34.2138   25.3046   36.2071 C   0  0  0  0  0  0  0  0  0  0  0  0
   33.7131   26.1732   35.7546 H   0  0  0  0  0  0  0  0  0  0  0  0
   33.3129   24.3525   36.6447 C   0  0  0  0  0  0  0  0  0  0  0  0
   33.8044   23.2139   37.2310 C   0  0  0  0  0  0  0  0  0  0  0  0
   33.1472   22.4293   37.5950 H   0  0  0  0  0  0  0  0  0  0  0  0
   35.1453   23.0198   37.3816 C   0  0  0  0  0  0  0  0  0  0  0  0
   36.0981   25.9831   35.9429 H   0  0  0  0  0  0  0  0  0  0  0  0
   32.2444   24.4502   36.5532 H   0  0  0  0  0  0  0  0  0  0  0  0
   35.5907   22.1444   37.8311 H   0  0  0  0  0  0  0  0  0  0  0  0
  1  5  1  0
  2  3  1  0
  2  1  2  0
  3  4  2  0
  4  5  1  0
  5 12  1  0
  6  1  1  0
  7  6  2  0
  8  7  1  0
  9  8  2  0
  9 10  1  0
 10 11  2  0
 11  6  1  0
 12 13  1  0
 12 14  1  0
 13 14  1  0
 14 15  1  1
 15 16  1  0
 15 18  1  0
 17 15  1  0
  2 19  1  0
  4 20  1  0
  7 21  1  0
  8 22  1  0
 10 23  1  0
 12 24  1  1
 13 25  1  0
 13 26  1  0
 27 28  2  0
 28 29  1  0
 29 30  1  0
 29 31  2  0
 31 32  1  0
 32 33  1  0
 32 34  2  0
 34 27  1  0
 28 35  1  0
 31 36  1  0
 34 37  1  0
 14 27  1  0
M  ISO  8  19  14  20  14  21  14  22  14  23  14  24  13  25  13  26  13
M  ISO  2  30  16  33  16
M  END
>  <DihAtoms>  (1) 
11,13,26,27

>  <DihDeg>  (1) 
89.21295603895764

$$$$
