
 OpenBabel03262519573D

 31 34  0  0  1  0  0  0  0  0999 V2000
   37.8960   23.5920   33.3530 C   0  0  0  0  0  0  0  0  0  0  0  0
   38.0060   23.4150   34.7210 C   0  0  0  0  0  0  0  0  0  0  0  0
   38.5050   24.6110   35.1690 N   0  0  0  0  0  0  0  0  0  0  0  0
   38.6640   25.4010   34.1210 C   0  0  0  0  0  0  0  0  0  0  0  0
   38.2950   24.8020   32.9760 N   0  0  0  0  0  0  0  0  0  0  0  0
   37.7700   22.5620   35.3440 H   0  0  0  0  0  0  0  0  0  0  0  0
   39.0520   26.4030   34.2560 H   0  0  0  0  0  0  0  0  0  0  0  0
   37.4020   22.5840   32.4200 C   0  0  0  0  0  0  0  0  0  0  0  0
   38.3050   21.6890   31.8150 C   0  0  0  0  0  0  0  0  0  0  0  0
   37.7810   20.7330   30.9210 C   0  0  0  0  0  0  0  0  0  0  0  0
   36.4530   20.7360   30.7030 N   0  0  0  0  0  0  0  0  0  0  0  0
   35.6150   21.6070   31.2980 C   0  0  0  0  0  0  0  0  0  0  0  0
   36.0820   22.5330   32.1580 N   0  0  0  0  0  0  0  0  0  0  0  0
   39.3720   21.7460   32.0400 H   0  0  0  0  0  0  0  0  0  0  0  0
   38.4810   20.0480   30.4600 H   0  0  0  0  0  0  0  0  0  0  0  0
   34.5600   21.5330   31.0610 H   0  0  0  0  0  0  0  0  0  0  0  0
   38.3660   25.4420   31.6860 C   0  0  1  0  0  0  0  0  0  0  0  0
   39.2340   26.5950   31.4260 C   0  0  0  0  0  0  0  0  0  0  0  0
   39.7060   25.2240   31.0010 C   0  0  2  0  0  0  0  0  0  0  0  0
   37.4980   25.2600   31.0500 H   0  0  0  0  0  0  0  0  0  0  0  0
   39.7930   27.0590   32.2590 H   0  0  0  0  0  0  0  0  0  0  0  0
   38.8660   27.3160   30.6730 H   0  0  0  0  0  0  0  0  0  0  0  0
   40.5300   24.7420   31.5460 H   0  0  0  0  0  0  0  0  0  0  0  0
   39.7490   25.0500   29.5370 C   0  0  0  0  0  0  0  0  0  0  0  0
   39.5230   23.8500   28.9000 C   0  0  0  0  0  3  0  0  0  0  0  0
   39.5680   23.7090   27.5340 C   0  0  0  0  0  0  0  0  0  0  0  0
   39.3860   22.7470   27.0340 H   0  0  0  0  0  0  0  0  0  0  0  0
   39.8470   24.7890   26.7240 C   0  0  0  0  0  3  0  0  0  0  0  0
   40.0780   25.9990   27.3140 C   0  0  0  0  0  0  0  0  0  0  0  0
   40.3040   26.8880   26.7060 H   0  0  0  0  0  0  0  0  0  0  0  0
   40.0250   26.1010   28.6860 C   0  0  0  0  0  3  0  0  0  0  0  0
  1  2  2  0  0  0  0
  2  3  1  0  0  0  0
  2  6  1  0  0  0  0
  4  7  1  0  0  0  0
  4  3  2  0  0  0  0
  5  1  1  0  0  0  0
  5  4  1  0  0  0  0
  8  1  1  0  0  0  0
  9 14  1  0  0  0  0
  9  8  2  0  0  0  0
 10  9  1  0  0  0  0
 11 10  2  0  0  0  0
 11 12  1  0  0  0  0
 12 13  2  0  0  0  0
 13  8  1  0  0  0  0
 15 10  1  0  0  0  0
 16 12  1  0  0  0  0
 17 20  1  6  0  0  0
 17  5  1  0  0  0  0
 18 17  1  0  0  0  0
 18 21  1  0  0  0  0
 19 18  1  0  0  0  0
 19 23  1  1  0  0  0
 19 17  1  0  0  0  0
 22 18  1  0  0  0  0
 24 19  1  0  0  0  0
 25 24  1  0  0  0  0
 26 25  2  0  0  0  0
 27 26  1  0  0  0  0
 28 29  2  0  0  0  0
 28 26  1  0  0  0  0
 29 31  1  0  0  0  0
 30 29  1  0  0  0  0
 31 24  2  0  0  0  0
M  END
>  <minimizedAffinity>
-3.52160549

>  <minimizedRMSD>
7.05412197

$$$$
