
 OpenBabel03262519583D

 31 34  0  0  1  0  0  0  0  0999 V2000
   38.1420   24.4680   34.7870 C   0  0  0  0  0  0  0  0  0  0  0  0
   37.6430   25.7270   34.4980 C   0  0  0  0  0  0  0  0  0  0  0  0
   37.4800   25.7120   33.1370 N   0  0  0  0  0  0  0  0  0  0  0  0
   37.8620   24.5260   32.6960 C   0  0  0  0  0  0  0  0  0  0  0  0
   38.2790   23.7270   33.6930 N   0  0  0  0  0  0  0  0  0  0  0  0
   37.4150   26.5620   35.1470 H   0  0  0  0  0  0  0  0  0  0  0  0
   37.8140   24.3030   31.6370 H   0  0  0  0  0  0  0  0  0  0  0  0
   38.4810   23.9930   36.1250 C   0  0  0  0  0  0  0  0  0  0  0  0
   39.7480   23.4300   36.3670 C   0  0  0  0  0  0  0  0  0  0  0  0
   40.0290   22.9860   37.6750 C   0  0  0  0  0  0  0  0  0  0  0  0
   39.0690   23.1290   38.6080 N   0  0  0  0  0  0  0  0  0  0  0  0
   37.8660   23.6720   38.3440 C   0  0  0  0  0  0  0  0  0  0  0  0
   37.5640   24.1060   37.1050 N   0  0  0  0  0  0  0  0  0  0  0  0
   40.4780   23.3470   35.5590 H   0  0  0  0  0  0  0  0  0  0  0  0
   41.0050   22.5550   37.8550 H   0  0  0  0  0  0  0  0  0  0  0  0
   37.1550   23.7450   39.1600 H   0  0  0  0  0  0  0  0  0  0  0  0
   38.7490   22.3790   33.4870 C   0  0  1  0  0  0  0  0  0  0  0  0
   38.8510   21.7760   32.1540 C   0  0  0  0  0  0  0  0  0  0  0  0
   40.1010   22.3340   32.7920 C   0  0  2  0  0  0  0  0  0  0  0  0
   38.6720   21.7410   34.3680 H   0  0  0  0  0  0  0  0  0  0  0  0
   38.4730   22.3260   31.2730 H   0  0  0  0  0  0  0  0  0  0  0  0
   38.6900   20.6830   32.1050 H   0  0  0  0  0  0  0  0  0  0  0  0
   40.5460   23.2570   32.3950 H   0  0  0  0  0  0  0  0  0  0  0  0
   41.0750   21.2940   33.1740 C   0  0  0  0  0  0  0  0  0  0  0  0
   41.9160   21.3920   34.2590 C   0  0  0  0  0  3  0  0  0  0  0  0
   42.8170   20.4100   34.5970 C   0  0  0  0  0  0  0  0  0  0  0  0
   43.4840   20.4980   35.4660 H   0  0  0  0  0  0  0  0  0  0  0  0
   42.9190   19.2590   33.8460 C   0  0  0  0  0  3  0  0  0  0  0  0
   42.1030   19.1200   32.7590 C   0  0  0  0  0  0  0  0  0  0  0  0
   42.1490   18.2190   32.1310 H   0  0  0  0  0  0  0  0  0  0  0  0
   41.2130   20.1250   32.4520 C   0  0  0  0  0  3  0  0  0  0  0  0
  1  8  1  0  0  0  0
  2  1  2  0  0  0  0
  2  6  1  0  0  0  0
  3  2  1  0  0  0  0
  4  3  2  0  0  0  0
  4  5  1  0  0  0  0
  5  1  1  0  0  0  0
  7  4  1  0  0  0  0
  8  9  2  0  0  0  0
  8 13  1  0  0  0  0
  9 10  1  0  0  0  0
 10 15  1  0  0  0  0
 10 11  2  0  0  0  0
 12 11  1  0  0  0  0
 12 16  1  0  0  0  0
 13 12  2  0  0  0  0
 14  9  1  0  0  0  0
 17  5  1  0  0  0  0
 17 20  1  1  0  0  0
 18 19  1  0  0  0  0
 18 17  1  0  0  0  0
 19 23  1  6  0  0  0
 19 24  1  0  0  0  0
 19 17  1  0  0  0  0
 21 18  1  0  0  0  0
 22 18  1  0  0  0  0
 24 25  1  0  0  0  0
 25 26  2  0  0  0  0
 26 27  1  0  0  0  0
 28 26  1  0  0  0  0
 29 28  2  0  0  0  0
 30 29  1  0  0  0  0
 31 29  1  0  0  0  0
 31 24  2  0  0  0  0
M  END
>  <minimizedAffinity>
-3.66409826

>  <minimizedRMSD>
4.41162968

$$$$
