
 OpenBabel03262519583D

 31 34  0  0  1  0  0  0  0  0999 V2000
   38.3640   23.9330   34.6010 C   0  0  0  0  0  0  0  0  0  0  0  0
   38.9770   23.1720   35.5810 C   0  0  0  0  0  0  0  0  0  0  0  0
   38.8610   23.9370   36.7130 N   0  0  0  0  0  0  0  0  0  0  0  0
   38.2280   25.0500   36.3860 C   0  0  0  0  0  0  0  0  0  0  0  0
   37.9040   25.0820   35.0820 N   0  0  0  0  0  0  0  0  0  0  0  0
   39.4500   22.2000   35.5280 H   0  0  0  0  0  0  0  0  0  0  0  0
   38.0320   25.8010   37.1420 H   0  0  0  0  0  0  0  0  0  0  0  0
   38.2300   23.5380   33.2020 C   0  0  0  0  0  0  0  0  0  0  0  0
   39.2260   23.9000   32.2750 C   0  0  0  0  0  0  0  0  0  0  0  0
   39.0520   23.4960   30.9350 C   0  0  0  0  0  0  0  0  0  0  0  0
   37.9470   22.7910   30.6290 N   0  0  0  0  0  0  0  0  0  0  0  0
   37.0120   22.4610   31.5400 C   0  0  0  0  0  0  0  0  0  0  0  0
   37.1470   22.8310   32.8290 N   0  0  0  0  0  0  0  0  0  0  0  0
   40.0970   24.4740   32.5970 H   0  0  0  0  0  0  0  0  0  0  0  0
   39.8220   23.7760   30.2280 H   0  0  0  0  0  0  0  0  0  0  0  0
   36.1550   21.8910   31.1990 H   0  0  0  0  0  0  0  0  0  0  0  0
   37.2070   26.1840   34.4640 C   0  0  1  0  0  0  0  0  0  0  0  0
   37.3480   27.5660   34.9310 C   0  0  0  0  0  0  0  0  0  0  0  0
   38.1450   27.1260   33.7260 C   0  0  2  0  0  0  0  0  0  0  0  0
   36.3230   25.8890   33.8960 H   0  0  0  0  0  0  0  0  0  0  0  0
   37.9340   27.7790   35.8430 H   0  0  0  0  0  0  0  0  0  0  0  0
   36.4590   28.2110   34.8060 H   0  0  0  0  0  0  0  0  0  0  0  0
   39.2330   26.9970   33.8130 H   0  0  0  0  0  0  0  0  0  0  0  0
   37.6960   27.7530   32.4690 C   0  0  0  0  0  0  0  0  0  0  0  0
   36.6320   28.6210   32.3820 C   0  0  0  0  0  3  0  0  0  0  0  0
   36.2300   29.1940   31.1980 C   0  0  0  0  0  0  0  0  0  0  0  0
   35.3780   29.8850   31.1390 H   0  0  0  0  0  0  0  0  0  0  0  0
   36.8920   28.9180   30.0210 C   0  0  0  0  0  3  0  0  0  0  0  0
   37.9560   28.0610   30.0620 C   0  0  0  0  0  0  0  0  0  0  0  0
   38.5140   27.8120   29.1480 H   0  0  0  0  0  0  0  0  0  0  0  0
   38.3290   27.5070   31.2660 C   0  0  0  0  0  3  0  0  0  0  0  0
  1  5  1  0  0  0  0
  1  2  2  0  0  0  0
  2  3  1  0  0  0  0
  4  3  2  0  0  0  0
  4  7  1  0  0  0  0
  5  4  1  0  0  0  0
  6  2  1  0  0  0  0
  8  1  1  0  0  0  0
  9 14  1  0  0  0  0
  9  8  2  0  0  0  0
 10  9  1  0  0  0  0
 11 10  2  0  0  0  0
 11 12  1  0  0  0  0
 12 13  2  0  0  0  0
 13  8  1  0  0  0  0
 15 10  1  0  0  0  0
 16 12  1  0  0  0  0
 17 20  1  6  0  0  0
 17 18  1  0  0  0  0
 17  5  1  0  0  0  0
 18 21  1  0  0  0  0
 19 23  1  1  0  0  0
 19 17  1  0  0  0  0
 19 18  1  0  0  0  0
 22 18  1  0  0  0  0
 24 19  1  0  0  0  0
 25 24  1  0  0  0  0
 26 25  2  0  0  0  0
 27 26  1  0  0  0  0
 28 29  2  0  0  0  0
 28 26  1  0  0  0  0
 29 31  1  0  0  0  0
 30 29  1  0  0  0  0
 31 24  2  0  0  0  0
M  END
>  <minimizedAffinity>
-4.48647642

>  <minimizedRMSD>
7.35112286

$$$$
