
 OpenBabel03262515483D

 36 38  0  0  1  0  0  0  0  0999 V2000
   38.0230   25.2860   33.3460 N   0  0  0  0  0  0  0  0  0  0  0  0
   38.7890   26.3250   32.6960 C   0  0  1  0  0  0  0  0  0  0  0  0
   37.8730   27.4950   32.3360 C   0  0  0  0  0  0  0  0  0  0  0  0
   36.5460   27.1040   32.4780 O   0  0  0  0  0  0  0  0  0  0  0  0
   36.3210   25.9370   31.7460 C   0  0  0  0  0  0  0  0  0  0  0  0
   36.9790   24.7910   32.4950 C   0  0  0  0  0  0  0  0  0  0  0  0
   39.3070   25.9470   31.7880 H   0  0  0  0  0  0  0  0  0  0  0  0
   38.0270   28.3890   32.9310 H   0  0  0  0  0  0  0  0  0  0  0  0
   38.0570   27.7860   31.2730 H   0  0  0  0  0  0  0  0  0  0  0  0
   35.2150   25.8010   31.7630 H   0  0  0  0  0  0  0  0  0  0  0  0
   36.7020   26.0880   30.7330 H   0  0  0  0  0  0  0  0  0  0  0  0
   37.3130   24.0530   31.7440 H   0  0  0  0  0  0  0  0  0  0  0  0
   36.2050   24.3350   33.1620 H   0  0  0  0  0  0  0  0  0  0  0  0
   37.9620   24.6730   37.0420 C   0  0  0  0  0  0  0  0  0  0  0  0
   37.6020   25.2100   35.8000 C   0  0  0  0  0  0  0  0  0  0  0  0
   38.2710   24.8300   34.6440 C   0  0  0  0  0  0  0  0  0  0  0  0
   39.2470   23.9420   34.8320 N   0  0  0  0  0  0  0  0  0  0  0  0
   39.6240   23.4100   35.9710 C   0  0  0  0  0  0  0  0  0  0  0  0
   38.9640   23.7850   37.1070 N   0  0  0  0  0  0  0  0  0  0  0  0
   37.4220   24.9900   37.9160 H   0  0  0  0  0  0  0  0  0  0  0  0
   36.7950   25.9400   35.6700 H   0  0  0  0  0  0  0  0  0  0  0  0
   40.7150   22.4400   36.0640 C   0  0  0  0  0  0  0  0  0  0  0  0
   41.3480   22.0620   34.8970 C   0  0  0  0  0  0  0  0  0  0  0  0
   42.3770   21.1430   35.0130 C   0  0  0  0  0  0  0  0  0  0  0  0
   42.9590   20.7580   34.1880 H   0  0  0  0  0  0  0  0  0  0  0  0
   42.7540   20.6280   36.2360 C   0  0  0  0  0  0  0  0  0  0  0  0
   42.1060   21.0170   37.4140 C   0  0  0  0  0  0  0  0  0  0  0  0
   42.3570   20.6470   38.4000 H   0  0  0  0  0  0  0  0  0  0  0  0
   41.0810   21.9330   37.2930 C   0  0  0  0  0  0  0  0  0  0  0  0
   39.6960   26.8770   33.6720 N   0  0  0  0  0  0  0  0  0  0  0  0
   41.0790   26.9480   33.3260 C   0  0  0  0  0  0  0  0  0  0  0  0
   41.3540   26.7200   32.0690 N   0  0  0  0  0  0  0  0  0  0  0  0
   42.0350   27.2030   34.1430 O   0  0  0  0  0  0  0  0  0  0  0  0
   39.1540   27.1150   34.4130 H   0  0  0  0  0  0  0  0  0  0  0  0
   41.6080   25.7130   31.9100 H   0  0  0  0  0  0  0  0  0  0  0  0
   41.2480   27.6150   31.5470 H   0  0  0  0  0  0  0  0  0  0  0  0
  1 16  1  0  0  0  0
  2  7  1  6  0  0  0
  2  1  1  0  0  0  0
  2 30  1  0  0  0  0
  3  4  1  0  0  0  0
  3  2  1  0  0  0  0
  3  8  1  0  0  0  0
  5 10  1  0  0  0  0
  5  4  1  0  0  0  0
  5  6  1  0  0  0  0
  6 13  1  0  0  0  0
  6  1  1  0  0  0  0
  9  3  1  0  0  0  0
 11  5  1  0  0  0  0
 12  6  1  0  0  0  0
 14 19  1  0  0  0  0
 14 20  1  0  0  0  0
 15 14  2  0  0  0  0
 16 17  2  0  0  0  0
 16 15  1  0  0  0  0
 17 18  1  0  0  0  0
 18 22  1  0  0  0  0
 18 19  2  0  0  0  0
 21 15  1  0  0  0  0
 22 29  1  0  0  0  0
 23 24  1  0  0  0  0
 23 22  2  0  0  0  0
 24 26  2  0  0  0  0
 25 24  1  0  0  0  0
 26 27  1  0  0  0  0
 27 28  1  0  0  0  0
 29 27  2  0  0  0  0
 30 34  1  0  0  0  0
 31 30  1  0  0  0  0
 31 33  2  0  0  0  0
 32 31  1  0  0  0  0
 35 32  1  0  0  0  0
 36 32  1  0  0  0  0
M  END
>  <minimizedAffinity>
-4.7124958

>  <minimizedRMSD>
1.84323418

$$$$
