
 OpenBabel03262514583D

 30 32  0  0  0  0  0  0  0  0999 V2000
   38.0050   22.7650   34.3140 C   0  0  0  0  0  0  0  0  0  0  0  0
   37.6380   23.9590   33.6870 C   0  0  0  0  0  0  0  0  0  0  0  0
   37.1130   23.8640   32.3670 C   0  0  0  0  0  0  0  0  0  0  0  0
   37.0110   22.6350   31.8250 N   0  0  0  0  0  0  0  0  0  0  0  0
   37.3720   21.5040   32.4520 C   0  0  0  0  0  0  0  0  0  0  0  0
   37.8640   21.5810   33.6860 N   0  0  0  0  0  0  0  0  0  0  0  0
   37.2690   20.2080   31.8780 N   0  0  0  0  0  0  0  0  0  0  0  0
   38.3220   19.3370   31.7970 C   0  0  0  0  0  0  0  0  0  0  0  0
   38.0950   18.1140   31.2230 C   0  0  0  0  0  0  0  0  0  0  0  0
   36.8370   17.8040   30.7560 C   0  0  0  0  0  0  0  0  0  0  0  0
   36.6290   16.6880   30.2340 O   0  0  0  0  0  0  0  0  0  0  0  0
   35.7860   18.6480   30.8260 N   0  0  0  0  0  0  0  0  0  0  0  0
   36.0600   19.8450   31.4020 C   0  0  0  0  0  0  0  0  0  0  0  0
   35.0920   20.6570   31.4800 O   0  0  0  0  0  0  0  0  0  0  0  0
   38.3950   22.8860   35.3060 H   0  0  0  0  0  0  0  0  0  0  0  0
   36.8070   24.7320   31.8180 H   0  0  0  0  0  0  0  0  0  0  0  0
   39.2610   19.6570   32.1820 H   0  0  0  0  0  0  0  0  0  0  0  0
   34.8250   18.4170   30.4700 H   0  0  0  0  0  0  0  0  0  0  0  0
   37.7660   25.2680   34.3150 C   0  0  0  0  0  0  0  0  0  0  0  0
   37.1220   26.3840   33.8230 C   0  0  0  0  0  0  0  0  0  0  0  0
   37.1770   27.6610   34.3410 C   0  0  0  0  0  0  0  0  0  0  0  0
   36.6400   28.4890   33.8970 H   0  0  0  0  0  0  0  0  0  0  0  0
   37.9700   27.8000   35.4720 C   0  0  0  0  0  0  0  0  0  0  0  0
   38.6530   26.7400   36.0360 C   0  0  0  0  0  0  0  0  0  0  0  0
   39.2730   26.8800   36.9320 H   0  0  0  0  0  0  0  0  0  0  0  0
   38.5360   25.4980   35.4460 C   0  0  0  0  0  0  0  0  0  0  0  0
   39.1770   17.1350   31.0970 C   0  0  0  0  0  0  0  0  0  0  0  0
   40.0010   17.6160   30.5260 H   0  0  0  0  0  0  0  0  0  0  0  0
   38.8490   16.2040   30.6120 H   0  0  0  0  0  0  0  0  0  0  0  0
   39.6040   16.9590   32.1240 H   0  0  0  0  0  0  0  0  0  0  0  0
  1 15  1  0  0  0  0
  2  1  1  0  0  0  0
  2 19  1  0  0  0  0
  3  2  2  0  0  0  0
  4  3  1  0  0  0  0
  4  5  2  0  0  0  0
  5  6  1  0  0  0  0
  6  1  2  0  0  0  0
  7  5  1  0  0  0  0
  8  7  1  0  0  0  0
  8 17  1  0  0  0  0
  9  8  2  0  0  0  0
 10 12  1  0  0  0  0
 10  9  1  0  0  0  0
 11 10  2  0  0  0  0
 12 13  1  0  0  0  0
 13 14  2  0  0  0  0
 13  7  1  0  0  0  0
 16  3  1  0  0  0  0
 18 12  1  0  0  0  0
 19 26  1  0  0  0  0
 20 19  2  0  0  0  0
 20 21  1  0  0  0  0
 21 23  2  0  0  0  0
 22 21  1  0  0  0  0
 23 24  1  0  0  0  0
 24 25  1  0  0  0  0
 26 24  2  0  0  0  0
 27  9  1  0  0  0  0
 27 30  1  0  0  0  0
 28 27  1  0  0  0  0
 29 27  1  0  0  0  0
M  END
>  <minimizedAffinity>
-4.98919868

>  <minimizedRMSD>
5.13066435

$$$$
