
 OpenBabel03262519583D

 31 34  0  0  1  0  0  0  0  0999 V2000
   38.1560   23.9500   34.6630 C   0  0  0  0  0  0  0  0  0  0  0  0
   38.3110   25.1720   34.0310 C   0  0  0  0  0  0  0  0  0  0  0  0
   37.9200   24.9270   32.7400 N   0  0  0  0  0  0  0  0  0  0  0  0
   37.5710   23.6550   32.6570 C   0  0  0  0  0  0  0  0  0  0  0  0
   37.7050   23.0170   33.8320 N   0  0  0  0  0  0  0  0  0  0  0  0
   38.6520   26.1260   34.4120 H   0  0  0  0  0  0  0  0  0  0  0  0
   37.2280   23.2500   31.7120 H   0  0  0  0  0  0  0  0  0  0  0  0
   38.4470   23.6980   36.0710 C   0  0  0  0  0  0  0  0  0  0  0  0
   39.6470   23.0550   36.4320 C   0  0  0  0  0  0  0  0  0  0  0  0
   39.8840   22.8330   37.8050 C   0  0  0  0  0  0  0  0  0  0  0  0
   38.9500   23.2500   38.6800 N   0  0  0  0  0  0  0  0  0  0  0  0
   37.8120   23.8620   38.3010 C   0  0  0  0  0  0  0  0  0  0  0  0
   37.5530   24.0900   36.9980 N   0  0  0  0  0  0  0  0  0  0  0  0
   40.3590   22.7440   35.6660 H   0  0  0  0  0  0  0  0  0  0  0  0
   40.8070   22.3390   38.0760 H   0  0  0  0  0  0  0  0  0  0  0  0
   37.1180   24.1620   39.0790 H   0  0  0  0  0  0  0  0  0  0  0  0
   37.3920   21.6210   34.0180 C   0  0  1  0  0  0  0  0  0  0  0  0
   36.1630   21.1710   34.6790 C   0  0  0  0  0  0  0  0  0  0  0  0
   36.2150   21.1700   33.1690 C   0  0  2  0  0  0  0  0  0  0  0  0
   38.2600   20.9610   33.9760 H   0  0  0  0  0  0  0  0  0  0  0  0
   35.4840   21.9120   35.1360 H   0  0  0  0  0  0  0  0  0  0  0  0
   36.2360   20.2210   35.2400 H   0  0  0  0  0  0  0  0  0  0  0  0
   35.6280   21.9090   32.6060 H   0  0  0  0  0  0  0  0  0  0  0  0
   36.2220   19.8140   32.5870 C   0  0  0  0  0  0  0  0  0  0  0  0
   35.3650   18.8090   32.9720 C   0  0  0  0  0  3  0  0  0  0  0  0
   35.3900   17.5510   32.4140 C   0  0  0  0  0  0  0  0  0  0  0  0
   34.7010   16.7550   32.7290 H   0  0  0  0  0  0  0  0  0  0  0  0
   36.2950   17.2380   31.4240 C   0  0  0  0  0  3  0  0  0  0  0  0
   37.1640   18.2070   31.0100 C   0  0  0  0  0  0  0  0  0  0  0  0
   37.9030   18.0020   30.2220 H   0  0  0  0  0  0  0  0  0  0  0  0
   37.1100   19.4550   31.5910 C   0  0  0  0  0  3  0  0  0  0  0  0
  1  8  1  0  0  0  0
  2  6  1  0  0  0  0
  2  1  2  0  0  0  0
  3  2  1  0  0  0  0
  4  3  2  0  0  0  0
  4  5  1  0  0  0  0
  5 17  1  0  0  0  0
  5  1  1  0  0  0  0
  7  4  1  0  0  0  0
  8  9  2  0  0  0  0
  8 13  1  0  0  0  0
  9 10  1  0  0  0  0
 10 15  1  0  0  0  0
 10 11  2  0  0  0  0
 12 11  1  0  0  0  0
 12 16  1  0  0  0  0
 13 12  2  0  0  0  0
 14  9  1  0  0  0  0
 17 20  1  1  0  0  0
 17 18  1  0  0  0  0
 18 21  1  0  0  0  0
 18 22  1  0  0  0  0
 19 23  1  6  0  0  0
 19 17  1  0  0  0  0
 19 18  1  0  0  0  0
 24 25  1  0  0  0  0
 24 19  1  0  0  0  0
 26 27  1  0  0  0  0
 26 25  2  0  0  0  0
 28 26  1  0  0  0  0
 29 28  2  0  0  0  0
 29 31  1  0  0  0  0
 30 29  1  0  0  0  0
 31 24  2  0  0  0  0
M  END
>  <minimizedAffinity>
-5.12901545

>  <minimizedRMSD>
0.96313554

$$$$
