
 OpenBabel03262519323D

 42 46  0  0  0  0  0  0  0  0999 V2000
   42.2670   24.2870   35.5040 C   0  0  0  0  0  0  0  0  0  0  0  0
   43.5110   24.5640   34.9570 C   0  0  0  0  0  0  0  0  0  0  0  0
   44.3390   23.5160   35.1360 N   0  0  0  0  0  0  0  0  0  0  0  0
   43.7010   22.5240   35.7880 C   0  0  0  0  0  0  0  0  0  0  0  0
   44.0720   21.2700   36.2040 C   0  0  0  0  0  0  0  0  0  0  0  0
   43.1640   20.4590   36.8630 C   0  0  0  0  0  0  0  0  0  0  0  0
   41.8730   20.9380   37.0940 C   0  0  0  0  0  0  0  0  0  0  0  0
   41.4970   22.2180   36.6690 C   0  0  0  0  0  0  0  0  0  0  0  0
   42.4330   23.0030   36.0120 C   0  0  0  0  0  0  0  0  0  0  0  0
   43.7700   25.4940   34.4610 H   0  0  0  0  0  0  0  0  0  0  0  0
   45.3120   23.5050   34.8090 H   0  0  0  0  0  0  0  0  0  0  0  0
   45.0920   20.9820   35.9840 H   0  0  0  0  0  0  0  0  0  0  0  0
   43.5260   19.5010   37.1540 H   0  0  0  0  0  0  0  0  0  0  0  0
   41.2320   20.2400   37.6130 H   0  0  0  0  0  0  0  0  0  0  0  0
   40.1310   22.6060   36.9950 C   0  0  0  0  0  0  0  0  0  0  0  0
   39.2190   22.2320   35.9990 C   0  0  0  0  0  0  0  0  0  0  0  0
   37.8710   22.4820   36.0910 C   0  0  0  0  0  0  0  0  0  0  0  0
   37.1630   22.1920   35.3190 H   0  0  0  0  0  0  0  0  0  0  0  0
   37.3580   23.1220   37.1920 C   0  0  0  0  0  0  0  0  0  0  0  0
   38.2490   23.4840   38.1620 C   0  0  0  0  0  0  0  0  0  0  0  0
   37.9500   23.9990   39.0800 H   0  0  0  0  0  0  0  0  0  0  0  0
   39.5980   23.2470   38.0940 C   0  0  0  0  0  0  0  0  0  0  0  0
   41.1780   25.1240   35.5060 O   0  0  0  0  0  0  0  0  0  0  0  0
   40.4640   25.5180   34.4070 C   0  0  0  0  0  0  0  0  0  0  0  0
   40.7150   26.7970   33.9090 C   0  0  0  0  0  0  0  0  0  0  0  0
   39.9790   27.2040   32.7760 C   0  0  0  0  0  0  0  0  0  0  0  0
   39.0830   26.3560   32.2330 N   0  0  0  0  0  0  0  0  0  0  0  0
   38.8760   25.1170   32.7570 C   0  0  0  0  0  0  0  0  0  0  0  0
   39.5560   24.7130   33.8220 N   0  0  0  0  0  0  0  0  0  0  0  0
   37.9490   24.1640   32.2410 N   0  0  0  0  0  0  0  0  0  0  0  0
   38.3550   22.8980   31.9370 C   0  0  0  0  0  0  0  0  0  0  0  0
   37.3950   22.0170   31.4380 C   0  0  0  0  0  0  0  0  0  0  0  0
   36.0790   22.3930   31.2510 C   0  0  0  0  0  0  0  0  0  0  0  0
   35.2130   21.5960   30.7990 O   0  0  0  0  0  0  0  0  0  0  0  0
   35.7250   23.6630   31.5690 N   0  0  0  0  0  0  0  0  0  0  0  0
   36.6540   24.5160   32.0520 C   0  0  0  0  0  0  0  0  0  0  0  0
   36.3430   25.6940   32.3500 O   0  0  0  0  0  0  0  0  0  0  0  0
   41.4320   27.4790   34.3420 H   0  0  0  0  0  0  0  0  0  0  0  0
   40.1460   28.1720   32.3730 H   0  0  0  0  0  0  0  0  0  0  0  0
   39.3830   22.6070   32.0840 H   0  0  0  0  0  0  0  0  0  0  0  0
   37.7230   21.0090   31.1970 H   0  0  0  0  0  0  0  0  0  0  0  0
   34.7370   23.9370   31.4250 H   0  0  0  0  0  0  0  0  0  0  0  0
  1 23  1  0  0  0  0
  1  9  1  0  0  0  0
  2  3  1  0  0  0  0
  2  1  2  0  0  0  0
  3  4  1  0  0  0  0
  4  9  2  0  0  0  0
  4  5  1  0  0  0  0
  5  6  2  0  0  0  0
  6  7  1  0  0  0  0
  6 13  1  0  0  0  0
  7 14  1  0  0  0  0
  8 15  1  0  0  0  0
  8  7  2  0  0  0  0
  9  8  1  0  0  0  0
 10  2  1  0  0  0  0
 11  3  1  0  0  0  0
 12  5  1  0  0  0  0
 15 22  1  0  0  0  0
 16 17  1  0  0  0  0
 16 15  2  0  0  0  0
 17 19  2  0  0  0  0
 18 17  1  0  0  0  0
 19 20  1  0  0  0  0
 20 21  1  0  0  0  0
 22 20  2  0  0  0  0
 24 23  1  0  0  0  0
 25 38  1  0  0  0  0
 25 24  1  0  0  0  0
 26 25  2  0  0  0  0
 27 28  2  0  0  0  0
 27 26  1  0  0  0  0
 28 29  1  0  0  0  0
 29 24  2  0  0  0  0
 30 28  1  0  0  0  0
 31 40  1  0  0  0  0
 31 30  1  0  0  0  0
 32 31  2  0  0  0  0
 33 32  1  0  0  0  0
 33 35  1  0  0  0  0
 34 33  2  0  0  0  0
 35 36  1  0  0  0  0
 36 30  1  0  0  0  0
 36 37  2  0  0  0  0
 39 26  1  0  0  0  0
 41 32  1  0  0  0  0
 42 35  1  0  0  0  0
M  END
>  <minimizedAffinity>
-6.59841156

>  <minimizedRMSD>
4.19959402

$$$$
