
 OpenBabel03262519553D

 30 33  0  0  1  0  0  0  0  0999 V2000
   38.1140   23.7810   34.5770 C   0  0  0  0  0  0  0  0  0  0  0  0
   38.2940   24.9830   33.8940 C   0  0  0  0  0  0  0  0  0  0  0  0
   37.8540   24.7120   32.6340 N   0  0  0  0  0  0  0  0  0  0  0  0
   37.4520   23.4500   32.5950 C   0  0  0  0  0  0  0  0  0  0  0  0
   37.6010   22.8430   33.7880 N   0  0  0  0  0  0  0  0  0  0  0  0
   38.6960   25.9100   34.3030 H   0  0  0  0  0  0  0  0  0  0  0  0
   37.0730   23.0980   31.6390 H   0  0  0  0  0  0  0  0  0  0  0  0
   38.4420   23.5630   35.9790 C   0  0  0  0  0  0  0  0  0  0  0  0
   39.6500   22.9660   36.3400 C   0  0  0  0  0  0  0  0  0  0  0  0
   39.9240   22.7760   37.7060 C   0  0  0  0  0  0  0  0  0  0  0  0
   38.9970   23.1840   38.5950 N   0  0  0  0  0  0  0  0  0  0  0  0
   37.8340   23.7590   38.2240 C   0  0  0  0  0  0  0  0  0  0  0  0
   37.5470   23.9530   36.9230 N   0  0  0  0  0  0  0  0  0  0  0  0
   40.3690   22.6540   35.5790 H   0  0  0  0  0  0  0  0  0  0  0  0
   40.8520   22.3170   38.0300 H   0  0  0  0  0  0  0  0  0  0  0  0
   37.1690   24.0440   39.0360 H   0  0  0  0  0  0  0  0  0  0  0  0
   37.2450   21.4700   34.0350 C   0  0  1  0  0  0  0  0  0  0  0  0
   36.0030   21.0780   34.7080 C   0  0  0  0  0  0  0  0  0  0  0  0
   36.0640   21.0100   33.2060 C   0  0  2  0  0  0  0  0  0  0  0  0
   38.1160   20.7760   34.0910 H   0  0  0  0  0  0  0  0  0  0  0  0
   36.0140   20.1500   35.3170 H   0  0  0  0  0  0  0  0  0  0  0  0
   35.3160   21.8350   35.1560 H   0  0  0  0  0  0  0  0  0  0  0  0
   35.4450   21.7750   32.6680 H   0  0  0  0  0  0  0  0  0  0  0  0
   36.1670   19.7840   32.5280 N   0  0  0  0  0  0  0  0  0  0  0  0
   35.2020   18.7940   32.7780 C   0  0  0  0  0  2  0  0  0  0  0  0
   35.6280   17.4060   32.4360 C   0  0  0  0  0  2  0  0  0  0  0  0
   36.5170   17.3160   31.2290 C   0  0  0  0  0  3  0  0  0  0  0  0
   36.8800   16.2900   31.1240 H   0  0  0  0  0  0  0  0  0  0  0  0
   37.6290   18.3220   31.3510 C   0  0  0  0  0  2  0  0  0  0  0  0
   36.9580   19.6990   31.3830 C   0  0  0  0  0  2  0  0  0  0  0  0
  1  8  1  0  0  0  0
  2  6  1  0  0  0  0
  2  1  2  0  0  0  0
  3  2  1  0  0  0  0
  4  3  2  0  0  0  0
  4  5  1  0  0  0  0
  5 17  1  0  0  0  0
  5  1  1  0  0  0  0
  7  4  1  0  0  0  0
  8  9  2  0  0  0  0
  8 13  1  0  0  0  0
  9 10  1  0  0  0  0
 10 15  1  0  0  0  0
 10 11  2  0  0  0  0
 12 11  1  0  0  0  0
 12 16  1  0  0  0  0
 13 12  2  0  0  0  0
 14  9  1  0  0  0  0
 17 20  1  1  0  0  0
 17 18  1  0  0  0  0
 18 22  1  0  0  0  0
 18 21  1  0  0  0  0
 19 23  1  6  0  0  0
 19 17  1  0  0  0  0
 19 18  1  0  0  0  0
 24 25  1  0  0  0  0
 24 19  1  0  0  0  0
 26 25  1  0  0  0  0
 27 29  1  0  0  0  0
 27 26  1  0  0  0  0
 28 27  1  0  0  0  0
 29 30  1  0  0  0  0
 30 24  1  0  0  0  0
M  END
>  <minimizedAffinity>
-4.84437132

>  <minimizedRMSD>
0.854840934

$$$$
