
 OpenBabel03262519543D

 30 33  0  0  1  0  0  0  0  0999 V2000
   38.1730   24.2280   34.7250 C   0  0  0  0  0  0  0  0  0  0  0  0
   38.2300   25.5270   34.2230 C   0  0  0  0  0  0  0  0  0  0  0  0
   37.8640   25.3900   32.9180 N   0  0  0  0  0  0  0  0  0  0  0  0
   37.6150   24.1080   32.6880 C   0  0  0  0  0  0  0  0  0  0  0  0
   37.7980   23.3600   33.7920 N   0  0  0  0  0  0  0  0  0  0  0  0
   38.5080   26.4260   34.7740 H   0  0  0  0  0  0  0  0  0  0  0  0
   37.3100   23.8550   31.6760 H   0  0  0  0  0  0  0  0  0  0  0  0
   38.4810   23.8510   36.0970 C   0  0  0  0  0  0  0  0  0  0  0  0
   39.6850   23.2170   36.4060 C   0  0  0  0  0  0  0  0  0  0  0  0
   39.9400   22.8730   37.7450 C   0  0  0  0  0  0  0  0  0  0  0  0
   39.0000   23.1780   38.6610 N   0  0  0  0  0  0  0  0  0  0  0  0
   37.8420   23.7920   38.3420 C   0  0  0  0  0  0  0  0  0  0  0  0
   37.5730   24.1330   37.0680 N   0  0  0  0  0  0  0  0  0  0  0  0
   40.4150   22.9920   35.6240 H   0  0  0  0  0  0  0  0  0  0  0  0
   40.8630   22.3780   38.0270 H   0  0  0  0  0  0  0  0  0  0  0  0
   37.1660   23.9840   39.1720 H   0  0  0  0  0  0  0  0  0  0  0  0
   37.6000   21.9340   33.8310 C   0  0  1  0  0  0  0  0  0  0  0  0
   36.5820   21.2950   34.6720 C   0  0  0  0  0  0  0  0  0  0  0  0
   36.2860   21.5060   33.2110 C   0  0  2  0  0  0  0  0  0  0  0  0
   38.5000   21.3400   33.5510 H   0  0  0  0  0  0  0  0  0  0  0  0
   36.7980   20.2800   35.0640 H   0  0  0  0  0  0  0  0  0  0  0  0
   35.9770   21.8800   35.4040 H   0  0  0  0  0  0  0  0  0  0  0  0
   35.5090   22.2840   32.9900 H   0  0  0  0  0  0  0  0  0  0  0  0
   36.3000   20.4410   32.2960 N   0  0  0  0  0  0  0  0  0  0  0  0
   35.7480   19.2090   32.6880 C   0  0  0  0  0  2  0  0  0  0  0  0
   36.2250   18.0330   31.9040 C   0  0  0  0  0  2  0  0  0  0  0  0
   36.4830   18.3250   30.4540 C   0  0  0  0  0  3  0  0  0  0  0  0
   36.9440   17.4510   29.9860 H   0  0  0  0  0  0  0  0  0  0  0  0
   37.3280   19.5650   30.3370 C   0  0  0  0  0  2  0  0  0  0  0  0
   36.5000   20.7040   30.9420 C   0  0  0  0  0  2  0  0  0  0  0  0
  1  8  1  0  0  0  0
  2  1  2  0  0  0  0
  2  6  1  0  0  0  0
  3  2  1  0  0  0  0
  4  3  2  0  0  0  0
  4  5  1  0  0  0  0
  5 17  1  0  0  0  0
  5  1  1  0  0  0  0
  7  4  1  0  0  0  0
  8  9  2  0  0  0  0
  8 13  1  0  0  0  0
  9 10  1  0  0  0  0
 10 15  1  0  0  0  0
 10 11  2  0  0  0  0
 12 11  1  0  0  0  0
 12 16  1  0  0  0  0
 13 12  2  0  0  0  0
 14  9  1  0  0  0  0
 17 20  1  6  0  0  0
 17 18  1  0  0  0  0
 18 21  1  0  0  0  0
 18 22  1  0  0  0  0
 19 23  1  6  0  0  0
 19 17  1  0  0  0  0
 19 18  1  0  0  0  0
 24 25  1  0  0  0  0
 24 19  1  0  0  0  0
 26 25  1  0  0  0  0
 27 26  1  0  0  0  0
 28 27  1  0  0  0  0
 29 27  1  0  0  0  0
 29 30  1  0  0  0  0
 30 24  1  0  0  0  0
M  END
>  <minimizedAffinity>
-4.75849485

>  <minimizedRMSD>
1.57656491

$$$$
