
     RDKit          3D

 39 42  0  0  0  0  0  0  0  0999 V2000
   38.0313   23.4698   34.6219 C   0  0  0  0  0  0  0  0  0  0  0  0
   38.2638   24.5675   33.7930 C   0  0  0  0  0  0  0  0  0  0  0  0
   37.7640   24.1776   32.5870 N   0  0  0  0  0  0  0  0  0  0  0  0
   37.2811   22.9497   32.7126 C   0  0  0  0  0  0  0  0  0  0  0  0
   37.4321   22.4818   33.9657 N   0  0  0  0  0  0  0  0  0  0  0  0
   38.3931   23.3993   36.0302 C   0  0  0  0  0  0  0  0  0  0  0  0
   39.5919   22.8052   36.4264 C   0  0  0  0  0  0  0  0  0  0  0  0
   39.8991   22.7602   37.7971 C   0  0  0  0  0  0  0  0  0  0  0  0
   39.0123   23.2971   38.6567 N   0  0  0  0  0  0  0  0  0  0  0  0
   37.8585   23.8671   38.2544 C   0  0  0  0  0  0  0  0  0  0  0  0
   37.5386   23.9241   36.9468 N   0  0  0  0  0  0  0  0  0  0  0  0
   36.9984   21.1752   34.3878 C   0  0  1  0  0  0  0  0  0  0  0  0
   35.8340   20.9638   35.2539 C   0  0  0  0  0  0  0  0  0  0  0  0
   35.6769   20.7665   33.7705 C   0  0  2  0  0  0  0  0  0  0  0  0
   38.7388   25.5073   34.0758 H   0  0  0  0  0  0  0  0  0  0  0  0
   36.8478   22.5131   31.8168 H   0  0  0  0  0  0  0  0  0  0  0  0
   40.2781   22.3835   35.6871 H   0  0  0  0  0  0  0  0  0  0  0  0
   40.8209   22.3072   38.1473 H   0  0  0  0  0  0  0  0  0  0  0  0
   37.2256   24.2653   39.0454 H   0  0  0  0  0  0  0  0  0  0  0  0
   37.8054   20.4056   34.3934 H   0  0  0  0  0  0  0  0  0  0  0  0
   35.8514   20.0929   35.9412 H   0  0  0  0  0  0  0  0  0  0  0  0
   35.2853   21.8192   35.7148 H   0  0  0  0  0  0  0  0  0  0  0  0
   35.0560   21.5419   33.2492 H   0  0  0  0  0  0  0  0  0  0  0  0
   35.5766   19.4847   33.2039 N   0  0  0  0  0  0  0  0  0  0  0  0
   35.4769   18.3764   34.0610 C   0  0  0  0  0  0  0  0  0  0  0  0
   35.8679   17.0749   33.4462 C   0  0  0  0  0  0  0  0  0  0  0  0
   35.5102   16.9490   31.9936 C   0  0  0  0  0  0  0  0  0  0  0  0
   35.9394   16.0262   31.5936 H   0  0  0  0  0  0  0  0  0  0  0  0
   35.9740   18.1772   31.2568 C   0  0  0  0  0  0  0  0  0  0  0  0
   35.2069   19.3557   31.8660 C   0  0  0  0  0  0  0  0  0  0  0  0
   34.4670   18.2818   34.5014 H   0  0  0  0  0  0  0  0  0  0  0  0
   36.1639   18.5517   34.9390 H   0  0  0  0  0  0  0  0  0  0  0  0
   35.3890   16.2105   33.9904 H   0  0  0  0  0  0  0  0  0  0  0  0
   36.9576   16.9037   33.5600 H   0  0  0  0  0  0  0  0  0  0  0  0
   34.4070   16.8958   31.8645 H   0  0  0  0  0  0  0  0  0  0  0  0
   37.0400   18.3385   31.5123 H   0  0  0  0  0  0  0  0  0  0  0  0
   35.7950   18.0538   30.1846 H   0  0  0  0  0  0  0  0  0  0  0  0
   35.4417   20.2987   31.3326 H   0  0  0  0  0  0  0  0  0  0  0  0
   34.1193   19.1558   31.7760 H   0  0  0  0  0  0  0  0  0  0  0  0
  1  6  1  0
  2  1  2  0
  3  4  2  0
  3  2  1  0
  4  5  1  0
  5 12  1  0
  5  1  1  0
  6  7  2  0
  6 11  1  0
  7  8  1  0
  8  9  2  0
 10  9  1  0
 11 10  2  0
 12 13  1  0
 14 12  1  0
 14 13  1  0
  2 15  1  0
  4 16  1  0
  7 17  1  0
  8 18  1  0
 10 19  1  0
 12 20  1  1
 13 21  1  0
 13 22  1  0
 14 23  1  6
 24 25  1  0
 25 26  1  0
 26 27  1  0
 27 28  1  0
 27 29  1  0
 29 30  1  0
 30 24  1  0
 25 31  1  0
 25 32  1  0
 26 33  1  0
 26 34  1  0
 27 35  1  0
 29 36  1  0
 29 37  1  0
 30 38  1  0
 30 39  1  0
 14 24  1  0
M  ISO  8  15  14  16  14  17  14  18  14  19  14  20  13  21  13  22  13
M  ISO  2  23  13  28  15
M  END
>  <DihAtoms>  (1) 
11,13,23,24

>  <DihDeg>  (1) 
60.000500236298905

$$$$
