
 OpenBabel03262519543D

 30 33  0  0  1  0  0  0  0  0999 V2000
   38.1840   24.2150   34.6120 C   0  0  0  0  0  0  0  0  0  0  0  0
   38.2580   25.5070   34.0920 C   0  0  0  0  0  0  0  0  0  0  0  0
   37.9000   25.3550   32.7860 N   0  0  0  0  0  0  0  0  0  0  0  0
   37.6410   24.0730   32.5720 C   0  0  0  0  0  0  0  0  0  0  0  0
   37.8090   23.3380   33.6870 N   0  0  0  0  0  0  0  0  0  0  0  0
   38.5390   26.4110   34.6330 H   0  0  0  0  0  0  0  0  0  0  0  0
   37.3420   23.8090   31.5610 H   0  0  0  0  0  0  0  0  0  0  0  0
   38.4800   23.8540   35.9910 C   0  0  0  0  0  0  0  0  0  0  0  0
   39.6640   23.1900   36.3130 C   0  0  0  0  0  0  0  0  0  0  0  0
   39.9060   22.8630   37.6590 C   0  0  0  0  0  0  0  0  0  0  0  0
   38.9740   23.2120   38.5670 N   0  0  0  0  0  0  0  0  0  0  0  0
   37.8350   23.8540   38.2350 C   0  0  0  0  0  0  0  0  0  0  0  0
   37.5780   24.1800   36.9540 N   0  0  0  0  0  0  0  0  0  0  0  0
   40.3880   22.9300   35.5380 H   0  0  0  0  0  0  0  0  0  0  0  0
   40.8140   22.3470   37.9520 H   0  0  0  0  0  0  0  0  0  0  0  0
   37.1630   24.0810   39.0590 H   0  0  0  0  0  0  0  0  0  0  0  0
   37.5980   21.9140   33.7440 C   0  0  1  0  0  0  0  0  0  0  0  0
   36.4590   21.3060   34.4390 C   0  0  0  0  0  0  0  0  0  0  0  0
   36.3920   21.4670   32.9440 C   0  0  2  0  0  0  0  0  0  0  0  0
   38.5270   21.3100   33.6260 H   0  0  0  0  0  0  0  0  0  0  0  0
   36.6050   20.3050   34.8940 H   0  0  0  0  0  0  0  0  0  0  0  0
   35.7520   21.9170   35.0490 H   0  0  0  0  0  0  0  0  0  0  0  0
   35.6630   22.2370   32.5790 H   0  0  0  0  0  0  0  0  0  0  0  0
   36.5400   20.3700   32.0790 N   0  0  0  0  0  0  0  0  0  0  0  0
   37.0050   20.6010   30.7730 C   0  0  0  0  0  2  0  0  0  0  0  0
   36.6730   19.5270   29.7930 C   0  0  0  0  0  2  0  0  0  0  0  0
   36.6830   18.1420   30.3710 C   0  0  0  0  0  3  0  0  0  0  0  0
   36.3100   17.4350   29.6250 H   0  0  0  0  0  0  0  0  0  0  0  0
   35.8800   18.1260   31.6440 C   0  0  0  0  0  2  0  0  0  0  0  0
   36.5890   19.0810   32.6090 C   0  0  0  0  0  2  0  0  0  0  0  0
  1  8  1  0  0  0  0
  2  1  2  0  0  0  0
  2  6  1  0  0  0  0
  3  2  1  0  0  0  0
  4  3  2  0  0  0  0
  4  5  1  0  0  0  0
  5 17  1  0  0  0  0
  5  1  1  0  0  0  0
  7  4  1  0  0  0  0
  8  9  2  0  0  0  0
  8 13  1  0  0  0  0
  9 10  1  0  0  0  0
 10 15  1  0  0  0  0
 10 11  2  0  0  0  0
 12 11  1  0  0  0  0
 12 16  1  0  0  0  0
 13 12  2  0  0  0  0
 14  9  1  0  0  0  0
 17 20  1  6  0  0  0
 17 18  1  0  0  0  0
 18 21  1  0  0  0  0
 18 22  1  0  0  0  0
 19 23  1  6  0  0  0
 19 17  1  0  0  0  0
 19 18  1  0  0  0  0
 24 30  1  0  0  0  0
 24 19  1  0  0  0  0
 25 24  1  0  0  0  0
 26 27  1  0  0  0  0
 26 25  1  0  0  0  0
 27 29  1  0  0  0  0
 28 27  1  0  0  0  0
 29 30  1  0  0  0  0
M  END
>  <minimizedAffinity>
-4.5173521

>  <minimizedRMSD>
1.38433146

$$$$
