
 OpenBabel03262513403D

 21 21  0  0  0  0  0  0  0  0999 V2000
   37.7760   22.7820   36.3710 C   0  0  0  0  0  0  0  0  0  0  0  0
   39.0720   22.4290   35.9900 C   0  0  0  0  0  0  0  0  0  0  0  0
   40.0610   22.5690   36.9600 C   0  0  0  0  0  0  0  0  0  0  0  0
   39.7410   23.0380   38.2140 N   0  0  0  0  0  0  0  0  0  0  0  0
   38.4730   23.3640   38.5290 C   0  0  0  0  0  0  0  0  0  0  0  0
   37.4830   23.2390   37.6150 N   0  0  0  0  0  0  0  0  0  0  0  0
   36.9270   22.7130   35.7050 H   0  0  0  0  0  0  0  0  0  0  0  0
   38.4100   23.7100   39.5520 H   0  0  0  0  0  0  0  0  0  0  0  0
   41.3890   22.0420   36.5820 C   0  0  0  0  0  0  0  0  0  0  0  0
   41.2750   21.6510   35.5260 H   0  0  0  0  0  0  0  0  0  0  0  0
   41.9060   21.0290   37.4990 C   0  0  0  0  0  0  0  0  0  0  0  0
   43.0170   21.0790   37.5870 H   0  0  0  0  0  0  0  0  0  0  0  0
   41.6210   19.9810   37.2730 H   0  0  0  0  0  0  0  0  0  0  0  0
   41.5400   21.2850   38.5370 H   0  0  0  0  0  0  0  0  0  0  0  0
   42.3720   23.2130   36.3650 C   0  0  0  0  0  0  0  0  0  0  0  0
   42.1070   24.0470   37.0420 H   0  0  0  0  0  0  0  0  0  0  0  0
   42.2490   23.5580   35.3280 H   0  0  0  0  0  0  0  0  0  0  0  0
   43.4140   22.8460   36.4820 H   0  0  0  0  0  0  0  0  0  0  0  0
   39.2330   21.9920   34.7170 O   0  0  0  0  0  0  0  0  0  0  0  0
   38.1920   21.8200   33.8120 C   0  0  0  0  0  0  0  0  0  0  0  0
   37.5720   20.9560   34.1020 H   0  0  0  0  0  0  0  0  0  0  0  0
  1  6  1  0  0  0  0
  2  1  2  0  0  0  0
  2  3  1  0  0  0  0
  3  4  2  0  0  0  0
  4  5  1  0  0  0  0
  5  8  1  0  0  0  0
  6  5  2  0  0  0  0
  7  1  1  0  0  0  0
  9  3  1  0  0  0  0
  9 11  1  0  0  0  0
 10  9  1  0  0  0  0
 11 12  1  0  0  0  0
 11 14  1  0  0  0  0
 13 11  1  0  0  0  0
 15 18  1  0  0  0  0
 15  9  1  0  0  0  0
 15 16  1  0  0  0  0
 17 15  1  0  0  0  0
 19  2  1  0  0  0  0
 20 21  1  0  0  0  0
 20 19  1  0  0  0  0
M  END
>  <minimizedAffinity>
-3.39584851

>  <minimizedRMSD>
4.22347307

$$$$
