
 OpenBabel03262519543D

 30 33  0  0  1  0  0  0  0  0999 V2000
   38.1420   23.8730   34.5490 C   0  0  0  0  0  0  0  0  0  0  0  0
   38.2990   25.1010   33.9060 C   0  0  0  0  0  0  0  0  0  0  0  0
   37.8870   24.8570   32.6300 N   0  0  0  0  0  0  0  0  0  0  0  0
   37.5220   23.5860   32.5460 C   0  0  0  0  0  0  0  0  0  0  0  0
   37.6690   22.9470   33.7220 N   0  0  0  0  0  0  0  0  0  0  0  0
   38.6680   26.0260   34.3510 H   0  0  0  0  0  0  0  0  0  0  0  0
   37.1700   23.2540   31.5730 H   0  0  0  0  0  0  0  0  0  0  0  0
   38.4540   23.6200   35.9480 C   0  0  0  0  0  0  0  0  0  0  0  0
   39.6660   23.0300   36.3100 C   0  0  0  0  0  0  0  0  0  0  0  0
   39.9220   22.8060   37.6740 C   0  0  0  0  0  0  0  0  0  0  0  0
   38.9780   23.1760   38.5600 N   0  0  0  0  0  0  0  0  0  0  0  0
   37.8130   23.7450   38.1890 C   0  0  0  0  0  0  0  0  0  0  0  0
   37.5410   23.9720   36.8900 N   0  0  0  0  0  0  0  0  0  0  0  0
   40.3990   22.7490   35.5510 H   0  0  0  0  0  0  0  0  0  0  0  0
   40.8520   22.3500   37.9980 H   0  0  0  0  0  0  0  0  0  0  0  0
   37.1320   23.9990   38.9990 H   0  0  0  0  0  0  0  0  0  0  0  0
   37.3490   21.5570   33.9210 C   0  0  1  0  0  0  0  0  0  0  0  0
   35.9870   21.0840   34.1880 C   0  0  0  0  0  0  0  0  0  0  0  0
   36.5290   20.9750   32.7880 C   0  0  2  0  0  0  0  0  0  0  0  0
   38.2020   20.9400   34.2860 H   0  0  0  0  0  0  0  0  0  0  0  0
   35.8680   20.1800   34.8200 H   0  0  0  0  0  0  0  0  0  0  0  0
   35.1430   21.7950   34.3540 H   0  0  0  0  0  0  0  0  0  0  0  0
   36.0620   21.6690   32.0410 H   0  0  0  0  0  0  0  0  0  0  0  0
   36.9270   19.7420   32.2460 N   0  0  0  0  0  0  0  0  0  0  0  0
   38.2470   19.6010   31.7890 C   0  0  0  0  0  2  0  0  0  0  0  0
   38.4550   18.4970   30.8090 C   0  0  0  0  0  2  0  0  0  0  0  0
   37.6030   17.2860   31.0580 C   0  0  0  0  0  3  0  0  0  0  0  0
   37.7250   16.5810   30.2300 H   0  0  0  0  0  0  0  0  0  0  0  0
   36.1730   17.7130   31.2570 C   0  0  0  0  0  2  0  0  0  0  0  0
   36.1630   18.6030   32.5040 C   0  0  0  0  0  2  0  0  0  0  0  0
  1  8  1  0  0  0  0
  2  6  1  0  0  0  0
  2  1  2  0  0  0  0
  3  2  1  0  0  0  0
  4  3  2  0  0  0  0
  4  5  1  0  0  0  0
  5 17  1  0  0  0  0
  5  1  1  0  0  0  0
  7  4  1  0  0  0  0
  8  9  2  0  0  0  0
  8 13  1  0  0  0  0
  9 10  1  0  0  0  0
 10 15  1  0  0  0  0
 10 11  2  0  0  0  0
 12 11  1  0  0  0  0
 12 16  1  0  0  0  0
 13 12  2  0  0  0  0
 14  9  1  0  0  0  0
 17 18  1  0  0  0  0
 17 20  1  1  0  0  0
 18 22  1  0  0  0  0
 18 21  1  0  0  0  0
 19 23  1  6  0  0  0
 19 17  1  0  0  0  0
 19 18  1  0  0  0  0
 24 30  1  0  0  0  0
 24 19  1  0  0  0  0
 25 24  1  0  0  0  0
 26 27  1  0  0  0  0
 26 25  1  0  0  0  0
 27 29  1  0  0  0  0
 28 27  1  0  0  0  0
 29 30  1  0  0  0  0
M  END
>  <minimizedAffinity>
-4.3242507

>  <minimizedRMSD>
1.27570844

$$$$
