
 OpenBabel03262518563D

 19 20  0  0  0  0  0  0  0  0999 V2000
   38.3450   22.9580   33.8300 C   0  0  0  0  0  0  0  0  0  0  0  0
   37.8970   23.9570   33.6460 H   0  0  0  0  0  0  0  0  0  0  0  0
   39.2040   22.8780   33.1630 H   0  0  0  0  0  0  0  0  0  0  0  0
   40.2570   22.1400   36.8580 C   0  0  0  0  0  0  0  0  0  0  0  0
   39.6470   22.8860   37.8800 C   0  0  0  0  0  0  0  0  0  0  0  0
   38.5590   23.6800   37.5010 C   0  0  0  0  0  0  0  0  0  0  0  0
   38.1480   23.6960   36.1910 N   0  0  0  0  0  0  0  0  0  0  0  0
   38.7760   22.9580   35.2670 C   0  0  0  0  0  0  0  0  0  0  0  0
   39.8270   22.1750   35.5660 N   0  0  0  0  0  0  0  0  0  0  0  0
   41.1140   21.5000   37.0980 H   0  0  0  0  0  0  0  0  0  0  0  0
   39.9800   22.8620   38.8900 H   0  0  0  0  0  0  0  0  0  0  0  0
   38.0300   24.2910   38.2370 H   0  0  0  0  0  0  0  0  0  0  0  0
   37.3210   21.9860   33.6200 N   0  0  0  0  0  0  0  0  0  0  0  0
   36.4670   22.2160   32.5070 C   0  0  0  0  0  0  0  0  0  0  0  0
   35.6660   20.9980   32.1700 C   0  0  0  0  0  0  0  0  0  0  0  0
   35.5680   19.9860   33.2600 C   0  0  0  0  0  0  0  0  0  0  0  0
   34.5810   19.4830   33.1580 H   0  0  0  0  0  0  0  0  0  0  0  0
   35.6620   20.5280   34.6530 C   0  0  0  0  0  0  0  0  0  0  0  0
   36.6960   21.5980   34.8410 C   0  0  0  0  0  0  0  0  0  0  0  0
  1  8  1  0  0  0  0
  2  1  1  0  0  0  0
  3  1  1  0  0  0  0
  4 10  1  0  0  0  0
  4  5  1  0  0  0  0
  5 11  1  0  0  0  0
  6  5  2  0  0  0  0
  6 12  1  0  0  0  0
  7  6  1  0  0  0  0
  8  9  1  0  0  0  0
  8  7  2  0  0  0  0
  9  4  2  0  0  0  0
 13  1  1  0  0  0  0
 13 19  1  0  0  0  0
 14 13  1  0  0  0  0
 15 14  1  0  0  0  0
 15 16  1  0  0  0  0
 16 18  1  0  0  0  0
 17 16  1  0  0  0  0
 18 19  1  0  0  0  0
M  END
>  <minimizedAffinity>
-3.66153407

>  <minimizedRMSD>
1.81726599

$$$$
