
 OpenBabel03262519543D

 30 33  0  0  1  0  0  0  0  0999 V2000
   38.1310   24.3070   34.6960 C   0  0  0  0  0  0  0  0  0  0  0  0
   38.0920   25.6290   34.2560 C   0  0  0  0  0  0  0  0  0  0  0  0
   37.7460   25.5280   32.9420 N   0  0  0  0  0  0  0  0  0  0  0  0
   37.6000   24.2430   32.6480 C   0  0  0  0  0  0  0  0  0  0  0  0
   37.8320   23.4590   33.7170 N   0  0  0  0  0  0  0  0  0  0  0  0
   38.2940   26.5200   34.8530 H   0  0  0  0  0  0  0  0  0  0  0  0
   37.3230   24.0170   31.6220 H   0  0  0  0  0  0  0  0  0  0  0  0
   38.4580   23.8890   36.0510 C   0  0  0  0  0  0  0  0  0  0  0  0
   39.6760   23.2670   36.3280 C   0  0  0  0  0  0  0  0  0  0  0  0
   39.9480   22.8820   37.6530 C   0  0  0  0  0  0  0  0  0  0  0  0
   39.0110   23.1380   38.5860 N   0  0  0  0  0  0  0  0  0  0  0  0
   37.8390   23.7400   38.2970 C   0  0  0  0  0  0  0  0  0  0  0  0
   37.5530   24.1200   37.0370 N   0  0  0  0  0  0  0  0  0  0  0  0
   40.4040   23.0840   35.5340 H   0  0  0  0  0  0  0  0  0  0  0  0
   40.8830   22.3960   37.9110 H   0  0  0  0  0  0  0  0  0  0  0  0
   37.1650   23.8910   39.1380 H   0  0  0  0  0  0  0  0  0  0  0  0
   37.7450   22.0210   33.6870 C   0  0  1  0  0  0  0  0  0  0  0  0
   36.5950   21.2820   34.2180 C   0  0  0  0  0  0  0  0  0  0  0  0
   36.6810   21.5180   32.7340 C   0  0  2  0  0  0  0  0  0  0  0  0
   38.7320   21.5050   33.6500 H   0  0  0  0  0  0  0  0  0  0  0  0
   36.7790   20.2740   34.6420 H   0  0  0  0  0  0  0  0  0  0  0  0
   35.7730   21.7970   34.7690 H   0  0  0  0  0  0  0  0  0  0  0  0
   35.9300   22.2420   32.3220 H   0  0  0  0  0  0  0  0  0  0  0  0
   37.0220   20.4860   31.8430 N   0  0  0  0  0  0  0  0  0  0  0  0
   38.3060   19.9230   31.9250 C   0  0  0  0  0  2  0  0  0  0  0  0
   38.7620   19.2260   30.6880 C   0  0  0  0  0  2  0  0  0  0  0  0
   37.6680   18.5190   29.9420 C   0  0  0  0  0  3  0  0  0  0  0  0
   38.0600   18.1450   28.9920 H   0  0  0  0  0  0  0  0  0  0  0  0
   36.5010   19.4550   29.7640 C   0  0  0  0  0  2  0  0  0  0  0  0
   36.0100   19.7980   31.1740 C   0  0  0  0  0  2  0  0  0  0  0  0
  1  8  1  0  0  0  0
  2  1  2  0  0  0  0
  2  6  1  0  0  0  0
  3  2  1  0  0  0  0
  4  3  2  0  0  0  0
  4  5  1  0  0  0  0
  5  1  1  0  0  0  0
  7  4  1  0  0  0  0
  8  9  2  0  0  0  0
  8 13  1  0  0  0  0
  9 10  1  0  0  0  0
 10 15  1  0  0  0  0
 10 11  2  0  0  0  0
 12 11  1  0  0  0  0
 12 16  1  0  0  0  0
 13 12  2  0  0  0  0
 14  9  1  0  0  0  0
 17 20  1  6  0  0  0
 17  5  1  0  0  0  0
 17 18  1  0  0  0  0
 18 21  1  0  0  0  0
 18 22  1  0  0  0  0
 19 23  1  6  0  0  0
 19 17  1  0  0  0  0
 19 18  1  0  0  0  0
 24 25  1  0  0  0  0
 24 19  1  0  0  0  0
 26 25  1  0  0  0  0
 27 26  1  0  0  0  0
 28 27  1  0  0  0  0
 29 27  1  0  0  0  0
 29 30  1  0  0  0  0
 30 24  1  0  0  0  0
M  END
>  <minimizedAffinity>
-4.54000092

>  <minimizedRMSD>
1.76282609

$$$$
