
 OpenBabel03262519553D

 30 33  0  0  1  0  0  0  0  0999 V2000
   38.1070   23.7250   34.5120 C   0  0  0  0  0  0  0  0  0  0  0  0
   38.2940   24.9150   33.8100 C   0  0  0  0  0  0  0  0  0  0  0  0
   37.8530   24.6260   32.5540 N   0  0  0  0  0  0  0  0  0  0  0  0
   37.4430   23.3660   32.5350 C   0  0  0  0  0  0  0  0  0  0  0  0
   37.5890   22.7780   33.7380 N   0  0  0  0  0  0  0  0  0  0  0  0
   38.7020   25.8460   34.2040 H   0  0  0  0  0  0  0  0  0  0  0  0
   37.0630   23.0010   31.5850 H   0  0  0  0  0  0  0  0  0  0  0  0
   38.4340   23.5270   35.9170 C   0  0  0  0  0  0  0  0  0  0  0  0
   39.6380   22.9270   36.2880 C   0  0  0  0  0  0  0  0  0  0  0  0
   39.9100   22.7580   37.6570 C   0  0  0  0  0  0  0  0  0  0  0  0
   38.9860   23.1880   38.5390 N   0  0  0  0  0  0  0  0  0  0  0  0
   37.8280   23.7660   38.1590 C   0  0  0  0  0  0  0  0  0  0  0  0
   37.5420   23.9410   36.8550 N   0  0  0  0  0  0  0  0  0  0  0  0
   40.3540   22.5960   35.5330 H   0  0  0  0  0  0  0  0  0  0  0  0
   40.8340   22.2960   37.9880 H   0  0  0  0  0  0  0  0  0  0  0  0
   37.1650   24.0700   38.9660 H   0  0  0  0  0  0  0  0  0  0  0  0
   37.2250   21.4100   34.0070 C   0  0  1  0  0  0  0  0  0  0  0  0
   35.9650   21.0350   34.6550 C   0  0  0  0  0  0  0  0  0  0  0  0
   36.0670   20.9320   33.1570 C   0  0  2  0  0  0  0  0  0  0  0  0
   38.0930   20.7180   34.1020 H   0  0  0  0  0  0  0  0  0  0  0  0
   35.9590   20.1220   35.2850 H   0  0  0  0  0  0  0  0  0  0  0  0
   35.2670   21.8020   35.0670 H   0  0  0  0  0  0  0  0  0  0  0  0
   35.4630   21.6850   32.5850 H   0  0  0  0  0  0  0  0  0  0  0  0
   36.1860   19.6910   32.5110 N   0  0  0  0  0  0  0  0  0  0  0  0
   35.1740   18.7340   32.6980 C   0  0  0  0  0  2  0  0  0  0  0  0
   35.5850   17.3280   32.4160 C   0  0  0  0  0  2  0  0  0  0  0  0
   36.5640   17.1890   31.2860 C   0  0  0  0  0  3  0  0  0  0  0  0
   36.9040   16.1520   31.2270 H   0  0  0  0  0  0  0  0  0  0  0  0
   37.6930   18.1650   31.4810 C   0  0  0  0  0  2  0  0  0  0  0  0
   37.0630   19.5610   31.4350 C   0  0  0  0  0  2  0  0  0  0  0  0
  1  8  1  0  0  0  0
  2  6  1  0  0  0  0
  2  1  2  0  0  0  0
  3  2  1  0  0  0  0
  4  3  2  0  0  0  0
  4  5  1  0  0  0  0
  5 17  1  0  0  0  0
  5  1  1  0  0  0  0
  7  4  1  0  0  0  0
  8  9  2  0  0  0  0
  8 13  1  0  0  0  0
  9 10  1  0  0  0  0
 10 15  1  0  0  0  0
 10 11  2  0  0  0  0
 12 11  1  0  0  0  0
 12 16  1  0  0  0  0
 13 12  2  0  0  0  0
 14  9  1  0  0  0  0
 17 20  1  1  0  0  0
 17 18  1  0  0  0  0
 18 22  1  0  0  0  0
 18 21  1  0  0  0  0
 19 23  1  6  0  0  0
 19 17  1  0  0  0  0
 19 18  1  0  0  0  0
 24 25  1  0  0  0  0
 24 19  1  0  0  0  0
 26 25  1  0  0  0  0
 27 29  1  0  0  0  0
 27 26  1  0  0  0  0
 28 27  1  0  0  0  0
 30 29  1  0  0  0  0
 30 24  1  0  0  0  0
M  END
>  <minimizedAffinity>
-4.8484416

>  <minimizedRMSD>
0.725436151

$$$$
