
 OpenBabel03262519383D

 28 29  0  0  1  0  0  0  0  0999 V2000
   37.7160   25.2730   34.4240 N   0  0  0  0  0  0  0  0  0  0  0  0
   37.2980   25.4650   33.0620 C   0  0  0  0  0  0  0  0  0  0  0  0
   37.3360   26.9470   32.8400 C   0  0  0  0  0  0  0  0  0  0  0  0
   37.8430   27.5210   34.1530 C   0  0  0  0  0  0  0  0  0  0  0  0
   38.6910   26.3120   34.6330 C   0  0  2  0  0  0  0  0  0  0  0  0
   38.0930   24.9990   32.4150 H   0  0  0  0  0  0  0  0  0  0  0  0
   36.3380   25.0100   32.8000 H   0  0  0  0  0  0  0  0  0  0  0  0
   36.2930   27.2650   32.6320 H   0  0  0  0  0  0  0  0  0  0  0  0
   38.0270   27.2410   32.0260 H   0  0  0  0  0  0  0  0  0  0  0  0
   38.4780   28.4090   33.9960 H   0  0  0  0  0  0  0  0  0  0  0  0
   37.0200   27.6740   34.8680 H   0  0  0  0  0  0  0  0  0  0  0  0
   38.8380   26.4950   35.7150 H   0  0  0  0  0  0  0  0  0  0  0  0
   38.3940   24.0330   34.6620 C   0  0  0  0  0  0  0  0  0  0  0  0
   37.7750   23.1610   34.2950 H   0  0  0  0  0  0  0  0  0  0  0  0
   39.3600   23.9100   34.1700 H   0  0  0  0  0  0  0  0  0  0  0  0
   37.8750   23.8660   38.4030 C   0  0  0  0  0  0  0  0  0  0  0  0
   37.6370   24.1460   37.0600 C   0  0  0  0  0  0  0  0  0  0  0  0
   38.5930   23.7610   36.1160 C   0  0  0  0  0  0  0  0  0  0  0  0
   39.7340   23.1180   36.5560 N   0  0  0  0  0  0  0  0  0  0  0  0
   39.9010   22.8760   37.8810 C   0  0  0  0  0  0  0  0  0  0  0  0
   38.9810   23.2480   38.7830 N   0  0  0  0  0  0  0  0  0  0  0  0
   37.1480   24.1570   39.1440 H   0  0  0  0  0  0  0  0  0  0  0  0
   36.7520   24.6470   36.7110 H   0  0  0  0  0  0  0  0  0  0  0  0
   40.8560   22.3660   38.0110 H   0  0  0  0  0  0  0  0  0  0  0  0
   39.8190   26.1750   33.9000 O   0  0  0  0  0  0  0  0  0  0  0  0
   40.9750   26.7240   34.3830 C   0  0  0  0  0  0  0  0  0  0  0  0
   41.6160   27.4780   33.2220 C   0  0  0  0  0  0  0  0  0  0  0  0
   41.0510   27.3710   32.2740 H   0  0  0  0  0  0  0  0  0  0  0  0
  1  5  1  0  0  0  0
  1 13  1  0  0  0  0
  2  1  1  0  0  0  0
  3  2  1  0  0  0  0
  3  4  1  0  0  0  0
  4  5  1  0  0  0  0
  4 11  1  0  0  0  0
  5 12  1  1  0  0  0
  6  2  1  0  0  0  0
  7  2  1  0  0  0  0
  8  3  1  0  0  0  0
  9  3  1  0  0  0  0
 10  4  1  0  0  0  0
 13 18  1  0  0  0  0
 14 13  1  0  0  0  0
 15 13  1  0  0  0  0
 16 21  1  0  0  0  0
 16 22  1  0  0  0  0
 17 16  2  0  0  0  0
 18 19  2  0  0  0  0
 18 17  1  0  0  0  0
 19 20  1  0  0  0  0
 20 24  1  0  0  0  0
 20 21  2  0  0  0  0
 23 17  1  0  0  0  0
 25 26  1  0  0  0  0
 25  5  1  0  0  0  0
 27 26  1  0  0  0  0
 28 27  1  0  0  0  0
M  END
>  <minimizedAffinity>
-3.73941875

>  <minimizedRMSD>
1.00655723

$$$$
