
 OpenBabel03262519553D

 29 32  0  0  1  0  0  0  0  0999 V2000
   38.7820   26.9660   33.3120 C   0  0  0  0  0  0  0  0  0  0  0  0
   37.8870   27.5980   32.4620 C   0  0  0  0  0  0  0  0  0  0  0  0
   36.7260   27.6540   33.1770 N   0  0  0  0  0  0  0  0  0  0  0  0
   36.9400   27.0960   34.3480 C   0  0  0  0  0  0  0  0  0  0  0  0
   38.2080   26.6550   34.4730 N   0  0  0  0  0  0  0  0  0  0  0  0
   38.1550   27.9310   31.4710 H   0  0  0  0  0  0  0  0  0  0  0  0
   36.1170   27.0510   35.0580 H   0  0  0  0  0  0  0  0  0  0  0  0
   40.1730   26.6700   33.0010 C   0  0  0  0  0  0  0  0  0  0  0  0
   40.4970   25.6010   32.1710 C   0  0  0  0  0  0  0  0  0  0  0  0
   41.8570   25.3520   31.8970 C   0  0  0  0  0  0  0  0  0  0  0  0
   42.7670   26.1670   32.4580 N   0  0  0  0  0  0  0  0  0  0  0  0
   42.4300   27.2010   33.2630 C   0  0  0  0  0  0  0  0  0  0  0  0
   41.1350   27.4550   33.5360 N   0  0  0  0  0  0  0  0  0  0  0  0
   39.7180   24.9990   31.7640 H   0  0  0  0  0  0  0  0  0  0  0  0
   42.1360   24.5250   31.2530 H   0  0  0  0  0  0  0  0  0  0  0  0
   43.2480   27.8060   33.6690 H   0  0  0  0  0  0  0  0  0  0  0  0
   38.7170   26.0020   35.6570 C   0  0  1  0  0  0  0  0  0  0  0  0
   37.9200   25.0610   36.4450 C   0  0  0  0  0  0  0  0  0  0  0  0
   38.9060   24.5020   35.4530 C   0  0  2  0  0  0  0  0  0  0  0  0
   39.5720   26.5530   36.1230 H   0  0  0  0  0  0  0  0  0  0  0  0
   38.1250   24.9930   37.5290 H   0  0  0  0  0  0  0  0  0  0  0  0
   36.8260   25.0010   36.2170 H   0  0  0  0  0  0  0  0  0  0  0  0
   38.4350   24.0130   34.5680 H   0  0  0  0  0  0  0  0  0  0  0  0
   40.0100   23.8340   36.0630 N   0  0  0  0  0  0  0  0  0  0  0  0
   41.0760   23.4460   35.1960 C   0  0  0  0  0  2  0  0  0  0  0  0
   42.1350   22.8260   36.1190 C   0  0  0  0  0  2  0  0  0  0  0  0
   41.6310   21.7370   36.8250 O   0  0  0  0  0  0  0  0  0  0  0  0
   40.5930   22.1690   37.6380 C   0  0  0  0  0  2  0  0  0  0  0  0
   39.4920   22.6350   36.6990 C   0  0  0  0  0  2  0  0  0  0  0  0
  1  5  1  0  0  0  0
  2  3  1  0  0  0  0
  2  1  2  0  0  0  0
  3  4  2  0  0  0  0
  4  5  1  0  0  0  0
  4  7  1  0  0  0  0
  5 17  1  0  0  0  0
  6  2  1  0  0  0  0
  8  1  1  0  0  0  0
  8 13  1  0  0  0  0
  9  8  2  0  0  0  0
 10  9  1  0  0  0  0
 10 11  2  0  0  0  0
 11 12  1  0  0  0  0
 12 13  2  0  0  0  0
 12 16  1  0  0  0  0
 14  9  1  0  0  0  0
 15 10  1  0  0  0  0
 17 20  1  1  0  0  0
 17 18  1  0  0  0  0
 18 21  1  0  0  0  0
 19 23  1  6  0  0  0
 19 17  1  0  0  0  0
 19 24  1  0  0  0  0
 19 18  1  0  0  0  0
 22 18  1  0  0  0  0
 24 29  1  0  0  0  0
 25 24  1  0  0  0  0
 25 26  1  0  0  0  0
 26 27  1  0  0  0  0
 27 28  1  0  0  0  0
 29 28  1  0  0  0  0
M  END
>  <minimizedAffinity>
-4.02178717

>  <minimizedRMSD>
6.34837484

$$$$
