
 OpenBabel03262518043D

 30 33  0  0  0  0  0  0  0  0999 V2000
   43.6140   19.7240   37.0870 C   0  0  0  0  0  0  0  0  0  0  0  0
   42.4870   20.4910   37.3160 C   0  0  0  0  0  0  0  0  0  0  0  0
   41.9620   21.2170   36.2430 C   0  0  0  0  0  0  0  0  0  0  0  0
   42.6090   21.1080   35.0480 N   0  0  0  0  0  0  0  0  0  0  0  0
   43.6870   20.3680   34.8510 C   0  0  0  0  0  0  0  0  0  0  0  0
   44.1990   19.6610   35.8960 N   0  0  0  0  0  0  0  0  0  0  0  0
   44.0350   19.1580   37.8840 H   0  0  0  0  0  0  0  0  0  0  0  0
   41.9860   20.5620   38.2570 H   0  0  0  0  0  0  0  0  0  0  0  0
   44.3420   20.2900   33.5250 C   0  0  0  0  0  0  0  0  0  0  0  0
   45.7180   20.0110   33.3720 C   0  0  0  0  0  0  0  0  0  0  0  0
   46.1970   19.9550   32.1060 C   0  0  0  0  0  0  0  0  0  0  0  0
   45.3820   20.1620   30.9930 C   0  0  0  0  0  0  0  0  0  0  0  0
   43.7480   20.4720   31.8280 S   0  0  0  0  0  0  0  0  0  0  0  0
   46.3440   19.8480   34.2590 H   0  0  0  0  0  0  0  0  0  0  0  0
   47.2580   19.7520   31.9220 H   0  0  0  0  0  0  0  0  0  0  0  0
   45.6980   20.1210   29.7090 N   0  0  0  0  0  0  0  0  0  0  0  0
   45.4300   19.0520   28.7790 C   0  0  0  0  0  0  0  0  0  0  0  0
   45.8890   19.5370   27.4020 C   0  0  0  0  0  0  0  0  0  0  0  0
   45.3170   20.7660   27.0610 O   0  0  0  0  0  0  0  0  0  0  0  0
   45.5460   21.7640   28.0000 C   0  0  0  0  0  0  0  0  0  0  0  0
   46.4100   21.2630   29.1440 C   0  0  0  0  0  0  0  0  0  0  0  0
   40.7650   22.0520   36.3810 C   0  0  0  0  0  0  0  0  0  0  0  0
   39.9220   22.6530   35.5030 N   0  0  0  0  0  0  0  0  0  0  0  0
   39.0080   23.2950   36.1670 O   0  0  0  0  0  0  0  0  0  0  0  0
   39.2240   23.1360   37.4660 C   0  0  0  0  0  0  0  0  0  0  0  0
   40.2990   22.3760   37.5980 N   0  0  0  0  0  0  0  0  0  0  0  0
   38.4230   23.6970   38.5730 C   0  0  0  0  0  0  0  0  0  0  0  0
   39.2470   23.8810   39.6780 F   0  0  0  0  0  0  0  0  0  0  0  0
   37.3840   22.8820   38.9220 F   0  0  0  0  0  0  0  0  0  0  0  0
   37.9450   24.9540   38.2250 F   0  0  0  0  0  0  0  0  0  0  0  0
  1  2  1  0  0  0  0
  1  7  1  0  0  0  0
  2  8  1  0  0  0  0
  3 22  1  0  0  0  0
  3  2  2  0  0  0  0
  4  3  1  0  0  0  0
  5  4  2  0  0  0  0
  5  6  1  0  0  0  0
  6  1  2  0  0  0  0
  9  5  1  0  0  0  0
 10  9  2  0  0  0  0
 10 14  1  0  0  0  0
 11 10  1  0  0  0  0
 12 13  1  0  0  0  0
 12 11  2  0  0  0  0
 13  9  1  0  0  0  0
 15 11  1  0  0  0  0
 16 12  1  0  0  0  0
 17 16  1  0  0  0  0
 18 17  1  0  0  0  0
 19 18  1  0  0  0  0
 19 20  1  0  0  0  0
 20 21  1  0  0  0  0
 21 16  1  0  0  0  0
 22 26  1  0  0  0  0
 23 24  1  0  0  0  0
 23 22  2  0  0  0  0
 24 25  1  0  0  0  0
 25 26  2  0  0  0  0
 25 27  1  0  0  0  0
 27 29  1  0  0  0  0
 27 28  1  0  0  0  0
 30 27  1  0  0  0  0
M  END
>  <minimizedAffinity>
-3.89068961

>  <minimizedRMSD>
0.0142400153

$$$$
