
 OpenBabel03262519553D

 29 32  0  0  1  0  0  0  0  0999 V2000
   38.1160   24.0800   34.7240 C   0  0  0  0  0  0  0  0  0  0  0  0
   38.1500   25.3440   34.1520 C   0  0  0  0  0  0  0  0  0  0  0  0
   37.7790   25.1360   32.8540 N   0  0  0  0  0  0  0  0  0  0  0  0
   37.5510   23.8510   32.6960 C   0  0  0  0  0  0  0  0  0  0  0  0
   37.7480   23.1580   33.8350 N   0  0  0  0  0  0  0  0  0  0  0  0
   38.4230   26.2290   34.7040 H   0  0  0  0  0  0  0  0  0  0  0  0
   37.2420   23.4980   31.7140 H   0  0  0  0  0  0  0  0  0  0  0  0
   38.4340   23.7750   36.1100 C   0  0  0  0  0  0  0  0  0  0  0  0
   39.6360   23.1550   36.4370 C   0  0  0  0  0  0  0  0  0  0  0  0
   39.9030   22.8790   37.7930 C   0  0  0  0  0  0  0  0  0  0  0  0
   38.9740   23.2330   38.6980 N   0  0  0  0  0  0  0  0  0  0  0  0
   37.8110   23.8360   38.3580 C   0  0  0  0  0  0  0  0  0  0  0  0
   37.5370   24.1080   37.0670 N   0  0  0  0  0  0  0  0  0  0  0  0
   40.3240   22.9050   35.6630 H   0  0  0  0  0  0  0  0  0  0  0  0
   40.8330   22.3960   38.0740 H   0  0  0  0  0  0  0  0  0  0  0  0
   37.1200   24.0840   39.1710 H   0  0  0  0  0  0  0  0  0  0  0  0
   37.5700   21.7290   33.9460 C   0  0  1  0  0  0  0  0  0  0  0  0
   36.3520   21.1240   34.4850 C   0  0  0  0  0  0  0  0  0  0  0  0
   36.5050   21.2040   32.9880 C   0  0  2  0  0  0  0  0  0  0  0  0
   38.5400   21.1710   33.9670 H   0  0  0  0  0  0  0  0  0  0  0  0
   36.4440   20.1510   35.0010 H   0  0  0  0  0  0  0  0  0  0  0  0
   35.6240   21.8060   34.9940 H   0  0  0  0  0  0  0  0  0  0  0  0
   35.8140   21.9290   32.4970 H   0  0  0  0  0  0  0  0  0  0  0  0
   36.6740   19.9310   32.3660 N   0  0  0  0  0  0  0  0  0  0  0  0
   36.7620   19.9270   30.9400 C   0  0  0  0  0  2  0  0  0  0  0  0
   37.0060   18.4600   30.5590 C   0  0  0  0  0  2  0  0  0  0  0  0
   35.9800   17.6330   31.0070 O   0  0  0  0  0  0  0  0  0  0  0  0
   35.9320   17.6850   32.3920 C   0  0  0  0  0  2  0  0  0  0  0  0
   35.5360   19.1100   32.7450 C   0  0  0  0  0  2  0  0  0  0  0  0
  1  8  1  0  0  0  0
  2  6  1  0  0  0  0
  2  1  2  0  0  0  0
  3  2  1  0  0  0  0
  4  3  2  0  0  0  0
  4  5  1  0  0  0  0
  5 17  1  0  0  0  0
  5  1  1  0  0  0  0
  7  4  1  0  0  0  0
  8  9  2  0  0  0  0
  8 13  1  0  0  0  0
  9 10  1  0  0  0  0
 10 15  1  0  0  0  0
 10 11  2  0  0  0  0
 12 11  1  0  0  0  0
 12 16  1  0  0  0  0
 13 12  2  0  0  0  0
 14  9  1  0  0  0  0
 17 20  1  1  0  0  0
 17 18  1  0  0  0  0
 18 22  1  0  0  0  0
 18 21  1  0  0  0  0
 19 23  1  6  0  0  0
 19 17  1  0  0  0  0
 19 18  1  0  0  0  0
 24 29  1  0  0  0  0
 24 19  1  0  0  0  0
 25 24  1  0  0  0  0
 26 25  1  0  0  0  0
 26 27  1  0  0  0  0
 27 28  1  0  0  0  0
 28 29  1  0  0  0  0
M  END
>  <minimizedAffinity>
-4.57002258

>  <minimizedRMSD>
1.35460389

$$$$
