REMARK  Name = 
REMARK  3 active torsions:
REMARK  status: ('A' for Active; 'I' for Inactive)
REMARK    1  A    between atoms: C_1  and  C_6
REMARK    2  A    between atoms: N_5  and  C_12
REMARK    3  A    between atoms: C_14  and  N_24
REMARK                            x       y       z     vdW  Elec       q    Type
REMARK                         _______ _______ _______ _____ _____    ______ ____
ROOT
ATOM      1  C   UNL     1      38.035  23.474  34.623  0.00  0.00    +0.000 A 
ATOM      2  C   UNL     1      38.262  24.562  33.793  0.00  0.00    +0.000 A 
ATOM      3  N   UNL     1      37.763  24.172  32.583  0.00  0.00    +0.000 NA
ATOM      4  C   UNL     1      37.287  22.953  32.712  0.00  0.00    +0.000 A 
ATOM      5  N   UNL     1      37.436  22.482  33.966  0.00  0.00    +0.000 N 
ATOM      6  H   UNL     1      38.737  25.469  34.132  0.00  0.00    +0.000 HD
ATOM      7  H   UNL     1      36.845  22.476  31.840  0.00  0.00    +0.000 HD
ENDROOT
BRANCH   1   8
ATOM      8  C   UNL     1      38.394  23.401  36.031  0.00  0.00    +0.000 A 
ATOM      9  C   UNL     1      39.593  22.813  36.423  0.00  0.00    +0.000 A 
ATOM     10  C   UNL     1      39.900  22.765  37.798  0.00  0.00    +0.000 A 
ATOM     11  N   UNL     1      39.010  23.293  38.656  0.00  0.00    +0.000 NA
ATOM     12  C   UNL     1      37.849  23.860  38.253  0.00  0.00    +0.000 A 
ATOM     13  N   UNL     1      37.538  23.916  36.943  0.00  0.00    +0.000 NA
ATOM     14  H   UNL     1      40.248  22.416  35.683  0.00  0.00    +0.000 HD
ATOM     15  H   UNL     1      40.828  22.312  38.129  0.00  0.00    +0.000 HD
ATOM     16  H   UNL     1      37.192  24.262  39.032  0.00  0.00    +0.000 HD
ENDBRANCH   1   8
BRANCH   5  17
ATOM     17  C   UNL     1      37.002  21.170  34.387  0.00  0.00    +0.000 C 
ATOM     18  C   UNL     1      35.847  20.962  35.260  0.00  0.00    +0.000 C 
ATOM     19  C   UNL     1      35.659  20.782  33.776  0.00  0.00    +0.000 C 
ATOM     20  H   UNL     1      37.816  20.404  34.328  0.00  0.00    +0.000 HD
ATOM     21  H   UNL     1      35.857  20.082  35.929  0.00  0.00    +0.000 HD
ATOM     22  H   UNL     1      35.412  21.866  35.757  0.00  0.00    +0.000 HD
ATOM     23  H   UNL     1      35.035  21.572  33.296  0.00  0.00    +0.000 HD
BRANCH  19  24
ATOM     24  N   UNL     1      35.416  19.429  33.394  0.00  0.00    +0.000 NA
ATOM     25  C   UNL     1      36.094  18.424  34.148  0.00  0.00    +0.000 C 
ATOM     26  C   UNL     1      35.599  17.089  33.572  0.00  0.00    +0.000 C 
ATOM     27  O   UNL     1      35.878  16.980  32.212  0.00  0.00    +0.000 OA
ATOM     28  C   UNL     1      35.206  17.985  31.533  0.00  0.00    +0.000 C 
ATOM     29  C   UNL     1      35.820  19.293  32.005  0.00  0.00    +0.000 C 
ENDBRANCH  19  24
ENDBRANCH   5  17
TORSDOF 3
