
 OpenBabel03262519553D

 29 32  0  0  1  0  0  0  0  0999 V2000
   38.2090   24.0630   34.4270 C   0  0  0  0  0  0  0  0  0  0  0  0
   38.3880   25.3160   33.8590 C   0  0  0  0  0  0  0  0  0  0  0  0
   38.0000   25.1540   32.5590 N   0  0  0  0  0  0  0  0  0  0  0  0
   37.6280   23.9030   32.3980 C   0  0  0  0  0  0  0  0  0  0  0  0
   37.7430   23.1900   33.5360 N   0  0  0  0  0  0  0  0  0  0  0  0
   38.7580   26.1640   34.4130 H   0  0  0  0  0  0  0  0  0  0  0  0
   37.2840   23.5890   31.4150 H   0  0  0  0  0  0  0  0  0  0  0  0
   38.4880   23.7210   35.8140 C   0  0  0  0  0  0  0  0  0  0  0  0
   39.6840   23.1000   36.1600 C   0  0  0  0  0  0  0  0  0  0  0  0
   39.9110   22.7880   37.5160 C   0  0  0  0  0  0  0  0  0  0  0  0
   38.9520   23.1110   38.4010 N   0  0  0  0  0  0  0  0  0  0  0  0
   37.7960   23.7150   38.0420 C   0  0  0  0  0  0  0  0  0  0  0  0
   37.5600   24.0220   36.7510 N   0  0  0  0  0  0  0  0  0  0  0  0
   40.3960   22.8760   35.4010 H   0  0  0  0  0  0  0  0  0  0  0  0
   40.8360   22.3040   37.8110 H   0  0  0  0  0  0  0  0  0  0  0  0
   37.0790   23.9360   38.8410 H   0  0  0  0  0  0  0  0  0  0  0  0
   37.4030   21.7900   33.6440 C   0  0  1  0  0  0  0  0  0  0  0  0
   36.3420   21.2990   34.5230 C   0  0  0  0  0  0  0  0  0  0  0  0
   36.0270   21.4820   33.0610 C   0  0  2  0  0  0  0  0  0  0  0  0
   38.2400   21.1150   33.3290 H   0  0  0  0  0  0  0  0  0  0  0  0
   36.4500   20.2830   34.9440 H   0  0  0  0  0  0  0  0  0  0  0  0
   35.9180   22.0220   35.2650 H   0  0  0  0  0  0  0  0  0  0  0  0
   35.3300   22.3260   32.8470 H   0  0  0  0  0  0  0  0  0  0  0  0
   35.8070   20.2540   32.3690 N   0  0  0  0  0  0  0  0  0  0  0  0
   35.6340   19.0910   33.1780 C   0  0  0  0  0  2  0  0  0  0  0  0
   35.3500   17.9520   32.1860 C   0  0  0  0  0  2  0  0  0  0  0  0
   36.3920   17.7900   31.2770 O   0  0  0  0  0  0  0  0  0  0  0  0
   36.5220   18.9510   30.5300 C   0  0  0  0  0  2  0  0  0  0  0  0
   36.9550   20.0320   31.5060 C   0  0  0  0  0  2  0  0  0  0  0  0
  1  8  1  0  0  0  0
  2  6  1  0  0  0  0
  2  1  2  0  0  0  0
  3  2  1  0  0  0  0
  4  3  2  0  0  0  0
  4  5  1  0  0  0  0
  5 17  1  0  0  0  0
  5  1  1  0  0  0  0
  7  4  1  0  0  0  0
  8  9  2  0  0  0  0
  8 13  1  0  0  0  0
  9 10  1  0  0  0  0
 10 15  1  0  0  0  0
 10 11  2  0  0  0  0
 12 11  1  0  0  0  0
 12 16  1  0  0  0  0
 13 12  2  0  0  0  0
 14  9  1  0  0  0  0
 17 20  1  6  0  0  0
 17 18  1  0  0  0  0
 18 21  1  0  0  0  0
 18 22  1  0  0  0  0
 19 23  1  6  0  0  0
 19 17  1  0  0  0  0
 19 18  1  0  0  0  0
 24 19  1  0  0  0  0
 24 25  1  0  0  0  0
 26 25  1  0  0  0  0
 27 26  1  0  0  0  0
 28 27  1  0  0  0  0
 28 29  1  0  0  0  0
 29 24  1  0  0  0  0
M  END
>  <minimizedAffinity>
-4.48642349

>  <minimizedRMSD>
1.03523529

$$$$
