
 OpenBabel03262519543D

 29 32  0  0  1  0  0  0  0  0999 V2000
   39.8980   25.1070   31.2470 C   0  0  0  0  0  0  0  0  0  0  0  0
   40.6220   25.7960   30.2770 C   0  0  0  0  0  0  0  0  0  0  0  0
   41.9240   25.4640   30.5510 N   0  0  0  0  0  0  0  0  0  0  0  0
   41.9220   24.6490   31.5980 C   0  0  0  0  0  0  0  0  0  0  0  0
   40.6750   24.4030   32.0590 N   0  0  0  0  0  0  0  0  0  0  0  0
   40.1650   26.4280   29.5190 H   0  0  0  0  0  0  0  0  0  0  0  0
   42.8520   24.2580   31.9900 H   0  0  0  0  0  0  0  0  0  0  0  0
   38.4470   25.1470   31.3650 C   0  0  0  0  0  0  0  0  0  0  0  0
   37.8140   26.1710   32.0540 C   0  0  0  0  0  0  0  0  0  0  0  0
   36.4060   26.1820   32.1510 C   0  0  0  0  0  0  0  0  0  0  0  0
   35.7460   25.1780   31.5560 N   0  0  0  0  0  0  0  0  0  0  0  0
   36.3800   24.1820   30.8850 C   0  0  0  0  0  0  0  0  0  0  0  0
   37.7180   24.1720   30.7930 N   0  0  0  0  0  0  0  0  0  0  0  0
   38.3860   26.9610   32.5200 H   0  0  0  0  0  0  0  0  0  0  0  0
   35.8830   26.9760   32.6890 H   0  0  0  0  0  0  0  0  0  0  0  0
   35.8610   23.3620   30.3960 H   0  0  0  0  0  0  0  0  0  0  0  0
   40.3860   23.5600   33.1770 C   0  0  1  0  0  0  0  0  0  0  0  0
   41.3860   23.2700   34.2150 C   0  0  0  0  0  0  0  0  0  0  0  0
   40.3490   24.3160   34.5050 C   0  0  2  0  0  0  0  0  0  0  0  0
   39.4790   22.9210   33.0040 H   0  0  0  0  0  0  0  0  0  0  0  0
   41.4630   22.3320   34.7560 H   0  0  0  0  0  0  0  0  0  0  0  0
   42.4100   23.6850   33.9730 H   0  0  0  0  0  0  0  0  0  0  0  0
   40.6530   25.3860   34.5220 H   0  0  0  0  0  0  0  0  0  0  0  0
   39.3760   23.9820   35.4790 N   0  0  1  0  0  0  0  0  0  0  0  0
   39.8780   23.2960   36.6530 C   0  0  0  0  0  2  0  0  0  0  0  0
   38.6310   23.2260   37.5040 C   0  0  0  0  0  2  0  0  0  0  0  0
   37.9530   24.5530   37.2640 C   0  0  0  0  0  2  0  0  0  0  0  0
   38.5820   25.0790   35.9850 C   0  0  0  0  0  3  0  0  0  0  0  0
   39.1690   25.9710   36.2710 H   0  0  0  0  0  0  0  0  0  0  0  0
  1  8  1  0  0  0  0
  1  5  1  0  0  0  0
  2  3  1  0  0  0  0
  2  1  2  0  0  0  0
  3  4  2  0  0  0  0
  4  7  1  0  0  0  0
  4  5  1  0  0  0  0
  5 17  1  0  0  0  0
  6  2  1  0  0  0  0
  8  9  1  0  0  0  0
  9 10  2  0  0  0  0
  9 14  1  0  0  0  0
 10 15  1  0  0  0  0
 11 10  1  0  0  0  0
 12 11  2  0  0  0  0
 13 12  1  0  0  0  0
 13  8  2  0  0  0  0
 16 12  1  0  0  0  0
 17 20  1  6  0  0  0
 17 18  1  0  0  0  0
 17 19  1  0  0  0  0
 18 19  1  0  0  0  0
 18 21  1  0  0  0  0
 19 23  1  6  0  0  0
 19 24  1  0  0  0  0
 22 18  1  0  0  0  0
 24 28  1  0  0  0  0
 24 25  1  1  0  0  0
 25 26  1  0  0  0  0
 27 26  1  0  0  0  0
 28 29  1  0  0  0  0
 28 27  1  0  0  0  0
M  END
>  <minimizedAffinity>
-3.48655963

>  <minimizedRMSD>
6.39174414

$$$$
