
 OpenBabel03262519553D

 29 32  0  0  1  0  0  0  0  0999 V2000
   38.1520   24.0690   34.7770 C   0  0  0  0  0  0  0  0  0  0  0  0
   38.2300   25.3340   34.2000 C   0  0  0  0  0  0  0  0  0  0  0  0
   37.8590   25.1170   32.8980 N   0  0  0  0  0  0  0  0  0  0  0  0
   37.5940   23.8240   32.7620 C   0  0  0  0  0  0  0  0  0  0  0  0
   37.7660   23.1380   33.9150 N   0  0  0  0  0  0  0  0  0  0  0  0
   38.5280   26.2270   34.7440 H   0  0  0  0  0  0  0  0  0  0  0  0
   37.2780   23.4270   31.8060 H   0  0  0  0  0  0  0  0  0  0  0  0
   38.4580   23.7870   36.1730 C   0  0  0  0  0  0  0  0  0  0  0  0
   39.6220   23.1210   36.5290 C   0  0  0  0  0  0  0  0  0  0  0  0
   39.8900   22.8630   37.8910 C   0  0  0  0  0  0  0  0  0  0  0  0
   38.9830   23.2870   38.7820 N   0  0  0  0  0  0  0  0  0  0  0  0
   37.8480   23.9370   38.4180 C   0  0  0  0  0  0  0  0  0  0  0  0
   37.5930   24.1830   37.1240 N   0  0  0  0  0  0  0  0  0  0  0  0
   40.3260   22.7960   35.7770 H   0  0  0  0  0  0  0  0  0  0  0  0
   40.7990   22.3400   38.1980 H   0  0  0  0  0  0  0  0  0  0  0  0
   37.1020   24.2890   39.1270 H   0  0  0  0  0  0  0  0  0  0  0  0
   37.5500   21.7310   34.0490 C   0  0  1  0  0  0  0  0  0  0  0  0
   36.3210   21.1840   34.6440 C   0  0  0  0  0  0  0  0  0  0  0  0
   36.4320   21.2080   33.1470 C   0  0  2  0  0  0  0  0  0  0  0  0
   38.5030   21.1440   33.9600 H   0  0  0  0  0  0  0  0  0  0  0  0
   36.2710   20.2710   35.2290 H   0  0  0  0  0  0  0  0  0  0  0  0
   35.6430   21.9800   35.0730 H   0  0  0  0  0  0  0  0  0  0  0  0
   35.8180   21.9380   32.5730 H   0  0  0  0  0  0  0  0  0  0  0  0
   36.5720   19.9520   32.5070 N   0  0  1  0  0  0  0  0  0  0  0  0
   35.5150   18.9940   32.7710 C   0  0  0  0  0  2  0  0  0  0  0  0
   35.9100   17.8650   31.8480 C   0  0  0  0  0  2  0  0  0  0  0  0
   36.4160   18.5660   30.6120 C   0  0  0  0  0  2  0  0  0  0  0  0
   36.7090   19.9840   31.0670 C   0  0  0  0  0  3  0  0  0  0  0  0
   35.9760   20.6330   30.5550 H   0  0  0  0  0  0  0  0  0  0  0  0
  1  8  1  0  0  0  0
  2  6  1  0  0  0  0
  2  1  2  0  0  0  0
  3  2  1  0  0  0  0
  4  3  2  0  0  0  0
  4  5  1  0  0  0  0
  5 17  1  0  0  0  0
  5  1  1  0  0  0  0
  7  4  1  0  0  0  0
  8  9  2  0  0  0  0
  8 13  1  0  0  0  0
  9 10  1  0  0  0  0
 10 15  1  0  0  0  0
 10 11  2  0  0  0  0
 12 11  1  0  0  0  0
 12 16  1  0  0  0  0
 13 12  2  0  0  0  0
 14  9  1  0  0  0  0
 17 20  1  1  0  0  0
 17 18  1  0  0  0  0
 18 22  1  0  0  0  0
 18 21  1  0  0  0  0
 19 23  1  6  0  0  0
 19 17  1  0  0  0  0
 19 18  1  0  0  0  0
 24 25  1  6  0  0  0
 24 19  1  0  0  0  0
 26 25  1  0  0  0  0
 27 28  1  0  0  0  0
 27 26  1  0  0  0  0
 28 24  1  0  0  0  0
 29 28  1  0  0  0  0
M  END
>  <minimizedAffinity>
-4.6597662

>  <minimizedRMSD>
1.09044313

$$$$
