
 OpenBabel03262519513D

 24 25  0  0  0  0  0  0  0  0999 V2000
   41.2450   24.1690   35.2700 C   0  0  0  0  0  0  0  0  0  0  0  0
   40.0540   24.9520   35.3830 C   0  0  0  0  0  0  0  0  0  0  0  0
   40.3090   26.1830   34.8910 C   0  0  0  0  0  0  0  0  0  0  0  0
   41.5080   26.6040   34.3730 N   0  0  0  0  0  0  0  0  0  0  0  0
   42.5690   25.7910   34.3100 C   0  0  0  0  0  0  0  0  0  0  0  0
   42.4270   24.5600   34.7660 N   0  0  0  0  0  0  0  0  0  0  0  0
   41.3140   23.1070   35.6010 H   0  0  0  0  0  0  0  0  0  0  0  0
   43.4690   26.1930   33.8900 H   0  0  0  0  0  0  0  0  0  0  0  0
   38.9380   24.2900   35.9540 C   0  0  0  0  0  0  0  0  0  0  0  0
   38.2990   25.1220   36.9410 F   0  0  0  0  0  0  0  0  0  0  0  0
   39.0690   23.2930   36.8300 F   0  0  0  0  0  0  0  0  0  0  0  0
   37.7480   24.2640   35.1770 F   0  0  0  0  0  0  0  0  0  0  0  0
   39.1740   27.0320   34.9340 C   0  0  0  0  0  0  0  0  0  0  0  0
   39.3020   28.0320   35.4410 H   0  0  0  0  0  0  0  0  0  0  0  0
   38.4580   26.5440   35.6810 H   0  0  0  0  0  0  0  0  0  0  0  0
   38.4530   27.2230   33.7190 C   0  0  0  0  0  0  0  0  0  0  0  0
   38.7870   26.4380   32.9610 H   0  0  0  0  0  0  0  0  0  0  0  0
   38.6930   28.1710   33.2030 H   0  0  0  0  0  0  0  0  0  0  0  0
   37.0240   27.0780   33.7370 N   0  0  0  0  0  0  0  0  0  0  0  0
   36.6700   26.3330   32.5390 C   0  0  0  0  0  0  0  0  0  0  0  0
   36.2490   27.3600   31.5140 C   0  0  0  0  0  0  0  0  0  0  0  0
   36.5270   28.6810   32.1990 C   0  0  0  0  0  0  0  0  0  0  0  0
   36.2730   28.2800   33.6350 C   0  0  0  0  0  0  0  0  0  0  0  0
   35.2050   28.0370   33.7150 H   0  0  0  0  0  0  0  0  0  0  0  0
  1  2  1  0  0  0  0
  1  7  1  0  0  0  0
  2  9  1  0  0  0  0
  3 13  1  0  0  0  0
  3  2  2  0  0  0  0
  4  3  1  0  0  0  0
  5  4  2  0  0  0  0
  5  6  1  0  0  0  0
  6  1  2  0  0  0  0
  8  5  1  0  0  0  0
  9 11  1  0  0  0  0
  9 10  1  0  0  0  0
 12  9  1  0  0  0  0
 13 14  1  0  0  0  0
 13 15  1  0  0  0  0
 16 19  1  0  0  0  0
 16 13  1  0  0  0  0
 17 16  1  0  0  0  0
 18 16  1  0  0  0  0
 20 19  1  0  0  0  0
 21 22  1  0  0  0  0
 21 20  1  0  0  0  0
 22 23  1  0  0  0  0
 23 24  1  0  0  0  0
 23 19  1  0  0  0  0
M  END
>  <minimizedAffinity>
-3.75760818

>  <minimizedRMSD>
4.10074759

$$$$
