
 OpenBabel03262518373D

 44 46  0  0  0  0  0  0  0  0999 V2000
   37.1690   26.6390   34.2770 C   0  0  0  0  0  0  0  0  0  0  0  0
   37.2210   25.6570   33.2950 C   0  0  0  0  0  0  0  0  0  0  0  0
   36.6130   25.9320   32.0570 C   0  0  0  0  0  0  0  0  0  0  0  0
   36.0160   27.1370   31.9060 N   0  0  0  0  0  0  0  0  0  0  0  0
   35.9780   28.0690   32.8680 C   0  0  0  0  0  0  0  0  0  0  0  0
   36.5570   27.8350   34.0800 N   0  0  0  0  0  0  0  0  0  0  0  0
   37.7010   24.7060   33.4350 H   0  0  0  0  0  0  0  0  0  0  0  0
   36.6070   25.2320   31.2470 H   0  0  0  0  0  0  0  0  0  0  0  0
   37.8030   26.3550   35.5720 C   0  0  0  0  0  0  0  0  0  0  0  0
   38.6490   27.1540   36.0370 O   0  0  0  0  0  0  0  0  0  0  0  0
   37.4580   25.2120   36.2550 O   0  0  0  0  0  0  0  0  0  0  0  0
   39.3510   22.9020   38.1390 N   0  0  0  0  0  0  0  0  0  0  0  0
   38.3100   23.7050   37.9250 N   0  0  0  0  0  0  0  0  0  0  0  0
   38.4400   24.3070   36.7170 C   0  0  0  0  0  0  0  0  0  0  0  0
   39.5990   23.8710   36.1480 C   0  0  0  0  0  0  0  0  0  0  0  0
   40.1360   23.0020   37.0600 C   0  0  0  0  0  0  0  0  0  0  0  0
   39.5480   22.3010   38.9670 H   0  0  0  0  0  0  0  0  0  0  0  0
   39.9510   24.1950   35.1770 H   0  0  0  0  0  0  0  0  0  0  0  0
   41.4190   22.2760   36.8610 C   0  0  0  0  0  0  0  0  0  0  0  0
   42.4640   22.9160   36.2110 C   0  0  0  0  0  0  0  0  0  0  0  0
   43.6110   22.1800   36.0670 C   0  0  0  0  0  0  0  0  0  0  0  0
   43.7930   20.9070   36.5030 N   0  0  0  0  0  0  0  0  0  0  0  0
   42.7340   20.3250   37.1350 C   0  0  0  0  0  0  0  0  0  0  0  0
   41.5930   21.0130   37.2950 N   0  0  0  0  0  0  0  0  0  0  0  0
   42.3940   23.9280   35.8360 H   0  0  0  0  0  0  0  0  0  0  0  0
   44.4420   22.6650   35.5600 H   0  0  0  0  0  0  0  0  0  0  0  0
   42.8470   19.2960   37.4990 H   0  0  0  0  0  0  0  0  0  0  0  0
   35.3020   29.3610   32.6140 C   0  0  0  0  0  0  0  0  0  0  0  0
   35.8650   30.3720   33.5800 C   0  0  0  0  0  0  0  0  0  0  0  0
   36.8410   30.7730   33.2680 H   0  0  0  0  0  0  0  0  0  0  0  0
   35.0860   31.1640   33.7230 H   0  0  0  0  0  0  0  0  0  0  0  0
   35.9150   29.8640   34.5830 H   0  0  0  0  0  0  0  0  0  0  0  0
   33.8340   29.1540   32.8910 C   0  0  0  0  0  0  0  0  0  0  0  0
   33.3120   30.0700   33.2330 H   0  0  0  0  0  0  0  0  0  0  0  0
   33.7070   28.3440   33.6440 H   0  0  0  0  0  0  0  0  0  0  0  0
   33.3410   28.7720   31.9560 H   0  0  0  0  0  0  0  0  0  0  0  0
   35.5120   29.8170   31.1700 C   0  0  0  0  0  0  0  0  0  0  0  0
   35.1550   29.0830   30.4400 H   0  0  0  0  0  0  0  0  0  0  0  0
   35.0180   30.8050   31.0960 H   0  0  0  0  0  0  0  0  0  0  0  0
   36.8770   30.0660   31.0400 O   0  0  0  0  0  0  0  0  0  0  0  0
   37.3610   29.8480   29.7680 C   0  0  0  0  0  0  0  0  0  0  0  0
   36.8550   28.6740   29.2630 F   0  0  0  0  0  0  0  0  0  0  0  0
   36.8560   30.8650   28.9700 F   0  0  0  0  0  0  0  0  0  0  0  0
   38.7500   29.9000   29.7290 F   0  0  0  0  0  0  0  0  0  0  0  0
  1  9  1  0  0  0  0
  2  7  1  0  0  0  0
  2  1  2  0  0  0  0
  3  2  1  0  0  0  0
  4  3  2  0  0  0  0
  4  5  1  0  0  0  0
  5  6  2  0  0  0  0
  6  1  1  0  0  0  0
  8  3  1  0  0  0  0
  9 10  2  0  0  0  0
  9 11  1  0  0  0  0
 11 14  1  0  0  0  0
 12 17  1  0  0  0  0
 13 12  1  0  0  0  0
 14 13  2  0  0  0  0
 15 14  1  0  0  0  0
 15 16  2  0  0  0  0
 16 12  1  0  0  0  0
 18 15  1  0  0  0  0
 19 16  1  0  0  0  0
 19 24  1  0  0  0  0
 20 19  2  0  0  0  0
 21 20  1  0  0  0  0
 21 22  2  0  0  0  0
 22 23  1  0  0  0  0
 23 24  2  0  0  0  0
 23 27  1  0  0  0  0
 25 20  1  0  0  0  0
 26 21  1  0  0  0  0
 28  5  1  0  0  0  0
 28 33  1  0  0  0  0
 28 29  1  0  0  0  0
 29 31  1  0  0  0  0
 29 32  1  0  0  0  0
 30 29  1  0  0  0  0
 33 34  1  0  0  0  0
 33 35  1  0  0  0  0
 36 33  1  0  0  0  0
 37 28  1  0  0  0  0
 38 37  1  0  0  0  0
 39 37  1  0  0  0  0
 40 37  1  0  0  0  0
 41 40  1  0  0  0  0
 42 41  1  0  0  0  0
 43 41  1  0  0  0  0
 44 41  1  0  0  0  0
M  END
>  <minimizedAffinity>
-5.4773922

>  <minimizedRMSD>
0.379644126

$$$$
