REMARK  Name = 
REMARK  3 active torsions:
REMARK  status: ('A' for Active; 'I' for Inactive)
REMARK    1  A    between atoms: C_1  and  C_6
REMARK    2  A    between atoms: N_5  and  C_12
REMARK    3  A    between atoms: C_14  and  N_24
REMARK                            x       y       z     vdW  Elec       q    Type
REMARK                         _______ _______ _______ _____ _____    ______ ____
ROOT
ATOM      1  C   UNL     1      38.027  23.466  34.617  0.00  0.00    +0.000 A 
ATOM      2  C   UNL     1      38.262  24.571  33.802  0.00  0.00    +0.000 A 
ATOM      3  N   UNL     1      37.764  24.185  32.584  0.00  0.00    +0.000 NA
ATOM      4  C   UNL     1      37.287  22.953  32.714  0.00  0.00    +0.000 A 
ATOM      5  N   UNL     1      37.434  22.472  33.969  0.00  0.00    +0.000 N 
ATOM      6  H   UNL     1      38.739  25.485  34.149  0.00  0.00    +0.000 HD
ATOM      7  H   UNL     1      36.841  22.447  31.868  0.00  0.00    +0.000 HD
ENDROOT
BRANCH   1   8
ATOM      8  C   UNL     1      38.389  23.398  36.026  0.00  0.00    +0.000 A 
ATOM      9  C   UNL     1      39.579  22.811  36.431  0.00  0.00    +0.000 A 
ATOM     10  C   UNL     1      39.901  22.761  37.804  0.00  0.00    +0.000 A 
ATOM     11  N   UNL     1      39.017  23.297  38.658  0.00  0.00    +0.000 NA
ATOM     12  C   UNL     1      37.856  23.868  38.246  0.00  0.00    +0.000 A 
ATOM     13  N   UNL     1      37.550  23.916  36.941  0.00  0.00    +0.000 NA
ATOM     14  H   UNL     1      40.263  22.390  35.708  0.00  0.00    +0.000 HD
ATOM     15  H   UNL     1      40.831  22.304  38.150  0.00  0.00    +0.000 HD
ATOM     16  H   UNL     1      37.129  24.308  38.924  0.00  0.00    +0.000 HD
ENDBRANCH   1   8
BRANCH   5  17
ATOM     17  C   UNL     1      37.007  21.172  34.383  0.00  0.00    +0.000 C 
ATOM     18  C   UNL     1      35.838  20.975  35.253  0.00  0.00    +0.000 C 
ATOM     19  C   UNL     1      35.665  20.761  33.777  0.00  0.00    +0.000 C 
ATOM     20  H   UNL     1      37.810  20.398  34.250  0.00  0.00    +0.000 HD
ATOM     21  H   UNL     1      35.742  20.185  35.991  0.00  0.00    +0.000 HD
ATOM     22  H   UNL     1      35.401  21.945  35.636  0.00  0.00    +0.000 HD
ATOM     23  H   UNL     1      35.090  21.509  33.188  0.00  0.00    +0.000 HD
BRANCH  19  24
ATOM     24  N   UNL     1      35.462  19.423  33.356  0.00  0.00    +0.000 NA
ATOM     25  C   UNL     1      34.802  19.265  32.075  0.00  0.00    +0.000 C 
ATOM     26  C   UNL     1      34.878  17.766  31.893  0.00  0.00    +0.000 C 
ATOM     27  C   UNL     1      36.241  17.405  32.430  0.00  0.00    +0.000 C 
ATOM     28  C   UNL     1      36.646  18.595  33.283  0.00  0.00    +0.000 C 
ATOM     29  H   UNL     1      37.501  19.069  32.768  0.00  0.00    +0.000 HD
ENDBRANCH  19  24
ENDBRANCH   5  17
TORSDOF 3
