
 OpenBabel03262519543D

 29 32  0  0  1  0  0  0  0  0999 V2000
   36.7980   24.8910   31.8440 C   0  0  0  0  0  0  0  0  0  0  0  0
   35.9870   24.0810   31.0530 C   0  0  0  0  0  0  0  0  0  0  0  0
   36.1650   22.8290   31.5830 N   0  0  0  0  0  0  0  0  0  0  0  0
   37.0150   22.9370   32.5970 C   0  0  0  0  0  0  0  0  0  0  0  0
   37.4320   24.2090   32.7890 N   0  0  0  0  0  0  0  0  0  0  0  0
   35.3870   24.4540   30.2250 H   0  0  0  0  0  0  0  0  0  0  0  0
   37.3010   22.0620   33.1660 H   0  0  0  0  0  0  0  0  0  0  0  0
   36.9440   26.3280   31.6620 C   0  0  0  0  0  0  0  0  0  0  0  0
   37.9480   26.8500   30.8590 C   0  0  0  0  0  0  0  0  0  0  0  0
   38.0620   28.2480   30.7040 C   0  0  0  0  0  0  0  0  0  0  0  0
   37.1720   29.0090   31.3560 N   0  0  0  0  0  0  0  0  0  0  0  0
   36.1940   28.4840   32.1390 C   0  0  0  0  0  0  0  0  0  0  0  0
   36.0850   27.1550   32.2860 N   0  0  0  0  0  0  0  0  0  0  0  0
   38.6450   26.1990   30.3520 H   0  0  0  0  0  0  0  0  0  0  0  0
   38.8440   28.6850   30.0780 H   0  0  0  0  0  0  0  0  0  0  0  0
   35.4640   29.0860   32.6730 H   0  0  0  0  0  0  0  0  0  0  0  0
   38.3480   24.6050   33.8120 C   0  0  1  0  0  0  0  0  0  0  0  0
   37.9250   25.4020   34.9720 C   0  0  0  0  0  0  0  0  0  0  0  0
   38.0830   23.9200   35.1520 C   0  0  2  0  0  0  0  0  0  0  0  0
   39.4180   24.5280   33.4780 H   0  0  0  0  0  0  0  0  0  0  0  0
   38.5440   26.1390   35.4760 H   0  0  0  0  0  0  0  0  0  0  0  0
   36.8520   25.7510   34.9040 H   0  0  0  0  0  0  0  0  0  0  0  0
   37.1720   23.2910   35.2630 H   0  0  0  0  0  0  0  0  0  0  0  0
   39.1710   23.4970   35.9560 N   0  0  1  0  0  0  0  0  0  0  0  0
   38.8890   23.3720   37.3730 C   0  0  0  0  0  2  0  0  0  0  0  0
   40.1880   22.7880   37.8770 C   0  0  0  0  0  2  0  0  0  0  0  0
   40.5980   21.8230   36.7910 C   0  0  0  0  0  2  0  0  0  0  0  0
   39.7920   22.2480   35.5760 C   0  0  0  0  0  3  0  0  0  0  0  0
   39.0770   21.4280   35.3750 H   0  0  0  0  0  0  0  0  0  0  0  0
  1  5  1  0  0  0  0
  2  3  1  0  0  0  0
  2  1  2  0  0  0  0
  3  4  2  0  0  0  0
  4  5  1  0  0  0  0
  4  7  1  0  0  0  0
  5 17  1  0  0  0  0
  6  2  1  0  0  0  0
  8  1  1  0  0  0  0
  8 13  1  0  0  0  0
  9  8  2  0  0  0  0
 10  9  1  0  0  0  0
 10 11  2  0  0  0  0
 11 12  1  0  0  0  0
 12 13  2  0  0  0  0
 12 16  1  0  0  0  0
 14  9  1  0  0  0  0
 15 10  1  0  0  0  0
 17 20  1  6  0  0  0
 17 18  1  0  0  0  0
 17 19  1  0  0  0  0
 18 19  1  0  0  0  0
 18 21  1  0  0  0  0
 19 23  1  1  0  0  0
 19 24  1  0  0  0  0
 22 18  1  0  0  0  0
 24 25  1  1  0  0  0
 25 26  1  0  0  0  0
 27 26  1  0  0  0  0
 28 24  1  0  0  0  0
 28 27  1  0  0  0  0
 29 28  1  0  0  0  0
M  END
>  <minimizedAffinity>
-4.37316036

>  <minimizedRMSD>
6.05263376

$$$$
