
     RDKit          3D

 36 39  0  0  0  0  0  0  0  0999 V2000
   38.0271   23.4658   34.6169 C   0  0  0  0  0  0  0  0  0  0  0  0
   38.2617   24.5711   33.8020 C   0  0  0  0  0  0  0  0  0  0  0  0
   37.7635   24.1847   32.5844 N   0  0  0  0  0  0  0  0  0  0  0  0
   37.2867   22.9534   32.7144 C   0  0  0  0  0  0  0  0  0  0  0  0
   37.4339   22.4722   33.9689 N   0  0  0  0  0  0  0  0  0  0  0  0
   38.3892   23.3980   36.0258 C   0  0  0  0  0  0  0  0  0  0  0  0
   39.5787   22.8106   36.4311 C   0  0  0  0  0  0  0  0  0  0  0  0
   39.9008   22.7605   37.8036 C   0  0  0  0  0  0  0  0  0  0  0  0
   39.0167   23.2967   38.6578 N   0  0  0  0  0  0  0  0  0  0  0  0
   37.8562   23.8683   38.2459 C   0  0  0  0  0  0  0  0  0  0  0  0
   37.5505   23.9156   36.9407 N   0  0  0  0  0  0  0  0  0  0  0  0
   37.0071   21.1722   34.3827 C   0  0  1  0  0  0  0  0  0  0  0  0
   35.8380   20.9747   35.2533 C   0  0  0  0  0  0  0  0  0  0  0  0
   35.6649   20.7610   33.7767 C   0  0  2  0  0  0  0  0  0  0  0  0
   38.7386   25.4855   34.1491 H   0  0  0  0  0  0  0  0  0  0  0  0
   36.8412   22.4467   31.8679 H   0  0  0  0  0  0  0  0  0  0  0  0
   40.2629   22.3904   35.7083 H   0  0  0  0  0  0  0  0  0  0  0  0
   40.8309   22.3038   38.1496 H   0  0  0  0  0  0  0  0  0  0  0  0
   37.1285   24.3075   38.9239 H   0  0  0  0  0  0  0  0  0  0  0  0
   37.8099   20.3983   34.2497 H   0  0  0  0  0  0  0  0  0  0  0  0
   35.7423   20.1848   35.9906 H   0  0  0  0  0  0  0  0  0  0  0  0
   35.4007   21.9455   35.6362 H   0  0  0  0  0  0  0  0  0  0  0  0
   35.0901   21.5092   33.1875 H   0  0  0  0  0  0  0  0  0  0  0  0
   35.4624   19.4229   33.3559 N   0  0  0  0  0  0  0  0  0  0  0  0
   35.1220   19.2533   31.9571 C   0  0  0  0  0  0  0  0  0  0  0  0
   35.1185   17.7466   31.8400 C   0  0  0  0  0  0  0  0  0  0  0  0
   36.2758   17.3130   32.7056 C   0  0  0  0  0  0  0  0  0  0  0  0
   36.5566   18.5094   33.5985 C   0  0  1  0  0  0  0  0  0  0  0  0
   37.5471   18.8961   33.2969 H   0  0  0  0  0  0  0  0  0  0  0  0
   34.1488   19.6741   31.7046 H   0  0  0  0  0  0  0  0  0  0  0  0
   35.9684   19.6307   31.3697 H   0  0  0  0  0  0  0  0  0  0  0  0
   35.2307   17.4169   30.7705 H   0  0  0  0  0  0  0  0  0  0  0  0
   34.2004   17.2958   32.2682 H   0  0  0  0  0  0  0  0  0  0  0  0
   36.0266   16.4263   33.3223 H   0  0  0  0  0  0  0  0  0  0  0  0
   37.1178   17.0994   32.0353 H   0  0  0  0  0  0  0  0  0  0  0  0
   36.6180   18.2500   34.6712 H   0  0  0  0  0  0  0  0  0  0  0  0
  1  6  1  0
  2  1  2  0
  3  4  2  0
  3  2  1  0
  4  5  1  0
  5 12  1  0
  5  1  1  0
  6  7  2  0
  6 11  1  0
  7  8  1  0
  8  9  2  0
 10  9  1  0
 11 10  2  0
 12 13  1  0
 14 12  1  0
 14 13  1  0
  2 15  1  0
  4 16  1  0
  7 17  1  0
  8 18  1  0
 10 19  1  0
 12 20  1  1
 13 21  1  0
 13 22  1  0
 14 23  1  6
 24 25  1  0
 25 26  1  0
 26 27  1  0
 27 28  1  0
 28 29  1  6
 28 24  1  0
 25 30  1  0
 25 31  1  0
 26 32  1  0
 26 33  1  0
 27 34  1  0
 27 35  1  0
 28 36  1  0
 14 24  1  0
M  ISO  8  15  14  16  14  17  14  18  14  19  14  20  13  21  13  22  13
M  ISO  2  23  13  29  13
M  END
>  <DihAtoms>  (1) 
11,13,23,24

>  <DihDeg>  (1) 
-61.2290571682134

$$$$
