
 OpenBabel03262517263D

 48 51  0  0  0  0  0  0  0  0999 V2000
   37.7380   26.6250   31.3710 N   0  0  0  0  0  0  0  0  0  0  0  0
   36.4980   27.1220   31.0830 C   0  0  0  0  0  0  0  0  0  0  0  0
   36.6930   28.1540   30.1670 C   0  0  0  0  0  0  0  0  0  0  0  0
   38.0040   28.2570   29.9270 N   0  0  0  0  0  0  0  0  0  0  0  0
   38.6760   27.3150   30.6650 C   0  0  0  0  0  0  0  0  0  0  0  0
   35.6720   26.6600   31.5780 H   0  0  0  0  0  0  0  0  0  0  0  0
   35.8000   28.6480   29.8420 H   0  0  0  0  0  0  0  0  0  0  0  0
   38.7480   24.3040   33.8840 N   0  0  0  0  0  0  0  0  0  0  0  0
   38.8670   23.6070   32.7530 N   0  0  0  0  0  0  0  0  0  0  0  0
   38.5210   24.3500   31.6990 C   0  0  0  0  0  0  0  0  0  0  0  0
   38.1670   25.5880   32.2210 C   0  0  0  0  0  0  0  0  0  0  0  0
   38.3080   25.5720   33.6150 C   0  0  0  0  0  0  0  0  0  0  0  0
   38.5480   23.9700   30.6930 H   0  0  0  0  0  0  0  0  0  0  0  0
   37.9880   23.6190   36.0860 C   0  0  0  0  0  0  0  0  0  0  0  0
   39.0370   23.8090   35.1810 C   0  0  0  0  0  0  0  0  0  0  0  0
   40.3450   23.5160   35.5470 C   0  0  0  0  0  0  0  0  0  0  0  0
   40.5250   23.0440   36.8170 N   0  0  0  0  0  0  0  0  0  0  0  0
   39.5290   22.8630   37.6820 C   0  0  0  0  0  0  0  0  0  0  0  0
   38.2430   23.1510   37.3180 N   0  0  0  0  0  0  0  0  0  0  0  0
   36.9760   23.8510   35.7820 H   0  0  0  0  0  0  0  0  0  0  0  0
   41.1610   23.6620   34.8490 H   0  0  0  0  0  0  0  0  0  0  0  0
   39.8520   22.4840   38.6390 H   0  0  0  0  0  0  0  0  0  0  0  0
   38.0430   26.6500   34.4680 N   0  0  0  0  0  0  0  0  0  0  0  0
   39.0030   27.1270   35.4150 C   0  0  0  0  0  0  0  0  0  0  0  0
   40.2680   27.0960   35.0120 N   0  0  0  0  0  0  0  0  0  0  0  0
   38.5290   27.5830   36.6770 N   0  0  0  0  0  0  0  0  0  0  0  0
   40.9370   27.4720   35.7130 H   0  0  0  0  0  0  0  0  0  0  0  0
   37.1030   27.1070   34.3910 H   0  0  0  0  0  0  0  0  0  0  0  0
   38.9700   27.1180   37.5020 H   0  0  0  0  0  0  0  0  0  0  0  0
   37.8110   28.3120   36.8150 H   0  0  0  0  0  0  0  0  0  0  0  0
   40.1640   27.2880   30.5140 C   0  0  0  0  0  0  0  0  0  0  0  0
   40.5820   26.1660   29.5500 C   0  0  0  0  0  0  0  0  0  0  0  0
   41.1730   25.3770   30.0510 H   0  0  0  0  0  0  0  0  0  0  0  0
   41.1490   26.4920   28.6890 H   0  0  0  0  0  0  0  0  0  0  0  0
   39.6430   25.7380   29.1380 H   0  0  0  0  0  0  0  0  0  0  0  0
   40.9330   27.0710   31.7430 C   0  0  0  0  0  0  0  0  0  0  0  0
   40.6500   26.1000   32.1990 H   0  0  0  0  0  0  0  0  0  0  0  0
   40.8120   27.9300   32.4270 H   0  0  0  0  0  0  0  0  0  0  0  0
   42.0110   27.0410   31.4570 H   0  0  0  0  0  0  0  0  0  0  0  0
   40.5250   28.5580   29.7610 C   0  0  0  0  0  0  0  0  0  0  0  0
   39.8520   28.7000   28.8810 H   0  0  0  0  0  0  0  0  0  0  0  0
   40.2430   29.4360   30.4280 H   0  0  0  0  0  0  0  0  0  0  0  0
   41.8390   28.7310   29.3240 N   0  0  0  0  0  0  0  0  0  0  0  0
   42.7950   29.4030   30.0980 C   0  0  0  0  0  0  0  0  0  0  0  0
   43.4330   30.3850   29.0760 C   0  0  0  0  0  0  0  0  0  0  0  0
   43.3700   29.5650   27.7810 C   0  0  0  0  0  0  0  0  0  0  0  0
   41.9960   28.9640   27.9230 C   0  0  0  0  0  0  0  0  0  0  0  0
   41.9880   27.9690   27.4040 H   0  0  0  0  0  0  0  0  0  0  0  0
  1 11  1  0  0  0  0
  2  1  1  0  0  0  0
  2  6  1  0  0  0  0
  3  2  2  0  0  0  0
  4  3  1  0  0  0  0
  4  5  2  0  0  0  0
  5  1  1  0  0  0  0
  7  3  1  0  0  0  0
  8 15  1  0  0  0  0
  9  8  1  0  0  0  0
 10 11  1  0  0  0  0
 10  9  2  0  0  0  0
 11 12  2  0  0  0  0
 12  8  1  0  0  0  0
 12 23  1  0  0  0  0
 13 10  1  0  0  0  0
 14 19  1  0  0  0  0
 15 16  1  0  0  0  0
 15 14  2  0  0  0  0
 16 17  2  0  0  0  0
 17 18  1  0  0  0  0
 18 22  1  0  0  0  0
 19 18  2  0  0  0  0
 20 14  1  0  0  0  0
 21 16  1  0  0  0  0
 23 24  1  0  0  0  0
 24 26  1  0  0  0  0
 25 24  2  0  0  0  0
 25 27  1  0  0  0  0
 26 30  1  0  0  0  0
 26 29  1  0  0  0  0
 28 23  1  0  0  0  0
 31  5  1  0  0  0  0
 31 36  1  0  0  0  0
 32 33  1  0  0  0  0
 32 31  1  0  0  0  0
 34 32  1  0  0  0  0
 35 32  1  0  0  0  0
 36 37  1  0  0  0  0
 36 38  1  0  0  0  0
 39 36  1  0  0  0  0
 40 42  1  0  0  0  0
 40 31  1  0  0  0  0
 41 40  1  0  0  0  0
 43 40  1  0  0  0  0
 43 44  1  0  0  0  0
 45 44  1  0  0  0  0
 46 47  1  0  0  0  0
 46 45  1  0  0  0  0
 47 43  1  0  0  0  0
 48 47  1  0  0  0  0
M  END
>  <minimizedAffinity>
-4.76590967

>  <minimizedRMSD>
0.232902765

$$$$
