
 OpenBabel03262517363D

 28 30  0  0  0  0  0  0  0  0999 V2000
   37.9400   26.5960   34.2250 C   0  0  0  0  0  0  0  0  0  0  0  0
   39.2370   26.1850   33.8910 C   0  0  0  0  0  0  0  0  0  0  0  0
   39.8560   25.2730   34.7240 C   0  0  0  0  0  0  0  0  0  0  0  0
   39.1940   24.8130   35.8240 N   0  0  0  0  0  0  0  0  0  0  0  0
   37.9480   25.2320   36.1130 C   0  0  0  0  0  0  0  0  0  0  0  0
   37.3180   26.1220   35.3190 N   0  0  0  0  0  0  0  0  0  0  0  0
   41.1610   24.7290   34.5590 N   0  0  0  0  0  0  0  0  0  0  0  0
   42.3770   25.2910   35.1030 C   0  0  0  0  0  0  0  0  0  0  0  0
   43.3170   25.6310   33.9690 C   0  0  0  0  0  0  0  0  0  0  0  0
   42.8800   25.0340   32.7770 O   0  0  0  0  0  0  0  0  0  0  0  0
   42.6870   23.6630   32.9770 C   0  0  0  0  0  0  0  0  0  0  0  0
   41.4280   23.5080   33.7970 C   0  0  0  0  0  0  0  0  0  0  0  0
   39.7900   26.5120   33.0510 H   0  0  0  0  0  0  0  0  0  0  0  0
   37.3910   24.8910   36.9750 H   0  0  0  0  0  0  0  0  0  0  0  0
   42.8360   24.5820   35.8420 H   0  0  0  0  0  0  0  0  0  0  0  0
   42.1330   26.2030   35.7000 H   0  0  0  0  0  0  0  0  0  0  0  0
   43.4690   26.6970   33.8140 H   0  0  0  0  0  0  0  0  0  0  0  0
   44.3070   25.1900   34.2420 H   0  0  0  0  0  0  0  0  0  0  0  0
   43.5170   23.2480   33.6110 H   0  0  0  0  0  0  0  0  0  0  0  0
   42.6760   23.1210   32.0220 H   0  0  0  0  0  0  0  0  0  0  0  0
   41.4240   22.6320   34.4580 H   0  0  0  0  0  0  0  0  0  0  0  0
   40.5900   23.3730   33.0590 H   0  0  0  0  0  0  0  0  0  0  0  0
   37.3030   27.5350   33.3670 N   0  0  0  0  0  0  0  0  0  0  0  0
   37.6730   27.7860   31.9890 C   0  0  0  0  0  0  0  0  0  0  0  0
   36.8440   28.9460   31.5490 C   0  0  0  0  0  0  0  0  0  0  0  0
   35.5980   28.8240   32.3900 C   0  0  0  0  0  0  0  0  0  0  0  0
   36.1870   28.3930   33.7150 C   0  0  0  0  0  0  0  0  0  0  0  0
   35.4950   27.8210   34.3420 H   0  0  0  0  0  0  0  0  0  0  0  0
  1  6  1  0  0  0  0
  2  1  2  0  0  0  0
  2  3  1  0  0  0  0
  3  4  2  0  0  0  0
  4  5  1  0  0  0  0
  5 14  1  0  0  0  0
  6  5  2  0  0  0  0
  7  3  1  0  0  0  0
  7  8  1  0  0  0  0
  8 16  1  0  0  0  0
  8 15  1  0  0  0  0
  9 18  1  0  0  0  0
  9  8  1  0  0  0  0
 10 11  1  0  0  0  0
 10  9  1  0  0  0  0
 11 19  1  0  0  0  0
 11 12  1  0  0  0  0
 12 21  1  0  0  0  0
 12  7  1  0  0  0  0
 13  2  1  0  0  0  0
 17  9  1  0  0  0  0
 20 11  1  0  0  0  0
 22 12  1  0  0  0  0
 23 27  1  0  0  0  0
 23  1  1  0  0  0  0
 24 23  1  0  0  0  0
 25 24  1  0  0  0  0
 25 26  1  0  0  0  0
 26 27  1  0  0  0  0
 27 28  1  0  0  0  0
M  END
>  <minimizedAffinity>
-3.54445505

>  <minimizedRMSD>
6.5828886

$$$$
