
 OpenBabel03262519543D

 31 33  0  0  1  0  0  0  0  0999 V2000
   38.0500   23.7710   34.4650 C   0  0  0  0  0  0  0  0  0  0  0  0
   38.1520   25.0060   33.8250 C   0  0  0  0  0  0  0  0  0  0  0  0
   37.6920   24.7420   32.5610 N   0  0  0  0  0  0  0  0  0  0  0  0
   37.3600   23.4640   32.5030 C   0  0  0  0  0  0  0  0  0  0  0  0
   37.5690   22.8210   33.6730 N   0  0  0  0  0  0  0  0  0  0  0  0
   38.5030   25.9470   34.2100 H   0  0  0  0  0  0  0  0  0  0  0  0
   36.9650   23.0290   31.5810 H   0  0  0  0  0  0  0  0  0  0  0  0
   38.4250   23.5370   35.8480 C   0  0  0  0  0  0  0  0  0  0  0  0
   39.6580   22.9590   36.1660 C   0  0  0  0  0  0  0  0  0  0  0  0
   39.9690   22.7560   37.5270 C   0  0  0  0  0  0  0  0  0  0  0  0
   39.0570   23.1290   38.4450 N   0  0  0  0  0  0  0  0  0  0  0  0
   37.8720   23.6850   38.1180 C   0  0  0  0  0  0  0  0  0  0  0  0
   37.5470   23.8930   36.8270 N   0  0  0  0  0  0  0  0  0  0  0  0
   40.3560   22.6760   35.3950 H   0  0  0  0  0  0  0  0  0  0  0  0
   40.8930   22.3200   37.8190 H   0  0  0  0  0  0  0  0  0  0  0  0
   37.1250   23.9930   38.8400 H   0  0  0  0  0  0  0  0  0  0  0  0
   37.2950   21.4330   33.8860 C   0  0  1  0  0  0  0  0  0  0  0  0
   36.0820   20.9780   34.5710 C   0  0  0  0  0  0  0  0  0  0  0  0
   36.1250   20.9210   33.0480 C   0  0  2  0  0  0  0  0  0  0  0  0
   38.1850   20.7710   33.9280 H   0  0  0  0  0  0  0  0  0  0  0  0
   36.1380   20.0690   35.1700 H   0  0  0  0  0  0  0  0  0  0  0  0
   35.3270   21.6920   34.9470 H   0  0  0  0  0  0  0  0  0  0  0  0
   35.5310   21.6230   32.4690 H   0  0  0  0  0  0  0  0  0  0  0  0
   36.1970   19.5520   32.5690 N   0  0  0  0  0  0  0  0  0  0  0  0
   34.9690   18.8910   32.2860 C   0  0  0  0  0  0  0  0  0  0  0  0
   33.9450   19.5200   31.8330 N   0  0  0  0  0  0  0  0  0  0  0  0
   34.8110   17.4760   32.4950 N   0  0  0  0  0  0  0  0  0  0  0  0
   37.0760   19.0100   32.4150 H   0  0  0  0  0  0  0  0  0  0  0  0
   33.8760   20.5240   31.6260 H   0  0  0  0  0  0  0  0  0  0  0  0
   34.8630   16.6980   33.1840 H   0  0  0  0  0  0  0  0  0  0  0  0
   34.5300   16.8500   31.6960 H   0  0  0  0  0  0  0  0  0  0  0  0
  1  8  1  0  0  0  0
  2  6  1  0  0  0  0
  2  1  2  0  0  0  0
  3  2  1  0  0  0  0
  4  3  2  0  0  0  0
  4  5  1  0  0  0  0
  5 17  1  0  0  0  0
  5  1  1  0  0  0  0
  7  4  1  0  0  0  0
  8  9  2  0  0  0  0
  8 13  1  0  0  0  0
  9 10  1  0  0  0  0
 10 15  1  0  0  0  0
 10 11  2  0  0  0  0
 12 11  1  0  0  0  0
 12 16  1  0  0  0  0
 13 12  2  0  0  0  0
 14  9  1  0  0  0  0
 17 20  1  1  0  0  0
 17 18  1  0  0  0  0
 18 22  1  0  0  0  0
 18 21  1  0  0  0  0
 19 23  1  6  0  0  0
 19 17  1  0  0  0  0
 19 18  1  0  0  0  0
 24 19  1  0  0  0  0
 25 27  1  0  0  0  0
 25 24  1  0  0  0  0
 26 25  2  0  0  0  0
 27 30  1  0  0  0  0
 28 24  1  0  0  0  0
 29 26  1  0  0  0  0
 31 27  1  0  0  0  0
M  END
>  <minimizedAffinity>
-5.0103941

>  <minimizedRMSD>
0.636113644

$$$$
