
 OpenBabel03262519013D

 42 46  0  0  0  0  0  0  0  0999 V2000
   35.6600   28.7020   32.7350 C   0  0  0  0  0  0  0  0  0  0  0  0
   35.4960   27.6580   31.8390 C   0  0  0  0  0  0  0  0  0  0  0  0
   36.1440   26.4270   32.1190 C   0  0  0  0  0  0  0  0  0  0  0  0
   36.8960   26.3650   33.2760 N   0  0  0  0  0  0  0  0  0  0  0  0
   37.0160   27.3960   34.0940 C   0  0  0  0  0  0  0  0  0  0  0  0
   36.4070   28.5590   33.8340 N   0  0  0  0  0  0  0  0  0  0  0  0
   35.1500   29.6160   32.4830 H   0  0  0  0  0  0  0  0  0  0  0  0
   34.9110   27.6860   30.9270 H   0  0  0  0  0  0  0  0  0  0  0  0
   37.8400   27.3450   35.3410 C   0  0  0  0  0  0  0  0  0  0  0  0
   38.2400   28.4090   35.4310 H   0  0  0  0  0  0  0  0  0  0  0  0
   37.2570   27.2310   36.2580 H   0  0  0  0  0  0  0  0  0  0  0  0
   39.0400   26.5240   35.2090 C   0  0  0  0  0  0  0  0  0  0  0  0
   40.1580   27.0080   34.5300 C   0  0  0  0  0  0  0  0  0  0  0  0
   41.3000   26.2490   34.4150 C   0  0  0  0  0  0  0  0  0  0  0  0
   41.3720   24.9730   34.9750 C   0  0  0  0  0  0  0  0  0  0  0  0
   40.2580   24.5040   35.6460 C   0  0  0  0  0  0  0  0  0  0  0  0
   40.3300   23.2390   36.2030 C   0  0  0  0  0  0  0  0  0  0  0  0
   39.2490   22.7110   36.8900 C   0  0  0  0  0  0  0  0  0  0  0  0
   38.0850   23.4730   37.0130 C   0  0  0  0  0  0  0  0  0  0  0  0
   38.0650   24.7390   36.4330 C   0  0  0  0  0  0  0  0  0  0  0  0
   39.1230   25.2870   35.7470 C   0  0  0  0  0  0  0  0  0  0  0  0
   40.0650   28.0140   34.1020 H   0  0  0  0  0  0  0  0  0  0  0  0
   42.1200   26.7040   33.8690 H   0  0  0  0  0  0  0  0  0  0  0  0
   42.2800   24.4030   34.8670 H   0  0  0  0  0  0  0  0  0  0  0  0
   41.2420   22.6610   36.0980 H   0  0  0  0  0  0  0  0  0  0  0  0
   39.3630   21.7280   37.3010 H   0  0  0  0  0  0  0  0  0  0  0  0
   37.2740   23.0320   37.5490 H   0  0  0  0  0  0  0  0  0  0  0  0
   37.1220   25.2470   36.5800 H   0  0  0  0  0  0  0  0  0  0  0  0
   36.0380   25.3050   31.2220 C   0  0  0  0  0  0  0  0  0  0  0  0
   35.0080   25.2670   30.4750 O   0  0  0  0  0  0  0  0  0  0  0  0
   36.8300   24.1240   30.9120 C   0  0  0  0  0  0  0  0  0  0  0  0
   37.9690   24.2920   30.2210 N   0  0  0  0  0  0  0  0  0  0  0  0
   38.7800   23.2400   29.8820 C   0  0  0  0  0  0  0  0  0  0  0  0
   38.4650   21.9800   30.2320 N   0  0  0  0  0  0  0  0  0  0  0  0
   37.3380   21.7140   30.9300 C   0  0  0  0  0  0  0  0  0  0  0  0
   36.9870   20.4400   31.3160 C   0  0  0  0  0  0  0  0  0  0  0  0
   35.8400   20.1890   32.0390 C   0  0  0  0  0  0  0  0  0  0  0  0
   35.5780   19.1950   32.3320 H   0  0  0  0  0  0  0  0  0  0  0  0
   35.0550   21.3020   32.3570 C   0  0  0  0  0  0  0  0  0  0  0  0
   34.1640   21.0830   32.9230 H   0  0  0  0  0  0  0  0  0  0  0  0
   35.4420   22.5380   31.9550 C   0  0  0  0  0  0  0  0  0  0  0  0
   36.5710   22.8120   31.2370 C   0  0  0  0  0  0  0  0  0  0  0  0
  1  6  1  0  0  0  0
  2  3  1  0  0  0  0
  2  1  2  0  0  0  0
  3  4  2  0  0  0  0
  4  5  1  0  0  0  0
  5  9  1  0  0  0  0
  6  5  2  0  0  0  0
  7  1  1  0  0  0  0
  8  2  1  0  0  0  0
  9 10  1  0  0  0  0
  9 11  1  0  0  0  0
 12  9  1  0  0  0  0
 12 21  1  0  0  0  0
 13 12  2  0  0  0  0
 14 13  1  0  0  0  0
 14 15  2  0  0  0  0
 15 16  1  0  0  0  0
 16 21  2  0  0  0  0
 16 17  1  0  0  0  0
 17 18  2  0  0  0  0
 18 19  1  0  0  0  0
 18 26  1  0  0  0  0
 19 27  1  0  0  0  0
 20 28  1  0  0  0  0
 20 19  2  0  0  0  0
 21 20  1  0  0  0  0
 22 13  1  0  0  0  0
 23 14  1  0  0  0  0
 24 15  1  0  0  0  0
 25 17  1  0  0  0  0
 29  3  1  0  0  0  0
 30 29  2  0  0  0  0
 31 29  1  0  0  0  0
 31 42  1  0  0  0  0
 32 31  2  0  0  0  0
 33 32  1  0  0  0  0
 33 34  2  0  0  0  0
 34 35  1  0  0  0  0
 35 42  2  0  0  0  0
 35 36  1  0  0  0  0
 36 37  2  0  0  0  0
 37 38  1  0  0  0  0
 37 39  1  0  0  0  0
 39 40  1  0  0  0  0
 41 39  2  0  0  0  0
 42 41  1  0  0  0  0
M  END
>  <minimizedAffinity>
-7.18706131

>  <minimizedRMSD>
2.14560866

$$$$
