
 OpenBabel03262519343D

 32 33  0  0  1  0  0  0  0  0999 V2000
   38.0100   24.5480   33.7860 N   0  0  0  0  0  0  0  0  0  0  0  0
   37.3790   23.8150   32.7240 C   0  0  0  0  0  0  0  0  0  0  0  0
   36.7730   24.8810   31.8220 C   0  0  0  0  0  0  0  0  0  0  0  0
   37.2090   26.2010   32.4550 C   0  0  0  0  0  0  0  0  0  0  0  0
   38.5030   25.7010   33.1000 C   0  0  1  0  0  0  0  0  0  0  0  0
   36.6230   23.0900   33.0800 H   0  0  0  0  0  0  0  0  0  0  0  0
   38.1470   23.2920   32.1110 H   0  0  0  0  0  0  0  0  0  0  0  0
   35.6600   24.8310   31.9720 H   0  0  0  0  0  0  0  0  0  0  0  0
   37.0940   24.7880   30.7840 H   0  0  0  0  0  0  0  0  0  0  0  0
   37.3740   26.9560   31.6810 H   0  0  0  0  0  0  0  0  0  0  0  0
   36.5010   26.5230   33.2420 H   0  0  0  0  0  0  0  0  0  0  0  0
   39.2170   25.4430   32.2890 H   0  0  0  0  0  0  0  0  0  0  0  0
   39.0320   26.7470   33.9080 N   0  0  0  0  0  0  0  0  0  0  0  0
   38.1790   27.1760   34.9880 C   0  0  0  0  0  0  0  0  0  0  0  0
   36.8770   27.0850   35.0100 N   0  0  0  0  0  0  0  0  0  0  0  0
   38.6420   27.7760   36.2140 N   0  0  0  0  0  0  0  0  0  0  0  0
   39.9070   27.3500   33.9720 H   0  0  0  0  0  0  0  0  0  0  0  0
   36.3610   26.6760   34.2060 H   0  0  0  0  0  0  0  0  0  0  0  0
   38.5030   28.7420   36.5870 H   0  0  0  0  0  0  0  0  0  0  0  0
   39.2040   27.1350   36.8160 H   0  0  0  0  0  0  0  0  0  0  0  0
   39.1590   23.8600   34.3370 C   0  0  0  0  0  0  0  0  0  0  0  0
   40.1090   24.3950   34.1760 H   0  0  0  0  0  0  0  0  0  0  0  0
   39.2870   22.8440   33.8750 H   0  0  0  0  0  0  0  0  0  0  0  0
   37.7710   23.7140   37.8490 C   0  0  0  0  0  0  0  0  0  0  0  0
   37.8310   23.9600   36.4670 C   0  0  0  0  0  0  0  0  0  0  0  0
   39.0200   23.6270   35.8050 C   0  0  0  0  0  0  0  0  0  0  0  0
   40.0560   23.0860   36.5230 N   0  0  0  0  0  0  0  0  0  0  0  0
   39.9380   22.8720   37.8580 C   0  0  0  0  0  0  0  0  0  0  0  0
   38.8070   23.1840   38.5040 N   0  0  0  0  0  0  0  0  0  0  0  0
   36.8740   23.9520   38.4140 H   0  0  0  0  0  0  0  0  0  0  0  0
   36.9910   24.3890   35.9380 H   0  0  0  0  0  0  0  0  0  0  0  0
   40.8530   22.4400   38.2480 H   0  0  0  0  0  0  0  0  0  0  0  0
  1 21  1  0  0  0  0
  2  6  1  0  0  0  0
  2  1  1  0  0  0  0
  3  8  1  0  0  0  0
  3  4  1  0  0  0  0
  3  2  1  0  0  0  0
  4  5  1  0  0  0  0
  4 11  1  0  0  0  0
  5 12  1  6  0  0  0
  5  1  1  0  0  0  0
  5 13  1  0  0  0  0
  7  2  1  0  0  0  0
  9  3  1  0  0  0  0
 10  4  1  0  0  0  0
 13 17  1  0  0  0  0
 13 14  1  0  0  0  0
 14 15  2  0  0  0  0
 14 16  1  0  0  0  0
 16 19  1  0  0  0  0
 16 20  1  0  0  0  0
 18 15  1  0  0  0  0
 21 26  1  0  0  0  0
 22 21  1  0  0  0  0
 23 21  1  0  0  0  0
 24 30  1  0  0  0  0
 24 29  1  0  0  0  0
 25 24  2  0  0  0  0
 26 25  1  0  0  0  0
 26 27  2  0  0  0  0
 27 28  1  0  0  0  0
 28 32  1  0  0  0  0
 28 29  2  0  0  0  0
 31 25  1  0  0  0  0
M  END
>  <minimizedAffinity>
-4.36392879

>  <minimizedRMSD>
1.22918582

$$$$
