
 OpenBabel03262519543D

 31 33  0  0  1  0  0  0  0  0999 V2000
   38.1410   23.9530   34.6710 C   0  0  0  0  0  0  0  0  0  0  0  0
   38.2620   25.2030   34.0650 C   0  0  0  0  0  0  0  0  0  0  0  0
   37.8640   24.9630   32.7750 N   0  0  0  0  0  0  0  0  0  0  0  0
   37.5480   23.6840   32.6730 C   0  0  0  0  0  0  0  0  0  0  0  0
   37.7070   23.0170   33.8370 N   0  0  0  0  0  0  0  0  0  0  0  0
   38.5850   26.1380   34.4870 H   0  0  0  0  0  0  0  0  0  0  0  0
   37.2010   23.2660   31.7250 H   0  0  0  0  0  0  0  0  0  0  0  0
   38.4530   23.6910   36.0660 C   0  0  0  0  0  0  0  0  0  0  0  0
   39.6530   23.0700   36.4250 C   0  0  0  0  0  0  0  0  0  0  0  0
   39.9020   22.8410   37.7950 C   0  0  0  0  0  0  0  0  0  0  0  0
   38.9670   23.2340   38.6800 N   0  0  0  0  0  0  0  0  0  0  0  0
   37.8140   23.8330   38.3140 C   0  0  0  0  0  0  0  0  0  0  0  0
   37.5480   24.0650   37.0130 N   0  0  0  0  0  0  0  0  0  0  0  0
   40.3710   22.7720   35.6790 H   0  0  0  0  0  0  0  0  0  0  0  0
   40.7990   22.3720   38.1180 H   0  0  0  0  0  0  0  0  0  0  0  0
   37.0500   24.1570   39.0100 H   0  0  0  0  0  0  0  0  0  0  0  0
   37.4380   21.6220   34.0060 C   0  0  1  0  0  0  0  0  0  0  0  0
   36.2170   21.1420   34.6600 C   0  0  0  0  0  0  0  0  0  0  0  0
   36.2830   21.1280   33.1370 C   0  0  2  0  0  0  0  0  0  0  0  0
   38.3300   20.9630   34.0440 H   0  0  0  0  0  0  0  0  0  0  0  0
   36.2680   20.2170   35.2340 H   0  0  0  0  0  0  0  0  0  0  0  0
   35.4520   21.8410   35.0440 H   0  0  0  0  0  0  0  0  0  0  0  0
   35.6950   21.8440   32.5680 H   0  0  0  0  0  0  0  0  0  0  0  0
   36.3700   19.7740   32.6200 N   0  0  0  0  0  0  0  0  0  0  0  0
   36.4570   19.6160   31.2090 C   0  0  0  0  0  0  0  0  0  0  0  0
   37.0600   20.4700   30.4630 N   0  0  0  0  0  0  0  0  0  0  0  0
   35.8690   18.4840   30.5410 N   0  0  0  0  0  0  0  0  0  0  0  0
   36.3750   18.9040   33.1970 H   0  0  0  0  0  0  0  0  0  0  0  0
   37.5350   21.3320   30.7640 H   0  0  0  0  0  0  0  0  0  0  0  0
   34.9930   17.9510   30.3650 H   0  0  0  0  0  0  0  0  0  0  0  0
   36.4650   17.8480   29.9510 H   0  0  0  0  0  0  0  0  0  0  0  0
  1  8  1  0  0  0  0
  2  6  1  0  0  0  0
  2  1  2  0  0  0  0
  3  2  1  0  0  0  0
  4  3  2  0  0  0  0
  4  5  1  0  0  0  0
  5 17  1  0  0  0  0
  5  1  1  0  0  0  0
  7  4  1  0  0  0  0
  8  9  2  0  0  0  0
  8 13  1  0  0  0  0
  9 10  1  0  0  0  0
 10 15  1  0  0  0  0
 10 11  2  0  0  0  0
 12 11  1  0  0  0  0
 12 16  1  0  0  0  0
 13 12  2  0  0  0  0
 14  9  1  0  0  0  0
 17 20  1  1  0  0  0
 17 18  1  0  0  0  0
 18 22  1  0  0  0  0
 18 21  1  0  0  0  0
 19 23  1  6  0  0  0
 19 17  1  0  0  0  0
 19 18  1  0  0  0  0
 24 19  1  0  0  0  0
 24 28  1  0  0  0  0
 25 24  1  0  0  0  0
 26 29  1  0  0  0  0
 26 25  2  0  0  0  0
 27 25  1  0  0  0  0
 30 27  1  0  0  0  0
 31 27  1  0  0  0  0
M  END
>  <minimizedAffinity>
-4.40836477

>  <minimizedRMSD>
1.25930321

$$$$
