
     RDKit          3D

 33 34  0  0  0  0  0  0  0  0999 V2000
   43.1205   23.3327   36.5423 C   0  0  0  0  0  0  0  0  0  0  0  0
   41.7295   23.1064   36.4030 C   0  0  0  0  0  0  0  0  0  0  0  0
   41.1738   24.0423   35.6256 C   0  0  0  0  0  0  0  0  0  0  0  0
   41.9050   25.0799   35.0531 N   0  0  0  0  0  0  0  0  0  0  0  0
   43.2030   25.2279   35.2270 C   0  0  0  0  0  0  0  0  0  0  0  0
   43.8212   24.3434   35.9815 N   0  0  0  0  0  0  0  0  0  0  0  0
   41.2384   21.9682   37.0842 C   0  0  0  0  0  0  0  0  0  0  0  0
   40.4751   22.3117   38.2271 F   0  0  0  0  0  0  0  0  0  0  0  0
   42.0318   21.1845   37.8338 F   0  0  0  0  0  0  0  0  0  0  0  0
   40.1478   21.2820   36.5387 F   0  0  0  0  0  0  0  0  0  0  0  0
   39.7897   23.9096   35.3750 C   0  0  0  0  0  0  0  0  0  0  0  0
   39.0111   25.0907   35.6897 C   0  0  0  0  0  0  0  0  0  0  0  0
   37.7743   24.6532   36.4899 C   0  0  2  0  0  0  0  0  0  0  0  0
   38.0274   24.3918   37.9303 C   0  0  0  0  0  0  0  0  0  0  0  0
   37.5584   23.3357   36.9718 C   0  0  1  0  0  0  0  0  0  0  0  0
   43.7740   22.6744   37.1458 H   0  0  0  0  0  0  0  0  0  0  0  0
   43.6737   26.0440   34.7539 H   0  0  0  0  0  0  0  0  0  0  0  0
   39.2297   23.0343   35.5550 H   0  0  0  0  0  0  0  0  0  0  0  0
   39.7748   23.9014   34.2178 H   0  0  0  0  0  0  0  0  0  0  0  0
   39.5706   25.7599   36.4100 H   0  0  0  0  0  0  0  0  0  0  0  0
   38.7477   25.7808   34.8592 H   0  0  0  0  0  0  0  0  0  0  0  0
   36.9462   25.3547   36.3076 H   0  0  0  0  0  0  0  0  0  0  0  0
   37.2718   24.7721   38.6865 H   0  0  0  0  0  0  0  0  0  0  0  0
   39.0269   24.5415   38.2889 H   0  0  0  0  0  0  0  0  0  0  0  0
   37.9807   22.4269   37.1997 H   0  0  0  0  0  0  0  0  0  0  0  0
   36.0926   23.0476   37.0846 N   0  0  0  0  0  0  0  0  0  0  0  0
   35.7583   22.4160   38.3006 C   0  0  0  0  0  0  0  0  0  0  0  0
   36.5954   22.1579   39.2461 N   0  0  0  0  0  0  0  0  0  0  0  0
   34.3871   22.0523   38.4587 N   0  0  0  0  0  0  0  0  0  0  0  0
   35.4667   23.3103   36.3203 H   0  0  0  0  0  0  0  0  0  0  0  0
   36.2943   21.6963   40.1087 H   0  0  0  0  0  0  0  0  0  0  0  0
   33.9983   22.6359   39.2474 H   0  0  0  0  0  0  0  0  0  0  0  0
   33.6646   21.4195   38.0645 H   0  0  0  0  0  0  0  0  0  0  0  0
  2  1  2  0
  2  7  1  0
  3  2  1  0
  4  5  1  0
  4  3  2  0
  5  6  2  0
  6  1  1  0
  7  9  1  0
  7  8  1  0
 10  7  1  0
 11  3  1  0
 11 12  1  0
 12 13  1  0
 13 15  1  0
 13 14  1  0
 15 14  1  0
  1 16  1  0
  5 17  1  0
 11 18  1  0
 11 19  1  0
 12 20  1  0
 12 21  1  0
 13 22  1  1
 14 23  1  0
 14 24  1  0
 15 25  1  6
 26 27  1  0
 27 28  2  3
 27 29  1  0
 26 30  1  0
 28 31  1  0
 29 32  1  0
 29 33  1  0
 15 26  1  0
M  ISO  8  16  14  17  14  18   8  19   8  20   8  21   8  22  13  23  13
M  ISO  2  24  13  25  13
M  END
>  <DihAtoms>  (1) 
12,14,25,26

>  <DihDeg>  (1) 
60.179366167165675

$$$$
