
     RDKit          3D

 33 34  0  0  0  0  0  0  0  0999 V2000
   38.2224   24.3372   36.8188 C   0  0  1  0  0  0  0  0  0  0  0  0
   41.0318   21.8874   37.4739 C   0  0  0  0  0  0  0  0  0  0  0  0
   39.9801   22.7716   37.7522 C   0  0  0  0  0  0  0  0  0  0  0  0
   39.3353   23.3747   36.6245 C   0  0  0  0  0  0  0  0  0  0  0  0
   39.7733   23.0608   35.3576 N   0  0  0  0  0  0  0  0  0  0  0  0
   40.7762   22.2154   35.1498 C   0  0  0  0  0  0  0  0  0  0  0  0
   41.4038   21.6290   36.2278 N   0  0  0  0  0  0  0  0  0  0  0  0
   37.7806   24.3826   38.2602 C   0  0  0  0  0  0  0  0  0  0  0  0
   38.5711   25.7220   36.3511 C   0  0  0  0  0  0  0  0  0  0  0  0
   37.9176   26.0842   35.1566 N   0  0  0  0  0  0  0  0  0  0  0  0
   37.6457   25.4658   33.9927 C   0  0  0  0  0  0  0  0  0  0  0  0
   36.9557   26.2271   33.0769 C   0  0  0  0  0  0  0  0  0  0  0  0
   36.7912   27.3870   33.7138 N   0  0  0  0  0  0  0  0  0  0  0  0
   37.3623   27.3044   34.9499 C   0  0  0  0  0  0  0  0  0  0  0  0
   37.3549   24.0223   36.2037 H   0  0  0  0  0  0  0  0  0  0  0  0
   41.4815   21.4617   38.3592 H   0  0  0  0  0  0  0  0  0  0  0  0
   39.6449   23.0106   38.7526 H   0  0  0  0  0  0  0  0  0  0  0  0
   41.1441   21.9482   34.1682 H   0  0  0  0  0  0  0  0  0  0  0  0
   38.4602   25.0002   38.8843 H   0  0  0  0  0  0  0  0  0  0  0  0
   37.6372   23.3620   38.6731 H   0  0  0  0  0  0  0  0  0  0  0  0
   36.7971   24.9129   38.3143 H   0  0  0  0  0  0  0  0  0  0  0  0
   39.6793   25.7060   36.1349 H   0  0  0  0  0  0  0  0  0  0  0  0
   38.4386   26.4276   37.1567 H   0  0  0  0  0  0  0  0  0  0  0  0
   37.9487   24.4355   33.7890 H   0  0  0  0  0  0  0  0  0  0  0  0
   36.6511   25.9104   32.1020 H   0  0  0  0  0  0  0  0  0  0  0  0
   37.3721   28.3945   35.8991 N   0  0  0  0  0  0  0  0  0  0  0  0
   38.0057   28.2789   37.1662 C   0  0  0  0  0  0  0  0  0  0  0  0
   39.1120   27.6319   37.2295 N   0  0  0  0  0  0  0  0  0  0  0  0
   37.4485   28.8618   38.3399 N   0  0  0  0  0  0  0  0  0  0  0  0
   36.9046   29.3173   35.6902 H   0  0  0  0  0  0  0  0  0  0  0  0
   39.5651   27.1942   36.4179 H   0  0  0  0  0  0  0  0  0  0  0  0
   38.0702   29.0584   39.1661 H   0  0  0  0  0  0  0  0  0  0  0  0
   36.4471   29.1083   38.4290 H   0  0  0  0  0  0  0  0  0  0  0  0
  1  8  1  0
  2  3  2  0
  4  1  1  0
  4  3  1  0
  5  4  2  0
  6  5  1  0
  6  7  2  0
  7  2  1  0
  9  1  1  0
 10  9  1  0
 11 10  1  0
 12 13  1  0
 12 11  2  0
 13 14  2  0
 14 10  1  0
  1 15  1  6
  2 16  1  0
  3 17  1  0
  6 18  1  0
  8 19  1  0
  8 20  1  0
  8 21  1  0
  9 22  1  0
  9 23  1  0
 11 24  1  0
 12 25  1  0
 26 27  1  0
 27 28  2  3
 27 29  1  0
 26 30  1  0
 28 31  1  0
 29 32  1  0
 29 33  1  0
 14 26  1  0
M  ISO  8  15   8  16  14  17  14  18  14  19   8  20   8  21   8  22   8
M  ISO  3  23   8  24  14  25  14
M  END
>  <DihAtoms>  (1) 
12,13,25,26

>  <DihDeg>  (1) 
1.509291596307657

$$$$
