
 OpenBabel03262518483D

 28 30  0  0  0  0  0  0  0  0999 V2000
   36.6600   25.6480   31.9600 C   0  0  0  0  0  0  0  0  0  0  0  0
   37.4570   24.8600   32.7480 C   0  0  0  0  0  0  0  0  0  0  0  0
   37.2170   23.5090   32.7410 C   0  0  0  0  0  0  0  0  0  0  0  0
   36.2350   22.9100   31.9980 C   0  0  0  0  0  0  0  0  0  0  0  0
   35.4410   23.7430   31.2070 C   0  0  0  0  0  0  0  0  0  0  0  0
   35.6300   25.1240   31.1660 C   0  0  0  0  0  0  0  0  0  0  0  0
   37.8200   22.8430   33.3460 H   0  0  0  0  0  0  0  0  0  0  0  0
   34.6490   23.3170   30.6000 H   0  0  0  0  0  0  0  0  0  0  0  0
   34.9990   25.7490   30.5430 H   0  0  0  0  0  0  0  0  0  0  0  0
   35.4430   19.5380   33.2050 C   0  0  0  0  0  0  0  0  0  0  0  0
   35.6650   18.7490   32.0480 C   0  0  0  0  0  0  0  0  0  0  0  0
   36.0850   19.4010   30.8770 C   0  0  0  0  0  0  0  0  0  0  0  0
   36.2530   20.7410   30.9170 N   0  0  0  0  0  0  0  0  0  0  0  0
   36.0310   21.4600   32.0380 C   0  0  0  0  0  0  0  0  0  0  0  0
   35.6320   20.8760   33.1680 N   0  0  0  0  0  0  0  0  0  0  0  0
   35.1210   18.9980   34.0840 H   0  0  0  0  0  0  0  0  0  0  0  0
   35.5300   17.6860   32.0230 H   0  0  0  0  0  0  0  0  0  0  0  0
   36.2760   18.8680   29.9520 H   0  0  0  0  0  0  0  0  0  0  0  0
   36.9160   27.3580   31.9280 S   0  0  0  0  0  0  0  0  0  0  0  0
   36.5560   27.9860   30.6200 O   0  0  0  0  0  0  0  0  0  0  0  0
   36.1420   27.9420   33.0800 O   0  0  0  0  0  0  0  0  0  0  0  0
   38.2560   27.6180   32.1590 H   0  0  0  0  0  0  0  0  0  0  0  0
   38.7480   25.4980   33.7720 S   0  0  0  0  0  0  0  0  0  0  0  0
   38.6890   24.7060   35.3240 C   0  0  0  0  0  0  0  0  0  0  0  0
   37.8630   24.8390   36.3740 C   0  0  0  0  0  0  0  0  0  0  0  0
   37.9910   24.1060   37.5240 C   0  0  0  0  0  0  0  0  0  0  0  0
   39.0860   23.1850   37.5020 C   0  0  0  0  0  0  0  0  0  0  0  0
   39.8790   23.3890   35.8850 S   0  0  0  0  0  0  0  0  0  0  0  0
  1  2  1  0  0  0  0
  2 23  1  0  0  0  0
  3  2  2  0  0  0  0
  3  7  1  0  0  0  0
  4 14  1  0  0  0  0
  4  3  1  0  0  0  0
  5  4  2  0  0  0  0
  6  5  1  0  0  0  0
  6  1  2  0  0  0  0
  8  5  1  0  0  0  0
  9  6  1  0  0  0  0
 10 16  1  0  0  0  0
 11 10  2  0  0  0  0
 12 13  2  0  0  0  0
 12 11  1  0  0  0  0
 13 14  1  0  0  0  0
 14 15  2  0  0  0  0
 15 10  1  0  0  0  0
 17 11  1  0  0  0  0
 18 12  1  0  0  0  0
 19  1  1  0  0  0  0
 19 22  1  0  0  0  0
 19 21  2  0  0  0  0
 20 19  2  0  0  0  0
 23 24  1  0  0  0  0
 24 28  1  0  0  0  0
 24 25  2  0  0  0  0
 25 26  1  0  0  0  0
 27 26  2  0  0  0  0
 28 27  1  0  0  0  0
M  END
>  <minimizedAffinity>
-5.20694876

>  <minimizedRMSD>
6.86228085

$$$$
