REMARK  Name = 
REMARK  3 active torsions:
REMARK  status: ('A' for Active; 'I' for Inactive)
REMARK    1  A    between atoms: C_2  and  N_16
REMARK    2  A    between atoms: C_3  and  C_7
REMARK    3  A    between atoms: C_7  and  C_8
REMARK                            x       y       z     vdW  Elec       q    Type
REMARK                         _______ _______ _______ _____ _____    ______ ____
ROOT
ATOM      1  C   UNL     1      40.841  21.976  37.448  0.00  0.00    +0.000 A 
ATOM      2  C   UNL     1      39.638  22.646  37.857  0.00  0.00    +0.000 A 
ATOM      3  C   UNL     1      38.902  23.155  36.810  0.00  0.00    +0.000 A 
ATOM      4  N   UNL     1      39.326  23.000  35.492  0.00  0.00    +0.000 NA
ATOM      5  C   UNL     1      40.446  22.367  35.174  0.00  0.00    +0.000 A 
ATOM      6  N   UNL     1      41.223  21.845  36.147  0.00  0.00    +0.000 NA
ATOM      7  H   UNL     1      41.656  21.485  37.948  0.00  0.00    +0.000 HD
ATOM      8  H   UNL     1      40.513  22.401  34.111  0.00  0.00    +0.000 HD
ENDROOT
BRANCH   2   9
ATOM      9  N   UNL     1      39.481  22.534  39.253  0.00  0.00    +0.000 N 
ATOM     10  C   UNL     1      38.321  22.661  40.060  0.00  0.00    +0.000 C 
ATOM     11  N   UNL     1      37.635  23.740  39.742  0.00  0.00    +0.000 NA
ATOM     12  N   UNL     1      37.996  21.699  41.090  0.00  0.00    +0.000 N 
ATOM     13  H   UNL     1      40.255  22.349  39.959  0.00  0.00    +0.000 HD
ATOM     14  H   UNL     1      36.770  23.963  40.241  0.00  0.00    +0.000 HD
ATOM     15  H   UNL     1      38.534  21.485  41.935  0.00  0.00    +0.000 HD
ATOM     16  H   UNL     1      37.079  21.257  40.792  0.00  0.00    +0.000 HD
ENDBRANCH   2   9
BRANCH   3  17
ATOM     17  C   UNL     1      37.704  23.876  37.316  0.00  0.00    +0.000 C 
ATOM     18  H   UNL     1      36.900  23.192  37.638  0.00  0.00    +0.000 HD
ATOM     19  H   UNL     1      37.394  24.534  36.487  0.00  0.00    +0.000 HD
BRANCH  17  20
ATOM     20  C   UNL     1      38.130  24.755  38.490  0.00  0.00    +0.000 C 
ATOM     21  H   UNL     1      37.933  25.829  38.111  0.00  0.00    +0.000 HD
ATOM     22  H   UNL     1      39.196  24.760  38.654  0.00  0.00    +0.000 HD
ATOM     23  H   UNL     1      37.447  24.708  39.339  0.00  0.00    +0.000 HD
ENDBRANCH  17  20
ENDBRANCH   3  17
TORSDOF 3
