
     RDKit          3D

 23 23  0  0  0  0  0  0  0  0999 V2000
   40.8412   21.9759   37.4480 C   0  0  0  0  0  0  0  0  0  0  0  0
   39.6382   22.6461   37.8570 C   0  0  0  0  0  0  0  0  0  0  0  0
   38.9022   23.1546   36.8100 C   0  0  0  0  0  0  0  0  0  0  0  0
   39.3260   22.9996   35.4922 N   0  0  0  0  0  0  0  0  0  0  0  0
   40.4460   22.3668   35.1738 C   0  0  0  0  0  0  0  0  0  0  0  0
   41.2234   21.8453   36.1468 N   0  0  0  0  0  0  0  0  0  0  0  0
   37.7038   23.8759   37.3156 C   0  0  0  0  0  0  0  0  0  0  0  0
   38.1301   24.7550   38.4896 C   0  0  0  0  0  0  0  0  0  0  0  0
   41.6564   21.4846   37.9480 H   0  0  0  0  0  0  0  0  0  0  0  0
   40.5129   22.4011   34.1107 H   0  0  0  0  0  0  0  0  0  0  0  0
   36.8999   23.1917   37.6378 H   0  0  0  0  0  0  0  0  0  0  0  0
   37.3938   24.5340   36.4873 H   0  0  0  0  0  0  0  0  0  0  0  0
   37.9334   25.8286   38.1111 H   0  0  0  0  0  0  0  0  0  0  0  0
   39.1962   24.7600   38.6538 H   0  0  0  0  0  0  0  0  0  0  0  0
   37.4471   24.7078   39.3391 H   0  0  0  0  0  0  0  0  0  0  0  0
   39.4814   22.5341   39.2531 N   0  0  0  0  0  0  0  0  0  0  0  0
   38.3213   22.6613   40.0605 C   0  0  0  0  0  0  0  0  0  0  0  0
   37.6346   23.7397   39.7416 N   0  0  0  0  0  0  0  0  0  0  0  0
   37.9957   21.6993   41.0902 N   0  0  0  0  0  0  0  0  0  0  0  0
   40.2555   22.3492   39.9586 H   0  0  0  0  0  0  0  0  0  0  0  0
   36.7700   23.9628   40.2409 H   0  0  0  0  0  0  0  0  0  0  0  0
   38.5342   21.4848   41.9354 H   0  0  0  0  0  0  0  0  0  0  0  0
   37.0792   21.2569   40.7916 H   0  0  0  0  0  0  0  0  0  0  0  0
  1  2  2  0
  3  7  1  0
  3  2  1  0
  4  3  2  0
  5  4  1  0
  5  6  2  0
  6  1  1  0
  7  8  1  0
  1  9  1  0
  5 10  1  0
  7 11  1  0
  7 12  1  0
  8 13  1  0
  8 14  1  0
  8 15  1  0
 16 17  1  0
 17 18  2  3
 17 19  1  0
 16 20  1  0
 18 21  1  0
 19 22  1  0
 19 23  1  0
  2 16  1  0
M  ISO  7   9  14  10  14  11   8  12   8  13   8  14   8  15   8
M  END
>  <DihAtoms>  (1) 
0,1,15,16

>  <DihDeg>  (1) 
6.0321387959161425

$$$$
