
 OpenBabel03262519543D

 31 33  0  0  1  0  0  0  0  0999 V2000
   36.4150   22.2970   32.0310 C   0  0  0  0  0  0  0  0  0  0  0  0
   35.2080   21.8010   31.5400 C   0  0  0  0  0  0  0  0  0  0  0  0
   34.8830   20.8230   32.4440 N   0  0  0  0  0  0  0  0  0  0  0  0
   35.8320   20.7790   33.3620 C   0  0  0  0  0  0  0  0  0  0  0  0
   36.8100   21.6860   33.1410 N   0  0  0  0  0  0  0  0  0  0  0  0
   34.6510   22.0980   30.6690 H   0  0  0  0  0  0  0  0  0  0  0  0
   35.7810   20.0660   34.1890 H   0  0  0  0  0  0  0  0  0  0  0  0
   37.1690   23.3690   31.4040 C   0  0  0  0  0  0  0  0  0  0  0  0
   38.2390   23.0840   30.5490 C   0  0  0  0  0  0  0  0  0  0  0  0
   38.9350   24.1660   29.9690 C   0  0  0  0  0  0  0  0  0  0  0  0
   38.5300   25.4140   30.2730 N   0  0  0  0  0  0  0  0  0  0  0  0
   37.4950   25.6680   31.1020 C   0  0  0  0  0  0  0  0  0  0  0  0
   36.8100   24.6560   31.6700 N   0  0  0  0  0  0  0  0  0  0  0  0
   38.5270   22.0690   30.3360 H   0  0  0  0  0  0  0  0  0  0  0  0
   39.7540   24.0010   29.3120 H   0  0  0  0  0  0  0  0  0  0  0  0
   37.1530   26.6630   31.3590 H   0  0  0  0  0  0  0  0  0  0  0  0
   37.9560   21.8520   33.9800 C   0  0  1  0  0  0  0  0  0  0  0  0
   38.4370   23.1780   34.3810 C   0  0  0  0  0  0  0  0  0  0  0  0
   37.6050   22.3730   35.3720 C   0  0  2  0  0  0  0  0  0  0  0  0
   38.6990   21.0280   33.9460 H   0  0  0  0  0  0  0  0  0  0  0  0
   39.5090   23.3160   34.5270 H   0  0  0  0  0  0  0  0  0  0  0  0
   37.9290   24.1020   34.0530 H   0  0  0  0  0  0  0  0  0  0  0  0
   36.5850   22.6800   35.5890 H   0  0  0  0  0  0  0  0  0  0  0  0
   38.4110   21.9000   36.4840 N   0  0  0  0  0  0  0  0  0  0  0  0
   38.6360   22.8030   37.5600 C   0  0  0  0  0  0  0  0  0  0  0  0
   37.7580   23.6690   37.9180 N   0  0  0  0  0  0  0  0  0  0  0  0
   39.8670   22.7920   38.3070 N   0  0  0  0  0  0  0  0  0  0  0  0
   38.8400   20.9530   36.5610 H   0  0  0  0  0  0  0  0  0  0  0  0
   36.8290   23.8200   37.5040 H   0  0  0  0  0  0  0  0  0  0  0  0
   40.9040   22.8790   38.2540 H   0  0  0  0  0  0  0  0  0  0  0  0
   39.8540   22.6440   39.3480 H   0  0  0  0  0  0  0  0  0  0  0  0
  1  5  1  0  0  0  0
  2  1  2  0  0  0  0
  2  3  1  0  0  0  0
  3  4  2  0  0  0  0
  4  7  1  0  0  0  0
  5  4  1  0  0  0  0
  5 17  1  0  0  0  0
  6  2  1  0  0  0  0
  8 13  1  0  0  0  0
  8  1  1  0  0  0  0
  9  8  2  0  0  0  0
 10 11  2  0  0  0  0
 10  9  1  0  0  0  0
 11 12  1  0  0  0  0
 12 16  1  0  0  0  0
 12 13  2  0  0  0  0
 14  9  1  0  0  0  0
 15 10  1  0  0  0  0
 17 20  1  6  0  0  0
 17 18  1  0  0  0  0
 17 19  1  0  0  0  0
 18 21  1  0  0  0  0
 18 19  1  0  0  0  0
 19 23  1  1  0  0  0
 19 24  1  0  0  0  0
 22 18  1  0  0  0  0
 24 28  1  0  0  0  0
 24 25  1  0  0  0  0
 25 26  2  0  0  0  0
 25 27  1  0  0  0  0
 27 31  1  0  0  0  0
 29 26  1  0  0  0  0
 30 27  1  0  0  0  0
M  END
>  <minimizedAffinity>
-4.38035631

>  <minimizedRMSD>
5.38779497

$$$$
