
     RDKit          3D

 31 33  0  0  0  0  0  0  0  0999 V2000
   38.0297   23.4661   34.6189 C   0  0  0  0  0  0  0  0  0  0  0  0
   38.2655   24.5728   33.8040 C   0  0  0  0  0  0  0  0  0  0  0  0
   37.7602   24.1814   32.5921 N   0  0  0  0  0  0  0  0  0  0  0  0
   37.2818   22.9556   32.7220 C   0  0  0  0  0  0  0  0  0  0  0  0
   37.4309   22.4719   33.9749 N   0  0  0  0  0  0  0  0  0  0  0  0
   38.3949   23.3959   36.0225 C   0  0  0  0  0  0  0  0  0  0  0  0
   39.5958   22.7990   36.4198 C   0  0  0  0  0  0  0  0  0  0  0  0
   39.8980   22.7596   37.7981 C   0  0  0  0  0  0  0  0  0  0  0  0
   39.0103   23.3004   38.6536 N   0  0  0  0  0  0  0  0  0  0  0  0
   37.8562   23.8722   38.2512 C   0  0  0  0  0  0  0  0  0  0  0  0
   37.5398   23.9250   36.9419 N   0  0  0  0  0  0  0  0  0  0  0  0
   37.0015   21.1723   34.3901 C   0  0  1  0  0  0  0  0  0  0  0  0
   35.8346   20.9812   35.2569 C   0  0  0  0  0  0  0  0  0  0  0  0
   35.6759   20.7515   33.7579 C   0  0  2  0  0  0  0  0  0  0  0  0
   38.7290   25.5134   34.0469 H   0  0  0  0  0  0  0  0  0  0  0  0
   36.8261   22.4388   31.8736 H   0  0  0  0  0  0  0  0  0  0  0  0
   40.2750   22.3793   35.6966 H   0  0  0  0  0  0  0  0  0  0  0  0
   40.7981   22.3169   38.1491 H   0  0  0  0  0  0  0  0  0  0  0  0
   37.1292   24.3125   38.9228 H   0  0  0  0  0  0  0  0  0  0  0  0
   37.7917   20.3926   34.4178 H   0  0  0  0  0  0  0  0  0  0  0  0
   35.8425   20.1450   35.9565 H   0  0  0  0  0  0  0  0  0  0  0  0
   35.2371   21.8359   35.6201 H   0  0  0  0  0  0  0  0  0  0  0  0
   35.1142   21.4677   33.1625 H   0  0  0  0  0  0  0  0  0  0  0  0
   35.5012   19.3439   33.4504 N   0  0  0  0  0  0  0  0  0  0  0  0
   35.5777   18.4227   34.5316 C   0  0  0  0  0  0  0  0  0  0  0  0
   35.1763   18.7241   35.7136 N   0  0  0  0  0  0  0  0  0  0  0  0
   36.1122   17.0975   34.3548 N   0  0  0  0  0  0  0  0  0  0  0  0
   35.3238   18.9490   32.5009 H   0  0  0  0  0  0  0  0  0  0  0  0
   34.7697   19.6167   36.0224 H   0  0  0  0  0  0  0  0  0  0  0  0
   36.9376   16.5377   34.0558 H   0  0  0  0  0  0  0  0  0  0  0  0
   35.5275   16.2543   34.5884 H   0  0  0  0  0  0  0  0  0  0  0  0
  1  6  1  0
  2  1  2  0
  3  4  2  0
  3  2  1  0
  4  5  1  0
  5 12  1  0
  5  1  1  0
  6  7  2  0
  6 11  1  0
  7  8  1  0
  8  9  2  0
 10  9  1  0
 11 10  2  0
 12 13  1  0
 14 12  1  0
 14 13  1  0
  2 15  1  0
  4 16  1  0
  7 17  1  0
  8 18  1  0
 10 19  1  0
 12 20  1  1
 13 21  1  0
 13 22  1  0
 14 23  1  6
 24 25  1  0
 25 26  2  3
 25 27  1  0
 24 28  1  0
 26 29  1  0
 27 30  1  0
 27 31  1  0
 14 24  1  0
M  ISO  8  15  14  16  14  17  14  18  14  19  14  20  13  21  13  22  13
M  ISO  1  23  13
M  END
>  <DihAtoms>  (1) 
11,13,23,24

>  <DihDeg>  (1) 
179.99106063102684

$$$$
