REMARK  Name = 
REMARK  4 active torsions:
REMARK  status: ('A' for Active; 'I' for Inactive)
REMARK    1  A    between atoms: C_3  and  C_7
REMARK    2  A    between atoms: C_7  and  C_8
REMARK    3  A    between atoms: C_7  and  C_9
REMARK    4  A    between atoms: C_9  and  N_19
REMARK                            x       y       z     vdW  Elec       q    Type
REMARK                         _______ _______ _______ _____ _____    ______ ____
ROOT
ATOM      1  C   UNL     1      38.047  24.194  37.062  0.00  0.00    +0.000 C 
ATOM      2  H   UNL     1      37.163  23.722  36.584  0.00  0.00    +0.000 HD
ENDROOT
BRANCH   1   5
ATOM      3  C   UNL     1      41.046  21.907  37.446  0.00  0.00    +0.000 A 
ATOM      4  C   UNL     1      39.957  22.745  37.786  0.00  0.00    +0.000 A 
ATOM      5  C   UNL     1      39.191  23.304  36.758  0.00  0.00    +0.000 A 
ATOM      6  N   UNL     1      39.525  23.018  35.444  0.00  0.00    +0.000 NA
ATOM      7  C   UNL     1      40.571  22.215  35.165  0.00  0.00    +0.000 A 
ATOM      8  N   UNL     1      41.334  21.657  36.148  0.00  0.00    +0.000 NA
ATOM      9  H   UNL     1      41.671  21.446  38.192  0.00  0.00    +0.000 HD
ATOM     10  H   UNL     1      39.745  22.929  38.819  0.00  0.00    +0.000 HD
ATOM     11  H   UNL     1      40.695  22.096  34.105  0.00  0.00    +0.000 HD
ENDBRANCH   1   5
BRANCH   1  12
ATOM     12  C   UNL     1      37.882  24.405  38.549  0.00  0.00    +0.000 C 
ATOM     13  H   UNL     1      37.202  25.288  38.724  0.00  0.00    +0.000 HD
ATOM     14  H   UNL     1      37.417  23.559  39.073  0.00  0.00    +0.000 HD
ATOM     15  H   UNL     1      38.849  24.745  39.003  0.00  0.00    +0.000 HD
ENDBRANCH   1  12
BRANCH   1  16
ATOM     16  C   UNL     1      38.148  25.549  36.377  0.00  0.00    +0.000 C 
ATOM     17  H   UNL     1      38.071  25.357  35.291  0.00  0.00    +0.000 HD
ATOM     18  H   UNL     1      39.073  26.087  36.609  0.00  0.00    +0.000 HD
BRANCH  16  19
ATOM     19  N   UNL     1      36.959  26.289  36.773  0.00  0.00    +0.000 N 
ATOM     20  C   UNL     1      36.586  27.356  35.914  0.00  0.00    +0.000 C 
ATOM     21  N   UNL     1      37.477  27.865  35.103  0.00  0.00    +0.000 NA
ATOM     22  N   UNL     1      35.277  27.923  35.877  0.00  0.00    +0.000 N 
ATOM     23  H   UNL     1      36.358  26.116  37.613  0.00  0.00    +0.000 HD
ATOM     24  H   UNL     1      37.249  28.645  34.458  0.00  0.00    +0.000 HD
ATOM     25  H   UNL     1      34.759  28.167  36.774  0.00  0.00    +0.000 HD
ATOM     26  H   UNL     1      34.865  28.080  34.911  0.00  0.00    +0.000 HD
ENDBRANCH  16  19
ENDBRANCH   1  16
TORSDOF 4
