
 OpenBabel03262519593D

 34 36  0  0  1  0  0  0  0  0999 V2000
   39.8600   23.2950   34.4050 C   0  0  1  0  0  0  0  0  0  0  0  0
   39.8530   24.1730   35.5410 C   0  0  0  0  0  0  0  0  0  0  0  0
   39.9900   22.6290   35.7390 C   0  0  1  0  0  0  0  0  0  0  0  0
   40.8070   23.3520   33.7720 H   0  0  0  0  0  0  0  0  0  0  0  0
   40.7290   24.7950   35.8140 H   0  0  0  0  0  0  0  0  0  0  0  0
   38.9140   24.5850   35.8880 H   0  0  0  0  0  0  0  0  0  0  0  0
   38.9480   22.2110   36.6630 N   0  0  0  0  0  0  0  0  0  0  0  0
   38.4420   22.6900   37.9010 C   0  0  0  0  0  0  0  0  0  0  0  0
   39.5070   22.9760   38.6180 N   0  0  0  0  0  0  0  0  0  0  0  0
   37.0030   22.6980   37.9600 N   0  0  0  0  0  0  0  0  0  0  0  0
   38.5690   21.3470   36.1470 H   0  0  0  0  0  0  0  0  0  0  0  0
   39.4640   23.3510   39.5820 H   0  0  0  0  0  0  0  0  0  0  0  0
   36.7570   23.6940   38.1570 H   0  0  0  0  0  0  0  0  0  0  0  0
   36.5690   21.7600   37.8010 H   0  0  0  0  0  0  0  0  0  0  0  0
   37.8720   23.5600   32.9150 C   0  0  0  0  0  0  0  0  0  0  0  0
   36.9160   22.7230   32.3410 C   0  0  0  0  0  0  0  0  0  0  0  0
   37.2710   21.4790   32.7810 N   0  0  0  0  0  0  0  0  0  0  0  0
   38.3520   21.6140   33.5500 C   0  0  0  0  0  0  0  0  0  0  0  0
   38.7370   22.8820   33.6460 N   0  0  0  0  0  0  0  0  0  0  0  0
   36.0890   22.9820   31.7010 H   0  0  0  0  0  0  0  0  0  0  0  0
   38.7790   20.7110   33.9920 H   0  0  0  0  0  0  0  0  0  0  0  0
   37.9170   25.0000   32.7270 C   0  0  0  0  0  0  0  0  0  0  0  0
   38.6870   25.5430   31.6780 C   0  0  0  0  0  0  0  0  0  0  0  0
   38.7000   26.9480   31.5300 C   0  0  0  0  0  0  0  0  0  0  0  0
   37.9670   27.6800   32.4110 N   0  0  0  0  0  0  0  0  0  0  0  0
   37.2400   27.1180   33.4050 C   0  0  0  0  0  0  0  0  0  0  0  0
   37.2090   25.7910   33.5700 N   0  0  0  0  0  0  0  0  0  0  0  0
   39.2520   24.9130   31.0070 H   0  0  0  0  0  0  0  0  0  0  0  0
   39.2730   27.4080   30.7450 H   0  0  0  0  0  0  0  0  0  0  0  0
   36.6580   27.6840   34.1060 H   0  0  0  0  0  0  0  0  0  0  0  0
   41.4000   22.2810   36.1900 C   0  0  0  0  0  0  0  0  0  0  0  0
   41.3770   21.0870   36.8890 F   0  0  0  0  0  0  0  0  0  0  0  0
   42.1890   21.9690   35.0090 F   0  0  0  0  0  0  0  0  0  0  0  0
   42.0370   23.2750   36.8230 F   0  0  0  0  0  0  0  0  0  0  0  0
  1  4  1  6  0  0  0
  1  2  1  0  0  0  0
  1  3  1  0  0  0  0
  2  3  1  0  0  0  0
  2  5  1  0  0  0  0
  2  6  1  0  0  0  0
  3 31  1  1  0  0  0
  3  7  1  0  0  0  0
  7  8  1  0  0  0  0
  8 10  1  0  0  0  0
  8  9  2  0  0  0  0
  9 12  1  0  0  0  0
 10 13  1  0  0  0  0
 11  7  1  0  0  0  0
 14 10  1  0  0  0  0
 15 19  1  0  0  0  0
 16 17  1  0  0  0  0
 16 15  2  0  0  0  0
 17 18  2  0  0  0  0
 18 19  1  0  0  0  0
 18 21  1  0  0  0  0
 19  1  1  0  0  0  0
 20 16  1  0  0  0  0
 22 15  1  0  0  0  0
 22 27  1  0  0  0  0
 23 22  2  0  0  0  0
 24 23  1  0  0  0  0
 24 25  2  0  0  0  0
 25 26  1  0  0  0  0
 26 27  2  0  0  0  0
 26 30  1  0  0  0  0
 28 23  1  0  0  0  0
 29 24  1  0  0  0  0
 31 34  1  0  0  0  0
 31 32  1  0  0  0  0
 33 31  1  0  0  0  0
M  END
>  <minimizedAffinity>
-4.58665037

>  <minimizedRMSD>
2.83221889

$$$$
