
 OpenBabel03262519553D

 31 33  0  0  1  0  0  0  0  0999 V2000
   38.0890   23.7470   34.3940 C   0  0  0  0  0  0  0  0  0  0  0  0
   38.2420   24.9670   33.7350 C   0  0  0  0  0  0  0  0  0  0  0  0
   37.7860   24.6970   32.4710 N   0  0  0  0  0  0  0  0  0  0  0  0
   37.4110   23.4300   32.4300 C   0  0  0  0  0  0  0  0  0  0  0  0
   37.5840   22.8010   33.6130 N   0  0  0  0  0  0  0  0  0  0  0  0
   38.6220   25.9010   34.1080 H   0  0  0  0  0  0  0  0  0  0  0  0
   37.0100   22.9930   31.5120 H   0  0  0  0  0  0  0  0  0  0  0  0
   38.4400   23.5240   35.7850 C   0  0  0  0  0  0  0  0  0  0  0  0
   39.6700   22.9530   36.1290 C   0  0  0  0  0  0  0  0  0  0  0  0
   39.9570   22.7600   37.4970 C   0  0  0  0  0  0  0  0  0  0  0  0
   39.0280   23.1370   38.3960 N   0  0  0  0  0  0  0  0  0  0  0  0
   37.8470   23.6870   38.0440 C   0  0  0  0  0  0  0  0  0  0  0  0
   37.5440   23.8840   36.7460 N   0  0  0  0  0  0  0  0  0  0  0  0
   40.3820   22.6670   35.3730 H   0  0  0  0  0  0  0  0  0  0  0  0
   40.8780   22.3300   37.8080 H   0  0  0  0  0  0  0  0  0  0  0  0
   37.0870   23.9970   38.7510 H   0  0  0  0  0  0  0  0  0  0  0  0
   37.2590   21.4270   33.8460 C   0  0  1  0  0  0  0  0  0  0  0  0
   35.8740   20.9740   34.0080 C   0  0  0  0  0  0  0  0  0  0  0  0
   36.5570   20.7700   32.6590 C   0  0  2  0  0  0  0  0  0  0  0  0
   38.0540   20.8230   34.3320 H   0  0  0  0  0  0  0  0  0  0  0  0
   35.6810   20.1330   34.6730 H   0  0  0  0  0  0  0  0  0  0  0  0
   35.0240   21.6770   33.9490 H   0  0  0  0  0  0  0  0  0  0  0  0
   36.2560   21.3790   31.8090 H   0  0  0  0  0  0  0  0  0  0  0  0
   36.8380   19.3680   32.4110 N   0  0  0  0  0  0  0  0  0  0  0  0
   36.2290   18.7700   31.2740 C   0  0  0  0  0  0  0  0  0  0  0  0
   36.0080   19.4270   30.1940 N   0  0  0  0  0  0  0  0  0  0  0  0
   35.8280   17.3870   31.2750 N   0  0  0  0  0  0  0  0  0  0  0  0
   37.4500   18.7600   32.9990 H   0  0  0  0  0  0  0  0  0  0  0  0
   36.2260   20.4160   30.0130 H   0  0  0  0  0  0  0  0  0  0  0  0
   35.2440   16.6620   31.7430 H   0  0  0  0  0  0  0  0  0  0  0  0
   36.2120   16.7220   30.5540 H   0  0  0  0  0  0  0  0  0  0  0  0
  1  8  1  0  0  0  0
  2  6  1  0  0  0  0
  2  1  2  0  0  0  0
  3  2  1  0  0  0  0
  4  3  2  0  0  0  0
  4  5  1  0  0  0  0
  5 17  1  0  0  0  0
  5  1  1  0  0  0  0
  7  4  1  0  0  0  0
  8  9  2  0  0  0  0
  8 13  1  0  0  0  0
  9 10  1  0  0  0  0
 10 15  1  0  0  0  0
 10 11  2  0  0  0  0
 12 11  1  0  0  0  0
 12 16  1  0  0  0  0
 13 12  2  0  0  0  0
 14  9  1  0  0  0  0
 17 18  1  0  0  0  0
 17 20  1  1  0  0  0
 18 21  1  0  0  0  0
 19 23  1  6  0  0  0
 19 17  1  0  0  0  0
 19 18  1  0  0  0  0
 22 18  1  0  0  0  0
 24 19  1  0  0  0  0
 24 28  1  0  0  0  0
 25 27  1  0  0  0  0
 25 24  1  0  0  0  0
 26 25  2  0  0  0  0
 27 30  1  0  0  0  0
 29 26  1  0  0  0  0
 31 27  1  0  0  0  0
M  END
>  <minimizedAffinity>
-4.38753271

>  <minimizedRMSD>
1.58598685

$$$$
