
 OpenBabel03262515423D

 30 31  0  0  1  0  0  0  0  0999 V2000
   39.6000   22.7590   37.5990 C   0  0  0  0  0  0  0  0  0  0  0  0
   38.9680   23.7920   36.9000 C   0  0  0  0  0  0  0  0  0  0  0  0
   39.5620   24.2590   35.7270 C   0  0  0  0  0  0  0  0  0  0  0  0
   40.7200   23.6910   35.3200 N   0  0  0  0  0  0  0  0  0  0  0  0
   41.3100   22.6990   36.0050 C   0  0  0  0  0  0  0  0  0  0  0  0
   40.7680   22.2290   37.1330 N   0  0  0  0  0  0  0  0  0  0  0  0
   39.0630   25.2960   34.8920 N   0  0  0  0  0  0  0  0  0  0  0  0
   39.3880   26.7110   35.0630 C   0  0  2  0  0  0  0  0  0  0  0  0
   38.1180   27.4890   35.3080 C   0  0  0  0  0  0  0  0  0  0  0  0
   37.0010   26.6890   35.0030 O   0  0  0  0  0  0  0  0  0  0  0  0
   37.1050   26.1400   33.7370 C   0  0  0  0  0  0  0  0  0  0  0  0
   38.1740   25.0690   33.7730 C   0  0  0  0  0  0  0  0  0  0  0  0
   39.0900   22.4440   38.4970 H   0  0  0  0  0  0  0  0  0  0  0  0
   38.0590   24.2690   37.1800 H   0  0  0  0  0  0  0  0  0  0  0  0
   42.2380   22.2900   35.6220 H   0  0  0  0  0  0  0  0  0  0  0  0
   39.9570   26.7650   36.0310 H   0  0  0  0  0  0  0  0  0  0  0  0
   37.9910   27.8160   36.3620 H   0  0  0  0  0  0  0  0  0  0  0  0
   38.0980   28.3390   34.6080 H   0  0  0  0  0  0  0  0  0  0  0  0
   37.2560   26.8770   32.9310 H   0  0  0  0  0  0  0  0  0  0  0  0
   36.1170   25.6360   33.5540 H   0  0  0  0  0  0  0  0  0  0  0  0
   38.7540   25.1810   32.8350 H   0  0  0  0  0  0  0  0  0  0  0  0
   37.7230   24.0350   33.8210 H   0  0  0  0  0  0  0  0  0  0  0  0
   40.1790   27.2060   33.9750 N   0  0  0  0  0  0  0  0  0  0  0  0
   41.5900   27.0440   34.0810 C   0  0  0  0  0  0  0  0  0  0  0  0
   42.2300   26.4290   35.0320 N   0  0  0  0  0  0  0  0  0  0  0  0
   42.4600   27.5800   33.0890 N   0  0  0  0  0  0  0  0  0  0  0  0
   39.7710   27.6630   33.1410 H   0  0  0  0  0  0  0  0  0  0  0  0
   41.7690   25.9730   35.8430 H   0  0  0  0  0  0  0  0  0  0  0  0
   42.4260   26.7750   32.4010 H   0  0  0  0  0  0  0  0  0  0  0  0
   43.0970   28.2450   32.6150 H   0  0  0  0  0  0  0  0  0  0  0  0
  1 13  1  0  0  0  0
  2 14  1  0  0  0  0
  2  1  2  0  0  0  0
  3  2  1  0  0  0  0
  4  3  2  0  0  0  0
  4  5  1  0  0  0  0
  5  6  2  0  0  0  0
  6  1  1  0  0  0  0
  7  8  1  0  0  0  0
  7  3  1  0  0  0  0
  8  9  1  0  0  0  0
  8 16  1  1  0  0  0
  9 17  1  0  0  0  0
 10  9  1  0  0  0  0
 11 12  1  0  0  0  0
 11 10  1  0  0  0  0
 12 22  1  0  0  0  0
 12  7  1  0  0  0  0
 15  5  1  0  0  0  0
 18  9  1  0  0  0  0
 19 11  1  0  0  0  0
 20 11  1  0  0  0  0
 21 12  1  0  0  0  0
 23 24  1  0  0  0  0
 23  8  1  0  0  0  0
 24 25  2  0  0  0  0
 25 28  1  0  0  0  0
 26 24  1  0  0  0  0
 27 23  1  0  0  0  0
 29 26  1  0  0  0  0
 30 26  1  0  0  0  0
M  END
>  <minimizedAffinity>
-4.41499805

>  <minimizedRMSD>
0.465254754

$$$$
