REMARK  Name = 
REMARK  5 active torsions:
REMARK  status: ('A' for Active; 'I' for Inactive)
REMARK    1  A    between atoms: C_1  and  C_6
REMARK    2  A    between atoms: N_5  and  C_12
REMARK    3  A    between atoms: C_14  and  C_15
REMARK    4  A    between atoms: C_14  and  C_27
REMARK    5  A    between atoms: C_27  and  O_29
REMARK                            x       y       z     vdW  Elec       q    Type
REMARK                         _______ _______ _______ _____ _____    ______ ____
ROOT
ATOM      1  C   UNL     1      37.869  23.699  33.501  0.00  0.00    +0.000 A 
ATOM      2  C   UNL     1      37.465  22.656  32.668  0.00  0.00    +0.000 A 
ATOM      3  N   UNL     1      37.486  21.564  33.485  0.00  0.00    +0.000 NA
ATOM      4  C   UNL     1      37.874  21.966  34.693  0.00  0.00    +0.000 A 
ATOM      5  N   UNL     1      38.115  23.272  34.729  0.00  0.00    +0.000 N 
ATOM      6  H   UNL     1      37.209  22.779  31.610  0.00  0.00    +0.000 HD
ATOM      7  H   UNL     1      37.962  21.244  35.514  0.00  0.00    +0.000 HD
ENDROOT
BRANCH   1   8
ATOM      8  C   UNL     1      38.013  25.082  33.078  0.00  0.00    +0.000 A 
ATOM      9  C   UNL     1      39.296  25.585  32.769  0.00  0.00    +0.000 A 
ATOM     10  C   UNL     1      39.389  26.933  32.356  0.00  0.00    +0.000 A 
ATOM     11  N   UNL     1      38.237  27.652  32.285  0.00  0.00    +0.000 NA
ATOM     12  C   UNL     1      37.028  27.129  32.592  0.00  0.00    +0.000 A 
ATOM     13  N   UNL     1      36.913  25.852  32.986  0.00  0.00    +0.000 NA
ATOM     14  H   UNL     1      40.151  24.935  32.856  0.00  0.00    +0.000 HD
ATOM     15  H   UNL     1      40.359  27.336  32.116  0.00  0.00    +0.000 HD
ATOM     16  H   UNL     1      36.217  27.832  32.484  0.00  0.00    +0.000 HD
ENDBRANCH   1   8
BRANCH   5  17
ATOM     17  C   UNL     1      38.537  23.948  35.899  0.00  0.00    +0.000 C 
ATOM     18  C   UNL     1      38.086  25.230  36.364  0.00  0.00    +0.000 C 
ATOM     19  C   UNL     1      37.564  23.924  37.029  0.00  0.00    +0.000 C 
ATOM     20  H   UNL     1      39.622  23.687  36.156  0.00  0.00    +0.000 HD
ATOM     21  H   UNL     1      37.328  25.803  35.809  0.00  0.00    +0.000 HD
ATOM     22  H   UNL     1      38.719  25.872  36.998  0.00  0.00    +0.000 HD
BRANCH  19  23
ATOM     23  C   UNL     1      38.121  23.764  38.427  0.00  0.00    +0.000 C 
ATOM     24  F   UNL     1      37.508  22.704  39.064  0.00  0.00    +0.000 F 
ATOM     25  F   UNL     1      39.510  23.339  38.307  0.00  0.00    +0.000 F 
ATOM     26  F   UNL     1      38.138  24.898  39.143  0.00  0.00    +0.000 F 
ENDBRANCH  19  23
BRANCH  19  27
ATOM     27  C   UNL     1      36.075  23.982  36.954  0.00  0.00    +0.000 C 
ATOM     28  O   UNL     1      35.306  23.201  37.574  0.00  0.00    +0.000 OA
BRANCH  27  29
ATOM     29  O   UNL     1      35.458  24.939  36.165  0.00  0.00    +0.000 OA
ATOM     30  H   UNL     1      34.536  25.328  36.416  0.00  0.00    +0.000 HD
ENDBRANCH  27  29
ENDBRANCH  19  27
ENDBRANCH   5  17
TORSDOF 5
