
 OpenBabel03262519313D

 38 41  0  0  0  0  0  0  0  0999 V2000
   39.8360   22.5280   37.2540 C   0  0  0  0  0  0  0  0  0  0  0  0
   39.2750   23.3690   38.2180 C   0  0  0  0  0  0  0  0  0  0  0  0
   37.9030   23.6550   38.0990 C   0  0  0  0  0  0  0  0  0  0  0  0
   37.2060   23.1170   37.0790 N   0  0  0  0  0  0  0  0  0  0  0  0
   37.8030   22.3060   36.1720 C   0  0  0  0  0  0  0  0  0  0  0  0
   39.0940   22.0240   36.2670 N   0  0  0  0  0  0  0  0  0  0  0  0
   37.1370   21.6980   35.0670 N   0  0  0  0  0  0  0  0  0  0  0  0
   37.6170   21.8450   33.8020 C   0  0  0  0  0  0  0  0  0  0  0  0
   36.9120   21.2220   32.7700 C   0  0  0  0  0  0  0  0  0  0  0  0
   35.7720   20.4830   33.0080 C   0  0  0  0  0  0  0  0  0  0  0  0
   35.1250   19.9150   32.0860 O   0  0  0  0  0  0  0  0  0  0  0  0
   35.3310   20.3660   34.2850 N   0  0  0  0  0  0  0  0  0  0  0  0
   36.0090   20.9660   35.2890 C   0  0  0  0  0  0  0  0  0  0  0  0
   35.6180   20.8670   36.4730 O   0  0  0  0  0  0  0  0  0  0  0  0
   39.7950   23.8210   39.0490 H   0  0  0  0  0  0  0  0  0  0  0  0
   37.3870   24.2840   38.7830 H   0  0  0  0  0  0  0  0  0  0  0  0
   38.5140   22.4250   33.6080 H   0  0  0  0  0  0  0  0  0  0  0  0
   37.2460   21.3060   31.7640 H   0  0  0  0  0  0  0  0  0  0  0  0
   34.4680   19.8120   34.5050 H   0  0  0  0  0  0  0  0  0  0  0  0
   41.1810   22.2560   37.3850 O   0  0  0  0  0  0  0  0  0  0  0  0
   42.1680   22.7110   36.5540 C   0  0  0  0  0  0  0  0  0  0  0  0
   42.2690   23.9910   36.0160 C   0  0  0  0  0  0  0  0  0  0  0  0
   43.3660   24.0840   35.2430 N   0  0  0  0  0  0  0  0  0  0  0  0
   44.0300   22.8890   35.2350 C   0  0  0  0  0  0  0  0  0  0  0  0
   45.1760   22.4720   34.6170 C   0  0  0  0  0  0  0  0  0  0  0  0
   45.6120   21.1820   34.7970 C   0  0  0  0  0  0  0  0  0  0  0  0
   44.8780   20.3250   35.6050 C   0  0  0  0  0  0  0  0  0  0  0  0
   43.7230   20.7570   36.2240 C   0  0  0  0  0  0  0  0  0  0  0  0
   43.2810   22.0420   36.0510 C   0  0  0  0  0  0  0  0  0  0  0  0
   41.5470   24.7910   36.2090 H   0  0  0  0  0  0  0  0  0  0  0  0
   43.6550   24.9470   34.7330 H   0  0  0  0  0  0  0  0  0  0  0  0
   45.7360   23.1560   33.9880 H   0  0  0  0  0  0  0  0  0  0  0  0
   46.5190   20.8340   34.3130 H   0  0  0  0  0  0  0  0  0  0  0  0
   45.2630   19.3190   35.7160 H   0  0  0  0  0  0  0  0  0  0  0  0
   43.0300   19.7820   37.0540 C   0  0  0  0  0  0  0  0  0  0  0  0
   42.7590   18.5720   36.8900 O   0  0  0  0  0  0  0  0  0  0  0  0
   42.5120   20.1010   38.2960 O   0  0  0  0  0  0  0  0  0  0  0  0
   42.4580   19.4950   39.1030 H   0  0  0  0  0  0  0  0  0  0  0  0
  1 20  1  0  0  0  0
  1  2  1  0  0  0  0
  2 15  1  0  0  0  0
  3  2  2  0  0  0  0
  3 16  1  0  0  0  0
  4  3  1  0  0  0  0
  5  6  1  0  0  0  0
  5  4  2  0  0  0  0
  6  1  2  0  0  0  0
  7 13  1  0  0  0  0
  7  5  1  0  0  0  0
  8  7  1  0  0  0  0
  9 10  1  0  0  0  0
  9  8  2  0  0  0  0
 10 12  1  0  0  0  0
 11 10  2  0  0  0  0
 12 19  1  0  0  0  0
 12 13  1  0  0  0  0
 13 14  2  0  0  0  0
 17  8  1  0  0  0  0
 18  9  1  0  0  0  0
 21 20  1  0  0  0  0
 22 30  1  0  0  0  0
 22 21  2  0  0  0  0
 23 22  1  0  0  0  0
 24 23  1  0  0  0  0
 24 29  1  0  0  0  0
 25 26  1  0  0  0  0
 25 24  2  0  0  0  0
 26 27  2  0  0  0  0
 27 34  1  0  0  0  0
 27 28  1  0  0  0  0
 28 35  1  0  0  0  0
 29 28  2  0  0  0  0
 29 21  1  0  0  0  0
 31 23  1  0  0  0  0
 32 25  1  0  0  0  0
 33 26  1  0  0  0  0
 35 37  1  0  0  0  0
 36 35  2  0  0  0  0
 37 38  1  0  0  0  0
M  END
>  <minimizedAffinity>
-6.43211651

>  <minimizedRMSD>
1.01410913

$$$$
