
 OpenBabel03262519383D

 29 30  0  0  1  0  0  0  0  0999 V2000
   37.7400   25.1460   34.0560 N   0  0  0  0  0  0  0  0  0  0  0  0
   37.0980   25.1380   32.7630 C   0  0  0  0  0  0  0  0  0  0  0  0
   37.1640   26.5460   32.2640 C   0  0  0  0  0  0  0  0  0  0  0  0
   37.8800   27.2960   33.3650 C   0  0  0  0  0  0  0  0  0  0  0  0
   38.7680   26.1350   33.9150 C   0  0  2  0  0  0  0  0  0  0  0  0
   36.0950   24.6990   32.7600 H   0  0  0  0  0  0  0  0  0  0  0  0
   37.7550   24.4980   32.1080 H   0  0  0  0  0  0  0  0  0  0  0  0
   36.1580   26.9720   32.0570 H   0  0  0  0  0  0  0  0  0  0  0  0
   37.7890   26.6310   31.3450 H   0  0  0  0  0  0  0  0  0  0  0  0
   37.1690   27.5330   34.1760 H   0  0  0  0  0  0  0  0  0  0  0  0
   38.4950   28.1160   33.0080 H   0  0  0  0  0  0  0  0  0  0  0  0
   39.0940   26.5600   34.8950 H   0  0  0  0  0  0  0  0  0  0  0  0
   38.3560   23.8950   34.3550 C   0  0  0  0  0  0  0  0  0  0  0  0
   39.2010   23.5940   33.7500 H   0  0  0  0  0  0  0  0  0  0  0  0
   37.5570   23.1180   34.1210 H   0  0  0  0  0  0  0  0  0  0  0  0
   37.8750   24.0380   38.1240 C   0  0  0  0  0  0  0  0  0  0  0  0
   37.6480   24.2520   36.7640 C   0  0  0  0  0  0  0  0  0  0  0  0
   38.5550   23.7140   35.8330 C   0  0  0  0  0  0  0  0  0  0  0  0
   39.6240   23.0010   36.3120 N   0  0  0  0  0  0  0  0  0  0  0  0
   39.7960   22.8220   37.6450 C   0  0  0  0  0  0  0  0  0  0  0  0
   38.9280   23.3370   38.5320 N   0  0  0  0  0  0  0  0  0  0  0  0
   37.1430   24.4770   38.7890 H   0  0  0  0  0  0  0  0  0  0  0  0
   36.8000   24.8190   36.4110 H   0  0  0  0  0  0  0  0  0  0  0  0
   40.6690   22.2440   37.9300 H   0  0  0  0  0  0  0  0  0  0  0  0
   39.7520   25.8140   33.0530 O   0  0  0  0  0  0  0  0  0  0  0  0
   41.0280   26.1950   33.2950 C   0  0  0  0  0  0  0  0  0  0  0  0
   41.5340   27.4440   32.6850 C   0  0  0  0  0  0  0  0  0  0  0  0
   41.1490   26.3180   34.8240 C   0  0  0  0  0  0  0  0  0  0  0  0
   42.0460   25.0990   32.9490 C   0  0  0  0  0  0  0  0  0  0  0  0
  1 13  1  0  0  0  0
  2  1  1  0  0  0  0
  3  2  1  0  0  0  0
  3  4  1  0  0  0  0
  4  5  1  0  0  0  0
  4 10  1  0  0  0  0
  5  1  1  0  0  0  0
  5 12  1  1  0  0  0
  6  2  1  0  0  0  0
  7  2  1  0  0  0  0
  8  3  1  0  0  0  0
  9  3  1  0  0  0  0
 11  4  1  0  0  0  0
 13 18  1  0  0  0  0
 14 13  1  0  0  0  0
 15 13  1  0  0  0  0
 16 21  1  0  0  0  0
 16 22  1  0  0  0  0
 17 16  2  0  0  0  0
 18 19  2  0  0  0  0
 18 17  1  0  0  0  0
 19 20  1  0  0  0  0
 20 24  1  0  0  0  0
 20 21  2  0  0  0  0
 23 17  1  0  0  0  0
 25 26  1  0  0  0  0
 25  5  1  0  0  0  0
 26 28  1  0  0  0  0
 27 26  1  0  0  0  0
 29 26  1  0  0  0  0
M  END
>  <minimizedAffinity>
-3.85821867

>  <minimizedRMSD>
1.35402095

$$$$
