
 OpenBabel03262519543D

 27 29  0  0  1  0  0  0  0  0999 V2000
   37.9120   23.3900   34.1850 C   0  0  0  0  0  0  0  0  0  0  0  0
   38.0180   24.5550   33.4350 C   0  0  0  0  0  0  0  0  0  0  0  0
   37.3820   24.2440   32.2620 N   0  0  0  0  0  0  0  0  0  0  0  0
   36.9560   23.0030   32.3490 C   0  0  0  0  0  0  0  0  0  0  0  0
   37.2620   22.4310   33.5280 N   0  0  0  0  0  0  0  0  0  0  0  0
   38.4950   25.4880   33.7240 H   0  0  0  0  0  0  0  0  0  0  0  0
   36.4120   22.5220   31.5260 H   0  0  0  0  0  0  0  0  0  0  0  0
   38.4450   23.2180   35.5360 C   0  0  0  0  0  0  0  0  0  0  0  0
   39.6990   22.6340   35.7300 C   0  0  0  0  0  0  0  0  0  0  0  0
   40.1670   22.4910   37.0550 C   0  0  0  0  0  0  0  0  0  0  0  0
   39.3790   22.9230   38.0490 N   0  0  0  0  0  0  0  0  0  0  0  0
   38.1600   23.4890   37.8280 C   0  0  0  0  0  0  0  0  0  0  0  0
   37.6900   23.6370   36.5730 N   0  0  0  0  0  0  0  0  0  0  0  0
   40.2820   22.3080   34.8950 H   0  0  0  0  0  0  0  0  0  0  0  0
   41.1290   22.0450   37.2290 H   0  0  0  0  0  0  0  0  0  0  0  0
   37.5360   23.8330   38.6490 H   0  0  0  0  0  0  0  0  0  0  0  0
   36.9200   21.0860   33.8940 C   0  0  1  0  0  0  0  0  0  0  0  0
   35.7450   20.7400   34.6740 C   0  0  0  0  0  0  0  0  0  0  0  0
   35.7030   20.5560   33.1620 C   0  0  2  0  0  0  0  0  0  0  0  0
   37.8090   20.4320   33.9880 H   0  0  0  0  0  0  0  0  0  0  0  0
   35.0740   21.5620   35.0340 H   0  0  0  0  0  0  0  0  0  0  0  0
   35.7170   19.8580   35.3210 H   0  0  0  0  0  0  0  0  0  0  0  0
   35.0620   21.2090   32.5700 H   0  0  0  0  0  0  0  0  0  0  0  0
   35.8390   19.1300   32.7160 C   0  0  0  0  0  0  0  0  0  0  0  0
   36.8690   18.7660   32.0800 O   0  0  0  0  0  0  0  0  0  0  0  0
   34.8160   18.2340   33.0200 O   0  0  0  0  0  0  0  0  0  0  0  0
   34.8400   17.2730   32.6500 H   0  0  0  0  0  0  0  0  0  0  0  0
  1  8  1  0  0  0  0
  2  6  1  0  0  0  0
  2  1  2  0  0  0  0
  3  4  2  0  0  0  0
  3  2  1  0  0  0  0
  4  5  1  0  0  0  0
  5 17  1  0  0  0  0
  5  1  1  0  0  0  0
  7  4  1  0  0  0  0
  8  9  2  0  0  0  0
  8 13  1  0  0  0  0
  9 10  1  0  0  0  0
 10 15  1  0  0  0  0
 10 11  2  0  0  0  0
 12 11  1  0  0  0  0
 12 16  1  0  0  0  0
 13 12  2  0  0  0  0
 14  9  1  0  0  0  0
 17 20  1  1  0  0  0
 17 18  1  0  0  0  0
 18 21  1  0  0  0  0
 18 22  1  0  0  0  0
 19 23  1  6  0  0  0
 19 17  1  0  0  0  0
 19 18  1  0  0  0  0
 24 26  1  0  0  0  0
 24 19  1  0  0  0  0
 25 24  2  0  0  0  0
 27 26  1  0  0  0  0
M  END
>  <minimizedAffinity>
-4.33335686

>  <minimizedRMSD>
0.82914269

$$$$
