
 OpenBabel03262519443D

 29 30  0  0  1  0  0  0  0  0999 V2000
   38.5690   23.7210   36.4560 C   0  0  1  0  0  0  0  0  0  0  0  0
   37.7900   23.2030   35.8510 H   0  0  0  0  0  0  0  0  0  0  0  0
   41.4900   21.5920   37.5510 C   0  0  0  0  0  0  0  0  0  0  0  0
   40.3480   22.3830   37.6310 C   0  0  0  0  0  0  0  0  0  0  0  0
   39.7730   22.8690   36.4280 C   0  0  0  0  0  0  0  0  0  0  0  0
   40.3790   22.5300   35.2480 N   0  0  0  0  0  0  0  0  0  0  0  0
   41.4680   21.7760   35.1930 C   0  0  0  0  0  0  0  0  0  0  0  0
   42.0350   21.2970   36.3600 N   0  0  0  0  0  0  0  0  0  0  0  0
   41.9910   21.1820   38.4180 H   0  0  0  0  0  0  0  0  0  0  0  0
   39.9230   22.6140   38.5740 H   0  0  0  0  0  0  0  0  0  0  0  0
   41.8830   21.5570   34.2060 H   0  0  0  0  0  0  0  0  0  0  0  0
   38.0380   23.8990   37.8560 C   0  0  0  0  0  0  0  0  0  0  0  0
   38.0200   22.9530   38.4240 H   0  0  0  0  0  0  0  0  0  0  0  0
   37.0080   24.2890   37.8550 H   0  0  0  0  0  0  0  0  0  0  0  0
   38.6680   24.6830   38.3710 H   0  0  0  0  0  0  0  0  0  0  0  0
   38.7770   25.0530   35.8030 C   0  0  0  0  0  0  0  0  0  0  0  0
   38.5740   25.8350   36.5160 H   0  0  0  0  0  0  0  0  0  0  0  0
   39.8810   25.1240   35.5780 H   0  0  0  0  0  0  0  0  0  0  0  0
   38.0940   25.1890   34.5790 N   0  0  0  0  0  0  0  0  0  0  0  0
   37.8740   24.3830   33.5140 C   0  0  0  0  0  0  0  0  0  0  0  0
   37.1190   24.9480   32.5100 C   0  0  0  0  0  0  0  0  0  0  0  0
   36.8560   26.1660   32.9730 N   0  0  0  0  0  0  0  0  0  0  0  0
   37.4360   26.3110   34.2060 C   0  0  0  0  0  0  0  0  0  0  0  0
   38.2620   23.3680   33.4530 H   0  0  0  0  0  0  0  0  0  0  0  0
   36.8430   24.4650   31.5890 H   0  0  0  0  0  0  0  0  0  0  0  0
   37.2670   27.5980   34.8990 C   0  0  0  0  0  0  0  0  0  0  0  0
   36.3850   28.4580   34.6570 O   0  0  0  0  0  0  0  0  0  0  0  0
   38.0710   28.0420   35.9280 O   0  0  0  0  0  0  0  0  0  0  0  0
   37.7410   28.6620   36.6510 H   0  0  0  0  0  0  0  0  0  0  0  0
  1  2  1  6  0  0  0
  1 12  1  0  0  0  0
  3  4  1  0  0  0  0
  3  9  1  0  0  0  0
  4 10  1  0  0  0  0
  5  1  1  0  0  0  0
  5  4  2  0  0  0  0
  6  5  1  0  0  0  0
  7  6  2  0  0  0  0
  7  8  1  0  0  0  0
  8  3  2  0  0  0  0
 11  7  1  0  0  0  0
 12 15  1  0  0  0  0
 12 13  1  0  0  0  0
 14 12  1  0  0  0  0
 16  1  1  0  0  0  0
 16 17  1  0  0  0  0
 18 16  1  0  0  0  0
 19 16  1  0  0  0  0
 20 19  1  0  0  0  0
 21 22  1  0  0  0  0
 21 20  2  0  0  0  0
 22 23  2  0  0  0  0
 23 19  1  0  0  0  0
 23 26  1  0  0  0  0
 24 20  1  0  0  0  0
 25 21  1  0  0  0  0
 26 28  1  0  0  0  0
 27 26  2  0  0  0  0
 28 29  1  0  0  0  0
M  END
>  <minimizedAffinity>
-4.34424782

>  <minimizedRMSD>
1.05998909

$$$$
