
 OpenBabel03262519553D

 27 29  0  0  1  0  0  0  0  0999 V2000
   37.7120   23.3510   33.6730 C   0  0  0  0  0  0  0  0  0  0  0  0
   37.7240   24.5710   33.0080 C   0  0  0  0  0  0  0  0  0  0  0  0
   36.9460   24.3450   31.9030 N   0  0  0  0  0  0  0  0  0  0  0  0
   36.5340   23.0970   31.9460 C   0  0  0  0  0  0  0  0  0  0  0  0
   36.9840   22.4390   33.0300 N   0  0  0  0  0  0  0  0  0  0  0  0
   38.2330   25.4830   33.3070 H   0  0  0  0  0  0  0  0  0  0  0  0
   35.8910   22.6760   31.1630 H   0  0  0  0  0  0  0  0  0  0  0  0
   38.4100   23.0810   34.9300 C   0  0  0  0  0  0  0  0  0  0  0  0
   39.6170   22.3780   34.9290 C   0  0  0  0  0  0  0  0  0  0  0  0
   40.2500   22.1440   36.1700 C   0  0  0  0  0  0  0  0  0  0  0  0
   39.6540   22.6080   37.2760 N   0  0  0  0  0  0  0  0  0  0  0  0
   38.4750   23.2900   37.2450 C   0  0  0  0  0  0  0  0  0  0  0  0
   37.8500   23.5260   36.0740 N   0  0  0  0  0  0  0  0  0  0  0  0
   40.0440   22.0320   34.0120 H   0  0  0  0  0  0  0  0  0  0  0  0
   41.1800   21.6060   36.1940 H   0  0  0  0  0  0  0  0  0  0  0  0
   38.0080   23.6580   38.1550 H   0  0  0  0  0  0  0  0  0  0  0  0
   36.6910   21.0670   33.3310 C   0  0  1  0  0  0  0  0  0  0  0  0
   35.6740   20.6530   34.2820 C   0  0  0  0  0  0  0  0  0  0  0  0
   35.3490   20.6090   32.7940 C   0  0  2  0  0  0  0  0  0  0  0  0
   37.5690   20.4050   33.1990 H   0  0  0  0  0  0  0  0  0  0  0  0
   35.0970   21.4400   34.8330 H   0  0  0  0  0  0  0  0  0  0  0  0
   35.7490   19.7160   34.8410 H   0  0  0  0  0  0  0  0  0  0  0  0
   34.6220   21.3150   32.3920 H   0  0  0  0  0  0  0  0  0  0  0  0
   35.3740   19.2300   32.2030 C   0  0  0  0  0  0  0  0  0  0  0  0
   35.0960   18.2310   32.9250 O   0  0  0  0  0  0  0  0  0  0  0  0
   35.7080   19.0850   30.8570 O   0  0  0  0  0  0  0  0  0  0  0  0
   35.8200   18.1460   30.4480 H   0  0  0  0  0  0  0  0  0  0  0  0
  1  8  1  0  0  0  0
  2  6  1  0  0  0  0
  2  1  2  0  0  0  0
  3  4  2  0  0  0  0
  3  2  1  0  0  0  0
  4  5  1  0  0  0  0
  5 17  1  0  0  0  0
  5  1  1  0  0  0  0
  7  4  1  0  0  0  0
  8 13  1  0  0  0  0
  9  8  2  0  0  0  0
  9 10  1  0  0  0  0
 10 15  1  0  0  0  0
 10 11  2  0  0  0  0
 12 11  1  0  0  0  0
 12 16  1  0  0  0  0
 13 12  2  0  0  0  0
 14  9  1  0  0  0  0
 17 20  1  6  0  0  0
 17 18  1  0  0  0  0
 18 21  1  0  0  0  0
 18 22  1  0  0  0  0
 19 23  1  6  0  0  0
 19 17  1  0  0  0  0
 19 18  1  0  0  0  0
 24 19  1  0  0  0  0
 24 25  2  0  0  0  0
 26 24  1  0  0  0  0
 27 26  1  0  0  0  0
M  END
>  <minimizedAffinity>
-4.39423609

>  <minimizedRMSD>
1.24214315

$$$$
