
 OpenBabel03262519543D

 27 29  0  0  1  0  0  0  0  0999 V2000
   37.9330   23.4870   34.3350 C   0  0  0  0  0  0  0  0  0  0  0  0
   38.0680   24.6560   33.5960 C   0  0  0  0  0  0  0  0  0  0  0  0
   37.4980   24.3440   32.3890 N   0  0  0  0  0  0  0  0  0  0  0  0
   37.0790   23.0990   32.4500 C   0  0  0  0  0  0  0  0  0  0  0  0
   37.3270   22.5250   33.6410 N   0  0  0  0  0  0  0  0  0  0  0  0
   38.5200   25.5920   33.9130 H   0  0  0  0  0  0  0  0  0  0  0  0
   36.5830   22.6170   31.5970 H   0  0  0  0  0  0  0  0  0  0  0  0
   38.3950   23.3140   35.7120 C   0  0  0  0  0  0  0  0  0  0  0  0
   39.6530   22.7650   35.9690 C   0  0  0  0  0  0  0  0  0  0  0  0
   40.0520   22.6200   37.3170 C   0  0  0  0  0  0  0  0  0  0  0  0
   39.1980   23.0170   38.2690 N   0  0  0  0  0  0  0  0  0  0  0  0
   37.9760   23.5480   37.9870 C   0  0  0  0  0  0  0  0  0  0  0  0
   37.5720   23.6980   36.7100 N   0  0  0  0  0  0  0  0  0  0  0  0
   40.2920   22.4670   35.1650 H   0  0  0  0  0  0  0  0  0  0  0  0
   41.0160   22.2000   37.5390 H   0  0  0  0  0  0  0  0  0  0  0  0
   37.2970   23.8640   38.7760 H   0  0  0  0  0  0  0  0  0  0  0  0
   36.9790   21.1760   33.9840 C   0  0  1  0  0  0  0  0  0  0  0  0
   35.8090   20.8230   34.7700 C   0  0  0  0  0  0  0  0  0  0  0  0
   35.7490   20.6700   33.2540 C   0  0  2  0  0  0  0  0  0  0  0  0
   37.8630   20.5130   34.0560 H   0  0  0  0  0  0  0  0  0  0  0  0
   35.1480   21.6430   35.1530 H   0  0  0  0  0  0  0  0  0  0  0  0
   35.7800   19.9290   35.3990 H   0  0  0  0  0  0  0  0  0  0  0  0
   35.1070   21.3390   32.6830 H   0  0  0  0  0  0  0  0  0  0  0  0
   35.8700   19.2520   32.7790 C   0  0  0  0  0  0  0  0  0  0  0  0
   36.8830   18.8960   32.1100 O   0  0  0  0  0  0  0  0  0  0  0  0
   34.8510   18.3530   33.0910 O   0  0  0  0  0  0  0  0  0  0  0  0
   34.8630   17.3980   32.7030 H   0  0  0  0  0  0  0  0  0  0  0  0
  1  8  1  0  0  0  0
  2  6  1  0  0  0  0
  2  1  2  0  0  0  0
  3  4  2  0  0  0  0
  3  2  1  0  0  0  0
  4  5  1  0  0  0  0
  5 17  1  0  0  0  0
  5  1  1  0  0  0  0
  7  4  1  0  0  0  0
  8  9  2  0  0  0  0
  8 13  1  0  0  0  0
  9 10  1  0  0  0  0
 10 15  1  0  0  0  0
 10 11  2  0  0  0  0
 12 11  1  0  0  0  0
 12 16  1  0  0  0  0
 13 12  2  0  0  0  0
 14  9  1  0  0  0  0
 17 20  1  1  0  0  0
 17 18  1  0  0  0  0
 18 21  1  0  0  0  0
 18 22  1  0  0  0  0
 19 23  1  6  0  0  0
 19 17  1  0  0  0  0
 19 18  1  0  0  0  0
 24 26  1  0  0  0  0
 24 19  1  0  0  0  0
 25 24  2  0  0  0  0
 27 26  1  0  0  0  0
M  END
>  <minimizedAffinity>
-4.32913113

>  <minimizedRMSD>
0.659879029

$$$$
