
 OpenBabel03262518493D

 33 35  0  0  0  0  0  0  0  0999 V2000
   39.0770   20.9830   31.5940 C   0  0  0  0  0  0  0  0  0  0  0  0
   37.9370   20.9120   32.3250 C   0  0  0  0  0  0  0  0  0  0  0  0
   37.9080   21.3650   33.6240 C   0  0  0  0  0  0  0  0  0  0  0  0
   39.0190   21.9010   34.2320 C   0  0  0  0  0  0  0  0  0  0  0  0
   40.2010   21.9790   33.4840 C   0  0  0  0  0  0  0  0  0  0  0  0
   40.2540   21.5310   32.1730 C   0  0  0  0  0  0  0  0  0  0  0  0
   36.9940   21.3030   34.1990 H   0  0  0  0  0  0  0  0  0  0  0  0
   41.1100   22.3900   33.9010 H   0  0  0  0  0  0  0  0  0  0  0  0
   41.1740   21.6040   31.6260 H   0  0  0  0  0  0  0  0  0  0  0  0
   39.8760   22.7400   37.7030 C   0  0  0  0  0  0  0  0  0  0  0  0
   38.7330   23.3720   38.1630 C   0  0  0  0  0  0  0  0  0  0  0  0
   37.6860   23.5010   37.2730 C   0  0  0  0  0  0  0  0  0  0  0  0
   37.8130   23.0140   36.0110 N   0  0  0  0  0  0  0  0  0  0  0  0
   38.9820   22.3930   35.6140 C   0  0  0  0  0  0  0  0  0  0  0  0
   39.9900   22.2570   36.4370 N   0  0  0  0  0  0  0  0  0  0  0  0
   40.6960   22.6400   38.4010 H   0  0  0  0  0  0  0  0  0  0  0  0
   38.5970   23.7650   39.1390 H   0  0  0  0  0  0  0  0  0  0  0  0
   36.7350   23.9800   37.5140 H   0  0  0  0  0  0  0  0  0  0  0  0
   39.1890   20.2840   30.0550 S   0  0  0  0  0  0  0  0  0  0  0  0
   39.0790   21.4110   28.9850 O   0  0  0  0  0  0  0  0  0  0  0  0
   40.5130   19.6070   29.9780 O   0  0  0  0  0  0  0  0  0  0  0  0
   38.3280   19.0390   29.3860 C   0  0  0  0  0  0  0  0  0  0  0  0
   38.3840   17.6900   29.8110 C   0  0  0  0  0  0  0  0  0  0  0  0
   37.6900   16.6260   29.2890 C   0  0  0  0  0  0  0  0  0  0  0  0
   36.8810   16.8940   28.2820 N   0  0  0  0  0  0  0  0  0  0  0  0
   36.7630   18.1230   27.8200 C   0  0  0  0  0  0  0  0  0  0  0  0
   36.0800   18.3240   26.9780 H   0  0  0  0  0  0  0  0  0  0  0  0
   37.4420   19.1270   28.3390 N   0  0  0  0  0  0  0  0  0  0  0  0
   36.4260   20.2920   31.6290 S   0  0  0  0  0  0  0  0  0  0  0  0
   34.9660   20.9370   32.4580 C   0  0  0  0  0  0  0  0  0  0  0  0
   33.8140   20.3540   32.0120 F   0  0  0  0  0  0  0  0  0  0  0  0
   35.0770   20.5670   33.7920 F   0  0  0  0  0  0  0  0  0  0  0  0
   34.9390   22.3050   32.4490 F   0  0  0  0  0  0  0  0  0  0  0  0
  1  6  2  0  0  0  0
  1  2  1  0  0  0  0
  2  3  2  0  0  0  0
  3  7  1  0  0  0  0
  3  4  1  0  0  0  0
  4 14  1  0  0  0  0
  5  8  1  0  0  0  0
  5  4  2  0  0  0  0
  6  5  1  0  0  0  0
  9  6  1  0  0  0  0
 10 11  1  0  0  0  0
 10 16  1  0  0  0  0
 11 17  1  0  0  0  0
 12 18  1  0  0  0  0
 12 11  2  0  0  0  0
 13 12  1  0  0  0  0
 14 13  2  0  0  0  0
 14 15  1  0  0  0  0
 15 10  2  0  0  0  0
 19  1  1  0  0  0  0
 20 19  2  0  0  0  0
 21 19  2  0  0  0  0
 22 23  1  0  0  0  0
 22 19  1  0  0  0  0
 24 23  2  0  0  0  0
 25 24  1  0  0  0  0
 26 25  2  0  0  0  0
 26 28  1  0  0  0  0
 27 26  1  0  0  0  0
 28 22  2  0  0  0  0
 29  2  1  0  0  0  0
 29 30  1  0  0  0  0
 30 32  1  0  0  0  0
 31 30  1  0  0  0  0
 33 30  1  0  0  0  0
M  END
>  <minimizedAffinity>
-4.66532755

>  <minimizedRMSD>
1.85523522

$$$$
