
 OpenBabel03262519583D

 30 32  0  0  1  0  0  0  0  0999 V2000
   38.3490   23.9700   34.0600 C   0  0  0  0  0  0  0  0  0  0  0  0
   37.7130   22.7460   33.8580 C   0  0  0  0  0  0  0  0  0  0  0  0
   38.6620   21.8280   34.1990 N   0  0  0  0  0  0  0  0  0  0  0  0
   39.7560   22.4920   34.5680 C   0  0  0  0  0  0  0  0  0  0  0  0
   39.5890   23.8080   34.4920 N   0  0  0  0  0  0  0  0  0  0  0  0
   36.6820   22.6400   33.5020 H   0  0  0  0  0  0  0  0  0  0  0  0
   40.6530   21.9460   34.8860 H   0  0  0  0  0  0  0  0  0  0  0  0
   37.7360   25.2660   33.8190 C   0  0  0  0  0  0  0  0  0  0  0  0
   37.4690   25.6740   32.4940 C   0  0  0  0  0  0  0  0  0  0  0  0
   36.8670   26.9390   32.3060 C   0  0  0  0  0  0  0  0  0  0  0  0
   36.5860   27.6740   33.4150 N   0  0  0  0  0  0  0  0  0  0  0  0
   36.8600   27.2430   34.6680 C   0  0  0  0  0  0  0  0  0  0  0  0
   37.4310   26.0470   34.8720 N   0  0  0  0  0  0  0  0  0  0  0  0
   37.7290   25.0190   31.6790 H   0  0  0  0  0  0  0  0  0  0  0  0
   36.6560   27.2690   31.3030 H   0  0  0  0  0  0  0  0  0  0  0  0
   36.5760   27.9470   35.4350 H   0  0  0  0  0  0  0  0  0  0  0  0
   40.6010   24.7360   34.8340 C   0  0  1  0  0  0  0  0  0  0  0  0
   42.0180   24.5630   34.6790 C   0  0  0  0  0  0  0  0  0  0  0  0
   41.2210   25.4490   33.6800 C   0  0  2  0  0  0  0  0  0  0  0  0
   40.2800   25.3860   35.7210 H   0  0  0  0  0  0  0  0  0  0  0  0
   42.4350   23.6400   34.2490 H   0  0  0  0  0  0  0  0  0  0  0  0
   42.7410   25.0930   35.3210 H   0  0  0  0  0  0  0  0  0  0  0  0
   41.5570   26.9140   33.8630 C   0  0  0  0  0  0  0  0  0  0  0  0
   41.2000   27.6270   32.7360 F   0  0  0  0  0  0  0  0  0  0  0  0
   40.6820   27.4450   34.9010 F   0  0  0  0  0  0  0  0  0  0  0  0
   42.8120   27.1400   34.2800 F   0  0  0  0  0  0  0  0  0  0  0  0
   41.5080   24.9090   32.3190 C   0  0  0  0  0  0  0  0  0  0  0  0
   40.6670   24.2910   31.6130 O   0  0  0  0  0  0  0  0  0  0  0  0
   42.7630   25.0740   31.7590 O   0  0  0  0  0  0  0  0  0  0  0  0
   42.8880   25.1620   30.7380 H   0  0  0  0  0  0  0  0  0  0  0  0
  1  5  1  0  0  0  0
  2  1  2  0  0  0  0
  2  3  1  0  0  0  0
  3  4  2  0  0  0  0
  4  7  1  0  0  0  0
  5  4  1  0  0  0  0
  5 17  1  0  0  0  0
  6  2  1  0  0  0  0
  8  1  1  0  0  0  0
  8 13  1  0  0  0  0
  9  8  2  0  0  0  0
 10  9  1  0  0  0  0
 10 11  2  0  0  0  0
 11 12  1  0  0  0  0
 12 13  2  0  0  0  0
 12 16  1  0  0  0  0
 14  9  1  0  0  0  0
 15 10  1  0  0  0  0
 17 20  1  1  0  0  0
 18 17  1  0  0  0  0
 18 22  1  0  0  0  0
 19 27  1  6  0  0  0
 19 23  1  0  0  0  0
 19 18  1  0  0  0  0
 19 17  1  0  0  0  0
 21 18  1  0  0  0  0
 23 26  1  0  0  0  0
 23 25  1  0  0  0  0
 24 23  1  0  0  0  0
 28 27  2  0  0  0  0
 29 27  1  0  0  0  0
 30 29  1  0  0  0  0
M  END
>  <minimizedAffinity>
-3.55855966

>  <minimizedRMSD>
4.76569748

$$$$
