
 OpenBabel03262515393D

 41 44  0  0  0  0  0  0  0  0999 V2000
   38.3320   25.4470   35.0370 C   0  0  0  0  0  0  0  0  0  0  0  0
   37.7110   24.8150   34.3720 H   0  0  0  0  0  0  0  0  0  0  0  0
   39.2940   25.7050   34.5450 H   0  0  0  0  0  0  0  0  0  0  0  0
   38.0190   24.1450   38.5090 C   0  0  0  0  0  0  0  0  0  0  0  0
   39.0050   23.1650   38.5180 C   0  0  0  0  0  0  0  0  0  0  0  0
   39.7600   22.9590   37.3540 C   0  0  0  0  0  0  0  0  0  0  0  0
   39.4950   23.7240   36.2700 N   0  0  0  0  0  0  0  0  0  0  0  0
   38.5140   24.6820   36.2950 C   0  0  0  0  0  0  0  0  0  0  0  0
   37.7830   24.8930   37.4000 N   0  0  0  0  0  0  0  0  0  0  0  0
   37.4750   24.2530   39.4310 H   0  0  0  0  0  0  0  0  0  0  0  0
   39.2070   22.5590   39.3920 H   0  0  0  0  0  0  0  0  0  0  0  0
   40.7940   21.9370   37.3540 C   0  0  0  0  0  0  0  0  0  0  0  0
   41.0140   21.5760   38.3760 H   0  0  0  0  0  0  0  0  0  0  0  0
   40.3680   21.0440   36.8190 H   0  0  0  0  0  0  0  0  0  0  0  0
   42.0250   22.3430   36.6420 C   0  0  0  0  0  0  0  0  0  0  0  0
   42.4100   21.7930   35.3360 C   0  0  0  0  0  0  0  0  0  0  0  0
   43.0870   21.2330   36.5560 C   0  0  0  0  0  0  0  0  0  0  0  0
   42.4000   23.3560   36.8970 H   0  0  0  0  0  0  0  0  0  0  0  0
   41.6990   21.1900   34.7570 H   0  0  0  0  0  0  0  0  0  0  0  0
   43.1000   22.4150   34.7040 H   0  0  0  0  0  0  0  0  0  0  0  0
   44.1220   21.5370   36.7960 H   0  0  0  0  0  0  0  0  0  0  0  0
   42.7840   20.1950   36.8150 H   0  0  0  0  0  0  0  0  0  0  0  0
   37.6120   26.7300   35.3060 C   0  0  0  0  0  0  0  0  0  0  0  0
   38.2310   27.4160   35.9110 H   0  0  0  0  0  0  0  0  0  0  0  0
   36.6450   26.5810   35.8380 H   0  0  0  0  0  0  0  0  0  0  0  0
   37.2790   27.4450   34.0330 C   0  0  0  0  0  0  0  0  0  0  0  0
   36.2090   28.2310   33.8740 N   0  0  0  0  0  0  0  0  0  0  0  0
   36.1950   28.7050   32.6630 O   0  0  0  0  0  0  0  0  0  0  0  0
   37.2250   28.2620   32.0030 C   0  0  0  0  0  0  0  0  0  0  0  0
   37.9250   27.4650   32.8430 N   0  0  0  0  0  0  0  0  0  0  0  0
   37.6700   28.4840   30.6440 C   0  0  0  0  0  0  0  0  0  0  0  0
   38.4410   27.7260   29.7890 C   0  0  0  0  0  0  0  0  0  0  0  0
   38.5640   28.4180   28.5830 C   0  0  0  0  0  0  0  0  0  0  0  0
   37.8380   29.5850   28.7930 C   0  0  0  0  0  0  0  0  0  0  0  0
   37.3400   29.5870   29.9860 O   0  0  0  0  0  0  0  0  0  0  0  0
   38.8480   26.7510   30.0920 H   0  0  0  0  0  0  0  0  0  0  0  0
   39.1210   28.0500   27.7310 H   0  0  0  0  0  0  0  0  0  0  0  0
   37.7090   30.6010   27.7640 C   0  0  0  0  0  0  0  0  0  0  0  0
   37.0040   31.6220   27.9830 O   0  0  0  0  0  0  0  0  0  0  0  0
   38.3090   30.5480   26.5290 O   0  0  0  0  0  0  0  0  0  0  0  0
   37.9570   31.0510   25.7260 H   0  0  0  0  0  0  0  0  0  0  0  0
  1 23  1  0  0  0  0
  1  8  1  0  0  0  0
  2  1  1  0  0  0  0
  3  1  1  0  0  0  0
  4  5  1  0  0  0  0
  4 10  1  0  0  0  0
  5 11  1  0  0  0  0
  6 12  1  0  0  0  0
  6  5  2  0  0  0  0
  7  8  2  0  0  0  0
  7  6  1  0  0  0  0
  8  9  1  0  0  0  0
  9  4  2  0  0  0  0
 12 13  1  0  0  0  0
 14 12  1  0  0  0  0
 15 18  1  0  0  0  0
 15 12  1  0  0  0  0
 16 17  1  0  0  0  0
 16 15  1  0  0  0  0
 17 15  1  0  0  0  0
 17 21  1  0  0  0  0
 17 22  1  0  0  0  0
 19 16  1  0  0  0  0
 20 16  1  0  0  0  0
 23 25  1  0  0  0  0
 23 24  1  0  0  0  0
 26 23  1  0  0  0  0
 27 26  2  0  0  0  0
 28 27  1  0  0  0  0
 29 28  1  0  0  0  0
 29 30  2  0  0  0  0
 30 26  1  0  0  0  0
 31 29  1  0  0  0  0
 32 36  1  0  0  0  0
 32 31  2  0  0  0  0
 33 34  2  0  0  0  0
 33 32  1  0  0  0  0
 34 35  1  0  0  0  0
 35 31  1  0  0  0  0
 37 33  1  0  0  0  0
 38 39  2  0  0  0  0
 38 34  1  0  0  0  0
 40 38  1  0  0  0  0
 41 40  1  0  0  0  0
M  END
>  <minimizedAffinity>
-5.19982767

>  <minimizedRMSD>
0.763321877

$$$$
