
 OpenBabel03262519313D

 37 40  0  0  0  0  0  0  0  0999 V2000
   39.8540   22.6040   37.3200 C   0  0  0  0  0  0  0  0  0  0  0  0
   39.2840   23.4090   38.2990 C   0  0  0  0  0  0  0  0  0  0  0  0
   37.9060   23.6600   38.2100 C   0  0  0  0  0  0  0  0  0  0  0  0
   37.2070   23.1190   37.1960 N   0  0  0  0  0  0  0  0  0  0  0  0
   37.8080   22.3310   36.2510 C   0  0  0  0  0  0  0  0  0  0  0  0
   39.1080   22.0890   36.3280 N   0  0  0  0  0  0  0  0  0  0  0  0
   37.1400   21.7290   35.1590 N   0  0  0  0  0  0  0  0  0  0  0  0
   37.5990   21.9140   33.8780 C   0  0  0  0  0  0  0  0  0  0  0  0
   36.8980   21.2960   32.8490 C   0  0  0  0  0  0  0  0  0  0  0  0
   35.7780   20.5210   33.0900 C   0  0  0  0  0  0  0  0  0  0  0  0
   35.1440   19.9610   32.1550 O   0  0  0  0  0  0  0  0  0  0  0  0
   35.3630   20.3680   34.3710 N   0  0  0  0  0  0  0  0  0  0  0  0
   36.0400   20.9670   35.3770 C   0  0  0  0  0  0  0  0  0  0  0  0
   35.6720   20.8360   36.5620 O   0  0  0  0  0  0  0  0  0  0  0  0
   39.8560   23.8400   39.1100 H   0  0  0  0  0  0  0  0  0  0  0  0
   37.3860   24.2810   38.9390 H   0  0  0  0  0  0  0  0  0  0  0  0
   38.4680   22.5170   33.7140 H   0  0  0  0  0  0  0  0  0  0  0  0
   37.2420   21.4270   31.8290 H   0  0  0  0  0  0  0  0  0  0  0  0
   34.5130   19.7820   34.5720 H   0  0  0  0  0  0  0  0  0  0  0  0
   41.1960   22.3650   37.4140 O   0  0  0  0  0  0  0  0  0  0  0  0
   42.1540   22.7680   36.5200 C   0  0  0  0  0  0  0  0  0  0  0  0
   42.2370   24.0120   35.9010 C   0  0  0  0  0  0  0  0  0  0  0  0
   43.3080   24.0500   35.0870 N   0  0  0  0  0  0  0  0  0  0  0  0
   43.9650   22.8660   35.1270 C   0  0  0  0  0  0  0  0  0  0  0  0
   45.0980   22.4030   34.4900 C   0  0  0  0  0  0  0  0  0  0  0  0
   45.5340   21.1180   34.7380 C   0  0  0  0  0  0  0  0  0  0  0  0
   44.8250   20.3110   35.6270 C   0  0  0  0  0  0  0  0  0  0  0  0
   43.6950   20.7940   36.2540 C   0  0  0  0  0  0  0  0  0  0  0  0
   43.2560   22.0810   36.0050 C   0  0  0  0  0  0  0  0  0  0  0  0
   41.5240   24.8170   36.0730 H   0  0  0  0  0  0  0  0  0  0  0  0
   43.5850   24.8740   34.5120 H   0  0  0  0  0  0  0  0  0  0  0  0
   45.6420   23.0270   33.8050 H   0  0  0  0  0  0  0  0  0  0  0  0
   46.4140   20.6890   34.2750 H   0  0  0  0  0  0  0  0  0  0  0  0
   45.1730   19.2940   35.8230 H   0  0  0  0  0  0  0  0  0  0  0  0
   42.9840   19.9290   37.1710 C   0  0  0  0  0  0  0  0  0  0  0  0
   42.4170   20.2920   38.0170 H   0  0  0  0  0  0  0  0  0  0  0  0
   42.9800   18.6810   37.0370 O   0  0  0  0  0  0  0  0  0  0  0  0
  1 20  1  0  0  0  0
  1  2  1  0  0  0  0
  2 15  1  0  0  0  0
  3  2  2  0  0  0  0
  3 16  1  0  0  0  0
  4  3  1  0  0  0  0
  5  6  1  0  0  0  0
  5  4  2  0  0  0  0
  6  1  2  0  0  0  0
  7 13  1  0  0  0  0
  7  5  1  0  0  0  0
  8  7  1  0  0  0  0
  9 10  1  0  0  0  0
  9  8  2  0  0  0  0
 10 12  1  0  0  0  0
 11 10  2  0  0  0  0
 12 19  1  0  0  0  0
 12 13  1  0  0  0  0
 13 14  2  0  0  0  0
 17  8  1  0  0  0  0
 18  9  1  0  0  0  0
 21 20  1  0  0  0  0
 22 30  1  0  0  0  0
 22 21  2  0  0  0  0
 23 24  1  0  0  0  0
 23 22  1  0  0  0  0
 24 29  1  0  0  0  0
 25 26  1  0  0  0  0
 25 24  2  0  0  0  0
 26 27  2  0  0  0  0
 27 34  1  0  0  0  0
 27 28  1  0  0  0  0
 28 35  1  0  0  0  0
 29 28  2  0  0  0  0
 29 21  1  0  0  0  0
 31 23  1  0  0  0  0
 32 25  1  0  0  0  0
 33 26  1  0  0  0  0
 35 36  1  0  0  0  0
 37 35  2  0  0  0  0
M  END
>  <minimizedAffinity>
-5.85730028

>  <minimizedRMSD>
1.06094873

$$$$
