
 OpenBabel03262519593D

 29 31  0  0  1  0  0  0  0  0999 V2000
   37.6300   23.6940   33.0050 C   0  0  0  0  0  0  0  0  0  0  0  0
   36.7340   22.8320   32.3720 C   0  0  0  0  0  0  0  0  0  0  0  0
   36.9410   21.6390   33.0040 N   0  0  0  0  0  0  0  0  0  0  0  0
   37.8890   21.8220   33.9250 C   0  0  0  0  0  0  0  0  0  0  0  0
   38.3250   23.0760   33.9430 N   0  0  0  0  0  0  0  0  0  0  0  0
   36.0330   23.0680   31.5610 H   0  0  0  0  0  0  0  0  0  0  0  0
   38.2050   20.9730   34.5490 H   0  0  0  0  0  0  0  0  0  0  0  0
   37.7880   25.0960   32.6720 C   0  0  0  0  0  0  0  0  0  0  0  0
   38.7600   25.4970   31.7320 C   0  0  0  0  0  0  0  0  0  0  0  0
   38.8600   26.8770   31.4460 C   0  0  0  0  0  0  0  0  0  0  0  0
   38.0190   27.7300   32.0910 N   0  0  0  0  0  0  0  0  0  0  0  0
   37.0970   27.3010   32.9900 C   0  0  0  0  0  0  0  0  0  0  0  0
   36.9720   26.0000   33.2870 N   0  0  0  0  0  0  0  0  0  0  0  0
   39.3400   24.7130   31.3160 H   0  0  0  0  0  0  0  0  0  0  0  0
   39.5990   27.1530   30.7340 H   0  0  0  0  0  0  0  0  0  0  0  0
   36.5040   28.0970   33.4160 H   0  0  0  0  0  0  0  0  0  0  0  0
   39.3320   23.5310   34.8290 C   0  0  1  0  0  0  0  0  0  0  0  0
   39.2590   24.6750   35.6960 C   0  0  0  0  0  0  0  0  0  0  0  0
   39.0740   23.2360   36.2720 C   0  0  2  0  0  0  0  0  0  0  0  0
   40.3670   23.2710   34.4480 H   0  0  0  0  0  0  0  0  0  0  0  0
   40.1980   25.1940   35.9960 H   0  0  0  0  0  0  0  0  0  0  0  0
   38.3780   25.3100   35.8280 H   0  0  0  0  0  0  0  0  0  0  0  0
   40.2560   22.8420   37.1260 C   0  0  0  0  0  0  0  0  0  0  0  0
   39.9750   23.0480   38.4590 F   0  0  0  0  0  0  0  0  0  0  0  0
   40.4000   21.3890   37.0380 F   0  0  0  0  0  0  0  0  0  0  0  0
   41.4290   23.3500   36.7210 F   0  0  0  0  0  0  0  0  0  0  0  0
   37.7500   23.2050   36.9750 C   0  0  0  0  0  0  0  0  0  0  0  0
   36.9390   22.5050   37.0130 H   0  0  0  0  0  0  0  0  0  0  0  0
   37.6870   24.2650   37.6170 O   0  0  0  0  0  0  0  0  0  0  0  0
  1  5  1  0  0  0  0
  2  3  1  0  0  0  0
  2  1  2  0  0  0  0
  3  4  2  0  0  0  0
  4  5  1  0  0  0  0
  4  7  1  0  0  0  0
  5 17  1  0  0  0  0
  6  2  1  0  0  0  0
  8  1  1  0  0  0  0
  8 13  1  0  0  0  0
  9  8  2  0  0  0  0
 10  9  1  0  0  0  0
 10 11  2  0  0  0  0
 11 12  1  0  0  0  0
 12 13  2  0  0  0  0
 12 16  1  0  0  0  0
 14  9  1  0  0  0  0
 15 10  1  0  0  0  0
 17 20  1  6  0  0  0
 17 18  1  0  0  0  0
 17 19  1  0  0  0  0
 18 22  1  0  0  0  0
 18 21  1  0  0  0  0
 18 19  1  0  0  0  0
 19 27  1  1  0  0  0
 19 23  1  0  0  0  0
 23 24  1  0  0  0  0
 25 23  1  0  0  0  0
 26 23  1  0  0  0  0
 27 28  1  0  0  0  0
 27 29  2  0  0  0  0
M  END
>  <minimizedAffinity>
-4.50142241

>  <minimizedRMSD>
1.75556982

$$$$
