
 OpenBabel03262519593D

 29 31  0  0  1  0  0  0  0  0999 V2000
   37.6310   23.6050   32.9740 C   0  0  0  0  0  0  0  0  0  0  0  0
   36.6640   22.7960   32.3770 C   0  0  0  0  0  0  0  0  0  0  0  0
   36.8670   21.5760   32.9580 N   0  0  0  0  0  0  0  0  0  0  0  0
   37.8780   21.6960   33.8200 C   0  0  0  0  0  0  0  0  0  0  0  0
   38.3610   22.9330   33.8460 N   0  0  0  0  0  0  0  0  0  0  0  0
   35.9220   23.0810   31.6200 H   0  0  0  0  0  0  0  0  0  0  0  0
   38.2010   20.8180   34.3970 H   0  0  0  0  0  0  0  0  0  0  0  0
   37.8210   25.0100   32.6720 C   0  0  0  0  0  0  0  0  0  0  0  0
   38.7890   25.4090   31.7270 C   0  0  0  0  0  0  0  0  0  0  0  0
   38.9210   26.7920   31.4730 C   0  0  0  0  0  0  0  0  0  0  0  0
   38.1110   27.6500   32.1500 N   0  0  0  0  0  0  0  0  0  0  0  0
   37.1900   27.2230   33.0520 C   0  0  0  0  0  0  0  0  0  0  0  0
   37.0370   25.9190   33.3200 N   0  0  0  0  0  0  0  0  0  0  0  0
   39.3430   24.6210   31.2840 H   0  0  0  0  0  0  0  0  0  0  0  0
   39.6560   27.0670   30.7570 H   0  0  0  0  0  0  0  0  0  0  0  0
   36.6240   28.0240   33.5060 H   0  0  0  0  0  0  0  0  0  0  0  0
   39.4400   23.3230   34.6770 C   0  0  1  0  0  0  0  0  0  0  0  0
   39.5970   24.5890   35.3420 C   0  0  0  0  0  0  0  0  0  0  0  0
   39.1300   23.3310   36.1400 C   0  0  2  0  0  0  0  0  0  0  0  0
   40.4020   22.8060   34.3770 H   0  0  0  0  0  0  0  0  0  0  0  0
   40.6210   24.9570   35.5820 H   0  0  0  0  0  0  0  0  0  0  0  0
   38.8600   25.3970   35.3390 H   0  0  0  0  0  0  0  0  0  0  0  0
   40.2120   22.8620   37.0840 C   0  0  0  0  0  0  0  0  0  0  0  0
   39.8120   23.0280   38.3920 F   0  0  0  0  0  0  0  0  0  0  0  0
   40.3150   21.4090   36.9500 F   0  0  0  0  0  0  0  0  0  0  0  0
   41.4340   23.3410   36.8130 F   0  0  0  0  0  0  0  0  0  0  0  0
   37.8270   23.6780   36.7960 C   0  0  0  0  0  0  0  0  0  0  0  0
   36.8810   23.1830   36.8900 H   0  0  0  0  0  0  0  0  0  0  0  0
   37.9970   24.7980   37.3030 O   0  0  0  0  0  0  0  0  0  0  0  0
  1  5  1  0  0  0  0
  2  3  1  0  0  0  0
  2  1  2  0  0  0  0
  3  4  2  0  0  0  0
  4  5  1  0  0  0  0
  4  7  1  0  0  0  0
  5 17  1  0  0  0  0
  6  2  1  0  0  0  0
  8  1  1  0  0  0  0
  8 13  1  0  0  0  0
  9  8  2  0  0  0  0
 10  9  1  0  0  0  0
 10 11  2  0  0  0  0
 11 12  1  0  0  0  0
 12 13  2  0  0  0  0
 12 16  1  0  0  0  0
 14  9  1  0  0  0  0
 15 10  1  0  0  0  0
 17 20  1  6  0  0  0
 17 18  1  0  0  0  0
 17 19  1  0  0  0  0
 18 21  1  0  0  0  0
 18 19  1  0  0  0  0
 19 27  1  1  0  0  0
 19 23  1  0  0  0  0
 22 18  1  0  0  0  0
 23 24  1  0  0  0  0
 25 23  1  0  0  0  0
 26 23  1  0  0  0  0
 27 28  1  0  0  0  0
 27 29  2  0  0  0  0
M  END
>  <minimizedAffinity>
-4.42033577

>  <minimizedRMSD>
1.79814029

$$$$
