
 OpenBabel03262519553D

 26 28  0  0  1  0  0  0  0  0999 V2000
   38.7250   23.8890   34.6960 C   0  0  0  0  0  0  0  0  0  0  0  0
   37.9360   23.1390   33.8460 C   0  0  0  0  0  0  0  0  0  0  0  0
   38.2290   23.6200   32.6040 N   0  0  0  0  0  0  0  0  0  0  0  0
   39.1240   24.5770   32.7450 C   0  0  0  0  0  0  0  0  0  0  0  0
   39.4610   24.7790   34.0330 N   0  0  0  0  0  0  0  0  0  0  0  0
   37.2410   22.3440   34.1380 H   0  0  0  0  0  0  0  0  0  0  0  0
   39.4910   25.0950   31.8450 H   0  0  0  0  0  0  0  0  0  0  0  0
   38.7600   23.7400   36.1400 C   0  0  0  0  0  0  0  0  0  0  0  0
   37.8180   24.3780   36.9470 C   0  0  0  0  0  0  0  0  0  0  0  0
   37.8920   24.2040   38.3430 C   0  0  0  0  0  0  0  0  0  0  0  0
   38.8770   23.4250   38.8240 N   0  0  0  0  0  0  0  0  0  0  0  0
   39.7910   22.8080   38.0210 C   0  0  0  0  0  0  0  0  0  0  0  0
   39.7300   22.9670   36.6910 N   0  0  0  0  0  0  0  0  0  0  0  0
   37.0580   24.9870   36.4820 H   0  0  0  0  0  0  0  0  0  0  0  0
   37.1670   24.6940   38.9750 H   0  0  0  0  0  0  0  0  0  0  0  0
   40.5730   22.1880   38.4210 H   0  0  0  0  0  0  0  0  0  0  0  0
   40.4170   25.7640   34.4730 C   0  0  1  0  0  0  0  0  0  0  0  0
   40.6460   27.0200   33.7800 C   0  0  0  0  0  0  0  0  0  0  0  0
   39.7740   27.0090   35.0310 C   0  0  1  0  0  0  0  0  0  0  0  0
   41.2660   25.3470   35.0700 H   0  0  0  0  0  0  0  0  0  0  0  0
   41.6500   27.5020   33.8810 H   0  0  0  0  0  0  0  0  0  0  0  0
   40.2150   27.1690   32.7940 H   0  0  0  0  0  0  0  0  0  0  0  0
   40.2120   27.5070   35.9170 H   0  0  0  0  0  0  0  0  0  0  0  0
   38.3850   27.3680   34.7360 C   0  0  0  0  0  0  0  0  0  0  0  0
   37.9270   27.2820   33.7570 H   0  0  0  0  0  0  0  0  0  0  0  0
   37.7370   27.7920   35.7070 O   0  0  0  0  0  0  0  0  0  0  0  0
  1  8  1  0  0  0  0
  2  6  1  0  0  0  0
  2  1  2  0  0  0  0
  3  4  2  0  0  0  0
  3  2  1  0  0  0  0
  4  5  1  0  0  0  0
  5 17  1  0  0  0  0
  5  1  1  0  0  0  0
  7  4  1  0  0  0  0
  8 13  2  0  0  0  0
  8  9  1  0  0  0  0
  9 10  2  0  0  0  0
 10 11  1  0  0  0  0
 10 15  1  0  0  0  0
 12 16  1  0  0  0  0
 12 11  2  0  0  0  0
 13 12  1  0  0  0  0
 14  9  1  0  0  0  0
 17 19  1  0  0  0  0
 17 20  1  1  0  0  0
 18 21  1  0  0  0  0
 18 17  1  0  0  0  0
 18 19  1  0  0  0  0
 19 23  1  1  0  0  0
 22 18  1  0  0  0  0
 24 19  1  0  0  0  0
 24 26  2  0  0  0  0
 25 24  1  0  0  0  0
M  END
>  <minimizedAffinity>
-4.17263079

>  <minimizedRMSD>
4.17826509

$$$$
