
 OpenBabel03262518583D

 31 33  0  0  0  0  0  0  0  0999 V2000
   38.9590   26.6230   35.3160 C   0  0  0  0  0  0  0  0  0  0  0  0
   40.0720   27.0870   34.6430 C   0  0  0  0  0  0  0  0  0  0  0  0
   41.1420   26.2690   34.4050 C   0  0  0  0  0  0  0  0  0  0  0  0
   41.1490   24.9470   34.8300 C   0  0  0  0  0  0  0  0  0  0  0  0
   40.0360   24.4730   35.5060 C   0  0  0  0  0  0  0  0  0  0  0  0
   40.0240   23.1620   35.9400 C   0  0  0  0  0  0  0  0  0  0  0  0
   38.9460   22.6420   36.6170 C   0  0  0  0  0  0  0  0  0  0  0  0
   37.8540   23.4620   36.8620 C   0  0  0  0  0  0  0  0  0  0  0  0
   37.8880   24.7750   36.4180 C   0  0  0  0  0  0  0  0  0  0  0  0
   38.9620   25.3260   35.7350 C   0  0  0  0  0  0  0  0  0  0  0  0
   40.0860   28.1130   34.3050 H   0  0  0  0  0  0  0  0  0  0  0  0
   41.9790   26.6860   33.8770 H   0  0  0  0  0  0  0  0  0  0  0  0
   42.0010   24.2990   34.6390 H   0  0  0  0  0  0  0  0  0  0  0  0
   40.8850   22.5410   35.7370 H   0  0  0  0  0  0  0  0  0  0  0  0
   38.9690   21.6070   36.9440 H   0  0  0  0  0  0  0  0  0  0  0  0
   37.0080   23.0480   37.3950 H   0  0  0  0  0  0  0  0  0  0  0  0
   36.9940   25.3300   36.6530 H   0  0  0  0  0  0  0  0  0  0  0  0
   37.8100   27.4810   35.6060 C   0  0  0  0  0  0  0  0  0  0  0  0
   37.2540   27.2890   36.5170 H   0  0  0  0  0  0  0  0  0  0  0  0
   38.3150   28.4810   35.8520 H   0  0  0  0  0  0  0  0  0  0  0  0
   35.4480   29.2030   33.3960 C   0  0  0  0  0  0  0  0  0  0  0  0
   35.3750   28.4010   32.2650 C   0  0  0  0  0  0  0  0  0  0  0  0
   36.1550   27.2310   32.2590 C   0  0  0  0  0  0  0  0  0  0  0  0
   36.9340   26.9460   33.3470 N   0  0  0  0  0  0  0  0  0  0  0  0
   36.9640   27.7540   34.4050 C   0  0  0  0  0  0  0  0  0  0  0  0
   36.2300   28.8790   34.4420 N   0  0  0  0  0  0  0  0  0  0  0  0
   34.8410   30.0920   33.3750 H   0  0  0  0  0  0  0  0  0  0  0  0
   34.7580   28.6290   31.4040 H   0  0  0  0  0  0  0  0  0  0  0  0
   36.1290   26.3430   31.1100 C   0  0  0  0  0  0  0  0  0  0  0  0
   36.9960   26.2810   30.4850 H   0  0  0  0  0  0  0  0  0  0  0  0
   35.0990   25.6710   30.8740 O   0  0  0  0  0  0  0  0  0  0  0  0
  1 18  1  0  0  0  0
  1 10  1  0  0  0  0
  2  1  2  0  0  0  0
  3  2  1  0  0  0  0
  3  4  2  0  0  0  0
  4  5  1  0  0  0  0
  5 10  2  0  0  0  0
  5  6  1  0  0  0  0
  6  7  2  0  0  0  0
  7  8  1  0  0  0  0
  7 15  1  0  0  0  0
  8 16  1  0  0  0  0
  9 17  1  0  0  0  0
  9  8  2  0  0  0  0
 10  9  1  0  0  0  0
 11  2  1  0  0  0  0
 12  3  1  0  0  0  0
 13  4  1  0  0  0  0
 14  6  1  0  0  0  0
 18 20  1  0  0  0  0
 18 19  1  0  0  0  0
 21 26  1  0  0  0  0
 22 21  2  0  0  0  0
 23 22  1  0  0  0  0
 23 24  2  0  0  0  0
 24 25  1  0  0  0  0
 25 26  2  0  0  0  0
 25 18  1  0  0  0  0
 27 21  1  0  0  0  0
 28 22  1  0  0  0  0
 29 23  1  0  0  0  0
 30 29  1  0  0  0  0
 31 29  2  0  0  0  0
M  END
>  <minimizedAffinity>
-5.2934823

>  <minimizedRMSD>
0.499375194

$$$$
