
 OpenBabel03262519593D

 29 31  0  0  1  0  0  0  0  0999 V2000
   39.7410   25.0420   33.7760 C   0  0  0  0  0  0  0  0  0  0  0  0
   40.8520   24.6160   33.0500 C   0  0  0  0  0  0  0  0  0  0  0  0
   41.6960   24.1370   34.0130 N   0  0  0  0  0  0  0  0  0  0  0  0
   41.0970   24.2880   35.1950 C   0  0  0  0  0  0  0  0  0  0  0  0
   39.8950   24.8410   35.0730 N   0  0  0  0  0  0  0  0  0  0  0  0
   41.0030   24.6590   31.9640 H   0  0  0  0  0  0  0  0  0  0  0  0
   41.6160   23.9620   36.1070 H   0  0  0  0  0  0  0  0  0  0  0  0
   38.5600   25.6420   33.1860 C   0  0  0  0  0  0  0  0  0  0  0  0
   38.4280   27.0450   33.1310 C   0  0  0  0  0  0  0  0  0  0  0  0
   37.2570   27.5660   32.5370 C   0  0  0  0  0  0  0  0  0  0  0  0
   36.3330   26.6900   32.0590 N   0  0  0  0  0  0  0  0  0  0  0  0
   36.5000   25.3440   32.1320 C   0  0  0  0  0  0  0  0  0  0  0  0
   37.5980   24.8120   32.6880 N   0  0  0  0  0  0  0  0  0  0  0  0
   39.2340   27.5930   33.5470 H   0  0  0  0  0  0  0  0  0  0  0  0
   37.1820   28.6260   32.5060 H   0  0  0  0  0  0  0  0  0  0  0  0
   35.6810   24.7820   31.7090 H   0  0  0  0  0  0  0  0  0  0  0  0
   39.0530   25.1100   36.1790 C   0  0  1  0  0  0  0  0  0  0  0  0
   37.6160   25.1330   36.1790 C   0  0  0  0  0  0  0  0  0  0  0  0
   38.3850   23.9070   36.7630 C   0  0  2  0  0  0  0  0  0  0  0  0
   39.5520   25.8080   36.9200 H   0  0  0  0  0  0  0  0  0  0  0  0
   37.0790   25.7630   36.9250 H   0  0  0  0  0  0  0  0  0  0  0  0
   36.9830   24.8790   35.3230 H   0  0  0  0  0  0  0  0  0  0  0  0
   38.2410   23.8490   38.2660 C   0  0  0  0  0  0  0  0  0  0  0  0
   37.3160   22.8920   38.6230 F   0  0  0  0  0  0  0  0  0  0  0  0
   39.4920   23.3200   38.8090 F   0  0  0  0  0  0  0  0  0  0  0  0
   38.0620   25.0400   38.8550 F   0  0  0  0  0  0  0  0  0  0  0  0
   37.8990   22.6890   36.0350 C   0  0  0  0  0  0  0  0  0  0  0  0
   36.9820   22.4240   35.5470 H   0  0  0  0  0  0  0  0  0  0  0  0
   38.8410   21.8810   36.0690 O   0  0  0  0  0  0  0  0  0  0  0  0
  1  5  1  0  0  0  0
  2  1  2  0  0  0  0
  2  3  1  0  0  0  0
  3  4  2  0  0  0  0
  4  7  1  0  0  0  0
  5  4  1  0  0  0  0
  5 17  1  0  0  0  0
  6  2  1  0  0  0  0
  8  1  1  0  0  0  0
  9  8  1  0  0  0  0
  9 14  1  0  0  0  0
 10  9  2  0  0  0  0
 11 12  2  0  0  0  0
 11 10  1  0  0  0  0
 12 13  1  0  0  0  0
 13  8  2  0  0  0  0
 15 10  1  0  0  0  0
 16 12  1  0  0  0  0
 17 19  1  0  0  0  0
 17 20  1  1  0  0  0
 18 17  1  0  0  0  0
 18 19  1  0  0  0  0
 18 21  1  0  0  0  0
 19 27  1  6  0  0  0
 19 23  1  0  0  0  0
 22 18  1  0  0  0  0
 23 24  1  0  0  0  0
 23 25  1  0  0  0  0
 23 26  1  0  0  0  0
 27 29  2  0  0  0  0
 28 27  1  0  0  0  0
M  END
>  <minimizedAffinity>
-4.75102568

>  <minimizedRMSD>
2.31840777

$$$$
