
 OpenBabel03262519593D

 29 31  0  0  1  0  0  0  0  0999 V2000
   39.6810   25.1770   33.6590 C   0  0  0  0  0  0  0  0  0  0  0  0
   40.8080   24.8030   32.9260 C   0  0  0  0  0  0  0  0  0  0  0  0
   41.6770   24.3590   33.8820 N   0  0  0  0  0  0  0  0  0  0  0  0
   41.0760   24.4780   35.0680 C   0  0  0  0  0  0  0  0  0  0  0  0
   39.8510   24.9760   34.9540 N   0  0  0  0  0  0  0  0  0  0  0  0
   40.9520   24.8580   31.8390 H   0  0  0  0  0  0  0  0  0  0  0  0
   41.6140   24.1710   35.9770 H   0  0  0  0  0  0  0  0  0  0  0  0
   38.4720   25.7250   33.0770 C   0  0  0  0  0  0  0  0  0  0  0  0
   38.2800   27.1210   33.0220 C   0  0  0  0  0  0  0  0  0  0  0  0
   37.0840   27.5920   32.4370 C   0  0  0  0  0  0  0  0  0  0  0  0
   36.1950   26.6770   31.9650 N   0  0  0  0  0  0  0  0  0  0  0  0
   36.4200   25.3400   32.0370 C   0  0  0  0  0  0  0  0  0  0  0  0
   37.5430   24.8550   32.5860 N   0  0  0  0  0  0  0  0  0  0  0  0
   39.0650   27.7040   33.4330 H   0  0  0  0  0  0  0  0  0  0  0  0
   36.9640   28.6470   32.4060 H   0  0  0  0  0  0  0  0  0  0  0  0
   35.6220   24.7430   31.6200 H   0  0  0  0  0  0  0  0  0  0  0  0
   39.0030   25.2030   36.0660 C   0  0  1  0  0  0  0  0  0  0  0  0
   37.5650   25.1670   36.0700 C   0  0  0  0  0  0  0  0  0  0  0  0
   38.3860   23.9680   36.6420 C   0  0  2  0  0  0  0  0  0  0  0  0
   39.4760   25.9140   36.8100 H   0  0  0  0  0  0  0  0  0  0  0  0
   37.0060   25.7680   36.8230 H   0  0  0  0  0  0  0  0  0  0  0  0
   36.9400   24.8930   35.2150 H   0  0  0  0  0  0  0  0  0  0  0  0
   38.2510   23.8930   38.1450 C   0  0  0  0  0  0  0  0  0  0  0  0
   37.3160   22.9430   38.4950 F   0  0  0  0  0  0  0  0  0  0  0  0
   39.4980   23.3420   38.6740 F   0  0  0  0  0  0  0  0  0  0  0  0
   38.0890   25.0780   38.7500 F   0  0  0  0  0  0  0  0  0  0  0  0
   37.9480   22.7370   35.9060 C   0  0  0  0  0  0  0  0  0  0  0  0
   37.0570   22.4560   35.3820 H   0  0  0  0  0  0  0  0  0  0  0  0
   38.8980   21.9420   35.9900 O   0  0  0  0  0  0  0  0  0  0  0  0
  1  5  1  0  0  0  0
  2  1  2  0  0  0  0
  2  3  1  0  0  0  0
  3  4  2  0  0  0  0
  4  7  1  0  0  0  0
  5  4  1  0  0  0  0
  5 17  1  0  0  0  0
  6  2  1  0  0  0  0
  8  1  1  0  0  0  0
  9  8  1  0  0  0  0
  9 14  1  0  0  0  0
 10  9  2  0  0  0  0
 11 12  2  0  0  0  0
 11 10  1  0  0  0  0
 12 13  1  0  0  0  0
 13  8  2  0  0  0  0
 15 10  1  0  0  0  0
 16 12  1  0  0  0  0
 17 18  1  0  0  0  0
 17 19  1  0  0  0  0
 17 20  1  1  0  0  0
 18 19  1  0  0  0  0
 18 21  1  0  0  0  0
 19 27  1  6  0  0  0
 19 23  1  0  0  0  0
 22 18  1  0  0  0  0
 23 24  1  0  0  0  0
 23 25  1  0  0  0  0
 23 26  1  0  0  0  0
 27 29  2  0  0  0  0
 28 27  1  0  0  0  0
M  END
>  <minimizedAffinity>
-4.72672892

>  <minimizedRMSD>
2.3894918

$$$$
