
 OpenBabel03262515533D

 15 15  0  0  0  0  0  0  0  0999 V2000
   38.5630   23.2820   36.2610 C   0  0  0  0  0  0  0  0  0  0  0  0
   38.2760   24.4630   35.5700 C   0  0  0  0  0  0  0  0  0  0  0  0
   38.0110   24.3070   34.2210 C   0  0  0  0  0  0  0  0  0  0  0  0
   38.0480   23.0670   33.6840 N   0  0  0  0  0  0  0  0  0  0  0  0
   38.3320   21.9690   34.3980 C   0  0  0  0  0  0  0  0  0  0  0  0
   38.5890   22.0850   35.6950 N   0  0  0  0  0  0  0  0  0  0  0  0
   37.7770   25.1520   33.5880 H   0  0  0  0  0  0  0  0  0  0  0  0
   38.3440   21.0050   33.9010 H   0  0  0  0  0  0  0  0  0  0  0  0
   38.2520   25.8150   36.1860 C   0  0  0  0  0  0  0  0  0  0  0  0
   39.4660   26.4260   35.8540 F   0  0  0  0  0  0  0  0  0  0  0  0
   38.1240   25.7780   37.5240 F   0  0  0  0  0  0  0  0  0  0  0  0
   37.2780   26.6150   35.5580 F   0  0  0  0  0  0  0  0  0  0  0  0
   38.8470   23.3570   37.6640 C   0  0  0  0  0  0  0  0  0  0  0  0
   38.7430   24.2470   38.2670 H   0  0  0  0  0  0  0  0  0  0  0  0
   39.1290   23.2660   38.8590 O   0  0  0  0  0  0  0  0  0  0  0  0
  1 13  1  0  0  0  0
  2  9  1  0  0  0  0
  2  1  2  0  0  0  0
  3  2  1  0  0  0  0
  4  3  2  0  0  0  0
  4  5  1  0  0  0  0
  5  6  2  0  0  0  0
  6  1  1  0  0  0  0
  7  3  1  0  0  0  0
  8  5  1  0  0  0  0
  9 11  1  0  0  0  0
 10  9  1  0  0  0  0
 12  9  1  0  0  0  0
 13 14  1  0  0  0  0
 13 15  2  0  0  0  0
M  END
>  <minimizedAffinity>
-3.63540387

>  <minimizedRMSD>
2.94114375

$$$$
