REMARK  Name = 
REMARK  4 active torsions:
REMARK  status: ('A' for Active; 'I' for Inactive)
REMARK    1  A    between atoms: C_1  and  C_6
REMARK    2  A    between atoms: N_5  and  C_12
REMARK    3  A    between atoms: C_14  and  C_15
REMARK    4  A    between atoms: C_14  and  C_27
REMARK                            x       y       z     vdW  Elec       q    Type
REMARK                         _______ _______ _______ _____ _____    ______ ____
ROOT
ATOM      1  C   UNL     1      37.875  23.697  33.501  0.00  0.00    +0.000 A 
ATOM      2  C   UNL     1      37.468  22.659  32.663  0.00  0.00    +0.000 A 
ATOM      3  N   UNL     1      37.478  21.566  33.483  0.00  0.00    +0.000 NA
ATOM      4  C   UNL     1      37.865  21.967  34.695  0.00  0.00    +0.000 A 
ATOM      5  N   UNL     1      38.113  23.271  34.729  0.00  0.00    +0.000 N 
ATOM      6  H   UNL     1      37.205  22.717  31.599  0.00  0.00    +0.000 HD
ATOM      7  H   UNL     1      37.939  21.230  35.508  0.00  0.00    +0.000 HD
ENDROOT
BRANCH   1   8
ATOM      8  C   UNL     1      38.027  25.076  33.079  0.00  0.00    +0.000 A 
ATOM      9  C   UNL     1      39.305  25.587  32.771  0.00  0.00    +0.000 A 
ATOM     10  C   UNL     1      39.385  26.936  32.360  0.00  0.00    +0.000 A 
ATOM     11  N   UNL     1      38.233  27.656  32.287  0.00  0.00    +0.000 NA
ATOM     12  C   UNL     1      37.022  27.124  32.593  0.00  0.00    +0.000 A 
ATOM     13  N   UNL     1      36.906  25.848  32.987  0.00  0.00    +0.000 NA
ATOM     14  H   UNL     1      40.106  24.901  32.877  0.00  0.00    +0.000 HD
ATOM     15  H   UNL     1      40.358  27.297  32.132  0.00  0.00    +0.000 HD
ATOM     16  H   UNL     1      36.203  27.820  32.486  0.00  0.00    +0.000 HD
ENDBRANCH   1   8
BRANCH   5  17
ATOM     17  C   UNL     1      38.541  23.946  35.898  0.00  0.00    +0.000 C 
ATOM     18  C   UNL     1      38.090  25.230  36.362  0.00  0.00    +0.000 C 
ATOM     19  C   UNL     1      37.562  23.920  37.028  0.00  0.00    +0.000 C 
ATOM     20  H   UNL     1      39.610  23.679  36.163  0.00  0.00    +0.000 HD
ATOM     21  H   UNL     1      38.765  25.851  36.994  0.00  0.00    +0.000 HD
ATOM     22  H   UNL     1      37.300  25.826  35.895  0.00  0.00    +0.000 HD
BRANCH  19  23
ATOM     23  C   UNL     1      38.114  23.768  38.426  0.00  0.00    +0.000 C 
ATOM     24  F   UNL     1      37.513  22.706  39.066  0.00  0.00    +0.000 F 
ATOM     25  F   UNL     1      39.507  23.338  38.306  0.00  0.00    +0.000 F 
ATOM     26  F   UNL     1      38.142  24.902  39.140  0.00  0.00    +0.000 F 
ENDBRANCH  19  23
BRANCH  19  27
ATOM     27  C   UNL     1      36.065  23.948  36.940  0.00  0.00    +0.000 C 
ATOM     28  H   UNL     1      35.323  23.261  36.586  0.00  0.00    +0.000 HD
ATOM     29  O   UNL     1      35.723  25.049  37.401  0.00  0.00    +0.000 OA
ENDBRANCH  19  27
ENDBRANCH   5  17
TORSDOF 4
