
     RDKit          3D

 47 47  0  0  1  0  0  0  0  0999 V2000
   44.4140   35.9410   44.6920 C   0  0  0  0  0  0  0  0  0  0  0  0
   44.4140   35.7930   43.2990 C   0  0  0  0  0  0  0  0  0  0  0  0
   45.3330   34.8340   42.8460 C   0  0  0  0  0  0  0  0  0  0  0  0
   45.4490   33.7500   43.6610 N   0  0  0  0  0  0  0  0  0  0  0  0
   45.4890   33.9310   44.9760 C   0  0  0  0  0  0  0  0  0  0  0  0
   44.9530   35.0470   45.5230 N   0  0  0  0  0  0  0  0  0  0  0  0
   46.0400   32.9600   45.7830 N   0  0  0  0  0  0  0  0  0  0  0  0
   45.4830   32.8810   47.1610 C   0  0  0  0  0  0  0  0  0  0  0  0
   46.3260   32.0250   48.0740 C   0  0  0  0  0  0  0  0  0  0  0  0
   47.5170   31.6090   47.5310 O   0  0  0  0  0  0  0  0  0  0  0  0
   47.2590   30.9790   46.3360 C   0  0  0  0  0  0  0  0  0  0  0  0
   47.1030   32.1190   45.3470 C   0  0  1  0  0  0  0  0  0  0  0  0
   45.4120   33.7220   42.7870 H   0  0  0  0  0  0  0  0  0  0  0  0
   46.7510   31.8380   44.0470 N   0  0  0  0  0  0  0  0  0  0  0  0
   45.4550   31.7250   43.7180 C   0  0  0  0  0  0  0  0  0  0  0  0
   45.4100   31.4100   42.2380 C   0  0  0  0  0  0  0  0  0  0  0  0
   46.8120   31.7860   41.7440 C   0  0  0  0  0  0  0  0  0  0  0  0
   47.4810   32.3080   42.9840 C   0  0  2  0  0  0  0  0  0  0  0  0
   48.8220   32.8740   42.8590 C   0  0  0  0  0  0  0  0  0  0  0  0
   48.8100   34.4160   42.6910 C   0  0  0  0  0  0  0  0  0  0  0  0
   43.9464   36.8389   45.1222 H   0  0  0  0  0  0  0  0  0  0  0  0
   45.4511   35.7543   42.9344 H   0  0  0  0  0  0  0  0  0  0  0  0
   43.8955   34.8611   43.0293 H   0  0  0  0  0  0  0  0  0  0  0  0
   43.8955   36.6474   42.8395 H   0  0  0  0  0  0  0  0  0  0  0  0
   45.3330   34.8340   43.9460 H   0  0  0  0  0  0  0  0  0  0  0  0
   45.3330   35.8711   42.4793 H   0  0  0  0  0  0  0  0  0  0  0  0
   46.2311   34.3155   42.4793 H   0  0  0  0  0  0  0  0  0  0  0  0
   44.4349   34.3155   42.4793 H   0  0  0  0  0  0  0  0  0  0  0  0
   45.4295   33.8970   47.5792 H   0  0  0  0  0  0  0  0  0  0  0  0
   44.4867   32.4196   47.0941 H   0  0  0  0  0  0  0  0  0  0  0  0
   46.5473   32.6062   48.9813 H   0  0  0  0  0  0  0  0  0  0  0  0
   45.7412   31.1154   48.2755 H   0  0  0  0  0  0  0  0  0  0  0  0
   48.0959   30.3249   46.0500 H   0  0  0  0  0  0  0  0  0  0  0  0
   46.3701   30.3327   46.3811 H   0  0  0  0  0  0  0  0  0  0  0  0
   48.1222   32.5325   45.3321 H   0  0  0  0  0  0  0  0  0  0  0  0
   44.9869   30.9126   44.2933 H   0  0  0  0  0  0  0  0  0  0  0  0
   44.9065   32.6515   43.9431 H   0  0  0  0  0  0  0  0  0  0  0  0
   45.2083   30.3417   42.0702 H   0  0  0  0  0  0  0  0  0  0  0  0
   44.6121   31.9532   41.7105 H   0  0  0  0  0  0  0  0  0  0  0  0
   47.3413   30.9057   41.3504 H   0  0  0  0  0  0  0  0  0  0  0  0
   46.7994   32.5145   40.9199 H   0  0  0  0  0  0  0  0  0  0  0  0
   47.6742   33.2952   43.4290 H   0  0  0  0  0  0  0  0  0  0  0  0
   49.3950   32.6234   43.7639 H   0  0  0  0  0  0  0  0  0  0  0  0
   49.2794   32.4458   41.9549 H   0  0  0  0  0  0  0  0  0  0  0  0
   48.8063   34.8928   43.6823 H   0  0  0  0  0  0  0  0  0  0  0  0
   49.7057   34.7313   42.1358 H   0  0  0  0  0  0  0  0  0  0  0  0
   47.9095   34.7174   42.1358 H   0  0  0  0  0  0  0  0  0  0  0  0
  1  6  2  0
  2  1  1  0
  4  5  2  0
  5  6  1  0
  5  7  1  0
  7  8  1  0
  8  9  1  0
 10  9  1  0
 11 10  1  0
 12  7  1  0
 12 11  1  0
 13  4  1  0
 14 15  1  0
 14 12  1  0
 16 15  1  0
 17 16  1  0
 17 18  1  0
 18 14  1  0
 19 18  1  0
 20 19  1  0
  1 21  1  0
  2 22  1  0
  2 23  1  0
  2 24  1  0
  3 25  1  0
  3 26  1  0
  3 27  1  0
  3 28  1  0
  8 29  1  0
  8 30  1  0
  9 31  1  0
  9 32  1  0
 11 33  1  0
 11 34  1  0
 12 35  1  6
 15 36  1  0
 15 37  1  0
 16 38  1  0
 16 39  1  0
 17 40  1  0
 17 41  1  0
 18 42  1  1
 19 43  1  0
 19 44  1  0
 20 45  1  0
 20 46  1  0
 20 47  1  0
M  ISO  8  22   8  23   8  24   8  25   8  26   8  27   8  28   8  29  13
M  ISO  8  30  13  31  13  32  13  33  13  34  13  35  13  36  13  37  13
M  ISO  8  38  13  39  13  40  13  41  13  42  13  43   8  44   8  45   8
M  ISO  2  46   8  47   8
M  END
>  <minimizedAffinity>  (1) 
-4.67785549

>  <minimizedRMSD>  (1) 
0.960268855

$$$$
