
     RDKit          3D

 43 46  0  0  0  0  0  0  0  0999 V2000
   46.1613   33.5996   45.2790 C   0  0  2  0  0  0  0  0  0  0  0  0
   44.9230   34.6637   45.4988 C   0  0  0  0  0  0  0  0  0  0  0  0
   44.6872   35.5945   44.4307 C   0  0  0  0  0  0  0  0  0  0  0  0
   45.5049   35.5488   43.2180 C   0  0  1  0  0  0  0  0  0  0  0  0
   46.5860   34.5666   43.1752 C   0  0  0  0  0  0  0  0  0  0  0  0
   46.1546   33.3214   43.9139 C   0  0  0  0  0  0  0  0  0  0  0  0
   45.3964   32.8843   47.5277 C   0  0  0  0  0  0  0  0  0  0  0  0
   45.9181   32.6365   46.2991 C   0  0  0  0  0  0  0  0  0  0  0  0
   46.1544   31.2856   46.0284 C   0  0  0  0  0  0  0  0  0  0  0  0
   45.8910   30.2835   46.9046 N   0  0  0  0  0  0  0  0  0  0  0  0
   45.3581   30.5876   48.1481 C   0  0  0  0  0  0  0  0  0  0  0  0
   45.1264   31.8664   48.4260 N   0  0  0  0  0  0  0  0  0  0  0  0
   45.0828   29.5682   49.0914 N   0  0  0  0  0  0  0  0  0  0  0  0
   46.7540   30.5985   44.8987 C   0  0  0  0  0  0  0  0  0  0  0  0
   46.3674   29.9205   43.7878 C   0  0  0  0  0  0  0  0  0  0  0  0
   47.5141   29.4685   43.1274 C   0  0  0  0  0  0  0  0  0  0  0  0
   48.5399   29.8927   43.8666 N   0  0  0  0  0  0  0  0  0  0  0  0
   48.1175   30.5606   44.9147 N   0  0  0  0  0  0  0  0  0  0  0  0
   44.5146   35.2665   42.0504 C   0  0  0  0  0  0  0  0  0  0  0  0
   43.4594   34.4529   42.4296 F   0  0  0  0  0  0  0  0  0  0  0  0
   43.9560   36.4953   41.7063 F   0  0  0  0  0  0  0  0  0  0  0  0
   45.2110   34.8128   40.9455 F   0  0  0  0  0  0  0  0  0  0  0  0
   46.9564   34.3267   45.6270 H   0  0  0  0  0  0  0  0  0  0  0  0
   44.2298   34.7961   46.3198 H   0  0  0  0  0  0  0  0  0  0  0  0
   43.9027   36.2966   44.5322 H   0  0  0  0  0  0  0  0  0  0  0  0
   45.9015   36.5709   43.0463 H   0  0  0  0  0  0  0  0  0  0  0  0
   47.5765   34.9177   43.5479 H   0  0  0  0  0  0  0  0  0  0  0  0
   46.7831   34.3360   42.0858 H   0  0  0  0  0  0  0  0  0  0  0  0
   47.0256   32.6900   43.5927 H   0  0  0  0  0  0  0  0  0  0  0  0
   45.2105   32.9691   43.4475 H   0  0  0  0  0  0  0  0  0  0  0  0
   45.1795   33.8933   47.8424 H   0  0  0  0  0  0  0  0  0  0  0  0
   44.5007   28.8293   48.5981 H   0  0  0  0  0  0  0  0  0  0  0  0
   45.5194   29.8059   50.0177 H   0  0  0  0  0  0  0  0  0  0  0  0
   45.3105   29.8407   43.5992 H   0  0  0  0  0  0  0  0  0  0  0  0
   47.4300   28.9097   42.2256 H   0  0  0  0  0  0  0  0  0  0  0  0
   49.8540   29.5563   43.4015 C   0  0  0  0  0  0  0  0  0  0  0  0
   50.7001   28.6075   43.9039 C   0  0  0  0  0  0  0  0  0  0  0  0
   51.8488   28.6649   43.1123 C   0  0  0  0  0  0  0  0  0  0  0  0
   51.6181   29.6592   42.1696 C   0  0  0  0  0  0  0  0  0  0  0  0
   52.4340   29.8186   41.4775 H   0  0  0  0  0  0  0  0  0  0  0  0
   50.4219   30.1721   42.3666 O   0  0  0  0  0  0  0  0  0  0  0  0
   50.4918   27.9534   44.7526 H   0  0  0  0  0  0  0  0  0  0  0  0
   52.6627   27.9861   43.3395 H   0  0  0  0  0  0  0  0  0  0  0  0
  1  2  1  0
  1  8  1  0
  3  2  2  0
  4  3  1  0
  5  4  1  0
  5  6  1  0
  6  1  1  0
  7 12  2  0
  8  7  1  0
  9  8  2  0
  9 10  1  0
 10 11  2  0
 11 12  1  0
 11 13  1  0
 14 18  2  0
 14  9  1  0
 15 14  1  0
 16 15  2  0
 16 17  1  0
 17 18  1  0
 19 20  1  0
 19  4  1  0
 21 19  1  0
 22 19  1  0
  1 23  1  1
  2 24  1  0
  3 25  1  0
  4 26  1  6
  5 27  1  0
  5 28  1  0
  6 29  1  0
  6 30  1  0
  7 31  1  0
 13 32  1  0
 13 33  1  0
 15 34  1  0
 16 35  1  0
 36 37  2  0
 37 38  1  0
 38 39  2  0
 39 40  1  0
 39 41  1  0
 41 36  1  0
 37 42  1  0
 38 43  1  0
 17 36  1  0
M  ISO  8  23  13  24  13  25  13  26  13  27  13  28  13  29  13  30  13
M  ISO  4  31  14  34  14  35  14  40  14
M  END
>  <DihAtoms>  (1) 
15,16,35,36

>  <DihDeg>  (1) 
-60.07606568130704

$$$$
