
     RDKit          3D

 39 41  0  0  0  0  0  0  0  0999 V2000
   46.4160   34.6590   42.1830 C   0  0  0  0  0  0  0  0  0  0  0  0
   47.7230   35.0150   42.0430 C   0  0  0  0  0  0  0  0  0  0  0  0
   48.4280   34.8260   40.8570 C   0  0  0  0  0  0  0  0  0  0  0  0
   47.7730   34.2440   39.7600 C   0  0  0  0  0  0  0  0  0  0  0  0
   46.4600   33.8880   39.9020 C   0  0  0  0  0  0  0  0  0  0  0  0
   45.8040   34.0970   41.1010 C   0  0  0  0  0  0  0  0  0  0  0  0
   44.4400   33.7130   41.2070 N   0  0  0  0  0  0  0  0  0  0  0  0
   43.6130   34.6710   40.6740 C   0  0  0  0  0  0  0  0  0  0  0  0
   42.2340   34.5030   40.6720 C   0  0  0  0  0  0  0  0  0  0  0  0
   41.7320   33.3440   41.2200 C   0  0  0  0  0  0  0  0  0  0  0  0
   40.4900   33.1190   41.2550 O   0  0  0  0  0  0  0  0  0  0  0  0
   42.5690   32.4270   41.7330 N   0  0  0  0  0  0  0  0  0  0  0  0
   43.8990   32.5990   41.7310 C   0  0  0  0  0  0  0  0  0  0  0  0
   44.7540   31.8060   42.1830 O   0  0  0  0  0  0  0  0  0  0  0  0
   41.3150   35.5270   40.1000 C   0  0  0  0  0  0  0  0  0  0  0  0
   44.4160   36.1180   45.0290 C   0  0  0  0  0  0  0  0  0  0  0  0
   44.9820   36.0020   43.7580 C   0  0  0  0  0  0  0  0  0  0  0  0
   45.7730   34.8990   43.4560 C   0  0  0  0  0  0  0  0  0  0  0  0
   45.9500   33.9870   44.4330 N   0  0  0  0  0  0  0  0  0  0  0  0
   45.3910   34.1230   45.6560 C   0  0  0  0  0  0  0  0  0  0  0  0
   44.6300   35.1780   45.9560 N   0  0  0  0  0  0  0  0  0  0  0  0
   45.6020   33.0910   46.7340 C   0  0  0  0  0  0  0  0  0  0  0  0
   46.9410   32.4100   46.5690 C   0  0  0  0  0  0  0  0  0  0  0  0
   48.2419   35.4694   42.8999 H   0  0  0  0  0  0  0  0  0  0  0  0
   49.4829   35.1284   40.7808 H   0  0  0  0  0  0  0  0  0  0  0  0
   48.3025   34.0785   38.8101 H   0  0  0  0  0  0  0  0  0  0  0  0
   45.9227   33.4326   39.0571 H   0  0  0  0  0  0  0  0  0  0  0  0
   44.0486   35.5843   40.2426 H   0  0  0  0  0  0  0  0  0  0  0  0
   42.1774   31.5657   42.1402 H   0  0  0  0  0  0  0  0  0  0  0  0
   40.8230   36.0753   40.9169 H   0  0  0  0  0  0  0  0  0  0  0  0
   41.8902   36.2307   39.4804 H   0  0  0  0  0  0  0  0  0  0  0  0
   40.5534   35.0309   39.4804 H   0  0  0  0  0  0  0  0  0  0  0  0
   43.7892   36.9893   45.2698 H   0  0  0  0  0  0  0  0  0  0  0  0
   44.8032   36.7787   42.9999 H   0  0  0  0  0  0  0  0  0  0  0  0
   45.5664   33.5835   47.7169 H   0  0  0  0  0  0  0  0  0  0  0  0
   44.8086   32.3330   46.6571 H   0  0  0  0  0  0  0  0  0  0  0  0
   47.3668   32.1934   47.5599 H   0  0  0  0  0  0  0  0  0  0  0  0
   46.8083   31.4699   46.0135 H   0  0  0  0  0  0  0  0  0  0  0  0
   47.6226   33.0710   46.0135 H   0  0  0  0  0  0  0  0  0  0  0  0
  1 18  1  0
  2  1  2  0
  3  2  1  0
  4  5  1  0
  4  3  2  0
  5  6  2  0
  6  7  1  0
  6  1  1  0
  7 13  1  0
  8  7  1  0
  9  8  2  0
  9 10  1  0
 10 11  2  0
 10 12  1  0
 13 12  1  0
 13 14  2  0
 15  9  1  0
 16 21  2  0
 17 16  1  0
 18 17  2  0
 18 19  1  0
 19 20  2  0
 20 21  1  0
 20 22  1  0
 23 22  1  0
  2 24  1  0
  3 25  1  0
  4 26  1  0
  5 27  1  0
  8 28  1  0
 12 29  1  0
 15 30  1  0
 15 31  1  0
 15 32  1  0
 16 33  1  0
 17 34  1  0
 22 35  1  0
 22 36  1  0
 23 37  1  0
 23 38  1  0
 23 39  1  0
M  ISO  8  24  14  25  14  26  14  27  14  28  14  29   9  30   8  31   8
M  ISO  8  32   8  33  14  34  14  35   8  36   8  37   8  38   8  39   8
M  END
>  <minimizedAffinity>  (1) 
-6.61540651

>  <minimizedRMSD>  (1) 
0.153878137

$$$$
