
     RDKit          3D

 42 44  0  0  0  0  0  0  0  0999 V2000
   46.5290   34.4390   41.9770 N   0  0  0  0  0  0  0  0  0  0  0  0
   47.6770   35.2020   41.8670 C   0  0  0  0  0  0  0  0  0  0  0  0
   48.4170   35.2070   40.7160 C   0  0  0  0  0  0  0  0  0  0  0  0
   47.9720   34.4140   39.6550 C   0  0  0  0  0  0  0  0  0  0  0  0
   48.6300   34.4100   38.6020 O   0  0  0  0  0  0  0  0  0  0  0  0
   46.8490   33.6940   39.8250 N   0  0  0  0  0  0  0  0  0  0  0  0
   46.1430   33.7090   40.9620 C   0  0  0  0  0  0  0  0  0  0  0  0
   45.1250   33.0900   41.1740 O   0  0  0  0  0  0  0  0  0  0  0  0
   46.3630   32.8700   38.7870 C   0  0  0  0  0  0  0  0  0  0  0  0
   45.4430   33.2750   37.8470 C   0  0  0  0  0  0  0  0  0  0  0  0
   45.0130   32.4200   36.8630 C   0  0  0  0  0  0  0  0  0  0  0  0
   45.4950   31.1300   36.7950 C   0  0  0  0  0  0  0  0  0  0  0  0
   46.4010   30.7520   37.7320 C   0  0  0  0  0  0  0  0  0  0  0  0
   46.8800   31.5770   38.7610 C   0  0  0  0  0  0  0  0  0  0  0  0
   47.8770   31.0600   39.7390 C   0  0  0  0  0  0  0  0  0  0  0  0
   49.2010   31.7390   39.7190 C   0  0  0  0  0  0  0  0  0  0  0  0
   47.3940   31.0740   41.1540 C   0  0  0  0  0  0  0  0  0  0  0  0
   44.5320   35.8600   44.7410 C   0  0  0  0  0  0  0  0  0  0  0  0
   45.1120   35.7010   43.4640 C   0  0  0  0  0  0  0  0  0  0  0  0
   45.9400   34.6010   43.2730 C   0  0  0  0  0  0  0  0  0  0  0  0
   46.1620   33.7310   44.3030 N   0  0  0  0  0  0  0  0  0  0  0  0
   45.5780   33.9330   45.5140 C   0  0  0  0  0  0  0  0  0  0  0  0
   44.7790   34.9760   45.7310 N   0  0  0  0  0  0  0  0  0  0  0  0
   45.8390   32.9660   46.6240 C   0  0  0  0  0  0  0  0  0  0  0  0
   44.9210   33.1270   47.6460 F   0  0  0  0  0  0  0  0  0  0  0  0
   47.1330   33.0500   47.1020 F   0  0  0  0  0  0  0  0  0  0  0  0
   45.6610   31.6550   46.1770 F   0  0  0  0  0  0  0  0  0  0  0  0
   48.0012   35.8160   42.7202 H   0  0  0  0  0  0  0  0  0  0  0  0
   49.3302   35.8140   40.6290 H   0  0  0  0  0  0  0  0  0  0  0  0
   45.0459   34.3001   37.8848 H   0  0  0  0  0  0  0  0  0  0  0  0
   44.2775   32.7670   36.1223 H   0  0  0  0  0  0  0  0  0  0  0  0
   45.1584   30.4346   36.0120 H   0  0  0  0  0  0  0  0  0  0  0  0
   46.7882   29.7237   37.6811 H   0  0  0  0  0  0  0  0  0  0  0  0
   48.0078   30.0259   39.3876 H   0  0  0  0  0  0  0  0  0  0  0  0
   49.5396   31.9127   40.7511 H   0  0  0  0  0  0  0  0  0  0  0  0
   49.9309   31.1039   39.1956 H   0  0  0  0  0  0  0  0  0  0  0  0
   49.1112   32.7023   39.1956 H   0  0  0  0  0  0  0  0  0  0  0  0
   48.2566   31.0490   41.8361 H   0  0  0  0  0  0  0  0  0  0  0  0
   46.8111   31.9894   41.3334 H   0  0  0  0  0  0  0  0  0  0  0  0
   46.7590   30.1939   41.3334 H   0  0  0  0  0  0  0  0  0  0  0  0
   43.8691   36.7167   44.9323 H   0  0  0  0  0  0  0  0  0  0  0  0
   44.9167   36.4182   42.6532 H   0  0  0  0  0  0  0  0  0  0  0  0
  1 20  1  0
  2  1  1  0
  3  2  2  0
  4  6  1  0
  4  3  1  0
  5  4  2  0
  6  7  1  0
  7  8  2  0
  7  1  1  0
  9  6  1  0
 10  9  2  0
 11 10  1  0
 12 11  2  0
 12 13  1  0
 13 14  2  0
 14  9  1  0
 14 15  1  0
 15 17  1  0
 16 15  1  0
 18 23  2  0
 19 18  1  0
 20 19  2  0
 20 21  1  0
 21 22  2  0
 22 23  1  0
 22 24  1  0
 24 26  1  0
 24 25  1  0
 27 24  1  0
  2 28  1  0
  3 29  1  0
 10 30  1  0
 11 31  1  0
 12 32  1  0
 13 33  1  0
 15 34  1  0
 16 35  1  0
 16 36  1  0
 16 37  1  0
 17 38  1  0
 17 39  1  0
 17 40  1  0
 18 41  1  0
 19 42  1  0
M  ISO  8  28  14  29  14  30  14  31  14  32  14  33  14  34   8  35   8
M  ISO  7  36   8  37   8  38   8  39   8  40   8  41  14  42  14
M  END
>  <minimizedAffinity>  (1) 
-6.1333375

>  <minimizedRMSD>  (1) 
0.273778111

$$$$
