
     RDKit          3D

 29 30  0  0  0  0  0  0  0  0999 V2000
   47.4680   34.3510   42.0640 C   0  0  0  0  0  0  0  0  0  0  0  0
   48.4330   35.4490   41.8110 C   0  0  0  0  0  0  0  0  0  0  0  0
   49.7780   35.2870   42.4700 C   0  0  0  0  0  0  0  0  0  0  0  0
   50.3660   33.9310   42.3170 C   0  0  0  0  0  0  0  0  0  0  0  0
   49.4040   32.8970   41.7920 C   0  0  0  0  0  0  0  0  0  0  0  0
   48.0870   33.0620   42.4980 C   0  0  0  0  0  0  0  0  0  0  0  0
   45.2360   34.3130   45.0240 C   0  0  0  0  0  0  0  0  0  0  0  0
   44.5580   35.5320   44.9370 C   0  0  0  0  0  0  0  0  0  0  0  0
   44.8650   36.3590   43.8660 C   0  0  0  0  0  0  0  0  0  0  0  0
   45.7990   35.9190   42.9870 N   0  0  0  0  0  0  0  0  0  0  0  0
   46.4380   34.7420   43.0920 C   0  0  0  0  0  0  0  0  0  0  0  0
   46.1500   33.9370   44.1220 N   0  0  0  0  0  0  0  0  0  0  0  0
   46.6600   34.0460   40.8140 C   0  0  0  0  0  0  0  0  0  0  0  0
   46.4140   32.6640   40.7520 F   0  0  0  0  0  0  0  0  0  0  0  0
   45.4390   34.6410   40.7670 F   0  0  0  0  0  0  0  0  0  0  0  0
   47.3330   34.3580   39.6670 F   0  0  0  0  0  0  0  0  0  0  0  0
   48.5926   35.5179   40.7248 H   0  0  0  0  0  0  0  0  0  0  0  0
   47.9864   36.3540   42.2485 H   0  0  0  0  0  0  0  0  0  0  0  0
   50.4710   36.0168   42.0259 H   0  0  0  0  0  0  0  0  0  0  0  0
   49.6263   35.4486   43.5474 H   0  0  0  0  0  0  0  0  0  0  0  0
   51.2138   33.9992   41.6195 H   0  0  0  0  0  0  0  0  0  0  0  0
   50.6671   33.6014   43.3224 H   0  0  0  0  0  0  0  0  0  0  0  0
   49.2641   33.0371   40.7100 H   0  0  0  0  0  0  0  0  0  0  0  0
   49.8026   31.8879   41.9730 H   0  0  0  0  0  0  0  0  0  0  0  0
   48.2497   33.0774   43.5858 H   0  0  0  0  0  0  0  0  0  0  0  0
   47.4204   32.2235   42.2478 H   0  0  0  0  0  0  0  0  0  0  0  0
   45.0103   33.6390   45.8635 H   0  0  0  0  0  0  0  0  0  0  0  0
   43.8099   35.8245   45.6885 H   0  0  0  0  0  0  0  0  0  0  0  0
   44.3704   37.3328   43.7352 H   0  0  0  0  0  0  0  0  0  0  0  0
  1  6  1  0
  1 11  1  0
  2  1  1  0
  2  3  1  0
  4  3  1  0
  5  4  1  0
  5  6  1  0
  8  7  2  0
  9  8  1  0
 10 11  1  0
 10  9  2  0
 11 12  2  0
 12  7  1  0
 13  1  1  0
 14 13  1  0
 15 13  1  0
 16 13  1  0
  2 17  1  0
  2 18  1  0
  3 19  1  0
  3 20  1  0
  4 21  1  0
  4 22  1  0
  5 23  1  0
  5 24  1  0
  6 25  1  0
  6 26  1  0
  7 27  1  0
  8 28  1  0
  9 29  1  0
M  ISO  8  17  13  18  13  19  13  20  13  21  13  22  13  23  13  24  13
M  ISO  5  25  13  26  13  27  14  28  14  29  14
M  END
>  <minimizedAffinity>  (1) 
-5.42311716

>  <minimizedRMSD>  (1) 
0.692892015

$$$$
