
     RDKit          3D

 45 48  0  0  0  0  0  0  0  0999 V2000
   44.5280   35.0380   46.1630 C   0  0  0  0  0  0  0  0  0  0  0  0
   44.7710   35.0350   44.7800 C   0  0  0  0  0  0  0  0  0  0  0  0
   45.4720   33.9500   44.2160 C   0  0  0  0  0  0  0  0  0  0  0  0
   45.8700   32.9720   45.0440 N   0  0  0  0  0  0  0  0  0  0  0  0
   45.6160   33.0070   46.3860 C   0  0  0  0  0  0  0  0  0  0  0  0
   44.9540   34.0280   46.9330 N   0  0  0  0  0  0  0  0  0  0  0  0
   45.6870   33.9990   42.8220 N   0  0  0  0  0  0  0  0  0  0  0  0
   44.9430   33.8120   41.7440 C   0  0  0  0  0  0  0  0  0  0  0  0
   45.6680   33.9890   40.6270 N   0  0  0  0  0  0  0  0  0  0  0  0
   46.9270   34.3000   40.9950 C   0  0  0  0  0  0  0  0  0  0  0  0
   48.0570   34.5770   40.2400 C   0  0  0  0  0  0  0  0  0  0  0  0
   48.0610   34.5740   39.0030 O   0  0  0  0  0  0  0  0  0  0  0  0
   49.2230   34.8670   40.8600 N   0  0  0  0  0  0  0  0  0  0  0  0
   49.2080   34.8660   42.1960 C   0  0  0  0  0  0  0  0  0  0  0  0
   50.3690   35.1550   42.9620 N   0  0  0  0  0  0  0  0  0  0  0  0
   48.1290   34.6020   42.9200 N   0  0  0  0  0  0  0  0  0  0  0  0
   46.9400   34.3070   42.3740 C   0  0  0  0  0  0  0  0  0  0  0  0
   46.0590   31.9270   47.2810 C   0  0  0  0  0  0  0  0  0  0  0  0
   47.2410   32.3700   48.1120 C   0  0  0  0  0  0  0  0  0  0  0  0
   44.9630   31.4560   48.2010 C   0  0  0  0  0  0  0  0  0  0  0  0
   46.5370   30.7780   46.3950 C   0  0  0  0  0  0  0  0  0  0  0  0
   45.7000   29.5480   46.5940 C   0  0  0  0  0  0  0  0  0  0  0  0
   46.1060   28.6100   47.4810 C   0  0  0  0  0  0  0  0  0  0  0  0
   44.8270   27.2950   47.4260 S   0  0  0  0  0  0  0  0  0  0  0  0
   43.9030   28.3060   46.1270 C   0  0  0  0  0  0  0  0  0  0  0  0
   44.5880   29.2350   46.0120 N   0  0  0  0  0  0  0  0  0  0  0  0
   42.5950   27.9360   45.4440 C   0  0  0  0  0  0  0  0  0  0  0  0
   41.7570   29.0030   45.5690 F   0  0  0  0  0  0  0  0  0  0  0  0
   42.8630   27.5700   44.1390 F   0  0  0  0  0  0  0  0  0  0  0  0
   42.1030   26.8920   46.1820 F   0  0  0  0  0  0  0  0  0  0  0  0
   43.9826   35.8777   46.6185 H   0  0  0  0  0  0  0  0  0  0  0  0
   44.4206   35.8644   44.1481 H   0  0  0  0  0  0  0  0  0  0  0  0
   43.8754   33.5474   41.7602 H   0  0  0  0  0  0  0  0  0  0  0  0
   50.0799   35.0781   40.3290 H   0  0  0  0  0  0  0  0  0  0  0  0
   50.3227   35.1456   43.9909 H   0  0  0  0  0  0  0  0  0  0  0  0
   51.2571   35.3739   42.4885 H   0  0  0  0  0  0  0  0  0  0  0  0
   46.9938   32.2773   49.1798 H   0  0  0  0  0  0  0  0  0  0  0  0
   48.1100   31.7365   47.8805 H   0  0  0  0  0  0  0  0  0  0  0  0
   47.4796   33.4186   47.8805 H   0  0  0  0  0  0  0  0  0  0  0  0
   45.2781   31.5914   49.2462 H   0  0  0  0  0  0  0  0  0  0  0  0
   44.0507   32.0415   48.0143 H   0  0  0  0  0  0  0  0  0  0  0  0
   44.7599   30.3912   48.0143 H   0  0  0  0  0  0  0  0  0  0  0  0
   47.5822   30.5440   46.6454 H   0  0  0  0  0  0  0  0  0  0  0  0
   46.4479   31.0910   45.3442 H   0  0  0  0  0  0  0  0  0  0  0  0
   47.0123   28.6313   48.1041 H   0  0  0  0  0  0  0  0  0  0  0  0
  1  6  2  0
  2  1  1  0
  3  2  2  0
  3  4  1  0
  4  5  2  0
  5  6  1  0
  5 18  1  0
  7  3  1  0
  8  7  1  0
  9 10  1  0
  9  8  2  0
 10 17  2  0
 11 13  1  0
 11 10  1  0
 12 11  2  0
 13 14  1  0
 14 16  2  0
 14 15  1  0
 17  7  1  0
 17 16  1  0
 18 19  1  0
 18 20  1  0
 21 22  1  0
 21 18  1  0
 22 23  2  0
 24 23  1  0
 25 24  1  0
 26 25  2  0
 26 22  1  0
 27 28  1  0
 27 25  1  0
 27 30  1  0
 29 27  1  0
  1 31  1  0
  2 32  1  0
  8 33  1  0
 13 34  1  0
 15 35  1  0
 15 36  1  0
 19 37  1  0
 19 38  1  0
 19 39  1  0
 20 40  1  0
 20 41  1  0
 20 42  1  0
 21 43  1  0
 21 44  1  0
 23 45  1  0
M  END
>  <minimizedAffinity>  (1) 
-7.12529755

>  <minimizedRMSD>  (1) 
0.13306196

$$$$
