
     RDKit          3D

 36 38  0  0  0  0  0  0  0  0999 V2000
   46.4460   34.6530   42.1810 C   0  0  0  0  0  0  0  0  0  0  0  0
   47.7530   35.0260   42.0510 C   0  0  0  0  0  0  0  0  0  0  0  0
   48.4460   34.8550   40.8410 C   0  0  0  0  0  0  0  0  0  0  0  0
   47.7890   34.2890   39.7400 C   0  0  0  0  0  0  0  0  0  0  0  0
   46.4820   33.9210   39.8850 C   0  0  0  0  0  0  0  0  0  0  0  0
   45.8270   34.1040   41.0950 C   0  0  0  0  0  0  0  0  0  0  0  0
   44.4680   33.7070   41.1980 N   0  0  0  0  0  0  0  0  0  0  0  0
   43.6360   34.6630   40.6750 C   0  0  0  0  0  0  0  0  0  0  0  0
   42.2550   34.4890   40.6680 C   0  0  0  0  0  0  0  0  0  0  0  0
   41.7620   33.3060   41.2130 C   0  0  0  0  0  0  0  0  0  0  0  0
   40.5240   33.0890   41.2360 O   0  0  0  0  0  0  0  0  0  0  0  0
   42.6130   32.3960   41.7150 N   0  0  0  0  0  0  0  0  0  0  0  0
   43.9350   32.5880   41.7100 C   0  0  0  0  0  0  0  0  0  0  0  0
   44.8020   31.7970   42.1540 O   0  0  0  0  0  0  0  0  0  0  0  0
   41.3240   35.5020   40.1100 C   0  0  0  0  0  0  0  0  0  0  0  0
   44.4390   36.0310   45.0510 C   0  0  0  0  0  0  0  0  0  0  0  0
   44.9930   35.9470   43.7770 C   0  0  0  0  0  0  0  0  0  0  0  0
   45.8040   34.8660   43.4700 C   0  0  0  0  0  0  0  0  0  0  0  0
   46.0100   33.9510   44.4280 N   0  0  0  0  0  0  0  0  0  0  0  0
   45.4620   34.0550   45.6560 C   0  0  0  0  0  0  0  0  0  0  0  0
   44.6780   35.0890   45.9720 N   0  0  0  0  0  0  0  0  0  0  0  0
   45.7210   33.0060   46.6980 C   0  0  0  0  0  0  0  0  0  0  0  0
   47.0560   33.1160   47.0990 F   0  0  0  0  0  0  0  0  0  0  0  0
   44.8480   33.0960   47.7460 F   0  0  0  0  0  0  0  0  0  0  0  0
   45.6020   31.7420   46.1770 F   0  0  0  0  0  0  0  0  0  0  0  0
   48.2744   35.4698   42.9119 H   0  0  0  0  0  0  0  0  0  0  0  0
   49.4986   35.1637   40.7582 H   0  0  0  0  0  0  0  0  0  0  0  0
   48.3128   34.1449   38.7835 H   0  0  0  0  0  0  0  0  0  0  0  0
   45.9435   33.4756   39.0355 H   0  0  0  0  0  0  0  0  0  0  0  0
   44.0671   35.5831   40.2538 H   0  0  0  0  0  0  0  0  0  0  0  0
   42.2355   31.5253   42.1152 H   0  0  0  0  0  0  0  0  0  0  0  0
   40.8303   36.0392   40.9333 H   0  0  0  0  0  0  0  0  0  0  0  0
   41.8872   36.2164   39.4917 H   0  0  0  0  0  0  0  0  0  0  0  0
   40.5647   35.0009   39.4917 H   0  0  0  0  0  0  0  0  0  0  0  0
   43.7943   36.8852   45.3054 H   0  0  0  0  0  0  0  0  0  0  0  0
   44.7906   36.7254   43.0266 H   0  0  0  0  0  0  0  0  0  0  0  0
  1 18  1  0
  2  1  2  0
  3  2  1  0
  4  5  1  0
  4  3  2  0
  5  6  2  0
  6  7  1  0
  6  1  1  0
  7 13  1  0
  8  7  1  0
  9  8  2  0
  9 10  1  0
 10 11  2  0
 10 12  1  0
 13 12  1  0
 13 14  2  0
 15  9  1  0
 16 21  2  0
 17 16  1  0
 18 17  2  0
 18 19  1  0
 19 20  2  0
 20 21  1  0
 20 22  1  0
 22 23  1  0
 22 24  1  0
 25 22  1  0
  2 26  1  0
  3 27  1  0
  4 28  1  0
  5 29  1  0
  8 30  1  0
 12 31  1  0
 15 32  1  0
 15 33  1  0
 15 34  1  0
 16 35  1  0
 17 36  1  0
M  ISO  8  26  14  27  14  28  14  29  14  30  14  31   9  32   8  33   8
M  ISO  3  34   8  35  14  36  14
M  END
>  <minimizedAffinity>  (1) 
-7.25722075

>  <minimizedRMSD>  (1) 
0.102049679

$$$$
