
     RDKit          3D

 34 36  0  0  0  0  0  0  0  0999 V2000
   46.1730   30.3740   49.1180 N   0  0  0  0  0  0  0  0  0  0  0  0
   45.3510   31.4180   49.4470 C   0  0  0  0  0  0  0  0  0  0  0  0
   45.2850   32.2420   48.3700 N   0  0  0  0  0  0  0  0  0  0  0  0
   46.0660   31.6790   47.4200 C   0  0  0  0  0  0  0  0  0  0  0  0
   46.2920   32.1810   46.1560 C   0  0  0  0  0  0  0  0  0  0  0  0
   47.1120   31.4630   45.3470 N   0  0  0  0  0  0  0  0  0  0  0  0
   47.6840   30.3090   45.7550 C   0  0  0  0  0  0  0  0  0  0  0  0
   47.4310   29.8650   46.9950 N   0  0  0  0  0  0  0  0  0  0  0  0
   46.6470   30.5050   47.8380 C   0  0  0  0  0  0  0  0  0  0  0  0
   48.5820   29.5310   44.8560 C   0  0  0  0  0  0  0  0  0  0  0  0
   48.9800   30.2510   43.6150 C   0  0  0  0  0  0  0  0  0  0  0  0
   49.7880   29.0560   45.6650 C   0  0  0  0  0  0  0  0  0  0  0  0
   45.6440   33.6600   45.4400 S   0  0  0  0  0  0  0  0  0  0  0  0
   47.7980   34.7270   42.3440 C   0  0  0  0  0  0  0  0  0  0  0  0
   47.0730   34.3480   41.2200 C   0  0  0  0  0  0  0  0  0  0  0  0
   45.8450   33.7250   41.4230 C   0  0  0  0  0  0  0  0  0  0  0  0
   45.4290   33.5260   42.7070 N   0  0  0  0  0  0  0  0  0  0  0  0
   46.1750   33.9150   43.7710 C   0  0  0  0  0  0  0  0  0  0  0  0
   47.3480   34.5090   43.5730 N   0  0  0  0  0  0  0  0  0  0  0  0
   49.0930   35.3820   42.1300 C   0  0  0  0  0  0  0  0  0  0  0  0
   49.2520   36.1480   41.1550 O   0  0  0  0  0  0  0  0  0  0  0  0
   50.1230   35.1410   43.0150 O   0  0  0  0  0  0  0  0  0  0  0  0
   46.4048   29.5933   49.7486 H   0  0  0  0  0  0  0  0  0  0  0  0
   44.8374   31.5629   50.4089 H   0  0  0  0  0  0  0  0  0  0  0  0
   48.0161   28.6647   44.4828 H   0  0  0  0  0  0  0  0  0  0  0  0
   49.4962   31.1848   43.8824 H   0  0  0  0  0  0  0  0  0  0  0  0
   49.6550   29.6155   43.0229 H   0  0  0  0  0  0  0  0  0  0  0  0
   48.0829   30.4846   43.0229 H   0  0  0  0  0  0  0  0  0  0  0  0
   49.5665   29.1432   46.7389 H   0  0  0  0  0  0  0  0  0  0  0  0
   50.0037   28.0057   45.4192 H   0  0  0  0  0  0  0  0  0  0  0  0
   50.6620   29.6771   45.4192 H   0  0  0  0  0  0  0  0  0  0  0  0
   47.4563   34.5339   40.2059 H   0  0  0  0  0  0  0  0  0  0  0  0
   45.2272   33.4021   40.5720 H   0  0  0  0  0  0  0  0  0  0  0  0
   51.0020   35.5767   42.8821 H   0  0  0  0  0  0  0  0  0  0  0  0
  1  2  1  0
  3  2  2  0
  4  9  2  0
  4  3  1  0
  5  4  1  0
  6  7  1  0
  6  5  2  0
  7  8  2  0
  8  9  1  0
  9  1  1  0
 10 12  1  0
 10  7  1  0
 11 10  1  0
 13  5  1  0
 14 19  2  0
 15 16  2  0
 15 14  1  0
 16 17  1  0
 17 18  2  0
 18 13  1  0
 19 18  1  0
 20 14  1  0
 20 22  1  0
 21 20  2  0
  1 23  1  0
  2 24  1  0
 10 25  1  0
 11 26  1  0
 11 27  1  0
 11 28  1  0
 12 29  1  0
 12 30  1  0
 12 31  1  0
 15 32  1  0
 16 33  1  0
 22 34  1  0
M  ISO  8  23   9  24  14  25   8  26   8  27   8  28   8  29   8  30   8
M  ISO  4  31   8  32  14  33  14  34   3
M  END
>  <minimizedAffinity>  (1) 
-5.73001957

>  <minimizedRMSD>  (1) 
0.184894189

$$$$
