
     RDKit          3D

 25 26  0  0  0  0  0  0  0  0999 V2000
   45.5330   34.6460   43.9710 C   0  0  0  0  0  0  0  0  0  0  0  0
   46.5500   34.3350   43.0370 C   0  0  0  0  0  0  0  0  0  0  0  0
   47.5180   33.3650   43.3690 C   0  0  0  0  0  0  0  0  0  0  0  0
   47.4040   32.7790   44.5930 N   0  0  0  0  0  0  0  0  0  0  0  0
   46.4310   33.0960   45.4510 C   0  0  0  0  0  0  0  0  0  0  0  0
   45.4950   34.0210   45.1570 N   0  0  0  0  0  0  0  0  0  0  0  0
   46.3360   32.4440   46.7680 C   0  0  0  0  0  0  0  0  0  0  0  0
   47.3720   31.5550   47.1410 C   0  0  0  0  0  0  0  0  0  0  0  0
   46.7750   31.0240   48.8500 S   0  0  0  0  0  0  0  0  0  0  0  0
   45.2490   32.1290   48.6840 C   0  0  0  0  0  0  0  0  0  0  0  0
   45.3770   32.5890   47.6770 N   0  0  0  0  0  0  0  0  0  0  0  0
   44.5300   35.6640   43.6050 C   0  0  0  0  0  0  0  0  0  0  0  0
   45.1820   37.0160   43.4340 C   0  0  0  0  0  0  0  0  0  0  0  0
   43.7770   35.3000   42.3440 C   0  0  0  0  0  0  0  0  0  0  0  0
   46.5848   34.8445   42.0627 H   0  0  0  0  0  0  0  0  0  0  0  0
   48.3260   33.0948   42.6732 H   0  0  0  0  0  0  0  0  0  0  0  0
   48.2748   31.2565   46.5880 H   0  0  0  0  0  0  0  0  0  0  0  0
   44.4332   32.2808   49.4061 H   0  0  0  0  0  0  0  0  0  0  0  0
   43.8044   35.7062   44.4306 H   0  0  0  0  0  0  0  0  0  0  0  0
   45.3912   37.4499   44.4229 H   0  0  0  0  0  0  0  0  0  0  0  0
   46.1237   36.9011   42.8773 H   0  0  0  0  0  0  0  0  0  0  0  0
   44.5058   37.6814   42.8773 H   0  0  0  0  0  0  0  0  0  0  0  0
   42.8164   34.8357   42.6117 H   0  0  0  0  0  0  0  0  0  0  0  0
   43.5927   36.2085   41.7518 H   0  0  0  0  0  0  0  0  0  0  0  0
   44.3745   34.5912   41.7518 H   0  0  0  0  0  0  0  0  0  0  0  0
  1  6  2  0
  2  3  2  0
  2  1  1  0
  3  4  1  0
  4  5  2  0
  5  7  1  0
  6  5  1  0
  7  8  2  0
  7 11  1  0
  8  9  1  0
 10  9  1  0
 11 10  2  0
 12  1  1  0
 13 12  1  0
 14 12  1  0
  2 15  1  0
  3 16  1  0
  8 17  1  0
 10 18  1  0
 12 19  1  0
 13 20  1  0
 13 21  1  0
 13 22  1  0
 14 23  1  0
 14 24  1  0
 14 25  1  0
M  ISO  8  15  14  16  14  17  14  18  14  19   8  20   8  21   8  22   8
M  ISO  3  23   8  24   8  25   8
M  END
>  <minimizedAffinity>  (1) 
-4.19087887

>  <minimizedRMSD>  (1) 
1.64080775

$$$$
