
     RDKit          3D

 45 47  0  0  0  0  0  0  0  0999 V2000
   46.5510   34.4520   42.5310 C   0  0  0  0  0  0  0  0  0  0  0  0
   47.8580   34.8180   42.4120 C   0  0  0  0  0  0  0  0  0  0  0  0
   48.5240   34.8130   41.1850 C   0  0  0  0  0  0  0  0  0  0  0  0
   47.8390   34.4220   40.0270 C   0  0  0  0  0  0  0  0  0  0  0  0
   46.5210   34.0530   40.1450 C   0  0  0  0  0  0  0  0  0  0  0  0
   45.8960   34.0720   41.3860 C   0  0  0  0  0  0  0  0  0  0  0  0
   44.5330   33.6830   41.4660 N   0  0  0  0  0  0  0  0  0  0  0  0
   43.7130   34.7020   41.0550 C   0  0  0  0  0  0  0  0  0  0  0  0
   42.3250   34.5410   41.0510 C   0  0  0  0  0  0  0  0  0  0  0  0
   41.8220   33.3180   41.4750 C   0  0  0  0  0  0  0  0  0  0  0  0
   40.5810   33.1040   41.4970 O   0  0  0  0  0  0  0  0  0  0  0  0
   42.6670   32.3520   41.8680 N   0  0  0  0  0  0  0  0  0  0  0  0
   43.9960   32.5220   41.8660 C   0  0  0  0  0  0  0  0  0  0  0  0
   44.8510   31.6820   42.2130 O   0  0  0  0  0  0  0  0  0  0  0  0
   41.4020   35.6220   40.6130 C   0  0  0  0  0  0  0  0  0  0  0  0
   44.5350   35.3960   45.5660 C   0  0  0  0  0  0  0  0  0  0  0  0
   45.0580   35.4720   44.2740 C   0  0  0  0  0  0  0  0  0  0  0  0
   45.9390   34.4870   43.8470 C   0  0  0  0  0  0  0  0  0  0  0  0
   46.2480   33.4990   44.7060 N   0  0  0  0  0  0  0  0  0  0  0  0
   45.7300   33.4450   45.9520 C   0  0  0  0  0  0  0  0  0  0  0  0
   44.8760   34.3940   46.3790 N   0  0  0  0  0  0  0  0  0  0  0  0
   46.0430   32.3810   46.9210 C   0  0  0  0  0  0  0  0  0  0  0  0
   47.3770   32.5470   47.5800 C   0  0  0  0  0  0  0  0  0  0  0  0
   45.9300   31.0570   46.2040 C   0  0  0  0  0  0  0  0  0  0  0  0
   44.9620   32.4150   47.9820 C   0  0  0  0  0  0  0  0  0  0  0  0
   48.4071   35.1280   43.3133 H   0  0  0  0  0  0  0  0  0  0  0  0
   49.5804   35.1143   41.1277 H   0  0  0  0  0  0  0  0  0  0  0  0
   48.3431   34.4108   39.0494 H   0  0  0  0  0  0  0  0  0  0  0  0
   45.9578   33.7411   39.2531 H   0  0  0  0  0  0  0  0  0  0  0  0
   44.1519   35.6553   40.7253 H   0  0  0  0  0  0  0  0  0  0  0  0
   42.2809   31.4500   42.1815 H   0  0  0  0  0  0  0  0  0  0  0  0
   40.9762   36.1207   41.4961 H   0  0  0  0  0  0  0  0  0  0  0  0
   41.9567   36.3556   40.0095 H   0  0  0  0  0  0  0  0  0  0  0  0
   40.5906   35.1892   40.0095 H   0  0  0  0  0  0  0  0  0  0  0  0
   43.8355   36.1689   45.9172 H   0  0  0  0  0  0  0  0  0  0  0  0
   44.7769   36.2987   43.6050 H   0  0  0  0  0  0  0  0  0  0  0  0
   47.2507   32.5313   48.6726 H   0  0  0  0  0  0  0  0  0  0  0  0
   48.0411   31.7246   47.2758 H   0  0  0  0  0  0  0  0  0  0  0  0
   47.8193   33.5071   47.2758 H   0  0  0  0  0  0  0  0  0  0  0  0
   45.8607   30.2448   46.9426 H   0  0  0  0  0  0  0  0  0  0  0  0
   45.0286   31.0572   45.5735 H   0  0  0  0  0  0  0  0  0  0  0  0
   46.8184   30.9044   45.5735 H   0  0  0  0  0  0  0  0  0  0  0  0
   45.4263   32.4004   48.9791 H   0  0  0  0  0  0  0  0  0  0  0  0
   44.3657   33.3323   47.8686 H   0  0  0  0  0  0  0  0  0  0  0  0
   44.3092   31.5369   47.8686 H   0  0  0  0  0  0  0  0  0  0  0  0
  1 18  1  0
  2  1  2  0
  3  2  1  0
  4  5  1  0
  4  3  2  0
  5  6  2  0
  6  7  1  0
  6  1  1  0
  7 13  1  0
  8  7  1  0
  9  8  2  0
  9 10  1  0
 10 11  2  0
 10 12  1  0
 13 12  1  0
 13 14  2  0
 15  9  1  0
 16 21  2  0
 17 16  1  0
 18 17  2  0
 18 19  1  0
 19 20  2  0
 20 21  1  0
 20 22  1  0
 22 23  1  0
 22 25  1  0
 24 22  1  0
  2 26  1  0
  3 27  1  0
  4 28  1  0
  5 29  1  0
  8 30  1  0
 12 31  1  0
 15 32  1  0
 15 33  1  0
 15 34  1  0
 16 35  1  0
 17 36  1  0
 23 37  1  0
 23 38  1  0
 23 39  1  0
 24 40  1  0
 24 41  1  0
 24 42  1  0
 25 43  1  0
 25 44  1  0
 25 45  1  0
M  ISO  8  26  14  27  14  28  14  29  14  30  14  31   9  32   8  33   8
M  ISO  8  34   8  35  14  36  14  37   8  38   8  39   8  40   8  41   8
M  ISO  4  42   8  43   8  44   8  45   8
M  END
>  <minimizedAffinity>  (1) 
-6.83851957

>  <minimizedRMSD>  (1) 
0.693547666

$$$$
