
     RDKit          3D

 47 49  0  0  1  0  0  0  0  0999 V2000
   41.6840   35.2180   40.5450 S   0  0  0  0  0  0  0  0  0  0  0  0
   38.5410   32.1190   39.9320 N   0  0  0  0  0  0  0  0  0  0  0  0
   38.4350   33.5550   39.9060 C   0  0  0  0  0  0  0  0  0  0  0  0
   39.2740   34.1820   40.9970 C   0  0  0  0  0  0  0  0  0  0  0  0
   40.6960   33.7480   40.8070 C   0  0  1  0  0  0  0  0  0  0  0  0
   40.8920   32.7740   39.6730 C   0  0  0  0  0  0  0  0  0  0  0  0
   39.8840   31.6390   39.7650 C   0  0  2  0  0  0  0  0  0  0  0  0
   39.9810   30.8560   38.4490 C   0  0  0  0  0  0  0  0  0  0  0  0
   41.1480   31.3340   37.6190 C   0  0  0  0  0  0  0  0  0  0  0  0
   38.7220   31.0270   37.6340 C   0  0  0  0  0  0  0  0  0  0  0  0
   40.1740   29.3860   38.7110 C   0  0  0  0  0  0  0  0  0  0  0  0
   44.0290   35.5340   42.0020 C   0  0  0  0  0  0  0  0  0  0  0  0
   43.4150   34.9260   40.9020 C   0  0  0  0  0  0  0  0  0  0  0  0
   44.1730   34.1090   40.1130 C   0  0  0  0  0  0  0  0  0  0  0  0
   45.4890   33.9020   40.4060 N   0  0  0  0  0  0  0  0  0  0  0  0
   46.0590   34.4990   41.4720 C   0  0  0  0  0  0  0  0  0  0  0  0
   45.3310   35.3220   42.2800 N   0  0  0  0  0  0  0  0  0  0  0  0
   47.4530   34.3220   41.8410 C   0  0  0  0  0  0  0  0  0  0  0  0
   48.3090   35.3730   41.8820 C   0  0  0  0  0  0  0  0  0  0  0  0
   49.6440   35.2270   42.2310 C   0  0  0  0  0  0  0  0  0  0  0  0
   50.1420   33.9820   42.5490 C   0  0  0  0  0  0  0  0  0  0  0  0
   49.2480   32.9170   42.5010 C   0  0  0  0  0  0  0  0  0  0  0  0
   47.9620   33.1090   42.1570 N   0  0  0  0  0  0  0  0  0  0  0  0
   38.1852   31.7825   40.8381 H   0  0  0  0  0  0  0  0  0  0  0  0
   38.7819   33.9234   38.9293 H   0  0  0  0  0  0  0  0  0  0  0  0
   37.3831   33.8311   40.0715 H   0  0  0  0  0  0  0  0  0  0  0  0
   39.2082   35.2782   40.9329 H   0  0  0  0  0  0  0  0  0  0  0  0
   38.9098   33.8633   41.9848 H   0  0  0  0  0  0  0  0  0  0  0  0
   41.0085   33.2041   41.7106 H   0  0  0  0  0  0  0  0  0  0  0  0
   41.9096   32.3593   39.7239 H   0  0  0  0  0  0  0  0  0  0  0  0
   40.7453   33.3035   38.7201 H   0  0  0  0  0  0  0  0  0  0  0  0
   40.1128   31.0154   40.6418 H   0  0  0  0  0  0  0  0  0  0  0  0
   41.9590   31.6662   38.2837 H   0  0  0  0  0  0  0  0  0  0  0  0
   41.5080   30.5109   36.9843 H   0  0  0  0  0  0  0  0  0  0  0  0
   40.8272   32.1732   36.9843 H   0  0  0  0  0  0  0  0  0  0  0  0
   37.8613   31.1439   38.3090 H   0  0  0  0  0  0  0  0  0  0  0  0
   38.8145   31.9208   36.9996 H   0  0  0  0  0  0  0  0  0  0  0  0
   38.5727   30.1409   36.9996 H   0  0  0  0  0  0  0  0  0  0  0  0
   40.1975   29.2069   39.7961 H   0  0  0  0  0  0  0  0  0  0  0  0
   39.3422   28.8216   38.2642 H   0  0  0  0  0  0  0  0  0  0  0  0
   41.1233   29.0554   38.2642 H   0  0  0  0  0  0  0  0  0  0  0  0
   43.4389   36.1970   42.6518 H   0  0  0  0  0  0  0  0  0  0  0  0
   43.7213   33.6167   39.2392 H   0  0  0  0  0  0  0  0  0  0  0  0
   47.9322   36.3753   41.6300 H   0  0  0  0  0  0  0  0  0  0  0  0
   50.3053   36.1057   42.2539 H   0  0  0  0  0  0  0  0  0  0  0  0
   51.1962   33.8371   42.8275 H   0  0  0  0  0  0  0  0  0  0  0  0
   49.5979   31.9038   42.7479 H   0  0  0  0  0  0  0  0  0  0  0  0
  1  5  1  0
  1 13  1  0
  3  2  1  0
  3  4  1  0
  5  4  1  0
  6  7  1  0
  6  5  1  0
  7  2  1  0
  8 11  1  0
  8  7  1  0
  9  8  1  0
 10  8  1  0
 12 17  2  0
 13 12  1  0
 14 15  1  0
 14 13  2  0
 15 16  2  0
 16 18  1  0
 16 17  1  0
 18 19  2  0
 18 23  1  0
 19 20  1  0
 20 21  2  0
 22 21  1  0
 23 22  2  0
  2 24  1  0
  3 25  1  0
  3 26  1  0
  4 27  1  0
  4 28  1  0
  5 29  1  1
  6 30  1  0
  6 31  1  0
  7 32  1  1
  9 33  1  0
  9 34  1  0
  9 35  1  0
 10 36  1  0
 10 37  1  0
 10 38  1  0
 11 39  1  0
 11 40  1  0
 11 41  1  0
 12 42  1  0
 14 43  1  0
 19 44  1  0
 20 45  1  0
 21 46  1  0
 22 47  1  0
M  ISO  8  24   5  25  13  26  13  27  13  28  13  29  13  30  13  31  13
M  ISO  8  32  13  33   8  34   8  35   8  36   8  37   8  38   8  39   8
M  ISO  8  40   8  41   8  42  14  43  14  44  14  45  14  46  14  47  14
M  END
>  <minimizedAffinity>  (1) 
-5.44974375

>  <minimizedRMSD>  (1) 
2.60035563

$$$$
