
     RDKit          3D

 41 45  0  0  0  0  0  0  0  0999 V2000
   46.0640   34.2160   40.8350 C   0  0  0  0  0  0  0  0  0  0  0  0
   46.5740   34.8740   41.9840 C   0  0  0  0  0  0  0  0  0  0  0  0
   47.9090   35.2670   42.0170 C   0  0  0  0  0  0  0  0  0  0  0  0
   48.6690   34.9940   40.9270 N   0  0  0  0  0  0  0  0  0  0  0  0
   48.1580   34.3640   39.8410 C   0  0  0  0  0  0  0  0  0  0  0  0
   46.8720   33.9890   39.8170 N   0  0  0  0  0  0  0  0  0  0  0  0
   45.8130   35.1780   43.1430 N   0  0  0  0  0  0  0  0  0  0  0  0
   44.9580   36.1310   43.5240 C   0  0  0  0  0  0  0  0  0  0  0  0
   44.5210   35.9140   44.7800 N   0  0  0  0  0  0  0  0  0  0  0  0
   45.1160   34.7870   45.2200 C   0  0  0  0  0  0  0  0  0  0  0  0
   44.9490   34.2010   46.4630 C   0  0  0  0  0  0  0  0  0  0  0  0
   45.6570   33.0680   46.6710 N   0  0  0  0  0  0  0  0  0  0  0  0
   46.4610   32.5810   45.6960 C   0  0  0  0  0  0  0  0  0  0  0  0
   46.5880   33.1920   44.5000 N   0  0  0  0  0  0  0  0  0  0  0  0
   45.9080   34.3370   44.2150 C   0  0  0  0  0  0  0  0  0  0  0  0
   44.6420   33.8710   40.9650 C   0  0  0  0  0  0  0  0  0  0  0  0
   44.0350   33.5570   39.6260 C   0  0  0  0  0  0  0  0  0  0  0  0
   42.6720   33.9700   39.4910 N   0  0  0  0  0  0  0  0  0  0  0  0
   42.1090   34.8560   38.6490 C   0  0  0  0  0  0  0  0  0  0  0  0
   40.7660   34.9550   38.8540 N   0  0  0  0  0  0  0  0  0  0  0  0
   40.4400   34.1160   39.8550 C   0  0  0  0  0  0  0  0  0  0  0  0
   39.2380   33.8470   40.4340 C   0  0  0  0  0  0  0  0  0  0  0  0
   38.2090   34.4270   40.0370 O   0  0  0  0  0  0  0  0  0  0  0  0
   39.2000   32.9370   41.4440 N   0  0  0  0  0  0  0  0  0  0  0  0
   40.3540   32.3520   41.8180 C   0  0  0  0  0  0  0  0  0  0  0  0
   40.3860   31.3960   42.8630 N   0  0  0  0  0  0  0  0  0  0  0  0
   41.5540   32.6270   41.2330 N   0  0  0  0  0  0  0  0  0  0  0  0
   41.6250   33.5350   40.2170 C   0  0  0  0  0  0  0  0  0  0  0  0
   48.3317   35.7795   42.8937 H   0  0  0  0  0  0  0  0  0  0  0  0
   48.8032   34.1594   38.9739 H   0  0  0  0  0  0  0  0  0  0  0  0
   44.6514   36.9803   42.8957 H   0  0  0  0  0  0  0  0  0  0  0  0
   44.2854   34.6281   47.2294 H   0  0  0  0  0  0  0  0  0  0  0  0
   47.0285   31.6579   45.8853 H   0  0  0  0  0  0  0  0  0  0  0  0
   44.5443   32.9916   41.6185 H   0  0  0  0  0  0  0  0  0  0  0  0
   44.1117   34.7338   41.3945 H   0  0  0  0  0  0  0  0  0  0  0  0
   44.6280   34.0640   38.8505 H   0  0  0  0  0  0  0  0  0  0  0  0
   44.0464   32.4620   39.5216 H   0  0  0  0  0  0  0  0  0  0  0  0
   42.6635   35.4282   37.8907 H   0  0  0  0  0  0  0  0  0  0  0  0
   38.3124   32.7015   41.9104 H   0  0  0  0  0  0  0  0  0  0  0  0
   41.2786   30.9596   43.1346 H   0  0  0  0  0  0  0  0  0  0  0  0
   39.5167   31.1374   43.3512 H   0  0  0  0  0  0  0  0  0  0  0  0
  1 16  1  0
  1  2  1  0
  2  3  2  0
  2  7  1  0
  4  3  1  0
  5  4  2  0
  6  5  1  0
  6  1  2  0
  7  8  1  0
  7 15  1  0
  8  9  2  0
  9 10  1  0
 10 11  2  0
 11 12  1  0
 13 12  2  0
 14 13  1  0
 15 14  2  0
 15 10  1  0
 17 16  1  0
 18 17  1  0
 18 28  1  0
 19 20  2  0
 19 18  1  0
 20 21  1  0
 21 28  2  0
 21 22  1  0
 22 24  1  0
 23 22  2  0
 24 25  1  0
 25 26  1  0
 27 25  2  0
 28 27  1  0
  3 29  1  0
  5 30  1  0
  8 31  1  0
 11 32  1  0
 13 33  1  0
 16 34  1  0
 16 35  1  0
 17 36  1  0
 17 37  1  0
 19 38  1  0
 24 39  1  0
 26 40  1  0
 26 41  1  0
M  END
>  <minimizedAffinity>  (1) 
-7.18469

>  <minimizedRMSD>  (1) 
1.43720496

$$$$
