
     RDKit          3D

 49 52  0  0  1  0  0  0  0  0999 V2000
   46.9260   34.5060   41.3360 C   0  0  0  0  0  0  0  0  0  0  0  0
   48.1960   34.9500   40.9910 C   0  0  0  0  0  0  0  0  0  0  0  0
   48.4640   34.6380   39.7270 N   0  0  0  0  0  0  0  0  0  0  0  0
   47.3850   33.9980   39.2460 C   0  0  0  0  0  0  0  0  0  0  0  0
   47.1280   33.4490   37.9860 C   0  0  0  0  0  0  0  0  0  0  0  0
   45.9430   32.8350   37.7380 C   0  0  0  0  0  0  0  0  0  0  0  0
   44.9450   32.7120   38.6730 C   0  0  0  0  0  0  0  0  0  0  0  0
   45.2140   33.2620   39.9210 C   0  0  0  0  0  0  0  0  0  0  0  0
   46.3970   33.8900   40.2130 C   0  0  0  0  0  0  0  0  0  0  0  0
   44.7750   35.8810   44.0550 C   0  0  0  0  0  0  0  0  0  0  0  0
   45.4150   35.7540   42.8070 C   0  0  0  0  0  0  0  0  0  0  0  0
   46.2550   34.6490   42.6270 C   0  0  0  0  0  0  0  0  0  0  0  0
   46.4260   33.7480   43.6430 N   0  0  0  0  0  0  0  0  0  0  0  0
   45.7740   33.9390   44.8200 C   0  0  0  0  0  0  0  0  0  0  0  0
   44.9600   34.9810   45.0360 N   0  0  0  0  0  0  0  0  0  0  0  0
   49.1050   35.6600   41.9110 C   0  0  0  0  0  0  0  0  0  0  0  0
   50.0240   34.7150   42.6190 C   0  0  0  0  0  0  0  0  0  0  0  0
   50.2550   33.4010   41.8960 C   0  0  1  0  0  0  0  0  0  0  0  0
   50.9760   32.3310   42.5410 C   0  0  0  0  0  0  0  0  0  0  0  0
   49.4810   32.2260   42.4740 C   0  0  2  0  0  0  0  0  0  0  0  0
   49.0630   31.0310   41.7250 C   0  0  0  0  0  0  0  0  0  0  0  0
   47.5800   30.7110   41.7640 C   0  0  0  0  0  0  0  0  0  0  0  0
   49.7410   29.8200   42.3590 C   0  0  0  0  0  0  0  0  0  0  0  0
   49.4580   30.9990   40.2770 C   0  0  0  0  0  0  0  0  0  0  0  0
   49.3326   34.8469   39.2144 H   0  0  0  0  0  0  0  0  0  0  0  0
   47.8881   33.5148   37.1936 H   0  0  0  0  0  0  0  0  0  0  0  0
   45.7735   32.4141   36.7359 H   0  0  0  0  0  0  0  0  0  0  0  0
   43.9924   32.2098   38.4486 H   0  0  0  0  0  0  0  0  0  0  0  0
   44.4466   33.1904   40.7059 H   0  0  0  0  0  0  0  0  0  0  0  0
   44.1076   36.7374   44.2312 H   0  0  0  0  0  0  0  0  0  0  0  0
   45.2611   36.4928   42.0067 H   0  0  0  0  0  0  0  0  0  0  0  0
   45.9206   33.2079   45.6287 H   0  0  0  0  0  0  0  0  0  0  0  0
   49.7068   36.3778   41.3343 H   0  0  0  0  0  0  0  0  0  0  0  0
   48.4943   36.1756   42.6668 H   0  0  0  0  0  0  0  0  0  0  0  0
   50.9967   35.2126   42.7464 H   0  0  0  0  0  0  0  0  0  0  0  0
   49.5399   34.4652   43.5746 H   0  0  0  0  0  0  0  0  0  0  0  0
   50.3761   33.8879   40.9171 H   0  0  0  0  0  0  0  0  0  0  0  0
   51.5964   31.6521   41.9374 H   0  0  0  0  0  0  0  0  0  0  0  0
   51.7095   32.2880   43.3596 H   0  0  0  0  0  0  0  0  0  0  0  0
   48.5764   32.2037   43.0995 H   0  0  0  0  0  0  0  0  0  0  0  0
   47.2478   30.6393   42.8102 H   0  0  0  0  0  0  0  0  0  0  0  0
   47.0192   31.5088   41.2550 H   0  0  0  0  0  0  0  0  0  0  0  0
   47.3981   29.7529   41.2550 H   0  0  0  0  0  0  0  0  0  0  0  0
   49.6934   29.9050   43.4547 H   0  0  0  0  0  0  0  0  0  0  0  0
   49.2255   28.9022   42.0397 H   0  0  0  0  0  0  0  0  0  0  0  0
   50.7929   29.7797   42.0397 H   0  0  0  0  0  0  0  0  0  0  0  0
   50.5515   30.9104   40.1971 H   0  0  0  0  0  0  0  0  0  0  0  0
   48.9834   30.1364   39.7865 H   0  0  0  0  0  0  0  0  0  0  0  0
   49.1285   31.9268   39.7865 H   0  0  0  0  0  0  0  0  0  0  0  0
  1 12  1  0
  2  1  2  0
  2 16  1  0
  3  2  1  0
  4  3  1  0
  4  9  2  0
  5  4  1  0
  6  5  2  0
  6  7  1  0
  7  8  2  0
  8  9  1  0
  9  1  1  0
 10 15  2  0
 11 10  1  0
 12 11  2  0
 12 13  1  0
 13 14  2  0
 14 15  1  0
 16 17  1  0
 18 20  1  0
 18 19  1  0
 18 17  1  0
 20 19  1  0
 21 22  1  0
 21 23  1  0
 21 20  1  0
 24 21  1  0
  3 25  1  0
  5 26  1  0
  6 27  1  0
  7 28  1  0
  8 29  1  0
 10 30  1  0
 11 31  1  0
 14 32  1  0
 16 33  1  0
 16 34  1  0
 17 35  1  0
 17 36  1  0
 18 37  1  6
 19 38  1  0
 19 39  1  0
 20 40  1  1
 22 41  1  0
 22 42  1  0
 22 43  1  0
 23 44  1  0
 23 45  1  0
 23 46  1  0
 24 47  1  0
 24 48  1  0
 24 49  1  0
M  ISO  8  25   9  26  14  27  14  28  14  29  14  30  14  31  14  32  14
M  ISO  8  33   8  34   8  35   8  36   8  37  13  38  13  39  13  40  13
M  ISO  8  41   8  42   8  43   8  44   8  45   8  46   8  47   8  48   8
M  ISO  1  49   8
M  END
>  <minimizedAffinity>  (1) 
-5.77749109

>  <minimizedRMSD>  (1) 
0.289927959

$$$$
