
     RDKit          3D

 52 56  0  0  1  0  0  0  0  0999 V2000
   46.0970   32.1460   45.4570 C   0  0  1  0  0  0  0  0  0  0  0  0
   45.6020   31.9880   49.1230 C   0  0  0  0  0  0  0  0  0  0  0  0
   45.1940   30.6180   49.2920 C   0  0  0  0  0  0  0  0  0  0  0  0
   45.1080   29.7830   48.1270 C   0  0  0  0  0  0  0  0  0  0  0  0
   45.4200   30.3340   46.9150 N   0  0  0  0  0  0  0  0  0  0  0  0
   45.7940   31.6160   46.8140 C   0  0  0  0  0  0  0  0  0  0  0  0
   45.8850   32.4340   47.9050 N   0  0  0  0  0  0  0  0  0  0  0  0
   46.5290   33.5450   45.4290 C   0  0  0  0  0  0  0  0  0  0  0  0
   45.5890   34.3270   44.5840 C   0  0  0  0  0  0  0  0  0  0  0  0
   44.7730   35.2570   45.1780 C   0  0  0  0  0  0  0  0  0  0  0  0
   44.0070   35.8430   44.2060 C   0  0  0  0  0  0  0  0  0  0  0  0
   44.4180   35.2140   43.0560 N   0  0  0  0  0  0  0  0  0  0  0  0
   45.3520   34.3180   43.2660 N   0  0  0  0  0  0  0  0  0  0  0  0
   44.5150   34.6650   40.7170 N   0  0  0  0  0  0  0  0  0  0  0  0
   43.4620   34.1330   39.8840 C   0  0  0  0  0  0  0  0  0  0  0  0
   42.3420   33.9020   40.9140 C   0  0  0  0  0  0  0  0  0  0  0  0
   42.3950   35.2150   41.6680 C   0  0  0  0  0  0  0  0  0  0  0  0
   43.8860   35.4930   41.7150 C   0  0  1  0  0  0  0  0  0  0  0  0
   47.0600   31.1860   44.7700 C   0  0  0  0  0  0  0  0  0  0  0  0
   47.3800   31.4850   43.4290 N   0  0  0  0  0  0  0  0  0  0  0  0
   46.8070   30.7030   42.4650 C   0  0  0  0  0  0  0  0  0  0  0  0
   47.1900   31.1150   41.2230 N   0  0  0  0  0  0  0  0  0  0  0  0
   48.0140   32.1640   41.3580 C   0  0  0  0  0  0  0  0  0  0  0  0
   48.7310   33.0150   40.5490 C   0  0  0  0  0  0  0  0  0  0  0  0
   48.6570   32.8490   39.3100 O   0  0  0  0  0  0  0  0  0  0  0  0
   49.5100   34.0150   41.0100 N   0  0  0  0  0  0  0  0  0  0  0  0
   49.5470   34.1410   42.3690 C   0  0  0  0  0  0  0  0  0  0  0  0
   50.3540   35.1800   42.9090 N   0  0  0  0  0  0  0  0  0  0  0  0
   48.8660   33.3390   43.1960 N   0  0  0  0  0  0  0  0  0  0  0  0
   48.0950   32.3470   42.7170 C   0  0  0  0  0  0  0  0  0  0  0  0
   45.1589   32.1862   44.8840 H   0  0  0  0  0  0  0  0  0  0  0  0
   45.6784   32.6573   49.9926 H   0  0  0  0  0  0  0  0  0  0  0  0
   44.9540   30.2205   50.2892 H   0  0  0  0  0  0  0  0  0  0  0  0
   44.7999   28.7301   48.2072 H   0  0  0  0  0  0  0  0  0  0  0  0
   46.5301   33.9508   46.4514 H   0  0  0  0  0  0  0  0  0  0  0  0
   47.5449   33.6111   45.0123 H   0  0  0  0  0  0  0  0  0  0  0  0
   44.7400   35.4917   46.2522 H   0  0  0  0  0  0  0  0  0  0  0  0
   43.2455   36.6287   44.3189 H   0  0  0  0  0  0  0  0  0  0  0  0
   45.1649   35.2274   40.1493 H   0  0  0  0  0  0  0  0  0  0  0  0
   43.1560   34.8555   39.1130 H   0  0  0  0  0  0  0  0  0  0  0  0
   43.7472   33.2313   39.3222 H   0  0  0  0  0  0  0  0  0  0  0  0
   41.3668   33.7504   40.4282 H   0  0  0  0  0  0  0  0  0  0  0  0
   42.4682   33.0058   41.5392 H   0  0  0  0  0  0  0  0  0  0  0  0
   41.8576   36.0081   41.1275 H   0  0  0  0  0  0  0  0  0  0  0  0
   41.9200   35.1762   42.6594 H   0  0  0  0  0  0  0  0  0  0  0  0
   44.0919   36.5526   41.5034 H   0  0  0  0  0  0  0  0  0  0  0  0
   47.9970   31.1796   45.3462 H   0  0  0  0  0  0  0  0  0  0  0  0
   46.5420   30.2160   44.7420 H   0  0  0  0  0  0  0  0  0  0  0  0
   46.1307   29.8585   42.6638 H   0  0  0  0  0  0  0  0  0  0  0  0
   50.0383   34.6380   40.3826 H   0  0  0  0  0  0  0  0  0  0  0  0
   50.4107   35.3107   43.9291 H   0  0  0  0  0  0  0  0  0  0  0  0
   50.8818   35.8018   42.2800 H   0  0  0  0  0  0  0  0  0  0  0  0
  1  6  1  0
  2  3  2  0
  4  3  1  0
  5  4  2  0
  6  5  1  0
  6  7  2  0
  7  2  1  0
  8  1  1  0
  9 10  1  0
  9  8  1  0
 11 10  2  0
 12 13  1  0
 12 11  1  0
 13  9  2  0
 14 18  1  0
 15 14  1  0
 15 16  1  0
 16 17  1  0
 17 18  1  0
 18 12  1  0
 19  1  1  0
 20 19  1  0
 21 20  1  0
 22 23  1  0
 22 21  2  0
 23 30  2  0
 24 26  1  0
 24 23  1  0
 25 24  2  0
 26 27  1  0
 27 28  1  0
 27 29  2  0
 30 29  1  0
 30 20  1  0
  1 31  1  6
  2 32  1  0
  3 33  1  0
  4 34  1  0
  8 35  1  0
  8 36  1  0
 10 37  1  0
 11 38  1  0
 14 39  1  0
 15 40  1  0
 15 41  1  0
 16 42  1  0
 16 43  1  0
 17 44  1  0
 17 45  1  0
 18 46  1  6
 19 47  1  0
 19 48  1  0
 21 49  1  0
 26 50  1  0
 28 51  1  0
 28 52  1  0
M  ISO  8  31   8  32  14  33  14  34  14  35   8  36   8  37  14  38  14
M  ISO  8  39   5  40  13  41  13  42  13  43  13  44  13  45  13  46  13
M  ISO  4  47   8  48   8  49  14  50   9
M  END
>  <minimizedAffinity>  (1) 
-6.81599903

>  <minimizedRMSD>  (1) 
1.20762026

$$$$
