
     RDKit          3D

 36 38  0  0  0  0  0  0  0  0999 V2000
   46.9030   34.3890   42.1110 C   0  0  0  0  0  0  0  0  0  0  0  0
   44.5470   35.8640   44.6880 C   0  0  0  0  0  0  0  0  0  0  0  0
   45.2350   35.7250   43.4680 C   0  0  0  0  0  0  0  0  0  0  0  0
   46.1250   34.6480   43.3260 C   0  0  0  0  0  0  0  0  0  0  0  0
   46.2720   33.7960   44.3850 N   0  0  0  0  0  0  0  0  0  0  0  0
   45.5820   33.9820   45.5340 C   0  0  0  0  0  0  0  0  0  0  0  0
   44.7360   34.9890   45.6960 N   0  0  0  0  0  0  0  0  0  0  0  0
   45.9170   34.3370   40.9490 C   0  0  0  0  0  0  0  0  0  0  0  0
   47.9910   35.3390   41.8280 C   0  0  0  0  0  0  0  0  0  0  0  0
   47.4970   32.9930   42.2040 C   0  0  0  0  0  0  0  0  0  0  0  0
   47.4130   32.3080   40.9960 O   0  0  0  0  0  0  0  0  0  0  0  0
   48.5520   32.0980   40.2490 C   0  0  0  0  0  0  0  0  0  0  0  0
   49.7210   31.7220   40.8370 N   0  0  0  0  0  0  0  0  0  0  0  0
   50.6390   31.5870   39.9410 O   0  0  0  0  0  0  0  0  0  0  0  0
   50.1790   31.8470   38.7580 C   0  0  0  0  0  0  0  0  0  0  0  0
   48.8930   32.1620   38.9440 N   0  0  0  0  0  0  0  0  0  0  0  0
   50.8220   31.8240   37.5210 O   0  0  0  0  0  0  0  0  0  0  0  0
   52.0970   31.2790   37.4330 C   0  0  0  0  0  0  0  0  0  0  0  0
   52.6380   30.1060   36.9180 C   0  0  0  0  0  0  0  0  0  0  0  0
   54.0150   30.1270   37.1320 C   0  0  0  0  0  0  0  0  0  0  0  0
   54.2350   31.3290   37.7750 C   0  0  0  0  0  0  0  0  0  0  0  0
   53.1070   31.9470   37.9220 O   0  0  0  0  0  0  0  0  0  0  0  0
   43.8441   36.6996   44.8211 H   0  0  0  0  0  0  0  0  0  0  0  0
   45.0797   36.4410   42.6475 H   0  0  0  0  0  0  0  0  0  0  0  0
   45.7284   33.2729   46.3621 H   0  0  0  0  0  0  0  0  0  0  0  0
   44.8907   34.2829   41.3411 H   0  0  0  0  0  0  0  0  0  0  0  0
   46.0272   35.2422   40.3338 H   0  0  0  0  0  0  0  0  0  0  0  0
   46.1218   33.4484   40.3338 H   0  0  0  0  0  0  0  0  0  0  0  0
   48.4122   35.7068   42.7752 H   0  0  0  0  0  0  0  0  0  0  0  0
   48.7777   34.8335   41.2486 H   0  0  0  0  0  0  0  0  0  0  0  0
   47.5962   36.1866   41.2486 H   0  0  0  0  0  0  0  0  0  0  0  0
   48.5554   33.0761   42.4920 H   0  0  0  0  0  0  0  0  0  0  0  0
   46.9229   32.4294   42.9542 H   0  0  0  0  0  0  0  0  0  0  0  0
   52.0752   29.2992   36.4257 H   0  0  0  0  0  0  0  0  0  0  0  0
   54.7554   29.3627   36.8531 H   0  0  0  0  0  0  0  0  0  0  0  0
   55.2141   31.7025   38.1095 H   0  0  0  0  0  0  0  0  0  0  0  0
  1 10  1  0
  1  4  1  0
  2  7  2  0
  3  2  1  0
  4  3  2  0
  4  5  1  0
  5  6  2  0
  6  7  1  0
  8  1  1  0
  9  1  1  0
 11 10  1  0
 12 13  2  0
 12 11  1  0
 14 13  1  0
 15 16  2  0
 15 14  1  0
 16 12  1  0
 17 15  1  0
 18 17  1  0
 18 22  1  0
 19 20  1  0
 19 18  2  0
 20 21  2  0
 21 22  1  0
  2 23  1  0
  3 24  1  0
  6 25  1  0
  8 26  1  0
  8 27  1  0
  8 28  1  0
  9 29  1  0
  9 30  1  0
  9 31  1  0
 10 32  1  0
 10 33  1  0
 19 34  1  0
 20 35  1  0
 21 36  1  0
M  ISO  8  23  14  24  14  25  14  26   8  27   8  28   8  29   8  30   8
M  ISO  6  31   8  32   8  33   8  34  14  35  14  36  14
M  END
>  <minimizedAffinity>  (1) 
-4.7123661

>  <minimizedRMSD>  (1) 
1.8461647

$$$$
