
     RDKit          3D

 50 54  0  0  0  0  0  0  0  0999 V2000
   46.1060   32.0230   47.3230 C   0  0  0  0  0  0  0  0  0  0  0  0
   44.4730   35.0670   46.1740 C   0  0  0  0  0  0  0  0  0  0  0  0
   44.7190   35.0630   44.7860 C   0  0  0  0  0  0  0  0  0  0  0  0
   45.4570   33.9970   44.2370 C   0  0  0  0  0  0  0  0  0  0  0  0
   45.8940   33.0280   45.0760 N   0  0  0  0  0  0  0  0  0  0  0  0
   45.6360   33.0680   46.4100 C   0  0  0  0  0  0  0  0  0  0  0  0
   44.9350   34.0780   46.9460 N   0  0  0  0  0  0  0  0  0  0  0  0
   45.6740   34.0370   42.8570 N   0  0  0  0  0  0  0  0  0  0  0  0
   44.9090   33.8530   41.7640 C   0  0  0  0  0  0  0  0  0  0  0  0
   45.6310   34.0120   40.6370 N   0  0  0  0  0  0  0  0  0  0  0  0
   46.9000   34.3060   41.0140 C   0  0  0  0  0  0  0  0  0  0  0  0
   48.0360   34.5620   40.2480 C   0  0  0  0  0  0  0  0  0  0  0  0
   48.0330   34.5520   39.0020 O   0  0  0  0  0  0  0  0  0  0  0  0
   49.2010   34.8350   40.8640 N   0  0  0  0  0  0  0  0  0  0  0  0
   49.1920   34.8430   42.2060 C   0  0  0  0  0  0  0  0  0  0  0  0
   50.3640   35.1180   42.9650 N   0  0  0  0  0  0  0  0  0  0  0  0
   48.1070   34.5970   42.9360 N   0  0  0  0  0  0  0  0  0  0  0  0
   46.9080   34.3180   42.3920 C   0  0  0  0  0  0  0  0  0  0  0  0
   45.8080   32.4040   48.7740 C   0  0  0  0  0  0  0  0  0  0  0  0
   45.5030   30.6720   47.0530 C   0  0  0  0  0  0  0  0  0  0  0  0
   47.6170   31.9600   47.1980 C   0  0  0  0  0  0  0  0  0  0  0  0
   48.1800   30.7240   47.6620 N   0  0  0  0  0  0  0  0  0  0  0  0
   48.0320   29.5550   47.0500 C   0  0  0  0  0  0  0  0  0  0  0  0
   48.6750   28.5620   47.7160 N   0  0  0  0  0  0  0  0  0  0  0  0
   49.2410   29.1200   48.7750 C   0  0  0  0  0  0  0  0  0  0  0  0
   50.0110   28.5920   49.7920 C   0  0  0  0  0  0  0  0  0  0  0  0
   50.3270   27.3840   49.8830 O   0  0  0  0  0  0  0  0  0  0  0  0
   50.4580   29.4360   50.7610 N   0  0  0  0  0  0  0  0  0  0  0  0
   50.1570   30.7580   50.7310 C   0  0  0  0  0  0  0  0  0  0  0  0
   50.6890   31.5250   51.8070 N   0  0  0  0  0  0  0  0  0  0  0  0
   49.3950   31.2720   49.7210 N   0  0  0  0  0  0  0  0  0  0  0  0
   48.9350   30.4530   48.7400 C   0  0  0  0  0  0  0  0  0  0  0  0
   43.8974   35.8889   46.6247 H   0  0  0  0  0  0  0  0  0  0  0  0
   44.3427   35.8747   44.1460 H   0  0  0  0  0  0  0  0  0  0  0  0
   43.8374   33.6058   41.7878 H   0  0  0  0  0  0  0  0  0  0  0  0
   50.0601   35.0289   40.3300 H   0  0  0  0  0  0  0  0  0  0  0  0
   50.3232   35.1164   43.9942 H   0  0  0  0  0  0  0  0  0  0  0  0
   51.2530   35.3187   42.4851 H   0  0  0  0  0  0  0  0  0  0  0  0
   46.3427   31.7204   49.4498 H   0  0  0  0  0  0  0  0  0  0  0  0
   46.1409   33.4362   48.9579 H   0  0  0  0  0  0  0  0  0  0  0  0
   44.7260   32.3295   48.9579 H   0  0  0  0  0  0  0  0  0  0  0  0
   45.2801   30.1726   48.0074 H   0  0  0  0  0  0  0  0  0  0  0  0
   44.5738   30.7937   46.4771 H   0  0  0  0  0  0  0  0  0  0  0  0
   46.2141   30.0616   46.4771 H   0  0  0  0  0  0  0  0  0  0  0  0
   47.8841   32.0880   46.1386 H   0  0  0  0  0  0  0  0  0  0  0  0
   48.0272   32.7599   47.8320 H   0  0  0  0  0  0  0  0  0  0  0  0
   47.4609   29.4096   46.1212 H   0  0  0  0  0  0  0  0  0  0  0  0
   51.0343   29.0649   51.5298 H   0  0  0  0  0  0  0  0  0  0  0  0
   50.5061   32.5374   51.8576 H   0  0  0  0  0  0  0  0  0  0  0  0
   51.2566   31.0672   52.5344 H   0  0  0  0  0  0  0  0  0  0  0  0
  1 19  1  0
  2  7  2  0
  3  2  1  0
  4  3  2  0
  4  5  1  0
  5  6  2  0
  6  7  1  0
  6  1  1  0
  8  4  1  0
  9  8  1  0
 10 11  1  0
 10  9  2  0
 11 18  2  0
 12 14  1  0
 12 11  1  0
 13 12  2  0
 14 15  1  0
 15 17  2  0
 15 16  1  0
 18  8  1  0
 18 17  1  0
 20  1  1  0
 21  1  1  0
 21 22  1  0
 22 32  1  0
 23 22  1  0
 23 24  2  0
 24 25  1  0
 25 26  1  0
 26 27  2  0
 26 28  1  0
 29 28  1  0
 29 30  1  0
 31 29  2  0
 32 25  2  0
 32 31  1  0
  2 33  1  0
  3 34  1  0
  9 35  1  0
 14 36  1  0
 16 37  1  0
 16 38  1  0
 19 39  1  0
 19 40  1  0
 19 41  1  0
 20 42  1  0
 20 43  1  0
 20 44  1  0
 21 45  1  0
 21 46  1  0
 23 47  1  0
 28 48  1  0
 30 49  1  0
 30 50  1  0
M  END
>  <minimizedAffinity>  (1) 
-7.95366287

>  <minimizedRMSD>  (1) 
1.26553559

$$$$
