
     RDKit          3D

 50 55  0  0  0  0  0  0  0  0999 V2000
   48.0480   31.0940   48.3210 C   0  0  0  0  0  0  0  0  0  0  0  0
   48.9170   31.6270   49.2430 C   0  0  0  0  0  0  0  0  0  0  0  0
   49.9270   30.8730   49.7720 C   0  0  0  0  0  0  0  0  0  0  0  0
   50.0620   29.5520   49.3610 C   0  0  0  0  0  0  0  0  0  0  0  0
   49.2020   29.0300   48.4480 C   0  0  0  0  0  0  0  0  0  0  0  0
   48.1820   29.7950   47.9160 C   0  0  0  0  0  0  0  0  0  0  0  0
   44.4320   35.9170   44.4690 C   0  0  0  0  0  0  0  0  0  0  0  0
   45.1420   35.7880   43.2860 C   0  0  0  0  0  0  0  0  0  0  0  0
   46.1300   34.7980   43.1860 C   0  0  0  0  0  0  0  0  0  0  0  0
   46.3450   34.0050   44.2670 N   0  0  0  0  0  0  0  0  0  0  0  0
   45.6300   34.1620   45.4090 C   0  0  0  0  0  0  0  0  0  0  0  0
   44.6650   35.1080   45.5450 N   0  0  0  0  0  0  0  0  0  0  0  0
   45.8600   33.3290   46.5380 N   0  0  0  0  0  0  0  0  0  0  0  0
   47.0360   32.6850   46.6210 C   0  0  0  0  0  0  0  0  0  0  0  0
   46.9970   31.9540   47.8000 C   0  0  0  0  0  0  0  0  0  0  0  0
   45.8170   32.1690   48.3950 N   0  0  0  0  0  0  0  0  0  0  0  0
   45.1140   32.9970   47.6470 C   0  0  0  0  0  0  0  0  0  0  0  0
   47.2850   29.2360   46.9600 N   0  0  0  0  0  0  0  0  0  0  0  0
   49.3370   27.6430   48.0100 C   0  0  0  0  0  0  0  0  0  0  0  0
   49.1490   26.6720   48.7910 O   0  0  0  0  0  0  0  0  0  0  0  0
   49.7100   27.3580   46.5950 C   0  0  0  0  0  0  0  0  0  0  0  0
   49.4270   26.0420   46.0670 C   0  0  0  0  0  0  0  0  0  0  0  0
   50.0540   26.1920   44.3490 S   0  0  0  0  0  0  0  0  0  0  0  0
   50.5910   28.0010   44.6340 C   0  0  0  0  0  0  0  0  0  0  0  0
   50.2750   28.1710   45.7540 N   0  0  0  0  0  0  0  0  0  0  0  0
   51.2160   28.8770   43.6790 N   0  0  0  0  0  0  0  0  0  0  0  0
   52.5200   28.7330   43.3500 C   0  0  0  0  0  0  0  0  0  0  0  0
   52.8530   29.6800   42.4360 N   0  0  0  0  0  0  0  0  0  0  0  0
   51.7640   30.4150   42.1920 C   0  0  0  0  0  0  0  0  0  0  0  0
   51.4670   31.4960   41.3830 C   0  0  0  0  0  0  0  0  0  0  0  0
   50.2150   32.0180   41.3740 N   0  0  0  0  0  0  0  0  0  0  0  0
   49.2400   31.4920   42.1550 C   0  0  0  0  0  0  0  0  0  0  0  0
   49.5070   30.4300   42.9590 N   0  0  0  0  0  0  0  0  0  0  0  0
   50.7440   29.9100   42.9700 C   0  0  0  0  0  0  0  0  0  0  0  0
   52.4900   32.0470   40.5640 N   0  0  0  0  0  0  0  0  0  0  0  0
   48.7981   32.6738   49.5592 H   0  0  0  0  0  0  0  0  0  0  0  0
   50.6203   31.3037   50.5095 H   0  0  0  0  0  0  0  0  0  0  0  0
   50.8671   28.9278   49.7760 H   0  0  0  0  0  0  0  0  0  0  0  0
   43.6573   36.6943   44.5440 H   0  0  0  0  0  0  0  0  0  0  0  0
   44.9331   36.4540   42.4358 H   0  0  0  0  0  0  0  0  0  0  0  0
   46.7120   34.6680   42.2617 H   0  0  0  0  0  0  0  0  0  0  0  0
   47.8645   32.7284   45.8987 H   0  0  0  0  0  0  0  0  0  0  0  0
   44.1008   33.3616   47.8715 H   0  0  0  0  0  0  0  0  0  0  0  0
   47.3951   28.2562   46.6619 H   0  0  0  0  0  0  0  0  0  0  0  0
   46.5266   29.8117   46.5672 H   0  0  0  0  0  0  0  0  0  0  0  0
   48.9595   25.1791   46.5638 H   0  0  0  0  0  0  0  0  0  0  0  0
   53.2010   27.9713   43.7574 H   0  0  0  0  0  0  0  0  0  0  0  0
   48.2295   31.9263   42.1377 H   0  0  0  0  0  0  0  0  0  0  0  0
   52.2848   32.8524   39.9557 H   0  0  0  0  0  0  0  0  0  0  0  0
   53.4364   31.6408   40.5789 H   0  0  0  0  0  0  0  0  0  0  0  0
  1  2  2  0
  2  3  1  0
  4  3  2  0
  5  4  1  0
  6  1  1  0
  6  5  2  0
  7 12  2  0
  8  7  1  0
  9  8  2  0
  9 10  1  0
 10 11  2  0
 11 12  1  0
 11 13  1  0
 13 14  1  0
 13 17  1  0
 14 15  2  0
 15  1  1  0
 15 16  1  0
 17 16  2  0
 18  6  1  0
 19  5  1  0
 19 20  2  0
 21 19  1  0
 22 21  2  0
 23 24  1  0
 23 22  1  0
 24 25  2  0
 25 21  1  0
 26 24  1  0
 27 26  1  0
 28 27  2  0
 29 28  1  0
 29 34  2  0
 30 29  1  0
 31 30  2  0
 31 32  1  0
 32 33  2  0
 33 34  1  0
 34 26  1  0
 35 30  1  0
  2 36  1  0
  3 37  1  0
  4 38  1  0
  7 39  1  0
  8 40  1  0
  9 41  1  0
 14 42  1  0
 17 43  1  0
 18 44  1  0
 18 45  1  0
 22 46  1  0
 27 47  1  0
 32 48  1  0
 35 49  1  0
 35 50  1  0
M  END
>  <minimizedAffinity>  (1) 
-7.12090874

>  <minimizedRMSD>  (1) 
2.33053732

$$$$
