
     RDKit          3D

 43 47  0  0  0  0  0  0  0  0999 V2000
   46.6570   32.7060   38.9240 C   0  0  0  0  0  0  0  0  0  0  0  0
   45.5570   32.8790   38.0970 C   0  0  0  0  0  0  0  0  0  0  0  0
   45.2460   31.9340   37.1390 C   0  0  0  0  0  0  0  0  0  0  0  0
   46.0290   30.7900   36.9840 C   0  0  0  0  0  0  0  0  0  0  0  0
   47.1300   30.6350   37.8250 C   0  0  0  0  0  0  0  0  0  0  0  0
   47.4560   31.5780   38.7950 C   0  0  0  0  0  0  0  0  0  0  0  0
   46.6450   34.3860   42.0680 N   0  0  0  0  0  0  0  0  0  0  0  0
   47.6620   35.2960   41.9140 C   0  0  0  0  0  0  0  0  0  0  0  0
   48.3840   35.3740   40.7510 C   0  0  0  0  0  0  0  0  0  0  0  0
   48.0460   34.4890   39.7200 C   0  0  0  0  0  0  0  0  0  0  0  0
   48.6830   34.5310   38.6410 O   0  0  0  0  0  0  0  0  0  0  0  0
   47.0470   33.6300   39.9350 N   0  0  0  0  0  0  0  0  0  0  0  0
   46.3570   33.5710   41.0750 C   0  0  0  0  0  0  0  0  0  0  0  0
   45.4300   32.8040   41.3300 O   0  0  0  0  0  0  0  0  0  0  0  0
   44.5640   35.6740   44.8520 C   0  0  0  0  0  0  0  0  0  0  0  0
   45.1540   35.5550   43.5640 C   0  0  0  0  0  0  0  0  0  0  0  0
   46.0470   34.5040   43.3720 C   0  0  0  0  0  0  0  0  0  0  0  0
   46.3330   33.6390   44.3840 N   0  0  0  0  0  0  0  0  0  0  0  0
   45.7400   33.7950   45.6040 C   0  0  0  0  0  0  0  0  0  0  0  0
   44.8710   34.7920   45.8410 N   0  0  0  0  0  0  0  0  0  0  0  0
   48.6080   31.2760   39.5740 N   0  0  0  0  0  0  0  0  0  0  0  0
   48.4810   30.8130   40.8490 C   0  0  0  0  0  0  0  0  0  0  0  0
   49.6760   30.5770   41.4460 N   0  0  0  0  0  0  0  0  0  0  0  0
   50.5940   30.9020   40.5150 C   0  0  0  0  0  0  0  0  0  0  0  0
   51.9820   30.9190   40.4100 C   0  0  0  0  0  0  0  0  0  0  0  0
   52.6050   31.3170   39.2920 N   0  0  0  0  0  0  0  0  0  0  0  0
   51.9070   31.7230   38.2090 C   0  0  0  0  0  0  0  0  0  0  0  0
   50.5500   31.7280   38.2540 N   0  0  0  0  0  0  0  0  0  0  0  0
   49.9380   31.3260   39.3810 C   0  0  0  0  0  0  0  0  0  0  0  0
   52.7060   30.4820   41.5770 N   0  0  0  0  0  0  0  0  0  0  0  0
   44.9280   33.7750   38.2049 H   0  0  0  0  0  0  0  0  0  0  0  0
   44.3704   32.0853   36.4905 H   0  0  0  0  0  0  0  0  0  0  0  0
   45.7855   30.0344   36.2226 H   0  0  0  0  0  0  0  0  0  0  0  0
   47.7604   29.7398   37.7186 H   0  0  0  0  0  0  0  0  0  0  0  0
   47.9029   35.9780   42.7428 H   0  0  0  0  0  0  0  0  0  0  0  0
   49.1980   36.1043   40.6324 H   0  0  0  0  0  0  0  0  0  0  0  0
   43.8515   36.4881   45.0509 H   0  0  0  0  0  0  0  0  0  0  0  0
   44.9157   36.2616   42.7553 H   0  0  0  0  0  0  0  0  0  0  0  0
   45.9793   33.0878   46.4118 H   0  0  0  0  0  0  0  0  0  0  0  0
   47.5117   30.6480   41.3423 H   0  0  0  0  0  0  0  0  0  0  0  0
   52.4333   32.0466   37.2989 H   0  0  0  0  0  0  0  0  0  0  0  0
   53.7359   30.4690   41.5692 H   0  0  0  0  0  0  0  0  0  0  0  0
   52.1935   30.1827   42.4188 H   0  0  0  0  0  0  0  0  0  0  0  0
  1 12  1  0
  2  1  2  0
  3  2  1  0
  4  3  2  0
  4  5  1  0
  5  6  2  0
  6  1  1  0
  6 21  1  0
  7 17  1  0
  8  7  1  0
  9  8  2  0
 10 12  1  0
 10  9  1  0
 11 10  2  0
 12 13  1  0
 13 14  2  0
 13  7  1  0
 15 20  2  0
 16 15  1  0
 17 16  2  0
 17 18  1  0
 18 19  2  0
 19 20  1  0
 21 22  1  0
 22 23  2  0
 24 23  1  0
 25 24  2  0
 25 30  1  0
 26 25  1  0
 27 28  1  0
 27 26  2  0
 28 29  2  0
 29 21  1  0
 29 24  1  0
  2 31  1  0
  3 32  1  0
  4 33  1  0
  5 34  1  0
  8 35  1  0
  9 36  1  0
 15 37  1  0
 16 38  1  0
 19 39  1  0
 22 40  1  0
 27 41  1  0
 30 42  1  0
 30 43  1  0
M  ISO  8  31  14  32  14  33  14  34  14  35  14  36  14  37  14  38  14
M  ISO  3  39  14  40  14  41  14
M  END
>  <minimizedAffinity>  (1) 
-6.13287687

>  <minimizedRMSD>  (1) 
1.87803006

$$$$
