
     RDKit          3D

 39 42  0  0  0  0  0  0  0  0999 V2000
   47.5060   34.1200   42.1610 C   0  0  0  0  0  0  0  0  0  0  0  0
   48.3940   35.2350   41.6930 C   0  0  0  0  0  0  0  0  0  0  0  0
   49.7460   35.2800   42.2960 C   0  0  0  0  0  0  0  0  0  0  0  0
   50.4160   33.9530   42.4290 C   0  0  0  0  0  0  0  0  0  0  0  0
   49.5260   32.7920   42.0290 C   0  0  0  0  0  0  0  0  0  0  0  0
   48.2280   32.9930   42.7890 C   0  0  0  0  0  0  0  0  0  0  0  0
   45.2490   34.4220   45.0800 C   0  0  0  0  0  0  0  0  0  0  0  0
   44.5440   35.5990   44.8180 C   0  0  0  0  0  0  0  0  0  0  0  0
   44.8520   36.2890   43.6540 C   0  0  0  0  0  0  0  0  0  0  0  0
   45.8170   35.7760   42.8480 N   0  0  0  0  0  0  0  0  0  0  0  0
   46.4900   34.6430   43.1080 C   0  0  0  0  0  0  0  0  0  0  0  0
   46.1880   33.9660   44.2500 N   0  0  0  0  0  0  0  0  0  0  0  0
   46.7230   33.7020   40.9850 N   0  0  0  0  0  0  0  0  0  0  0  0
   45.5230   33.1430   41.0840 C   0  0  0  0  0  0  0  0  0  0  0  0
   45.0290   32.8590   39.8660 N   0  0  0  0  0  0  0  0  0  0  0  0
   45.9600   33.2590   38.9830 C   0  0  0  0  0  0  0  0  0  0  0  0
   46.0620   33.2480   37.6030 C   0  0  0  0  0  0  0  0  0  0  0  0
   47.1720   33.7430   36.9850 N   0  0  0  0  0  0  0  0  0  0  0  0
   48.2000   34.2570   37.7000 C   0  0  0  0  0  0  0  0  0  0  0  0
   48.0970   34.2650   39.0480 N   0  0  0  0  0  0  0  0  0  0  0  0
   47.0360   33.7940   39.6810 C   0  0  0  0  0  0  0  0  0  0  0  0
   44.9530   32.6990   36.9220 N   0  0  0  0  0  0  0  0  0  0  0  0
   48.5135   35.1365   40.6040 H   0  0  0  0  0  0  0  0  0  0  0  0
   47.8963   36.1644   42.0069 H   0  0  0  0  0  0  0  0  0  0  0  0
   50.3801   35.9221   41.6670 H   0  0  0  0  0  0  0  0  0  0  0  0
   49.6168   35.6657   43.3180 H   0  0  0  0  0  0  0  0  0  0  0  0
   51.3091   33.9463   41.7869 H   0  0  0  0  0  0  0  0  0  0  0  0
   50.6698   33.8198   43.4910 H   0  0  0  0  0  0  0  0  0  0  0  0
   49.3421   32.8049   40.9446 H   0  0  0  0  0  0  0  0  0  0  0  0
   49.9901   31.8230   42.2647 H   0  0  0  0  0  0  0  0  0  0  0  0
   48.4434   33.2270   43.8420 H   0  0  0  0  0  0  0  0  0  0  0  0
   47.6173   32.0788   42.7546 H   0  0  0  0  0  0  0  0  0  0  0  0
   45.0236   33.8558   45.9958 H   0  0  0  0  0  0  0  0  0  0  0  0
   43.7718   35.9661   45.5100 H   0  0  0  0  0  0  0  0  0  0  0  0
   44.3310   37.2218   43.3926 H   0  0  0  0  0  0  0  0  0  0  0  0
   45.0039   32.9400   42.0323 H   0  0  0  0  0  0  0  0  0  0  0  0
   49.0937   34.6568   37.1986 H   0  0  0  0  0  0  0  0  0  0  0  0
   44.9511   32.6543   35.8930 H   0  0  0  0  0  0  0  0  0  0  0  0
   44.1462   32.3434   37.4544 H   0  0  0  0  0  0  0  0  0  0  0  0
  1  6  1  0
  1 11  1  0
  2  1  1  0
  2  3  1  0
  3  4  1  0
  5  4  1  0
  5  6  1  0
  8  7  2  0
  9  8  1  0
 10 11  1  0
 10  9  2  0
 11 12  2  0
 12  7  1  0
 13 14  1  0
 13  1  1  0
 15 14  2  0
 16 21  2  0
 16 15  1  0
 17 16  1  0
 18 17  2  0
 18 19  1  0
 19 20  2  0
 20 21  1  0
 21 13  1  0
 22 17  1  0
  2 23  1  0
  2 24  1  0
  3 25  1  0
  3 26  1  0
  4 27  1  0
  4 28  1  0
  5 29  1  0
  5 30  1  0
  6 31  1  0
  6 32  1  0
  7 33  1  0
  8 34  1  0
  9 35  1  0
 14 36  1  0
 19 37  1  0
 22 38  1  0
 22 39  1  0
M  ISO  8  23  13  24  13  25  13  26  13  27  13  28  13  29  13  30  13
M  ISO  7  31  13  32  13  33  14  34  14  35  14  36  14  37  14
M  END
>  <minimizedAffinity>  (1) 
-6.46617508

>  <minimizedRMSD>  (1) 
0.754177928

$$$$
