
     RDKit          3D

 29 30  0  0  0  0  0  0  0  0999 V2000
   47.1690   34.3150   42.1000 C   0  0  0  0  0  0  0  0  0  0  0  0
   44.6060   36.2070   44.1870 C   0  0  0  0  0  0  0  0  0  0  0  0
   45.4430   35.8980   43.0970 C   0  0  0  0  0  0  0  0  0  0  0  0
   46.2450   34.7520   43.1780 C   0  0  0  0  0  0  0  0  0  0  0  0
   46.1620   34.0090   44.3080 N   0  0  0  0  0  0  0  0  0  0  0  0
   45.3540   34.3160   45.3490 C   0  0  0  0  0  0  0  0  0  0  0  0
   44.5770   35.4220   45.2790 N   0  0  0  0  0  0  0  0  0  0  0  0
   46.3400   34.1450   40.8390 C   0  0  0  0  0  0  0  0  0  0  0  0
   48.3140   35.2410   41.8670 C   0  0  0  0  0  0  0  0  0  0  0  0
   47.7070   32.9560   42.4580 C   0  0  0  0  0  0  0  0  0  0  0  0
   48.8910   32.5810   41.7540 N   0  0  0  0  0  0  0  0  0  0  0  0
   49.0180   32.1200   40.5120 N   0  0  0  0  0  0  0  0  0  0  0  0
   50.3270   31.8910   40.2520 C   0  0  0  0  0  0  0  0  0  0  0  0
   51.0700   32.2180   41.3650 C   0  0  0  0  0  0  0  0  0  0  0  0
   50.1290   32.6530   42.3020 C   0  0  0  0  0  0  0  0  0  0  0  0
   43.9678   37.1019   44.1447 H   0  0  0  0  0  0  0  0  0  0  0  0
   45.4664   36.5404   42.2044 H   0  0  0  0  0  0  0  0  0  0  0  0
   45.3289   33.6741   46.2419 H   0  0  0  0  0  0  0  0  0  0  0  0
   45.2963   33.9310   41.1125 H   0  0  0  0  0  0  0  0  0  0  0  0
   46.3812   35.0703   40.2456 H   0  0  0  0  0  0  0  0  0  0  0  0
   46.7421   33.3106   40.2456 H   0  0  0  0  0  0  0  0  0  0  0  0
   48.7216   35.5707   42.8340 H   0  0  0  0  0  0  0  0  0  0  0  0
   49.0974   34.7194   41.2975 H   0  0  0  0  0  0  0  0  0  0  0  0
   47.9678   36.1161   41.2975 H   0  0  0  0  0  0  0  0  0  0  0  0
   47.9313   32.9486   43.5349 H   0  0  0  0  0  0  0  0  0  0  0  0
   46.9319   32.2291   42.1736 H   0  0  0  0  0  0  0  0  0  0  0  0
   50.7319   31.5058   39.3045 H   0  0  0  0  0  0  0  0  0  0  0  0
   52.1610   32.1515   41.4886 H   0  0  0  0  0  0  0  0  0  0  0  0
   50.3564   32.9986   43.3213 H   0  0  0  0  0  0  0  0  0  0  0  0
  1 10  1  0
  1  4  1  0
  2  7  2  0
  3  4  2  0
  3  2  1  0
  4  5  1  0
  5  6  2  0
  7  6  1  0
  8  1  1  0
  9  1  1  0
 11 15  1  0
 11 10  1  0
 12 11  1  0
 13 12  2  0
 13 14  1  0
 14 15  2  0
  2 16  1  0
  3 17  1  0
  6 18  1  0
  8 19  1  0
  8 20  1  0
  8 21  1  0
  9 22  1  0
  9 23  1  0
  9 24  1  0
 10 25  1  0
 10 26  1  0
 13 27  1  0
 14 28  1  0
 15 29  1  0
M  ISO  8  16  14  17  14  18  14  19   8  20   8  21   8  22   8  23   8
M  ISO  6  24   8  25   8  26   8  27  14  28  14  29  14
M  END
>  <minimizedAffinity>  (1) 
-4.35514355

>  <minimizedRMSD>  (1) 
0.644864023

$$$$
