
     RDKit          3D

 51 56  0  0  1  0  0  0  0  0999 V2000
   46.6700   33.3170   44.8160 C   0  0  2  0  0  0  0  0  0  0  0  0
   45.2540   33.8790   44.9480 C   0  0  0  0  0  0  0  0  0  0  0  0
   44.9240   34.9640   44.0580 C   0  0  0  0  0  0  0  0  0  0  0  0
   45.8980   35.4900   43.0850 C   0  0  0  0  0  0  0  0  0  0  0  0
   47.2070   34.8180   43.0480 C   0  0  1  0  0  0  0  0  0  0  0  0
   47.1570   33.3970   43.4140 C   0  0  0  0  0  0  0  0  0  0  0  0
   47.0230   31.7790   46.7330 C   0  0  0  0  0  0  0  0  0  0  0  0
   46.6760   31.9460   45.3920 C   0  0  0  0  0  0  0  0  0  0  0  0
   46.3530   30.7860   44.6110 C   0  0  0  0  0  0  0  0  0  0  0  0
   46.4050   29.5790   45.2250 N   0  0  0  0  0  0  0  0  0  0  0  0
   46.7410   29.4470   46.5140 C   0  0  0  0  0  0  0  0  0  0  0  0
   47.0440   30.5270   47.2540 N   0  0  0  0  0  0  0  0  0  0  0  0
   46.7690   28.1390   47.0780 N   0  0  0  0  0  0  0  0  0  0  0  0
   47.8010   27.4380   47.5900 C   0  0  0  0  0  0  0  0  0  0  0  0
   47.3750   26.2220   48.0200 N   0  0  0  0  0  0  0  0  0  0  0  0
   46.0660   26.1190   47.7930 C   0  0  0  0  0  0  0  0  0  0  0  0
   45.0360   25.2040   47.9710 C   0  0  0  0  0  0  0  0  0  0  0  0
   43.7640   25.4320   47.6110 N   0  0  0  0  0  0  0  0  0  0  0  0
   43.4480   26.6120   47.0430 C   0  0  0  0  0  0  0  0  0  0  0  0
   44.4320   27.5120   46.8630 N   0  0  0  0  0  0  0  0  0  0  0  0
   45.7210   27.3050   47.2170 C   0  0  0  0  0  0  0  0  0  0  0  0
   45.4010   23.9530   48.5800 N   0  0  0  0  0  0  0  0  0  0  0  0
   47.7750   34.9170   41.6810 C   0  0  0  0  0  0  0  0  0  0  0  0
   48.8670   35.6850   41.2790 C   0  0  0  0  0  0  0  0  0  0  0  0
   48.9830   35.4320   39.9720 N   0  0  0  0  0  0  0  0  0  0  0  0
   48.0550   34.5700   39.5250 C   0  0  0  0  0  0  0  0  0  0  0  0
   47.8690   34.0710   38.2310 C   0  0  0  0  0  0  0  0  0  0  0  0
   46.8250   33.1950   38.1030 C   0  0  0  0  0  0  0  0  0  0  0  0
   45.9900   32.7970   39.1280 C   0  0  0  0  0  0  0  0  0  0  0  0
   46.2570   33.3480   40.3720 C   0  0  0  0  0  0  0  0  0  0  0  0
   47.2740   34.2360   40.6320 C   0  0  0  0  0  0  0  0  0  0  0  0
   47.3900   33.9235   45.3850 H   0  0  0  0  0  0  0  0  0  0  0  0
   44.5325   33.4804   45.6764 H   0  0  0  0  0  0  0  0  0  0  0  0
   43.9199   35.4106   44.1063 H   0  0  0  0  0  0  0  0  0  0  0  0
   45.4501   35.4077   42.0837 H   0  0  0  0  0  0  0  0  0  0  0  0
   46.1057   36.5218   43.4047 H   0  0  0  0  0  0  0  0  0  0  0  0
   47.8309   35.3311   43.7947 H   0  0  0  0  0  0  0  0  0  0  0  0
   46.4680   32.8603   42.7453 H   0  0  0  0  0  0  0  0  0  0  0  0
   48.1516   32.9363   43.3210 H   0  0  0  0  0  0  0  0  0  0  0  0
   47.2754   32.6486   47.3575 H   0  0  0  0  0  0  0  0  0  0  0  0
   46.0730   30.8736   43.5509 H   0  0  0  0  0  0  0  0  0  0  0  0
   48.8383   27.7989   47.6507 H   0  0  0  0  0  0  0  0  0  0  0  0
   42.4154   26.8334   46.7352 H   0  0  0  0  0  0  0  0  0  0  0  0
   44.6850   23.2302   48.7408 H   0  0  0  0  0  0  0  0  0  0  0  0
   46.3783   23.7800   48.8553 H   0  0  0  0  0  0  0  0  0  0  0  0
   49.4907   36.3479   41.8967 H   0  0  0  0  0  0  0  0  0  0  0  0
   49.7065   35.8529   39.3717 H   0  0  0  0  0  0  0  0  0  0  0  0
   48.5100   34.3594   37.3849 H   0  0  0  0  0  0  0  0  0  0  0  0
   46.6363   32.7747   37.1041 H   0  0  0  0  0  0  0  0  0  0  0  0
   45.1649   32.0874   38.9678 H   0  0  0  0  0  0  0  0  0  0  0  0
   45.6090   33.0537   41.2107 H   0  0  0  0  0  0  0  0  0  0  0  0
  1  2  1  0
  1  8  1  0
  3  2  2  0
  4  3  1  0
  5  4  1  0
  5  6  1  0
  6  1  1  0
  7 12  2  0
  8  7  1  0
  9 10  1  0
  9  8  2  0
 10 11  2  0
 11 13  1  0
 11 12  1  0
 13 21  1  0
 13 14  1  0
 14 15  2  0
 16 17  2  0
 16 15  1  0
 17 22  1  0
 18 17  1  0
 19 18  2  0
 20 19  1  0
 20 21  2  0
 21 16  1  0
 23  5  1  0
 24 23  2  0
 25 24  1  0
 26 25  1  0
 26 31  2  0
 27 26  1  0
 28 27  2  0
 28 29  1  0
 29 30  2  0
 30 31  1  0
 31 23  1  0
  1 32  1  1
  2 33  1  0
  3 34  1  0
  4 35  1  0
  4 36  1  0
  5 37  1  1
  6 38  1  0
  6 39  1  0
  7 40  1  0
  9 41  1  0
 14 42  1  0
 19 43  1  0
 22 44  1  0
 22 45  1  0
 24 46  1  0
 25 47  1  0
 27 48  1  0
 28 49  1  0
 29 50  1  0
 30 51  1  0
M  END
>  <minimizedAffinity>  (1) 
-7.48069334

>  <minimizedRMSD>  (1) 
1.53860128

$$$$
