
     RDKit          3D

 41 44  0  0  1  0  0  0  0  0999 V2000
   44.4660   35.5050   43.4700 C   0  0  1  0  0  0  0  0  0  0  0  0
   45.4820   34.5220   43.8750 C   0  0  0  0  0  0  0  0  0  0  0  0
   46.5200   34.2310   42.9530 C   0  0  0  0  0  0  0  0  0  0  0  0
   47.5110   33.2980   43.3100 C   0  0  0  0  0  0  0  0  0  0  0  0
   47.4020   32.7320   44.5350 N   0  0  0  0  0  0  0  0  0  0  0  0
   46.4240   33.0230   45.3740 C   0  0  0  0  0  0  0  0  0  0  0  0
   45.4590   33.9100   45.0660 N   0  0  0  0  0  0  0  0  0  0  0  0
   46.3130   32.4180   46.7190 C   0  0  0  0  0  0  0  0  0  0  0  0
   47.3650   31.5330   47.0960 C   0  0  0  0  0  0  0  0  0  0  0  0
   46.7750   31.0730   48.8220 S   0  0  0  0  0  0  0  0  0  0  0  0
   45.2510   32.1650   48.6570 C   0  0  0  0  0  0  0  0  0  0  0  0
   45.3890   32.5780   47.6350 N   0  0  0  0  0  0  0  0  0  0  0  0
   44.9630   36.9200   43.6860 C   0  0  0  0  0  0  0  0  0  0  0  0
   44.0280   35.3530   42.0550 C   0  0  0  0  0  0  0  0  0  0  0  0
   42.7360   34.7390   41.9190 N   0  0  0  0  0  0  0  0  0  0  0  0
   42.1120   34.7740   40.6540 C   0  0  0  0  0  0  0  0  0  0  0  0
   42.6800   35.3520   39.6040 N   0  0  0  0  0  0  0  0  0  0  0  0
   42.1180   35.4080   38.3840 C   0  0  0  0  0  0  0  0  0  0  0  0
   40.9050   34.8610   38.1460 N   0  0  0  0  0  0  0  0  0  0  0  0
   40.2450   34.2470   39.1580 C   0  0  0  0  0  0  0  0  0  0  0  0
   39.0040   33.6770   38.9510 C   0  0  0  0  0  0  0  0  0  0  0  0
   38.3350   33.0520   39.9830 C   0  0  0  0  0  0  0  0  0  0  0  0
   38.9410   33.0140   41.2230 C   0  0  0  0  0  0  0  0  0  0  0  0
   40.1810   33.5940   41.3910 C   0  0  0  0  0  0  0  0  0  0  0  0
   40.8770   34.2260   40.3820 C   0  0  0  0  0  0  0  0  0  0  0  0
   43.5937   35.3084   44.1107 H   0  0  0  0  0  0  0  0  0  0  0  0
   46.5498   34.7280   41.9721 H   0  0  0  0  0  0  0  0  0  0  0  0
   48.3341   33.0410   42.6270 H   0  0  0  0  0  0  0  0  0  0  0  0
   48.2591   31.2131   46.5408 H   0  0  0  0  0  0  0  0  0  0  0  0
   44.4409   32.3458   49.3789 H   0  0  0  0  0  0  0  0  0  0  0  0
   45.0343   37.1229   44.7648 H   0  0  0  0  0  0  0  0  0  0  0  0
   45.9552   37.0345   43.2250 H   0  0  0  0  0  0  0  0  0  0  0  0
   44.2604   37.6298   43.2250 H   0  0  0  0  0  0  0  0  0  0  0  0
   43.9901   36.3505   41.5929 H   0  0  0  0  0  0  0  0  0  0  0  0
   44.7547   34.6920   41.5600 H   0  0  0  0  0  0  0  0  0  0  0  0
   42.2781   34.2859   42.7227 H   0  0  0  0  0  0  0  0  0  0  0  0
   42.6550   35.9081   37.5645 H   0  0  0  0  0  0  0  0  0  0  0  0
   38.5442   33.7219   37.9527 H   0  0  0  0  0  0  0  0  0  0  0  0
   37.3466   32.5967   39.8225 H   0  0  0  0  0  0  0  0  0  0  0  0
   38.4386   32.5248   42.0705 H   0  0  0  0  0  0  0  0  0  0  0  0
   40.6421   33.5499   42.3887 H   0  0  0  0  0  0  0  0  0  0  0  0
  1 13  1  0
  1  2  1  0
  2  7  2  0
  3  4  2  0
  3  2  1  0
  4  5  1  0
  5  6  2  0
  6  8  1  0
  7  6  1  0
  8  9  2  0
  8 12  1  0
  9 10  1  0
 11 10  1  0
 12 11  2  0
 14  1  1  0
 15 14  1  0
 16 15  1  0
 17 16  2  0
 18 17  1  0
 19 18  2  0
 19 20  1  0
 20 25  2  0
 21 20  1  0
 21 22  2  0
 22 23  1  0
 23 24  2  0
 25 16  1  0
 25 24  1  0
  1 26  1  1
  3 27  1  0
  4 28  1  0
  9 29  1  0
 11 30  1  0
 13 31  1  0
 13 32  1  0
 13 33  1  0
 14 34  1  0
 14 35  1  0
 15 36  1  0
 18 37  1  0
 21 38  1  0
 22 39  1  0
 23 40  1  0
 24 41  1  0
M  ISO  8  26   8  27  14  28  14  29  14  30  14  31   8  32   8  33   8
M  ISO  7  34   8  35   8  37  14  38  14  39  14  40  14  41  14
M  END
>  <minimizedAffinity>  (1) 
-6.76994085

>  <minimizedRMSD>  (1) 
1.36253154

$$$$
