
     RDKit          3D

 40 43  0  0  0  0  0  0  0  0999 V2000
   46.5050   34.4610   41.8790 N   0  0  0  0  0  0  0  0  0  0  0  0
   47.6620   35.2010   41.7960 C   0  0  0  0  0  0  0  0  0  0  0  0
   48.4330   35.1890   40.6570 C   0  0  0  0  0  0  0  0  0  0  0  0
   47.9990   34.3990   39.5890 C   0  0  0  0  0  0  0  0  0  0  0  0
   48.6810   34.3660   38.5380 O   0  0  0  0  0  0  0  0  0  0  0  0
   46.8610   33.7020   39.7410 N   0  0  0  0  0  0  0  0  0  0  0  0
   46.1280   33.7300   40.8550 C   0  0  0  0  0  0  0  0  0  0  0  0
   45.0840   33.1190   41.0520 O   0  0  0  0  0  0  0  0  0  0  0  0
   46.3750   32.8830   38.6860 C   0  0  0  0  0  0  0  0  0  0  0  0
   45.3820   33.2700   37.8000 C   0  0  0  0  0  0  0  0  0  0  0  0
   44.9710   32.4090   36.8050 C   0  0  0  0  0  0  0  0  0  0  0  0
   45.5420   31.1410   36.6720 C   0  0  0  0  0  0  0  0  0  0  0  0
   46.5300   30.7800   37.5690 C   0  0  0  0  0  0  0  0  0  0  0  0
   46.9650   31.6280   38.5840 C   0  0  0  0  0  0  0  0  0  0  0  0
   47.9830   31.1060   39.4160 N   0  0  0  0  0  0  0  0  0  0  0  0
   48.6370   30.0540   38.8370 C   0  0  0  0  0  0  0  0  0  0  0  0
   49.6620   29.4210   39.5090 C   0  0  0  0  0  0  0  0  0  0  0  0
   50.0270   29.8550   40.7710 C   0  0  0  0  0  0  0  0  0  0  0  0
   50.9530   29.3400   41.4670 O   0  0  0  0  0  0  0  0  0  0  0  0
   49.3540   30.8920   41.2970 N   0  0  0  0  0  0  0  0  0  0  0  0
   48.3520   31.5130   40.6450 C   0  0  0  0  0  0  0  0  0  0  0  0
   47.6900   32.4870   41.0900 O   0  0  0  0  0  0  0  0  0  0  0  0
   44.4980   35.9480   44.6080 C   0  0  0  0  0  0  0  0  0  0  0  0
   45.1060   35.7660   43.3360 C   0  0  0  0  0  0  0  0  0  0  0  0
   45.8870   34.6470   43.1680 C   0  0  0  0  0  0  0  0  0  0  0  0
   46.0640   33.7570   44.1870 N   0  0  0  0  0  0  0  0  0  0  0  0
   45.4680   33.9650   45.3880 C   0  0  0  0  0  0  0  0  0  0  0  0
   44.6960   35.0380   45.6030 N   0  0  0  0  0  0  0  0  0  0  0  0
   47.9756   35.8124   42.6549 H   0  0  0  0  0  0  0  0  0  0  0  0
   49.3582   35.7801   40.5892 H   0  0  0  0  0  0  0  0  0  0  0  0
   44.9215   34.2648   37.8908 H   0  0  0  0  0  0  0  0  0  0  0  0
   44.1825   32.7248   36.1061 H   0  0  0  0  0  0  0  0  0  0  0  0
   45.2159   30.4519   35.8790 H   0  0  0  0  0  0  0  0  0  0  0  0
   46.9900   29.7850   37.4774 H   0  0  0  0  0  0  0  0  0  0  0  0
   48.3451   29.7117   37.8332 H   0  0  0  0  0  0  0  0  0  0  0  0
   50.1873   28.5742   39.0432 H   0  0  0  0  0  0  0  0  0  0  0  0
   49.6145   31.2255   42.2361 H   0  0  0  0  0  0  0  0  0  0  0  0
   43.8641   36.8283   44.7902 H   0  0  0  0  0  0  0  0  0  0  0  0
   44.9579   36.4896   42.5208 H   0  0  0  0  0  0  0  0  0  0  0  0
   45.6217   33.2390   46.2000 H   0  0  0  0  0  0  0  0  0  0  0  0
  1 25  1  0
  2  1  1  0
  3  2  2  0
  4  6  1  0
  4  3  1  0
  5  4  2  0
  6  7  1  0
  7  8  2  0
  7  1  1  0
  9  6  1  0
 10  9  2  0
 11 10  1  0
 12 11  2  0
 12 13  1  0
 13 14  2  0
 14  9  1  0
 14 15  1  0
 15 21  1  0
 16 15  1  0
 16 17  2  0
 17 18  1  0
 18 20  1  0
 18 19  2  0
 21 22  2  0
 21 20  1  0
 23 28  2  0
 24 23  1  0
 25 24  2  0
 25 26  1  0
 26 27  2  0
 27 28  1  0
  2 29  1  0
  3 30  1  0
 10 31  1  0
 11 32  1  0
 12 33  1  0
 13 34  1  0
 16 35  1  0
 17 36  1  0
 20 37  1  0
 23 38  1  0
 24 39  1  0
 27 40  1  0
M  ISO  8  29  14  30  14  31  14  32  14  33  14  34  14  35  14  36  14
M  ISO  4  37   9  38  14  39  14  40  14
M  END
>  <minimizedAffinity>  (1) 
-5.49911118

>  <minimizedRMSD>  (1) 
0.405425012

$$$$
