
     RDKit          3D

 27 28  0  0  0  0  0  0  0  0999 V2000
   45.6640   35.4110   42.6640 C   0  0  0  0  0  0  0  0  0  0  0  0
   46.8400   35.0350   41.9930 C   0  0  0  0  0  0  0  0  0  0  0  0
   47.7130   34.1410   42.6120 C   0  0  0  0  0  0  0  0  0  0  0  0
   47.3610   33.6880   43.8410 N   0  0  0  0  0  0  0  0  0  0  0  0
   46.2350   34.0540   44.4750 C   0  0  0  0  0  0  0  0  0  0  0  0
   45.4010   34.9100   43.8820 N   0  0  0  0  0  0  0  0  0  0  0  0
   46.0750   33.4480   45.7630 N   0  0  0  0  0  0  0  0  0  0  0  0
   46.8620   32.4080   46.1140 C   0  0  0  0  0  0  0  0  0  0  0  0
   46.6410   31.8790   47.3800 C   0  0  0  0  0  0  0  0  0  0  0  0
   45.6750   32.3890   48.2240 C   0  0  0  0  0  0  0  0  0  0  0  0
   45.4840   31.9030   49.3670 O   0  0  0  0  0  0  0  0  0  0  0  0
   44.9350   33.4270   47.7930 N   0  0  0  0  0  0  0  0  0  0  0  0
   45.1160   33.9700   46.5750 C   0  0  0  0  0  0  0  0  0  0  0  0
   44.4130   34.9510   46.1760 O   0  0  0  0  0  0  0  0  0  0  0  0
   48.9290   33.6990   42.0110 N   0  0  0  0  0  0  0  0  0  0  0  0
   50.1980   34.0940   42.5240 C   0  0  0  0  0  0  0  0  0  0  0  0
   50.2770   35.2890   43.0210 N   0  0  0  0  0  0  0  0  0  0  0  0
   51.2770   33.1480   42.4510 N   0  0  0  0  0  0  0  0  0  0  0  0
   51.2140   35.5900   43.3680 H   0  0  0  0  0  0  0  0  0  0  0  0
   44.9608   36.1137   42.1930 H   0  0  0  0  0  0  0  0  0  0  0  0
   47.0682   35.4393   40.9958 H   0  0  0  0  0  0  0  0  0  0  0  0
   47.6310   32.0043   45.4390 H   0  0  0  0  0  0  0  0  0  0  0  0
   47.2530   31.0301   47.7190 H   0  0  0  0  0  0  0  0  0  0  0  0
   44.2101   33.8166   48.4124 H   0  0  0  0  0  0  0  0  0  0  0  0
   48.8886   33.0808   41.1882 H   0  0  0  0  0  0  0  0  0  0  0  0
   52.2081   33.3999   42.8123 H   0  0  0  0  0  0  0  0  0  0  0  0
   51.1194   32.2180   42.0373 H   0  0  0  0  0  0  0  0  0  0  0  0
  1  6  2  0
  2  3  2  0
  2  1  1  0
  3  4  1  0
  4  5  2  0
  5  7  1  0
  6  5  1  0
  7  8  1  0
  7 13  1  0
  8  9  2  0
  9 10  1  0
 10 11  2  0
 12 10  1  0
 13 12  1  0
 14 13  2  0
 15 16  1  0
 15  3  1  0
 16 17  2  0
 17 19  1  0
 18 16  1  0
  1 20  1  0
  2 21  1  0
  8 22  1  0
  9 23  1  0
 12 24  1  0
 15 25  1  0
 18 26  1  0
 18 27  1  0
M  END
>  <minimizedAffinity>  (1) 
-7.34151173

>  <minimizedRMSD>  (1) 
0.833160877

$$$$
