
     RDKit          3D

 50 53  0  0  1  0  0  0  0  0999 V2000
   43.5790   35.5080   41.4040 C   0  0  0  0  0  0  0  0  0  0  0  0
   43.6770   34.0680   40.9930 C   0  0  1  0  0  0  0  0  0  0  0  0
   42.7130   33.0690   41.4790 C   0  0  0  0  0  0  0  0  0  0  0  0
   42.7040   33.5310   40.0270 C   0  0  1  0  0  0  0  0  0  0  0  0
   41.6400   34.1870   39.6180 O   0  0  0  0  0  0  0  0  0  0  0  0
   38.8280   33.0010   38.8430 N   0  0  0  0  0  0  0  0  0  0  0  0
   39.8300   32.0560   38.5060 C   0  0  0  0  0  0  0  0  0  0  0  0
   41.0910   32.5850   38.0030 C   0  0  0  0  0  0  0  0  0  0  0  0
   41.2940   34.1570   38.2840 C   0  0  1  0  0  0  0  0  0  0  0  0
   40.1440   34.8000   37.7400 C   0  0  0  0  0  0  0  0  0  0  0  0
   38.8370   34.1870   38.0720 C   0  0  0  0  0  0  0  0  0  0  0  0
   44.1110   35.7760   42.7790 C   0  0  0  0  0  0  0  0  0  0  0  0
   47.6980   34.9920   42.3140 C   0  0  0  0  0  0  0  0  0  0  0  0
   47.9160   33.9940   43.2910 C   0  0  0  0  0  0  0  0  0  0  0  0
   46.8320   33.6150   44.0860 C   0  0  0  0  0  0  0  0  0  0  0  0
   45.6590   34.2180   43.8730 N   0  0  0  0  0  0  0  0  0  0  0  0
   45.4720   35.1810   42.9220 C   0  0  0  0  0  0  0  0  0  0  0  0
   46.4900   35.5640   42.1470 N   0  0  0  0  0  0  0  0  0  0  0  0
   46.9900   32.6160   45.0870 N   0  0  0  0  0  0  0  0  0  0  0  0
   46.5300   33.0500   46.2900 C   0  0  0  0  0  0  0  0  0  0  0  0
   46.5990   32.2130   47.4030 C   0  0  0  0  0  0  0  0  0  0  0  0
   47.1420   30.9340   47.2540 C   0  0  0  0  0  0  0  0  0  0  0  0
   47.2020   30.1860   48.2460 O   0  0  0  0  0  0  0  0  0  0  0  0
   47.5750   30.5720   46.0380 N   0  0  0  0  0  0  0  0  0  0  0  0
   47.5090   31.3820   44.9650 C   0  0  0  0  0  0  0  0  0  0  0  0
   47.8980   31.0980   43.8030 O   0  0  0  0  0  0  0  0  0  0  0  0
   48.8680   35.3820   41.4700 C   0  0  0  0  0  0  0  0  0  0  0  0
   48.5400   35.3170   40.1500 F   0  0  0  0  0  0  0  0  0  0  0  0
   49.2850   36.6480   41.8020 F   0  0  0  0  0  0  0  0  0  0  0  0
   49.8800   34.4340   41.6650 F   0  0  0  0  0  0  0  0  0  0  0  0
   42.5207   35.8065   41.3761 H   0  0  0  0  0  0  0  0  0  0  0  0
   44.1952   36.0873   40.7007 H   0  0  0  0  0  0  0  0  0  0  0  0
   44.7742   34.1350   41.0341 H   0  0  0  0  0  0  0  0  0  0  0  0
   43.0501   32.0535   41.7342 H   0  0  0  0  0  0  0  0  0  0  0  0
   41.9736   33.0232   42.2921 H   0  0  0  0  0  0  0  0  0  0  0  0
   42.8142   33.0972   39.0222 H   0  0  0  0  0  0  0  0  0  0  0  0
   38.1433   32.8359   39.5946 H   0  0  0  0  0  0  0  0  0  0  0  0
   40.0522   31.4702   39.4101 H   0  0  0  0  0  0  0  0  0  0  0  0
   39.4087   31.4757   37.6718 H   0  0  0  0  0  0  0  0  0  0  0  0
   41.1278   32.4193   36.9162 H   0  0  0  0  0  0  0  0  0  0  0  0
   41.8954   32.0576   38.5366 H   0  0  0  0  0  0  0  0  0  0  0  0
   42.0899   34.7450   37.8036 H   0  0  0  0  0  0  0  0  0  0  0  0
   40.2225   35.6987   37.1106 H   0  0  0  0  0  0  0  0  0  0  0  0
   37.8969   34.6426   37.7276 H   0  0  0  0  0  0  0  0  0  0  0  0
   44.1688   36.8623   42.9424 H   0  0  0  0  0  0  0  0  0  0  0  0
   43.4380   35.3235   43.5222 H   0  0  0  0  0  0  0  0  0  0  0  0
   48.9056   33.5316   43.4207 H   0  0  0  0  0  0  0  0  0  0  0  0
   46.1041   34.0597   46.3854 H   0  0  0  0  0  0  0  0  0  0  0  0
   46.2320   32.5539   48.3824 H   0  0  0  0  0  0  0  0  0  0  0  0
   47.9766   29.6310   45.9194 H   0  0  0  0  0  0  0  0  0  0  0  0
  1 12  1  0
  2  1  1  0
  2  3  1  0
  4  2  1  0
  4  3  1  0
  5  4  1  0
  7  6  1  0
  8  9  1  0
  8  7  1  0
  9  5  1  0
 10 11  2  0
 10  9  1  0
 11  6  1  0
 12 17  1  0
 13 14  2  0
 14 15  1  0
 15 19  1  0
 16 15  2  0
 17 16  1  0
 18 13  1  0
 18 17  2  0
 19 20  1  0
 20 21  2  0
 22 21  1  0
 22 23  2  0
 24 22  1  0
 25 19  1  0
 25 24  1  0
 26 25  2  0
 27 30  1  0
 27 29  1  0
 27 13  1  0
 28 27  1  0
  1 31  1  0
  1 32  1  0
  2 33  1  6
  3 34  1  0
  3 35  1  0
  4 36  1  6
  6 37  1  0
  7 38  1  0
  7 39  1  0
  8 40  1  0
  8 41  1  0
  9 42  1  6
 10 43  1  0
 11 44  1  0
 12 45  1  0
 12 46  1  0
 14 47  1  0
 20 48  1  0
 21 49  1  0
 24 50  1  0
M  END
>  <minimizedAffinity>  (1) 
-7.01552391

>  <minimizedRMSD>  (1) 
0.206689298

$$$$
