
     RDKit          3D

 43 46  0  0  0  0  0  0  0  0999 V2000
   46.4230   34.6710   42.0440 C   0  0  0  0  0  0  0  0  0  0  0  0
   47.7240   35.0320   41.8870 C   0  0  0  0  0  0  0  0  0  0  0  0
   48.4130   34.8380   40.6850 C   0  0  0  0  0  0  0  0  0  0  0  0
   47.7480   34.2510   39.5970 C   0  0  0  0  0  0  0  0  0  0  0  0
   46.4410   33.8920   39.7650 C   0  0  0  0  0  0  0  0  0  0  0  0
   45.7900   34.1010   40.9760 C   0  0  0  0  0  0  0  0  0  0  0  0
   44.4090   36.1080   44.8800 C   0  0  0  0  0  0  0  0  0  0  0  0
   44.9550   35.9820   43.6100 C   0  0  0  0  0  0  0  0  0  0  0  0
   45.7920   34.9120   43.3310 C   0  0  0  0  0  0  0  0  0  0  0  0
   46.0370   34.0370   44.3160 N   0  0  0  0  0  0  0  0  0  0  0  0
   45.4910   34.1770   45.5620 C   0  0  0  0  0  0  0  0  0  0  0  0
   44.6820   35.2160   45.8250 N   0  0  0  0  0  0  0  0  0  0  0  0
   45.8560   33.1520   46.5020 N   0  0  0  0  0  0  0  0  0  0  0  0
   45.2010   33.2080   47.6980 C   0  0  0  0  0  0  0  0  0  0  0  0
   45.4820   32.2600   48.6780 C   0  0  0  0  0  0  0  0  0  0  0  0
   46.4360   31.2810   48.3880 C   0  0  0  0  0  0  0  0  0  0  0  0
   46.6960   30.4250   49.2600 O   0  0  0  0  0  0  0  0  0  0  0  0
   47.0560   31.2740   47.1790 N   0  0  0  0  0  0  0  0  0  0  0  0
   46.7690   32.1990   46.2490 C   0  0  0  0  0  0  0  0  0  0  0  0
   47.2740   32.2870   45.1150 O   0  0  0  0  0  0  0  0  0  0  0  0
   44.4290   33.7100   41.0960 N   0  0  0  0  0  0  0  0  0  0  0  0
   43.6040   34.6540   40.5440 C   0  0  0  0  0  0  0  0  0  0  0  0
   42.2180   34.4720   40.5520 C   0  0  0  0  0  0  0  0  0  0  0  0
   41.7250   33.3120   41.1340 C   0  0  0  0  0  0  0  0  0  0  0  0
   40.4870   33.0930   41.1710 O   0  0  0  0  0  0  0  0  0  0  0  0
   42.5710   32.4220   41.6580 N   0  0  0  0  0  0  0  0  0  0  0  0
   43.9030   32.6060   41.6450 C   0  0  0  0  0  0  0  0  0  0  0  0
   44.7690   31.8320   42.1090 O   0  0  0  0  0  0  0  0  0  0  0  0
   41.2840   35.4710   39.9650 C   0  0  0  0  0  0  0  0  0  0  0  0
   48.2533   35.4925   42.7342 H   0  0  0  0  0  0  0  0  0  0  0  0
   49.4660   35.1426   40.5933 H   0  0  0  0  0  0  0  0  0  0  0  0
   48.2633   34.0854   38.6394 H   0  0  0  0  0  0  0  0  0  0  0  0
   45.8947   33.4303   38.9293 H   0  0  0  0  0  0  0  0  0  0  0  0
   43.7440   36.9547   45.1057 H   0  0  0  0  0  0  0  0  0  0  0  0
   44.7257   36.7246   42.8315 H   0  0  0  0  0  0  0  0  0  0  0  0
   44.4569   33.9960   47.8861 H   0  0  0  0  0  0  0  0  0  0  0  0
   44.9688   32.2810   49.6507 H   0  0  0  0  0  0  0  0  0  0  0  0
   47.7569   30.5480   46.9727 H   0  0  0  0  0  0  0  0  0  0  0  0
   44.0343   35.5599   40.0921 H   0  0  0  0  0  0  0  0  0  0  0  0
   42.1908   31.5660   42.0865 H   0  0  0  0  0  0  0  0  0  0  0  0
   40.7745   36.0159   40.7734 H   0  0  0  0  0  0  0  0  0  0  0  0
   41.8496   36.1811   39.3439 H   0  0  0  0  0  0  0  0  0  0  0  0
   40.5375   34.9543   39.3439 H   0  0  0  0  0  0  0  0  0  0  0  0
  1  9  1  0
  2  1  2  0
  3  2  1  0
  4  5  1  0
  4  3  2  0
  5  6  2  0
  6 21  1  0
  6  1  1  0
  7 12  2  0
  8  7  1  0
  9  8  2  0
  9 10  1  0
 10 11  2  0
 11 12  1  0
 11 13  1  0
 13 14  1  0
 14 15  2  0
 16 15  1  0
 16 17  2  0
 18 16  1  0
 19 13  1  0
 19 18  1  0
 20 19  2  0
 21 27  1  0
 22 23  2  0
 22 21  1  0
 23 24  1  0
 24 25  2  0
 24 26  1  0
 27 26  1  0
 27 28  2  0
 29 23  1  0
  2 30  1  0
  3 31  1  0
  4 32  1  0
  5 33  1  0
  7 34  1  0
  8 35  1  0
 14 36  1  0
 15 37  1  0
 18 38  1  0
 22 39  1  0
 26 40  1  0
 29 41  1  0
 29 42  1  0
 29 43  1  0
M  ISO  8  30  14  31  14  32  14  33  14  34  14  35  14  36  14  37  14
M  ISO  6  38   9  39  14  40   9  41   8  42   8  43   8
M  END
>  <minimizedAffinity>  (1) 
-8.22237206

>  <minimizedRMSD>  (1) 
0.212035701

$$$$
