
     RDKit          3D

 50 54  0  0  0  0  0  0  0  0999 V2000
   47.9810   30.5850   48.2540 C   0  0  0  0  0  0  0  0  0  0  0  0
   49.0110   31.0570   49.0330 C   0  0  0  0  0  0  0  0  0  0  0  0
   49.9980   30.2230   49.4900 C   0  0  0  0  0  0  0  0  0  0  0  0
   49.9290   28.8730   49.1420 C   0  0  0  0  0  0  0  0  0  0  0  0
   48.8950   28.4050   48.3620 C   0  0  0  0  0  0  0  0  0  0  0  0
   47.9270   29.2530   47.9200 C   0  0  0  0  0  0  0  0  0  0  0  0
   44.5670   35.7910   44.7360 C   0  0  0  0  0  0  0  0  0  0  0  0
   45.2470   35.6580   43.5230 C   0  0  0  0  0  0  0  0  0  0  0  0
   46.1510   34.6220   43.3630 C   0  0  0  0  0  0  0  0  0  0  0  0
   46.3500   33.7630   44.3930 N   0  0  0  0  0  0  0  0  0  0  0  0
   45.6700   33.9170   45.5700 C   0  0  0  0  0  0  0  0  0  0  0  0
   44.7770   34.9160   45.7700 N   0  0  0  0  0  0  0  0  0  0  0  0
   45.8730   33.0170   46.6610 N   0  0  0  0  0  0  0  0  0  0  0  0
   47.0260   32.3040   46.6620 C   0  0  0  0  0  0  0  0  0  0  0  0
   46.9700   31.5270   47.8050 C   0  0  0  0  0  0  0  0  0  0  0  0
   45.8190   31.7800   48.4520 N   0  0  0  0  0  0  0  0  0  0  0  0
   45.1430   32.6830   47.7670 C   0  0  0  0  0  0  0  0  0  0  0  0
   46.8690   28.7580   47.1180 N   0  0  0  0  0  0  0  0  0  0  0  0
   48.8470   26.9940   48.0130 C   0  0  0  0  0  0  0  0  0  0  0  0
   47.8270   26.2810   48.2050 O   0  0  0  0  0  0  0  0  0  0  0  0
   50.0510   26.3490   47.3970 C   0  0  0  0  0  0  0  0  0  0  0  0
   50.5530   25.1240   47.9740 C   0  0  0  0  0  0  0  0  0  0  0  0
   51.9760   24.7620   46.8960 S   0  0  0  0  0  0  0  0  0  0  0  0
   51.6750   26.3100   45.8390 C   0  0  0  0  0  0  0  0  0  0  0  0
   50.7250   26.7640   46.3740 N   0  0  0  0  0  0  0  0  0  0  0  0
   52.4740   26.6780   44.7360 N   0  0  0  0  0  0  0  0  0  0  0  0
   50.0280   24.4370   49.0880 N   0  0  0  0  0  0  0  0  0  0  0  0
   49.0660   23.4990   49.1350 C   0  0  0  0  0  0  0  0  0  0  0  0
   48.6840   22.9350   50.3350 C   0  0  0  0  0  0  0  0  0  0  0  0
   49.2980   23.3430   51.5020 C   0  0  0  0  0  0  0  0  0  0  0  0
   48.8660   22.7290   52.7100 N   0  0  0  0  0  0  0  0  0  0  0  0
   50.2720   24.2950   51.4440 N   0  0  0  0  0  0  0  0  0  0  0  0
   50.6300   24.8340   50.2440 C   0  0  0  0  0  0  0  0  0  0  0  0
   51.5360   25.6840   50.4120 O   0  0  0  0  0  0  0  0  0  0  0  0
   49.0435   32.1249   49.2946 H   0  0  0  0  0  0  0  0  0  0  0  0
   50.8200   30.6061   50.1125 H   0  0  0  0  0  0  0  0  0  0  0  0
   50.7060   28.1781   49.4932 H   0  0  0  0  0  0  0  0  0  0  0  0
   43.8488   36.6143   44.8639 H   0  0  0  0  0  0  0  0  0  0  0  0
   45.0660   36.3691   42.7035 H   0  0  0  0  0  0  0  0  0  0  0  0
   46.6983   34.4978   42.4169 H   0  0  0  0  0  0  0  0  0  0  0  0
   47.8325   32.3364   45.9147 H   0  0  0  0  0  0  0  0  0  0  0  0
   44.1606   33.0960   48.0395 H   0  0  0  0  0  0  0  0  0  0  0  0
   46.8341   27.7587   46.8711 H   0  0  0  0  0  0  0  0  0  0  0  0
   46.1348   29.3975   46.7819 H   0  0  0  0  0  0  0  0  0  0  0  0
   53.2752   26.0916   44.4620 H   0  0  0  0  0  0  0  0  0  0  0  0
   52.2561   27.5331   44.2047 H   0  0  0  0  0  0  0  0  0  0  0  0
   48.5767   23.1767   48.2040 H   0  0  0  0  0  0  0  0  0  0  0  0
   47.8970   22.1669   50.3614 H   0  0  0  0  0  0  0  0  0  0  0  0
   49.2938   22.9998   53.6070 H   0  0  0  0  0  0  0  0  0  0  0  0
   48.1253   22.0136   52.6878 H   0  0  0  0  0  0  0  0  0  0  0  0
  1  2  2  0
  2  3  1  0
  4  3  2  0
  5  4  1  0
  6  1  1  0
  6  5  2  0
  7 12  2  0
  8  7  1  0
  9  8  2  0
  9 10  1  0
 10 11  2  0
 11 12  1  0
 11 13  1  0
 13 14  1  0
 13 17  1  0
 14 15  2  0
 15  1  1  0
 15 16  1  0
 17 16  2  0
 18  6  1  0
 19 20  2  0
 19  5  1  0
 21 22  2  0
 21 19  1  0
 22 27  1  0
 23 22  1  0
 24 25  2  0
 24 23  1  0
 25 21  1  0
 26 24  1  0
 27 28  1  0
 27 33  1  0
 28 29  2  0
 29 30  1  0
 30 31  1  0
 32 30  2  0
 33 34  2  0
 33 32  1  0
  2 35  1  0
  3 36  1  0
  4 37  1  0
  7 38  1  0
  8 39  1  0
  9 40  1  0
 14 41  1  0
 17 42  1  0
 18 43  1  0
 18 44  1  0
 26 45  1  0
 26 46  1  0
 28 47  1  0
 29 48  1  0
 31 49  1  0
 31 50  1  0
M  ISO  8  35  14  36  14  37  14  38  14  39  14  40  14  41  14  42  14
M  ISO  2  47  14  48  14
M  END
>  <minimizedAffinity>  (1) 
-6.71152306

>  <minimizedRMSD>  (1) 
1.77872336

$$$$
