
     RDKit          3D

 36 39  0  0  0  0  0  0  0  0999 V2000
   46.1830   30.3760   49.1340 N   0  0  0  0  0  0  0  0  0  0  0  0
   45.3000   31.3880   49.4330 C   0  0  0  0  0  0  0  0  0  0  0  0
   45.2320   32.2190   48.3580 N   0  0  0  0  0  0  0  0  0  0  0  0
   46.0720   31.6960   47.4320 C   0  0  0  0  0  0  0  0  0  0  0  0
   46.3220   32.2090   46.1800 C   0  0  0  0  0  0  0  0  0  0  0  0
   47.2050   31.5300   45.3940 N   0  0  0  0  0  0  0  0  0  0  0  0
   47.8030   30.4050   45.8320 C   0  0  0  0  0  0  0  0  0  0  0  0
   47.5300   29.9460   47.0520 N   0  0  0  0  0  0  0  0  0  0  0  0
   46.6830   30.5470   47.8800 C   0  0  0  0  0  0  0  0  0  0  0  0
   48.7340   29.6420   45.0740 N   0  0  0  0  0  0  0  0  0  0  0  0
   49.1990   28.5340   45.6940 C   0  0  0  0  0  0  0  0  0  0  0  0
   50.1140   27.6540   45.1260 C   0  0  0  0  0  0  0  0  0  0  0  0
   50.5410   27.9760   43.8550 C   0  0  0  0  0  0  0  0  0  0  0  0
   51.4740   27.1520   43.1750 N   0  0  0  0  0  0  0  0  0  0  0  0
   50.0790   29.0650   43.2530 N   0  0  0  0  0  0  0  0  0  0  0  0
   49.1840   29.8990   43.8450 C   0  0  0  0  0  0  0  0  0  0  0  0
   48.7120   30.9470   43.3190 O   0  0  0  0  0  0  0  0  0  0  0  0
   45.6370   33.6600   45.4420 S   0  0  0  0  0  0  0  0  0  0  0  0
   47.7790   34.7130   42.3410 C   0  0  0  0  0  0  0  0  0  0  0  0
   47.0590   34.3450   41.2150 C   0  0  0  0  0  0  0  0  0  0  0  0
   45.8290   33.7300   41.4270 C   0  0  0  0  0  0  0  0  0  0  0  0
   45.3970   33.5220   42.7080 N   0  0  0  0  0  0  0  0  0  0  0  0
   46.1530   33.9070   43.7650 C   0  0  0  0  0  0  0  0  0  0  0  0
   47.3260   34.4940   43.5800 N   0  0  0  0  0  0  0  0  0  0  0  0
   49.0870   35.3680   42.1440 C   0  0  0  0  0  0  0  0  0  0  0  0
   49.2380   36.1340   41.1630 O   0  0  0  0  0  0  0  0  0  0  0  0
   50.1070   35.1290   43.0320 O   0  0  0  0  0  0  0  0  0  0  0  0
   46.4296   29.6018   49.7671 H   0  0  0  0  0  0  0  0  0  0  0  0
   44.7460   31.5047   50.3761 H   0  0  0  0  0  0  0  0  0  0  0  0
   48.8318   28.3157   46.7077 H   0  0  0  0  0  0  0  0  0  0  0  0
   50.4735   26.7597   45.6560 H   0  0  0  0  0  0  0  0  0  0  0  0
   51.7860   27.4021   42.2258 H   0  0  0  0  0  0  0  0  0  0  0  0
   51.8395   26.3035   43.6304 H   0  0  0  0  0  0  0  0  0  0  0  0
   47.4423   34.5306   40.2008 H   0  0  0  0  0  0  0  0  0  0  0  0
   45.2107   33.4145   40.5736 H   0  0  0  0  0  0  0  0  0  0  0  0
   50.9864   35.5655   42.9049 H   0  0  0  0  0  0  0  0  0  0  0  0
  1  2  1  0
  3  2  2  0
  4  9  2  0
  4  3  1  0
  5  4  1  0
  6  7  1  0
  6  5  2  0
  7  8  2  0
  8  9  1  0
  9  1  1  0
 10 11  1  0
 10  7  1  0
 12 11  2  0
 13 12  1  0
 14 13  1  0
 15 16  1  0
 15 13  2  0
 16 10  1  0
 17 16  2  0
 18  5  1  0
 19 24  2  0
 20 21  2  0
 20 19  1  0
 21 22  1  0
 22 23  2  0
 23 18  1  0
 24 23  1  0
 25 19  1  0
 25 27  1  0
 26 25  2  0
  1 28  1  0
  2 29  1  0
 11 30  1  0
 12 31  1  0
 14 32  1  0
 14 33  1  0
 20 34  1  0
 21 35  1  0
 27 36  1  0
M  ISO  7  28   9  29  14  30  14  31  14  34  14  35  14  36   3
M  END
>  <minimizedAffinity>  (1) 
-6.17218399

>  <minimizedRMSD>  (1) 
0.189305589

$$$$
