
     RDKit          3D

 49 53  0  0  1  0  0  0  0  0999 V2000
   46.0810   32.0770   45.3760 C   0  0  1  0  0  0  0  0  0  0  0  0
   45.7850   32.1500   49.0670 C   0  0  0  0  0  0  0  0  0  0  0  0
   45.3620   30.8020   49.3400 C   0  0  0  0  0  0  0  0  0  0  0  0
   45.1960   29.8990   48.2380 C   0  0  0  0  0  0  0  0  0  0  0  0
   45.4510   30.3810   46.9830 N   0  0  0  0  0  0  0  0  0  0  0  0
   45.8400   31.6380   46.7770 C   0  0  0  0  0  0  0  0  0  0  0  0
   46.0070   32.5200   47.8080 N   0  0  0  0  0  0  0  0  0  0  0  0
   46.6150   33.4340   45.2430 C   0  0  0  0  0  0  0  0  0  0  0  0
   45.6820   34.2430   44.4160 C   0  0  0  0  0  0  0  0  0  0  0  0
   44.8940   35.1860   45.0250 C   0  0  0  0  0  0  0  0  0  0  0  0
   44.1320   35.7940   44.0630 C   0  0  0  0  0  0  0  0  0  0  0  0
   44.5150   35.1710   42.9070 N   0  0  0  0  0  0  0  0  0  0  0  0
   45.4330   34.2490   43.0970 N   0  0  0  0  0  0  0  0  0  0  0  0
   44.5340   34.5870   40.5690 N   0  0  0  0  0  0  0  0  0  0  0  0
   43.4310   34.1250   39.7640 C   0  0  0  0  0  0  0  0  0  0  0  0
   42.3250   33.9660   40.8150 C   0  0  0  0  0  0  0  0  0  0  0  0
   42.4760   35.2820   41.5550 C   0  0  0  0  0  0  0  0  0  0  0  0
   43.9830   35.4640   41.5690 C   0  0  1  0  0  0  0  0  0  0  0  0
   46.9040   31.0040   44.6800 C   0  0  0  0  0  0  0  0  0  0  0  0
   47.0920   31.1540   43.2900 N   0  0  0  0  0  0  0  0  0  0  0  0
   46.0780   30.7290   42.4760 C   0  0  0  0  0  0  0  0  0  0  0  0
   46.3900   30.9480   41.1640 N   0  0  0  0  0  0  0  0  0  0  0  0
   47.5960   31.5120   41.1060 C   0  0  0  0  0  0  0  0  0  0  0  0
   48.4950   31.9760   40.1710 C   0  0  0  0  0  0  0  0  0  0  0  0
   49.7000   32.5090   40.5140 N   0  0  0  0  0  0  0  0  0  0  0  0
   50.0550   32.6000   41.8100 C   0  0  0  0  0  0  0  0  0  0  0  0
   49.1860   32.1500   42.7300 N   0  0  0  0  0  0  0  0  0  0  0  0
   47.9940   31.6210   42.4180 C   0  0  0  0  0  0  0  0  0  0  0  0
   45.1122   32.1732   44.8639 H   0  0  0  0  0  0  0  0  0  0  0  0
   45.9234   32.8668   49.8898 H   0  0  0  0  0  0  0  0  0  0  0  0
   45.1701   30.4712   50.3714 H   0  0  0  0  0  0  0  0  0  0  0  0
   44.8759   28.8585   48.3958 H   0  0  0  0  0  0  0  0  0  0  0  0
   46.7149   33.8901   46.2390 H   0  0  0  0  0  0  0  0  0  0  0  0
   47.6031   33.3986   44.7610 H   0  0  0  0  0  0  0  0  0  0  0  0
   44.8769   35.4146   46.1008 H   0  0  0  0  0  0  0  0  0  0  0  0
   43.3879   36.5941   44.1899 H   0  0  0  0  0  0  0  0  0  0  0  0
   45.2103   35.0978   39.9836 H   0  0  0  0  0  0  0  0  0  0  0  0
   43.1543   34.8660   38.9996 H   0  0  0  0  0  0  0  0  0  0  0  0
   43.6449   33.2064   39.1980 H   0  0  0  0  0  0  0  0  0  0  0  0
   41.3320   33.8695   40.3517 H   0  0  0  0  0  0  0  0  0  0  0  0
   42.4086   33.0676   41.4442 H   0  0  0  0  0  0  0  0  0  0  0  0
   41.9791   36.1026   41.0168 H   0  0  0  0  0  0  0  0  0  0  0  0
   42.0194   35.2834   42.5558 H   0  0  0  0  0  0  0  0  0  0  0  0
   44.2605   36.5030   41.3376 H   0  0  0  0  0  0  0  0  0  0  0  0
   47.8978   30.9877   45.1513 H   0  0  0  0  0  0  0  0  0  0  0  0
   46.3264   30.0751   44.7958 H   0  0  0  0  0  0  0  0  0  0  0  0
   45.1409   30.2738   42.8290 H   0  0  0  0  0  0  0  0  0  0  0  0
   48.2289   31.9134   39.1055 H   0  0  0  0  0  0  0  0  0  0  0  0
   51.0242   33.0285   42.1052 H   0  0  0  0  0  0  0  0  0  0  0  0
  1  6  1  0
  2  3  2  0
  4  3  1  0
  5  4  2  0
  6  5  1  0
  6  7  2  0
  7  2  1  0
  8  1  1  0
  9 10  1  0
  9  8  1  0
 11 10  2  0
 12 13  1  0
 12 11  1  0
 13  9  2  0
 14 18  1  0
 15 14  1  0
 15 16  1  0
 16 17  1  0
 17 18  1  0
 18 12  1  0
 19  1  1  0
 20 19  1  0
 21 20  1  0
 22 21  2  0
 23 22  1  0
 23 28  2  0
 24 25  2  0
 24 23  1  0
 25 26  1  0
 26 27  2  0
 28 27  1  0
 28 20  1  0
  1 29  1  6
  2 30  1  0
  3 31  1  0
  4 32  1  0
  8 33  1  0
  8 34  1  0
 10 35  1  0
 11 36  1  0
 14 37  1  0
 15 38  1  0
 15 39  1  0
 16 40  1  0
 16 41  1  0
 17 42  1  0
 17 43  1  0
 18 44  1  6
 19 45  1  0
 19 46  1  0
 21 47  1  0
 24 48  1  0
 26 49  1  0
M  ISO  8  29   8  30  14  31  14  32  14  33   8  34   8  35  14  36  14
M  ISO  8  37   5  38  13  39  13  40  13  41  13  42  13  43  13  44  13
M  ISO  5  45   8  46   8  47  14  48  14  49  14
M  END
>  <minimizedAffinity>  (1) 
-5.6070776

>  <minimizedRMSD>  (1) 
1.13974857

$$$$
