
     RDKit          3D

 47 51  0  0  0  0  0  0  0  0999 V2000
   46.1585   33.6006   45.2796 C   0  0  2  0  0  0  0  0  0  0  0  0
   44.9178   34.6620   45.4983 C   0  0  0  0  0  0  0  0  0  0  0  0
   44.6808   35.5934   44.4310 C   0  0  0  0  0  0  0  0  0  0  0  0
   45.5054   35.5483   43.2177 C   0  0  1  0  0  0  0  0  0  0  0  0
   46.5863   34.5696   43.1802 C   0  0  0  0  0  0  0  0  0  0  0  0
   46.1529   33.3216   43.9140 C   0  0  0  0  0  0  0  0  0  0  0  0
   45.4014   32.8848   47.5302 C   0  0  0  0  0  0  0  0  0  0  0  0
   45.9196   32.6372   46.3000 C   0  0  0  0  0  0  0  0  0  0  0  0
   46.1530   31.2856   46.0291 C   0  0  0  0  0  0  0  0  0  0  0  0
   45.8907   30.2819   46.9043 N   0  0  0  0  0  0  0  0  0  0  0  0
   45.3610   30.5875   48.1493 C   0  0  0  0  0  0  0  0  0  0  0  0
   45.1323   31.8659   48.4280 N   0  0  0  0  0  0  0  0  0  0  0  0
   45.0840   29.5674   49.0918 N   0  0  0  0  0  0  0  0  0  0  0  0
   46.7512   30.5988   44.8973 C   0  0  0  0  0  0  0  0  0  0  0  0
   46.3638   29.9217   43.7874 C   0  0  0  0  0  0  0  0  0  0  0  0
   47.5126   29.4690   43.1280 C   0  0  0  0  0  0  0  0  0  0  0  0
   48.5412   29.8916   43.8664 N   0  0  0  0  0  0  0  0  0  0  0  0
   48.1145   30.5598   44.9137 N   0  0  0  0  0  0  0  0  0  0  0  0
   44.5154   35.2662   42.0479 C   0  0  0  0  0  0  0  0  0  0  0  0
   43.4620   34.4523   42.4244 F   0  0  0  0  0  0  0  0  0  0  0  0
   43.9573   36.4950   41.7030 F   0  0  0  0  0  0  0  0  0  0  0  0
   45.2165   34.8150   40.9465 F   0  0  0  0  0  0  0  0  0  0  0  0
   46.9475   34.3334   45.6212 H   0  0  0  0  0  0  0  0  0  0  0  0
   44.2268   34.7864   46.3227 H   0  0  0  0  0  0  0  0  0  0  0  0
   43.8930   36.2940   44.5339 H   0  0  0  0  0  0  0  0  0  0  0  0
   45.9177   36.5644   43.0149 H   0  0  0  0  0  0  0  0  0  0  0  0
   47.5101   34.9875   43.6404 H   0  0  0  0  0  0  0  0  0  0  0  0
   46.8540   34.3764   42.1082 H   0  0  0  0  0  0  0  0  0  0  0  0
   47.0267   32.6957   43.5926 H   0  0  0  0  0  0  0  0  0  0  0  0
   45.2285   32.9398   43.4346 H   0  0  0  0  0  0  0  0  0  0  0  0
   45.1868   33.8933   47.8461 H   0  0  0  0  0  0  0  0  0  0  0  0
   45.1737   29.7508   50.1173 H   0  0  0  0  0  0  0  0  0  0  0  0
   44.7858   28.6238   48.7062 H   0  0  0  0  0  0  0  0  0  0  0  0
   45.3075   29.8429   43.5987 H   0  0  0  0  0  0  0  0  0  0  0  0
   47.4414   28.9048   42.2184 H   0  0  0  0  0  0  0  0  0  0  0  0
   54.0450   31.2460   43.4737 H   0  0  0  0  0  0  0  0  0  0  0  0
   53.0076   31.1780   43.6242 N   0  0  0  0  0  0  0  0  0  0  0  0
   52.2441   32.1513   44.1533 C   0  0  0  0  0  0  0  0  0  0  0  0
   50.9494   31.7353   44.2058 N   0  0  0  0  0  0  0  0  0  0  0  0
   50.9598   30.5098   43.7031 C   0  0  0  0  0  0  0  0  0  0  0  0
   49.9170   29.6263   43.5213 C   0  0  0  0  0  0  0  0  0  0  0  0
   50.1972   28.4141   42.9777 N   0  0  0  0  0  0  0  0  0  0  0  0
   51.4506   28.0725   42.6226 C   0  0  0  0  0  0  0  0  0  0  0  0
   52.5145   28.9112   42.7825 N   0  0  0  0  0  0  0  0  0  0  0  0
   52.2196   30.1264   43.3299 C   0  0  0  0  0  0  0  0  0  0  0  0
   52.6114   33.1307   44.4905 H   0  0  0  0  0  0  0  0  0  0  0  0
   51.6685   27.1040   42.1893 H   0  0  0  0  0  0  0  0  0  0  0  0
  1  2  1  0
  1  8  1  0
  3  2  2  0
  4  3  1  0
  5  4  1  0
  5  6  1  0
  6  1  1  0
  7 12  2  0
  8  7  1  0
  9  8  2  0
  9 10  1  0
 10 11  2  0
 11 12  1  0
 11 13  1  0
 14 18  2  0
 14  9  1  0
 15 14  1  0
 16 15  2  0
 16 17  1  0
 17 18  1  0
 19 20  1  0
 19  4  1  0
 21 19  1  0
 22 19  1  0
  1 23  1  1
  2 24  1  0
  3 25  1  0
  4 26  1  6
  5 27  1  0
  5 28  1  0
  6 29  1  0
  6 30  1  0
  7 31  1  0
 13 32  1  0
 13 33  1  0
 15 34  1  0
 16 35  1  0
 36 37  1  0
 37 38  1  0
 38 39  2  0
 39 40  1  0
 40 41  2  0
 41 42  1  0
 42 43  2  0
 43 44  1  0
 44 45  2  0
 45 37  1  0
 45 40  1  0
 38 46  1  0
 43 47  1  0
 17 41  1  0
M  ISO  8  23  13  24  13  25  13  26  13  27  13  28  13  29  13  30  13
M  ISO  4  31  14  34  14  35  14  36   9
M  END
>  <DihAtoms>  (1) 
15,16,40,39

>  <DihDeg>  (1) 
82.6913583366198

$$$$
