
     RDKit          3D

 43 46  0  0  0  0  0  0  0  0999 V2000
   46.1559   33.5982   45.2796 C   0  0  2  0  0  0  0  0  0  0  0  0
   44.9173   34.6618   45.4977 C   0  0  0  0  0  0  0  0  0  0  0  0
   44.6824   35.5935   44.4295 C   0  0  0  0  0  0  0  0  0  0  0  0
   45.5045   35.5481   43.2183 C   0  0  1  0  0  0  0  0  0  0  0  0
   46.5876   34.5709   43.1825 C   0  0  0  0  0  0  0  0  0  0  0  0
   46.1539   33.3217   43.9135 C   0  0  0  0  0  0  0  0  0  0  0  0
   45.4002   32.8839   47.5307 C   0  0  0  0  0  0  0  0  0  0  0  0
   45.9174   32.6344   46.2985 C   0  0  0  0  0  0  0  0  0  0  0  0
   46.1499   31.2833   46.0276 C   0  0  0  0  0  0  0  0  0  0  0  0
   45.8878   30.2814   46.9047 N   0  0  0  0  0  0  0  0  0  0  0  0
   45.3603   30.5900   48.1490 C   0  0  0  0  0  0  0  0  0  0  0  0
   45.1319   31.8681   48.4286 N   0  0  0  0  0  0  0  0  0  0  0  0
   45.0942   29.5672   49.0946 N   0  0  0  0  0  0  0  0  0  0  0  0
   46.7489   30.5969   44.8980 C   0  0  0  0  0  0  0  0  0  0  0  0
   46.3619   29.9203   43.7867 C   0  0  0  0  0  0  0  0  0  0  0  0
   47.5154   29.4698   43.1252 C   0  0  0  0  0  0  0  0  0  0  0  0
   48.5381   29.8954   43.8670 N   0  0  0  0  0  0  0  0  0  0  0  0
   48.1145   30.5610   44.9154 N   0  0  0  0  0  0  0  0  0  0  0  0
   44.5155   35.2653   42.0474 C   0  0  0  0  0  0  0  0  0  0  0  0
   43.4618   34.4519   42.4248 F   0  0  0  0  0  0  0  0  0  0  0  0
   43.9610   36.4951   41.7021 F   0  0  0  0  0  0  0  0  0  0  0  0
   45.2177   34.8170   40.9468 F   0  0  0  0  0  0  0  0  0  0  0  0
   46.9466   34.3300   45.6279 H   0  0  0  0  0  0  0  0  0  0  0  0
   44.2256   34.7890   46.3217 H   0  0  0  0  0  0  0  0  0  0  0  0
   43.8954   36.2939   44.5354 H   0  0  0  0  0  0  0  0  0  0  0  0
   45.9228   36.5610   43.0240 H   0  0  0  0  0  0  0  0  0  0  0  0
   46.9085   34.3954   42.1363 H   0  0  0  0  0  0  0  0  0  0  0  0
   47.4873   34.9763   43.7196 H   0  0  0  0  0  0  0  0  0  0  0  0
   47.0238   32.6914   43.5933 H   0  0  0  0  0  0  0  0  0  0  0  0
   45.2151   32.9882   43.4227 H   0  0  0  0  0  0  0  0  0  0  0  0
   45.1866   33.8931   47.8454 H   0  0  0  0  0  0  0  0  0  0  0  0
   45.8043   28.8433   49.4062 H   0  0  0  0  0  0  0  0  0  0  0  0
   44.1432   29.5096   49.5204 H   0  0  0  0  0  0  0  0  0  0  0  0
   45.3011   29.8413   43.6005 H   0  0  0  0  0  0  0  0  0  0  0  0
   47.4300   28.9036   42.2092 H   0  0  0  0  0  0  0  0  0  0  0  0
   49.9077   29.6264   43.5092 C   0  0  0  0  0  0  0  0  0  0  0  0
   50.7168   30.5880   42.8988 C   0  0  0  0  0  0  0  0  0  0  0  0
   51.9248   29.9552   42.7241 C   0  0  0  0  0  0  0  0  0  0  0  0
   52.7480   30.4821   42.2638 H   0  0  0  0  0  0  0  0  0  0  0  0
   51.8377   28.6814   43.2067 N   0  0  0  0  0  0  0  0  0  0  0  0
   50.5997   28.4866   43.6861 N   0  0  0  0  0  0  0  0  0  0  0  0
   50.3997   31.6006   42.6431 H   0  0  0  0  0  0  0  0  0  0  0  0
   52.6628   28.0426   43.1610 H   0  0  0  0  0  0  0  0  0  0  0  0
  1  2  1  0
  1  8  1  0
  3  2  2  0
  4  3  1  0
  5  4  1  0
  5  6  1  0
  6  1  1  0
  7 12  2  0
  8  7  1  0
  9  8  2  0
  9 10  1  0
 10 11  2  0
 11 12  1  0
 11 13  1  0
 14 18  2  0
 14  9  1  0
 15 14  1  0
 16 15  2  0
 16 17  1  0
 17 18  1  0
 19 20  1  0
 19  4  1  0
 21 19  1  0
 22 19  1  0
  1 23  1  1
  2 24  1  0
  3 25  1  0
  4 26  1  6
  5 27  1  0
  5 28  1  0
  6 29  1  0
  6 30  1  0
  7 31  1  0
 13 32  1  0
 13 33  1  0
 15 34  1  0
 16 35  1  0
 36 37  1  0
 37 38  2  0
 38 39  1  0
 38 40  1  0
 40 41  1  0
 41 36  2  0
 37 42  1  0
 40 43  1  0
 17 36  1  0
M  ISO  8  23  13  24  13  25  13  26  13  27  13  28  13  29  13  30  13
M  ISO  4  31  14  34  14  35  14  39  14
M  END
>  <DihAtoms>  (1) 
15,16,35,36

>  <DihDeg>  (1) 
131.15987256828961

$$$$
