
     RDKit          3D

 32 34  0  0  1  0  0  0  0  0999 V2000
   44.4860   35.7100   43.6400 C   0  0  1  0  0  0  0  0  0  0  0  0
   45.4840   34.6890   43.9820 C   0  0  0  0  0  0  0  0  0  0  0  0
   46.4840   34.3810   43.0330 C   0  0  0  0  0  0  0  0  0  0  0  0
   47.4480   33.4080   43.3370 C   0  0  0  0  0  0  0  0  0  0  0  0
   47.3560   32.8140   44.5530 N   0  0  0  0  0  0  0  0  0  0  0  0
   46.4100   33.1190   45.4270 C   0  0  0  0  0  0  0  0  0  0  0  0
   45.4730   34.0480   45.1590 N   0  0  0  0  0  0  0  0  0  0  0  0
   46.3220   32.4690   46.7400 C   0  0  0  0  0  0  0  0  0  0  0  0
   47.3530   31.5920   47.1200 C   0  0  0  0  0  0  0  0  0  0  0  0
   46.7640   31.0650   48.8090 S   0  0  0  0  0  0  0  0  0  0  0  0
   45.2310   32.1380   48.6710 C   0  0  0  0  0  0  0  0  0  0  0  0
   45.3930   32.5800   47.6530 N   0  0  0  0  0  0  0  0  0  0  0  0
   45.1630   37.0590   43.4090 C   0  0  0  0  0  0  0  0  0  0  0  0
   43.6760   35.3630   42.4380 C   0  0  0  0  0  0  0  0  0  0  0  0
   42.2800   35.5860   42.6140 N   0  0  0  0  0  0  0  0  0  0  0  0
   41.2320   35.2180   41.7340 C   0  0  0  0  0  0  0  0  0  0  0  0
   40.7090   36.2520   41.0200 N   0  0  0  0  0  0  0  0  0  0  0  0
   39.7610   35.8090   40.2500 O   0  0  0  0  0  0  0  0  0  0  0  0
   39.6110   34.5180   40.4080 C   0  0  0  0  0  0  0  0  0  0  0  0
   40.5190   34.1500   41.3260 N   0  0  0  0  0  0  0  0  0  0  0  0
   43.7998   35.7630   44.4981 H   0  0  0  0  0  0  0  0  0  0  0  0
   46.5067   34.8999   42.0634 H   0  0  0  0  0  0  0  0  0  0  0  0
   48.2407   33.1396   42.6232 H   0  0  0  0  0  0  0  0  0  0  0  0
   48.2595   31.2972   46.5710 H   0  0  0  0  0  0  0  0  0  0  0  0
   44.4081   32.2902   49.3849 H   0  0  0  0  0  0  0  0  0  0  0  0
   45.3959   37.5232   44.3787 H   0  0  0  0  0  0  0  0  0  0  0  0
   46.0931   36.9100   42.8410 H   0  0  0  0  0  0  0  0  0  0  0  0
   44.4877   37.7157   42.8410 H   0  0  0  0  0  0  0  0  0  0  0  0
   43.8329   34.2991   42.2068 H   0  0  0  0  0  0  0  0  0  0  0  0
   44.0096   36.0192   41.6206 H   0  0  0  0  0  0  0  0  0  0  0  0
   42.0006   36.0698   43.4793 H   0  0  0  0  0  0  0  0  0  0  0  0
   38.8884   33.8675   39.8935 H   0  0  0  0  0  0  0  0  0  0  0  0
  1  2  1  0
  2  7  2  0
  3  4  2  0
  3  2  1  0
  4  5  1  0
  5  6  2  0
  6  8  1  0
  7  6  1  0
  8  9  2  0
  8 12  1  0
  9 10  1  0
 11 10  1  0
 12 11  2  0
 13  1  1  0
 14 15  1  0
 14  1  1  0
 16 15  1  0
 17 16  2  0
 18 19  1  0
 18 17  1  0
 19 20  2  0
 20 16  1  0
  1 21  1  1
  3 22  1  0
  4 23  1  0
  9 24  1  0
 11 25  1  0
 13 26  1  0
 13 27  1  0
 13 28  1  0
 14 29  1  0
 14 30  1  0
 15 31  1  0
 19 32  1  0
M  ISO  8  21   8  22  14  23  14  24  14  25  14  26   8  27   8  28   8
M  ISO  3  29   8  30   8  32  14
M  END
>  <minimizedAffinity>  (1) 
-5.80258751

>  <minimizedRMSD>  (1) 
2.69363093

$$$$
