
     RDKit          3D

 21 22  0  0  0  0  0  0  0  0999 V2000
   47.7960   34.8240   42.2830 C   0  0  0  0  0  0  0  0  0  0  0  0
   47.0710   34.4760   41.1380 C   0  0  0  0  0  0  0  0  0  0  0  0
   45.8170   33.9000   41.3090 C   0  0  0  0  0  0  0  0  0  0  0  0
   45.3660   33.7060   42.5930 N   0  0  0  0  0  0  0  0  0  0  0  0
   46.1070   34.0600   43.6600 C   0  0  0  0  0  0  0  0  0  0  0  0
   47.3030   34.6100   43.5070 N   0  0  0  0  0  0  0  0  0  0  0  0
   49.1160   35.4310   42.1060 C   0  0  0  0  0  0  0  0  0  0  0  0
   49.3120   36.2100   41.1390 O   0  0  0  0  0  0  0  0  0  0  0  0
   50.1260   35.1510   42.9870 O   0  0  0  0  0  0  0  0  0  0  0  0
   45.5490   33.8220   45.3260 S   0  0  0  0  0  0  0  0  0  0  0  0
   46.5030   32.5230   46.1340 C   0  0  0  0  0  0  0  0  0  0  0  0
   46.9580   32.4600   47.4540 C   0  0  0  0  0  0  0  0  0  0  0  0
   47.6470   31.2590   47.5920 C   0  0  0  0  0  0  0  0  0  0  0  0
   47.5880   30.6560   46.3950 N   0  0  0  0  0  0  0  0  0  0  0  0
   46.9280   31.3750   45.5360 N   0  0  0  0  0  0  0  0  0  0  0  0
   47.4808   34.6528   40.1326 H   0  0  0  0  0  0  0  0  0  0  0  0
   45.2045   33.6084   40.4431 H   0  0  0  0  0  0  0  0  0  0  0  0
   51.0179   35.5630   42.8648 H   0  0  0  0  0  0  0  0  0  0  0  0
   46.8010   33.2172   48.2364 H   0  0  0  0  0  0  0  0  0  0  0  0
   48.1404   30.8804   48.4993 H   0  0  0  0  0  0  0  0  0  0  0  0
   48.0112   29.7410   46.1837 H   0  0  0  0  0  0  0  0  0  0  0  0
  1  6  2  0
  2  3  2  0
  2  1  1  0
  3  4  1  0
  4  5  2  0
  5 10  1  0
  6  5  1  0
  7  1  1  0
  7  9  1  0
  8  7  2  0
 10 11  1  0
 11 12  1  0
 12 13  2  0
 14 13  1  0
 15 11  2  0
 15 14  1  0
  2 16  1  0
  3 17  1  0
  9 18  1  0
 12 19  1  0
 13 20  1  0
 14 21  1  0
M  ISO  6  16  14  17  14  18   3  19  14  20  14  21   9
M  END
>  <minimizedAffinity>  (1) 
-4.39747953

>  <minimizedRMSD>  (1) 
2.64927435

$$$$
