
     RDKit          3D

 45 47  0  0  1  0  0  0  0  0999 V2000
   46.8080   34.3600   40.4170 C   0  0  1  0  0  0  0  0  0  0  0  0
   48.0410   33.9790   39.5770 C   0  0  0  0  0  0  0  0  0  0  0  0
   47.4880   33.6720   38.1880 C   0  0  0  0  0  0  0  0  0  0  0  0
   46.6870   32.4050   38.2520 C   0  0  0  0  0  0  0  0  0  0  0  0
   46.4010   32.0350   39.6720 C   0  0  0  0  0  0  0  0  0  0  0  0
   45.8760   33.2510   40.4800 C   0  0  2  0  0  0  0  0  0  0  0  0
   47.2840   34.7510   41.8400 C   0  0  0  0  0  0  0  0  0  0  0  0
   46.7660   33.7150   42.7430 C   0  0  0  0  0  0  0  0  0  0  0  0
   46.0110   33.5770   45.0290 C   0  0  0  0  0  0  0  0  0  0  0  0
   46.0120   34.2950   43.8310 C   0  0  0  0  0  0  0  0  0  0  0  0
   45.3020   35.4330   43.6860 C   0  0  0  0  0  0  0  0  0  0  0  0
   44.5750   35.8640   44.7470 N   0  0  0  0  0  0  0  0  0  0  0  0
   44.5490   35.1970   45.9160 C   0  0  0  0  0  0  0  0  0  0  0  0
   45.2670   34.0470   46.0650 N   0  0  0  0  0  0  0  0  0  0  0  0
   44.5730   33.5540   39.8260 C   0  0  0  0  0  0  0  0  0  0  0  0
   43.8490   34.7020   40.5220 C   0  0  0  0  0  0  0  0  0  0  0  0
   42.4860   34.7820   39.8370 C   0  0  0  0  0  0  0  0  0  0  0  0
   42.2550   35.2840   38.5440 C   0  0  0  0  0  0  0  0  0  0  0  0
   40.9610   35.2560   38.1430 C   0  0  0  0  0  0  0  0  0  0  0  0
   39.9870   34.7630   38.9790 C   0  0  0  0  0  0  0  0  0  0  0  0
   41.0330   34.2950   40.4850 S   0  0  0  0  0  0  0  0  0  0  0  0
   46.2878   35.2104   39.9520 H   0  0  0  0  0  0  0  0  0  0  0  0
   48.7538   34.8157   39.5339 H   0  0  0  0  0  0  0  0  0  0  0  0
   48.5863   33.1247   40.0045 H   0  0  0  0  0  0  0  0  0  0  0  0
   48.3196   33.5475   37.4789 H   0  0  0  0  0  0  0  0  0  0  0  0
   46.8479   34.5005   37.8506 H   0  0  0  0  0  0  0  0  0  0  0  0
   45.7365   32.5507   37.7178 H   0  0  0  0  0  0  0  0  0  0  0  0
   47.2659   31.5952   37.7840 H   0  0  0  0  0  0  0  0  0  0  0  0
   45.6413   31.2397   39.6884 H   0  0  0  0  0  0  0  0  0  0  0  0
   47.3375   31.6905   40.1349 H   0  0  0  0  0  0  0  0  0  0  0  0
   45.7622   33.0531   41.5561 H   0  0  0  0  0  0  0  0  0  0  0  0
   48.3829   34.7780   41.8808 H   0  0  0  0  0  0  0  0  0  0  0  0
   46.9208   35.7496   42.1245 H   0  0  0  0  0  0  0  0  0  0  0  0
   46.1112   33.0386   42.1740 H   0  0  0  0  0  0  0  0  0  0  0  0
   47.6197   33.1656   43.1667 H   0  0  0  0  0  0  0  0  0  0  0  0
   46.5986   32.6528   45.1318 H   0  0  0  0  0  0  0  0  0  0  0  0
   45.3123   35.9926   42.7391 H   0  0  0  0  0  0  0  0  0  0  0  0
   43.9472   35.5804   46.7532 H   0  0  0  0  0  0  0  0  0  0  0  0
   44.7558   33.8308   38.7772 H   0  0  0  0  0  0  0  0  0  0  0  0
   43.9388   32.6576   39.8908 H   0  0  0  0  0  0  0  0  0  0  0  0
   43.7308   34.4907   41.5950 H   0  0  0  0  0  0  0  0  0  0  0  0
   44.4056   35.6478   40.4470 H   0  0  0  0  0  0  0  0  0  0  0  0
   43.0637   35.6703   37.9062 H   0  0  0  0  0  0  0  0  0  0  0  0
   40.6886   35.6291   37.1447 H   0  0  0  0  0  0  0  0  0  0  0  0
   38.9031   34.6674   38.8176 H   0  0  0  0  0  0  0  0  0  0  0  0
  1  6  1  0
  1  7  1  0
  2  1  1  0
  3  4  1  0
  3  2  1  0
  4  5  1  0
  5  6  1  0
  7  8  1  0
  8 10  1  0
  9 14  2  0
 10  9  1  0
 11 10  2  0
 11 12  1  0
 12 13  2  0
 13 14  1  0
 15  6  1  0
 15 16  1  0
 17 21  1  0
 17 16  1  0
 18 17  2  0
 19 18  1  0
 19 20  2  0
 20 21  1  0
  1 22  1  6
  2 23  1  0
  2 24  1  0
  3 25  1  0
  3 26  1  0
  4 27  1  0
  4 28  1  0
  5 29  1  0
  5 30  1  0
  6 31  1  1
  7 32  1  0
  7 33  1  0
  8 34  1  0
  8 35  1  0
  9 36  1  0
 11 37  1  0
 13 38  1  0
 15 39  1  0
 15 40  1  0
 16 41  1  0
 16 42  1  0
 18 43  1  0
 19 44  1  0
 20 45  1  0
M  ISO  8  22  13  23  13  24  13  25  13  26  13  27  13  28  13  29  13
M  ISO  8  30  13  31  13  32   8  33   8  34   8  35   8  36  14  37  14
M  ISO  8  38  14  39   8  40   8  41   8  42   8  43  14  44  14  45  14
M  END
>  <minimizedAffinity>  (1) 
-5.02971554

>  <minimizedRMSD>  (1) 
2.01023793

$$$$
