
     RDKit          3D

 51 54  0  0  0  0  0  0  0  0999 V2000
   46.1612   33.6013   45.2793 C   0  0  2  0  0  0  0  0  0  0  0  0
   44.9219   34.6646   45.4996 C   0  0  0  0  0  0  0  0  0  0  0  0
   44.6839   35.5940   44.4326 C   0  0  0  0  0  0  0  0  0  0  0  0
   45.5044   35.5491   43.2185 C   0  0  1  0  0  0  0  0  0  0  0  0
   46.5857   34.5682   43.1767 C   0  0  0  0  0  0  0  0  0  0  0  0
   46.1537   33.3218   43.9139 C   0  0  0  0  0  0  0  0  0  0  0  0
   45.4016   32.8852   47.5304 C   0  0  0  0  0  0  0  0  0  0  0  0
   45.9214   32.6377   46.2984 C   0  0  0  0  0  0  0  0  0  0  0  0
   46.1539   31.2843   46.0276 C   0  0  0  0  0  0  0  0  0  0  0  0
   45.8887   30.2832   46.9051 N   0  0  0  0  0  0  0  0  0  0  0  0
   45.3583   30.5878   48.1500 C   0  0  0  0  0  0  0  0  0  0  0  0
   45.1305   31.8670   48.4288 N   0  0  0  0  0  0  0  0  0  0  0  0
   45.0798   29.5658   49.0855 N   0  0  0  0  0  0  0  0  0  0  0  0
   46.7522   30.5993   44.8975 C   0  0  0  0  0  0  0  0  0  0  0  0
   46.3661   29.9215   43.7869 C   0  0  0  0  0  0  0  0  0  0  0  0
   47.5161   29.4677   43.1269 C   0  0  0  0  0  0  0  0  0  0  0  0
   48.5390   29.8928   43.8682 N   0  0  0  0  0  0  0  0  0  0  0  0
   48.1162   30.5610   44.9152 N   0  0  0  0  0  0  0  0  0  0  0  0
   44.5144   35.2655   42.0493 C   0  0  0  0  0  0  0  0  0  0  0  0
   43.4602   34.4527   42.4291 F   0  0  0  0  0  0  0  0  0  0  0  0
   43.9567   36.4932   41.7030 F   0  0  0  0  0  0  0  0  0  0  0  0
   45.2120   34.8113   40.9454 F   0  0  0  0  0  0  0  0  0  0  0  0
   46.9509   34.3347   45.6236 H   0  0  0  0  0  0  0  0  0  0  0  0
   44.2308   34.7939   46.3236 H   0  0  0  0  0  0  0  0  0  0  0  0
   43.8986   36.2959   44.5338 H   0  0  0  0  0  0  0  0  0  0  0  0
   45.9140   36.5656   43.0305 H   0  0  0  0  0  0  0  0  0  0  0  0
   47.5795   34.9102   43.5636 H   0  0  0  0  0  0  0  0  0  0  0  0
   46.7921   34.3416   42.0886 H   0  0  0  0  0  0  0  0  0  0  0  0
   45.2159   32.9457   43.4520 H   0  0  0  0  0  0  0  0  0  0  0  0
   47.0293   32.6954   43.5963 H   0  0  0  0  0  0  0  0  0  0  0  0
   45.1881   33.8947   47.8452 H   0  0  0  0  0  0  0  0  0  0  0  0
   44.8974   28.5623   48.8154 H   0  0  0  0  0  0  0  0  0  0  0  0
   45.0490   29.7960   50.0946 H   0  0  0  0  0  0  0  0  0  0  0  0
   45.3085   29.8425   43.5976 H   0  0  0  0  0  0  0  0  0  0  0  0
   47.4353   28.9035   42.2177 H   0  0  0  0  0  0  0  0  0  0  0  0
   50.1607   28.2553   40.0939 H   0  0  0  0  0  0  0  0  0  0  0  0
   50.6288   28.0990   41.0116 N   0  0  0  0  0  0  0  0  0  0  0  0
   51.2363   29.3693   41.4094 C   0  0  0  0  0  0  0  0  0  0  0  0
   50.1948   30.1898   42.1183 C   0  0  0  0  0  0  0  0  0  0  0  0
   49.9375   29.6158   43.5055 C   0  0  0  0  0  0  0  0  0  0  0  0
   50.0915   28.1185   43.3712 C   0  0  0  0  0  0  0  0  0  0  0  0
   49.6634   27.6589   41.9835 C   0  0  0  0  0  0  0  0  0  0  0  0
   51.5964   29.8909   40.5055 H   0  0  0  0  0  0  0  0  0  0  0  0
   52.0464   29.1587   42.1443 H   0  0  0  0  0  0  0  0  0  0  0  0
   49.2339   30.1078   41.5303 H   0  0  0  0  0  0  0  0  0  0  0  0
   50.4397   31.2733   42.1521 H   0  0  0  0  0  0  0  0  0  0  0  0
   50.5966   30.0712   44.2443 H   0  0  0  0  0  0  0  0  0  0  0  0
   49.3845   27.6413   44.0810 H   0  0  0  0  0  0  0  0  0  0  0  0
   51.1135   27.8202   43.6024 H   0  0  0  0  0  0  0  0  0  0  0  0
   49.6299   26.5592   41.9961 H   0  0  0  0  0  0  0  0  0  0  0  0
   48.6418   28.0854   41.7961 H   0  0  0  0  0  0  0  0  0  0  0  0
  1  2  1  0
  1  8  1  0
  3  2  2  0
  4  3  1  0
  5  4  1  0
  5  6  1  0
  6  1  1  0
  7 12  2  0
  8  7  1  0
  9  8  2  0
  9 10  1  0
 10 11  2  0
 11 12  1  0
 11 13  1  0
 14 18  2  0
 14  9  1  0
 15 14  1  0
 16 15  2  0
 16 17  1  0
 17 18  1  0
 19 20  1  0
 19  4  1  0
 21 19  1  0
 22 19  1  0
  1 23  1  1
  2 24  1  0
  3 25  1  0
  4 26  1  6
  5 27  1  0
  5 28  1  0
  6 29  1  0
  6 30  1  0
  7 31  1  0
 13 32  1  0
 13 33  1  0
 15 34  1  0
 16 35  1  0
 36 37  1  0
 37 38  1  0
 38 39  1  0
 39 40  1  0
 40 41  1  0
 41 42  1  0
 42 37  1  0
 38 43  1  0
 38 44  1  0
 39 45  1  0
 39 46  1  0
 40 47  1  0
 41 48  1  0
 41 49  1  0
 42 50  1  0
 42 51  1  0
 17 40  1  0
M  ISO  8  23  13  24  13  25  13  26  13  27  13  28  13  29  13  30  13
M  ISO  4  31  14  34  14  35  14  36   5
M  END
>  <DihAtoms>  (1) 
15,16,39,38

>  <DihDeg>  (1) 
178.15909142190876

$$$$
