
     RDKit          3D

 51 54  0  0  1  0  0  0  0  0999 V2000
   43.8390   35.3380   41.5700 C   0  0  0  0  0  0  0  0  0  0  0  0
   43.3620   34.0390   41.0440 C   0  0  1  0  0  0  0  0  0  0  0  0
   41.9000   33.9860   40.9100 C   0  0  0  0  0  0  0  0  0  0  0  0
   41.2110   35.1630   40.4710 C   0  0  0  0  0  0  0  0  0  0  0  0
   39.8160   35.1540   40.3260 C   0  0  0  0  0  0  0  0  0  0  0  0
   39.1850   33.9950   40.6190 N   0  0  0  0  0  0  0  0  0  0  0  0
   39.8390   32.9150   41.0240 C   0  0  0  0  0  0  0  0  0  0  0  0
   41.1900   32.8900   41.1750 N   0  0  0  0  0  0  0  0  0  0  0  0
   39.1340   31.6500   41.3350 C   0  0  0  0  0  0  0  0  0  0  0  0
   39.8540   30.6160   41.9260 C   0  0  0  0  0  0  0  0  0  0  0  0
   38.5150   29.3140   42.0840 S   0  0  0  0  0  0  0  0  0  0  0  0
   37.2400   30.4580   41.3050 C   0  0  0  0  0  0  0  0  0  0  0  0
   37.8730   31.3570   41.1190 N   0  0  0  0  0  0  0  0  0  0  0  0
   44.0120   33.7480   39.7110 C   0  0  0  0  0  0  0  0  0  0  0  0
   44.9210   35.2890   42.4750 N   0  0  0  0  0  0  0  0  0  0  0  0
   46.2010   34.6620   42.4870 C   0  0  0  0  0  0  0  0  0  0  0  0
   47.2870   35.3540   41.9940 C   0  0  0  0  0  0  0  0  0  0  0  0
   48.5560   34.8000   41.9750 C   0  0  0  0  0  0  0  0  0  0  0  0
   48.6690   33.5610   42.4590 N   0  0  0  0  0  0  0  0  0  0  0  0
   47.5980   32.8860   42.9410 C   0  0  0  0  0  0  0  0  0  0  0  0
   46.3520   33.4070   42.9700 N   0  0  0  0  0  0  0  0  0  0  0  0
   47.7030   31.5620   43.4630 N   0  0  0  0  0  0  0  0  0  0  0  0
   48.8680   30.8880   43.4910 C   0  0  0  0  0  0  0  0  0  0  0  0
   48.8440   29.6070   44.0220 C   0  0  0  0  0  0  0  0  0  0  0  0
   50.0820   28.7950   44.0910 C   0  0  0  0  0  0  0  0  0  0  0  0
   47.6690   29.0290   44.5090 C   0  0  0  0  0  0  0  0  0  0  0  0
   47.6650   27.8730   44.9830 O   0  0  0  0  0  0  0  0  0  0  0  0
   46.5390   29.7720   44.4440 N   0  0  0  0  0  0  0  0  0  0  0  0
   46.5610   31.0210   43.9270 C   0  0  0  0  0  0  0  0  0  0  0  0
   45.4290   31.5740   43.9420 O   0  0  0  0  0  0  0  0  0  0  0  0
   44.8350   35.9790   43.6990 C   0  0  0  0  0  0  0  0  0  0  0  0
   45.5070   35.3260   44.6900 F   0  0  0  0  0  0  0  0  0  0  0  0
   43.4510   35.8900   44.0430 F   0  0  0  0  0  0  0  0  0  0  0  0
   45.1870   37.3000   43.6480 F   0  0  0  0  0  0  0  0  0  0  0  0
   42.9948   35.8216   42.0834 H   0  0  0  0  0  0  0  0  0  0  0  0
   44.2148   35.8877   40.6945 H   0  0  0  0  0  0  0  0  0  0  0  0
   43.6498   33.2702   41.7762 H   0  0  0  0  0  0  0  0  0  0  0  0
   41.7788   36.0780   40.2466 H   0  0  0  0  0  0  0  0  0  0  0  0
   39.2637   36.0444   39.9910 H   0  0  0  0  0  0  0  0  0  0  0  0
   40.9135   30.5744   42.2188 H   0  0  0  0  0  0  0  0  0  0  0  0
   36.1740   30.2883   41.0934 H   0  0  0  0  0  0  0  0  0  0  0  0
   45.0046   33.3036   39.8763 H   0  0  0  0  0  0  0  0  0  0  0  0
   43.3853   33.0445   39.1432 H   0  0  0  0  0  0  0  0  0  0  0  0
   44.1193   34.6840   39.1432 H   0  0  0  0  0  0  0  0  0  0  0  0
   47.1415   36.3728   41.6056 H   0  0  0  0  0  0  0  0  0  0  0  0
   49.4235   35.3508   41.5825 H   0  0  0  0  0  0  0  0  0  0  0  0
   49.7984   31.3338   43.1094 H   0  0  0  0  0  0  0  0  0  0  0  0
   50.3479   28.6206   45.1440 H   0  0  0  0  0  0  0  0  0  0  0  0
   49.9159   27.8299   43.5901 H   0  0  0  0  0  0  0  0  0  0  0  0
   50.9010   29.3319   43.5901 H   0  0  0  0  0  0  0  0  0  0  0  0
   45.6521   29.3810   44.7926 H   0  0  0  0  0  0  0  0  0  0  0  0
  1 15  1  0
  2  1  1  0
  3  2  1  0
  3  8  1  0
  4  3  2  0
  5  4  1  0
  5  6  2  0
  6  7  1  0
  7  8  2  0
  7  9  1  0
  9 10  2  0
 10 11  1  0
 12 11  1  0
 13 12  2  0
 13  9  1  0
 14  2  1  0
 15 16  1  0
 15 31  1  0
 16 21  1  0
 17 16  2  0
 18 17  1  0
 18 19  2  0
 19 20  1  0
 20 21  2  0
 20 22  1  0
 22 23  1  0
 22 29  1  0
 23 24  2  0
 24 25  1  0
 24 26  1  0
 26 27  2  0
 28 26  1  0
 29 30  2  0
 29 28  1  0
 31 33  1  0
 31 32  1  0
 34 31  1  0
  1 35  1  0
  1 36  1  0
  2 37  1  1
  4 38  1  0
  5 39  1  0
 10 40  1  0
 12 41  1  0
 14 42  1  0
 14 43  1  0
 14 44  1  0
 17 45  1  0
 18 46  1  0
 23 47  1  0
 25 48  1  0
 25 49  1  0
 25 50  1  0
 28 51  1  0
M  ISO  8  35   8  36   8  37   8  38  14  39  14  40  14  41  14  42   8
M  ISO  8  43   8  44   8  45  14  46  14  47  14  48   8  49   8  50   8
M  ISO  1  51   9
M  END
>  <minimizedAffinity>  (1) 
-6.38232899

>  <minimizedRMSD>  (1) 
4.37379932

$$$$
