
     RDKit          3D

 46 49  0  0  0  0  0  0  0  0999 V2000
   47.6540   34.2520   42.0820 C   0  0  0  0  0  0  0  0  0  0  0  0
   48.6040   35.3760   41.7630 C   0  0  0  0  0  0  0  0  0  0  0  0
   49.8970   35.3250   42.4660 C   0  0  0  0  0  0  0  0  0  0  0  0
   50.5340   33.9770   42.5140 C   0  0  0  0  0  0  0  0  0  0  0  0
   49.6450   32.8650   42.0390 C   0  0  0  0  0  0  0  0  0  0  0  0
   48.2830   33.0490   42.7030 C   0  0  0  0  0  0  0  0  0  0  0  0
   45.2170   34.4490   44.8760 C   0  0  0  0  0  0  0  0  0  0  0  0
   44.5380   35.6430   44.6060 C   0  0  0  0  0  0  0  0  0  0  0  0
   44.9130   36.3650   43.4910 C   0  0  0  0  0  0  0  0  0  0  0  0
   45.9180   35.8900   42.7070 N   0  0  0  0  0  0  0  0  0  0  0  0
   46.5630   34.7270   42.9880 C   0  0  0  0  0  0  0  0  0  0  0  0
   46.1970   34.0090   44.0890 N   0  0  0  0  0  0  0  0  0  0  0  0
   47.0320   33.7830   40.7840 C   0  0  0  0  0  0  0  0  0  0  0  0
   45.7960   33.4110   40.3100 C   0  0  0  0  0  0  0  0  0  0  0  0
   45.6880   33.0510   39.0300 C   0  0  0  0  0  0  0  0  0  0  0  0
   46.7480   33.0420   38.1960 C   0  0  0  0  0  0  0  0  0  0  0  0
   48.1190   33.6150   39.3230 S   0  0  0  0  0  0  0  0  0  0  0  0
   46.9200   32.7260   36.8700 N   0  0  0  0  0  0  0  0  0  0  0  0
   46.0860   31.9530   36.1530 C   0  0  0  0  0  0  0  0  0  0  0  0
   46.3440   31.6920   34.8230 C   0  0  0  0  0  0  0  0  0  0  0  0
   45.4710   30.8480   33.9640 C   0  0  0  0  0  0  0  0  0  0  0  0
   47.4870   32.2580   34.2790 C   0  0  0  0  0  0  0  0  0  0  0  0
   47.8110   32.0740   33.0590 O   0  0  0  0  0  0  0  0  0  0  0  0
   48.3400   33.0390   34.9850 N   0  0  0  0  0  0  0  0  0  0  0  0
   48.0280   33.2570   36.2860 C   0  0  0  0  0  0  0  0  0  0  0  0
   48.8570   33.9970   36.9120 O   0  0  0  0  0  0  0  0  0  0  0  0
   48.8040   35.3555   40.6815 H   0  0  0  0  0  0  0  0  0  0  0  0
   48.1093   36.2982   42.1020 H   0  0  0  0  0  0  0  0  0  0  0  0
   50.5895   36.0121   41.9577 H   0  0  0  0  0  0  0  0  0  0  0  0
   49.6917   35.6061   43.5095 H   0  0  0  0  0  0  0  0  0  0  0  0
   51.4327   33.9963   41.8800 H   0  0  0  0  0  0  0  0  0  0  0  0
   50.7649   33.7713   43.5696 H   0  0  0  0  0  0  0  0  0  0  0  0
   49.5385   32.9109   40.9451 H   0  0  0  0  0  0  0  0  0  0  0  0
   50.0746   31.8871   42.3020 H   0  0  0  0  0  0  0  0  0  0  0  0
   48.4079   33.2039   43.7848 H   0  0  0  0  0  0  0  0  0  0  0  0
   47.6530   32.1586   42.5602 H   0  0  0  0  0  0  0  0  0  0  0  0
   44.9339   33.8594   45.7605 H   0  0  0  0  0  0  0  0  0  0  0  0
   43.7293   35.9955   45.2631 H   0  0  0  0  0  0  0  0  0  0  0  0
   44.4073   37.3092   43.2405 H   0  0  0  0  0  0  0  0  0  0  0  0
   44.9167   33.4103   40.9709 H   0  0  0  0  0  0  0  0  0  0  0  0
   44.7030   32.7519   38.6423 H   0  0  0  0  0  0  0  0  0  0  0  0
   45.1917   31.5256   36.6300 H   0  0  0  0  0  0  0  0  0  0  0  0
   44.8252   30.2236   34.5989 H   0  0  0  0  0  0  0  0  0  0  0  0
   44.8468   31.4938   33.3289 H   0  0  0  0  0  0  0  0  0  0  0  0
   46.0954   30.2024   33.3289 H   0  0  0  0  0  0  0  0  0  0  0  0
   49.1826   33.4463   34.5550 H   0  0  0  0  0  0  0  0  0  0  0  0
  1  6  1  0
  1 11  1  0
  2  1  1  0
  2  3  1  0
  3  4  1  0
  5  4  1  0
  5  6  1  0
  8  7  2  0
  9  8  1  0
 10 11  1  0
 10  9  2  0
 11 12  2  0
 12  7  1  0
 13  1  1  0
 14 13  2  0
 15 14  1  0
 16 15  2  0
 16 17  1  0
 17 13  1  0
 18 16  1  0
 19 18  1  0
 20 19  2  0
 21 20  1  0
 22 20  1  0
 22 24  1  0
 23 22  2  0
 24 25  1  0
 25 18  1  0
 25 26  2  0
  2 27  1  0
  2 28  1  0
  3 29  1  0
  3 30  1  0
  4 31  1  0
  4 32  1  0
  5 33  1  0
  5 34  1  0
  6 35  1  0
  6 36  1  0
  7 37  1  0
  8 38  1  0
  9 39  1  0
 14 40  1  0
 15 41  1  0
 19 42  1  0
 21 43  1  0
 21 44  1  0
 21 45  1  0
 24 46  1  0
M  END
>  <minimizedAffinity>  (1) 
-7.00891256

>  <minimizedRMSD>  (1) 
0.644379199

$$$$
