
     RDKit          3D

 42 44  0  0  1  0  0  0  0  0999 V2000
   45.3240   32.8670   47.5190 C   0  0  0  0  0  0  0  0  0  0  0  0
   45.8810   32.5900   46.3080 C   0  0  0  0  0  0  0  0  0  0  0  0
   46.2040   31.2460   46.0670 C   0  0  0  0  0  0  0  0  0  0  0  0
   45.9810   30.2900   46.9760 N   0  0  0  0  0  0  0  0  0  0  0  0
   45.4180   30.6040   48.1950 C   0  0  0  0  0  0  0  0  0  0  0  0
   45.0990   31.8720   48.4470 N   0  0  0  0  0  0  0  0  0  0  0  0
   45.1900   29.5870   49.1630 N   0  0  0  0  0  0  0  0  0  0  0  0
   46.0990   33.5880   45.3120 C   0  0  2  0  0  0  0  0  0  0  0  0
   44.9670   34.6660   45.4920 C   0  0  0  0  0  0  0  0  0  0  0  0
   44.7510   35.5770   44.3980 C   0  0  0  0  0  0  0  0  0  0  0  0
   45.5480   35.4870   43.1820 C   0  0  1  0  0  0  0  0  0  0  0  0
   46.6330   34.5030   43.1760 C   0  0  0  0  0  0  0  0  0  0  0  0
   46.2110   33.2660   43.9250 C   0  0  0  0  0  0  0  0  0  0  0  0
   44.5780   35.1940   42.0150 C   0  0  0  0  0  0  0  0  0  0  0  0
   43.5650   34.3250   42.3670 F   0  0  0  0  0  0  0  0  0  0  0  0
   43.9530   36.4040   41.7020 F   0  0  0  0  0  0  0  0  0  0  0  0
   45.2880   34.7920   40.8960 F   0  0  0  0  0  0  0  0  0  0  0  0
   46.7720   30.5560   44.9610 N   0  0  0  0  0  0  0  0  0  0  0  0
   48.1460   30.5310   44.8750 C   0  0  0  0  0  0  0  0  0  0  0  0
   48.6560   29.8910   43.7640 C   0  0  0  0  0  0  0  0  0  0  0  0
   50.1170   29.8400   43.6300 C   0  0  0  0  0  0  0  0  0  0  0  0
   47.7920   29.3360   42.8400 C   0  0  0  0  0  0  0  0  0  0  0  0
   48.2710   28.7460   41.8180 O   0  0  0  0  0  0  0  0  0  0  0  0
   46.4530   29.3940   42.9830 N   0  0  0  0  0  0  0  0  0  0  0  0
   45.9160   30.0020   44.0390 C   0  0  0  0  0  0  0  0  0  0  0  0
   44.6810   30.1060   44.2580 O   0  0  0  0  0  0  0  0  0  0  0  0
   45.0483   33.9038   47.7618 H   0  0  0  0  0  0  0  0  0  0  0  0
   44.7692   29.8264   50.0721 H   0  0  0  0  0  0  0  0  0  0  0  0
   45.4457   28.6112   48.9548 H   0  0  0  0  0  0  0  0  0  0  0  0
   47.1332   33.9005   45.5186 H   0  0  0  0  0  0  0  0  0  0  0  0
   44.3674   34.7212   46.4125 H   0  0  0  0  0  0  0  0  0  0  0  0
   43.9739   36.3511   44.4816 H   0  0  0  0  0  0  0  0  0  0  0  0
   46.0710   36.4504   43.0909 H   0  0  0  0  0  0  0  0  0  0  0  0
   46.8757   34.2348   42.1372 H   0  0  0  0  0  0  0  0  0  0  0  0
   47.5171   34.9374   43.6655 H   0  0  0  0  0  0  0  0  0  0  0  0
   45.2391   32.9171   43.5461 H   0  0  0  0  0  0  0  0  0  0  0  0
   46.9560   32.4691   43.7836 H   0  0  0  0  0  0  0  0  0  0  0  0
   48.7919   30.9891   45.6385 H   0  0  0  0  0  0  0  0  0  0  0  0
   50.5765   29.8240   44.6293 H   0  0  0  0  0  0  0  0  0  0  0  0
   50.4033   28.9313   43.0801 H   0  0  0  0  0  0  0  0  0  0  0  0
   50.4659   30.7265   43.0801 H   0  0  0  0  0  0  0  0  0  0  0  0
   45.8424   28.9661   42.2723 H   0  0  0  0  0  0  0  0  0  0  0  0
  1  6  2  0
  2  1  1  0
  3  2  2  0
  3  4  1  0
  4  5  2  0
  5  6  1  0
  5  7  1  0
  8  9  1  0
  8  2  1  0
 10  9  2  0
 11 10  1  0
 12 11  1  0
 12 13  1  0
 13  8  1  0
 14 15  1  0
 14 11  1  0
 16 14  1  0
 17 14  1  0
 18  3  1  0
 19 18  1  0
 20 19  2  0
 21 20  1  0
 22 24  1  0
 22 20  1  0
 23 22  2  0
 24 25  1  0
 25 26  2  0
 25 18  1  0
  1 27  1  0
  7 28  1  0
  7 29  1  0
  8 30  1  1
  9 31  1  0
 10 32  1  0
 11 33  1  6
 12 34  1  0
 12 35  1  0
 13 36  1  0
 13 37  1  0
 19 38  1  0
 21 39  1  0
 21 40  1  0
 21 41  1  0
 24 42  1  0
M  ISO  8  27  14  30  13  31  13  32  13  33  13  34  13  35  13  36  13
M  ISO  6  37  13  38  14  39   8  40   8  41   8  42   9
M  END
>  <minimizedAffinity>  (1) 
-5.87596941

>  <minimizedRMSD>  (1) 
0.663262904

$$$$
