
     RDKit          3D

 48 52  0  0  1  0  0  0  0  0999 V2000
   48.3670   31.5130   48.8840 C   0  0  0  0  0  0  0  0  0  0  0  0
   49.2890   32.5600   49.0710 C   0  0  0  0  0  0  0  0  0  0  0  0
   50.3660   32.3460   49.8780 C   0  0  0  0  0  0  0  0  0  0  0  0
   50.5080   31.1120   50.4780 C   0  0  0  0  0  0  0  0  0  0  0  0
   49.0180   30.1640   49.8710 S   0  0  0  0  0  0  0  0  0  0  0  0
   44.5780   35.7150   44.8990 C   0  0  0  0  0  0  0  0  0  0  0  0
   45.1800   35.5880   43.6250 C   0  0  0  0  0  0  0  0  0  0  0  0
   46.0580   34.4970   43.4080 C   0  0  0  0  0  0  0  0  0  0  0  0
   46.2760   33.6230   44.4410 N   0  0  0  0  0  0  0  0  0  0  0  0
   45.6790   33.7870   45.6350 C   0  0  0  0  0  0  0  0  0  0  0  0
   44.8280   34.8300   45.8760 N   0  0  0  0  0  0  0  0  0  0  0  0
   45.9620   32.8420   46.6400 N   0  0  0  0  0  0  0  0  0  0  0  0
   45.0840   32.3540   47.6520 C   0  0  0  0  0  0  0  0  0  0  0  0
   46.0340   32.1070   48.7940 C   0  0  0  0  0  0  0  0  0  0  0  0
   47.1370   31.3980   48.0970 C   0  0  1  0  0  0  0  0  0  0  0  0
   47.2650   32.2050   46.7830 C   0  0  0  0  0  0  0  0  0  0  0  0
   51.5230   30.6410   51.3550 N   0  0  0  0  0  0  0  0  0  0  0  0
   52.1200   29.4740   51.3830 C   0  0  0  0  0  0  0  0  0  0  0  0
   53.0230   29.4240   52.3780 N   0  0  0  0  0  0  0  0  0  0  0  0
   52.9840   30.6100   52.9930 C   0  0  0  0  0  0  0  0  0  0  0  0
   52.0410   31.3760   52.3500 N   0  0  0  0  0  0  0  0  0  0  0  0
   53.7850   30.9810   54.1100 N   0  0  0  0  0  0  0  0  0  0  0  0
   55.1110   31.2230   54.0600 C   0  0  0  0  0  0  0  0  0  0  0  0
   55.8160   31.5820   55.2080 C   0  0  0  0  0  0  0  0  0  0  0  0
   57.2830   31.8450   55.1270 C   0  0  0  0  0  0  0  0  0  0  0  0
   55.1880   31.7020   56.4310 C   0  0  0  0  0  0  0  0  0  0  0  0
   55.8130   32.0260   57.4770 O   0  0  0  0  0  0  0  0  0  0  0  0
   53.8720   31.4490   56.4160 N   0  0  0  0  0  0  0  0  0  0  0  0
   53.1710   31.1010   55.3230 C   0  0  0  0  0  0  0  0  0  0  0  0
   51.9300   30.8910   55.4520 O   0  0  0  0  0  0  0  0  0  0  0  0
   49.1431   33.5313   48.5757 H   0  0  0  0  0  0  0  0  0  0  0  0
   51.1070   33.1411   50.0475 H   0  0  0  0  0  0  0  0  0  0  0  0
   43.8931   36.5539   45.0919 H   0  0  0  0  0  0  0  0  0  0  0  0
   44.9725   36.3151   42.8260 H   0  0  0  0  0  0  0  0  0  0  0  0
   46.5519   34.3552   42.4354 H   0  0  0  0  0  0  0  0  0  0  0  0
   44.3244   33.1037   47.9184 H   0  0  0  0  0  0  0  0  0  0  0  0
   44.5093   31.4655   47.3515 H   0  0  0  0  0  0  0  0  0  0  0  0
   46.3799   33.0498   49.2428 H   0  0  0  0  0  0  0  0  0  0  0  0
   45.5965   31.5491   49.6351 H   0  0  0  0  0  0  0  0  0  0  0  0
   46.9579   30.3241   47.9401 H   0  0  0  0  0  0  0  0  0  0  0  0
   47.4714   31.5390   45.9322 H   0  0  0  0  0  0  0  0  0  0  0  0
   48.0929   32.9289   46.8064 H   0  0  0  0  0  0  0  0  0  0  0  0
   51.9106   28.6482   50.6872 H   0  0  0  0  0  0  0  0  0  0  0  0
   55.6430   31.1360   53.1011 H   0  0  0  0  0  0  0  0  0  0  0  0
   57.6988   31.9195   56.1427 H   0  0  0  0  0  0  0  0  0  0  0  0
   57.7742   31.0206   54.5893 H   0  0  0  0  0  0  0  0  0  0  0  0
   57.4572   32.7887   54.5893 H   0  0  0  0  0  0  0  0  0  0  0  0
   53.3605   31.5268   57.3066 H   0  0  0  0  0  0  0  0  0  0  0  0
  1  2  2  0
  1  5  1  0
  2  3  1  0
  3  4  2  0
  4 17  1  0
  5  4  1  0
  6 11  2  0
  7  6  1  0
  8  7  2  0
  8  9  1  0
  9 10  2  0
 10 11  1  0
 10 12  1  0
 12 16  1  0
 12 13  1  0
 13 14  1  0
 15 14  1  0
 15  1  1  0
 16 15  1  0
 17 18  1  0
 17 21  1  0
 18 19  2  0
 19 20  1  0
 20 22  1  0
 21 20  2  0
 22 29  1  0
 23 22  1  0
 23 24  2  0
 24 26  1  0
 25 24  1  0
 26 27  2  0
 28 26  1  0
 29 30  2  0
 29 28  1  0
  2 31  1  0
  3 32  1  0
  6 33  1  0
  7 34  1  0
  8 35  1  0
 13 36  1  0
 13 37  1  0
 14 38  1  0
 14 39  1  0
 15 40  1  6
 16 41  1  0
 16 42  1  0
 18 43  1  0
 23 44  1  0
 25 45  1  0
 25 46  1  0
 25 47  1  0
 28 48  1  0
M  END
>  <minimizedAffinity>  (1) 
-7.16022491

>  <minimizedRMSD>  (1) 
2.90252948

$$$$
