
     RDKit          3D

 50 54  0  0  1  0  0  0  0  0999 V2000
   46.9680   34.5330   41.3590 C   0  0  0  0  0  0  0  0  0  0  0  0
   48.2450   34.9690   41.0340 C   0  0  0  0  0  0  0  0  0  0  0  0
   48.5260   34.6750   39.7690 N   0  0  0  0  0  0  0  0  0  0  0  0
   47.4360   34.0490   39.2680 C   0  0  0  0  0  0  0  0  0  0  0  0
   47.1990   33.5340   37.9980 C   0  0  0  0  0  0  0  0  0  0  0  0
   45.9970   32.9390   37.7340 C   0  0  0  0  0  0  0  0  0  0  0  0
   44.9740   32.8060   38.6540 C   0  0  0  0  0  0  0  0  0  0  0  0
   45.2560   33.3320   39.8990 C   0  0  0  0  0  0  0  0  0  0  0  0
   46.4350   33.9390   40.2320 C   0  0  0  0  0  0  0  0  0  0  0  0
   44.7890   35.8850   44.0780 C   0  0  0  0  0  0  0  0  0  0  0  0
   45.4410   35.7650   42.8380 C   0  0  0  0  0  0  0  0  0  0  0  0
   46.2820   34.6650   42.6520 C   0  0  0  0  0  0  0  0  0  0  0  0
   46.4420   33.7550   43.6580 N   0  0  0  0  0  0  0  0  0  0  0  0
   45.7800   33.9310   44.8330 C   0  0  0  0  0  0  0  0  0  0  0  0
   44.9650   34.9720   45.0550 N   0  0  0  0  0  0  0  0  0  0  0  0
   49.1520   35.6590   41.9770 C   0  0  0  0  0  0  0  0  0  0  0  0
   50.0840   34.6920   42.6620 C   0  0  0  0  0  0  0  0  0  0  0  0
   50.2930   33.3980   41.9120 C   0  0  1  0  0  0  0  0  0  0  0  0
   50.8410   32.2100   42.5690 C   0  0  0  0  0  0  0  0  0  0  0  0
   49.3860   32.2560   42.3430 C   0  0  2  0  0  0  0  0  0  0  0  0
   48.7950   31.3610   41.3880 N   0  0  0  0  0  0  0  0  0  0  0  0
   47.7140   30.6110   41.6800 C   0  0  0  0  0  0  0  0  0  0  0  0
   47.1310   29.7460   40.7760 C   0  0  0  0  0  0  0  0  0  0  0  0
   45.9280   28.9330   41.1450 C   0  0  0  0  0  0  0  0  0  0  0  0
   47.6530   29.6170   39.5090 C   0  0  0  0  0  0  0  0  0  0  0  0
   47.0920   28.8140   38.7090 O   0  0  0  0  0  0  0  0  0  0  0  0
   48.7490   30.3790   39.2230 N   0  0  0  0  0  0  0  0  0  0  0  0
   49.2680   31.2020   40.1460 C   0  0  0  0  0  0  0  0  0  0  0  0
   50.2550   31.8280   39.7480 O   0  0  0  0  0  0  0  0  0  0  0  0
   49.4017   34.8828   39.2681 H   0  0  0  0  0  0  0  0  0  0  0  0
   47.9692   33.6046   37.2158 H   0  0  0  0  0  0  0  0  0  0  0  0
   45.8330   32.5395   36.7223 H   0  0  0  0  0  0  0  0  0  0  0  0
   44.0158   32.3218   38.4144 H   0  0  0  0  0  0  0  0  0  0  0  0
   44.4800   33.2577   40.6751 H   0  0  0  0  0  0  0  0  0  0  0  0
   44.1215   36.7413   44.2549 H   0  0  0  0  0  0  0  0  0  0  0  0
   45.2941   36.5106   42.0427 H   0  0  0  0  0  0  0  0  0  0  0  0
   45.9189   33.1893   45.6334 H   0  0  0  0  0  0  0  0  0  0  0  0
   49.7492   36.3972   41.4217 H   0  0  0  0  0  0  0  0  0  0  0  0
   48.5382   36.1483   42.7476 H   0  0  0  0  0  0  0  0  0  0  0  0
   51.0613   35.1821   42.7837 H   0  0  0  0  0  0  0  0  0  0  0  0
   49.6169   34.4290   43.6226 H   0  0  0  0  0  0  0  0  0  0  0  0
   50.5642   33.9288   40.9875 H   0  0  0  0  0  0  0  0  0  0  0  0
   51.4585   31.5061   41.9918 H   0  0  0  0  0  0  0  0  0  0  0  0
   51.4713   32.0504   43.4562 H   0  0  0  0  0  0  0  0  0  0  0  0
   48.4776   32.1812   42.9589 H   0  0  0  0  0  0  0  0  0  0  0  0
   47.2758   30.6920   42.6857 H   0  0  0  0  0  0  0  0  0  0  0  0
   45.8452   28.8771   42.2405 H   0  0  0  0  0  0  0  0  0  0  0  0
   45.0248   29.4066   40.7327 H   0  0  0  0  0  0  0  0  0  0  0  0
   46.0306   27.9184   40.7327 H   0  0  0  0  0  0  0  0  0  0  0  0
   49.1812   30.3213   38.2899 H   0  0  0  0  0  0  0  0  0  0  0  0
  1 12  1  0
  2  1  2  0
  2 16  1  0
  3  2  1  0
  4  3  1  0
  4  9  2  0
  5  4  1  0
  6  5  2  0
  6  7  1  0
  7  8  2  0
  8  9  1  0
  9  1  1  0
 10 15  2  0
 11 10  1  0
 12 11  2  0
 12 13  1  0
 13 14  2  0
 14 15  1  0
 16 17  1  0
 18 20  1  0
 18 19  1  0
 18 17  1  0
 20 19  1  0
 21 22  1  0
 21 20  1  0
 23 24  1  0
 23 22  2  0
 25 23  1  0
 26 25  2  0
 27 25  1  0
 27 28  1  0
 28 21  1  0
 29 28  2  0
  3 30  1  0
  5 31  1  0
  6 32  1  0
  7 33  1  0
  8 34  1  0
 10 35  1  0
 11 36  1  0
 14 37  1  0
 16 38  1  0
 16 39  1  0
 17 40  1  0
 17 41  1  0
 18 42  1  6
 19 43  1  0
 19 44  1  0
 20 45  1  1
 22 46  1  0
 24 47  1  0
 24 48  1  0
 24 49  1  0
 27 50  1  0
M  ISO  8  30   9  31  14  32  14  33  14  34  14  35  14  36  14  37  14
M  ISO  8  38   8  39   8  40   8  41   8  42  13  43  13  44  13  45  13
M  ISO  5  46  14  47   8  48   8  49   8  50   9
M  END
>  <minimizedAffinity>  (1) 
-5.9844842

>  <minimizedRMSD>  (1) 
0.586697757

$$$$
