
     RDKit          3D

 28 30  0  0  0  0  0  0  0  0999 V2000
   44.5070   35.7400   44.6470 C   0  0  0  0  0  0  0  0  0  0  0  0
   45.1670   35.0580   43.6200 C   0  0  0  0  0  0  0  0  0  0  0  0
   45.8370   33.8760   43.9610 C   0  0  0  0  0  0  0  0  0  0  0  0
   45.8000   33.4730   45.2660 N   0  0  0  0  0  0  0  0  0  0  0  0
   45.1590   34.1500   46.2220 C   0  0  0  0  0  0  0  0  0  0  0  0
   44.5160   35.2750   45.9220 N   0  0  0  0  0  0  0  0  0  0  0  0
   45.1720   35.5430   42.2260 C   0  0  0  0  0  0  0  0  0  0  0  0
   43.9170   35.0880   41.5020 C   0  0  0  0  0  0  0  0  0  0  0  0
   43.9890   34.2410   40.4260 C   0  0  0  0  0  0  0  0  0  0  0  0
   42.2490   34.0160   39.9430 S   0  0  0  0  0  0  0  0  0  0  0  0
   41.6980   35.1770   41.3700 C   0  0  0  0  0  0  0  0  0  0  0  0
   42.7050   35.4480   41.8280 N   0  0  0  0  0  0  0  0  0  0  0  0
   46.7040   32.9320   42.7590 S   0  0  0  0  0  0  0  0  0  0  0  0
   48.3270   33.1930   42.5570 C   0  0  0  0  0  0  0  0  0  0  0  0
   49.3800   34.0820   42.7370 C   0  0  0  0  0  0  0  0  0  0  0  0
   50.6590   33.8560   42.3870 C   0  0  0  0  0  0  0  0  0  0  0  0
   50.9480   32.6030   41.7860 C   0  0  0  0  0  0  0  0  0  0  0  0
   49.2550   31.7850   41.7630 S   0  0  0  0  0  0  0  0  0  0  0  0
   52.0780   32.0660   41.3300 O   0  0  0  0  0  0  0  0  0  0  0  0
   43.9698   36.6719   44.4169 H   0  0  0  0  0  0  0  0  0  0  0  0
   45.1627   33.7775   47.2570 H   0  0  0  0  0  0  0  0  0  0  0  0
   45.2125   36.6423   42.2250 H   0  0  0  0  0  0  0  0  0  0  0  0
   46.0512   35.1316   41.7085 H   0  0  0  0  0  0  0  0  0  0  0  0
   44.8857   33.8018   39.9644 H   0  0  0  0  0  0  0  0  0  0  0  0
   40.6866   35.4937   41.6645 H   0  0  0  0  0  0  0  0  0  0  0  0
   49.1484   35.0505   43.2043 H   0  0  0  0  0  0  0  0  0  0  0  0
   51.4442   34.6071   42.5585 H   0  0  0  0  0  0  0  0  0  0  0  0
   52.0709   31.1574   40.9369 H   0  0  0  0  0  0  0  0  0  0  0  0
  1  6  2  0
  2  3  2  0
  2  1  1  0
  3  4  1  0
  4  5  2  0
  6  5  1  0
  7  2  1  0
  8 12  1  0
  8  7  1  0
  9  8  2  0
 10  9  1  0
 10 11  1  0
 11 12  2  0
 13  3  1  0
 14 15  2  0
 14 13  1  0
 16 15  1  0
 17 16  2  0
 18 17  1  0
 18 14  1  0
 19 17  1  0
  1 20  1  0
  5 21  1  0
  7 22  1  0
  7 23  1  0
  9 24  1  0
 11 25  1  0
 15 26  1  0
 16 27  1  0
 19 28  1  0
M  ISO  8  20  14  21  14  22   8  23   8  24  14  25  14  26  14  27  14
M  ISO  1  28   3
M  END
>  <minimizedAffinity>  (1) 
-5.14294195

>  <minimizedRMSD>  (1) 
0.691401005

$$$$
