
     RDKit          3D

 33 34  0  0  0  0  0  0  0  0999 V2000
   47.1450   34.4570   42.0450 C   0  0  0  0  0  0  0  0  0  0  0  0
   44.6040   35.9990   44.4000 C   0  0  0  0  0  0  0  0  0  0  0  0
   45.3930   35.8250   43.2450 C   0  0  0  0  0  0  0  0  0  0  0  0
   46.2770   34.7390   43.1930 C   0  0  0  0  0  0  0  0  0  0  0  0
   46.3290   33.9010   44.2730 N   0  0  0  0  0  0  0  0  0  0  0  0
   45.5450   34.1210   45.3560 C   0  0  0  0  0  0  0  0  0  0  0  0
   44.7010   35.1450   45.4230 N   0  0  0  0  0  0  0  0  0  0  0  0
   46.2280   34.2320   40.8340 C   0  0  0  0  0  0  0  0  0  0  0  0
   48.1770   35.4530   41.7460 C   0  0  0  0  0  0  0  0  0  0  0  0
   47.8360   33.1240   42.2840 C   0  0  0  0  0  0  0  0  0  0  0  0
   48.2080   32.5030   41.0870 O   0  0  0  0  0  0  0  0  0  0  0  0
   49.5450   32.1970   40.8820 C   0  0  0  0  0  0  0  0  0  0  0  0
   50.5250   32.6670   41.7090 N   0  0  0  0  0  0  0  0  0  0  0  0
   51.6740   32.2390   41.3000 O   0  0  0  0  0  0  0  0  0  0  0  0
   51.5290   31.4960   40.2310 C   0  0  0  0  0  0  0  0  0  0  0  0
   50.2160   31.4660   39.9660 N   0  0  0  0  0  0  0  0  0  0  0  0
   52.5460   30.8630   39.5120 O   0  0  0  0  0  0  0  0  0  0  0  0
   53.1510   31.4660   38.4240 C   0  0  0  0  0  0  0  0  0  0  0  0
   52.2300   32.3400   37.7560 N   0  0  0  0  0  0  0  0  0  0  0  0
   54.2940   31.4440   37.8770 O   0  0  0  0  0  0  0  0  0  0  0  0
   43.9029   36.8445   44.4596 H   0  0  0  0  0  0  0  0  0  0  0  0
   45.3164   36.5273   42.4018 H   0  0  0  0  0  0  0  0  0  0  0  0
   45.6094   33.4286   46.2083 H   0  0  0  0  0  0  0  0  0  0  0  0
   45.2147   33.9834   41.1825 H   0  0  0  0  0  0  0  0  0  0  0  0
   46.1922   35.1480   40.2260 H   0  0  0  0  0  0  0  0  0  0  0  0
   46.6202   33.4035   40.2260 H   0  0  0  0  0  0  0  0  0  0  0  0
   48.5876   35.8493   42.6864 H   0  0  0  0  0  0  0  0  0  0  0  0
   48.9828   34.9825   41.1635 H   0  0  0  0  0  0  0  0  0  0  0  0
   47.7354   36.2750   41.1635 H   0  0  0  0  0  0  0  0  0  0  0  0
   48.7378   33.2954   42.8900 H   0  0  0  0  0  0  0  0  0  0  0  0
   47.1267   32.4626   42.8030 H   0  0  0  0  0  0  0  0  0  0  0  0
   52.5307   32.8653   36.9226 H   0  0  0  0  0  0  0  0  0  0  0  0
   51.2681   32.4422   38.1098 H   0  0  0  0  0  0  0  0  0  0  0  0
  1 10  1  0
  1  4  1  0
  2  7  2  0
  3  2  1  0
  4  3  2  0
  4  5  1  0
  5  6  2  0
  6  7  1  0
  8  1  1  0
  9  1  1  0
 11 10  1  0
 12 11  1  0
 12 13  2  0
 14 13  1  0
 15 14  1  0
 16 15  2  0
 16 12  1  0
 17 15  1  0
 18 17  1  0
 19 18  1  0
 20 18  2  0
  2 21  1  0
  3 22  1  0
  6 23  1  0
  8 24  1  0
  8 25  1  0
  8 26  1  0
  9 27  1  0
  9 28  1  0
  9 29  1  0
 10 30  1  0
 10 31  1  0
 19 32  1  0
 19 33  1  0
M  ISO  8  21  14  22  14  23  14  24   8  25   8  26   8  27   8  28   8
M  ISO  3  29   8  30   8  31   8
M  END
>  <minimizedAffinity>  (1) 
-5.11456347

>  <minimizedRMSD>  (1) 
0.405569047

$$$$
