
     RDKit          3D

 31 34  0  0  0  0  0  0  0  0999 V2000
   43.7270   34.5890   41.6120 N   0  0  0  0  0  0  0  0  0  0  0  0
   44.1540   34.0920   40.4730 C   0  0  0  0  0  0  0  0  0  0  0  0
   43.2740   34.4320   39.4590 C   0  0  0  0  0  0  0  0  0  0  0  0
   42.2920   35.1540   40.0070 N   0  0  0  0  0  0  0  0  0  0  0  0
   42.5650   35.2560   41.3400 C   0  0  0  0  0  0  0  0  0  0  0  0
   45.3190   33.3160   40.2070 N   0  0  0  0  0  0  0  0  0  0  0  0
   45.2450   32.0470   39.7090 C   0  0  0  0  0  0  0  0  0  0  0  0
   46.4730   31.5260   39.5470 N   0  0  0  0  0  0  0  0  0  0  0  0
   47.3580   32.4510   39.9380 C   0  0  0  0  0  0  0  0  0  0  0  0
   48.7350   32.5150   40.0100 C   0  0  0  0  0  0  0  0  0  0  0  0
   49.4360   31.5420   39.6530 O   0  0  0  0  0  0  0  0  0  0  0  0
   49.2910   33.6660   40.4780 N   0  0  0  0  0  0  0  0  0  0  0  0
   48.5530   34.7210   40.8650 C   0  0  0  0  0  0  0  0  0  0  0  0
   49.1990   35.9000   41.3470 N   0  0  0  0  0  0  0  0  0  0  0  0
   47.1930   34.7260   40.8210 N   0  0  0  0  0  0  0  0  0  0  0  0
   46.6540   33.5670   40.3500 C   0  0  0  0  0  0  0  0  0  0  0  0
   44.2010   35.6950   43.6840 C   0  0  0  0  0  0  0  0  0  0  0  0
   44.2770   34.5040   42.8880 C   0  0  0  0  0  0  0  0  0  0  0  0
   44.8800   33.3890   43.4470 C   0  0  0  0  0  0  0  0  0  0  0  0
   45.3660   33.4930   44.7230 N   0  0  0  0  0  0  0  0  0  0  0  0
   45.2800   34.6200   45.4430 C   0  0  0  0  0  0  0  0  0  0  0  0
   44.6950   35.7280   44.9250 N   0  0  0  0  0  0  0  0  0  0  0  0
   43.3664   34.1581   38.3977 H   0  0  0  0  0  0  0  0  0  0  0  0
   41.9484   35.7898   42.0781 H   0  0  0  0  0  0  0  0  0  0  0  0
   44.3076   31.5223   39.4725 H   0  0  0  0  0  0  0  0  0  0  0  0
   50.3172   33.7312   40.5380 H   0  0  0  0  0  0  0  0  0  0  0  0
   48.6369   36.7103   41.6444 H   0  0  0  0  0  0  0  0  0  0  0  0
   50.2270   35.9400   41.3972 H   0  0  0  0  0  0  0  0  0  0  0  0
   43.7283   36.5959   43.2658 H   0  0  0  0  0  0  0  0  0  0  0  0
   44.9658   32.4486   42.8829 H   0  0  0  0  0  0  0  0  0  0  0  0
   45.6880   34.6464   46.4642 H   0  0  0  0  0  0  0  0  0  0  0  0
  1 18  1  0
  2  1  1  0
  3  4  1  0
  3  2  2  0
  4  5  2  0
  5  1  1  0
  6 16  1  0
  6  2  1  0
  7  6  1  0
  8  7  2  0
  8  9  1  0
  9 10  1  0
  9 16  2  0
 10 12  1  0
 11 10  2  0
 12 13  1  0
 13 14  1  0
 15 13  2  0
 16 15  1  0
 17 22  2  0
 18 19  2  0
 18 17  1  0
 19 20  1  0
 20 21  2  0
 22 21  1  0
  3 23  1  0
  5 24  1  0
  7 25  1  0
 12 26  1  0
 14 27  1  0
 14 28  1  0
 17 29  1  0
 19 30  1  0
 21 31  1  0
M  ISO  7  23  14  24  14  25  14  26   9  29  14  30  14  31  14
M  END
>  <minimizedAffinity>  (1) 
-5.35210991

>  <minimizedRMSD>  (1) 
1.0458647

$$$$
