
     RDKit          3D

 47 52  0  0  0  0  0  0  0  0999 V2000
   44.6400   35.5510   45.0570 C   0  0  0  0  0  0  0  0  0  0  0  0
   44.1660   35.4730   43.7350 C   0  0  0  0  0  0  0  0  0  0  0  0
   44.5160   34.3780   42.9540 C   0  0  0  0  0  0  0  0  0  0  0  0
   45.3050   33.4620   43.5570 N   0  0  0  0  0  0  0  0  0  0  0  0
   45.7540   33.5420   44.8150 C   0  0  0  0  0  0  0  0  0  0  0  0
   45.4020   34.6000   45.5340 N   0  0  0  0  0  0  0  0  0  0  0  0
   46.5400   32.4140   44.9040 C   0  0  0  0  0  0  0  0  0  0  0  0
   47.2930   31.3840   44.8920 N   0  0  0  0  0  0  0  0  0  0  0  0
   47.9810   30.4150   44.9390 C   0  0  0  0  0  0  0  0  0  0  0  0
   47.8150   30.1110   46.2160 N   0  0  0  0  0  0  0  0  0  0  0  0
   46.9820   30.9390   46.9540 C   0  0  0  0  0  0  0  0  0  0  0  0
   46.8550   30.5260   48.2930 C   0  0  0  0  0  0  0  0  0  0  0  0
   46.0430   31.2620   49.0730 C   0  0  0  0  0  0  0  0  0  0  0  0
   45.3730   32.3410   48.6200 C   0  0  0  0  0  0  0  0  0  0  0  0
   45.5870   32.6370   47.2930 C   0  0  0  0  0  0  0  0  0  0  0  0
   46.3780   32.0430   46.2840 C   0  0  0  0  0  0  0  0  0  0  0  0
   44.0450   34.3200   41.6340 N   0  0  0  0  0  0  0  0  0  0  0  0
   42.7490   34.3470   41.3270 C   0  0  0  0  0  0  0  0  0  0  0  0
   42.7070   34.2750   39.9360 C   0  0  0  0  0  0  0  0  0  0  0  0
   43.9760   34.2090   39.4430 N   0  0  0  0  0  0  0  0  0  0  0  0
   44.8090   34.2360   40.5120 C   0  0  0  0  0  0  0  0  0  0  0  0
   46.2320   34.1810   40.5100 N   0  0  0  0  0  0  0  0  0  0  0  0
   41.5370   34.2710   39.1250 N   0  0  0  0  0  0  0  0  0  0  0  0
   41.2390   35.1740   38.1670 C   0  0  0  0  0  0  0  0  0  0  0  0
   40.0580   34.8720   37.5950 N   0  0  0  0  0  0  0  0  0  0  0  0
   39.6260   33.7480   38.2260 C   0  0  0  0  0  0  0  0  0  0  0  0
   38.4530   33.0360   37.9990 C   0  0  0  0  0  0  0  0  0  0  0  0
   37.6550   33.4120   37.1310 O   0  0  0  0  0  0  0  0  0  0  0  0
   38.2900   31.9530   38.7850 N   0  0  0  0  0  0  0  0  0  0  0  0
   39.1820   31.5740   39.7200 C   0  0  0  0  0  0  0  0  0  0  0  0
   38.9070   30.3970   40.5040 N   0  0  0  0  0  0  0  0  0  0  0  0
   40.3380   32.2640   39.9520 N   0  0  0  0  0  0  0  0  0  0  0  0
   40.5390   33.3570   39.1860 C   0  0  0  0  0  0  0  0  0  0  0  0
   44.3706   36.4101   45.6890 H   0  0  0  0  0  0  0  0  0  0  0  0
   43.5266   36.2684   43.3246 H   0  0  0  0  0  0  0  0  0  0  0  0
   48.5758   29.9207   44.1568 H   0  0  0  0  0  0  0  0  0  0  0  0
   47.3914   29.6477   48.6815 H   0  0  0  0  0  0  0  0  0  0  0  0
   45.9201   30.9709   50.1266 H   0  0  0  0  0  0  0  0  0  0  0  0
   44.7075   32.9379   49.2609 H   0  0  0  0  0  0  0  0  0  0  0  0
   45.0266   33.5178   46.9464 H   0  0  0  0  0  0  0  0  0  0  0  0
   41.8976   34.4120   42.0204 H   0  0  0  0  0  0  0  0  0  0  0  0
   46.7498   34.2103   41.3999 H   0  0  0  0  0  0  0  0  0  0  0  0
   46.7435   34.1120   39.6186 H   0  0  0  0  0  0  0  0  0  0  0  0
   41.8698   36.0325   37.8931 H   0  0  0  0  0  0  0  0  0  0  0  0
   37.4388   31.3858   38.6641 H   0  0  0  0  0  0  0  0  0  0  0  0
   39.5762   30.0900   41.2243 H   0  0  0  0  0  0  0  0  0  0  0  0
   38.0411   29.8625   40.3442 H   0  0  0  0  0  0  0  0  0  0  0  0
  1  6  2  0
  2  1  1  0
  3  4  1  0
  3  2  2  0
  4  5  2  0
  5  7  1  0
  5  6  1  0
  7 16  1  0
  8  7  2  0
  8  9  1  0
  9 10  2  0
 10 11  1  0
 11 12  1  0
 12 13  2  0
 14 13  1  0
 15 14  2  0
 16 11  2  0
 16 15  1  0
 17  3  1  0
 18 17  1  0
 19 18  2  0
 20 19  1  0
 20 21  2  0
 21 17  1  0
 22 21  1  0
 23 33  1  0
 23 19  1  0
 24 23  1  0
 25 24  2  0
 25 26  1  0
 26 33  2  0
 27 26  1  0
 27 29  1  0
 28 27  2  0
 29 30  1  0
 30 32  2  0
 30 31  1  0
 33 32  1  0
  1 34  1  0
  2 35  1  0
  9 36  1  0
 12 37  1  0
 13 38  1  0
 14 39  1  0
 15 40  1  0
 18 41  1  0
 22 42  1  0
 22 43  1  0
 24 44  1  0
 29 45  1  0
 31 46  1  0
 31 47  1  0
M  END
>  <minimizedAffinity>  (1) 
-7.83109903

>  <minimizedRMSD>  (1) 
0.452368885

$$$$
