
     RDKit          3D

 43 46  0  0  0  0  0  0  0  0999 V2000
   46.1544   33.5976   45.2789 C   0  0  2  0  0  0  0  0  0  0  0  0
   44.9181   34.6629   45.4977 C   0  0  0  0  0  0  0  0  0  0  0  0
   44.6887   35.5951   44.4293 C   0  0  0  0  0  0  0  0  0  0  0  0
   45.5080   35.5483   43.2173 C   0  0  1  0  0  0  0  0  0  0  0  0
   46.5874   34.5698   43.1812 C   0  0  0  0  0  0  0  0  0  0  0  0
   46.1538   33.3206   43.9136 C   0  0  0  0  0  0  0  0  0  0  0  0
   45.3918   32.8836   47.5275 C   0  0  0  0  0  0  0  0  0  0  0  0
   45.9120   32.6356   46.3017 C   0  0  0  0  0  0  0  0  0  0  0  0
   46.1505   31.2864   46.0286 C   0  0  0  0  0  0  0  0  0  0  0  0
   45.8897   30.2828   46.9043 N   0  0  0  0  0  0  0  0  0  0  0  0
   45.3578   30.5953   48.1461 C   0  0  0  0  0  0  0  0  0  0  0  0
   45.1249   31.8635   48.4242 N   0  0  0  0  0  0  0  0  0  0  0  0
   45.1063   29.5640   49.0943 N   0  0  0  0  0  0  0  0  0  0  0  0
   46.7523   30.5981   44.8963 C   0  0  0  0  0  0  0  0  0  0  0  0
   46.3603   29.9204   43.7875 C   0  0  0  0  0  0  0  0  0  0  0  0
   47.5145   29.4677   43.1297 C   0  0  0  0  0  0  0  0  0  0  0  0
   48.5402   29.8919   43.8687 N   0  0  0  0  0  0  0  0  0  0  0  0
   48.1157   30.5603   44.9144 N   0  0  0  0  0  0  0  0  0  0  0  0
   44.5156   35.2663   42.0491 C   0  0  0  0  0  0  0  0  0  0  0  0
   43.4612   34.4538   42.4269 F   0  0  0  0  0  0  0  0  0  0  0  0
   43.9622   36.4972   41.7044 F   0  0  0  0  0  0  0  0  0  0  0  0
   45.2126   34.8137   40.9464 F   0  0  0  0  0  0  0  0  0  0  0  0
   46.9144   34.3552   45.6261 H   0  0  0  0  0  0  0  0  0  0  0  0
   44.2244   34.7929   46.3182 H   0  0  0  0  0  0  0  0  0  0  0  0
   43.9083   36.2984   44.5262 H   0  0  0  0  0  0  0  0  0  0  0  0
   45.9145   36.5667   43.0278 H   0  0  0  0  0  0  0  0  0  0  0  0
   46.8603   34.3728   42.1089 H   0  0  0  0  0  0  0  0  0  0  0  0
   47.5018   34.9477   43.6833 H   0  0  0  0  0  0  0  0  0  0  0  0
   45.2361   32.9374   43.4238 H   0  0  0  0  0  0  0  0  0  0  0  0
   47.0276   32.6950   43.5957 H   0  0  0  0  0  0  0  0  0  0  0  0
   45.1737   33.8925   47.8419 H   0  0  0  0  0  0  0  0  0  0  0  0
   45.9210   29.6777   49.7370 H   0  0  0  0  0  0  0  0  0  0  0  0
   44.2791   28.8982   49.0755 H   0  0  0  0  0  0  0  0  0  0  0  0
   45.3051   29.8414   43.5992 H   0  0  0  0  0  0  0  0  0  0  0  0
   47.4449   28.9031   42.2214 H   0  0  0  0  0  0  0  0  0  0  0  0
   49.9458   29.6253   43.5234 C   0  0  0  0  0  0  0  0  0  0  0  0
   50.1011   28.6077   42.4013 C   0  0  0  0  0  0  0  0  0  0  0  0
   50.3657   30.0419   42.0982 C   0  0  0  0  0  0  0  0  0  0  0  0
   50.6845   29.6379   44.3213 H   0  0  0  0  0  0  0  0  0  0  0  0
   49.1871   28.1783   41.9482 H   0  0  0  0  0  0  0  0  0  0  0  0
   51.0000   27.9330   42.4825 H   0  0  0  0  0  0  0  0  0  0  0  0
   51.4100   30.3767   41.9486 H   0  0  0  0  0  0  0  0  0  0  0  0
   49.6100   30.5865   41.4953 H   0  0  0  0  0  0  0  0  0  0  0  0
  1  2  1  0
  1  8  1  0
  3  2  2  0
  4  3  1  0
  5  4  1  0
  5  6  1  0
  6  1  1  0
  7 12  2  0
  8  7  1  0
  9  8  2  0
  9 10  1  0
 10 11  2  0
 11 12  1  0
 11 13  1  0
 14 18  2  0
 14  9  1  0
 15 14  1  0
 16 15  2  0
 16 17  1  0
 17 18  1  0
 19 20  1  0
 19  4  1  0
 21 19  1  0
 22 19  1  0
  1 23  1  1
  2 24  1  0
  3 25  1  0
  4 26  1  6
  5 27  1  0
  5 28  1  0
  6 29  1  0
  6 30  1  0
  7 31  1  0
 13 32  1  0
 13 33  1  0
 15 34  1  0
 16 35  1  0
 36 37  1  0
 37 38  1  0
 38 36  1  0
 36 39  1  0
 37 40  1  0
 37 41  1  0
 38 42  1  0
 38 43  1  0
 17 36  1  0
M  ISO  8  23  13  24  13  25  13  26  13  27  13  28  13  29  13  30  13
M  ISO  3  31  14  34  14  35  14
M  END
>  <DihAtoms>  (1) 
15,16,35,36

>  <DihDeg>  (1) 
154.14418430189082

$$$$
