
     RDKit          3D

 49 53  0  0  1  0  0  0  0  0999 V2000
   45.6670   33.5150   41.2550 N   0  0  0  0  0  0  0  0  0  0  0  0
   46.8730   33.4990   40.4330 C   0  0  0  0  0  0  0  0  0  0  0  0
   46.2550   33.5540   39.0560 C   0  0  0  0  0  0  0  0  0  0  0  0
   45.2200   32.4700   39.1690 C   0  0  0  0  0  0  0  0  0  0  0  0
   44.6950   32.6620   40.5550 C   0  0  2  0  0  0  0  0  0  0  0  0
   44.7890   36.1030   43.7690 C   0  0  0  0  0  0  0  0  0  0  0  0
   45.0110   35.5050   42.5140 C   0  0  0  0  0  0  0  0  0  0  0  0
   45.4260   34.1760   42.4560 C   0  0  0  0  0  0  0  0  0  0  0  0
   45.5900   33.5360   43.6510 N   0  0  0  0  0  0  0  0  0  0  0  0
   45.3780   34.1060   44.8460 C   0  0  0  0  0  0  0  0  0  0  0  0
   44.9760   35.3920   44.8980 N   0  0  0  0  0  0  0  0  0  0  0  0
   45.5680   33.3800   46.0560 N   0  0  0  0  0  0  0  0  0  0  0  0
   44.9570   33.7310   47.2220 C   0  0  0  0  0  0  0  0  0  0  0  0
   45.2680   32.9150   48.2550 N   0  0  0  0  0  0  0  0  0  0  0  0
   46.1170   31.9980   47.7210 C   0  0  0  0  0  0  0  0  0  0  0  0
   46.8070   30.8960   48.2020 C   0  0  0  0  0  0  0  0  0  0  0  0
   46.6800   30.5870   49.4180 O   0  0  0  0  0  0  0  0  0  0  0  0
   47.5900   30.1840   47.3700 N   0  0  0  0  0  0  0  0  0  0  0  0
   47.7480   30.4920   46.0510 C   0  0  0  0  0  0  0  0  0  0  0  0
   48.6040   29.6640   45.2700 N   0  0  0  0  0  0  0  0  0  0  0  0
   47.0790   31.5730   45.5560 N   0  0  0  0  0  0  0  0  0  0  0  0
   46.2920   32.2920   46.3810 C   0  0  0  0  0  0  0  0  0  0  0  0
   43.3520   33.0980   40.6670 N   0  0  0  0  0  0  0  0  0  0  0  0
   42.7520   34.0760   39.9920 C   0  0  0  0  0  0  0  0  0  0  0  0
   41.4210   34.4190   40.1840 C   0  0  0  0  0  0  0  0  0  0  0  0
   40.6650   33.7340   41.1080 C   0  0  0  0  0  0  0  0  0  0  0  0
   39.4320   34.0070   41.3270 O   0  0  0  0  0  0  0  0  0  0  0  0
   41.2740   32.7500   41.7860 N   0  0  0  0  0  0  0  0  0  0  0  0
   42.5480   32.4570   41.5680 C   0  0  0  0  0  0  0  0  0  0  0  0
   43.0280   31.5070   42.2650 O   0  0  0  0  0  0  0  0  0  0  0  0
   40.7840   35.5150   39.4140 C   0  0  0  0  0  0  0  0  0  0  0  0
   47.5116   34.3730   40.6287 H   0  0  0  0  0  0  0  0  0  0  0  0
   47.5399   32.6416   40.6068 H   0  0  0  0  0  0  0  0  0  0  0  0
   46.9928   33.3292   38.2717 H   0  0  0  0  0  0  0  0  0  0  0  0
   45.8542   34.5392   38.7754 H   0  0  0  0  0  0  0  0  0  0  0  0
   44.4240   32.6018   38.4213 H   0  0  0  0  0  0  0  0  0  0  0  0
   45.6217   31.4618   38.9896 H   0  0  0  0  0  0  0  0  0  0  0  0
   44.6118   31.6771   41.0378 H   0  0  0  0  0  0  0  0  0  0  0  0
   44.4625   37.1518   43.8279 H   0  0  0  0  0  0  0  0  0  0  0  0
   44.8585   36.0806   41.5891 H   0  0  0  0  0  0  0  0  0  0  0  0
   44.2786   34.5919   47.3142 H   0  0  0  0  0  0  0  0  0  0  0  0
   48.0933   29.3684   47.7474 H   0  0  0  0  0  0  0  0  0  0  0  0
   48.7460   29.8679   44.2704 H   0  0  0  0  0  0  0  0  0  0  0  0
   49.0810   28.8613   45.7047 H   0  0  0  0  0  0  0  0  0  0  0  0
   43.3373   34.6374   39.2488 H   0  0  0  0  0  0  0  0  0  0  0  0
   40.7433   32.2136   42.4871 H   0  0  0  0  0  0  0  0  0  0  0  0
   40.3560   36.2514   40.1100 H   0  0  0  0  0  0  0  0  0  0  0  0
   41.5383   36.0045   38.7805 H   0  0  0  0  0  0  0  0  0  0  0  0
   39.9853   35.1019   38.7805 H   0  0  0  0  0  0  0  0  0  0  0  0
  1  8  1  0
  2  1  1  0
  3  4  1  0
  3  2  1  0
  4  5  1  0
  5 23  1  0
  5  1  1  0
  6 11  2  0
  7  6  1  0
  8  7  2  0
  8  9  1  0
  9 10  2  0
 10 11  1  0
 10 12  1  0
 12 22  1  0
 12 13  1  0
 13 14  2  0
 15 16  1  0
 15 14  1  0
 16 17  2  0
 18 16  1  0
 19 18  1  0
 20 19  1  0
 21 19  2  0
 21 22  1  0
 22 15  2  0
 23 29  1  0
 24 25  2  0
 24 23  1  0
 25 26  1  0
 26 27  2  0
 26 28  1  0
 29 28  1  0
 29 30  2  0
 31 25  1  0
  2 32  1  0
  2 33  1  0
  3 34  1  0
  3 35  1  0
  4 36  1  0
  4 37  1  0
  5 38  1  1
  6 39  1  0
  7 40  1  0
 13 41  1  0
 18 42  1  0
 20 43  1  0
 20 44  1  0
 24 45  1  0
 28 46  1  0
 31 47  1  0
 31 48  1  0
 31 49  1  0
M  ISO  8  32  13  33  13  34  13  35  13  36  13  37  13  38  13  39  14
M  ISO  8  40  14  41  14  42   9  45  14  46   9  47   8  48   8  49   8
M  END
>  <minimizedAffinity>  (1) 
-6.96665478

>  <minimizedRMSD>  (1) 
1.1613096

$$$$
