
     RDKit          3D

 49 54  0  0  1  0  0  0  0  0999 V2000
   49.2190   35.3850   41.9780 C   0  0  0  0  0  0  0  0  0  0  0  0
   46.9510   34.4620   41.3540 C   0  0  0  0  0  0  0  0  0  0  0  0
   48.2500   34.7830   41.0230 C   0  0  0  0  0  0  0  0  0  0  0  0
   48.5040   34.4810   39.7540 N   0  0  0  0  0  0  0  0  0  0  0  0
   47.3630   33.9600   39.2510 C   0  0  0  0  0  0  0  0  0  0  0  0
   47.0910   33.4830   37.9640 C   0  0  0  0  0  0  0  0  0  0  0  0
   45.8410   33.0000   37.7070 C   0  0  0  0  0  0  0  0  0  0  0  0
   44.8120   32.9440   38.6250 C   0  0  0  0  0  0  0  0  0  0  0  0
   45.1410   33.4290   39.8760 C   0  0  0  0  0  0  0  0  0  0  0  0
   46.3720   33.9280   40.2090 C   0  0  0  0  0  0  0  0  0  0  0  0
   44.8080   35.8790   44.0550 C   0  0  0  0  0  0  0  0  0  0  0  0
   45.4510   35.7350   42.8120 C   0  0  0  0  0  0  0  0  0  0  0  0
   46.2750   34.6290   42.6330 C   0  0  0  0  0  0  0  0  0  0  0  0
   46.4300   33.7320   43.6590 N   0  0  0  0  0  0  0  0  0  0  0  0
   45.7820   33.9220   44.8410 C   0  0  0  0  0  0  0  0  0  0  0  0
   44.9740   34.9920   45.0370 N   0  0  0  0  0  0  0  0  0  0  0  0
   50.1540   34.3620   42.5290 C   0  0  0  0  0  0  0  0  0  0  0  0
   50.0570   33.0050   41.8850 C   0  0  1  0  0  0  0  0  0  0  0  0
   51.2030   32.2450   41.4110 C   0  0  0  0  0  0  0  0  0  0  0  0
   50.6480   31.8680   42.7410 C   0  0  2  0  0  0  0  0  0  0  0  0
   49.9690   30.6780   42.8140 O   0  0  0  0  0  0  0  0  0  0  0  0
   47.3460   29.3570   46.3750 N   0  0  0  0  0  0  0  0  0  0  0  0
   46.7570   30.3050   45.6070 C   0  0  0  0  0  0  0  0  0  0  0  0
   47.5590   30.6650   44.5740 N   0  0  0  0  0  0  0  0  0  0  0  0
   48.6800   29.9550   44.6570 C   0  0  0  0  0  0  0  0  0  0  0  0
   49.8490   29.8650   43.9250 C   0  0  0  0  0  0  0  0  0  0  0  0
   50.8490   29.0280   44.2570 N   0  0  0  0  0  0  0  0  0  0  0  0
   50.6860   28.2560   45.3480 C   0  0  0  0  0  0  0  0  0  0  0  0
   49.5610   28.2880   46.1210 N   0  0  0  0  0  0  0  0  0  0  0  0
   48.5520   29.1360   45.7810 C   0  0  0  0  0  0  0  0  0  0  0  0
   48.6631   35.8447   42.8084 H   0  0  0  0  0  0  0  0  0  0  0  0
   49.8119   36.1379   41.4380 H   0  0  0  0  0  0  0  0  0  0  0  0
   49.3938   34.6170   39.2533 H   0  0  0  0  0  0  0  0  0  0  0  0
   47.8635   33.4970   37.1811 H   0  0  0  0  0  0  0  0  0  0  0  0
   45.6383   32.6273   36.6921 H   0  0  0  0  0  0  0  0  0  0  0  0
   43.8154   32.5472   38.3815 H   0  0  0  0  0  0  0  0  0  0  0  0
   44.3642   33.4133   40.6547 H   0  0  0  0  0  0  0  0  0  0  0  0
   44.1513   36.7457   44.2212 H   0  0  0  0  0  0  0  0  0  0  0  0
   45.3069   36.4724   42.0086 H   0  0  0  0  0  0  0  0  0  0  0  0
   45.9170   33.1925   45.6531 H   0  0  0  0  0  0  0  0  0  0  0  0
   51.1817   34.7310   42.3960 H   0  0  0  0  0  0  0  0  0  0  0  0
   49.8749   34.2243   43.5841 H   0  0  0  0  0  0  0  0  0  0  0  0
   49.1163   33.2781   41.3846 H   0  0  0  0  0  0  0  0  0  0  0  0
   51.0826   31.5585   40.5600 H   0  0  0  0  0  0  0  0  0  0  0  0
   52.2068   32.5254   41.0592 H   0  0  0  0  0  0  0  0  0  0  0  0
   51.0217   31.7767   43.7716 H   0  0  0  0  0  0  0  0  0  0  0  0
   46.9669   28.9046   47.2191 H   0  0  0  0  0  0  0  0  0  0  0  0
   45.7591   30.7274   45.7963 H   0  0  0  0  0  0  0  0  0  0  0  0
   51.4966   27.5678   45.6295 H   0  0  0  0  0  0  0  0  0  0  0  0
  1 17  1  0
  2 13  1  0
  3  2  2  0
  3  1  1  0
  4  3  1  0
  5  4  1  0
  5 10  2  0
  6  5  1  0
  7  6  2  0
  7  8  1  0
  8  9  2  0
  9 10  1  0
 10  2  1  0
 11 16  2  0
 12 11  1  0
 13 12  2  0
 13 14  1  0
 14 15  2  0
 15 16  1  0
 18 17  1  0
 18 20  1  0
 19 18  1  0
 19 20  1  0
 20 21  1  0
 21 26  1  0
 23 22  1  0
 24 25  1  0
 24 23  2  0
 25 30  2  0
 26 27  2  0
 26 25  1  0
 27 28  1  0
 28 29  2  0
 30 29  1  0
 30 22  1  0
  1 31  1  0
  1 32  1  0
  4 33  1  0
  6 34  1  0
  7 35  1  0
  8 36  1  0
  9 37  1  0
 11 38  1  0
 12 39  1  0
 15 40  1  0
 17 41  1  0
 17 42  1  0
 18 43  1  6
 19 44  1  0
 19 45  1  0
 20 46  1  1
 22 47  1  0
 23 48  1  0
 28 49  1  0
M  ISO  8  31   8  32   8  33   9  34  14  35  14  36  14  37  14  38  14
M  ISO  8  39  14  40  14  41   8  42   8  43  13  44  13  45  13  46  13
M  ISO  3  47   9  48  14  49  14
M  END
>  <minimizedAffinity>  (1) 
-5.90230083

>  <minimizedRMSD>  (1) 
2.80153465

$$$$
