
     RDKit          3D

 53 58  0  0  0  0  0  0  0  0999 V2000
   47.8790   30.8710   48.1690 C   0  0  0  0  0  0  0  0  0  0  0  0
   48.8510   31.3440   49.0090 C   0  0  0  0  0  0  0  0  0  0  0  0
   49.8330   30.5220   49.4940 C   0  0  0  0  0  0  0  0  0  0  0  0
   49.8240   29.1860   49.1120 C   0  0  0  0  0  0  0  0  0  0  0  0
   48.8550   28.7220   48.2760 C   0  0  0  0  0  0  0  0  0  0  0  0
   47.8770   29.5520   47.7960 C   0  0  0  0  0  0  0  0  0  0  0  0
   44.4940   36.0160   44.5200 C   0  0  0  0  0  0  0  0  0  0  0  0
   45.1710   35.8640   43.3230 C   0  0  0  0  0  0  0  0  0  0  0  0
   46.0860   34.8160   43.1790 C   0  0  0  0  0  0  0  0  0  0  0  0
   46.2790   33.9840   44.2200 N   0  0  0  0  0  0  0  0  0  0  0  0
   45.5980   34.1580   45.3870 C   0  0  0  0  0  0  0  0  0  0  0  0
   44.7040   35.1610   45.5640 N   0  0  0  0  0  0  0  0  0  0  0  0
   45.7940   33.2820   46.4980 N   0  0  0  0  0  0  0  0  0  0  0  0
   46.9290   32.5670   46.5290 C   0  0  0  0  0  0  0  0  0  0  0  0
   46.8730   31.8060   47.6980 C   0  0  0  0  0  0  0  0  0  0  0  0
   45.7210   32.0790   48.3280 N   0  0  0  0  0  0  0  0  0  0  0  0
   45.0610   32.9680   47.6160 C   0  0  0  0  0  0  0  0  0  0  0  0
   46.8690   29.0570   46.9220 N   0  0  0  0  0  0  0  0  0  0  0  0
   48.8510   27.3130   47.8760 C   0  0  0  0  0  0  0  0  0  0  0  0
   47.8620   26.5660   48.0720 O   0  0  0  0  0  0  0  0  0  0  0  0
   50.0600   26.7330   47.2110 C   0  0  0  0  0  0  0  0  0  0  0  0
   50.8140   25.7210   47.9040 C   0  0  0  0  0  0  0  0  0  0  0  0
   52.1430   25.3540   46.7150 S   0  0  0  0  0  0  0  0  0  0  0  0
   51.4750   26.6270   45.4640 C   0  0  0  0  0  0  0  0  0  0  0  0
   50.5290   27.0430   46.0460 N   0  0  0  0  0  0  0  0  0  0  0  0
   52.0640   26.8920   44.2100 N   0  0  0  0  0  0  0  0  0  0  0  0
   50.6080   25.1500   49.1550 N   0  0  0  0  0  0  0  0  0  0  0  0
   51.2120   25.6690   50.2620 C   0  0  0  0  0  0  0  0  0  0  0  0
   50.8990   24.9890   51.3850 N   0  0  0  0  0  0  0  0  0  0  0  0
   50.0710   24.0060   50.9910 C   0  0  0  0  0  0  0  0  0  0  0  0
   49.3930   22.9770   51.6050 C   0  0  0  0  0  0  0  0  0  0  0  0
   49.5180   22.8360   52.8560 O   0  0  0  0  0  0  0  0  0  0  0  0
   48.6250   22.1550   50.8790 N   0  0  0  0  0  0  0  0  0  0  0  0
   48.4650   22.2690   49.5480 C   0  0  0  0  0  0  0  0  0  0  0  0
   47.6100   21.2990   48.9620 N   0  0  0  0  0  0  0  0  0  0  0  0
   49.1190   23.2760   48.8990 N   0  0  0  0  0  0  0  0  0  0  0  0
   49.8950   24.1100   49.6270 C   0  0  0  0  0  0  0  0  0  0  0  0
   48.8430   32.4048   49.3000 H   0  0  0  0  0  0  0  0  0  0  0  0
   50.6098   30.9098   50.1694 H   0  0  0  0  0  0  0  0  0  0  0  0
   50.6008   28.5026   49.4856 H   0  0  0  0  0  0  0  0  0  0  0  0
   43.7740   36.8399   44.6327 H   0  0  0  0  0  0  0  0  0  0  0  0
   44.9912   36.5615   42.4916 H   0  0  0  0  0  0  0  0  0  0  0  0
   46.6355   34.6747   42.2366 H   0  0  0  0  0  0  0  0  0  0  0  0
   47.7389   32.5782   45.7847 H   0  0  0  0  0  0  0  0  0  0  0  0
   44.0794   33.3916   47.8751 H   0  0  0  0  0  0  0  0  0  0  0  0
   46.8703   28.0653   46.6436 H   0  0  0  0  0  0  0  0  0  0  0  0
   46.1381   29.6904   46.5678 H   0  0  0  0  0  0  0  0  0  0  0  0
   52.9114   26.3827   43.9211 H   0  0  0  0  0  0  0  0  0  0  0  0
   51.6467   27.5948   43.5832 H   0  0  0  0  0  0  0  0  0  0  0  0
   51.8792   26.5434   50.2419 H   0  0  0  0  0  0  0  0  0  0  0  0
   48.1299   21.3942   51.3658 H   0  0  0  0  0  0  0  0  0  0  0  0
   47.4329   21.3143   47.9474 H   0  0  0  0  0  0  0  0  0  0  0  0
   47.1667   20.5800   49.5514 H   0  0  0  0  0  0  0  0  0  0  0  0
  1  2  2  0
  2  3  1  0
  4  3  2  0
  5  4  1  0
  6  1  1  0
  6  5  2  0
  7 12  2  0
  8  7  1  0
  9  8  2  0
  9 10  1  0
 10 11  2  0
 11 12  1  0
 11 13  1  0
 13 14  1  0
 13 17  1  0
 14 15  2  0
 15  1  1  0
 15 16  1  0
 17 16  2  0
 18  6  1  0
 19 20  2  0
 19  5  1  0
 21 19  1  0
 21 22  2  0
 22 27  1  0
 23 22  1  0
 24 25  2  0
 24 23  1  0
 25 21  1  0
 26 24  1  0
 27 37  1  0
 27 28  1  0
 28 29  2  0
 30 29  1  0
 30 31  1  0
 31 32  2  0
 33 31  1  0
 34 33  1  0
 35 34  1  0
 36 34  2  0
 36 37  1  0
 37 30  2  0
  2 38  1  0
  3 39  1  0
  4 40  1  0
  7 41  1  0
  8 42  1  0
  9 43  1  0
 14 44  1  0
 17 45  1  0
 18 46  1  0
 18 47  1  0
 26 48  1  0
 26 49  1  0
 28 50  1  0
 33 51  1  0
 35 52  1  0
 35 53  1  0
M  END
>  <minimizedAffinity>  (1) 
-7.28569412

>  <minimizedRMSD>  (1) 
2.66358447

$$$$
