
     RDKit          3D

 52 55  0  0  0  0  0  0  0  0999 V2000
   46.1628   33.5986   45.2790 C   0  0  2  0  0  0  0  0  0  0  0  0
   44.9150   34.6592   45.4962 C   0  0  0  0  0  0  0  0  0  0  0  0
   44.6802   35.5949   44.4311 C   0  0  0  0  0  0  0  0  0  0  0  0
   45.5049   35.5492   43.2193 C   0  0  1  0  0  0  0  0  0  0  0  0
   46.5856   34.5705   43.1809 C   0  0  0  0  0  0  0  0  0  0  0  0
   46.1552   33.3229   43.9151 C   0  0  0  0  0  0  0  0  0  0  0  0
   45.4044   32.8860   47.5302 C   0  0  0  0  0  0  0  0  0  0  0  0
   45.9209   32.6370   46.3007 C   0  0  0  0  0  0  0  0  0  0  0  0
   46.1514   31.2845   46.0284 C   0  0  0  0  0  0  0  0  0  0  0  0
   45.8871   30.2822   46.9044 N   0  0  0  0  0  0  0  0  0  0  0  0
   45.3592   30.5888   48.1497 C   0  0  0  0  0  0  0  0  0  0  0  0
   45.1334   31.8683   48.4290 N   0  0  0  0  0  0  0  0  0  0  0  0
   45.0827   29.5686   49.0912 N   0  0  0  0  0  0  0  0  0  0  0  0
   46.7504   30.5976   44.8975 C   0  0  0  0  0  0  0  0  0  0  0  0
   46.3672   29.9208   43.7853 C   0  0  0  0  0  0  0  0  0  0  0  0
   47.5140   29.4698   43.1264 C   0  0  0  0  0  0  0  0  0  0  0  0
   48.5402   29.8927   43.8664 N   0  0  0  0  0  0  0  0  0  0  0  0
   48.1136   30.5586   44.9134 N   0  0  0  0  0  0  0  0  0  0  0  0
   44.5151   35.2657   42.0493 C   0  0  0  0  0  0  0  0  0  0  0  0
   43.4624   34.4512   42.4238 F   0  0  0  0  0  0  0  0  0  0  0  0
   43.9573   36.4940   41.7045 F   0  0  0  0  0  0  0  0  0  0  0  0
   45.2149   34.8139   40.9463 F   0  0  0  0  0  0  0  0  0  0  0  0
   46.9084   34.3708   45.6400 H   0  0  0  0  0  0  0  0  0  0  0  0
   44.2201   34.7787   46.3176 H   0  0  0  0  0  0  0  0  0  0  0  0
   43.8883   36.2948   44.5351 H   0  0  0  0  0  0  0  0  0  0  0  0
   45.9132   36.5649   43.0364 H   0  0  0  0  0  0  0  0  0  0  0  0
   47.5085   34.9428   43.6826 H   0  0  0  0  0  0  0  0  0  0  0  0
   46.8385   34.3703   42.0987 H   0  0  0  0  0  0  0  0  0  0  0  0
   47.0194   32.6901   43.5826 H   0  0  0  0  0  0  0  0  0  0  0  0
   45.1959   32.9386   43.5078 H   0  0  0  0  0  0  0  0  0  0  0  0
   45.1928   33.8967   47.8434 H   0  0  0  0  0  0  0  0  0  0  0  0
   44.2661   28.9181   48.9333 H   0  0  0  0  0  0  0  0  0  0  0  0
   45.7545   29.5599   49.8973 H   0  0  0  0  0  0  0  0  0  0  0  0
   45.3095   29.8417   43.5962 H   0  0  0  0  0  0  0  0  0  0  0  0
   47.4402   28.9022   42.2087 H   0  0  0  0  0  0  0  0  0  0  0  0
   49.9406   29.6205   43.5098 C   0  0  0  0  0  0  0  0  0  0  0  0
   50.7841   30.1559   44.6003 C   0  0  0  0  0  0  0  0  0  0  0  0
   51.9232   29.3213   45.0629 C   0  0  0  0  0  0  0  0  0  0  0  0
   51.5174   27.8456   45.1406 C   0  0  0  0  0  0  0  0  0  0  0  0
   51.2907   27.4772   43.6815 C   0  0  0  0  0  0  0  0  0  0  0  0
   50.0904   28.1907   43.1793 C   0  0  0  0  0  0  0  0  0  0  0  0
   50.0881   30.2195   42.5629 H   0  0  0  0  0  0  0  0  0  0  0  0
   51.2084   31.1512   44.2834 H   0  0  0  0  0  0  0  0  0  0  0  0
   50.1876   30.4255   45.5179 H   0  0  0  0  0  0  0  0  0  0  0  0
   52.8060   29.3548   44.3914 H   0  0  0  0  0  0  0  0  0  0  0  0
   52.2428   29.6712   46.0634 H   0  0  0  0  0  0  0  0  0  0  0  0
   52.3838   27.2836   45.5034 H   0  0  0  0  0  0  0  0  0  0  0  0
   50.6456   27.6750   45.7807 H   0  0  0  0  0  0  0  0  0  0  0  0
   52.2242   27.6323   43.1441 H   0  0  0  0  0  0  0  0  0  0  0  0
   51.0783   26.3791   43.6701 H   0  0  0  0  0  0  0  0  0  0  0  0
   50.0393   28.0207   42.0666 H   0  0  0  0  0  0  0  0  0  0  0  0
   49.1965   27.6158   43.5556 H   0  0  0  0  0  0  0  0  0  0  0  0
  1  2  1  0
  1  8  1  0
  3  2  2  0
  4  3  1  0
  5  4  1  0
  5  6  1  0
  6  1  1  0
  7 12  2  0
  8  7  1  0
  9  8  2  0
  9 10  1  0
 10 11  2  0
 11 12  1  0
 11 13  1  0
 14 18  2  0
 14  9  1  0
 15 14  1  0
 16 15  2  0
 16 17  1  0
 17 18  1  0
 19 20  1  0
 19  4  1  0
 21 19  1  0
 22 19  1  0
  1 23  1  1
  2 24  1  0
  3 25  1  0
  4 26  1  6
  5 27  1  0
  5 28  1  0
  6 29  1  0
  6 30  1  0
  7 31  1  0
 13 32  1  0
 13 33  1  0
 15 34  1  0
 16 35  1  0
 36 37  1  0
 37 38  1  0
 38 39  1  0
 39 40  1  0
 40 41  1  0
 41 36  1  0
 36 42  1  0
 37 43  1  0
 37 44  1  0
 38 45  1  0
 38 46  1  0
 39 47  1  0
 39 48  1  0
 40 49  1  0
 40 50  1  0
 41 51  1  0
 41 52  1  0
 17 36  1  0
M  ISO  8  23  13  24  13  25  13  26  13  27  13  28  13  29  13  30  13
M  ISO  3  31  14  34  14  35  14
M  END
>  <DihAtoms>  (1) 
15,16,35,36

>  <DihDeg>  (1) 
48.860082251044865

$$$$
