
     RDKit          3D

 44 48  0  0  1  0  0  0  0  0999 V2000
   47.0410   34.5490   41.2760 C   0  0  0  0  0  0  0  0  0  0  0  0
   48.3200   35.0080   40.9720 C   0  0  0  0  0  0  0  0  0  0  0  0
   48.6100   34.7350   39.7040 N   0  0  0  0  0  0  0  0  0  0  0  0
   47.5420   34.1080   39.1880 C   0  0  0  0  0  0  0  0  0  0  0  0
   47.3210   33.6070   37.9010 C   0  0  0  0  0  0  0  0  0  0  0  0
   46.1210   32.9990   37.6250 C   0  0  0  0  0  0  0  0  0  0  0  0
   45.0970   32.8390   38.5280 C   0  0  0  0  0  0  0  0  0  0  0  0
   45.3760   33.3560   39.7840 C   0  0  0  0  0  0  0  0  0  0  0  0
   46.5390   33.9720   40.1360 C   0  0  0  0  0  0  0  0  0  0  0  0
   44.8090   35.8070   43.9990 C   0  0  0  0  0  0  0  0  0  0  0  0
   45.4710   35.7320   42.7520 C   0  0  0  0  0  0  0  0  0  0  0  0
   46.3410   34.6510   42.5650 C   0  0  0  0  0  0  0  0  0  0  0  0
   46.5230   33.7220   43.5640 N   0  0  0  0  0  0  0  0  0  0  0  0
   45.8520   33.8610   44.7360 C   0  0  0  0  0  0  0  0  0  0  0  0
   45.0050   34.8820   44.9670 N   0  0  0  0  0  0  0  0  0  0  0  0
   49.1950   35.6970   41.9490 C   0  0  0  0  0  0  0  0  0  0  0  0
   50.0230   34.7220   42.7250 C   0  0  0  0  0  0  0  0  0  0  0  0
   50.4820   33.5170   41.9490 C   0  0  1  0  0  0  0  0  0  0  0  0
   51.0100   32.3270   42.5850 C   0  0  0  0  0  0  0  0  0  0  0  0
   49.5870   32.2750   42.1490 C   0  0  2  0  0  0  0  0  0  0  0  0
   49.2560   31.5180   40.9720 N   0  0  0  0  0  0  0  0  0  0  0  0
   49.9420   31.5080   39.8420 N   0  0  0  0  0  0  0  0  0  0  0  0
   49.3720   30.6950   38.9270 C   0  0  0  0  0  0  0  0  0  0  0  0
   48.2510   30.1620   39.5300 C   0  0  0  0  0  0  0  0  0  0  0  0
   48.2010   30.6990   40.8210 C   0  0  0  0  0  0  0  0  0  0  0  0
   49.4862   34.9613   39.2121 H   0  0  0  0  0  0  0  0  0  0  0  0
   48.0943   33.6983   37.1240 H   0  0  0  0  0  0  0  0  0  0  0  0
   45.9680   32.6117   36.6069 H   0  0  0  0  0  0  0  0  0  0  0  0
   44.1455   32.3470   38.2777 H   0  0  0  0  0  0  0  0  0  0  0  0
   44.5981   33.2614   40.5559 H   0  0  0  0  0  0  0  0  0  0  0  0
   44.1157   36.6400   44.1874 H   0  0  0  0  0  0  0  0  0  0  0  0
   45.3104   36.4859   41.9672 H   0  0  0  0  0  0  0  0  0  0  0  0
   46.0060   33.1116   45.5264 H   0  0  0  0  0  0  0  0  0  0  0  0
   49.8635   36.3833   41.4086 H   0  0  0  0  0  0  0  0  0  0  0  0
   48.5571   36.2480   42.6557 H   0  0  0  0  0  0  0  0  0  0  0  0
   50.9147   35.2498   43.0943 H   0  0  0  0  0  0  0  0  0  0  0  0
   49.3760   34.3413   43.5290 H   0  0  0  0  0  0  0  0  0  0  0  0
   50.8744   34.1393   41.1313 H   0  0  0  0  0  0  0  0  0  0  0  0
   51.7596   31.7193   42.0569 H   0  0  0  0  0  0  0  0  0  0  0  0
   51.5155   32.1418   43.5443 H   0  0  0  0  0  0  0  0  0  0  0  0
   48.6258   32.0445   42.6316 H   0  0  0  0  0  0  0  0  0  0  0  0
   49.7295   30.4972   37.9057 H   0  0  0  0  0  0  0  0  0  0  0  0
   47.5371   29.4542   39.0835 H   0  0  0  0  0  0  0  0  0  0  0  0
   47.4328   30.4879   41.5795 H   0  0  0  0  0  0  0  0  0  0  0  0
  1 12  1  0
  2  1  2  0
  2 16  1  0
  3  2  1  0
  4  3  1  0
  4  9  2  0
  5  4  1  0
  6  5  2  0
  6  7  1  0
  7  8  2  0
  8  9  1  0
  9  1  1  0
 10 15  2  0
 11 10  1  0
 12 11  2  0
 12 13  1  0
 13 14  2  0
 14 15  1  0
 16 17  1  0
 18 20  1  0
 18 19  1  0
 18 17  1  0
 20 19  1  0
 21 20  1  0
 22 21  1  0
 23 24  1  0
 23 22  2  0
 24 25  2  0
 25 21  1  0
  3 26  1  0
  5 27  1  0
  6 28  1  0
  7 29  1  0
  8 30  1  0
 10 31  1  0
 11 32  1  0
 14 33  1  0
 16 34  1  0
 16 35  1  0
 17 36  1  0
 17 37  1  0
 18 38  1  6
 19 39  1  0
 19 40  1  0
 20 41  1  1
 23 42  1  0
 24 43  1  0
 25 44  1  0
M  ISO  8  26   9  27  14  28  14  29  14  30  14  31  14  32  14  33  14
M  ISO  8  34   8  35   8  36   8  37   8  38  13  39  13  40  13  41  13
M  ISO  3  42  14  43  14  44  14
M  END
>  <minimizedAffinity>  (1) 
-5.78420496

>  <minimizedRMSD>  (1) 
0.674299121

$$$$
