
     RDKit          3D

 32 34  0  0  1  0  0  0  0  0999 V2000
   45.9370   30.4590   45.0360 N   0  0  0  0  0  0  0  0  0  0  0  0
   46.1800   29.0240   44.9360 C   0  0  0  0  0  0  0  0  0  0  0  0
   47.6760   28.9600   45.1760 C   0  0  0  0  0  0  0  0  0  0  0  0
   47.9250   29.9270   46.2820 C   0  0  0  0  0  0  0  0  0  0  0  0
   46.7940   30.9650   46.0130 C   0  0  2  0  0  0  0  0  0  0  0  0
   46.1940   31.0690   47.3700 N   0  0  0  0  0  0  0  0  0  0  0  0
   45.4650   30.1840   48.0070 N   0  0  0  0  0  0  0  0  0  0  0  0
   45.1020   30.6380   49.2190 C   0  0  0  0  0  0  0  0  0  0  0  0
   45.6450   31.9020   49.3540 C   0  0  0  0  0  0  0  0  0  0  0  0
   46.3260   32.1450   48.1740 C   0  0  0  0  0  0  0  0  0  0  0  0
   47.2220   32.2360   45.7310 O   0  0  0  0  0  0  0  0  0  0  0  0
   47.0920   32.8400   44.4310 C   0  0  0  0  0  0  0  0  0  0  0  0
   47.6870   32.3350   43.4600 O   0  0  0  0  0  0  0  0  0  0  0  0
   44.6040   35.3840   45.2250 C   0  0  0  0  0  0  0  0  0  0  0  0
   44.5730   36.1920   44.0870 C   0  0  0  0  0  0  0  0  0  0  0  0
   45.4370   35.8660   43.0410 C   0  0  0  0  0  0  0  0  0  0  0  0
   46.2560   34.7820   43.1930 N   0  0  0  0  0  0  0  0  0  0  0  0
   46.2360   34.0290   44.3400 C   0  0  0  0  0  0  0  0  0  0  0  0
   45.4290   34.3250   45.3330 N   0  0  0  0  0  0  0  0  0  0  0  0
   44.9577   30.6315   45.3044 H   0  0  0  0  0  0  0  0  0  0  0  0
   45.6244   28.4667   45.7046 H   0  0  0  0  0  0  0  0  0  0  0  0
   45.8563   28.5770   43.9845 H   0  0  0  0  0  0  0  0  0  0  0  0
   47.9778   27.9449   45.4734 H   0  0  0  0  0  0  0  0  0  0  0  0
   48.2527   29.2052   44.2720 H   0  0  0  0  0  0  0  0  0  0  0  0
   47.8146   29.4528   47.2684 H   0  0  0  0  0  0  0  0  0  0  0  0
   48.9402   30.3502   46.3005 H   0  0  0  0  0  0  0  0  0  0  0  0
   44.4897   30.1054   49.9616 H   0  0  0  0  0  0  0  0  0  0  0  0
   45.5546   32.5749   50.2195 H   0  0  0  0  0  0  0  0  0  0  0  0
   46.8823   33.0625   47.9317 H   0  0  0  0  0  0  0  0  0  0  0  0
   43.9312   35.6205   46.0625 H   0  0  0  0  0  0  0  0  0  0  0  0
   43.8927   37.0536   44.0175 H   0  0  0  0  0  0  0  0  0  0  0  0
   45.4586   36.4652   42.1188 H   0  0  0  0  0  0  0  0  0  0  0  0
  1  5  1  0
  2  1  1  0
  2  3  1  0
  3  4  1  0
  5 11  1  6
  5  4  1  0
  5  6  1  0
  6  7  1  0
  6 10  1  0
  7  8  2  0
  8  9  1  0
 10  9  2  0
 12 11  1  0
 13 12  2  0
 14 19  2  0
 15 14  1  0
 16 17  1  0
 16 15  2  0
 17 18  2  0
 18 12  1  0
 18 19  1  0
  1 20  1  0
  2 21  1  0
  2 22  1  0
  3 23  1  0
  3 24  1  0
  4 25  1  0
  4 26  1  0
  8 27  1  0
  9 28  1  0
 10 29  1  0
 14 30  1  0
 15 31  1  0
 16 32  1  0
M  ISO  8  20   5  21  13  22  13  23  13  24  13  25  13  26  13  27  14
M  ISO  5  28  14  29  14  30  14  31  14  32  14
M  END
>  <minimizedAffinity>  (1) 
-4.6134491

>  <minimizedRMSD>  (1) 
2.94902802

$$$$
