
     RDKit          3D

 31 33  0  0  0  0  0  0  0  0999 V2000
   46.9580   34.8190   42.0710 C   0  0  0  0  0  0  0  0  0  0  0  0
   48.2620   35.2470   41.9010 C   0  0  0  0  0  0  0  0  0  0  0  0
   48.5340   34.9220   40.5610 C   0  0  0  0  0  0  0  0  0  0  0  0
   47.4130   34.3350   40.0130 C   0  0  0  0  0  0  0  0  0  0  0  0
   46.5100   34.3070   40.9760 O   0  0  0  0  0  0  0  0  0  0  0  0
   44.4600   35.9410   44.5840 C   0  0  0  0  0  0  0  0  0  0  0  0
   45.2090   35.8970   43.3830 C   0  0  0  0  0  0  0  0  0  0  0  0
   46.1590   34.9090   43.2850 C   0  0  0  0  0  0  0  0  0  0  0  0
   46.3590   34.0150   44.3100 N   0  0  0  0  0  0  0  0  0  0  0  0
   45.6030   34.1070   45.4500 C   0  0  0  0  0  0  0  0  0  0  0  0
   44.6630   35.0630   45.5790 N   0  0  0  0  0  0  0  0  0  0  0  0
   45.8300   33.1680   46.4960 N   0  0  0  0  0  0  0  0  0  0  0  0
   45.1420   33.0550   47.6110 N   0  0  0  0  0  0  0  0  0  0  0  0
   45.6250   32.0650   48.3820 C   0  0  0  0  0  0  0  0  0  0  0  0
   46.7030   31.5300   47.6680 C   0  0  0  0  0  0  0  0  0  0  0  0
   46.8040   32.2400   46.5000 C   0  0  0  0  0  0  0  0  0  0  0  0
   47.2690   33.8630   38.6910 N   0  0  0  0  0  0  0  0  0  0  0  0
   48.2980   33.9670   37.7290 C   0  0  0  0  0  0  0  0  0  0  0  0
   49.0470   35.0480   37.7760 N   0  0  0  0  0  0  0  0  0  0  0  0
   48.4570   32.8970   36.7770 N   0  0  0  0  0  0  0  0  0  0  0  0
   49.8340   35.0630   37.0910 H   0  0  0  0  0  0  0  0  0  0  0  0
   48.9255   35.7257   42.6363 H   0  0  0  0  0  0  0  0  0  0  0  0
   49.4834   35.1054   40.0365 H   0  0  0  0  0  0  0  0  0  0  0  0
   43.6897   36.7169   44.7051 H   0  0  0  0  0  0  0  0  0  0  0  0
   45.0389   36.6175   42.5694 H   0  0  0  0  0  0  0  0  0  0  0  0
   45.2518   31.7437   49.3656 H   0  0  0  0  0  0  0  0  0  0  0  0
   47.3477   30.6968   47.9844 H   0  0  0  0  0  0  0  0  0  0  0  0
   47.5491   32.0796   45.7068 H   0  0  0  0  0  0  0  0  0  0  0  0
   46.3780   33.4252   38.4166 H   0  0  0  0  0  0  0  0  0  0  0  0
   47.8271   32.0826   36.8076 H   0  0  0  0  0  0  0  0  0  0  0  0
   49.2005   32.9466   36.0659 H   0  0  0  0  0  0  0  0  0  0  0  0
  1  8  1  0
  2  1  2  0
  3  2  1  0
  4  3  2  0
  4  5  1  0
  5  1  1  0
  6 11  2  0
  7  6  1  0
  8  7  2  0
  8  9  1  0
  9 10  2  0
 10 11  1  0
 10 12  1  0
 12 16  1  0
 12 13  1  0
 13 14  2  0
 15 14  1  0
 16 15  2  0
 17  4  1  0
 18 19  2  0
 18 17  1  0
 20 18  1  0
 21 19  1  0
  2 22  1  0
  3 23  1  0
  6 24  1  0
  7 25  1  0
 14 26  1  0
 15 27  1  0
 16 28  1  0
 17 29  1  0
 20 30  1  0
 20 31  1  0
M  END
>  <minimizedAffinity>  (1) 
-7.1154108

>  <minimizedRMSD>  (1) 
0.104461856

$$$$
