
     RDKit          3D

 42 45  0  0  1  0  0  0  0  0999 V2000
   38.5840   33.2890   38.7040 N   0  0  0  0  0  0  0  0  0  0  0  0
   38.3900   34.0530   39.9090 C   0  0  0  0  0  0  0  0  0  0  0  0
   39.4440   33.7130   40.9560 C   0  0  0  0  0  0  0  0  0  0  0  0
   40.7930   34.0350   40.3680 C   0  0  1  0  0  0  0  0  0  0  0  0
   40.7430   34.4490   38.9230 C   0  0  0  0  0  0  0  0  0  0  0  0
   39.8860   33.4970   38.1120 C   0  0  1  0  0  0  0  0  0  0  0  0
   40.5230   32.2500   37.8230 N   0  0  0  0  0  0  0  0  0  0  0  0
   41.8060   31.9450   37.6560 N   0  0  0  0  0  0  0  0  0  0  0  0
   41.9330   30.6230   37.3960 C   0  0  0  0  0  0  0  0  0  0  0  0
   40.6370   30.0950   37.4080 C   0  0  0  0  0  0  0  0  0  0  0  0
   39.7770   31.1360   37.6770 C   0  0  0  0  0  0  0  0  0  0  0  0
   41.5580   35.2990   41.3780 S   0  0  0  0  0  0  0  0  0  0  0  0
   44.0180   35.4980   42.6530 C   0  0  0  0  0  0  0  0  0  0  0  0
   43.3280   35.0240   41.5390 C   0  0  0  0  0  0  0  0  0  0  0  0
   44.0360   34.3520   40.5870 C   0  0  0  0  0  0  0  0  0  0  0  0
   45.3760   34.1470   40.7190 N   0  0  0  0  0  0  0  0  0  0  0  0
   46.0210   34.6230   41.8200 C   0  0  0  0  0  0  0  0  0  0  0  0
   45.3480   35.2940   42.7820 N   0  0  0  0  0  0  0  0  0  0  0  0
   47.4490   34.4490   42.0390 C   0  0  0  0  0  0  0  0  0  0  0  0
   48.3030   35.4990   41.9470 C   0  0  0  0  0  0  0  0  0  0  0  0
   49.6750   35.3610   42.1520 C   0  0  0  0  0  0  0  0  0  0  0  0
   50.2020   34.1340   42.4570 C   0  0  0  0  0  0  0  0  0  0  0  0
   49.3110   33.0780   42.5470 C   0  0  0  0  0  0  0  0  0  0  0  0
   48.0000   33.2640   42.3400 N   0  0  0  0  0  0  0  0  0  0  0  0
   38.4804   32.2890   38.9282 H   0  0  0  0  0  0  0  0  0  0  0  0
   38.4563   35.1244   39.6686 H   0  0  0  0  0  0  0  0  0  0  0  0
   37.3999   33.8070   40.3204 H   0  0  0  0  0  0  0  0  0  0  0  0
   39.2779   34.3123   41.8633 H   0  0  0  0  0  0  0  0  0  0  0  0
   39.3866   32.6491   41.2296 H   0  0  0  0  0  0  0  0  0  0  0  0
   41.3944   33.1140   40.3753 H   0  0  0  0  0  0  0  0  0  0  0  0
   40.3191   35.4617   38.8539 H   0  0  0  0  0  0  0  0  0  0  0  0
   41.7657   34.4296   38.5183 H   0  0  0  0  0  0  0  0  0  0  0  0
   39.7429   34.0023   37.1455 H   0  0  0  0  0  0  0  0  0  0  0  0
   42.8679   30.0734   37.2120 H   0  0  0  0  0  0  0  0  0  0  0  0
   40.3578   29.0452   37.2350 H   0  0  0  0  0  0  0  0  0  0  0  0
   38.6819   31.0710   37.7580 H   0  0  0  0  0  0  0  0  0  0  0  0
   43.4737   36.0449   43.4370 H   0  0  0  0  0  0  0  0  0  0  0  0
   43.5158   33.9687   39.6968 H   0  0  0  0  0  0  0  0  0  0  0  0
   47.8994   36.4926   41.7024 H   0  0  0  0  0  0  0  0  0  0  0  0
   50.3344   36.2375   42.0688 H   0  0  0  0  0  0  0  0  0  0  0  0
   51.2805   33.9944   42.6224 H   0  0  0  0  0  0  0  0  0  0  0  0
   49.6843   32.0726   42.7917 H   0  0  0  0  0  0  0  0  0  0  0  0
  1  2  1  0
  2  3  1  0
  4  3  1  0
  4 12  1  0
  5  4  1  0
  6  1  1  0
  6  5  1  0
  7  6  1  0
  8  7  1  0
  9 10  1  0
  9  8  2  0
 10 11  2  0
 11  7  1  0
 12 14  1  0
 13 18  2  0
 14 13  1  0
 15 16  1  0
 15 14  2  0
 16 17  2  0
 17 19  1  0
 17 18  1  0
 19 24  1  0
 20 19  2  0
 20 21  1  0
 21 22  2  0
 22 23  1  0
 24 23  2  0
  1 25  1  0
  2 26  1  0
  2 27  1  0
  3 28  1  0
  3 29  1  0
  4 30  1  6
  5 31  1  0
  5 32  1  0
  6 33  1  6
  9 34  1  0
 10 35  1  0
 11 36  1  0
 13 37  1  0
 15 38  1  0
 20 39  1  0
 21 40  1  0
 22 41  1  0
 23 42  1  0
M  ISO  8  25   5  26  13  27  13  28  13  29  13  30  13  31  13  32  13
M  ISO  8  33  13  34  14  35  14  36  14  37  14  38  14  39  14  40  14
M  ISO  2  41  14  42  14
M  END
>  <minimizedAffinity>  (1) 
-5.87325573

>  <minimizedRMSD>  (1) 
1.00150454

$$$$
