
     RDKit          3D

 31 34  0  0  0  0  0  0  0  0999 V2000
   45.1650   33.8530   41.4040 C   0  0  0  0  0  0  0  0  0  0  0  0
   45.8460   34.4970   42.4330 C   0  0  0  0  0  0  0  0  0  0  0  0
   47.0700   34.8370   42.0160 N   0  0  0  0  0  0  0  0  0  0  0  0
   47.1860   34.4210   40.7360 C   0  0  0  0  0  0  0  0  0  0  0  0
   48.2560   34.5350   39.8620 C   0  0  0  0  0  0  0  0  0  0  0  0
   48.1110   34.0200   38.6010 C   0  0  0  0  0  0  0  0  0  0  0  0
   46.9630   33.3860   38.1190 C   0  0  0  0  0  0  0  0  0  0  0  0
   45.9390   33.3090   39.0450 C   0  0  0  0  0  0  0  0  0  0  0  0
   46.0100   33.8000   40.3210 C   0  0  0  0  0  0  0  0  0  0  0  0
   41.4520   33.6330   41.0780 C   0  0  0  0  0  0  0  0  0  0  0  0
   42.7580   34.1580   41.0250 C   0  0  0  0  0  0  0  0  0  0  0  0
   43.8130   33.3270   41.4530 C   0  0  0  0  0  0  0  0  0  0  0  0
   43.5170   32.0680   41.8930 N   0  0  0  0  0  0  0  0  0  0  0  0
   42.2410   31.6110   41.9240 C   0  0  0  0  0  0  0  0  0  0  0  0
   41.2080   32.3740   41.5230 N   0  0  0  0  0  0  0  0  0  0  0  0
   45.3720   34.7810   43.7450 N   0  0  0  0  0  0  0  0  0  0  0  0
   45.5170   33.9850   44.7920 N   0  0  0  0  0  0  0  0  0  0  0  0
   44.9640   34.5230   45.8930 C   0  0  0  0  0  0  0  0  0  0  0  0
   44.4430   35.7500   45.4700 C   0  0  0  0  0  0  0  0  0  0  0  0
   44.7100   35.8880   44.1230 C   0  0  0  0  0  0  0  0  0  0  0  0
   47.7900   35.3250   42.5677 H   0  0  0  0  0  0  0  0  0  0  0  0
   49.1918   35.0235   40.1713 H   0  0  0  0  0  0  0  0  0  0  0  0
   48.9652   34.1128   37.9141 H   0  0  0  0  0  0  0  0  0  0  0  0
   46.8814   32.9854   37.0978 H   0  0  0  0  0  0  0  0  0  0  0  0
   45.0036   32.8199   38.7353 H   0  0  0  0  0  0  0  0  0  0  0  0
   40.6087   34.2589   40.7506 H   0  0  0  0  0  0  0  0  0  0  0  0
   42.9476   35.1792   40.6628 H   0  0  0  0  0  0  0  0  0  0  0  0
   42.0454   30.5909   42.2861 H   0  0  0  0  0  0  0  0  0  0  0  0
   44.9290   34.0925   46.9047 H   0  0  0  0  0  0  0  0  0  0  0  0
   43.9127   36.4784   46.1011 H   0  0  0  0  0  0  0  0  0  0  0  0
   44.4344   36.7390   43.4828 H   0  0  0  0  0  0  0  0  0  0  0  0
  1 12  1  0
  1  2  2  0
  2 16  1  0
  3  2  1  0
  4  3  1  0
  5  4  2  0
  6  5  1  0
  7  6  2  0
  7  8  1  0
  8  9  2  0
  9  4  1  0
  9  1  1  0
 10 15  2  0
 11 10  1  0
 11 12  2  0
 12 13  1  0
 13 14  2  0
 15 14  1  0
 16 20  1  0
 16 17  1  0
 17 18  2  0
 19 18  1  0
 20 19  2  0
  3 21  1  0
  5 22  1  0
  6 23  1  0
  7 24  1  0
  8 25  1  0
 10 26  1  0
 11 27  1  0
 14 28  1  0
 18 29  1  0
 19 30  1  0
 20 31  1  0
M  ISO  8  21   9  22  14  23  14  24  14  25  14  26  14  27  14  28  14
M  ISO  3  29  14  30  14  31  14
M  END
>  <minimizedAffinity>  (1) 
-5.34682989

>  <minimizedRMSD>  (1) 
3.9071188

$$$$
