
     RDKit          3D

 45 49  0  0  1  0  0  0  0  0999 V2000
   46.9060   34.5270   41.3360 C   0  0  0  0  0  0  0  0  0  0  0  0
   48.1800   34.9340   40.9670 C   0  0  0  0  0  0  0  0  0  0  0  0
   48.4310   34.6130   39.7110 N   0  0  0  0  0  0  0  0  0  0  0  0
   47.3370   33.9950   39.2400 C   0  0  0  0  0  0  0  0  0  0  0  0
   47.0710   33.4580   37.9820 C   0  0  0  0  0  0  0  0  0  0  0  0
   45.8570   32.8750   37.7590 C   0  0  0  0  0  0  0  0  0  0  0  0
   44.8600   32.7730   38.6880 C   0  0  0  0  0  0  0  0  0  0  0  0
   45.1660   33.3180   39.9180 C   0  0  0  0  0  0  0  0  0  0  0  0
   46.3570   33.9190   40.2200 C   0  0  0  0  0  0  0  0  0  0  0  0
   44.7680   35.9180   44.0610 C   0  0  0  0  0  0  0  0  0  0  0  0
   45.4040   35.7880   42.8000 C   0  0  0  0  0  0  0  0  0  0  0  0
   46.2380   34.6840   42.6250 C   0  0  0  0  0  0  0  0  0  0  0  0
   46.4120   33.7830   43.6480 N   0  0  0  0  0  0  0  0  0  0  0  0
   45.7710   33.9650   44.8360 C   0  0  0  0  0  0  0  0  0  0  0  0
   44.9540   35.0230   45.0460 N   0  0  0  0  0  0  0  0  0  0  0  0
   49.1110   35.6400   41.9030 C   0  0  0  0  0  0  0  0  0  0  0  0
   50.0050   34.6880   42.6260 C   0  0  0  0  0  0  0  0  0  0  0  0
   50.1990   33.3770   41.9290 C   0  0  1  0  0  0  0  0  0  0  0  0
   51.0400   32.2950   42.4330 C   0  0  0  0  0  0  0  0  0  0  0  0
   49.5740   32.1800   42.6640 C   0  0  2  0  0  0  0  0  0  0  0  0
   48.9140   31.2070   41.9440 O   0  0  0  0  0  0  0  0  0  0  0  0
   47.6840   30.7230   42.3640 C   0  0  0  0  0  0  0  0  0  0  0  0
   47.2530   30.3300   43.6130 C   0  0  0  0  0  0  0  0  0  0  0  0
   45.9290   29.9130   43.5510 C   0  0  0  0  0  0  0  0  0  0  0  0
   45.5800   30.0620   42.2620 N   0  0  0  0  0  0  0  0  0  0  0  0
   46.5910   30.5300   41.5700 N   0  0  0  0  0  0  0  0  0  0  0  0
   49.3005   34.8011   39.1919 H   0  0  0  0  0  0  0  0  0  0  0  0
   47.8257   33.5031   37.1830 H   0  0  0  0  0  0  0  0  0  0  0  0
   45.6676   32.4571   36.7593 H   0  0  0  0  0  0  0  0  0  0  0  0
   43.8927   32.2955   38.4728 H   0  0  0  0  0  0  0  0  0  0  0  0
   44.4020   33.2658   40.7076 H   0  0  0  0  0  0  0  0  0  0  0  0
   44.1032   36.7763   44.2379 H   0  0  0  0  0  0  0  0  0  0  0  0
   45.2468   36.5236   41.9974 H   0  0  0  0  0  0  0  0  0  0  0  0
   45.9212   33.2342   45.6443 H   0  0  0  0  0  0  0  0  0  0  0  0
   49.7315   36.3408   41.3253 H   0  0  0  0  0  0  0  0  0  0  0  0
   48.5033   36.1703   42.6510 H   0  0  0  0  0  0  0  0  0  0  0  0
   50.9896   35.1635   42.7465 H   0  0  0  0  0  0  0  0  0  0  0  0
   49.5181   34.4656   43.5870 H   0  0  0  0  0  0  0  0  0  0  0  0
   50.1686   33.8686   40.9454 H   0  0  0  0  0  0  0  0  0  0  0  0
   51.5316   31.6146   41.7221 H   0  0  0  0  0  0  0  0  0  0  0  0
   51.9192   32.2593   43.0931 H   0  0  0  0  0  0  0  0  0  0  0  0
   48.8957   32.0685   43.5228 H   0  0  0  0  0  0  0  0  0  0  0  0
   47.8674   30.3444   44.5253 H   0  0  0  0  0  0  0  0  0  0  0  0
   45.3035   29.5421   44.3764 H   0  0  0  0  0  0  0  0  0  0  0  0
   44.6522   29.8406   41.8734 H   0  0  0  0  0  0  0  0  0  0  0  0
  1 12  1  0
  2  1  2  0
  2 16  1  0
  3  2  1  0
  4  3  1  0
  4  9  2  0
  5  4  1  0
  6  5  2  0
  6  7  1  0
  7  8  2  0
  8  9  1  0
  9  1  1  0
 10 15  2  0
 11 10  1  0
 12 11  2  0
 12 13  1  0
 13 14  2  0
 14 15  1  0
 16 17  1  0
 18 19  1  0
 18 17  1  0
 18 20  1  0
 19 20  1  0
 21 22  1  0
 21 20  1  0
 22 23  1  0
 24 23  2  0
 25 24  1  0
 26 25  1  0
 26 22  2  0
  3 27  1  0
  5 28  1  0
  6 29  1  0
  7 30  1  0
  8 31  1  0
 10 32  1  0
 11 33  1  0
 14 34  1  0
 16 35  1  0
 16 36  1  0
 17 37  1  0
 17 38  1  0
 18 39  1  6
 19 40  1  0
 19 41  1  0
 20 42  1  1
 23 43  1  0
 24 44  1  0
 25 45  1  0
M  ISO  8  27   9  28  14  29  14  30  14  31  14  32  14  33  14  34  14
M  ISO  8  35   8  36   8  37   8  38   8  39  13  40  13  41  13  42  13
M  ISO  3  43  14  44  14  45   9
M  END
>  <minimizedAffinity>  (1) 
-5.50274086

>  <minimizedRMSD>  (1) 
0.406247139

$$$$
