
     RDKit          3D

 23 25  0  0  0  0  0  0  0  0999 V2000
   46.0550   32.9040   45.9440 C   0  0  0  0  0  0  0  0  0  0  0  0
   45.7220   32.6370   47.2550 C   0  0  0  0  0  0  0  0  0  0  0  0
   46.1930   31.5070   47.8400 C   0  0  0  0  0  0  0  0  0  0  0  0
   46.9930   30.6940   47.0450 C   0  0  0  0  0  0  0  0  0  0  0  0
   47.0710   31.5380   45.4720 S   0  0  0  0  0  0  0  0  0  0  0  0
   44.4740   36.0060   44.7700 C   0  0  0  0  0  0  0  0  0  0  0  0
   45.0310   36.1210   43.4650 C   0  0  0  0  0  0  0  0  0  0  0  0
   45.9340   35.1220   43.0330 C   0  0  0  0  0  0  0  0  0  0  0  0
   46.2240   34.1020   43.8930 N   0  0  0  0  0  0  0  0  0  0  0  0
   45.6720   34.0340   45.1200 C   0  0  0  0  0  0  0  0  0  0  0  0
   44.8070   34.9700   45.5620 N   0  0  0  0  0  0  0  0  0  0  0  0
   47.6240   29.4360   47.4160 N   0  0  0  0  0  0  0  0  0  0  0  0
   47.1160   28.2050   47.2220 C   0  0  0  0  0  0  0  0  0  0  0  0
   48.0260   27.3550   47.7140 N   0  0  0  0  0  0  0  0  0  0  0  0
   49.0880   28.0180   48.2090 C   0  0  0  0  0  0  0  0  0  0  0  0
   48.7990   29.3380   48.0040 N   0  0  0  0  0  0  0  0  0  0  0  0
   45.0825   33.3314   47.8196 H   0  0  0  0  0  0  0  0  0  0  0  0
   45.9557   31.2491   48.8827 H   0  0  0  0  0  0  0  0  0  0  0  0
   43.7680   36.7675   45.1328 H   0  0  0  0  0  0  0  0  0  0  0  0
   44.7661   36.9643   42.8102 H   0  0  0  0  0  0  0  0  0  0  0  0
   46.3897   35.1655   42.0328 H   0  0  0  0  0  0  0  0  0  0  0  0
   46.1528   27.9500   46.7559 H   0  0  0  0  0  0  0  0  0  0  0  0
   49.9886   27.5918   48.6751 H   0  0  0  0  0  0  0  0  0  0  0  0
  1  2  2  0
  2  3  1  0
  4 12  1  0
  4  3  2  0
  5  1  1  0
  5  4  1  0
  6 11  2  0
  7  6  1  0
  8  7  2  0
  8  9  1  0
  9 10  2  0
 10 11  1  0
 10  1  1  0
 12 16  1  0
 13 12  1  0
 13 14  2  0
 14 15  1  0
 16 15  2  0
  2 17  1  0
  3 18  1  0
  6 19  1  0
  7 20  1  0
  8 21  1  0
 13 22  1  0
 15 23  1  0
M  ISO  7  17  14  18  14  19  14  20  14  21  14  22  14  23  14
M  END
>  <minimizedAffinity>  (1) 
-4.36413002

>  <minimizedRMSD>  (1) 
1.50467229

$$$$
