
     RDKit          3D

 41 44  0  0  1  0  0  0  0  0999 V2000
   46.9270   34.5100   41.3320 C   0  0  0  0  0  0  0  0  0  0  0  0
   48.1950   34.9320   40.9580 C   0  0  0  0  0  0  0  0  0  0  0  0
   48.4600   34.6360   39.7010 N   0  0  0  0  0  0  0  0  0  0  0  0
   47.3580   34.0070   39.2230 C   0  0  0  0  0  0  0  0  0  0  0  0
   47.1170   33.4860   37.9450 C   0  0  0  0  0  0  0  0  0  0  0  0
   45.9050   32.8970   37.7270 C   0  0  0  0  0  0  0  0  0  0  0  0
   44.8960   32.7660   38.6570 C   0  0  0  0  0  0  0  0  0  0  0  0
   45.1940   33.2940   39.8860 C   0  0  0  0  0  0  0  0  0  0  0  0
   46.3760   33.9060   40.2050 C   0  0  0  0  0  0  0  0  0  0  0  0
   44.7730   35.8610   44.0490 C   0  0  0  0  0  0  0  0  0  0  0  0
   45.4080   35.7450   42.7930 C   0  0  0  0  0  0  0  0  0  0  0  0
   46.2640   34.6460   42.6190 C   0  0  0  0  0  0  0  0  0  0  0  0
   46.4500   33.7510   43.6360 N   0  0  0  0  0  0  0  0  0  0  0  0
   45.8090   33.9210   44.8180 C   0  0  0  0  0  0  0  0  0  0  0  0
   44.9770   34.9610   45.0340 N   0  0  0  0  0  0  0  0  0  0  0  0
   49.1260   35.6340   41.8820 C   0  0  0  0  0  0  0  0  0  0  0  0
   49.9780   34.6780   42.6420 C   0  0  0  0  0  0  0  0  0  0  0  0
   50.2780   33.3880   41.9190 C   0  0  1  0  0  0  0  0  0  0  0  0
   51.0360   32.2830   42.5060 C   0  0  0  0  0  0  0  0  0  0  0  0
   49.5500   32.1750   42.5180 C   0  0  2  0  0  0  0  0  0  0  0  0
   49.0110   31.2510   41.6680 O   0  0  0  0  0  0  0  0  0  0  0  0
   47.9320   30.4370   41.9370 C   0  0  0  0  0  0  0  0  0  0  0  0
   46.7370   30.8220   41.9000 O   0  0  0  0  0  0  0  0  0  0  0  0
   47.6950   29.0870   42.3020 O   0  0  0  0  0  0  0  0  0  0  0  0
   49.3283   34.8410   39.1863 H   0  0  0  0  0  0  0  0  0  0  0  0
   47.8739   33.5490   37.1493 H   0  0  0  0  0  0  0  0  0  0  0  0
   45.7172   32.4917   36.7218 H   0  0  0  0  0  0  0  0  0  0  0  0
   43.9352   32.2799   38.4322 H   0  0  0  0  0  0  0  0  0  0  0  0
   44.4284   33.2207   40.6725 H   0  0  0  0  0  0  0  0  0  0  0  0
   44.0940   36.7074   44.2294 H   0  0  0  0  0  0  0  0  0  0  0  0
   45.2403   36.4791   41.9911 H   0  0  0  0  0  0  0  0  0  0  0  0
   45.9717   33.1904   45.6241 H   0  0  0  0  0  0  0  0  0  0  0  0
   49.7752   36.3001   41.2948 H   0  0  0  0  0  0  0  0  0  0  0  0
   48.5241   36.2042   42.6050 H   0  0  0  0  0  0  0  0  0  0  0  0
   50.9333   35.1747   42.8671 H   0  0  0  0  0  0  0  0  0  0  0  0
   49.4096   34.4040   43.5430 H   0  0  0  0  0  0  0  0  0  0  0  0
   50.3949   33.9101   40.9579 H   0  0  0  0  0  0  0  0  0  0  0  0
   51.6227   31.6204   41.8528 H   0  0  0  0  0  0  0  0  0  0  0  0
   51.8106   32.2195   43.2845 H   0  0  0  0  0  0  0  0  0  0  0  0
   48.7577   32.0383   43.2687 H   0  0  0  0  0  0  0  0  0  0  0  0
   46.7681   28.7654   42.4344 H   0  0  0  0  0  0  0  0  0  0  0  0
  1 12  1  0
  2  1  2  0
  2 16  1  0
  3  2  1  0
  4  3  1  0
  4  9  2  0
  5  4  1  0
  6  5  2  0
  6  7  1  0
  7  8  2  0
  8  9  1  0
  9  1  1  0
 10 15  2  0
 11 10  1  0
 12 11  2  0
 12 13  1  0
 13 14  2  0
 14 15  1  0
 16 17  1  0
 18 19  1  0
 18 20  1  0
 18 17  1  0
 19 20  1  0
 21 22  1  0
 21 20  1  0
 22 24  1  0
 23 22  2  0
  3 25  1  0
  5 26  1  0
  6 27  1  0
  7 28  1  0
  8 29  1  0
 10 30  1  0
 11 31  1  0
 14 32  1  0
 16 33  1  0
 16 34  1  0
 17 35  1  0
 17 36  1  0
 18 37  1  6
 19 38  1  0
 19 39  1  0
 20 40  1  1
 24 41  1  0
M  ISO  8  25   9  26  14  27  14  28  14  29  14  30  14  31  14  32  14
M  ISO  8  33   8  34   8  35   8  36   8  37  13  38  13  39  13  40  13
M  ISO  1  41   3
M  END
>  <minimizedAffinity>  (1) 
-5.39273596

>  <minimizedRMSD>  (1) 
0.0304621961

$$$$
