
     RDKit          3D

 30 32  0  0  0  0  0  0  0  0999 V2000
   44.4230   35.7820   44.3980 C   0  0  0  0  0  0  0  0  0  0  0  0
   44.9570   35.0570   43.3170 C   0  0  0  0  0  0  0  0  0  0  0  0
   45.6350   33.8840   43.6200 C   0  0  0  0  0  0  0  0  0  0  0  0
   45.7420   33.5080   44.9340 N   0  0  0  0  0  0  0  0  0  0  0  0
   45.2150   34.2330   45.9260 C   0  0  0  0  0  0  0  0  0  0  0  0
   44.5630   35.3560   45.6720 N   0  0  0  0  0  0  0  0  0  0  0  0
   44.8110   35.5100   41.9220 C   0  0  0  0  0  0  0  0  0  0  0  0
   43.4770   35.0660   41.3560 C   0  0  0  0  0  0  0  0  0  0  0  0
   43.4220   34.1760   40.3240 C   0  0  0  0  0  0  0  0  0  0  0  0
   41.6250   33.9840   40.0330 S   0  0  0  0  0  0  0  0  0  0  0  0
   41.2650   35.2170   41.4470 C   0  0  0  0  0  0  0  0  0  0  0  0
   42.3170   35.4740   41.7840 N   0  0  0  0  0  0  0  0  0  0  0  0
   46.3590   32.8740   42.3410 S   0  0  0  0  0  0  0  0  0  0  0  0
   48.1230   33.1550   42.3620 C   0  0  0  0  0  0  0  0  0  0  0  0
   49.1080   32.1830   42.2450 C   0  0  0  0  0  0  0  0  0  0  0  0
   50.4370   32.5550   42.2780 C   0  0  0  0  0  0  0  0  0  0  0  0
   50.7650   33.8860   42.4280 C   0  0  0  0  0  0  0  0  0  0  0  0
   49.8170   34.8940   42.5480 C   0  0  0  0  0  0  0  0  0  0  0  0
   48.4800   34.4880   42.5110 C   0  0  0  0  0  0  0  0  0  0  0  0
   43.8789   36.7175   44.2010 H   0  0  0  0  0  0  0  0  0  0  0  0
   45.3248   33.8918   46.9660 H   0  0  0  0  0  0  0  0  0  0  0  0
   44.8703   36.6079   41.8900 H   0  0  0  0  0  0  0  0  0  0  0  0
   45.6179   35.0686   41.3186 H   0  0  0  0  0  0  0  0  0  0  0  0
   44.2555   33.6911   39.7948 H   0  0  0  0  0  0  0  0  0  0  0  0
   40.2997   35.5793   41.8302 H   0  0  0  0  0  0  0  0  0  0  0  0
   48.8314   31.1249   42.1270 H   0  0  0  0  0  0  0  0  0  0  0  0
   51.2278   31.7960   42.1854 H   0  0  0  0  0  0  0  0  0  0  0  0
   51.8293   34.1629   42.4539 H   0  0  0  0  0  0  0  0  0  0  0  0
   50.1017   35.9500   42.6653 H   0  0  0  0  0  0  0  0  0  0  0  0
   47.6884   35.2463   42.6025 H   0  0  0  0  0  0  0  0  0  0  0  0
  1  6  2  0
  2  3  2  0
  2  1  1  0
  3  4  1  0
  4  5  2  0
  6  5  1  0
  7  2  1  0
  8 12  1  0
  8  7  1  0
  9  8  2  0
 10  9  1  0
 10 11  1  0
 11 12  2  0
 13 14  1  0
 13  3  1  0
 14 19  2  0
 15 16  2  0
 15 14  1  0
 16 17  1  0
 17 18  2  0
 19 18  1  0
  1 20  1  0
  5 21  1  0
  7 22  1  0
  7 23  1  0
  9 24  1  0
 11 25  1  0
 15 26  1  0
 16 27  1  0
 17 28  1  0
 18 29  1  0
 19 30  1  0
M  ISO  8  20  14  21  14  22   8  23   8  24  14  25  14  26  14  27  14
M  ISO  3  28  14  29  14  30  14
M  END
>  <minimizedAffinity>  (1) 
-5.27771235

>  <minimizedRMSD>  (1) 
0.945200861

$$$$
