
     RDKit          3D

 43 47  0  0  0  0  0  0  0  0999 V2000
   45.6760   34.5880   43.6910 C   0  0  0  0  0  0  0  0  0  0  0  0
   46.9050   34.1870   43.2510 C   0  0  0  0  0  0  0  0  0  0  0  0
   47.5500   33.2240   44.0320 C   0  0  0  0  0  0  0  0  0  0  0  0
   46.9410   32.7520   45.1500 N   0  0  0  0  0  0  0  0  0  0  0  0
   45.7320   33.1920   45.5210 C   0  0  0  0  0  0  0  0  0  0  0  0
   45.1030   34.1190   44.7790 N   0  0  0  0  0  0  0  0  0  0  0  0
   47.5740   34.6250   42.0780 N   0  0  0  0  0  0  0  0  0  0  0  0
   48.4550   35.5940   41.8640 C   0  0  0  0  0  0  0  0  0  0  0  0
   48.8100   35.6040   40.5540 N   0  0  0  0  0  0  0  0  0  0  0  0
   48.1430   34.6220   39.9170 C   0  0  0  0  0  0  0  0  0  0  0  0
   48.1040   34.1740   38.6170 C   0  0  0  0  0  0  0  0  0  0  0  0
   47.2900   33.1300   38.2990 N   0  0  0  0  0  0  0  0  0  0  0  0
   46.5130   32.5110   39.2260 C   0  0  0  0  0  0  0  0  0  0  0  0
   46.5750   32.9710   40.4890 N   0  0  0  0  0  0  0  0  0  0  0  0
   47.3400   33.9800   40.8790 C   0  0  0  0  0  0  0  0  0  0  0  0
   48.8800   34.7750   37.6250 N   0  0  0  0  0  0  0  0  0  0  0  0
   44.9950   35.4960   42.8300 C   0  0  0  0  0  0  0  0  0  0  0  0
   45.0200   36.7310   42.8000 O   0  0  0  0  0  0  0  0  0  0  0  0
   44.1380   35.1020   41.8230 O   0  0  0  0  0  0  0  0  0  0  0  0
   43.3730   33.9460   41.7820 C   0  0  0  0  0  0  0  0  0  0  0  0
   42.5400   34.3330   40.5460 C   0  0  0  0  0  0  0  0  0  0  0  0
   43.0940   35.0550   39.5310 N   0  0  0  0  0  0  0  0  0  0  0  0
   42.4050   35.5180   38.4960 C   0  0  0  0  0  0  0  0  0  0  0  0
   41.0840   35.2880   38.3950 N   0  0  0  0  0  0  0  0  0  0  0  0
   40.4580   34.5720   39.3670 C   0  0  0  0  0  0  0  0  0  0  0  0
   39.0900   34.2560   39.2740 C   0  0  0  0  0  0  0  0  0  0  0  0
   38.4450   33.4710   40.2280 C   0  0  0  0  0  0  0  0  0  0  0  0
   39.2330   33.0270   41.2670 C   0  0  0  0  0  0  0  0  0  0  0  0
   40.5760   33.3460   41.3480 C   0  0  0  0  0  0  0  0  0  0  0  0
   41.2220   34.1190   40.4150 C   0  0  0  0  0  0  0  0  0  0  0  0
   48.5437   32.8512   43.7431 H   0  0  0  0  0  0  0  0  0  0  0  0
   45.2554   32.7960   46.4299 H   0  0  0  0  0  0  0  0  0  0  0  0
   48.8387   36.2833   42.6306 H   0  0  0  0  0  0  0  0  0  0  0  0
   45.8600   31.6683   38.9551 H   0  0  0  0  0  0  0  0  0  0  0  0
   48.8382   34.4264   36.6567 H   0  0  0  0  0  0  0  0  0  0  0  0
   49.4945   35.5672   37.8611 H   0  0  0  0  0  0  0  0  0  0  0  0
   43.9794   33.0431   41.6177 H   0  0  0  0  0  0  0  0  0  0  0  0
   42.8171   33.6848   42.6946 H   0  0  0  0  0  0  0  0  0  0  0  0
   42.9191   36.0953   37.7134 H   0  0  0  0  0  0  0  0  0  0  0  0
   38.5113   34.6407   38.4213 H   0  0  0  0  0  0  0  0  0  0  0  0
   37.3760   33.2221   40.1560 H   0  0  0  0  0  0  0  0  0  0  0  0
   38.7822   32.4026   42.0525 H   0  0  0  0  0  0  0  0  0  0  0  0
   41.1548   32.9620   42.2010 H   0  0  0  0  0  0  0  0  0  0  0  0
  1  6  2  0
  2  1  1  0
  2  3  2  0
  3  4  1  0
  4  5  2  0
  6  5  1  0
  7  2  1  0
  8  7  1  0
  9  8  2  0
 10  9  1  0
 10 15  2  0
 11 10  1  0
 12 11  2  0
 12 13  1  0
 13 14  2  0
 14 15  1  0
 15  7  1  0
 16 11  1  0
 17  1  1  0
 18 17  2  0
 19 17  1  0
 20 19  1  0
 21 20  1  0
 22 21  2  0
 23 22  1  0
 24 23  2  0
 24 25  1  0
 25 30  2  0
 26 25  1  0
 26 27  2  0
 27 28  1  0
 28 29  2  0
 30 21  1  0
 30 29  1  0
  3 31  1  0
  5 32  1  0
  8 33  1  0
 13 34  1  0
 16 35  1  0
 16 36  1  0
 20 37  1  0
 20 38  1  0
 23 39  1  0
 26 40  1  0
 27 41  1  0
 28 42  1  0
 29 43  1  0
M  END
>  <minimizedAffinity>  (1) 
-7.17192411

>  <minimizedRMSD>  (1) 
2.08656478

$$$$
