
     RDKit          3D

 26 27  0  0  1  0  0  0  0  0999 V2000
   45.0110   30.8000   46.7750 N   0  0  0  0  0  0  0  0  0  0  0  0
   44.9790   29.3490   46.8880 C   0  0  0  0  0  0  0  0  0  0  0  0
   46.4360   29.0060   47.0520 C   0  0  0  0  0  0  0  0  0  0  0  0
   47.0100   30.0980   47.8870 C   0  0  0  0  0  0  0  0  0  0  0  0
   46.0940   31.2780   47.4970 C   0  0  2  0  0  0  0  0  0  0  0  0
   45.6850   31.9260   49.1870 S   0  0  0  0  0  0  0  0  0  0  0  0
   46.6970   32.3530   46.8960 O   0  0  0  0  0  0  0  0  0  0  0  0
   46.7110   32.5570   45.4740 C   0  0  0  0  0  0  0  0  0  0  0  0
   47.2540   31.7080   44.7470 O   0  0  0  0  0  0  0  0  0  0  0  0
   44.5550   35.4870   45.2640 C   0  0  0  0  0  0  0  0  0  0  0  0
   44.8040   36.0000   43.9790 C   0  0  0  0  0  0  0  0  0  0  0  0
   45.7380   35.3290   43.1920 C   0  0  0  0  0  0  0  0  0  0  0  0
   46.3520   34.2110   43.7220 N   0  0  0  0  0  0  0  0  0  0  0  0
   46.0580   33.7730   44.9800 C   0  0  0  0  0  0  0  0  0  0  0  0
   45.1730   34.4030   45.7340 N   0  0  0  0  0  0  0  0  0  0  0  0
   45.1083   31.0686   45.7854 H   0  0  0  0  0  0  0  0  0  0  0  0
   44.3941   29.0307   47.7636 H   0  0  0  0  0  0  0  0  0  0  0  0
   44.5039   28.8514   46.0297 H   0  0  0  0  0  0  0  0  0  0  0  0
   46.5480   28.0357   47.5580 H   0  0  0  0  0  0  0  0  0  0  0  0
   46.9474   28.9222   46.0817 H   0  0  0  0  0  0  0  0  0  0  0  0
   46.9370   29.8672   48.9600 H   0  0  0  0  0  0  0  0  0  0  0  0
   48.0818   30.2811   47.7205 H   0  0  0  0  0  0  0  0  0  0  0  0
   46.2122   31.0907   50.1363 H   0  0  0  0  0  0  0  0  0  0  0  0
   43.8229   35.9991   45.9057 H   0  0  0  0  0  0  0  0  0  0  0  0
   44.2824   36.8953   43.6096 H   0  0  0  0  0  0  0  0  0  0  0  0
   45.9794   35.6797   42.1777 H   0  0  0  0  0  0  0  0  0  0  0  0
  1  2  1  0
  1  5  1  0
  2  3  1  0
  3  4  1  0
  5  7  1  6
  5  4  1  0
  5  6  1  0
  8  7  1  0
  9  8  2  0
 10 15  2  0
 11 10  1  0
 12 13  1  0
 12 11  2  0
 13 14  2  0
 14  8  1  0
 14 15  1  0
  1 16  1  0
  2 17  1  0
  2 18  1  0
  3 19  1  0
  3 20  1  0
  4 21  1  0
  4 22  1  0
  6 23  1  0
 10 24  1  0
 11 25  1  0
 12 26  1  0
M  ISO  8  16   5  17  13  18  13  19  13  20  13  21  13  22  13  23  11
M  ISO  3  24  14  25  14  26  14
M  END
>  <minimizedAffinity>  (1) 
-4.3562336

>  <minimizedRMSD>  (1) 
1.51195943

$$$$
