
     RDKit          3D

 36 37  0  0  0  0  0  0  0  0999 V2000
   44.7640   35.4430   45.0800 C   0  0  0  0  0  0  0  0  0  0  0  0
   45.4410   34.8250   44.0510 C   0  0  0  0  0  0  0  0  0  0  0  0
   45.9820   33.5840   44.3010 C   0  0  0  0  0  0  0  0  0  0  0  0
   45.8200   33.0340   45.5450 N   0  0  0  0  0  0  0  0  0  0  0  0
   45.1620   33.6480   46.5230 C   0  0  0  0  0  0  0  0  0  0  0  0
   44.6490   34.8390   46.2690 N   0  0  0  0  0  0  0  0  0  0  0  0
   45.5930   35.4430   42.7330 C   0  0  0  0  0  0  0  0  0  0  0  0
   44.8930   36.6580   42.7650 F   0  0  0  0  0  0  0  0  0  0  0  0
   44.9390   34.7100   41.7480 F   0  0  0  0  0  0  0  0  0  0  0  0
   46.8780   35.6630   42.3700 F   0  0  0  0  0  0  0  0  0  0  0  0
   46.7190   32.7550   43.3990 C   0  0  0  0  0  0  0  0  0  0  0  0
   46.2620   31.7480   42.8020 O   0  0  0  0  0  0  0  0  0  0  0  0
   47.9570   32.6410   42.8570 O   0  0  0  0  0  0  0  0  0  0  0  0
   48.4460   32.8070   41.6040 C   0  0  0  0  0  0  0  0  0  0  0  0
   49.6000   33.8170   41.7260 C   0  0  0  0  0  0  0  0  0  0  0  0
   50.7630   33.0660   42.3340 C   0  0  0  0  0  0  0  0  0  0  0  0
   51.3800   32.1470   41.3070 C   0  0  0  0  0  0  0  0  0  0  0  0
   50.3470   31.8620   40.2430 C   0  0  0  0  0  0  0  0  0  0  0  0
   49.0410   31.5670   40.9650 C   0  0  0  0  0  0  0  0  0  0  0  0
   44.9710   33.1410   47.7920 O   0  0  0  0  0  0  0  0  0  0  0  0
   45.7910   32.1570   48.3610 C   0  0  0  0  0  0  0  0  0  0  0  0
   47.1100   32.5450   48.3550 F   0  0  0  0  0  0  0  0  0  0  0  0
   45.6030   30.9180   47.8130 F   0  0  0  0  0  0  0  0  0  0  0  0
   45.4590   32.1110   49.7280 F   0  0  0  0  0  0  0  0  0  0  0  0
   44.3167   36.4357   44.9238 H   0  0  0  0  0  0  0  0  0  0  0  0
   47.5991   33.1143   40.9729 H   0  0  0  0  0  0  0  0  0  0  0  0
   49.8740   34.2032   40.7331 H   0  0  0  0  0  0  0  0  0  0  0  0
   49.3124   34.6775   42.3480 H   0  0  0  0  0  0  0  0  0  0  0  0
   51.5198   33.7854   42.6801 H   0  0  0  0  0  0  0  0  0  0  0  0
   50.4010   32.4669   43.1825 H   0  0  0  0  0  0  0  0  0  0  0  0
   52.2570   32.6319   40.8534 H   0  0  0  0  0  0  0  0  0  0  0  0
   51.7019   31.2091   41.7830 H   0  0  0  0  0  0  0  0  0  0  0  0
   50.6522   30.9925   39.6423 H   0  0  0  0  0  0  0  0  0  0  0  0
   50.2362   32.7183   39.5615 H   0  0  0  0  0  0  0  0  0  0  0  0
   48.3197   31.1612   40.2404 H   0  0  0  0  0  0  0  0  0  0  0  0
   49.2543   30.8439   41.7661 H   0  0  0  0  0  0  0  0  0  0  0  0
  1  6  2  0
  2  3  2  0
  2  1  1  0
  3  4  1  0
  4  5  2  0
  5 20  1  0
  6  5  1  0
  7  8  1  0
  7  2  1  0
  9  7  1  0
 10  7  1  0
 11  3  1  0
 12 11  2  0
 13 11  1  0
 14 15  1  0
 14 13  1  0
 15 16  1  0
 17 16  1  0
 18 19  1  0
 18 17  1  0
 19 14  1  0
 20 21  1  0
 21 24  1  0
 22 21  1  0
 23 21  1  0
  1 25  1  0
 14 26  1  0
 15 27  1  0
 15 28  1  0
 16 29  1  0
 16 30  1  0
 17 31  1  0
 17 32  1  0
 18 33  1  0
 18 34  1  0
 19 35  1  0
 19 36  1  0
M  ISO  8  25  14  26  13  27  13  28  13  29  13  30  13  31  13  32  13
M  ISO  4  33  13  34  13  35  13  36  13
M  END
>  <minimizedAffinity>  (1) 
-5.62700844

>  <minimizedRMSD>  (1) 
1.35367835

$$$$
