
     RDKit          3D

 27 28  0  0  0  0  0  0  0  0999 V2000
   48.0200   34.7950   42.2590 C   0  0  0  0  0  0  0  0  0  0  0  0
   47.3650   34.5450   41.0420 C   0  0  0  0  0  0  0  0  0  0  0  0
   46.1570   33.8540   41.0980 C   0  0  0  0  0  0  0  0  0  0  0  0
   45.6730   33.4560   42.3020 N   0  0  0  0  0  0  0  0  0  0  0  0
   46.3490   33.7240   43.4560 C   0  0  0  0  0  0  0  0  0  0  0  0
   47.4970   34.3820   43.4010 N   0  0  0  0  0  0  0  0  0  0  0  0
   49.2870   35.5200   42.2030 C   0  0  0  0  0  0  0  0  0  0  0  0
   49.4430   36.4540   41.3790 O   0  0  0  0  0  0  0  0  0  0  0  0
   50.2960   35.1440   43.0790 O   0  0  0  0  0  0  0  0  0  0  0  0
   45.7520   33.2230   45.0560 S   0  0  0  0  0  0  0  0  0  0  0  0
   48.4230   29.8360   46.5550 C   0  0  0  0  0  0  0  0  0  0  0  0
   47.8650   30.7110   47.4730 C   0  0  0  0  0  0  0  0  0  0  0  0
   47.0560   31.7410   47.0370 C   0  0  0  0  0  0  0  0  0  0  0  0
   46.7950   31.9050   45.6800 C   0  0  0  0  0  0  0  0  0  0  0  0
   47.3520   31.0290   44.7570 C   0  0  0  0  0  0  0  0  0  0  0  0
   48.1600   30.0030   45.1970 C   0  0  0  0  0  0  0  0  0  0  0  0
   49.4520   28.5190   47.0400 S   0  0  0  0  0  0  0  0  0  0  0  0
   48.7730   27.7630   48.1570 O   0  0  0  0  0  0  0  0  0  0  0  0
   50.7800   28.9720   47.5520 O   0  0  0  0  0  0  0  0  0  0  0  0
   47.7886   34.8811   40.0841 H   0  0  0  0  0  0  0  0  0  0  0  0
   45.6005   33.6329   40.1753 H   0  0  0  0  0  0  0  0  0  0  0  0
   51.1657   35.6168   43.0646 H   0  0  0  0  0  0  0  0  0  0  0  0
   48.0663   30.5851   48.5471 H   0  0  0  0  0  0  0  0  0  0  0  0
   46.6150   32.4362   47.7665 H   0  0  0  0  0  0  0  0  0  0  0  0
   47.1497   31.1533   43.6829 H   0  0  0  0  0  0  0  0  0  0  0  0
   48.6023   29.3081   44.4679 H   0  0  0  0  0  0  0  0  0  0  0  0
   49.6619   27.7456   45.9288 H   0  0  0  0  0  0  0  0  0  0  0  0
  1  6  2  0
  2  3  2  0
  2  1  1  0
  3  4  1  0
  4  5  2  0
  5 10  1  0
  6  5  1  0
  7  1  1  0
  7  9  1  0
  8  7  2  0
 10 14  1  0
 11 17  1  0
 11 12  2  0
 13 12  1  0
 14 13  2  0
 15 16  2  0
 15 14  1  0
 16 11  1  0
 17 19  2  0
 17 18  2  0
  2 20  1  0
  3 21  1  0
  9 22  1  0
 12 23  1  0
 13 24  1  0
 15 25  1  0
 16 26  1  0
 17 27  1  0
M  ISO  8  20  14  21  14  22   3  23  14  24  14  25  14  26  14  27  11
M  END
>  <minimizedAffinity>  (1) 
-4.57348585

>  <minimizedRMSD>  (1) 
4.91965866

$$$$
