
     RDKit          3D

 21 22  0  0  1  0  0  0  0  0999 V2000
   45.1970   34.7370   42.7120 C   0  0  0  0  0  0  0  0  0  0  0  0
   46.2820   35.1540   41.8880 C   0  0  0  0  0  0  0  0  0  0  0  0
   47.5770   34.8020   42.2910 C   0  0  0  0  0  0  0  0  0  0  0  0
   47.7410   34.0850   43.4380 N   0  0  0  0  0  0  0  0  0  0  0  0
   46.6930   33.7070   44.1940 C   0  0  0  0  0  0  0  0  0  0  0  0
   45.4400   34.0330   43.8290 N   0  0  0  0  0  0  0  0  0  0  0  0
   46.9470   32.9170   45.4120 C   0  0  1  0  0  0  0  0  0  0  0  0
   45.9270   31.9550   45.9200 C   0  0  0  0  0  0  0  0  0  0  0  0
   47.1190   31.4460   45.1770 C   0  0  1  0  0  0  0  0  0  0  0  0
   46.6550   30.7660   43.5480 S   0  0  0  0  0  0  0  0  0  0  0  0
   48.7330   35.2420   41.4460 C   0  0  0  0  0  0  0  0  0  0  0  0
   48.9970   36.5440   41.8640 F   0  0  0  0  0  0  0  0  0  0  0  0
   49.8620   34.4890   41.6960 F   0  0  0  0  0  0  0  0  0  0  0  0
   48.4200   35.2400   40.1130 F   0  0  0  0  0  0  0  0  0  0  0  0
   44.1635   34.9911   42.4338 H   0  0  0  0  0  0  0  0  0  0  0  0
   46.1091   35.7318   40.9681 H   0  0  0  0  0  0  0  0  0  0  0  0
   47.5032   33.7345   45.8939 H   0  0  0  0  0  0  0  0  0  0  0  0
   45.8345   31.7725   47.0008 H   0  0  0  0  0  0  0  0  0  0  0  0
   44.8381   31.8471   45.8074 H   0  0  0  0  0  0  0  0  0  0  0  0
   47.9618   30.7604   45.3493 H   0  0  0  0  0  0  0  0  0  0  0  0
   45.8891   29.6436   43.7230 H   0  0  0  0  0  0  0  0  0  0  0  0
  1  6  2  0
  2  3  2  0
  2  1  1  0
  3  4  1  0
  4  5  2  0
  5  7  1  0
  6  5  1  0
  7  8  1  0
  9  7  1  0
  9  8  1  0
 10  9  1  0
 11 13  1  0
 11 12  1  0
 11  3  1  0
 14 11  1  0
  1 15  1  0
  2 16  1  0
  7 17  1  1
  8 18  1  0
  8 19  1  0
  9 20  1  1
 10 21  1  0
M  ISO  7  15  14  16  14  17  13  18  13  19  13  20  13  21  11
M  END
>  <minimizedAffinity>  (1) 
-4.16676426

>  <minimizedRMSD>  (1) 
2.60881805

$$$$
