
     RDKit          3D

 44 49  0  0  0  0  0  0  0  0999 V2000
   48.3080   33.8500   38.3550 C   0  0  0  0  0  0  0  0  0  0  0  0
   48.1090   34.4900   37.2280 N   0  0  0  0  0  0  0  0  0  0  0  0
   48.6470   33.7040   36.3090 O   0  0  0  0  0  0  0  0  0  0  0  0
   49.1590   32.6200   36.8570 C   0  0  0  0  0  0  0  0  0  0  0  0
   48.9500   32.6890   38.2050 N   0  0  0  0  0  0  0  0  0  0  0  0
   46.8420   34.7940   42.0560 C   0  0  0  0  0  0  0  0  0  0  0  0
   48.0370   35.3550   41.8050 C   0  0  0  0  0  0  0  0  0  0  0  0
   48.6360   35.1210   40.6060 C   0  0  0  0  0  0  0  0  0  0  0  0
   47.9030   34.2810   39.7310 C   0  0  0  0  0  0  0  0  0  0  0  0
   46.3910   33.8690   40.6710 S   0  0  0  0  0  0  0  0  0  0  0  0
   44.4740   35.9650   44.7610 C   0  0  0  0  0  0  0  0  0  0  0  0
   45.1530   35.9730   43.5170 C   0  0  0  0  0  0  0  0  0  0  0  0
   46.0550   34.9370   43.2860 C   0  0  0  0  0  0  0  0  0  0  0  0
   46.2330   34.0010   44.2340 N   0  0  0  0  0  0  0  0  0  0  0  0
   45.5640   34.0420   45.3950 C   0  0  0  0  0  0  0  0  0  0  0  0
   44.6930   35.0110   45.6600 N   0  0  0  0  0  0  0  0  0  0  0  0
   49.8340   31.5180   36.2080 C   0  0  0  0  0  0  0  0  0  0  0  0
   49.4950   30.7820   35.1260 C   0  0  0  0  0  0  0  0  0  0  0  0
   50.5060   29.8500   34.9410 C   0  0  0  0  0  0  0  0  0  0  0  0
   51.4340   30.0640   35.9400 C   0  0  0  0  0  0  0  0  0  0  0  0
   51.0150   31.0440   36.6650 O   0  0  0  0  0  0  0  0  0  0  0  0
   52.9620   29.2010   36.2570 S   0  0  0  0  0  0  0  0  0  0  0  0
   54.2450   29.6600   35.1320 C   0  0  0  0  0  0  0  0  0  0  0  0
   54.1680   29.7700   33.7510 C   0  0  0  0  0  0  0  0  0  0  0  0
   55.3800   30.1500   33.2570 N   0  0  0  0  0  0  0  0  0  0  0  0
   56.2540   30.2950   34.2730 C   0  0  0  0  0  0  0  0  0  0  0  0
   57.5800   30.6540   34.3540 C   0  0  0  0  0  0  0  0  0  0  0  0
   58.2380   30.7210   35.5690 C   0  0  0  0  0  0  0  0  0  0  0  0
   57.5710   30.4270   36.7320 C   0  0  0  0  0  0  0  0  0  0  0  0
   56.2380   30.0690   36.6290 C   0  0  0  0  0  0  0  0  0  0  0  0
   55.5630   29.9970   35.4230 C   0  0  0  0  0  0  0  0  0  0  0  0
   48.5234   35.9935   42.5572 H   0  0  0  0  0  0  0  0  0  0  0  0
   49.6125   35.5501   40.3369 H   0  0  0  0  0  0  0  0  0  0  0  0
   43.7520   36.7636   44.9867 H   0  0  0  0  0  0  0  0  0  0  0  0
   44.9761   36.7601   42.7693 H   0  0  0  0  0  0  0  0  0  0  0  0
   45.7395   33.2567   46.1449 H   0  0  0  0  0  0  0  0  0  0  0  0
   48.5910   30.8995   34.5103 H   0  0  0  0  0  0  0  0  0  0  0  0
   50.5580   29.0872   34.1502 H   0  0  0  0  0  0  0  0  0  0  0  0
   53.2678   29.5799   33.1481 H   0  0  0  0  0  0  0  0  0  0  0  0
   55.5949   30.3028   32.2613 H   0  0  0  0  0  0  0  0  0  0  0  0
   58.1293   30.8932   33.4315 H   0  0  0  0  0  0  0  0  0  0  0  0
   59.2986   31.0107   35.6032 H   0  0  0  0  0  0  0  0  0  0  0  0
   58.0762   30.4741   37.7080 H   0  0  0  0  0  0  0  0  0  0  0  0
   55.6880   29.8299   37.5511 H   0  0  0  0  0  0  0  0  0  0  0  0
  1  9  1  0
  2  1  2  0
  3  4  1  0
  3  2  1  0
  4  5  2  0
  5  1  1  0
  6 13  1  0
  7  6  2  0
  8  7  1  0
  9  8  2  0
  9 10  1  0
 10  6  1  0
 11 16  2  0
 12 11  1  0
 13 12  2  0
 13 14  1  0
 14 15  2  0
 15 16  1  0
 17 21  1  0
 17  4  1  0
 18 17  2  0
 19 18  1  0
 19 20  2  0
 20 22  1  0
 20 21  1  0
 23 31  1  0
 23 22  1  0
 24 23  2  0
 25 24  1  0
 25 26  1  0
 26 27  2  0
 26 31  1  0
 27 28  1  0
 28 29  2  0
 30 29  1  0
 31 30  2  0
  7 32  1  0
  8 33  1  0
 11 34  1  0
 12 35  1  0
 15 36  1  0
 18 37  1  0
 19 38  1  0
 24 39  1  0
 25 40  1  0
 27 41  1  0
 28 42  1  0
 29 43  1  0
 30 44  1  0
M  END
>  <minimizedAffinity>  (1) 
-7.03809071

>  <minimizedRMSD>  (1) 
0.423508614

$$$$
