
     RDKit          3D

 36 38  0  0  1  0  0  0  0  0999 V2000
   46.1680   33.4570   45.2730 C   0  0  2  0  0  0  0  0  0  0  0  0
   45.1030   34.6150   45.5180 C   0  0  0  0  0  0  0  0  0  0  0  0
   44.8770   35.5300   44.4300 C   0  0  0  0  0  0  0  0  0  0  0  0
   45.5950   35.3850   43.1710 C   0  0  1  0  0  0  0  0  0  0  0  0
   46.5960   34.2840   43.0900 C   0  0  0  0  0  0  0  0  0  0  0  0
   46.0550   33.1090   43.8920 C   0  0  0  0  0  0  0  0  0  0  0  0
   45.2360   32.7360   47.4670 C   0  0  0  0  0  0  0  0  0  0  0  0
   45.9370   32.4890   46.3040 C   0  0  0  0  0  0  0  0  0  0  0  0
   46.3270   31.1840   46.1520 C   0  0  0  0  0  0  0  0  0  0  0  0
   46.0330   30.2370   47.0630 N   0  0  0  0  0  0  0  0  0  0  0  0
   45.3430   30.5130   48.1940 C   0  0  0  0  0  0  0  0  0  0  0  0
   44.9490   31.7640   48.3900 N   0  0  0  0  0  0  0  0  0  0  0  0
   45.1080   29.4840   49.1550 N   0  0  0  0  0  0  0  0  0  0  0  0
   47.3860   30.6750   45.1830 C   0  0  0  0  0  0  0  0  0  0  0  0
   48.5020   29.9000   45.7960 C   0  0  0  0  0  0  0  0  0  0  0  0
   49.3710   29.4380   44.8610 C   0  0  0  0  0  0  0  0  0  0  0  0
   49.2820   29.6330   43.4970 C   0  0  0  0  0  0  0  0  0  0  0  0
   47.6910   30.6490   43.5070 S   0  0  0  0  0  0  0  0  0  0  0  0
   44.5370   35.1550   42.0630 C   0  0  0  0  0  0  0  0  0  0  0  0
   43.5010   34.3440   42.4660 F   0  0  0  0  0  0  0  0  0  0  0  0
   43.9800   36.4020   41.7900 F   0  0  0  0  0  0  0  0  0  0  0  0
   45.1510   34.7180   40.9010 F   0  0  0  0  0  0  0  0  0  0  0  0
   47.2389   33.6830   45.3829 H   0  0  0  0  0  0  0  0  0  0  0  0
   44.5657   34.7112   46.4730 H   0  0  0  0  0  0  0  0  0  0  0  0
   44.1529   36.3491   44.5509 H   0  0  0  0  0  0  0  0  0  0  0  0
   46.1850   36.3068   43.0601 H   0  0  0  0  0  0  0  0  0  0  0  0
   46.7421   33.9865   42.0411 H   0  0  0  0  0  0  0  0  0  0  0  0
   47.5651   34.6130   43.4933 H   0  0  0  0  0  0  0  0  0  0  0  0
   45.0012   32.9285   43.6331 H   0  0  0  0  0  0  0  0  0  0  0  0
   46.6194   32.1909   43.6716 H   0  0  0  0  0  0  0  0  0  0  0  0
   44.8911   33.7620   47.6626 H   0  0  0  0  0  0  0  0  0  0  0  0
   44.5829   29.6936   50.0160 H   0  0  0  0  0  0  0  0  0  0  0  0
   45.4635   28.5319   48.9875 H   0  0  0  0  0  0  0  0  0  0  0  0
   48.6086   29.7236   46.8765 H   0  0  0  0  0  0  0  0  0  0  0  0
   50.2280   28.8523   45.2248 H   0  0  0  0  0  0  0  0  0  0  0  0
   49.9292   29.3029   42.6711 H   0  0  0  0  0  0  0  0  0  0  0  0
  1  2  1  0
  1  8  1  0
  3  2  2  0
  4  3  1  0
  5  4  1  0
  5  6  1  0
  6  1  1  0
  7 12  2  0
  8  7  1  0
  9  8  2  0
  9 10  1  0
 10 11  2  0
 11 12  1  0
 11 13  1  0
 14 15  2  0
 14  9  1  0
 16 15  1  0
 17 18  1  0
 17 16  2  0
 18 14  1  0
 19 20  1  0
 19  4  1  0
 21 19  1  0
 22 19  1  0
  1 23  1  6
  2 24  1  0
  3 25  1  0
  4 26  1  6
  5 27  1  0
  5 28  1  0
  6 29  1  0
  6 30  1  0
  7 31  1  0
 13 32  1  0
 13 33  1  0
 15 34  1  0
 16 35  1  0
 17 36  1  0
M  ISO  8  23  13  24  13  25  13  26  13  27  13  28  13  29  13  30  13
M  ISO  4  31  14  34  14  35  14  36  14
M  END
>  <minimizedAffinity>  (1) 
-5.60682964

>  <minimizedRMSD>  (1) 
0.397775501

$$$$
