
     RDKit          3D

 49 53  0  0  0  0  0  0  0  0999 V2000
   44.5470   34.9730   46.2110 C   0  0  0  0  0  0  0  0  0  0  0  0
   44.7650   35.0070   44.8240 C   0  0  0  0  0  0  0  0  0  0  0  0
   45.4960   33.9490   44.2310 C   0  0  0  0  0  0  0  0  0  0  0  0
   45.9370   32.9700   45.0430 N   0  0  0  0  0  0  0  0  0  0  0  0
   45.7030   32.9760   46.3870 C   0  0  0  0  0  0  0  0  0  0  0  0
   45.0160   33.9680   46.9560 N   0  0  0  0  0  0  0  0  0  0  0  0
   45.6880   34.0280   42.8410 N   0  0  0  0  0  0  0  0  0  0  0  0
   44.9180   33.9040   41.7690 C   0  0  0  0  0  0  0  0  0  0  0  0
   45.6380   34.0810   40.6470 N   0  0  0  0  0  0  0  0  0  0  0  0
   46.9120   34.3270   40.9960 C   0  0  0  0  0  0  0  0  0  0  0  0
   48.0380   34.5760   40.2310 C   0  0  0  0  0  0  0  0  0  0  0  0
   48.0160   34.6070   38.9950 O   0  0  0  0  0  0  0  0  0  0  0  0
   49.2250   34.7970   40.8290 N   0  0  0  0  0  0  0  0  0  0  0  0
   49.2360   34.7610   42.1700 C   0  0  0  0  0  0  0  0  0  0  0  0
   50.4170   34.9760   42.9340 N   0  0  0  0  0  0  0  0  0  0  0  0
   48.1590   34.5220   42.9130 N   0  0  0  0  0  0  0  0  0  0  0  0
   46.9430   34.2930   42.3770 C   0  0  0  0  0  0  0  0  0  0  0  0
   46.2010   31.8880   47.2540 C   0  0  0  0  0  0  0  0  0  0  0  0
   47.3410   32.3710   48.1180 C   0  0  0  0  0  0  0  0  0  0  0  0
   45.1050   31.3330   48.1470 C   0  0  0  0  0  0  0  0  0  0  0  0
   46.7380   30.8020   46.3450 C   0  0  0  0  0  0  0  0  0  0  0  0
   46.1320   29.4560   46.6700 C   0  0  0  0  0  0  0  0  0  0  0  0
   46.8410   28.5670   47.3970 C   0  0  0  0  0  0  0  0  0  0  0  0
   45.7690   27.0970   47.5640 S   0  0  0  0  0  0  0  0  0  0  0  0
   44.4550   27.9970   46.5510 C   0  0  0  0  0  0  0  0  0  0  0  0
   44.9540   29.0120   46.3260 N   0  0  0  0  0  0  0  0  0  0  0  0
   43.1570   27.3320   46.2520 C   0  0  0  0  0  0  0  0  0  0  0  0
   42.0820   27.6850   45.4020 C   0  0  0  0  0  0  0  0  0  0  0  0
   41.0820   26.7910   45.4230 C   0  0  0  0  0  0  0  0  0  0  0  0
   41.0520   25.6170   46.1850 C   0  0  0  0  0  0  0  0  0  0  0  0
   42.6910   25.7020   47.0660 S   0  0  0  0  0  0  0  0  0  0  0  0
   43.9819   35.7856   46.6909 H   0  0  0  0  0  0  0  0  0  0  0  0
   44.3773   35.8355   44.2130 H   0  0  0  0  0  0  0  0  0  0  0  0
   43.8400   33.6866   41.7938 H   0  0  0  0  0  0  0  0  0  0  0  0
   50.0794   34.9838   40.2849 H   0  0  0  0  0  0  0  0  0  0  0  0
   50.3788   34.9390   43.9626 H   0  0  0  0  0  0  0  0  0  0  0  0
   51.3101   35.1686   42.4584 H   0  0  0  0  0  0  0  0  0  0  0  0
   47.0714   32.2568   49.1783 H   0  0  0  0  0  0  0  0  0  0  0  0
   48.2415   31.7771   47.9026 H   0  0  0  0  0  0  0  0  0  0  0  0
   47.5407   33.4311   47.9026 H   0  0  0  0  0  0  0  0  0  0  0  0
   45.3844   31.4745   49.2015 H   0  0  0  0  0  0  0  0  0  0  0  0
   44.1626   31.8625   47.9431 H   0  0  0  0  0  0  0  0  0  0  0  0
   44.9741   30.2600   47.9431 H   0  0  0  0  0  0  0  0  0  0  0  0
   47.8295   30.7412   46.4673 H   0  0  0  0  0  0  0  0  0  0  0  0
   46.4730   31.0580   45.3085 H   0  0  0  0  0  0  0  0  0  0  0  0
   47.8541   28.6999   47.8044 H   0  0  0  0  0  0  0  0  0  0  0  0
   42.0679   28.5975   44.7879 H   0  0  0  0  0  0  0  0  0  0  0  0
   40.2096   26.9985   44.7860 H   0  0  0  0  0  0  0  0  0  0  0  0
   40.2680   24.8479   46.2471 H   0  0  0  0  0  0  0  0  0  0  0  0
  1  6  2  0
  2  1  1  0
  3  2  2  0
  3  4  1  0
  4  5  2  0
  5  6  1  0
  5 18  1  0
  7  3  1  0
  8  7  1  0
  9 10  1  0
  9  8  2  0
 10 17  2  0
 11 13  1  0
 11 10  1  0
 12 11  2  0
 13 14  1  0
 14 16  2  0
 14 15  1  0
 17  7  1  0
 17 16  1  0
 18 19  1  0
 18 20  1  0
 21 22  1  0
 21 18  1  0
 22 23  2  0
 23 24  1  0
 25 24  1  0
 26 25  2  0
 26 22  1  0
 27 25  1  0
 27 31  1  0
 28 29  1  0
 28 27  2  0
 29 30  2  0
 30 31  1  0
  1 32  1  0
  2 33  1  0
  8 34  1  0
 13 35  1  0
 15 36  1  0
 15 37  1  0
 19 38  1  0
 19 39  1  0
 19 40  1  0
 20 41  1  0
 20 42  1  0
 20 43  1  0
 21 44  1  0
 21 45  1  0
 23 46  1  0
 28 47  1  0
 29 48  1  0
 30 49  1  0
M  END
>  <minimizedAffinity>  (1) 
-7.2679348

>  <minimizedRMSD>  (1) 
0.633782387

$$$$
