
     RDKit          3D

 34 36  0  0  1  0  0  0  0  0999 V2000
   44.4520   34.0290   41.7740 C   0  0  2  0  0  0  0  0  0  0  0  0
   43.6330   35.2360   42.1630 C   0  0  0  0  0  0  0  0  0  0  0  0
   42.6800   35.7270   41.1990 C   0  0  0  0  0  0  0  0  0  0  0  0
   42.5260   35.0750   39.9100 C   0  0  1  0  0  0  0  0  0  0  0  0
   43.4400   33.9520   39.5930 C   0  0  0  0  0  0  0  0  0  0  0  0
   43.6970   33.1540   40.8380 C   0  0  0  0  0  0  0  0  0  0  0  0
   45.3200   34.1640   44.0590 C   0  0  0  0  0  0  0  0  0  0  0  0
   44.9740   33.3870   42.9700 C   0  0  0  0  0  0  0  0  0  0  0  0
   45.1660   32.0050   43.0920 C   0  0  0  0  0  0  0  0  0  0  0  0
   45.6660   31.4720   44.2290 N   0  0  0  0  0  0  0  0  0  0  0  0
   45.9970   32.2710   45.2860 C   0  0  0  0  0  0  0  0  0  0  0  0
   45.8230   33.6040   45.1950 N   0  0  0  0  0  0  0  0  0  0  0  0
   46.5370   31.6340   46.4950 C   0  0  0  0  0  0  0  0  0  0  0  0
   47.1870   32.4340   47.3390 C   0  0  0  0  0  0  0  0  0  0  0  0
   47.8000   32.1990   48.5200 C   0  0  0  0  0  0  0  0  0  0  0  0
   47.5980   30.7020   48.7450 C   0  0  0  0  0  0  0  0  0  0  0  0
   46.6040   30.0630   47.2270 S   0  0  0  0  0  0  0  0  0  0  0  0
   41.0660   34.6060   39.7970 C   0  0  0  0  0  0  0  0  0  0  0  0
   40.5720   34.1050   40.9730 F   0  0  0  0  0  0  0  0  0  0  0  0
   40.2990   35.7180   39.4830 F   0  0  0  0  0  0  0  0  0  0  0  0
   40.9470   33.7180   38.7310 F   0  0  0  0  0  0  0  0  0  0  0  0
   45.3396   34.3246   41.1953 H   0  0  0  0  0  0  0  0  0  0  0  0
   43.7583   35.7212   43.1422 H   0  0  0  0  0  0  0  0  0  0  0  0
   42.0630   36.6046   41.4421 H   0  0  0  0  0  0  0  0  0  0  0  0
   42.8071   35.8355   39.1667 H   0  0  0  0  0  0  0  0  0  0  0  0
   42.9782   33.3062   38.8316 H   0  0  0  0  0  0  0  0  0  0  0  0
   44.3907   34.3487   39.2072 H   0  0  0  0  0  0  0  0  0  0  0  0
   42.7434   32.8491   41.2936 H   0  0  0  0  0  0  0  0  0  0  0  0
   44.2699   32.2439   40.6068 H   0  0  0  0  0  0  0  0  0  0  0  0
   45.1870   35.2547   44.0080 H   0  0  0  0  0  0  0  0  0  0  0  0
   44.9065   31.3447   42.2514 H   0  0  0  0  0  0  0  0  0  0  0  0
   47.2334   33.4836   47.0130 H   0  0  0  0  0  0  0  0  0  0  0  0
   48.3225   32.9180   49.1681 H   0  0  0  0  0  0  0  0  0  0  0  0
   47.9498   30.1089   49.6020 H   0  0  0  0  0  0  0  0  0  0  0  0
  1  2  1  0
  1  8  1  0
  3  2  2  0
  4  3  1  0
  5  4  1  0
  5  6  1  0
  6  1  1  0
  7 12  2  0
  8  9  2  0
  8  7  1  0
  9 10  1  0
 10 11  2  0
 11 13  1  0
 12 11  1  0
 13 17  1  0
 13 14  2  0
 14 15  1  0
 15 16  2  0
 17 16  1  0
 18  4  1  0
 18 19  1  0
 20 18  1  0
 21 18  1  0
  1 22  1  6
  2 23  1  0
  3 24  1  0
  4 25  1  6
  5 26  1  0
  5 27  1  0
  6 28  1  0
  6 29  1  0
  7 30  1  0
  9 31  1  0
 14 32  1  0
 15 33  1  0
 16 34  1  0
M  ISO  8  22  13  23  13  24  13  25  13  26  13  27  13  28  13  29  13
M  ISO  5  30  14  31  14  32  14  33  14  34  14
M  END
>  <minimizedAffinity>  (1) 
-5.14073038

>  <minimizedRMSD>  (1) 
4.03508139

$$$$
