
     RDKit          3D

 32 35  0  0  0  0  0  0  0  0999 V2000
   46.2010   30.3670   49.0990 N   0  0  0  0  0  0  0  0  0  0  0  0
   45.3450   31.3950   49.4150 C   0  0  0  0  0  0  0  0  0  0  0  0
   45.2670   32.2300   48.3450 N   0  0  0  0  0  0  0  0  0  0  0  0
   46.0810   31.6800   47.4060 C   0  0  0  0  0  0  0  0  0  0  0  0
   46.3030   32.2100   46.1430 C   0  0  0  0  0  0  0  0  0  0  0  0
   47.1560   31.5120   45.3450 N   0  0  0  0  0  0  0  0  0  0  0  0
   47.7440   30.3760   45.7650 C   0  0  0  0  0  0  0  0  0  0  0  0
   47.4910   29.9180   46.9920 N   0  0  0  0  0  0  0  0  0  0  0  0
   46.6780   30.5240   47.8370 C   0  0  0  0  0  0  0  0  0  0  0  0
   48.6750   29.6380   44.8550 C   0  0  0  0  0  0  0  0  0  0  0  0
   49.2130   30.0710   43.7110 C   0  0  0  0  0  0  0  0  0  0  0  0
   50.0520   29.2640   42.9920 C   0  0  0  0  0  0  0  0  0  0  0  0
   50.2750   27.9570   43.5830 C   0  0  0  0  0  0  0  0  0  0  0  0
   49.2160   28.0560   45.1510 S   0  0  0  0  0  0  0  0  0  0  0  0
   45.6290   33.6730   45.4240 S   0  0  0  0  0  0  0  0  0  0  0  0
   47.7970   34.7340   42.3340 C   0  0  0  0  0  0  0  0  0  0  0  0
   47.0750   34.3610   41.2020 C   0  0  0  0  0  0  0  0  0  0  0  0
   45.8520   33.7480   41.4010 C   0  0  0  0  0  0  0  0  0  0  0  0
   45.4180   33.5410   42.6810 N   0  0  0  0  0  0  0  0  0  0  0  0
   46.1550   33.9220   43.7410 C   0  0  0  0  0  0  0  0  0  0  0  0
   47.3360   34.5140   43.5670 N   0  0  0  0  0  0  0  0  0  0  0  0
   49.1020   35.3890   42.1370 C   0  0  0  0  0  0  0  0  0  0  0  0
   49.2650   36.1630   41.1680 O   0  0  0  0  0  0  0  0  0  0  0  0
   50.1180   35.1400   43.0180 O   0  0  0  0  0  0  0  0  0  0  0  0
   46.4455   29.5894   49.7287 H   0  0  0  0  0  0  0  0  0  0  0  0
   44.8140   31.5206   50.3701 H   0  0  0  0  0  0  0  0  0  0  0  0
   48.9800   31.0819   43.3453 H   0  0  0  0  0  0  0  0  0  0  0  0
   50.5179   29.5788   42.0466 H   0  0  0  0  0  0  0  0  0  0  0  0
   50.8962   27.1265   43.2164 H   0  0  0  0  0  0  0  0  0  0  0  0
   47.4630   34.5471   40.1897 H   0  0  0  0  0  0  0  0  0  0  0  0
   45.2385   33.4322   40.5443 H   0  0  0  0  0  0  0  0  0  0  0  0
   50.9985   35.5753   42.8941 H   0  0  0  0  0  0  0  0  0  0  0  0
  1  2  1  0
  3  2  2  0
  4  9  2  0
  4  3  1  0
  5  4  1  0
  6  7  1  0
  6  5  2  0
  7  8  2  0
  8  9  1  0
  9  1  1  0
 10 14  1  0
 10  7  1  0
 11 10  2  0
 12 13  2  0
 12 11  1  0
 13 14  1  0
 15  5  1  0
 16 21  2  0
 17 18  2  0
 17 16  1  0
 18 19  1  0
 19 20  2  0
 20 15  1  0
 21 20  1  0
 22 16  1  0
 22 24  1  0
 23 22  2  0
  1 25  1  0
  2 26  1  0
 11 27  1  0
 12 28  1  0
 13 29  1  0
 17 30  1  0
 18 31  1  0
 24 32  1  0
M  ISO  8  25   9  26  14  27  14  28  14  29  14  30  14  31  14  32   3
M  END
>  <minimizedAffinity>  (1) 
-5.71604633

>  <minimizedRMSD>  (1) 
0.0853741914

$$$$
