
     RDKit          3D

 25 27  0  0  0  0  0  0  0  0999 V2000
   43.9700   34.2200   41.5050 N   0  0  0  0  0  0  0  0  0  0  0  0
   44.6260   33.8420   40.4050 C   0  0  0  0  0  0  0  0  0  0  0  0
   43.6810   33.9180   39.3410 C   0  0  0  0  0  0  0  0  0  0  0  0
   42.5280   34.3320   39.8240 N   0  0  0  0  0  0  0  0  0  0  0  0
   42.6670   34.5330   41.1720 C   0  0  0  0  0  0  0  0  0  0  0  0
   44.2410   35.5610   43.4700 C   0  0  0  0  0  0  0  0  0  0  0  0
   44.4290   34.2830   42.8210 C   0  0  0  0  0  0  0  0  0  0  0  0
   45.0240   33.2400   43.5410 C   0  0  0  0  0  0  0  0  0  0  0  0
   45.4060   33.4800   44.8350 N   0  0  0  0  0  0  0  0  0  0  0  0
   45.2110   34.7070   45.4160 C   0  0  0  0  0  0  0  0  0  0  0  0
   44.6300   35.7480   44.7390 N   0  0  0  0  0  0  0  0  0  0  0  0
   46.0010   33.4670   40.1510 C   0  0  0  0  0  0  0  0  0  0  0  0
   47.0250   34.3040   40.5250 C   0  0  0  0  0  0  0  0  0  0  0  0
   48.3510   34.0790   40.3490 C   0  0  0  0  0  0  0  0  0  0  0  0
   48.7130   32.9290   39.7500 N   0  0  0  0  0  0  0  0  0  0  0  0
   47.7590   32.0720   39.3620 C   0  0  0  0  0  0  0  0  0  0  0  0
   46.5010   32.3860   39.5810 N   0  0  0  0  0  0  0  0  0  0  0  0
   43.8819   33.6711   38.2881 H   0  0  0  0  0  0  0  0  0  0  0  0
   41.8842   34.8801   41.8624 H   0  0  0  0  0  0  0  0  0  0  0  0
   43.7737   36.3888   42.9165 H   0  0  0  0  0  0  0  0  0  0  0  0
   45.1808   32.2536   43.0800 H   0  0  0  0  0  0  0  0  0  0  0  0
   45.5306   34.8606   46.4573 H   0  0  0  0  0  0  0  0  0  0  0  0
   46.7418   35.2476   41.0144 H   0  0  0  0  0  0  0  0  0  0  0  0
   49.1027   34.8092   40.6833 H   0  0  0  0  0  0  0  0  0  0  0  0
   48.0229   31.1243   38.8699 H   0  0  0  0  0  0  0  0  0  0  0  0
  1  7  1  0
  2  1  1  0
  3  4  1  0
  3  2  2  0
  4  5  2  0
  5  1  1  0
  6 11  2  0
  7  6  1  0
  7  8  2  0
  8  9  1  0
  9 10  2  0
 11 10  1  0
 12  2  1  0
 12 13  2  0
 14 13  1  0
 15 14  2  0
 16 17  2  0
 16 15  1  0
 17 12  1  0
  3 18  1  0
  5 19  1  0
  6 20  1  0
  8 21  1  0
 10 22  1  0
 13 23  1  0
 14 24  1  0
 16 25  1  0
M  ISO  8  18  14  19  14  20  14  21  14  22  14  23  14  24  14  25  14
M  END
>  <minimizedAffinity>  (1) 
-4.01981258

>  <minimizedRMSD>  (1) 
1.13227558

$$$$
