
     RDKit          3D

 48 52  0  0  1  0  0  0  0  0999 V2000
   46.8140   34.5110   41.3650 C   0  0  0  0  0  0  0  0  0  0  0  0
   48.1100   34.8660   40.9830 C   0  0  0  0  0  0  0  0  0  0  0  0
   48.3410   34.5190   39.7390 N   0  0  0  0  0  0  0  0  0  0  0  0
   47.2290   33.9360   39.2690 C   0  0  0  0  0  0  0  0  0  0  0  0
   46.9430   33.3890   38.0130 C   0  0  0  0  0  0  0  0  0  0  0  0
   45.7080   32.8490   37.8010 C   0  0  0  0  0  0  0  0  0  0  0  0
   44.6920   32.7940   38.7430 C   0  0  0  0  0  0  0  0  0  0  0  0
   45.0350   33.3490   39.9610 C   0  0  0  0  0  0  0  0  0  0  0  0
   46.2530   33.9140   40.2630 C   0  0  0  0  0  0  0  0  0  0  0  0
   44.7430   36.0380   44.0600 C   0  0  0  0  0  0  0  0  0  0  0  0
   45.3690   35.8550   42.8100 C   0  0  0  0  0  0  0  0  0  0  0  0
   46.1620   34.7120   42.6480 C   0  0  0  0  0  0  0  0  0  0  0  0
   46.3000   33.8320   43.6800 N   0  0  0  0  0  0  0  0  0  0  0  0
   45.6710   34.0620   44.8670 C   0  0  0  0  0  0  0  0  0  0  0  0
   44.8960   35.1570   45.0590 N   0  0  0  0  0  0  0  0  0  0  0  0
   49.0650   35.5490   41.9060 C   0  0  0  0  0  0  0  0  0  0  0  0
   49.9770   34.5800   42.5780 C   0  0  0  0  0  0  0  0  0  0  0  0
   50.0950   33.2530   41.8840 C   0  0  1  0  0  0  0  0  0  0  0  0
   51.0810   32.2420   42.2480 C   0  0  0  0  0  0  0  0  0  0  0  0
   49.6990   32.0400   42.7790 C   0  0  2  0  0  0  0  0  0  0  0  0
   48.9720   31.0460   42.2010 O   0  0  0  0  0  0  0  0  0  0  0  0
   47.6880   30.7480   42.5420 C   0  0  0  0  0  0  0  0  0  0  0  0
   46.5690   30.6140   41.7350 C   0  0  0  0  0  0  0  0  0  0  0  0
   45.3310   30.3090   42.2190 C   0  0  0  0  0  0  0  0  0  0  0  0
   45.1830   30.1250   43.5830 C   0  0  0  0  0  0  0  0  0  0  0  0
   46.2670   30.2480   44.4350 C   0  0  0  0  0  0  0  0  0  0  0  0
   47.5090   30.5590   43.9060 C   0  0  0  0  0  0  0  0  0  0  0  0
   49.2172   34.6675   39.2183 H   0  0  0  0  0  0  0  0  0  0  0  0
   47.6982   33.3943   37.2132 H   0  0  0  0  0  0  0  0  0  0  0  0
   45.5027   32.4250   36.8070 H   0  0  0  0  0  0  0  0  0  0  0  0
   43.7061   32.3504   38.5398 H   0  0  0  0  0  0  0  0  0  0  0  0
   44.2725   33.3384   40.7538 H   0  0  0  0  0  0  0  0  0  0  0  0
   44.1134   36.9257   44.2196 H   0  0  0  0  0  0  0  0  0  0  0  0
   45.2397   36.5814   41.9941 H   0  0  0  0  0  0  0  0  0  0  0  0
   45.7954   33.3416   45.6889 H   0  0  0  0  0  0  0  0  0  0  0  0
   49.6690   36.2637   41.3278 H   0  0  0  0  0  0  0  0  0  0  0  0
   48.4800   36.0624   42.6834 H   0  0  0  0  0  0  0  0  0  0  0  0
   50.9790   35.0307   42.6306 H   0  0  0  0  0  0  0  0  0  0  0  0
   49.5443   34.3779   43.5689 H   0  0  0  0  0  0  0  0  0  0  0  0
   49.8353   33.6976   40.9119 H   0  0  0  0  0  0  0  0  0  0  0  0
   51.4665   31.5614   41.4746 H   0  0  0  0  0  0  0  0  0  0  0  0
   52.0726   32.2901   42.7217 H   0  0  0  0  0  0  0  0  0  0  0  0
   49.2298   31.9069   43.7650 H   0  0  0  0  0  0  0  0  0  0  0  0
   46.6852   30.7609   40.6511 H   0  0  0  0  0  0  0  0  0  0  0  0
   44.4701   30.2115   41.5413 H   0  0  0  0  0  0  0  0  0  0  0  0
   44.1931   29.8783   43.9944 H   0  0  0  0  0  0  0  0  0  0  0  0
   46.1438   30.1007   45.5181 H   0  0  0  0  0  0  0  0  0  0  0  0
   48.3719   30.6584   44.5809 H   0  0  0  0  0  0  0  0  0  0  0  0
  1 12  1  0
  2  1  2  0
  2 16  1  0
  3  2  1  0
  4  3  1  0
  4  9  2  0
  5  4  1  0
  6  5  2  0
  6  7  1  0
  7  8  2  0
  8  9  1  0
  9  1  1  0
 10 15  2  0
 11 10  1  0
 12 11  2  0
 12 13  1  0
 13 14  2  0
 14 15  1  0
 16 17  1  0
 18 19  1  0
 18 17  1  0
 18 20  1  0
 19 20  1  0
 21 22  1  0
 21 20  1  0
 22 27  2  0
 23 24  2  0
 23 22  1  0
 24 25  1  0
 25 26  2  0
 27 26  1  0
  3 28  1  0
  5 29  1  0
  6 30  1  0
  7 31  1  0
  8 32  1  0
 10 33  1  0
 11 34  1  0
 14 35  1  0
 16 36  1  0
 16 37  1  0
 17 38  1  0
 17 39  1  0
 18 40  1  6
 19 41  1  0
 19 42  1  0
 20 43  1  1
 23 44  1  0
 24 45  1  0
 25 46  1  0
 26 47  1  0
 27 48  1  0
M  ISO  8  28   9  29  14  30  14  31  14  32  14  33  14  34  14  35  14
M  ISO  8  36   8  37   8  38   8  39   8  40  13  41  13  42  13  43  13
M  ISO  5  44  14  45  14  46  14  47  14  48  14
M  END
>  <minimizedAffinity>  (1) 
-5.54557228

>  <minimizedRMSD>  (1) 
0.645356536

$$$$
