
     RDKit          3D

 43 47  0  0  1  0  0  0  0  0999 V2000
   46.9420   34.4980   42.4370 N   0  0  0  0  0  0  0  0  0  0  0  0
   48.3870   34.5110   42.5110 C   0  0  0  0  0  0  0  0  0  0  0  0
   48.9780   33.8620   41.3050 C   0  0  0  0  0  0  0  0  0  0  0  0
   48.4010   34.5280   40.1360 N   0  0  0  0  0  0  0  0  0  0  0  0
   47.0650   33.9880   40.0340 C   0  0  0  0  0  0  0  0  0  0  0  0
   46.2040   34.3870   41.2040 C   0  0  1  0  0  0  0  0  0  0  0  0
   45.0390   33.5460   41.2860 N   0  0  0  0  0  0  0  0  0  0  0  0
   44.9490   32.2470   41.5560 C   0  0  0  0  0  0  0  0  0  0  0  0
   43.6670   31.7940   41.5460 N   0  0  0  0  0  0  0  0  0  0  0  0
   42.8840   32.8490   41.2550 C   0  0  0  0  0  0  0  0  0  0  0  0
   41.5350   33.0840   41.0930 C   0  0  0  0  0  0  0  0  0  0  0  0
   41.0720   34.3240   40.7910 N   0  0  0  0  0  0  0  0  0  0  0  0
   41.9520   35.3430   40.6460 C   0  0  0  0  0  0  0  0  0  0  0  0
   43.2700   35.1510   40.7970 N   0  0  0  0  0  0  0  0  0  0  0  0
   43.7460   33.9160   41.1000 C   0  0  0  0  0  0  0  0  0  0  0  0
   44.5090   35.6020   45.0470 C   0  0  0  0  0  0  0  0  0  0  0  0
   45.2050   35.5550   43.8470 C   0  0  0  0  0  0  0  0  0  0  0  0
   46.1920   34.6000   43.6400 C   0  0  0  0  0  0  0  0  0  0  0  0
   46.4020   33.7550   44.6770 N   0  0  0  0  0  0  0  0  0  0  0  0
   45.7420   33.7880   45.8340 C   0  0  0  0  0  0  0  0  0  0  0  0
   44.7950   34.7130   46.0150 N   0  0  0  0  0  0  0  0  0  0  0  0
   46.0300   32.8340   46.9100 C   0  0  0  0  0  0  0  0  0  0  0  0
   45.1160   32.5930   47.9120 C   0  0  0  0  0  0  0  0  0  0  0  0
   45.4030   31.6940   48.9130 C   0  0  0  0  0  0  0  0  0  0  0  0
   46.6020   31.0570   48.8870 N   0  0  0  0  0  0  0  0  0  0  0  0
   47.4840   31.3010   47.9060 C   0  0  0  0  0  0  0  0  0  0  0  0
   47.2010   32.1710   46.9390 N   0  0  0  0  0  0  0  0  0  0  0  0
   48.7370   35.5522   42.5699 H   0  0  0  0  0  0  0  0  0  0  0  0
   48.7023   33.9536   43.4053 H   0  0  0  0  0  0  0  0  0  0  0  0
   50.0713   33.9834   41.3079 H   0  0  0  0  0  0  0  0  0  0  0  0
   48.7587   32.7842   41.2914 H   0  0  0  0  0  0  0  0  0  0  0  0
   48.3716   35.5480   40.2759 H   0  0  0  0  0  0  0  0  0  0  0  0
   46.6012   34.3602   39.1086 H   0  0  0  0  0  0  0  0  0  0  0  0
   47.1417   32.8907   40.0273 H   0  0  0  0  0  0  0  0  0  0  0  0
   45.8410   35.4097   41.0241 H   0  0  0  0  0  0  0  0  0  0  0  0
   45.8190   31.6071   41.7651 H   0  0  0  0  0  0  0  0  0  0  0  0
   40.8229   32.2539   41.2103 H   0  0  0  0  0  0  0  0  0  0  0  0
   41.5780   36.3477   40.3995 H   0  0  0  0  0  0  0  0  0  0  0  0
   43.7288   36.3611   45.2053 H   0  0  0  0  0  0  0  0  0  0  0  0
   44.9729   36.2803   43.0532 H   0  0  0  0  0  0  0  0  0  0  0  0
   44.1516   33.1221   47.9118 H   0  0  0  0  0  0  0  0  0  0  0  0
   44.6779   31.4957   49.7160 H   0  0  0  0  0  0  0  0  0  0  0  0
   48.4510   30.7767   47.9006 H   0  0  0  0  0  0  0  0  0  0  0  0
  1  2  1  0
  1 18  1  0
  3  2  1  0
  4  3  1  0
  5  4  1  0
  5  6  1  0
  6  7  1  0
  6  1  1  0
  7  8  1  0
  9  8  2  0
 10  9  1  0
 11 10  2  0
 12 11  1  0
 13 12  2  0
 13 14  1  0
 14 15  2  0
 15 10  1  0
 15  7  1  0
 16 21  2  0
 17 16  1  0
 18 17  2  0
 18 19  1  0
 19 20  2  0
 20 21  1  0
 20 22  1  0
 22 27  1  0
 22 23  2  0
 23 24  1  0
 25 24  2  0
 26 25  1  0
 27 26  2  0
  2 28  1  0
  2 29  1  0
  3 30  1  0
  3 31  1  0
  4 32  1  0
  5 33  1  0
  5 34  1  0
  6 35  1  6
  8 36  1  0
 11 37  1  0
 13 38  1  0
 16 39  1  0
 17 40  1  0
 23 41  1  0
 24 42  1  0
 26 43  1  0
M  END
>  <minimizedAffinity>  (1) 
-7.04776001

>  <minimizedRMSD>  (1) 
0.756782293

$$$$
