
     RDKit          3D

 36 39  0  0  0  0  0  0  0  0999 V2000
   46.9970   34.8140   42.0020 C   0  0  0  0  0  0  0  0  0  0  0  0
   48.2140   35.4890   41.9790 C   0  0  0  0  0  0  0  0  0  0  0  0
   48.9270   35.4380   40.8260 C   0  0  0  0  0  0  0  0  0  0  0  0
   48.4630   34.7660   39.7700 N   0  0  0  0  0  0  0  0  0  0  0  0
   47.2810   34.1150   39.8060 C   0  0  0  0  0  0  0  0  0  0  0  0
   46.5650   34.1610   40.9510 N   0  0  0  0  0  0  0  0  0  0  0  0
   46.8440   33.4150   38.6430 N   0  0  0  0  0  0  0  0  0  0  0  0
   45.9650   32.4080   38.8800 C   0  0  0  0  0  0  0  0  0  0  0  0
   45.4640   31.6470   37.8180 C   0  0  0  0  0  0  0  0  0  0  0  0
   45.9280   32.0030   36.5700 C   0  0  0  0  0  0  0  0  0  0  0  0
   45.4590   31.2980   35.6240 O   0  0  0  0  0  0  0  0  0  0  0  0
   46.7940   32.9930   36.3300 N   0  0  0  0  0  0  0  0  0  0  0  0
   47.2500   33.7020   37.3860 C   0  0  0  0  0  0  0  0  0  0  0  0
   48.0650   34.6440   37.2250 O   0  0  0  0  0  0  0  0  0  0  0  0
   44.5050   35.8120   44.5900 C   0  0  0  0  0  0  0  0  0  0  0  0
   45.2360   35.8180   43.3760 C   0  0  0  0  0  0  0  0  0  0  0  0
   46.2250   34.8540   43.2160 C   0  0  0  0  0  0  0  0  0  0  0  0
   46.4280   33.9790   44.2180 N   0  0  0  0  0  0  0  0  0  0  0  0
   45.7060   33.9990   45.3780 C   0  0  0  0  0  0  0  0  0  0  0  0
   44.7490   34.9190   45.5530 N   0  0  0  0  0  0  0  0  0  0  0  0
   45.9710   33.0240   46.4300 C   0  0  0  0  0  0  0  0  0  0  0  0
   47.0060   32.1210   46.3180 C   0  0  0  0  0  0  0  0  0  0  0  0
   47.2380   31.1990   47.3380 C   0  0  0  0  0  0  0  0  0  0  0  0
   46.4600   31.1770   48.4410 N   0  0  0  0  0  0  0  0  0  0  0  0
   45.4600   32.0750   48.5120 C   0  0  0  0  0  0  0  0  0  0  0  0
   45.2060   32.9880   47.5340 N   0  0  0  0  0  0  0  0  0  0  0  0
   48.5816   36.0398   42.8574 H   0  0  0  0  0  0  0  0  0  0  0  0
   49.8958   35.9548   40.7607 H   0  0  0  0  0  0  0  0  0  0  0  0
   45.6457   32.1897   39.9097 H   0  0  0  0  0  0  0  0  0  0  0  0
   44.7506   30.8233   37.9685 H   0  0  0  0  0  0  0  0  0  0  0  0
   47.1034   33.2082   35.3714 H   0  0  0  0  0  0  0  0  0  0  0  0
   43.7157   36.5626   44.7434 H   0  0  0  0  0  0  0  0  0  0  0  0
   45.0286   36.5582   42.5892 H   0  0  0  0  0  0  0  0  0  0  0  0
   47.6483   32.1276   45.4250 H   0  0  0  0  0  0  0  0  0  0  0  0
   48.0654   30.4805   47.2427 H   0  0  0  0  0  0  0  0  0  0  0  0
   44.8162   32.0713   49.4039 H   0  0  0  0  0  0  0  0  0  0  0  0
  1 17  1  0
  2  1  2  0
  3  2  1  0
  4  5  1  0
  4  3  2  0
  5  6  2  0
  6  1  1  0
  7  8  1  0
  7  5  1  0
  9  8  2  0
 10  9  1  0
 11 10  2  0
 12 10  1  0
 12 13  1  0
 13  7  1  0
 14 13  2  0
 15 20  2  0
 16 15  1  0
 17 16  2  0
 17 18  1  0
 18 19  2  0
 19 20  1  0
 19 21  1  0
 21 26  1  0
 22 21  2  0
 22 23  1  0
 23 24  2  0
 24 25  1  0
 26 25  2  0
  2 27  1  0
  3 28  1  0
  8 29  1  0
  9 30  1  0
 12 31  1  0
 15 32  1  0
 16 33  1  0
 22 34  1  0
 23 35  1  0
 25 36  1  0
M  END
>  <minimizedAffinity>  (1) 
-7.4289875

>  <minimizedRMSD>  (1) 
0.228184372

$$$$
