
     RDKit          3D

 45 47  0  0  1  0  0  0  0  0999 V2000
   46.1460   31.6060   42.2500 C   0  0  0  0  0  0  0  0  0  0  0  0
   46.7870   32.0000   45.8400 C   0  0  0  0  0  0  0  0  0  0  0  0
   46.0290   33.1130   46.0860 C   0  0  0  0  0  0  0  0  0  0  0  0
   45.3340   33.4860   44.4750 S   0  0  0  0  0  0  0  0  0  0  0  0
   46.2290   32.0000   43.6940 C   0  0  0  0  0  0  0  0  0  0  0  0
   46.7590   31.6120   44.6260 N   0  0  0  0  0  0  0  0  0  0  0  0
   48.4730   31.3390   49.1760 C   0  0  0  0  0  0  0  0  0  0  0  0
   47.7530   31.9840   48.1770 C   0  0  0  0  0  0  0  0  0  0  0  0
   47.5410   31.3640   46.9310 C   0  0  0  0  0  0  0  0  0  0  0  0
   48.0860   30.1430   46.8230 N   0  0  0  0  0  0  0  0  0  0  0  0
   48.7770   29.5020   47.7560 C   0  0  0  0  0  0  0  0  0  0  0  0
   48.9600   30.1100   48.9170 N   0  0  0  0  0  0  0  0  0  0  0  0
   44.8220   30.9180   42.0560 C   0  0  0  0  0  0  0  0  0  0  0  0
   47.2740   30.6770   41.9820 C   0  0  0  0  0  0  0  0  0  0  0  0
   46.2480   32.8050   41.3910 C   0  0  1  0  0  0  0  0  0  0  0  0
   45.0860   33.7630   41.4690 C   0  0  0  0  0  0  0  0  0  0  0  0
   45.1770   35.1020   41.7920 C   0  0  0  0  0  0  0  0  0  0  0  0
   44.0820   35.9270   41.8560 C   0  0  0  0  0  0  0  0  0  0  0  0
   42.8550   35.4510   41.6020 N   0  0  0  0  0  0  0  0  0  0  0  0
   42.7360   34.1550   41.2840 C   0  0  0  0  0  0  0  0  0  0  0  0
   43.8010   33.3560   41.2220 N   0  0  0  0  0  0  0  0  0  0  0  0
   47.4980   33.4500   41.4530 N   0  0  0  0  0  0  0  0  0  0  0  0
   48.5810   34.1240   42.0500 C   0  0  0  0  0  0  0  0  0  0  0  0
   49.6640   34.7440   42.0820 O   0  0  0  0  0  0  0  0  0  0  0  0
   48.4400   34.1820   43.4890 N   0  0  0  0  0  0  0  0  0  0  0  0
   48.2250   33.6770   40.1780 C   0  0  0  0  0  0  0  0  0  0  0  0
   47.3120   33.2090   39.2010 F   0  0  0  0  0  0  0  0  0  0  0  0
   49.3550   33.0540   40.0970 F   0  0  0  0  0  0  0  0  0  0  0  0
   48.2730   35.0680   39.9660 F   0  0  0  0  0  0  0  0  0  0  0  0
   45.8824   33.6467   47.0366 H   0  0  0  0  0  0  0  0  0  0  0  0
   48.6405   31.8191   50.1514 H   0  0  0  0  0  0  0  0  0  0  0  0
   47.3449   32.9886   48.3619 H   0  0  0  0  0  0  0  0  0  0  0  0
   49.1849   28.4973   47.5707 H   0  0  0  0  0  0  0  0  0  0  0  0
   44.3807   30.6887   43.0372 H   0  0  0  0  0  0  0  0  0  0  0  0
   44.1445   31.5781   41.4945 H   0  0  0  0  0  0  0  0  0  0  0  0
   44.9728   29.9842   41.4945 H   0  0  0  0  0  0  0  0  0  0  0  0
   47.6968   30.3288   42.9359 H   0  0  0  0  0  0  0  0  0  0  0  0
   46.9092   29.8139   41.4058 H   0  0  0  0  0  0  0  0  0  0  0  0
   48.0512   31.2005   41.4058 H   0  0  0  0  0  0  0  0  0  0  0  0
   46.1758   32.3823   40.3780 H   0  0  0  0  0  0  0  0  0  0  0  0
   46.1690   35.5257   42.0072 H   0  0  0  0  0  0  0  0  0  0  0  0
   44.2124   36.9874   42.1179 H   0  0  0  0  0  0  0  0  0  0  0  0
   41.7392   33.7420   41.0698 H   0  0  0  0  0  0  0  0  0  0  0  0
   49.1610   34.6473   44.0588 H   0  0  0  0  0  0  0  0  0  0  0  0
   47.6187   33.7580   43.9435 H   0  0  0  0  0  0  0  0  0  0  0  0
  1  5  1  0
  2  3  2  0
  2  9  1  0
  4  3  1  0
  5  4  1  0
  5  6  2  0
  6  2  1  0
  8  7  2  0
  9  8  1  0
 10  9  2  0
 10 11  1  0
 11 12  2  0
 12  7  1  0
 13  1  1  0
 14  1  1  0
 15 22  1  0
 15 16  1  0
 15  1  1  0
 16 17  2  0
 17 18  1  0
 19 18  2  0
 20 19  1  0
 21 20  2  0
 21 16  1  0
 22 23  1  0
 23 24  2  0
 23 25  1  0
 26 22  1  0
 27 26  1  0
 28 26  1  0
 29 26  1  0
  3 30  1  0
  7 31  1  0
  8 32  1  0
 11 33  1  0
 13 34  1  0
 13 35  1  0
 13 36  1  0
 14 37  1  0
 14 38  1  0
 14 39  1  0
 15 40  1  6
 17 41  1  0
 18 42  1  0
 20 43  1  0
 25 44  1  0
 25 45  1  0
M  ISO  8  30  14  31  14  32  14  33  14  34   8  35   8  36   8  37   8
M  ISO  6  38   8  39   8  40   8  41  14  42  14  43  14
M  END
>  <minimizedAffinity>  (1) 
-5.228302

>  <minimizedRMSD>  (1) 
1.96201539

$$$$
