
     RDKit          3D

 35 37  0  0  1  0  0  0  0  0999 V2000
   43.5120   34.8540   41.1790 C   0  0  2  0  0  0  0  0  0  0  0  0
   42.1440   35.3020   41.6400 C   0  0  0  0  0  0  0  0  0  0  0  0
   41.1650   35.5610   40.6150 C   0  0  0  0  0  0  0  0  0  0  0  0
   41.4780   35.3960   39.2090 C   0  0  1  0  0  0  0  0  0  0  0  0
   42.8690   35.0410   38.8700 C   0  0  0  0  0  0  0  0  0  0  0  0
   43.4350   34.1020   39.8970 C   0  0  0  0  0  0  0  0  0  0  0  0
   44.7930   34.9610   43.2600 C   0  0  0  0  0  0  0  0  0  0  0  0
   44.2110   34.1940   42.2670 C   0  0  0  0  0  0  0  0  0  0  0  0
   44.3510   32.8160   42.3790 C   0  0  0  0  0  0  0  0  0  0  0  0
   45.0240   32.2730   43.4100 N   0  0  0  0  0  0  0  0  0  0  0  0
   45.5880   33.0410   44.3730 C   0  0  0  0  0  0  0  0  0  0  0  0
   45.4670   34.3730   44.2890 N   0  0  0  0  0  0  0  0  0  0  0  0
   46.3100   32.4150   45.4750 C   0  0  0  0  0  0  0  0  0  0  0  0
   46.8060   31.1380   45.3050 C   0  0  0  0  0  0  0  0  0  0  0  0
   47.4820   30.5850   46.3770 C   0  0  0  0  0  0  0  0  0  0  0  0
   47.6300   31.2940   47.5210 N   0  0  0  0  0  0  0  0  0  0  0  0
   47.1420   32.5380   47.6750 C   0  0  0  0  0  0  0  0  0  0  0  0
   46.4720   33.0960   46.6250 N   0  0  0  0  0  0  0  0  0  0  0  0
   40.5220   34.3510   38.6260 C   0  0  0  0  0  0  0  0  0  0  0  0
   39.7630   33.7250   39.5950 F   0  0  0  0  0  0  0  0  0  0  0  0
   39.6110   35.0240   37.8060 F   0  0  0  0  0  0  0  0  0  0  0  0
   41.2210   33.4610   37.8340 F   0  0  0  0  0  0  0  0  0  0  0  0
   44.1355   35.7242   40.9259 H   0  0  0  0  0  0  0  0  0  0  0  0
   41.9071   35.4245   42.7072 H   0  0  0  0  0  0  0  0  0  0  0  0
   40.1570   35.8915   40.9059 H   0  0  0  0  0  0  0  0  0  0  0  0
   41.3510   36.3946   38.7656 H   0  0  0  0  0  0  0  0  0  0  0  0
   42.8888   34.5541   37.8838 H   0  0  0  0  0  0  0  0  0  0  0  0
   43.4768   35.9577   38.8513 H   0  0  0  0  0  0  0  0  0  0  0  0
   42.7784   33.2269   40.0113 H   0  0  0  0  0  0  0  0  0  0  0  0
   44.4288   33.7411   39.5934 H   0  0  0  0  0  0  0  0  0  0  0  0
   44.7112   36.0572   43.2191 H   0  0  0  0  0  0  0  0  0  0  0  0
   43.9062   32.1610   41.6154 H   0  0  0  0  0  0  0  0  0  0  0  0
   46.6701   30.5872   44.3626 H   0  0  0  0  0  0  0  0  0  0  0  0
   47.8991   29.5700   46.3005 H   0  0  0  0  0  0  0  0  0  0  0  0
   47.2786   33.0883   48.6176 H   0  0  0  0  0  0  0  0  0  0  0  0
  1  2  1  0
  1  8  1  0
  3  2  2  0
  4  3  1  0
  5  4  1  0
  5  6  1  0
  6  1  1  0
  7 12  2  0
  8  9  2  0
  8  7  1  0
  9 10  1  0
 10 11  2  0
 11 13  1  0
 12 11  1  0
 13 18  1  0
 14 13  2  0
 14 15  1  0
 15 16  2  0
 16 17  1  0
 18 17  2  0
 19  4  1  0
 19 20  1  0
 21 19  1  0
 22 19  1  0
  1 23  1  6
  2 24  1  0
  3 25  1  0
  4 26  1  6
  5 27  1  0
  5 28  1  0
  6 29  1  0
  6 30  1  0
  7 31  1  0
  9 32  1  0
 14 33  1  0
 15 34  1  0
 17 35  1  0
M  ISO  8  23  13  24  13  25  13  26  13  27  13  28  13  29  13  30  13
M  ISO  5  31  14  32  14  33  14  34  14  35  14
M  END
>  <minimizedAffinity>  (1) 
-5.5467968

>  <minimizedRMSD>  (1) 
5.23032904

$$$$
