
     RDKit          3D

 44 47  0  0  1  0  0  0  0  0999 V2000
   45.7610   33.6770   42.1560 N   0  0  0  0  0  0  0  0  0  0  0  0
   46.9700   33.8800   41.3620 C   0  0  0  0  0  0  0  0  0  0  0  0
   46.3700   33.8280   39.9750 C   0  0  0  0  0  0  0  0  0  0  0  0
   45.5540   32.5670   40.0740 C   0  0  0  0  0  0  0  0  0  0  0  0
   44.9820   32.6560   41.4410 C   0  0  2  0  0  0  0  0  0  0  0  0
   44.4930   36.1380   44.6370 C   0  0  0  0  0  0  0  0  0  0  0  0
   44.8620   35.5800   43.4050 C   0  0  0  0  0  0  0  0  0  0  0  0
   45.3720   34.2970   43.3470 C   0  0  0  0  0  0  0  0  0  0  0  0
   45.4860   33.6350   44.5370 N   0  0  0  0  0  0  0  0  0  0  0  0
   45.1320   34.1710   45.7190 C   0  0  0  0  0  0  0  0  0  0  0  0
   44.6370   35.4210   45.7640 N   0  0  0  0  0  0  0  0  0  0  0  0
   45.3230   33.3230   46.8450 N   0  0  0  0  0  0  0  0  0  0  0  0
   43.5740   32.8290   41.5400 N   0  0  0  0  0  0  0  0  0  0  0  0
   42.8730   33.8970   41.1790 C   0  0  0  0  0  0  0  0  0  0  0  0
   41.4920   33.9900   41.3060 C   0  0  0  0  0  0  0  0  0  0  0  0
   40.7970   32.9220   41.8350 C   0  0  0  0  0  0  0  0  0  0  0  0
   39.5340   32.9430   41.9790 O   0  0  0  0  0  0  0  0  0  0  0  0
   41.5090   31.8420   42.1990 N   0  0  0  0  0  0  0  0  0  0  0  0
   42.8190   31.8210   42.0500 C   0  0  0  0  0  0  0  0  0  0  0  0
   43.4130   30.7480   42.4260 O   0  0  0  0  0  0  0  0  0  0  0  0
   40.7530   35.1980   40.8910 C   0  0  0  0  0  0  0  0  0  0  0  0
   40.4510   35.0890   39.4370 C   0  0  0  0  0  0  0  0  0  0  0  0
   39.4180   34.4120   38.8220 C   0  0  0  0  0  0  0  0  0  0  0  0
   39.6370   34.6610   37.4800 C   0  0  0  0  0  0  0  0  0  0  0  0
   40.7210   35.4320   37.2950 N   0  0  0  0  0  0  0  0  0  0  0  0
   41.2290   35.7000   38.5010 N   0  0  0  0  0  0  0  0  0  0  0  0
   47.4388   34.8531   41.5700 H   0  0  0  0  0  0  0  0  0  0  0  0
   47.7793   33.1589   41.5491 H   0  0  0  0  0  0  0  0  0  0  0  0
   47.1464   33.7491   39.1997 H   0  0  0  0  0  0  0  0  0  0  0  0
   45.7969   34.7228   39.6905 H   0  0  0  0  0  0  0  0  0  0  0  0
   44.7606   32.5470   39.3124 H   0  0  0  0  0  0  0  0  0  0  0  0
   46.1411   31.6523   39.9048 H   0  0  0  0  0  0  0  0  0  0  0  0
   45.0796   31.6691   41.9170 H   0  0  0  0  0  0  0  0  0  0  0  0
   44.0870   37.1594   44.6808 H   0  0  0  0  0  0  0  0  0  0  0  0
   44.7451   36.1656   42.4812 H   0  0  0  0  0  0  0  0  0  0  0  0
   45.0773   33.6561   47.7882 H   0  0  0  0  0  0  0  0  0  0  0  0
   45.7070   32.3758   46.7172 H   0  0  0  0  0  0  0  0  0  0  0  0
   43.4150   34.7557   40.7560 H   0  0  0  0  0  0  0  0  0  0  0  0
   41.0273   31.0236   42.5978 H   0  0  0  0  0  0  0  0  0  0  0  0
   39.8149   35.2734   41.4605 H   0  0  0  0  0  0  0  0  0  0  0  0
   41.3581   36.0959   41.0846 H   0  0  0  0  0  0  0  0  0  0  0  0
   38.6161   33.8190   39.2861 H   0  0  0  0  0  0  0  0  0  0  0  0
   39.0038   34.2765   36.6669 H   0  0  0  0  0  0  0  0  0  0  0  0
   41.0920   35.7566   36.3906 H   0  0  0  0  0  0  0  0  0  0  0  0
  1  8  1  0
  2  1  1  0
  3  4  1  0
  3  2  1  0
  4  5  1  0
  5 13  1  0
  5  1  1  0
  6 11  2  0
  7  6  1  0
  8  7  2  0
  8  9  1  0
  9 10  2  0
 10 11  1  0
 10 12  1  0
 13 19  1  0
 14 15  2  0
 14 13  1  0
 15 16  1  0
 16 17  2  0
 16 18  1  0
 19 18  1  0
 19 20  2  0
 21 15  1  0
 22 21  1  0
 23 22  1  0
 24 23  2  0
 25 24  1  0
 25 26  1  0
 26 22  2  0
  2 27  1  0
  2 28  1  0
  3 29  1  0
  3 30  1  0
  4 31  1  0
  4 32  1  0
  5 33  1  1
  6 34  1  0
  7 35  1  0
 12 36  1  0
 12 37  1  0
 14 38  1  0
 18 39  1  0
 21 40  1  0
 21 41  1  0
 23 42  1  0
 24 43  1  0
 25 44  1  0
M  ISO  8  27  13  28  13  29  13  30  13  31  13  32  13  33  13  34  14
M  ISO  8  35  14  38  14  39   9  40   8  41   8  42  14  43  14  44   9
M  END
>  <minimizedAffinity>  (1) 
-6.66963863

>  <minimizedRMSD>  (1) 
1.16409218

$$$$
