
     RDKit          3D

 51 55  0  0  1  0  0  0  0  0999 V2000
   49.0650   35.5530   41.9090 C   0  0  0  0  0  0  0  0  0  0  0  0
   46.8120   34.5320   41.3740 C   0  0  0  0  0  0  0  0  0  0  0  0
   48.1080   34.8730   40.9910 C   0  0  0  0  0  0  0  0  0  0  0  0
   48.3430   34.5150   39.7460 N   0  0  0  0  0  0  0  0  0  0  0  0
   47.2250   33.9380   39.2860 C   0  0  0  0  0  0  0  0  0  0  0  0
   46.9470   33.3890   38.0330 C   0  0  0  0  0  0  0  0  0  0  0  0
   45.6930   32.8520   37.8240 C   0  0  0  0  0  0  0  0  0  0  0  0
   44.6920   32.8140   38.7530 C   0  0  0  0  0  0  0  0  0  0  0  0
   45.0160   33.3690   39.9720 C   0  0  0  0  0  0  0  0  0  0  0  0
   46.2390   33.9250   40.2680 C   0  0  0  0  0  0  0  0  0  0  0  0
   44.7350   36.0730   44.0540 C   0  0  0  0  0  0  0  0  0  0  0  0
   45.3610   35.8810   42.8030 C   0  0  0  0  0  0  0  0  0  0  0  0
   46.1590   34.7470   42.6530 C   0  0  0  0  0  0  0  0  0  0  0  0
   46.3050   33.8750   43.7080 N   0  0  0  0  0  0  0  0  0  0  0  0
   45.6730   34.1250   44.8800 C   0  0  0  0  0  0  0  0  0  0  0  0
   44.8920   35.2130   45.0590 N   0  0  0  0  0  0  0  0  0  0  0  0
   49.9630   34.5790   42.5910 C   0  0  0  0  0  0  0  0  0  0  0  0
   50.0880   33.2420   41.8930 C   0  0  1  0  0  0  0  0  0  0  0  0
   50.9970   32.1870   42.3320 C   0  0  0  0  0  0  0  0  0  0  0  0
   49.5760   32.0610   42.7380 C   0  0  2  0  0  0  0  0  0  0  0  0
   48.8300   31.0880   42.1170 O   0  0  0  0  0  0  0  0  0  0  0  0
   44.8970   29.9060   42.7120 C   0  0  0  0  0  0  0  0  0  0  0  0
   45.6870   30.1450   43.8190 C   0  0  0  0  0  0  0  0  0  0  0  0
   47.0060   30.5420   43.7010 C   0  0  0  0  0  0  0  0  0  0  0  0
   47.5390   30.7000   42.4360 C   0  0  0  0  0  0  0  0  0  0  0  0
   46.7770   30.4690   41.2840 C   0  0  0  0  0  0  0  0  0  0  0  0
   45.4450   30.0690   41.4480 C   0  0  0  0  0  0  0  0  0  0  0  0
   43.2300   29.4050   42.9160 S   0  0  0  0  0  0  0  0  0  0  0  0
   42.3180   30.5780   42.7120 O   0  0  0  0  0  0  0  0  0  0  0  0
   42.9850   28.8770   44.3010 O   0  0  0  0  0  0  0  0  0  0  0  0
   48.4960   36.1066   42.6705 H   0  0  0  0  0  0  0  0  0  0  0  0
   49.6890   36.2330   41.3105 H   0  0  0  0  0  0  0  0  0  0  0  0
   49.2204   34.6526   39.2244 H   0  0  0  0  0  0  0  0  0  0  0  0
   47.7050   33.3846   37.2359 H   0  0  0  0  0  0  0  0  0  0  0  0
   45.4834   32.4216   36.8336 H   0  0  0  0  0  0  0  0  0  0  0  0
   43.7052   32.3750   38.5444 H   0  0  0  0  0  0  0  0  0  0  0  0
   44.2474   33.3673   40.7589 H   0  0  0  0  0  0  0  0  0  0  0  0
   44.0993   36.9583   44.2029 H   0  0  0  0  0  0  0  0  0  0  0  0
   45.2247   36.5974   41.9794 H   0  0  0  0  0  0  0  0  0  0  0  0
   45.7999   33.4187   45.7137 H   0  0  0  0  0  0  0  0  0  0  0  0
   50.9658   35.0259   42.6585 H   0  0  0  0  0  0  0  0  0  0  0  0
   49.5139   34.3765   43.5745 H   0  0  0  0  0  0  0  0  0  0  0  0
   49.9316   33.6990   40.9047 H   0  0  0  0  0  0  0  0  0  0  0  0
   51.4124   31.4877   41.5915 H   0  0  0  0  0  0  0  0  0  0  0  0
   51.9477   32.1856   42.8853 H   0  0  0  0  0  0  0  0  0  0  0  0
   49.0219   31.9543   43.6823 H   0  0  0  0  0  0  0  0  0  0  0  0
   45.2550   30.0160   44.8223 H   0  0  0  0  0  0  0  0  0  0  0  0
   47.6184   30.7282   44.5956 H   0  0  0  0  0  0  0  0  0  0  0  0
   47.2112   30.5977   40.2815 H   0  0  0  0  0  0  0  0  0  0  0  0
   44.8232   29.8810   40.5603 H   0  0  0  0  0  0  0  0  0  0  0  0
   42.9827   28.4204   41.9961 H   0  0  0  0  0  0  0  0  0  0  0  0
  1 17  1  0
  2 13  1  0
  3  2  2  0
  3  1  1  0
  4  3  1  0
  5  4  1  0
  5 10  2  0
  6  5  1  0
  7  6  2  0
  7  8  1  0
  8  9  2  0
  9 10  1  0
 10  2  1  0
 11 16  2  0
 12 11  1  0
 13 12  2  0
 13 14  1  0
 14 15  2  0
 15 16  1  0
 18 19  1  0
 18 17  1  0
 18 20  1  0
 19 20  1  0
 21 25  1  0
 21 20  1  0
 22 28  1  0
 22 23  2  0
 24 23  1  0
 25 24  2  0
 26 27  2  0
 26 25  1  0
 27 22  1  0
 28 30  2  0
 29 28  2  0
  1 31  1  0
  1 32  1  0
  4 33  1  0
  6 34  1  0
  7 35  1  0
  8 36  1  0
  9 37  1  0
 11 38  1  0
 12 39  1  0
 15 40  1  0
 17 41  1  0
 17 42  1  0
 18 43  1  6
 19 44  1  0
 19 45  1  0
 20 46  1  1
 23 47  1  0
 24 48  1  0
 26 49  1  0
 27 50  1  0
 28 51  1  0
M  ISO  8  31   8  32   8  33   9  34  14  35  14  36  14  37  14  38  14
M  ISO  8  39  14  40  14  41   8  42   8  43  13  44  13  45  13  46  13
M  ISO  5  47  14  48  14  49  14  50  14  51  11
M  END
>  <minimizedAffinity>  (1) 
-5.57294273

>  <minimizedRMSD>  (1) 
1.12282336

$$$$
