
     RDKit          3D

 38 40  0  0  1  0  0  0  0  0999 V2000
   46.1290   33.5820   45.3050 C   0  0  2  0  0  0  0  0  0  0  0  0
   44.9760   34.6760   45.5170 C   0  0  0  0  0  0  0  0  0  0  0  0
   44.7370   35.5980   44.4380 C   0  0  0  0  0  0  0  0  0  0  0  0
   45.5160   35.5060   43.2140 C   0  0  1  0  0  0  0  0  0  0  0  0
   46.6040   34.5050   43.1840 C   0  0  0  0  0  0  0  0  0  0  0  0
   46.1160   33.2630   43.9260 C   0  0  0  0  0  0  0  0  0  0  0  0
   45.3840   32.9110   47.5710 C   0  0  0  0  0  0  0  0  0  0  0  0
   45.9000   32.6260   46.3400 C   0  0  0  0  0  0  0  0  0  0  0  0
   46.1300   31.2620   46.0920 C   0  0  0  0  0  0  0  0  0  0  0  0
   45.8580   30.3060   46.9970 N   0  0  0  0  0  0  0  0  0  0  0  0
   45.3370   30.6400   48.2290 C   0  0  0  0  0  0  0  0  0  0  0  0
   45.1120   31.9230   48.4920 N   0  0  0  0  0  0  0  0  0  0  0  0
   45.0690   29.6390   49.2030 N   0  0  0  0  0  0  0  0  0  0  0  0
   46.7070   30.5250   44.9760 C   0  0  0  0  0  0  0  0  0  0  0  0
   48.0870   30.4420   44.7070 C   0  0  0  0  0  0  0  0  0  0  0  0
   48.6870   29.7710   43.6700 C   0  0  0  0  0  0  0  0  0  0  0  0
   47.8220   29.1180   42.8190 C   0  0  0  0  0  0  0  0  0  0  0  0
   46.4760   29.1900   43.0700 C   0  0  0  0  0  0  0  0  0  0  0  0
   45.9310   29.8510   44.0850 N   0  0  0  0  0  0  0  0  0  0  0  0
   44.5210   35.2300   42.0580 C   0  0  0  0  0  0  0  0  0  0  0  0
   43.4870   34.4020   42.4290 F   0  0  0  0  0  0  0  0  0  0  0  0
   43.9530   36.4570   41.7270 F   0  0  0  0  0  0  0  0  0  0  0  0
   45.2160   34.7900   40.9400 F   0  0  0  0  0  0  0  0  0  0  0  0
   47.1901   33.8361   45.4446 H   0  0  0  0  0  0  0  0  0  0  0  0
   44.3921   34.7200   46.4482 H   0  0  0  0  0  0  0  0  0  0  0  0
   43.9636   36.3736   44.5396 H   0  0  0  0  0  0  0  0  0  0  0  0
   46.0503   36.4631   43.1223 H   0  0  0  0  0  0  0  0  0  0  0  0
   46.8469   34.2474   42.1425 H   0  0  0  0  0  0  0  0  0  0  0  0
   47.5094   34.9072   43.6619 H   0  0  0  0  0  0  0  0  0  0  0  0
   45.0954   33.0066   43.6058 H   0  0  0  0  0  0  0  0  0  0  0  0
   46.7600   32.3968   43.7141 H   0  0  0  0  0  0  0  0  0  0  0  0
   45.1795   33.9590   47.8353 H   0  0  0  0  0  0  0  0  0  0  0  0
   44.6797   29.9031   50.1193 H   0  0  0  0  0  0  0  0  0  0  0  0
   45.2642   28.6499   48.9921 H   0  0  0  0  0  0  0  0  0  0  0  0
   48.7556   30.9712   45.4019 H   0  0  0  0  0  0  0  0  0  0  0  0
   49.7778   29.7559   43.5290 H   0  0  0  0  0  0  0  0  0  0  0  0
   48.2032   28.5511   41.9568 H   0  0  0  0  0  0  0  0  0  0  0  0
   45.7992   28.6627   42.3816 H   0  0  0  0  0  0  0  0  0  0  0  0
  1  2  1  0
  1  8  1  0
  3  2  2  0
  4  3  1  0
  5  4  1  0
  5  6  1  0
  6  1  1  0
  7 12  2  0
  8  7  1  0
  9  8  2  0
  9 10  1  0
 10 11  2  0
 11 12  1  0
 11 13  1  0
 14  9  1  0
 15 14  2  0
 16 15  1  0
 17 18  1  0
 17 16  2  0
 18 19  2  0
 19 14  1  0
 20 21  1  0
 20  4  1  0
 22 20  1  0
 23 20  1  0
  1 24  1  1
  2 25  1  0
  3 26  1  0
  4 27  1  6
  5 28  1  0
  5 29  1  0
  6 30  1  0
  6 31  1  0
  7 32  1  0
 13 33  1  0
 13 34  1  0
 15 35  1  0
 16 36  1  0
 17 37  1  0
 18 38  1  0
M  ISO  8  24  13  25  13  26  13  27  13  28  13  29  13  30  13  31  13
M  ISO  5  32  14  35  14  36  14  37  14  38  14
M  END
>  <minimizedAffinity>  (1) 
-5.69211006

>  <minimizedRMSD>  (1) 
0.500581622

$$$$
