
     RDKit          3D

 35 37  0  0  0  0  0  0  0  0999 V2000
   46.1080   34.1080   41.9850 C   0  0  0  0  0  0  0  0  0  0  0  0
   45.5860   33.8530   45.6150 C   0  0  0  0  0  0  0  0  0  0  0  0
   44.7820   34.9290   45.8050 C   0  0  0  0  0  0  0  0  0  0  0  0
   44.6070   35.6260   44.1380 S   0  0  0  0  0  0  0  0  0  0  0  0
   45.7200   34.2580   43.4270 C   0  0  0  0  0  0  0  0  0  0  0  0
   45.9740   33.6430   44.3850 N   0  0  0  0  0  0  0  0  0  0  0  0
   45.5510   31.9460   48.9150 C   0  0  0  0  0  0  0  0  0  0  0  0
   45.1580   32.7600   47.8610 C   0  0  0  0  0  0  0  0  0  0  0  0
   45.9850   32.9830   46.7550 C   0  0  0  0  0  0  0  0  0  0  0  0
   47.1640   32.3520   46.8060 N   0  0  0  0  0  0  0  0  0  0  0  0
   47.5750   31.5560   47.8120 C   0  0  0  0  0  0  0  0  0  0  0  0
   46.7610   31.3660   48.8470 N   0  0  0  0  0  0  0  0  0  0  0  0
   44.9210   34.5760   41.1780 C   0  0  0  0  0  0  0  0  0  0  0  0
   46.4020   32.6670   41.7370 C   0  0  0  0  0  0  0  0  0  0  0  0
   47.2890   34.9900   41.6600 C   0  0  0  0  0  0  0  0  0  0  0  0
   48.5760   34.2990   41.7790 C   0  0  0  0  0  0  0  0  0  0  0  0
   49.5510   34.2830   42.7660 C   0  0  0  0  0  0  0  0  0  0  0  0
   50.5740   33.4360   42.3310 C   0  0  0  0  0  0  0  0  0  0  0  0
   50.1960   32.9780   41.1270 N   0  0  0  0  0  0  0  0  0  0  0  0
   49.0190   33.4900   40.8060 N   0  0  0  0  0  0  0  0  0  0  0  0
   44.3412   35.2925   46.7450 H   0  0  0  0  0  0  0  0  0  0  0  0
   44.8915   31.7809   49.7797 H   0  0  0  0  0  0  0  0  0  0  0  0
   44.1700   33.2424   47.8966 H   0  0  0  0  0  0  0  0  0  0  0  0
   48.5628   31.0733   47.7784 H   0  0  0  0  0  0  0  0  0  0  0  0
   44.1170   34.8930   41.8585 H   0  0  0  0  0  0  0  0  0  0  0  0
   45.2200   35.4235   40.5438 H   0  0  0  0  0  0  0  0  0  0  0  0
   44.5611   33.7524   40.5438 H   0  0  0  0  0  0  0  0  0  0  0  0
   46.5088   32.1438   42.6987 H   0  0  0  0  0  0  0  0  0  0  0  0
   45.5770   32.2177   41.1647 H   0  0  0  0  0  0  0  0  0  0  0  0
   47.3371   32.5768   41.1647 H   0  0  0  0  0  0  0  0  0  0  0  0
   47.2866   35.8460   42.3509 H   0  0  0  0  0  0  0  0  0  0  0  0
   47.1829   35.3049   40.6114 H   0  0  0  0  0  0  0  0  0  0  0  0
   49.5238   34.8357   43.7167 H   0  0  0  0  0  0  0  0  0  0  0  0
   51.5030   33.1932   42.8677 H   0  0  0  0  0  0  0  0  0  0  0  0
   50.7395   32.3272   40.5422 H   0  0  0  0  0  0  0  0  0  0  0  0
  1  5  1  0
  2  3  2  0
  2  9  1  0
  4  3  1  0
  5  4  1  0
  5  6  2  0
  6  2  1  0
  8  7  2  0
  9 10  2  0
  9  8  1  0
 10 11  1  0
 11 12  2  0
 12  7  1  0
 13  1  1  0
 14  1  1  0
 15 16  1  0
 15  1  1  0
 16 17  1  0
 18 17  2  0
 19 18  1  0
 20 19  1  0
 20 16  2  0
  3 21  1  0
  7 22  1  0
  8 23  1  0
 11 24  1  0
 13 25  1  0
 13 26  1  0
 13 27  1  0
 14 28  1  0
 14 29  1  0
 14 30  1  0
 15 31  1  0
 15 32  1  0
 17 33  1  0
 18 34  1  0
 19 35  1  0
M  ISO  8  21  14  22  14  23  14  24  14  25   8  26   8  27   8  28   8
M  ISO  7  29   8  30   8  31   8  32   8  33  14  34  14  35   9
M  END
>  <minimizedAffinity>  (1) 
-5.65393019

>  <minimizedRMSD>  (1) 
2.64926457

$$$$
