
     RDKit          3D

 23 25  0  0  0  0  0  0  0  0999 V2000
   43.9230   34.0720   41.4930 N   0  0  0  0  0  0  0  0  0  0  0  0
   44.5760   33.8930   40.3620 C   0  0  0  0  0  0  0  0  0  0  0  0
   43.5760   33.7960   39.3490 C   0  0  0  0  0  0  0  0  0  0  0  0
   42.3700   33.9240   39.9060 N   0  0  0  0  0  0  0  0  0  0  0  0
   42.5690   34.0970   41.2320 C   0  0  0  0  0  0  0  0  0  0  0  0
   44.1960   35.4920   43.4130 C   0  0  0  0  0  0  0  0  0  0  0  0
   44.3900   34.2050   42.8020 C   0  0  0  0  0  0  0  0  0  0  0  0
   45.0240   33.1990   43.5410 C   0  0  0  0  0  0  0  0  0  0  0  0
   45.4380   33.4670   44.8110 N   0  0  0  0  0  0  0  0  0  0  0  0
   45.2370   34.7050   45.3620 C   0  0  0  0  0  0  0  0  0  0  0  0
   44.6190   35.7110   44.6710 N   0  0  0  0  0  0  0  0  0  0  0  0
   46.0050   33.8460   40.0920 C   0  0  0  0  0  0  0  0  0  0  0  0
   46.4790   33.0040   38.9740 C   0  0  0  0  0  0  0  0  0  0  0  0
   48.2660   33.2230   38.9800 S   0  0  0  0  0  0  0  0  0  0  0  0
   48.1760   34.3840   40.4360 C   0  0  0  0  0  0  0  0  0  0  0  0
   47.0440   34.4190   40.6490 N   0  0  0  0  0  0  0  0  0  0  0  0
   43.7688   33.6402   38.2773 H   0  0  0  0  0  0  0  0  0  0  0  0
   41.7772   34.2356   41.9829 H   0  0  0  0  0  0  0  0  0  0  0  0
   43.7013   36.2981   42.8513 H   0  0  0  0  0  0  0  0  0  0  0  0
   45.1860   32.2038   43.1013 H   0  0  0  0  0  0  0  0  0  0  0  0
   45.5822   34.8955   46.3889 H   0  0  0  0  0  0  0  0  0  0  0  0
   45.8770   32.3844   38.2930 H   0  0  0  0  0  0  0  0  0  0  0  0
   48.9937   34.9026   40.9579 H   0  0  0  0  0  0  0  0  0  0  0  0
  1  7  1  0
  2  1  1  0
  3  4  1  0
  3  2  2  0
  4  5  2  0
  5  1  1  0
  6 11  2  0
  7  6  1  0
  7  8  2  0
  8  9  1  0
  9 10  2  0
 11 10  1  0
 12  2  1  0
 12 16  1  0
 13 14  1  0
 13 12  2  0
 14 15  1  0
 15 16  2  0
  3 17  1  0
  5 18  1  0
  6 19  1  0
  8 20  1  0
 10 21  1  0
 13 22  1  0
 15 23  1  0
M  ISO  7  17  14  18  14  19  14  20  14  21  14  22  14  23  14
M  END
>  <minimizedAffinity>  (1) 
-3.89418077

>  <minimizedRMSD>  (1) 
1.22160852

$$$$
