
     RDKit          3D

 42 44  0  0  1  0  0  0  0  0999 V2000
   41.5400   33.9820   39.4450 C   0  0  2  0  0  0  0  0  0  0  0  0
   41.8770   35.3650   38.9150 C   0  0  0  0  0  0  0  0  0  0  0  0
   40.9210   35.5980   37.7500 C   0  0  0  0  0  0  0  0  0  0  0  0
   39.7510   34.6630   37.7560 C   0  0  0  0  0  0  0  0  0  0  0  0
   39.1850   34.4840   39.1470 C   0  0  0  0  0  0  0  0  0  0  0  0
   40.2170   34.0340   40.1340 C   0  0  1  0  0  0  0  0  0  0  0  0
   39.8710   32.6630   40.5910 C   0  0  0  0  0  0  0  0  0  0  0  0
   39.8300   32.1710   41.9980 C   0  0  0  0  0  0  0  0  0  0  0  0
   39.3200   30.3700   41.7090 S   0  0  0  0  0  0  0  0  0  0  0  0
   39.2680   30.6140   39.8880 C   0  0  0  0  0  0  0  0  0  0  0  0
   39.5770   31.8150   39.6200 N   0  0  0  0  0  0  0  0  0  0  0  0
   42.5440   33.4750   40.2420 O   0  0  0  0  0  0  0  0  0  0  0  0
   43.7740   34.1140   40.0450 C   0  0  0  0  0  0  0  0  0  0  0  0
   44.4000   34.2510   41.3740 C   0  0  1  0  0  0  0  0  0  0  0  0
   45.8920   34.4360   41.2700 C   0  0  0  0  0  0  0  0  0  0  0  0
   46.4560   33.8850   40.1000 C   0  0  0  0  0  0  0  0  0  0  0  0
   47.8390   34.0200   39.9230 C   0  0  0  0  0  0  0  0  0  0  0  0
   48.5420   34.6850   40.9120 N   0  0  0  0  0  0  0  0  0  0  0  0
   47.9600   35.1910   42.0090 C   0  0  0  0  0  0  0  0  0  0  0  0
   46.6210   35.0770   42.2100 N   0  0  0  0  0  0  0  0  0  0  0  0
   43.7460   35.2940   42.2550 C   0  0  0  0  0  0  0  0  0  0  0  0
   41.4623   33.2782   38.6032 H   0  0  0  0  0  0  0  0  0  0  0  0
   41.7236   36.1241   39.6961 H   0  0  0  0  0  0  0  0  0  0  0  0
   42.9288   35.4369   38.6009 H   0  0  0  0  0  0  0  0  0  0  0  0
   41.4747   35.4604   36.8095 H   0  0  0  0  0  0  0  0  0  0  0  0
   40.5257   36.6198   37.8485 H   0  0  0  0  0  0  0  0  0  0  0  0
   38.9662   35.0699   37.1014 H   0  0  0  0  0  0  0  0  0  0  0  0
   40.0945   33.6817   37.3967 H   0  0  0  0  0  0  0  0  0  0  0  0
   38.7695   35.4449   39.4848 H   0  0  0  0  0  0  0  0  0  0  0  0
   38.4112   33.7040   39.0944 H   0  0  0  0  0  0  0  0  0  0  0  0
   40.2546   34.7248   40.9892 H   0  0  0  0  0  0  0  0  0  0  0  0
   40.0373   32.7034   42.9380 H   0  0  0  0  0  0  0  0  0  0  0  0
   39.0101   29.8418   39.1483 H   0  0  0  0  0  0  0  0  0  0  0  0
   44.4137   33.5092   39.3854 H   0  0  0  0  0  0  0  0  0  0  0  0
   43.6371   35.0965   39.5697 H   0  0  0  0  0  0  0  0  0  0  0  0
   44.2223   33.2956   41.8894 H   0  0  0  0  0  0  0  0  0  0  0  0
   45.8331   33.3688   39.3547 H   0  0  0  0  0  0  0  0  0  0  0  0
   48.3451   33.6142   39.0347 H   0  0  0  0  0  0  0  0  0  0  0  0
   48.5772   35.7072   42.7591 H   0  0  0  0  0  0  0  0  0  0  0  0
   43.9082   35.0353   43.3118 H   0  0  0  0  0  0  0  0  0  0  0  0
   44.1882   36.2794   42.0467 H   0  0  0  0  0  0  0  0  0  0  0  0
   42.6664   35.3252   42.0467 H   0  0  0  0  0  0  0  0  0  0  0  0
  1  6  1  0
  1 12  1  0
  2  1  1  0
  3  4  1  0
  3  2  1  0
  4  5  1  0
  5  6  1  0
  6  7  1  0
  7  8  2  0
  9  8  1  0
 10  9  1  0
 11 10  2  0
 11  7  1  0
 13 12  1  0
 13 14  1  0
 14 21  1  0
 15 14  1  0
 15 20  1  0
 16 15  2  0
 17 16  1  0
 17 18  2  0
 18 19  1  0
 19 20  2  0
  1 22  1  6
  2 23  1  0
  2 24  1  0
  3 25  1  0
  3 26  1  0
  4 27  1  0
  4 28  1  0
  5 29  1  0
  5 30  1  0
  6 31  1  1
  8 32  1  0
 10 33  1  0
 13 34  1  0
 13 35  1  0
 14 36  1  1
 16 37  1  0
 17 38  1  0
 19 39  1  0
 21 40  1  0
 21 41  1  0
 21 42  1  0
M  ISO  8  22  13  23  13  24  13  25  13  26  13  27  13  28  13  29  13
M  ISO  8  30  13  31  13  32  14  33  14  34   8  35   8  36   8  37  14
M  ISO  5  38  14  39  14  40   8  41   8  42   8
M  END
>  <minimizedAffinity>  (1) 
-5.26474905

>  <minimizedRMSD>  (1) 
3.73253965

$$$$
