
     RDKit          3D

 35 37  0  0  0  0  0  0  0  0999 V2000
   46.1325   33.6497   45.3170 C   0  0  2  0  0  0  0  0  0  0  0  0
   44.9381   34.6859   45.4757 C   0  0  0  0  0  0  0  0  0  0  0  0
   44.6994   35.5879   44.3755 C   0  0  0  0  0  0  0  0  0  0  0  0
   45.5188   35.5236   43.1783 C   0  0  1  0  0  0  0  0  0  0  0  0
   46.6528   34.5581   43.1857 C   0  0  0  0  0  0  0  0  0  0  0  0
   46.1908   33.3170   43.9315 C   0  0  0  0  0  0  0  0  0  0  0  0
   45.3042   32.9084   47.5292 C   0  0  0  0  0  0  0  0  0  0  0  0
   45.9219   32.6628   46.3325 C   0  0  0  0  0  0  0  0  0  0  0  0
   46.2828   31.3435   46.1114 C   0  0  0  0  0  0  0  0  0  0  0  0
   46.0407   30.3761   47.0042 N   0  0  0  0  0  0  0  0  0  0  0  0
   45.4188   30.6558   48.1988 C   0  0  0  0  0  0  0  0  0  0  0  0
   45.0613   31.9121   48.4420 N   0  0  0  0  0  0  0  0  0  0  0  0
   45.2088   29.6232   49.1654 N   0  0  0  0  0  0  0  0  0  0  0  0
   44.5784   35.1836   41.9928 C   0  0  0  0  0  0  0  0  0  0  0  0
   43.5844   34.2960   42.3333 F   0  0  0  0  0  0  0  0  0  0  0  0
   43.9476   36.3776   41.6500 F   0  0  0  0  0  0  0  0  0  0  0  0
   45.3157   34.7906   40.8947 F   0  0  0  0  0  0  0  0  0  0  0  0
   46.9281   34.3776   45.6569 H   0  0  0  0  0  0  0  0  0  0  0  0
   44.2042   34.9051   46.2507 H   0  0  0  0  0  0  0  0  0  0  0  0
   43.9183   36.3104   44.4085 H   0  0  0  0  0  0  0  0  0  0  0  0
   45.9281   36.5318   42.9257 H   0  0  0  0  0  0  0  0  0  0  0  0
   46.8540   34.2578   42.1393 H   0  0  0  0  0  0  0  0  0  0  0  0
   47.5720   34.9425   43.6663 H   0  0  0  0  0  0  0  0  0  0  0  0
   45.0907   33.2135   43.5693 H   0  0  0  0  0  0  0  0  0  0  0  0
   46.6746   32.5162   43.4537 H   0  0  0  0  0  0  0  0  0  0  0  0
   44.9891   33.8797   47.8029 H   0  0  0  0  0  0  0  0  0  0  0  0
   45.8496   28.8161   49.2458 H   0  0  0  0  0  0  0  0  0  0  0  0
   44.3693   29.7390   49.7808 H   0  0  0  0  0  0  0  0  0  0  0  0
   47.0067   30.7121   45.0129 C   0  0  0  0  0  0  0  0  0  0  0  0
   47.3888   29.3449   44.9440 C   0  0  0  0  0  0  0  0  0  0  0  0
   48.3499   29.3091   43.3702 S   0  0  0  0  0  0  0  0  0  0  0  0
   48.0553   31.1655   43.0947 C   0  0  0  0  0  0  0  0  0  0  0  0
   48.4512   31.7498   42.2009 H   0  0  0  0  0  0  0  0  0  0  0  0
   47.4372   31.4669   43.9920 N   0  0  0  0  0  0  0  0  0  0  0  0
   47.1338   28.6444   45.6540 H   0  0  0  0  0  0  0  0  0  0  0  0
  1  2  1  0
  1  8  1  0
  3  2  2  0
  4  5  1  0
  4  3  1  0
  5  6  1  0
  6  1  1  0
  7 12  2  0
  8  7  1  0
  9  8  2  0
  9 10  1  0
 10 11  2  0
 11 12  1  0
 11 13  1  0
 14 15  1  0
 14  4  1  0
 16 14  1  0
 17 14  1  0
  1 18  1  1
  2 19  1  0
  3 20  1  0
  4 21  1  6
  5 22  1  0
  5 23  1  0
  6 24  1  0
  6 25  1  0
  7 26  1  0
 13 27  1  0
 13 28  1  0
 29 30  2  0
 30 31  1  0
 31 32  1  0
 32 33  1  0
 32 34  2  0
 34 29  1  0
 30 35  1  0
  9 29  1  0
M  ISO  8  18  13  19  13  20  13  21  13  22  13  23  13  24  13  25  13
M  ISO  2  26  14  33  14
M  END
>  <DihAtoms>  (1) 
7,8,28,29

>  <DihDeg>  (1) 
-124.17565967023396

$$$$
