
     RDKit          3D

 42 44  0  0  1  0  0  0  0  0999 V2000
   44.5270   35.6340   43.4890 C   0  0  1  0  0  0  0  0  0  0  0  0
   45.5330   34.6290   43.8870 C   0  0  0  0  0  0  0  0  0  0  0  0
   46.5770   34.3230   42.9690 C   0  0  0  0  0  0  0  0  0  0  0  0
   47.5510   33.3740   43.3170 C   0  0  0  0  0  0  0  0  0  0  0  0
   47.4290   32.7980   44.5370 N   0  0  0  0  0  0  0  0  0  0  0  0
   46.4580   33.0930   45.3720 C   0  0  0  0  0  0  0  0  0  0  0  0
   45.5050   34.0040   45.0620 N   0  0  0  0  0  0  0  0  0  0  0  0
   46.3360   32.4640   46.6940 C   0  0  0  0  0  0  0  0  0  0  0  0
   47.3470   31.5830   47.1060 C   0  0  0  0  0  0  0  0  0  0  0  0
   46.7170   31.0880   48.7920 S   0  0  0  0  0  0  0  0  0  0  0  0
   45.2010   32.1770   48.6100 C   0  0  0  0  0  0  0  0  0  0  0  0
   45.3950   32.5960   47.5950 N   0  0  0  0  0  0  0  0  0  0  0  0
   45.1260   37.0350   43.5780 C   0  0  0  0  0  0  0  0  0  0  0  0
   43.9970   35.4140   42.1140 C   0  0  0  0  0  0  0  0  0  0  0  0
   42.7370   34.7620   42.0880 N   0  0  0  0  0  0  0  0  0  0  0  0
   39.9080   34.6250   39.0590 N   0  0  0  0  0  0  0  0  0  0  0  0
   39.7830   34.0560   40.3620 C   0  0  0  0  0  0  0  0  0  0  0  0
   40.3700   34.8860   41.4650 C   0  0  0  0  0  0  0  0  0  0  0  0
   41.7720   35.3600   41.1880 C   0  0  0  0  0  0  0  0  0  0  0  0
   42.1280   35.1340   39.7450 C   0  0  0  0  0  0  0  0  0  0  0  0
   40.9260   35.6230   38.9330 C   0  0  0  0  0  0  0  0  0  0  0  0
   43.6839   35.5287   44.1877 H   0  0  0  0  0  0  0  0  0  0  0  0
   46.6202   34.8274   41.9924 H   0  0  0  0  0  0  0  0  0  0  0  0
   48.3719   33.1113   42.6335 H   0  0  0  0  0  0  0  0  0  0  0  0
   48.2607   31.2697   46.5797 H   0  0  0  0  0  0  0  0  0  0  0  0
   44.3644   32.3515   49.3026 H   0  0  0  0  0  0  0  0  0  0  0  0
   45.2461   37.3160   44.6347 H   0  0  0  0  0  0  0  0  0  0  0  0
   46.1076   37.0463   43.0817 H   0  0  0  0  0  0  0  0  0  0  0  0
   44.4560   37.7525   43.0817 H   0  0  0  0  0  0  0  0  0  0  0  0
   43.8927   36.3918   41.6210 H   0  0  0  0  0  0  0  0  0  0  0  0
   44.7105   34.7574   41.5947 H   0  0  0  0  0  0  0  0  0  0  0  0
   42.8858   33.7850   41.7978 H   0  0  0  0  0  0  0  0  0  0  0  0
   40.1210   33.8652   38.3970 H   0  0  0  0  0  0  0  0  0  0  0  0
   38.7129   33.9129   40.5726 H   0  0  0  0  0  0  0  0  0  0  0  0
   40.3496   33.1133   40.3461 H   0  0  0  0  0  0  0  0  0  0  0  0
   39.7290   35.7674   41.6146 H   0  0  0  0  0  0  0  0  0  0  0  0
   40.4188   34.2448   42.3575 H   0  0  0  0  0  0  0  0  0  0  0  0
   41.8068   36.4428   41.3787 H   0  0  0  0  0  0  0  0  0  0  0  0
   43.0280   35.7077   39.4789 H   0  0  0  0  0  0  0  0  0  0  0  0
   42.3458   34.0746   39.5446 H   0  0  0  0  0  0  0  0  0  0  0  0
   41.2073   35.7457   37.8767 H   0  0  0  0  0  0  0  0  0  0  0  0
   40.5713   36.5971   39.3008 H   0  0  0  0  0  0  0  0  0  0  0  0
  1 13  1  0
  1  2  1  0
  2  7  2  0
  3  4  2  0
  3  2  1  0
  4  5  1  0
  5  6  2  0
  6  8  1  0
  7  6  1  0
  8  9  2  0
  8 12  1  0
  9 10  1  0
 11 10  1  0
 12 11  2  0
 14  1  1  0
 15 14  1  0
 16 17  1  0
 17 18  1  0
 19 18  1  0
 19 15  1  0
 20 19  1  0
 21 16  1  0
 21 20  1  0
  1 22  1  1
  3 23  1  0
  4 24  1  0
  9 25  1  0
 11 26  1  0
 13 27  1  0
 13 28  1  0
 13 29  1  0
 14 30  1  0
 14 31  1  0
 15 32  1  0
 16 33  1  0
 17 34  1  0
 17 35  1  0
 18 36  1  0
 18 37  1  0
 19 38  1  0
 20 39  1  0
 20 40  1  0
 21 41  1  0
 21 42  1  0
M  ISO  8  22   8  23  14  24  14  25  14  26  14  27   8  28   8  29   8
M  ISO  8  30   8  31   8  32   5  33   5  34  13  35  13  36  13  37  13
M  ISO  5  38  13  39  13  40  13  41  13  42  13
M  END
>  <minimizedAffinity>  (1) 
-5.52665663

>  <minimizedRMSD>  (1) 
1.43231189

$$$$
