
     RDKit          3D

 52 57  0  0  1  0  0  0  0  0999 V2000
   49.1310   35.3510   41.9690 C   0  0  0  0  0  0  0  0  0  0  0  0
   46.8370   34.4560   41.3810 C   0  0  0  0  0  0  0  0  0  0  0  0
   48.1550   34.7430   41.0280 C   0  0  0  0  0  0  0  0  0  0  0  0
   48.3900   34.4060   39.7810 N   0  0  0  0  0  0  0  0  0  0  0  0
   47.2420   33.8930   39.2910 C   0  0  0  0  0  0  0  0  0  0  0  0
   46.9620   33.3900   38.0200 C   0  0  0  0  0  0  0  0  0  0  0  0
   45.6970   32.9220   37.7740 C   0  0  0  0  0  0  0  0  0  0  0  0
   44.6720   32.9110   38.6990 C   0  0  0  0  0  0  0  0  0  0  0  0
   45.0080   33.4180   39.9300 C   0  0  0  0  0  0  0  0  0  0  0  0
   46.2420   33.9040   40.2570 C   0  0  0  0  0  0  0  0  0  0  0  0
   44.7640   36.0170   44.0490 C   0  0  0  0  0  0  0  0  0  0  0  0
   45.3980   35.8260   42.8020 C   0  0  0  0  0  0  0  0  0  0  0  0
   46.1740   34.6720   42.6610 C   0  0  0  0  0  0  0  0  0  0  0  0
   46.2950   33.7900   43.6970 N   0  0  0  0  0  0  0  0  0  0  0  0
   45.6540   34.0360   44.8760 C   0  0  0  0  0  0  0  0  0  0  0  0
   44.8970   35.1350   45.0540 N   0  0  0  0  0  0  0  0  0  0  0  0
   50.0730   34.3380   42.5320 C   0  0  0  0  0  0  0  0  0  0  0  0
   50.0190   33.0000   41.8630 C   0  0  1  0  0  0  0  0  0  0  0  0
   51.1950   32.2620   41.4150 C   0  0  0  0  0  0  0  0  0  0  0  0
   50.5820   31.8430   42.7090 C   0  0  2  0  0  0  0  0  0  0  0  0
   49.9320   30.6490   42.7120 O   0  0  0  0  0  0  0  0  0  0  0  0
   49.8870   29.8020   43.8110 C   0  0  0  0  0  0  0  0  0  0  0  0
   50.6790   28.7960   44.3400 C   0  0  0  0  0  0  0  0  0  0  0  0
   50.0920   28.3350   45.4550 N   0  0  0  0  0  0  0  0  0  0  0  0
   48.9310   28.9890   45.7060 C   0  0  0  0  0  0  0  0  0  0  0  0
   48.0650   28.8000   46.7380 C   0  0  0  0  0  0  0  0  0  0  0  0
   46.9490   29.6010   46.7640 C   0  0  0  0  0  0  0  0  0  0  0  0
   46.7380   30.5500   45.7720 C   0  0  0  0  0  0  0  0  0  0  0  0
   47.6570   30.6850   44.7580 C   0  0  0  0  0  0  0  0  0  0  0  0
   48.7940   29.9160   44.6750 C   0  0  0  0  0  0  0  0  0  0  0  0
   48.5801   35.8218   42.7965 H   0  0  0  0  0  0  0  0  0  0  0  0
   49.7231   36.0919   41.4118 H   0  0  0  0  0  0  0  0  0  0  0  0
   49.2801   34.5127   39.2738 H   0  0  0  0  0  0  0  0  0  0  0  0
   47.7346   33.3695   37.2372 H   0  0  0  0  0  0  0  0  0  0  0  0
   45.4838   32.5277   36.7695 H   0  0  0  0  0  0  0  0  0  0  0  0
   43.6673   32.5271   38.4684 H   0  0  0  0  0  0  0  0  0  0  0  0
   44.2294   33.4339   40.7068 H   0  0  0  0  0  0  0  0  0  0  0  0
   44.1440   36.9126   44.2021 H   0  0  0  0  0  0  0  0  0  0  0  0
   45.2867   36.5501   41.9814 H   0  0  0  0  0  0  0  0  0  0  0  0
   45.7584   33.3178   45.7026 H   0  0  0  0  0  0  0  0  0  0  0  0
   51.0964   34.7294   42.4350 H   0  0  0  0  0  0  0  0  0  0  0  0
   49.7709   34.1772   43.5774 H   0  0  0  0  0  0  0  0  0  0  0  0
   49.0946   33.2781   41.3355 H   0  0  0  0  0  0  0  0  0  0  0  0
   51.1183   31.6002   40.5397 H   0  0  0  0  0  0  0  0  0  0  0  0
   52.2109   32.5594   41.1160 H   0  0  0  0  0  0  0  0  0  0  0  0
   50.9021   31.7292   43.7552 H   0  0  0  0  0  0  0  0  0  0  0  0
   51.6286   28.4360   43.9174 H   0  0  0  0  0  0  0  0  0  0  0  0
   50.4740   27.5815   46.0443 H   0  0  0  0  0  0  0  0  0  0  0  0
   48.2493   28.0426   47.5141 H   0  0  0  0  0  0  0  0  0  0  0  0
   46.2166   29.4898   47.5771 H   0  0  0  0  0  0  0  0  0  0  0  0
   45.8427   31.1886   45.7973 H   0  0  0  0  0  0  0  0  0  0  0  0
   47.4748   31.4407   43.9797 H   0  0  0  0  0  0  0  0  0  0  0  0
  1 17  1  0
  2 13  1  0
  3  2  2  0
  3  1  1  0
  4  3  1  0
  5  4  1  0
  5 10  2  0
  6  5  1  0
  7  6  2  0
  7  8  1  0
  8  9  2  0
  9 10  1  0
 10  2  1  0
 11 16  2  0
 12 11  1  0
 13 12  2  0
 13 14  1  0
 14 15  2  0
 15 16  1  0
 18 17  1  0
 18 20  1  0
 19 18  1  0
 19 20  1  0
 20 21  1  0
 21 22  1  0
 22 23  2  0
 22 30  1  0
 23 24  1  0
 24 25  1  0
 25 26  2  0
 26 27  1  0
 28 27  2  0
 29 28  1  0
 30 29  2  0
 30 25  1  0
  1 31  1  0
  1 32  1  0
  4 33  1  0
  6 34  1  0
  7 35  1  0
  8 36  1  0
  9 37  1  0
 11 38  1  0
 12 39  1  0
 15 40  1  0
 17 41  1  0
 17 42  1  0
 18 43  1  6
 19 44  1  0
 19 45  1  0
 20 46  1  1
 23 47  1  0
 24 48  1  0
 26 49  1  0
 27 50  1  0
 28 51  1  0
 29 52  1  0
M  ISO  8  31   8  32   8  33   9  34  14  35  14  36  14  37  14  38  14
M  ISO  8  39  14  40  14  41   8  42   8  43  13  44  13  45  13  46  13
M  ISO  6  47  14  48   9  49  14  50  14  51  14  52  14
M  END
>  <minimizedAffinity>  (1) 
-6.02663088

>  <minimizedRMSD>  (1) 
3.01555395

$$$$
