
     RDKit          3D

 38 40  0  0  1  0  0  0  0  0999 V2000
   47.2130   34.2870   40.1870 C   0  0  1  0  0  0  0  0  0  0  0  0
   48.3730   34.3800   39.1680 C   0  0  0  0  0  0  0  0  0  0  0  0
   47.7740   34.0020   37.8280 C   0  0  0  0  0  0  0  0  0  0  0  0
   47.3580   32.5490   37.8400 C   0  0  0  0  0  0  0  0  0  0  0  0
   47.4560   31.9770   39.2440 C   0  0  0  0  0  0  0  0  0  0  0  0
   46.7790   32.8800   40.2750 C   0  0  2  0  0  0  0  0  0  0  0  0
   45.3240   32.6400   40.0530 C   0  0  0  0  0  0  0  0  0  0  0  0
   44.4400   33.7050   39.9590 C   0  0  0  0  0  0  0  0  0  0  0  0
   42.8420   32.8320   39.6780 S   0  0  0  0  0  0  0  0  0  0  0  0
   43.6660   31.1620   39.7380 C   0  0  0  0  0  0  0  0  0  0  0  0
   44.8190   31.4300   39.9270 N   0  0  0  0  0  0  0  0  0  0  0  0
   47.7430   34.8160   41.5350 C   0  0  0  0  0  0  0  0  0  0  0  0
   47.2920   33.8210   42.5710 C   0  0  0  0  0  0  0  0  0  0  0  0
   46.1400   33.8220   44.7210 C   0  0  0  0  0  0  0  0  0  0  0  0
   46.3520   34.4350   43.4710 C   0  0  0  0  0  0  0  0  0  0  0  0
   45.6520   35.5700   43.1440 C   0  0  0  0  0  0  0  0  0  0  0  0
   44.7700   36.0510   44.0700 N   0  0  0  0  0  0  0  0  0  0  0  0
   44.5670   35.4580   45.2720 C   0  0  0  0  0  0  0  0  0  0  0  0
   45.2590   34.3370   45.5950 N   0  0  0  0  0  0  0  0  0  0  0  0
   46.3414   34.8874   39.8871 H   0  0  0  0  0  0  0  0  0  0  0  0
   48.7724   35.4044   39.1342 H   0  0  0  0  0  0  0  0  0  0  0  0
   49.2071   33.7169   39.4411 H   0  0  0  0  0  0  0  0  0  0  0  0
   48.5217   34.1605   37.0369 H   0  0  0  0  0  0  0  0  0  0  0  0
   46.8908   34.6292   37.6371 H   0  0  0  0  0  0  0  0  0  0  0  0
   46.3191   32.4674   37.4880 H   0  0  0  0  0  0  0  0  0  0  0  0
   48.0293   31.9822   37.1782 H   0  0  0  0  0  0  0  0  0  0  0  0
   46.9695   30.9906   39.2610 H   0  0  0  0  0  0  0  0  0  0  0  0
   48.5212   31.8980   39.5067 H   0  0  0  0  0  0  0  0  0  0  0  0
   47.0591   32.6425   41.3119 H   0  0  0  0  0  0  0  0  0  0  0  0
   44.6400   34.7842   40.0327 H   0  0  0  0  0  0  0  0  0  0  0  0
   43.2054   30.1693   39.6268 H   0  0  0  0  0  0  0  0  0  0  0  0
   48.8410   34.8792   41.5168 H   0  0  0  0  0  0  0  0  0  0  0  0
   47.3643   35.8259   41.7511 H   0  0  0  0  0  0  0  0  0  0  0  0
   46.8119   32.9672   42.0705 H   0  0  0  0  0  0  0  0  0  0  0  0
   48.1659   33.4766   43.1435 H   0  0  0  0  0  0  0  0  0  0  0  0
   46.7009   32.9131   44.9843 H   0  0  0  0  0  0  0  0  0  0  0  0
   45.7955   36.0718   42.1757 H   0  0  0  0  0  0  0  0  0  0  0  0
   43.8438   35.8843   45.9828 H   0  0  0  0  0  0  0  0  0  0  0  0
  1  6  1  0
  1 12  1  0
  2  1  1  0
  3  4  1  0
  3  2  1  0
  4  5  1  0
  5  6  1  0
  7  6  1  0
  8  7  2  0
  9 10  1  0
  9  8  1  0
 10 11  2  0
 11  7  1  0
 12 13  1  0
 13 15  1  0
 14 19  2  0
 15 14  1  0
 16 15  2  0
 16 17  1  0
 17 18  2  0
 18 19  1  0
  1 20  1  6
  2 21  1  0
  2 22  1  0
  3 23  1  0
  3 24  1  0
  4 25  1  0
  4 26  1  0
  5 27  1  0
  5 28  1  0
  6 29  1  1
  8 30  1  0
 10 31  1  0
 12 32  1  0
 12 33  1  0
 13 34  1  0
 13 35  1  0
 14 36  1  0
 16 37  1  0
 18 38  1  0
M  ISO  8  20  13  21  13  22  13  23  13  24  13  25  13  26  13  27  13
M  ISO  8  28  13  29  13  30  14  31  14  32   8  33   8  34   8  35   8
M  ISO  3  36  14  37  14  38  14
M  END
>  <minimizedAffinity>  (1) 
-4.36411619

>  <minimizedRMSD>  (1) 
1.37331498

$$$$
