
     RDKit          3D

 49 53  0  0  0  0  0  0  0  0999 V2000
   46.1310   32.0060   47.3010 C   0  0  0  0  0  0  0  0  0  0  0  0
   44.5080   35.0540   46.1630 C   0  0  0  0  0  0  0  0  0  0  0  0
   44.7430   35.0530   44.7820 C   0  0  0  0  0  0  0  0  0  0  0  0
   45.4770   33.9820   44.2250 C   0  0  0  0  0  0  0  0  0  0  0  0
   45.9070   33.0220   45.0620 N   0  0  0  0  0  0  0  0  0  0  0  0
   45.6540   33.0620   46.3990 C   0  0  0  0  0  0  0  0  0  0  0  0
   44.9640   34.0680   46.9360 N   0  0  0  0  0  0  0  0  0  0  0  0
   45.6900   34.0230   42.8300 N   0  0  0  0  0  0  0  0  0  0  0  0
   44.9280   33.8310   41.7520 C   0  0  0  0  0  0  0  0  0  0  0  0
   45.6620   33.9990   40.6260 N   0  0  0  0  0  0  0  0  0  0  0  0
   46.9190   34.3040   40.9910 C   0  0  0  0  0  0  0  0  0  0  0  0
   48.0460   34.5700   40.2310 C   0  0  0  0  0  0  0  0  0  0  0  0
   48.0400   34.5600   39.0010 O   0  0  0  0  0  0  0  0  0  0  0  0
   49.2160   34.8570   40.8390 N   0  0  0  0  0  0  0  0  0  0  0  0
   49.2100   34.8670   42.1820 C   0  0  0  0  0  0  0  0  0  0  0  0
   50.3750   35.1540   42.9520 N   0  0  0  0  0  0  0  0  0  0  0  0
   48.1280   34.6120   42.9210 N   0  0  0  0  0  0  0  0  0  0  0  0
   46.9380   34.3200   42.3780 C   0  0  0  0  0  0  0  0  0  0  0  0
   47.2910   32.5050   48.1430 C   0  0  0  0  0  0  0  0  0  0  0  0
   45.0580   31.4800   48.2150 C   0  0  0  0  0  0  0  0  0  0  0  0
   46.6760   30.8760   46.4260 C   0  0  0  0  0  0  0  0  0  0  0  0
   45.8900   29.6000   46.6250 C   0  0  0  0  0  0  0  0  0  0  0  0
   46.4010   28.6440   47.4320 C   0  0  0  0  0  0  0  0  0  0  0  0
   45.1550   27.2920   47.3960 S   0  0  0  0  0  0  0  0  0  0  0  0
   44.1020   28.3320   46.2210 C   0  0  0  0  0  0  0  0  0  0  0  0
   44.7460   29.2890   46.1030 N   0  0  0  0  0  0  0  0  0  0  0  0
   42.8190   27.7160   45.7770 C   0  0  0  0  0  0  0  0  0  0  0  0
   42.2800   26.4950   46.1040 C   0  0  0  0  0  0  0  0  0  0  0  0
   41.0860   26.5090   45.3750 C   0  0  0  0  0  0  0  0  0  0  0  0
   40.9770   27.7110   44.6670 C   0  0  0  0  0  0  0  0  0  0  0  0
   42.0730   28.4060   44.9560 O   0  0  0  0  0  0  0  0  0  0  0  0
   43.9394   35.8796   46.6159 H   0  0  0  0  0  0  0  0  0  0  0  0
   44.3649   35.8671   44.1461 H   0  0  0  0  0  0  0  0  0  0  0  0
   43.8588   33.5736   41.7743 H   0  0  0  0  0  0  0  0  0  0  0  0
   50.0705   35.0582   40.3003 H   0  0  0  0  0  0  0  0  0  0  0  0
   50.3260   35.1510   43.9808 H   0  0  0  0  0  0  0  0  0  0  0  0
   51.2657   35.3644   42.4795 H   0  0  0  0  0  0  0  0  0  0  0  0
   47.0427   32.3982   49.2093 H   0  0  0  0  0  0  0  0  0  0  0  0
   48.1904   31.9142   47.9150 H   0  0  0  0  0  0  0  0  0  0  0  0
   47.4806   33.5643   47.9150 H   0  0  0  0  0  0  0  0  0  0  0  0
   45.3622   31.6291   49.2615 H   0  0  0  0  0  0  0  0  0  0  0  0
   44.1183   32.0196   48.0259 H   0  0  0  0  0  0  0  0  0  0  0  0
   44.9090   30.4067   48.0259 H   0  0  0  0  0  0  0  0  0  0  0  0
   47.7281   30.6937   46.6902 H   0  0  0  0  0  0  0  0  0  0  0  0
   46.5864   31.1785   45.3722 H   0  0  0  0  0  0  0  0  0  0  0  0
   47.3506   28.6690   47.9867 H   0  0  0  0  0  0  0  0  0  0  0  0
   42.6815   25.7127   46.7649 H   0  0  0  0  0  0  0  0  0  0  0  0
   40.3442   25.6969   45.3606 H   0  0  0  0  0  0  0  0  0  0  0  0
   40.1529   28.0182   44.0063 H   0  0  0  0  0  0  0  0  0  0  0  0
  1 19  1  0
  1 20  1  0
  2  7  2  0
  3  2  1  0
  4  3  2  0
  4  5  1  0
  5  6  2  0
  6  7  1  0
  6  1  1  0
  8  4  1  0
  9  8  1  0
 10 11  1  0
 10  9  2  0
 11 18  2  0
 12 14  1  0
 12 11  1  0
 13 12  2  0
 14 15  1  0
 15 17  2  0
 15 16  1  0
 18  8  1  0
 18 17  1  0
 21 22  1  0
 21  1  1  0
 22 23  2  0
 24 23  1  0
 25 24  1  0
 26 25  2  0
 26 22  1  0
 27 28  2  0
 27 25  1  0
 29 28  1  0
 30 31  1  0
 30 29  2  0
 31 27  1  0
  2 32  1  0
  3 33  1  0
  9 34  1  0
 14 35  1  0
 16 36  1  0
 16 37  1  0
 19 38  1  0
 19 39  1  0
 19 40  1  0
 20 41  1  0
 20 42  1  0
 20 43  1  0
 21 44  1  0
 21 45  1  0
 23 46  1  0
 28 47  1  0
 29 48  1  0
 30 49  1  0
M  END
>  <minimizedAffinity>  (1) 
-7.26618814

>  <minimizedRMSD>  (1) 
0.0944377258

$$$$
