
     RDKit          3D

 34 37  0  0  0  0  0  0  0  0999 V2000
   44.3530   36.0810   44.7410 C   0  0  0  0  0  0  0  0  0  0  0  0
   45.0190   35.9940   43.5170 C   0  0  0  0  0  0  0  0  0  0  0  0
   45.9300   34.9960   43.3130 C   0  0  0  0  0  0  0  0  0  0  0  0
   46.1460   34.1250   44.3280 N   0  0  0  0  0  0  0  0  0  0  0  0
   45.5010   34.2170   45.5020 C   0  0  0  0  0  0  0  0  0  0  0  0
   44.6140   35.1670   45.7380 N   0  0  0  0  0  0  0  0  0  0  0  0
   46.6930   34.7860   42.0900 C   0  0  0  0  0  0  0  0  0  0  0  0
   47.9520   35.2580   41.8880 C   0  0  0  0  0  0  0  0  0  0  0  0
   48.6870   35.0750   40.7510 C   0  0  0  0  0  0  0  0  0  0  0  0
   48.1160   34.3710   39.7560 N   0  0  0  0  0  0  0  0  0  0  0  0
   46.8860   33.8920   39.9140 C   0  0  0  0  0  0  0  0  0  0  0  0
   46.1800   34.0850   41.0410 N   0  0  0  0  0  0  0  0  0  0  0  0
   46.3500   33.1600   38.8220 N   0  0  0  0  0  0  0  0  0  0  0  0
   45.3500   32.2890   38.6970 N   0  0  0  0  0  0  0  0  0  0  0  0
   45.2320   31.8630   37.4450 C   0  0  0  0  0  0  0  0  0  0  0  0
   46.2280   32.5100   36.7270 C   0  0  0  0  0  0  0  0  0  0  0  0
   46.9260   33.3260   37.6100 C   0  0  0  0  0  0  0  0  0  0  0  0
   45.7420   33.2680   46.5970 C   0  0  0  0  0  0  0  0  0  0  0  0
   46.8000   32.3850   46.4710 C   0  0  0  0  0  0  0  0  0  0  0  0
   46.8100   31.6170   47.6120 C   0  0  0  0  0  0  0  0  0  0  0  0
   45.7510   32.0710   48.3830 C   0  0  0  0  0  0  0  0  0  0  0  0
   45.1480   33.0430   47.7500 O   0  0  0  0  0  0  0  0  0  0  0  0
   45.2910   31.6390   49.6600 N   0  0  0  0  0  0  0  0  0  0  0  0
   43.6178   36.8816   44.9097 H   0  0  0  0  0  0  0  0  0  0  0  0
   44.8116   36.7247   42.7213 H   0  0  0  0  0  0  0  0  0  0  0  0
   48.4151   35.8322   42.7040 H   0  0  0  0  0  0  0  0  0  0  0  0
   49.7027   35.4857   40.6528 H   0  0  0  0  0  0  0  0  0  0  0  0
   44.4955   31.1443   37.0563 H   0  0  0  0  0  0  0  0  0  0  0  0
   46.4292   32.3973   35.6514 H   0  0  0  0  0  0  0  0  0  0  0  0
   47.7787   33.9781   37.3700 H   0  0  0  0  0  0  0  0  0  0  0  0
   47.4972   32.3116   45.6234 H   0  0  0  0  0  0  0  0  0  0  0  0
   47.5134   30.8089   47.8614 H   0  0  0  0  0  0  0  0  0  0  0  0
   44.4759   32.0944   50.0949 H   0  0  0  0  0  0  0  0  0  0  0  0
   45.7735   30.8713   50.1485 H   0  0  0  0  0  0  0  0  0  0  0  0
  1  6  2  0
  2  1  1  0
  3  2  2  0
  3  4  1  0
  4  5  2  0
  5  6  1  0
  5 18  1  0
  7  3  1  0
  8  7  2  0
  9  8  1  0
 10 11  1  0
 10  9  2  0
 11 12  2  0
 12  7  1  0
 13 11  1  0
 14 13  1  0
 15 14  2  0
 16 15  1  0
 16 17  2  0
 17 13  1  0
 18 22  1  0
 19 18  2  0
 19 20  1  0
 20 21  2  0
 21 23  1  0
 22 21  1  0
  1 24  1  0
  2 25  1  0
  8 26  1  0
  9 27  1  0
 15 28  1  0
 16 29  1  0
 17 30  1  0
 19 31  1  0
 20 32  1  0
 23 33  1  0
 23 34  1  0
M  END
>  <minimizedAffinity>  (1) 
-7.09275913

>  <minimizedRMSD>  (1) 
0.121869832

$$$$
