
     RDKit          3D

 42 44  0  0  0  0  0  0  0  0999 V2000
   46.1603   33.5981   45.2786 C   0  0  2  0  0  0  0  0  0  0  0  0
   44.9180   34.6611   45.4965 C   0  0  0  0  0  0  0  0  0  0  0  0
   44.6884   35.5961   44.4299 C   0  0  0  0  0  0  0  0  0  0  0  0
   45.5059   35.5497   43.2176 C   0  0  1  0  0  0  0  0  0  0  0  0
   46.5857   34.5713   43.1815 C   0  0  0  0  0  0  0  0  0  0  0  0
   46.1560   33.3220   43.9139 C   0  0  0  0  0  0  0  0  0  0  0  0
   45.4002   32.8845   47.5292 C   0  0  0  0  0  0  0  0  0  0  0  0
   45.9191   32.6366   46.3008 C   0  0  0  0  0  0  0  0  0  0  0  0
   46.1527   31.2845   46.0285 C   0  0  0  0  0  0  0  0  0  0  0  0
   45.8886   30.2826   46.9044 N   0  0  0  0  0  0  0  0  0  0  0  0
   45.3582   30.5879   48.1487 C   0  0  0  0  0  0  0  0  0  0  0  0
   45.1295   31.8682   48.4270 N   0  0  0  0  0  0  0  0  0  0  0  0
   45.0842   29.5680   49.0923 N   0  0  0  0  0  0  0  0  0  0  0  0
   46.7530   30.5982   44.8984 C   0  0  0  0  0  0  0  0  0  0  0  0
   46.3657   29.9210   43.7873 C   0  0  0  0  0  0  0  0  0  0  0  0
   47.5143   29.4692   43.1265 C   0  0  0  0  0  0  0  0  0  0  0  0
   48.5387   29.8931   43.8658 N   0  0  0  0  0  0  0  0  0  0  0  0
   48.1161   30.5596   44.9131 N   0  0  0  0  0  0  0  0  0  0  0  0
   44.5143   35.2655   42.0495 C   0  0  0  0  0  0  0  0  0  0  0  0
   43.4606   34.4511   42.4270 F   0  0  0  0  0  0  0  0  0  0  0  0
   43.9545   36.4917   41.7045 F   0  0  0  0  0  0  0  0  0  0  0  0
   45.2143   34.8150   40.9468 F   0  0  0  0  0  0  0  0  0  0  0  0
   46.9069   34.3687   45.6359 H   0  0  0  0  0  0  0  0  0  0  0  0
   44.2226   34.7850   46.3170 H   0  0  0  0  0  0  0  0  0  0  0  0
   43.9033   36.2969   44.5307 H   0  0  0  0  0  0  0  0  0  0  0  0
   45.9088   36.5673   43.0328 H   0  0  0  0  0  0  0  0  0  0  0  0
   47.4836   34.9599   43.6940 H   0  0  0  0  0  0  0  0  0  0  0  0
   46.8812   34.3932   42.1264 H   0  0  0  0  0  0  0  0  0  0  0  0
   45.2366   32.8809   43.4749 H   0  0  0  0  0  0  0  0  0  0  0  0
   47.0238   32.6914   43.5863 H   0  0  0  0  0  0  0  0  0  0  0  0
   45.1861   33.8946   47.8424 H   0  0  0  0  0  0  0  0  0  0  0  0
   44.1762   29.2127   49.4221 H   0  0  0  0  0  0  0  0  0  0  0  0
   46.0265   29.2424   49.3922 H   0  0  0  0  0  0  0  0  0  0  0  0
   45.3000   29.8437   43.6021 H   0  0  0  0  0  0  0  0  0  0  0  0
   47.4142   28.9112   42.2241 H   0  0  0  0  0  0  0  0  0  0  0  0
   49.9263   29.6025   43.4775 C   0  0  0  0  0  0  0  0  0  0  0  0
   50.6189   28.8007   44.5661 C   0  0  0  0  0  0  0  0  0  0  0  0
   51.6061   29.2457   44.8166 H   0  0  0  0  0  0  0  0  0  0  0  0
   49.9464   29.0360   42.5038 H   0  0  0  0  0  0  0  0  0  0  0  0
   50.4922   30.5209   43.3276 H   0  0  0  0  0  0  0  0  0  0  0  0
   50.0310   28.7901   45.5079 H   0  0  0  0  0  0  0  0  0  0  0  0
   50.8129   27.7842   44.1771 H   0  0  0  0  0  0  0  0  0  0  0  0
  1  2  1  0
  1  8  1  0
  3  2  2  0
  4  3  1  0
  5  4  1  0
  5  6  1  0
  6  1  1  0
  7 12  2  0
  8  7  1  0
  9  8  2  0
  9 10  1  0
 10 11  2  0
 11 12  1  0
 11 13  1  0
 14 18  2  0
 14  9  1  0
 15 14  1  0
 16 15  2  0
 16 17  1  0
 17 18  1  0
 19 20  1  0
 19  4  1  0
 21 19  1  0
 22 19  1  0
  1 23  1  1
  2 24  1  0
  3 25  1  0
  4 26  1  6
  5 27  1  0
  5 28  1  0
  6 29  1  0
  6 30  1  0
  7 31  1  0
 13 32  1  0
 13 33  1  0
 15 34  1  0
 16 35  1  0
 36 37  1  0
 37 38  1  0
 36 39  1  0
 36 40  1  0
 37 41  1  0
 37 42  1  0
 17 36  1  0
M  ISO  8  23  13  24  13  25  13  26  13  27  13  28  13  29  13  30  13
M  ISO  4  31  14  34  14  35  14  38   8
M  END
>  <DihAtoms>  (1) 
15,16,35,36

>  <DihDeg>  (1) 
89.99965728884975

$$$$
