
     RDKit          3D

 26 27  0  0  0  0  0  0  0  0999 V2000
   44.0000   35.5360   42.8070 C   0  0  0  0  0  0  0  0  0  0  0  0
   43.2920   35.1300   41.6670 C   0  0  0  0  0  0  0  0  0  0  0  0
   43.9710   34.4810   40.6510 C   0  0  0  0  0  0  0  0  0  0  0  0
   45.3120   34.2500   40.7840 N   0  0  0  0  0  0  0  0  0  0  0  0
   45.9580   34.6600   41.9050 C   0  0  0  0  0  0  0  0  0  0  0  0
   45.3180   35.2910   42.9000 N   0  0  0  0  0  0  0  0  0  0  0  0
   47.3910   34.4400   42.0940 C   0  0  0  0  0  0  0  0  0  0  0  0
   48.2670   35.5040   41.9500 C   0  0  0  0  0  0  0  0  0  0  0  0
   49.6370   35.3840   42.1090 C   0  0  0  0  0  0  0  0  0  0  0  0
   50.1630   34.1410   42.4280 C   0  0  0  0  0  0  0  0  0  0  0  0
   49.2650   33.1010   42.5660 C   0  0  0  0  0  0  0  0  0  0  0  0
   47.9360   33.2610   42.4020 N   0  0  0  0  0  0  0  0  0  0  0  0
   41.5160   35.4300   41.4810 S   0  0  0  0  0  0  0  0  0  0  0  0
   40.9960   35.1030   39.7780 C   0  0  0  0  0  0  0  0  0  0  0  0
   39.5200   34.8910   39.6600 C   0  0  0  0  0  0  0  0  0  0  0  0
   43.4772   36.0544   43.6243 H   0  0  0  0  0  0  0  0  0  0  0  0
   43.4377   34.1544   39.7461 H   0  0  0  0  0  0  0  0  0  0  0  0
   47.8539   36.4916   41.6972 H   0  0  0  0  0  0  0  0  0  0  0  0
   50.2950   36.2567   41.9849 H   0  0  0  0  0  0  0  0  0  0  0  0
   51.2441   33.9907   42.5646 H   0  0  0  0  0  0  0  0  0  0  0  0
   49.6491   32.1020   42.8199 H   0  0  0  0  0  0  0  0  0  0  0  0
   41.2802   35.9613   39.1515 H   0  0  0  0  0  0  0  0  0  0  0  0
   41.4936   34.1790   39.4484 H   0  0  0  0  0  0  0  0  0  0  0  0
   39.0772   34.8274   40.6649 H   0  0  0  0  0  0  0  0  0  0  0  0
   39.0710   35.7339   39.1141 H   0  0  0  0  0  0  0  0  0  0  0  0
   39.3264   33.9558   39.1141 H   0  0  0  0  0  0  0  0  0  0  0  0
  1  6  2  0
  2  1  1  0
  3  4  1  0
  3  2  2  0
  4  5  2  0
  5  7  1  0
  5  6  1  0
  7 12  1  0
  8  7  2  0
  8  9  1  0
  9 10  2  0
 10 11  1  0
 12 11  2  0
 13  2  1  0
 14 13  1  0
 15 14  1  0
  1 16  1  0
  3 17  1  0
  8 18  1  0
  9 19  1  0
 10 20  1  0
 11 21  1  0
 14 22  1  0
 14 23  1  0
 15 24  1  0
 15 25  1  0
 15 26  1  0
M  ISO  8  16  14  17  14  18  14  19  14  20  14  21  14  22   8  23   8
M  ISO  3  24   8  25   8  26   8
M  END
>  <minimizedAffinity>  (1) 
-4.54783964

>  <minimizedRMSD>  (1) 
1.31478405

$$$$
