
     RDKit          3D

 43 46  0  0  0  0  0  0  0  0999 V2000
   46.1598   33.6351   45.3002 C   0  0  2  0  0  0  0  0  0  0  0  0
   44.9633   34.6874   45.4745 C   0  0  0  0  0  0  0  0  0  0  0  0
   44.7098   35.5848   44.3826 C   0  0  0  0  0  0  0  0  0  0  0  0
   45.5197   35.5201   43.1706 C   0  0  1  0  0  0  0  0  0  0  0  0
   46.6366   34.5727   43.1850 C   0  0  0  0  0  0  0  0  0  0  0  0
   46.1721   33.3071   43.9209 C   0  0  0  0  0  0  0  0  0  0  0  0
   45.2987   32.8923   47.5248 C   0  0  0  0  0  0  0  0  0  0  0  0
   45.9636   32.6564   46.3193 C   0  0  0  0  0  0  0  0  0  0  0  0
   46.3356   31.3552   46.1211 C   0  0  0  0  0  0  0  0  0  0  0  0
   46.0413   30.4135   47.0511 N   0  0  0  0  0  0  0  0  0  0  0  0
   45.3990   30.6595   48.2069 C   0  0  0  0  0  0  0  0  0  0  0  0
   45.0271   31.9067   48.4455 N   0  0  0  0  0  0  0  0  0  0  0  0
   45.1816   29.6076   49.1404 N   0  0  0  0  0  0  0  0  0  0  0  0
   44.5707   35.1873   41.9939 C   0  0  0  0  0  0  0  0  0  0  0  0
   43.5838   34.2934   42.3304 F   0  0  0  0  0  0  0  0  0  0  0  0
   43.9289   36.3823   41.6610 F   0  0  0  0  0  0  0  0  0  0  0  0
   45.3054   34.7905   40.8898 F   0  0  0  0  0  0  0  0  0  0  0  0
   46.9518   34.3695   45.6218 H   0  0  0  0  0  0  0  0  0  0  0  0
   44.2532   34.8966   46.2659 H   0  0  0  0  0  0  0  0  0  0  0  0
   43.9150   36.3080   44.4580 H   0  0  0  0  0  0  0  0  0  0  0  0
   45.8876   36.5457   42.9570 H   0  0  0  0  0  0  0  0  0  0  0  0
   47.4807   34.9987   43.7798 H   0  0  0  0  0  0  0  0  0  0  0  0
   47.0095   34.3857   42.1819 H   0  0  0  0  0  0  0  0  0  0  0  0
   45.0176   33.2941   43.5900 H   0  0  0  0  0  0  0  0  0  0  0  0
   46.5174   32.5446   43.3198 H   0  0  0  0  0  0  0  0  0  0  0  0
   44.9677   33.8583   47.8019 H   0  0  0  0  0  0  0  0  0  0  0  0
   44.2712   29.5272   49.6295 H   0  0  0  0  0  0  0  0  0  0  0  0
   45.9649   28.9309   49.3096 H   0  0  0  0  0  0  0  0  0  0  0  0
   47.2066   30.7639   45.0818 C   0  0  0  0  0  0  0  0  0  0  0  0
   48.0452   31.3620   44.2861 N   0  0  0  0  0  0  0  0  0  0  0  0
   48.8076   30.9207   43.3214 C   0  0  0  0  0  0  0  0  0  0  0  0
   48.7490   29.6048   43.0633 N   0  0  0  0  0  0  0  0  0  0  0  0
   47.9242   28.8150   43.7923 C   0  0  0  0  0  0  0  0  0  0  0  0
   47.9100   27.5001   43.4353 C   0  0  0  0  0  0  0  0  0  0  0  0
   47.0692   26.6434   44.1063 C   0  0  0  0  0  0  0  0  0  0  0  0
   47.0798   25.6089   43.8025 H   0  0  0  0  0  0  0  0  0  0  0  0
   46.2730   27.1728   45.1202 C   0  0  0  0  0  0  0  0  0  0  0  0
   45.6470   26.4293   45.5883 H   0  0  0  0  0  0  0  0  0  0  0  0
   46.3696   28.5180   45.3974 C   0  0  0  0  0  0  0  0  0  0  0  0
   47.1829   29.4235   44.7743 C   0  0  0  0  0  0  0  0  0  0  0  0
   49.4036   31.6830   42.8398 H   0  0  0  0  0  0  0  0  0  0  0  0
   48.5361   27.1226   42.6477 H   0  0  0  0  0  0  0  0  0  0  0  0
   45.6684   28.7232   46.1654 H   0  0  0  0  0  0  0  0  0  0  0  0
  1  2  1  0
  1  8  1  0
  3  2  2  0
  4  5  1  0
  4  3  1  0
  5  6  1  0
  6  1  1  0
  7 12  2  0
  8  7  1  0
  9  8  2  0
  9 10  1  0
 10 11  2  0
 11 12  1  0
 11 13  1  0
 14 15  1  0
 14  4  1  0
 16 14  1  0
 17 14  1  0
  1 18  1  1
  2 19  1  0
  3 20  1  0
  4 21  1  6
  5 22  1  0
  5 23  1  0
  6 24  1  0
  6 25  1  0
  7 26  1  0
 13 27  1  0
 13 28  1  0
 29 30  2  0
 30 31  1  0
 31 32  2  0
 32 33  1  0
 33 34  2  0
 34 35  1  0
 35 36  1  0
 35 37  2  0
 37 38  1  0
 37 39  1  0
 39 40  2  0
 40 29  1  0
 40 33  1  0
 31 41  1  0
 34 42  1  0
 39 43  1  0
  9 29  1  0
M  ISO  8  18  13  19  13  20  13  21  13  22  13  23  13  24  13  25  13
M  ISO  3  26  14  36  16  38  16
M  END
>  <DihAtoms>  (1) 
7,8,28,29

>  <DihDeg>  (1) 
16.095366799669307

$$$$
