
     RDKit          3D

 25 27  0  0  0  0  0  0  0  0999 V2000
   46.3960   32.1400   46.5880 C   0  0  0  0  0  0  0  0  0  0  0  0
   46.8560   32.5820   47.7780 N   0  0  0  0  0  0  0  0  0  0  0  0
   46.7790   31.9180   48.9270 C   0  0  0  0  0  0  0  0  0  0  0  0
   46.2160   30.7100   48.9940 N   0  0  0  0  0  0  0  0  0  0  0  0
   45.7200   30.1660   47.8650 C   0  0  0  0  0  0  0  0  0  0  0  0
   45.1410   28.9190   47.9490 C   0  0  0  0  0  0  0  0  0  0  0  0
   44.6180   28.3160   46.8240 C   0  0  0  0  0  0  0  0  0  0  0  0
   44.7040   29.0200   45.6240 C   0  0  0  0  0  0  0  0  0  0  0  0
   45.2940   30.2580   45.6170 C   0  0  0  0  0  0  0  0  0  0  0  0
   45.8260   30.8950   46.7030 C   0  0  0  0  0  0  0  0  0  0  0  0
   47.8620   32.9670   43.4280 C   0  0  0  0  0  0  0  0  0  0  0  0
   47.0550   33.9840   42.8900 C   0  0  0  0  0  0  0  0  0  0  0  0
   45.9600   34.4250   43.6110 C   0  0  0  0  0  0  0  0  0  0  0  0
   45.7200   33.8470   44.8150 N   0  0  0  0  0  0  0  0  0  0  0  0
   46.4870   32.8880   45.3140 C   0  0  0  0  0  0  0  0  0  0  0  0
   47.5350   32.4660   44.6220 N   0  0  0  0  0  0  0  0  0  0  0  0
   47.4150   34.7170   41.2920 S   0  0  0  0  0  0  0  0  0  0  0  0
   47.1876   32.3735   49.8411 H   0  0  0  0  0  0  0  0  0  0  0  0
   45.0954   28.4012   48.9184 H   0  0  0  0  0  0  0  0  0  0  0  0
   44.1523   27.3206   46.8719 H   0  0  0  0  0  0  0  0  0  0  0  0
   44.3039   28.5882   44.6948 H   0  0  0  0  0  0  0  0  0  0  0  0
   45.3434   30.7847   44.6525 H   0  0  0  0  0  0  0  0  0  0  0  0
   48.7397   32.5935   42.8802 H   0  0  0  0  0  0  0  0  0  0  0  0
   45.3052   35.2183   43.2211 H   0  0  0  0  0  0  0  0  0  0  0  0
   48.0136   35.9359   41.4731 H   0  0  0  0  0  0  0  0  0  0  0  0
  1 10  1  0
  1  2  2  0
  2  3  1  0
  3  4  2  0
  5  6  2  0
  5  4  1  0
  7  6  1  0
  8  7  2  0
  9  8  1  0
  9 10  2  0
 10  5  1  0
 11 16  2  0
 12 11  1  0
 12 13  2  0
 13 14  1  0
 14 15  2  0
 15  1  1  0
 16 15  1  0
 17 12  1  0
  3 18  1  0
  6 19  1  0
  7 20  1  0
  8 21  1  0
  9 22  1  0
 11 23  1  0
 13 24  1  0
 17 25  1  0
M  ISO  8  18  14  19  14  20  14  21  14  22  14  23  14  24  14  25  11
M  END
>  <minimizedAffinity>  (1) 
-4.27172947

>  <minimizedRMSD>  (1) 
3.02109528

$$$$
