
     RDKit          3D

 39 43  0  0  0  0  0  0  0  0999 V2000
   44.4940   35.7140   45.0040 C   0  0  0  0  0  0  0  0  0  0  0  0
   45.1000   35.7600   43.7420 C   0  0  0  0  0  0  0  0  0  0  0  0
   46.0040   34.7830   43.4240 C   0  0  0  0  0  0  0  0  0  0  0  0
   46.2210   33.8800   44.3530 N   0  0  0  0  0  0  0  0  0  0  0  0
   45.6920   33.7730   45.5610 C   0  0  0  0  0  0  0  0  0  0  0  0
   44.7970   34.7310   45.8850 N   0  0  0  0  0  0  0  0  0  0  0  0
   46.7270   34.6750   42.1630 C   0  0  0  0  0  0  0  0  0  0  0  0
   47.9480   35.2700   41.9350 C   0  0  0  0  0  0  0  0  0  0  0  0
   48.6470   35.1890   40.7490 C   0  0  0  0  0  0  0  0  0  0  0  0
   48.0880   34.4790   39.7500 N   0  0  0  0  0  0  0  0  0  0  0  0
   46.9050   33.8950   39.9500 C   0  0  0  0  0  0  0  0  0  0  0  0
   46.2380   33.9810   41.1060 N   0  0  0  0  0  0  0  0  0  0  0  0
   46.3580   33.1590   38.8540 N   0  0  0  0  0  0  0  0  0  0  0  0
   45.4270   32.2250   38.7350 N   0  0  0  0  0  0  0  0  0  0  0  0
   45.3080   31.8670   37.4470 C   0  0  0  0  0  0  0  0  0  0  0  0
   46.2200   32.6230   36.7170 C   0  0  0  0  0  0  0  0  0  0  0  0
   46.8660   33.4260   37.6260 C   0  0  0  0  0  0  0  0  0  0  0  0
   45.9020   32.7970   46.6140 C   0  0  0  0  0  0  0  0  0  0  0  0
   45.3780   32.9510   47.8400 N   0  0  0  0  0  0  0  0  0  0  0  0
   45.5340   32.0920   48.8550 C   0  0  0  0  0  0  0  0  0  0  0  0
   46.2510   30.9690   48.7220 N   0  0  0  0  0  0  0  0  0  0  0  0
   46.8120   30.7320   47.5300 C   0  0  0  0  0  0  0  0  0  0  0  0
   47.5530   29.5790   47.3800 C   0  0  0  0  0  0  0  0  0  0  0  0
   48.1650   29.2770   46.1580 C   0  0  0  0  0  0  0  0  0  0  0  0
   47.9770   30.1990   45.1290 C   0  0  0  0  0  0  0  0  0  0  0  0
   47.2340   31.3220   45.3360 C   0  0  0  0  0  0  0  0  0  0  0  0
   46.6320   31.6370   46.5110 C   0  0  0  0  0  0  0  0  0  0  0  0
   43.7623   36.4865   45.2832 H   0  0  0  0  0  0  0  0  0  0  0  0
   44.8561   36.5591   43.0265 H   0  0  0  0  0  0  0  0  0  0  0  0
   48.3965   35.8497   42.7553 H   0  0  0  0  0  0  0  0  0  0  0  0
   49.6213   35.6840   40.6239 H   0  0  0  0  0  0  0  0  0  0  0  0
   44.6160   31.1137   37.0424 H   0  0  0  0  0  0  0  0  0  0  0  0
   46.3897   32.5854   35.6308 H   0  0  0  0  0  0  0  0  0  0  0  0
   47.6560   34.1565   37.3974 H   0  0  0  0  0  0  0  0  0  0  0  0
   45.0611   32.3145   49.8229 H   0  0  0  0  0  0  0  0  0  0  0  0
   47.6644   28.8892   48.2296 H   0  0  0  0  0  0  0  0  0  0  0  0
   48.7610   28.3633   46.0172 H   0  0  0  0  0  0  0  0  0  0  0  0
   48.4315   30.0184   44.1437 H   0  0  0  0  0  0  0  0  0  0  0  0
   47.1139   32.0202   44.4945 H   0  0  0  0  0  0  0  0  0  0  0  0
  1  6  2  0
  2  1  1  0
  3  2  2  0
  3  4  1  0
  4  5  2  0
  5  6  1  0
  5 18  1  0
  7  3  1  0
  8  7  2  0
  9  8  1  0
 10 11  1  0
 10  9  2  0
 11 12  2  0
 12  7  1  0
 13 11  1  0
 14 13  1  0
 15 14  2  0
 16 15  1  0
 16 17  2  0
 17 13  1  0
 18 19  2  0
 19 20  1  0
 21 20  2  0
 22 21  1  0
 23 22  2  0
 24 23  1  0
 25 26  1  0
 25 24  2  0
 26 27  2  0
 27 18  1  0
 27 22  1  0
  1 28  1  0
  2 29  1  0
  8 30  1  0
  9 31  1  0
 15 32  1  0
 16 33  1  0
 17 34  1  0
 20 35  1  0
 23 36  1  0
 24 37  1  0
 25 38  1  0
 26 39  1  0
M  END
>  <minimizedAffinity>  (1) 
-7.28422689

>  <minimizedRMSD>  (1) 
0.534332812

$$$$
