
     RDKit          3D

 49 53  0  0  1  0  0  0  0  0999 V2000
   46.3600   33.6830   42.1240 N   0  0  0  0  0  0  0  0  0  0  0  0
   47.6430   33.9790   41.4930 C   0  0  0  0  0  0  0  0  0  0  0  0
   47.1760   34.3690   40.1160 C   0  0  0  0  0  0  0  0  0  0  0  0
   46.2770   33.2080   39.8040 C   0  0  0  0  0  0  0  0  0  0  0  0
   45.5810   32.9670   41.1010 C   0  0  2  0  0  0  0  0  0  0  0  0
   44.1850   33.2440   41.1280 N   0  0  0  0  0  0  0  0  0  0  0  0
   43.5370   34.2790   40.5610 C   0  0  0  0  0  0  0  0  0  0  0  0
   42.1640   34.4380   40.6640 C   0  0  0  0  0  0  0  0  0  0  0  0
   41.4100   33.5160   41.3680 C   0  0  0  0  0  0  0  0  0  0  0  0
   40.1430   33.6180   41.4940 O   0  0  0  0  0  0  0  0  0  0  0  0
   42.0670   32.4820   41.9330 N   0  0  0  0  0  0  0  0  0  0  0  0
   43.3950   32.3640   41.8100 C   0  0  0  0  0  0  0  0  0  0  0  0
   43.9030   31.3580   42.3760 O   0  0  0  0  0  0  0  0  0  0  0  0
   41.4780   35.5850   40.0300 C   0  0  0  0  0  0  0  0  0  0  0  0
   44.7570   35.3420   45.0200 C   0  0  0  0  0  0  0  0  0  0  0  0
   45.1790   35.1280   43.7020 C   0  0  0  0  0  0  0  0  0  0  0  0
   45.9100   33.9820   43.4060 C   0  0  0  0  0  0  0  0  0  0  0  0
   46.1450   33.1710   44.4500 N   0  0  0  0  0  0  0  0  0  0  0  0
   45.7640   33.3370   45.7060 C   0  0  0  0  0  0  0  0  0  0  0  0
   45.0590   34.4480   45.9820 N   0  0  0  0  0  0  0  0  0  0  0  0
   46.0040   32.4730   46.8540 C   0  0  0  0  0  0  0  0  0  0  0  0
   45.4270   32.7390   48.0550 N   0  0  0  0  0  0  0  0  0  0  0  0
   45.5780   32.0250   49.1540 C   0  0  0  0  0  0  0  0  0  0  0  0
   46.3480   30.9290   49.1710 N   0  0  0  0  0  0  0  0  0  0  0  0
   46.9690   30.5730   48.0270 C   0  0  0  0  0  0  0  0  0  0  0  0
   47.7620   29.4570   48.0210 C   0  0  0  0  0  0  0  0  0  0  0  0
   48.4250   29.0490   46.8650 C   0  0  0  0  0  0  0  0  0  0  0  0
   48.2320   29.8400   45.7260 C   0  0  0  0  0  0  0  0  0  0  0  0
   47.4240   30.9520   45.7930 C   0  0  0  0  0  0  0  0  0  0  0  0
   46.7750   31.3570   46.9110 C   0  0  0  0  0  0  0  0  0  0  0  0
   48.1639   34.8067   41.9966 H   0  0  0  0  0  0  0  0  0  0  0  0
   48.3716   33.1553   41.5181 H   0  0  0  0  0  0  0  0  0  0  0  0
   46.6243   35.3206   40.1268 H   0  0  0  0  0  0  0  0  0  0  0  0
   47.9810   34.5395   39.3860 H   0  0  0  0  0  0  0  0  0  0  0  0
   45.5589   33.4654   39.0115 H   0  0  0  0  0  0  0  0  0  0  0  0
   46.8196   32.3264   39.4320 H   0  0  0  0  0  0  0  0  0  0  0  0
   45.5614   31.8854   41.3006 H   0  0  0  0  0  0  0  0  0  0  0  0
   44.1171   35.0240   39.9967 H   0  0  0  0  0  0  0  0  0  0  0  0
   41.5406   31.7747   42.4655 H   0  0  0  0  0  0  0  0  0  0  0  0
   41.0798   36.2508   40.8099 H   0  0  0  0  0  0  0  0  0  0  0  0
   42.1928   36.1396   39.4043 H   0  0  0  0  0  0  0  0  0  0  0  0
   40.6512   35.2176   39.4043 H   0  0  0  0  0  0  0  0  0  0  0  0
   44.1773   36.2426   45.2708 H   0  0  0  0  0  0  0  0  0  0  0  0
   44.9362   35.8549   42.9129 H   0  0  0  0  0  0  0  0  0  0  0  0
   45.0616   32.3357   50.0742 H   0  0  0  0  0  0  0  0  0  0  0  0
   47.8779   28.8718   48.9452 H   0  0  0  0  0  0  0  0  0  0  0  0
   49.0649   28.1544   46.8484 H   0  0  0  0  0  0  0  0  0  0  0  0
   48.7251   29.5732   44.7796 H   0  0  0  0  0  0  0  0  0  0  0  0
   47.2969   31.5510   44.8792 H   0  0  0  0  0  0  0  0  0  0  0  0
  1 17  1  0
  2  1  1  0
  3  2  1  0
  4  3  1  0
  4  5  1  0
  5  6  1  0
  5  1  1  0
  6 12  1  0
  7  8  2  0
  7  6  1  0
  8  9  1  0
  9 10  2  0
  9 11  1  0
 12 11  1  0
 12 13  2  0
 14  8  1  0
 15 20  2  0
 16 15  1  0
 17 16  2  0
 17 18  1  0
 18 19  2  0
 19 20  1  0
 19 21  1  0
 21 30  1  0
 21 22  2  0
 22 23  1  0
 23 24  2  0
 25 24  1  0
 26 25  2  0
 27 26  1  0
 28 29  1  0
 28 27  2  0
 29 30  2  0
 30 25  1  0
  2 31  1  0
  2 32  1  0
  3 33  1  0
  3 34  1  0
  4 35  1  0
  4 36  1  0
  5 37  1  1
  7 38  1  0
 11 39  1  0
 14 40  1  0
 14 41  1  0
 14 42  1  0
 15 43  1  0
 16 44  1  0
 23 45  1  0
 26 46  1  0
 27 47  1  0
 28 48  1  0
 29 49  1  0
M  ISO  8  31  13  32  13  33  13  34  13  35  13  36  13  37  13  38  14
M  ISO  8  39   9  40   8  41   8  42   8  43  14  44  14  45  14  46  14
M  ISO  3  47  14  48  14  49  14
M  END
>  <minimizedAffinity>  (1) 
-6.96230936

>  <minimizedRMSD>  (1) 
1.32121801

$$$$
