
     RDKit          3D

 42 45  0  0  1  0  0  0  0  0999 V2000
   38.6110   33.2980   38.7640 N   0  0  0  0  0  0  0  0  0  0  0  0
   38.4160   34.0410   39.9620 C   0  0  0  0  0  0  0  0  0  0  0  0
   39.4680   33.7360   40.9990 C   0  0  0  0  0  0  0  0  0  0  0  0
   40.8170   34.0360   40.4230 C   0  0  1  0  0  0  0  0  0  0  0  0
   40.7740   34.4500   38.9740 C   0  0  0  0  0  0  0  0  0  0  0  0
   39.9090   33.5300   38.1560 C   0  0  1  0  0  0  0  0  0  0  0  0
   40.5750   32.2770   37.7560 C   0  0  0  0  0  0  0  0  0  0  0  0
   39.9830   31.0270   37.5930 C   0  0  0  0  0  0  0  0  0  0  0  0
   40.9020   30.0930   37.2160 N   0  0  0  0  0  0  0  0  0  0  0  0
   42.0800   30.7660   37.1430 C   0  0  0  0  0  0  0  0  0  0  0  0
   41.8830   32.0560   37.4630 N   0  0  0  0  0  0  0  0  0  0  0  0
   41.5950   35.3080   41.4120 S   0  0  0  0  0  0  0  0  0  0  0  0
   44.0520   35.5160   42.6730 C   0  0  0  0  0  0  0  0  0  0  0  0
   43.3610   35.0310   41.5630 C   0  0  0  0  0  0  0  0  0  0  0  0
   44.0600   34.3390   40.5970 C   0  0  0  0  0  0  0  0  0  0  0  0
   45.4040   34.1540   40.7570 N   0  0  0  0  0  0  0  0  0  0  0  0
   46.0490   34.6330   41.8400 C   0  0  0  0  0  0  0  0  0  0  0  0
   45.3820   35.3210   42.8100 N   0  0  0  0  0  0  0  0  0  0  0  0
   47.4810   34.4600   42.0540 C   0  0  0  0  0  0  0  0  0  0  0  0
   48.3350   35.5310   41.9510 C   0  0  0  0  0  0  0  0  0  0  0  0
   49.7020   35.3980   42.1510 C   0  0  0  0  0  0  0  0  0  0  0  0
   50.2280   34.1510   42.4630 C   0  0  0  0  0  0  0  0  0  0  0  0
   49.3460   33.0990   42.5600 C   0  0  0  0  0  0  0  0  0  0  0  0
   48.0170   33.2590   42.3590 N   0  0  0  0  0  0  0  0  0  0  0  0
   38.5257   32.2951   38.9825 H   0  0  0  0  0  0  0  0  0  0  0  0
   38.4543   35.1142   39.7235 H   0  0  0  0  0  0  0  0  0  0  0  0
   37.4383   33.7584   40.3794 H   0  0  0  0  0  0  0  0  0  0  0  0
   39.2999   34.3589   41.8900 H   0  0  0  0  0  0  0  0  0  0  0  0
   39.4124   32.6756   41.2861 H   0  0  0  0  0  0  0  0  0  0  0  0
   41.4032   33.1056   40.4510 H   0  0  0  0  0  0  0  0  0  0  0  0
   40.3706   35.4712   38.9072 H   0  0  0  0  0  0  0  0  0  0  0  0
   41.7976   34.4026   38.5741 H   0  0  0  0  0  0  0  0  0  0  0  0
   39.7285   34.0717   37.2158 H   0  0  0  0  0  0  0  0  0  0  0  0
   38.9138   30.8202   37.7481 H   0  0  0  0  0  0  0  0  0  0  0  0
   43.0473   30.3225   36.8644 H   0  0  0  0  0  0  0  0  0  0  0  0
   42.6196   32.7757   37.4833 H   0  0  0  0  0  0  0  0  0  0  0  0
   43.5042   36.0675   43.4513 H   0  0  0  0  0  0  0  0  0  0  0  0
   43.5433   33.9418   39.7108 H   0  0  0  0  0  0  0  0  0  0  0  0
   47.9243   36.5209   41.7033 H   0  0  0  0  0  0  0  0  0  0  0  0
   50.3632   36.2727   42.0632 H   0  0  0  0  0  0  0  0  0  0  0  0
   51.3066   34.0098   42.6261 H   0  0  0  0  0  0  0  0  0  0  0  0
   49.7322   32.0993   42.8080 H   0  0  0  0  0  0  0  0  0  0  0  0
  1  2  1  0
  2  3  1  0
  4  3  1  0
  4 12  1  0
  5  4  1  0
  6  1  1  0
  6  5  1  0
  7  6  1  0
  8  7  2  0
  9  8  1  0
 10  9  2  0
 10 11  1  0
 11  7  1  0
 12 14  1  0
 13 18  2  0
 14 13  1  0
 15 16  1  0
 15 14  2  0
 16 17  2  0
 17 19  1  0
 17 18  1  0
 19 24  1  0
 20 19  2  0
 20 21  1  0
 21 22  2  0
 22 23  1  0
 24 23  2  0
  1 25  1  0
  2 26  1  0
  2 27  1  0
  3 28  1  0
  3 29  1  0
  4 30  1  6
  5 31  1  0
  5 32  1  0
  6 33  1  6
  8 34  1  0
 10 35  1  0
 11 36  1  0
 13 37  1  0
 15 38  1  0
 20 39  1  0
 21 40  1  0
 22 41  1  0
 23 42  1  0
M  ISO  8  25   5  26  13  27  13  28  13  29  13  30  13  31  13  32  13
M  ISO  8  33  13  34  14  35  14  36   9  37  14  38  14  39  14  40  14
M  ISO  2  41  14  42  14
M  END
>  <minimizedAffinity>  (1) 
-5.92493773

>  <minimizedRMSD>  (1) 
1.04529357

$$$$
