
     RDKit          3D

 52 56  0  0  1  0  0  0  0  0999 V2000
   46.5490   34.1930   41.9560 C   0  0  1  0  0  0  0  0  0  0  0  0
   44.5900   36.1820   44.4780 C   0  0  0  0  0  0  0  0  0  0  0  0
   45.2110   35.8050   43.2720 C   0  0  0  0  0  0  0  0  0  0  0  0
   45.8970   34.5840   43.2110 C   0  0  0  0  0  0  0  0  0  0  0  0
   45.9260   33.8160   44.3460 N   0  0  0  0  0  0  0  0  0  0  0  0
   45.3320   34.1780   45.5020 C   0  0  0  0  0  0  0  0  0  0  0  0
   44.6660   35.3590   45.5640 N   0  0  0  0  0  0  0  0  0  0  0  0
   45.6930   34.3590   40.7750 C   0  0  0  0  0  0  0  0  0  0  0  0
   44.6060   33.4800   40.6410 N   0  0  0  0  0  0  0  0  0  0  0  0
   44.8980   32.1750   40.8140 C   0  0  0  0  0  0  0  0  0  0  0  0
   43.9000   31.1890   40.6880 C   0  0  0  0  0  0  0  0  0  0  0  0
   42.6270   31.6340   40.3820 C   0  0  0  0  0  0  0  0  0  0  0  0
   41.7330   30.7570   40.2680 O   0  0  0  0  0  0  0  0  0  0  0  0
   42.3420   32.9240   40.2130 N   0  0  0  0  0  0  0  0  0  0  0  0
   43.3310   33.8200   40.3440 C   0  0  0  0  0  0  0  0  0  0  0  0
   43.1130   35.0500   40.1950 O   0  0  0  0  0  0  0  0  0  0  0  0
   41.0240   33.3890   39.8940 C   0  0  0  0  0  0  0  0  0  0  0  0
   39.9970   33.7090   40.7500 C   0  0  0  0  0  0  0  0  0  0  0  0
   38.8160   34.1380   40.1720 C   0  0  0  0  0  0  0  0  0  0  0  0
   38.6880   34.2350   38.8160 C   0  0  0  0  0  0  0  0  0  0  0  0
   39.7410   33.9060   37.9730 C   0  0  0  0  0  0  0  0  0  0  0  0
   40.8930   33.4860   38.5470 N   0  0  0  0  0  0  0  0  0  0  0  0
   47.8390   35.0260   41.8860 C   0  0  0  0  0  0  0  0  0  0  0  0
   49.0630   34.2320   41.9050 C   0  0  0  0  0  0  0  0  0  0  0  0
   50.1180   34.5590   42.7700 C   0  0  0  0  0  0  0  0  0  0  0  0
   51.1360   33.7240   42.6340 N   0  0  0  0  0  0  0  0  0  0  0  0
   50.7930   32.8420   41.6970 C   0  0  0  0  0  0  0  0  0  0  0  0
   51.4440   31.7410   41.1340 C   0  0  0  0  0  0  0  0  0  0  0  0
   50.8210   30.9940   40.1570 C   0  0  0  0  0  0  0  0  0  0  0  0
   49.5340   31.3240   39.7140 C   0  0  0  0  0  0  0  0  0  0  0  0
   48.8630   32.4150   40.2580 C   0  0  0  0  0  0  0  0  0  0  0  0
   49.5080   33.1350   41.2270 C   0  0  0  0  0  0  0  0  0  0  0  0
   46.7692   33.1153   41.9498 H   0  0  0  0  0  0  0  0  0  0  0  0
   44.0459   37.1357   44.5446 H   0  0  0  0  0  0  0  0  0  0  0  0
   45.1586   36.4597   42.3896 H   0  0  0  0  0  0  0  0  0  0  0  0
   45.3868   33.5234   46.3843 H   0  0  0  0  0  0  0  0  0  0  0  0
   45.2899   35.3822   40.7997 H   0  0  0  0  0  0  0  0  0  0  0  0
   46.3457   34.1351   39.9183 H   0  0  0  0  0  0  0  0  0  0  0  0
   45.9286   31.8766   41.0566 H   0  0  0  0  0  0  0  0  0  0  0  0
   44.1218   30.1204   40.8259 H   0  0  0  0  0  0  0  0  0  0  0  0
   40.1090   33.6278   41.8413 H   0  0  0  0  0  0  0  0  0  0  0  0
   37.9652   34.4057   40.8158 H   0  0  0  0  0  0  0  0  0  0  0  0
   37.7362   34.5790   38.3850 H   0  0  0  0  0  0  0  0  0  0  0  0
   39.6430   33.9836   36.8801 H   0  0  0  0  0  0  0  0  0  0  0  0
   47.8566   35.7085   42.7485 H   0  0  0  0  0  0  0  0  0  0  0  0
   47.8211   35.5579   40.9233 H   0  0  0  0  0  0  0  0  0  0  0  0
   50.1013   35.4042   43.4738 H   0  0  0  0  0  0  0  0  0  0  0  0
   52.0246   33.7512   43.1541 H   0  0  0  0  0  0  0  0  0  0  0  0
   52.4554   31.4699   41.4710 H   0  0  0  0  0  0  0  0  0  0  0  0
   51.3409   30.1286   39.7202 H   0  0  0  0  0  0  0  0  0  0  0  0
   49.0516   30.7182   38.9328 H   0  0  0  0  0  0  0  0  0  0  0  0
   47.8520   32.6885   39.9218 H   0  0  0  0  0  0  0  0  0  0  0  0
  1  4  1  0
  2  7  2  0
  3  2  1  0
  4  3  2  0
  4  5  1  0
  5  6  2  0
  6  7  1  0
  8  1  1  0
  9  8  1  0
  9 10  1  0
 11 10  2  0
 12 11  1  0
 13 12  2  0
 14 15  1  0
 14 12  1  0
 15  9  1  0
 16 15  2  0
 17 14  1  0
 17 18  2  0
 19 18  1  0
 20 19  2  0
 21 22  2  0
 21 20  1  0
 22 17  1  0
 23 24  1  0
 23  1  1  0
 24 25  2  0
 26 25  1  0
 27 26  1  0
 28 27  2  0
 29 28  1  0
 30 29  2  0
 30 31  1  0
 31 32  2  0
 32 27  1  0
 32 24  1  0
  1 33  1  1
  2 34  1  0
  3 35  1  0
  6 36  1  0
  8 37  1  0
  8 38  1  0
 10 39  1  0
 11 40  1  0
 18 41  1  0
 19 42  1  0
 20 43  1  0
 21 44  1  0
 23 45  1  0
 23 46  1  0
 25 47  1  0
 26 48  1  0
 28 49  1  0
 29 50  1  0
 30 51  1  0
 31 52  1  0
M  END
>  <minimizedAffinity>  (1) 
-7.23952055

>  <minimizedRMSD>  (1) 
1.61720324

$$$$
