
     RDKit          3D

 47 50  0  0  0  0  0  0  0  0999 V2000
   46.5440   34.3840   42.0700 N   0  0  0  0  0  0  0  0  0  0  0  0
   47.6570   35.1940   41.9460 C   0  0  0  0  0  0  0  0  0  0  0  0
   48.3900   35.2310   40.7910 C   0  0  0  0  0  0  0  0  0  0  0  0
   47.9730   34.4140   39.7350 C   0  0  0  0  0  0  0  0  0  0  0  0
   48.6200   34.4320   38.6740 O   0  0  0  0  0  0  0  0  0  0  0  0
   46.8840   33.6460   39.9170 N   0  0  0  0  0  0  0  0  0  0  0  0
   46.1860   33.6340   41.0600 C   0  0  0  0  0  0  0  0  0  0  0  0
   45.1970   32.9720   41.2820 O   0  0  0  0  0  0  0  0  0  0  0  0
   46.4290   32.8000   38.8840 C   0  0  0  0  0  0  0  0  0  0  0  0
   45.5020   33.1710   37.9390 C   0  0  0  0  0  0  0  0  0  0  0  0
   45.0990   32.2990   36.9580 C   0  0  0  0  0  0  0  0  0  0  0  0
   45.6210   31.0240   36.9000 C   0  0  0  0  0  0  0  0  0  0  0  0
   46.5350   30.6790   37.8440 C   0  0  0  0  0  0  0  0  0  0  0  0
   46.9840   31.5250   38.8690 C   0  0  0  0  0  0  0  0  0  0  0  0
   47.9970   31.0480   39.8510 C   0  0  0  0  0  0  0  0  0  0  0  0
   49.2850   31.7910   39.8550 C   0  0  0  0  0  0  0  0  0  0  0  0
   47.4980   31.0240   41.2610 C   0  0  0  0  0  0  0  0  0  0  0  0
   44.5180   35.7390   44.8440 C   0  0  0  0  0  0  0  0  0  0  0  0
   45.0900   35.5970   43.5600 C   0  0  0  0  0  0  0  0  0  0  0  0
   45.9620   34.5300   43.3680 C   0  0  0  0  0  0  0  0  0  0  0  0
   46.2320   33.6750   44.3970 N   0  0  0  0  0  0  0  0  0  0  0  0
   45.6500   33.8600   45.6170 C   0  0  0  0  0  0  0  0  0  0  0  0
   44.8160   34.8640   45.8380 N   0  0  0  0  0  0  0  0  0  0  0  0
   45.9840   32.9090   46.6730 C   0  0  0  0  0  0  0  0  0  0  0  0
   47.0740   32.0760   46.5340 C   0  0  0  0  0  0  0  0  0  0  0  0
   47.3330   31.1910   47.5840 C   0  0  0  0  0  0  0  0  0  0  0  0
   46.5400   31.1590   48.6900 N   0  0  0  0  0  0  0  0  0  0  0  0
   45.4800   31.9810   48.8060 C   0  0  0  0  0  0  0  0  0  0  0  0
   45.2420   32.8250   47.7920 N   0  0  0  0  0  0  0  0  0  0  0  0
   47.9607   35.8235   42.7954 H   0  0  0  0  0  0  0  0  0  0  0  0
   49.2739   35.8789   40.6966 H   0  0  0  0  0  0  0  0  0  0  0  0
   45.0755   34.1845   37.9694 H   0  0  0  0  0  0  0  0  0  0  0  0
   44.3551   32.6195   36.2137 H   0  0  0  0  0  0  0  0  0  0  0  0
   45.3095   30.3139   36.1198 H   0  0  0  0  0  0  0  0  0  0  0  0
   46.9533   29.6625   37.8016 H   0  0  0  0  0  0  0  0  0  0  0  0
   48.1845   30.0268   39.4878 H   0  0  0  0  0  0  0  0  0  0  0  0
   49.6002   31.9728   40.8931 H   0  0  0  0  0  0  0  0  0  0  0  0
   50.0526   31.1969   39.3374 H   0  0  0  0  0  0  0  0  0  0  0  0
   49.1550   32.7529   39.3374 H   0  0  0  0  0  0  0  0  0  0  0  0
   48.3521   31.0651   41.9530 H   0  0  0  0  0  0  0  0  0  0  0  0
   46.8443   31.8917   41.4334 H   0  0  0  0  0  0  0  0  0  0  0  0
   46.9306   30.0975   41.4334 H   0  0  0  0  0  0  0  0  0  0  0  0
   43.8229   36.5685   45.0405 H   0  0  0  0  0  0  0  0  0  0  0  0
   44.8560   36.2999   42.7469 H   0  0  0  0  0  0  0  0  0  0  0  0
   47.7106   32.1067   45.6375 H   0  0  0  0  0  0  0  0  0  0  0  0
   48.1927   30.5082   47.5156 H   0  0  0  0  0  0  0  0  0  0  0  0
   44.8352   31.9609   49.6970 H   0  0  0  0  0  0  0  0  0  0  0  0
  1 20  1  0
  2  1  1  0
  3  2  2  0
  4  6  1  0
  4  3  1  0
  5  4  2  0
  6  7  1  0
  7  8  2  0
  7  1  1  0
  9  6  1  0
 10  9  2  0
 11 10  1  0
 12 11  2  0
 12 13  1  0
 13 14  2  0
 14  9  1  0
 14 15  1  0
 15 16  1  0
 15 17  1  0
 18 23  2  0
 19 18  1  0
 20 19  2  0
 20 21  1  0
 21 22  2  0
 22 23  1  0
 22 24  1  0
 24 29  1  0
 25 24  2  0
 25 26  1  0
 26 27  2  0
 27 28  1  0
 29 28  2  0
  2 30  1  0
  3 31  1  0
 10 32  1  0
 11 33  1  0
 12 34  1  0
 13 35  1  0
 15 36  1  0
 16 37  1  0
 16 38  1  0
 16 39  1  0
 17 40  1  0
 17 41  1  0
 17 42  1  0
 18 43  1  0
 19 44  1  0
 25 45  1  0
 26 46  1  0
 28 47  1  0
M  ISO  8  30  14  31  14  32  14  33  14  34  14  35  14  36   8  37   8
M  ISO  8  38   8  39   8  40   8  41   8  42   8  43  14  44  14  45  14
M  ISO  2  46  14  47  14
M  END
>  <minimizedAffinity>  (1) 
-6.49667692

>  <minimizedRMSD>  (1) 
0.181921601

$$$$
