
     RDKit          3D

 40 42  0  0  1  0  0  0  0  0999 V2000
   47.2550   34.3020   40.2100 C   0  0  1  0  0  0  0  0  0  0  0  0
   48.3770   34.3890   39.1660 C   0  0  0  0  0  0  0  0  0  0  0  0
   47.7450   33.9740   37.8480 C   0  0  0  0  0  0  0  0  0  0  0  0
   47.4570   32.4900   37.9070 C   0  0  0  0  0  0  0  0  0  0  0  0
   47.4900   31.9660   39.3200 C   0  0  0  0  0  0  0  0  0  0  0  0
   46.7900   32.8990   40.3150 C   0  0  2  0  0  0  0  0  0  0  0  0
   45.3440   32.7050   40.0220 C   0  0  0  0  0  0  0  0  0  0  0  0
   44.4370   33.7630   39.9330 C   0  0  0  0  0  0  0  0  0  0  0  0
   43.0950   33.6470   39.6630 C   0  0  0  0  0  0  0  0  0  0  0  0
   42.6350   32.4020   39.4740 N   0  0  0  0  0  0  0  0  0  0  0  0
   43.4890   31.3650   39.5560 C   0  0  0  0  0  0  0  0  0  0  0  0
   44.7880   31.5160   39.8200 N   0  0  0  0  0  0  0  0  0  0  0  0
   47.7930   34.8100   41.5640 C   0  0  0  0  0  0  0  0  0  0  0  0
   47.3090   33.8240   42.5900 C   0  0  0  0  0  0  0  0  0  0  0  0
   46.1450   33.8230   44.7350 C   0  0  0  0  0  0  0  0  0  0  0  0
   46.3650   34.4300   43.4850 C   0  0  0  0  0  0  0  0  0  0  0  0
   45.6630   35.5610   43.1520 C   0  0  0  0  0  0  0  0  0  0  0  0
   44.7710   36.0520   44.0620 N   0  0  0  0  0  0  0  0  0  0  0  0
   44.5600   35.4670   45.2670 C   0  0  0  0  0  0  0  0  0  0  0  0
   45.2550   34.3480   45.5950 N   0  0  0  0  0  0  0  0  0  0  0  0
   46.4010   34.9275   39.9108 H   0  0  0  0  0  0  0  0  0  0  0  0
   48.7608   35.4178   39.1002 H   0  0  0  0  0  0  0  0  0  0  0  0
   49.2278   33.7434   39.4295 H   0  0  0  0  0  0  0  0  0  0  0  0
   48.4376   34.1861   37.0201 H   0  0  0  0  0  0  0  0  0  0  0  0
   46.8137   34.5349   37.6805 H   0  0  0  0  0  0  0  0  0  0  0  0
   46.4595   32.3043   37.4822 H   0  0  0  0  0  0  0  0  0  0  0  0
   48.2366   31.9687   37.3321 H   0  0  0  0  0  0  0  0  0  0  0  0
   46.9891   30.9870   39.3438 H   0  0  0  0  0  0  0  0  0  0  0  0
   48.5452   31.8913   39.6214 H   0  0  0  0  0  0  0  0  0  0  0  0
   47.0204   32.6611   41.3640 H   0  0  0  0  0  0  0  0  0  0  0  0
   44.8313   34.7774   40.0930 H   0  0  0  0  0  0  0  0  0  0  0  0
   42.4355   34.5255   39.6052 H   0  0  0  0  0  0  0  0  0  0  0  0
   43.0989   30.3486   39.3985 H   0  0  0  0  0  0  0  0  0  0  0  0
   48.8925   34.8424   41.5520 H   0  0  0  0  0  0  0  0  0  0  0  0
   47.4423   35.8292   41.7835 H   0  0  0  0  0  0  0  0  0  0  0  0
   46.8261   32.9795   42.0766 H   0  0  0  0  0  0  0  0  0  0  0  0
   48.1730   33.4777   43.1761 H   0  0  0  0  0  0  0  0  0  0  0  0
   46.7031   32.9157   45.0096 H   0  0  0  0  0  0  0  0  0  0  0  0
   45.8141   36.0569   42.1818 H   0  0  0  0  0  0  0  0  0  0  0  0
   43.8324   35.8952   45.9722 H   0  0  0  0  0  0  0  0  0  0  0  0
  1  6  1  0
  1 13  1  0
  2  1  1  0
  3  4  1  0
  3  2  1  0
  4  5  1  0
  5  6  1  0
  7  6  1  0
  8  7  2  0
  9  8  1  0
 10 11  1  0
 10  9  2  0
 11 12  2  0
 12  7  1  0
 13 14  1  0
 14 16  1  0
 15 20  2  0
 16 15  1  0
 17 16  2  0
 17 18  1  0
 18 19  2  0
 19 20  1  0
  1 21  1  6
  2 22  1  0
  2 23  1  0
  3 24  1  0
  3 25  1  0
  4 26  1  0
  4 27  1  0
  5 28  1  0
  5 29  1  0
  6 30  1  1
  8 31  1  0
  9 32  1  0
 11 33  1  0
 13 34  1  0
 13 35  1  0
 14 36  1  0
 14 37  1  0
 15 38  1  0
 17 39  1  0
 19 40  1  0
M  ISO  8  21  13  22  13  23  13  24  13  25  13  26  13  27  13  28  13
M  ISO  8  29  13  30  13  31  14  32  14  33  14  34   8  35   8  36   8
M  ISO  4  37   8  38  14  39  14  40  14
M  END
>  <minimizedAffinity>  (1) 
-4.53186846

>  <minimizedRMSD>  (1) 
1.5903579

$$$$
