
     RDKit          3D

 31 33  0  0  1  0  0  0  0  0999 V2000
   43.8620   34.9940   41.6980 C   0  0  2  0  0  0  0  0  0  0  0  0
   42.3500   34.6830   41.5470 C   0  0  0  0  0  0  0  0  0  0  0  0
   42.2540   35.1170   40.0700 C   0  0  1  0  0  0  0  0  0  0  0  0
   43.3990   34.3110   39.4840 C   0  0  0  0  0  0  0  0  0  0  0  0
   44.4120   34.1810   40.6100 C   0  0  0  0  0  0  0  0  0  0  0  0
   44.1850   35.7440   44.0040 C   0  0  0  0  0  0  0  0  0  0  0  0
   44.3700   34.7150   43.0430 C   0  0  0  0  0  0  0  0  0  0  0  0
   45.0410   33.5130   43.4140 C   0  0  0  0  0  0  0  0  0  0  0  0
   45.4760   33.4190   44.6980 N   0  0  0  0  0  0  0  0  0  0  0  0
   45.2870   34.4200   45.6030 C   0  0  0  0  0  0  0  0  0  0  0  0
   44.6490   35.5740   45.2660 N   0  0  0  0  0  0  0  0  0  0  0  0
   40.9600   34.7830   39.4800 C   0  0  0  0  0  0  0  0  0  0  0  0
   40.7600   34.7970   38.1170 C   0  0  0  0  0  0  0  0  0  0  0  0
   39.4970   34.4650   37.6450 C   0  0  0  0  0  0  0  0  0  0  0  0
   38.4880   34.1350   38.4980 N   0  0  0  0  0  0  0  0  0  0  0  0
   38.7100   34.1290   39.8310 C   0  0  0  0  0  0  0  0  0  0  0  0
   39.9340   34.4500   40.2960 N   0  0  0  0  0  0  0  0  0  0  0  0
   44.1450   36.0533   41.6101 H   0  0  0  0  0  0  0  0  0  0  0  0
   42.1166   33.6183   41.6948 H   0  0  0  0  0  0  0  0  0  0  0  0
   41.6619   35.1605   42.2601 H   0  0  0  0  0  0  0  0  0  0  0  0
   42.3261   36.2007   39.8955 H   0  0  0  0  0  0  0  0  0  0  0  0
   43.0482   33.3187   39.1642 H   0  0  0  0  0  0  0  0  0  0  0  0
   43.8310   34.7959   38.5962 H   0  0  0  0  0  0  0  0  0  0  0  0
   44.5127   33.1311   40.9224 H   0  0  0  0  0  0  0  0  0  0  0  0
   45.4163   34.5130   40.3079 H   0  0  0  0  0  0  0  0  0  0  0  0
   43.6679   36.6741   43.7256 H   0  0  0  0  0  0  0  0  0  0  0  0
   45.1996   32.6977   42.6928 H   0  0  0  0  0  0  0  0  0  0  0  0
   45.6589   34.2923   46.6303 H   0  0  0  0  0  0  0  0  0  0  0  0
   41.5735   35.0623   37.4258 H   0  0  0  0  0  0  0  0  0  0  0  0
   39.3079   34.4686   36.5614 H   0  0  0  0  0  0  0  0  0  0  0  0
   37.9014   33.8653   40.5285 H   0  0  0  0  0  0  0  0  0  0  0  0
  1  7  1  0
  2  1  1  0
  3  2  1  0
  4  3  1  0
  4  5  1  0
  5  1  1  0
  6 11  2  0
  7  8  2  0
  7  6  1  0
  8  9  1  0
  9 10  2  0
 11 10  1  0
 12  3  1  0
 12 17  1  0
 13 12  2  0
 14 13  1  0
 14 15  2  0
 15 16  1  0
 16 17  2  0
  1 18  1  6
  2 19  1  0
  2 20  1  0
  3 21  1  1
  4 22  1  0
  4 23  1  0
  5 24  1  0
  5 25  1  0
  6 26  1  0
  8 27  1  0
 10 28  1  0
 13 29  1  0
 14 30  1  0
 16 31  1  0
M  ISO  8  18  13  19  13  20  13  21  13  22  13  23  13  24  13  25  13
M  ISO  6  26  14  27  14  28  14  29  14  30  14  31  14
M  END
>  <minimizedAffinity>  (1) 
-5.09709215

>  <minimizedRMSD>  (1) 
0.846541762

$$$$
