
     RDKit          3D

 36 39  0  0  0  0  0  0  0  0999 V2000
   47.0160   34.8230   41.9990 C   0  0  0  0  0  0  0  0  0  0  0  0
   48.2220   35.4890   41.9720 C   0  0  0  0  0  0  0  0  0  0  0  0
   48.9290   35.4400   40.8170 C   0  0  0  0  0  0  0  0  0  0  0  0
   48.4600   34.7660   39.7540 N   0  0  0  0  0  0  0  0  0  0  0  0
   47.2640   34.1130   39.8020 C   0  0  0  0  0  0  0  0  0  0  0  0
   46.5490   34.1560   40.9490 N   0  0  0  0  0  0  0  0  0  0  0  0
   46.8530   33.4270   38.6330 N   0  0  0  0  0  0  0  0  0  0  0  0
   45.9740   32.4060   38.8770 C   0  0  0  0  0  0  0  0  0  0  0  0
   45.4780   31.6330   37.8200 C   0  0  0  0  0  0  0  0  0  0  0  0
   45.9460   31.9900   36.5710 C   0  0  0  0  0  0  0  0  0  0  0  0
   45.4750   31.2640   35.6280 O   0  0  0  0  0  0  0  0  0  0  0  0
   46.8030   32.9850   36.3290 N   0  0  0  0  0  0  0  0  0  0  0  0
   47.2480   33.6970   37.3860 C   0  0  0  0  0  0  0  0  0  0  0  0
   48.0560   34.6460   37.2150 O   0  0  0  0  0  0  0  0  0  0  0  0
   44.5130   35.8080   44.5980 C   0  0  0  0  0  0  0  0  0  0  0  0
   45.2510   35.8260   43.3720 C   0  0  0  0  0  0  0  0  0  0  0  0
   46.2330   34.8570   43.2190 C   0  0  0  0  0  0  0  0  0  0  0  0
   46.4390   33.9580   44.2160 N   0  0  0  0  0  0  0  0  0  0  0  0
   45.7190   33.9710   45.3650 C   0  0  0  0  0  0  0  0  0  0  0  0
   44.7540   34.8970   45.5560 N   0  0  0  0  0  0  0  0  0  0  0  0
   45.9840   32.9800   46.4050 C   0  0  0  0  0  0  0  0  0  0  0  0
   46.9940   32.0590   46.2240 C   0  0  0  0  0  0  0  0  0  0  0  0
   47.1700   31.1630   47.2590 C   0  0  0  0  0  0  0  0  0  0  0  0
   46.4150   31.1750   48.3730 N   0  0  0  0  0  0  0  0  0  0  0  0
   45.4240   32.1020   48.5160 C   0  0  0  0  0  0  0  0  0  0  0  0
   45.2450   32.9670   47.5300 N   0  0  0  0  0  0  0  0  0  0  0  0
   48.5947   36.0368   42.8501 H   0  0  0  0  0  0  0  0  0  0  0  0
   49.8972   35.9577   40.7492 H   0  0  0  0  0  0  0  0  0  0  0  0
   45.6560   32.1920   39.9081 H   0  0  0  0  0  0  0  0  0  0  0  0
   44.7700   30.8051   37.9729 H   0  0  0  0  0  0  0  0  0  0  0  0
   47.1131   33.2013   35.3709 H   0  0  0  0  0  0  0  0  0  0  0  0
   43.7271   36.5603   44.7606 H   0  0  0  0  0  0  0  0  0  0  0  0
   45.0498   36.5717   42.5888 H   0  0  0  0  0  0  0  0  0  0  0  0
   47.6165   32.0397   45.3173 H   0  0  0  0  0  0  0  0  0  0  0  0
   47.9625   30.4055   47.1693 H   0  0  0  0  0  0  0  0  0  0  0  0
   44.7960   32.1296   49.4187 H   0  0  0  0  0  0  0  0  0  0  0  0
  1 17  1  0
  2  1  2  0
  3  2  1  0
  4  5  1  0
  4  3  2  0
  5  6  2  0
  6  1  1  0
  7  8  1  0
  7  5  1  0
  9  8  2  0
 10  9  1  0
 11 10  2  0
 12 10  1  0
 12 13  1  0
 13  7  1  0
 14 13  2  0
 15 20  2  0
 16 15  1  0
 17 16  2  0
 17 18  1  0
 18 19  2  0
 19 20  1  0
 19 21  1  0
 21 26  1  0
 22 21  2  0
 22 23  1  0
 23 24  2  0
 24 25  1  0
 26 25  2  0
  2 27  1  0
  3 28  1  0
  8 29  1  0
  9 30  1  0
 12 31  1  0
 15 32  1  0
 16 33  1  0
 22 34  1  0
 23 35  1  0
 25 36  1  0
M  END
>  <minimizedAffinity>  (1) 
-7.39255047

>  <minimizedRMSD>  (1) 
0.395265371

$$$$
