
     RDKit          3D

 22 23  0  0  0  0  0  0  0  0999 V2000
   46.2340   33.6920   44.5740 C   0  0  0  0  0  0  0  0  0  0  0  0
   45.7680   33.6960   45.8740 C   0  0  0  0  0  0  0  0  0  0  0  0
   44.8240   34.7000   46.1250 C   0  0  0  0  0  0  0  0  0  0  0  0
   44.4400   35.5550   45.1530 N   0  0  0  0  0  0  0  0  0  0  0  0
   44.9250   35.5040   43.9050 C   0  0  0  0  0  0  0  0  0  0  0  0
   45.8130   34.5770   43.6300 N   0  0  0  0  0  0  0  0  0  0  0  0
   46.0750   32.8410   46.9890 C   0  0  0  0  0  0  0  0  0  0  0  0
   45.0790   32.2740   47.7450 C   0  0  0  0  0  0  0  0  0  0  0  0
   45.2830   31.4560   48.8290 C   0  0  0  0  0  0  0  0  0  0  0  0
   46.5580   31.1740   49.1980 N   0  0  0  0  0  0  0  0  0  0  0  0
   47.5410   31.7220   48.4700 C   0  0  0  0  0  0  0  0  0  0  0  0
   47.2770   32.5020   47.4360 N   0  0  0  0  0  0  0  0  0  0  0  0
   47.2400   32.6800   44.2980 C   0  0  0  0  0  0  0  0  0  0  0  0
   48.2000   32.8500   43.4550 O   0  0  0  0  0  0  0  0  0  0  0  0
   44.3883   34.7935   47.1307 H   0  0  0  0  0  0  0  0  0  0  0  0
   44.5901   36.2156   43.1360 H   0  0  0  0  0  0  0  0  0  0  0  0
   44.0388   32.4914   47.4609 H   0  0  0  0  0  0  0  0  0  0  0  0
   44.4313   31.0384   49.3861 H   0  0  0  0  0  0  0  0  0  0  0  0
   48.5882   31.5186   48.7383 H   0  0  0  0  0  0  0  0  0  0  0  0
   47.7207   32.4611   45.2629 H   0  0  0  0  0  0  0  0  0  0  0  0
   46.6401   31.9092   43.7920 H   0  0  0  0  0  0  0  0  0  0  0  0
   49.0469   33.0000   43.9452 H   0  0  0  0  0  0  0  0  0  0  0  0
  1  2  2  0
  2  3  1  0
  2  7  1  0
  4  3  2  0
  5  4  1  0
  6  5  2  0
  6  1  1  0
  7 12  1  0
  7  8  2  0
  8  9  1  0
  9 10  2  0
 11 10  1  0
 12 11  2  0
 13  1  1  0
 14 13  1  0
  3 15  1  0
  5 16  1  0
  8 17  1  0
  9 18  1  0
 11 19  1  0
 13 20  1  0
 13 21  1  0
 14 22  1  0
M  ISO  8  15  14  16  14  17  14  18  14  19  14  20   8  21   8  22   3
M  END
>  <minimizedAffinity>  (1) 
-4.37303352

>  <minimizedRMSD>  (1) 
5.86036491

$$$$
