
     RDKit          3D

 54 58  0  0  1  0  0  0  0  0999 V2000
   46.7740   32.0200   45.6000 C   0  0  1  0  0  0  0  0  0  0  0  0
   45.1160   30.0250   48.2150 C   0  0  0  0  0  0  0  0  0  0  0  0
   45.1940   30.9310   49.3400 C   0  0  0  0  0  0  0  0  0  0  0  0
   45.8140   32.1980   49.1440 C   0  0  0  0  0  0  0  0  0  0  0  0
   46.2910   32.4660   47.9040 N   0  0  0  0  0  0  0  0  0  0  0  0
   46.2020   31.6120   46.8920 C   0  0  0  0  0  0  0  0  0  0  0  0
   45.6160   30.3940   47.0450 N   0  0  0  0  0  0  0  0  0  0  0  0
   46.4570   31.1250   44.4670 C   0  0  0  0  0  0  0  0  0  0  0  0
   47.7100   30.6140   43.8570 C   0  0  0  0  0  0  0  0  0  0  0  0
   48.5890   29.9130   44.6180 C   0  0  0  0  0  0  0  0  0  0  0  0
   49.6550   29.5710   43.8260 C   0  0  0  0  0  0  0  0  0  0  0  0
   49.3450   30.0990   42.6070 N   0  0  0  0  0  0  0  0  0  0  0  0
   48.1950   30.7200   42.6090 N   0  0  0  0  0  0  0  0  0  0  0  0
   49.6450   30.8150   40.3180 N   0  0  0  0  0  0  0  0  0  0  0  0
   50.7460   31.5530   39.7530 C   0  0  0  0  0  0  0  0  0  0  0  0
   51.5680   31.8590   40.9980 C   0  0  0  0  0  0  0  0  0  0  0  0
   51.5750   30.4970   41.6770 C   0  0  0  0  0  0  0  0  0  0  0  0
   50.1770   30.0110   41.3970 C   0  0  1  0  0  0  0  0  0  0  0  0
   46.4060   33.4630   45.2730 C   0  0  0  0  0  0  0  0  0  0  0  0
   46.1400   33.8860   43.9520 C   0  0  0  0  0  0  0  0  0  0  0  0
   44.8240   33.9590   43.5470 C   0  0  0  0  0  0  0  0  0  0  0  0
   44.3970   34.2990   42.2800 C   0  0  0  0  0  0  0  0  0  0  0  0
   45.3580   34.5900   41.3440 C   0  0  0  0  0  0  0  0  0  0  0  0
   46.6990   34.5370   41.6850 C   0  0  0  0  0  0  0  0  0  0  0  0
   47.7010   34.8600   40.7670 C   0  0  0  0  0  0  0  0  0  0  0  0
   49.0590   34.8500   41.0860 C   0  0  0  0  0  0  0  0  0  0  0  0
   49.4080   34.5030   42.3750 C   0  0  0  0  0  0  0  0  0  0  0  0
   48.4330   34.1820   43.2890 C   0  0  0  0  0  0  0  0  0  0  0  0
   47.0750   34.1950   42.9530 C   0  0  0  0  0  0  0  0  0  0  0  0
   47.8630   31.9381   45.7320 H   0  0  0  0  0  0  0  0  0  0  0  0
   44.6453   29.0375   48.3301 H   0  0  0  0  0  0  0  0  0  0  0  0
   44.7851   30.6486   50.3213 H   0  0  0  0  0  0  0  0  0  0  0  0
   45.9019   32.9271   49.9630 H   0  0  0  0  0  0  0  0  0  0  0  0
   45.8564   30.2776   44.8293 H   0  0  0  0  0  0  0  0  0  0  0  0
   45.8906   31.6876   43.7103 H   0  0  0  0  0  0  0  0  0  0  0  0
   48.4675   29.6633   45.6824 H   0  0  0  0  0  0  0  0  0  0  0  0
   50.5530   29.0021   44.1085 H   0  0  0  0  0  0  0  0  0  0  0  0
   49.2222   30.2081   39.6012 H   0  0  0  0  0  0  0  0  0  0  0  0
   51.3139   30.9430   39.0351 H   0  0  0  0  0  0  0  0  0  0  0  0
   50.4460   32.4430   39.1805 H   0  0  0  0  0  0  0  0  0  0  0  0
   52.5855   32.1882   40.7405 H   0  0  0  0  0  0  0  0  0  0  0  0
   51.1686   32.6750   41.6182 H   0  0  0  0  0  0  0  0  0  0  0  0
   52.3283   29.8305   41.2317 H   0  0  0  0  0  0  0  0  0  0  0  0
   51.8306   30.5317   42.7463 H   0  0  0  0  0  0  0  0  0  0  0  0
   50.1828   28.9518   41.1004 H   0  0  0  0  0  0  0  0  0  0  0  0
   45.5021   33.6903   45.8571 H   0  0  0  0  0  0  0  0  0  0  0  0
   47.3393   33.9976   45.5035 H   0  0  0  0  0  0  0  0  0  0  0  0
   44.0516   33.7272   44.2951 H   0  0  0  0  0  0  0  0  0  0  0  0
   43.3266   34.3355   42.0292 H   0  0  0  0  0  0  0  0  0  0  0  0
   45.0622   34.8658   40.3210 H   0  0  0  0  0  0  0  0  0  0  0  0
   47.4052   35.1353   39.7439 H   0  0  0  0  0  0  0  0  0  0  0  0
   49.8228   35.1090   40.3380 H   0  0  0  0  0  0  0  0  0  0  0  0
   50.4672   34.4833   42.6713 H   0  0  0  0  0  0  0  0  0  0  0  0
   48.7284   33.9074   44.3124 H   0  0  0  0  0  0  0  0  0  0  0  0
  1  6  1  0
  2  3  2  0
  4  3  1  0
  5  4  2  0
  6  7  2  0
  6  5  1  0
  7  2  1  0
  8  1  1  0
  9  8  1  0
  9 10  1  0
 11 10  2  0
 12 13  1  0
 12 11  1  0
 13  9  2  0
 14 18  1  0
 15 14  1  0
 15 16  1  0
 16 17  1  0
 18 17  1  0
 18 12  1  0
 19  1  1  0
 20 19  1  0
 21 20  2  0
 22 21  1  0
 23 24  1  0
 23 22  2  0
 24 29  2  0
 25 26  2  0
 25 24  1  0
 26 27  1  0
 27 28  2  0
 29 28  1  0
 29 20  1  0
  1 30  1  1
  2 31  1  0
  3 32  1  0
  4 33  1  0
  8 34  1  0
  8 35  1  0
 10 36  1  0
 11 37  1  0
 14 38  1  0
 15 39  1  0
 15 40  1  0
 16 41  1  0
 16 42  1  0
 17 43  1  0
 17 44  1  0
 18 45  1  6
 19 46  1  0
 19 47  1  0
 21 48  1  0
 22 49  1  0
 23 50  1  0
 25 51  1  0
 26 52  1  0
 27 53  1  0
 28 54  1  0
M  ISO  8  30   8  31  14  32  14  33  14  34   8  35   8  36  14  37  14
M  ISO  8  38   5  39  13  40  13  41  13  42  13  43  13  44  13  45  13
M  ISO  8  46   8  47   8  48  14  49  14  50  14  51  14  52  14  53  14
M  ISO  1  54  14
M  END
>  <minimizedAffinity>  (1) 
-5.83836031

>  <minimizedRMSD>  (1) 
6.4862957

$$$$
