
     RDKit          3D

 32 34  0  0  1  0  0  0  0  0999 V2000
   47.2410   31.1750   47.4520 N   0  0  0  0  0  0  0  0  0  0  0  0
   47.2390   31.5010   48.8790 C   0  0  0  0  0  0  0  0  0  0  0  0
   45.9380   32.2670   49.0130 C   0  0  0  0  0  0  0  0  0  0  0  0
   44.9680   31.4860   48.1810 C   0  0  0  0  0  0  0  0  0  0  0  0
   45.9180   30.9330   47.0800 C   0  0  2  0  0  0  0  0  0  0  0  0
   45.5710   29.4530   47.0450 C   0  0  0  0  0  0  0  0  0  0  0  0
   46.0630   28.2240   47.3940 C   0  0  0  0  0  0  0  0  0  0  0  0
   45.1590   27.2650   47.0220 C   0  0  0  0  0  0  0  0  0  0  0  0
   44.1190   27.8890   46.4480 N   0  0  0  0  0  0  0  0  0  0  0  0
   44.3770   29.2070   46.4660 N   0  0  0  0  0  0  0  0  0  0  0  0
   45.6480   31.3580   45.8010 O   0  0  0  0  0  0  0  0  0  0  0  0
   46.4680   32.2900   45.0840 C   0  0  0  0  0  0  0  0  0  0  0  0
   47.6020   31.9370   44.7200 O   0  0  0  0  0  0  0  0  0  0  0  0
   44.6030   35.3940   45.4910 C   0  0  0  0  0  0  0  0  0  0  0  0
   44.7370   36.0360   44.2470 C   0  0  0  0  0  0  0  0  0  0  0  0
   45.4960   35.3920   43.2690 C   0  0  0  0  0  0  0  0  0  0  0  0
   46.0630   34.1740   43.5860 N   0  0  0  0  0  0  0  0  0  0  0  0
   45.8870   33.6120   44.8210 C   0  0  0  0  0  0  0  0  0  0  0  0
   45.1670   34.2160   45.7570 N   0  0  0  0  0  0  0  0  0  0  0  0
   47.6206   31.9647   46.9105 H   0  0  0  0  0  0  0  0  0  0  0  0
   47.2357   30.5921   49.4987 H   0  0  0  0  0  0  0  0  0  0  0  0
   48.1252   32.0611   49.2120 H   0  0  0  0  0  0  0  0  0  0  0  0
   45.6120   32.3025   50.0630 H   0  0  0  0  0  0  0  0  0  0  0  0
   46.0282   33.3135   48.6862 H   0  0  0  0  0  0  0  0  0  0  0  0
   44.4996   30.6749   48.7578 H   0  0  0  0  0  0  0  0  0  0  0  0
   44.1170   32.0700   47.8005 H   0  0  0  0  0  0  0  0  0  0  0  0
   47.0262   28.0375   47.8915 H   0  0  0  0  0  0  0  0  0  0  0  0
   45.2660   26.1799   47.1674 H   0  0  0  0  0  0  0  0  0  0  0  0
   43.2760   27.4391   46.0635 H   0  0  0  0  0  0  0  0  0  0  0  0
   44.0086   35.8839   46.2763 H   0  0  0  0  0  0  0  0  0  0  0  0
   44.2617   37.0087   44.0523 H   0  0  0  0  0  0  0  0  0  0  0  0
   45.6382   35.8415   42.2752 H   0  0  0  0  0  0  0  0  0  0  0  0
  1  2  1  0
  2  3  1  0
  4  3  1  0
  5 11  1  6
  5  1  1  0
  5  4  1  0
  6  5  1  0
  6  7  1  0
  8  7  2  0
  9 10  1  0
  9  8  1  0
 10  6  2  0
 12 11  1  0
 13 12  2  0
 14 19  2  0
 15 14  1  0
 16 17  1  0
 16 15  2  0
 17 18  2  0
 18 12  1  0
 18 19  1  0
  1 20  1  0
  2 21  1  0
  2 22  1  0
  3 23  1  0
  3 24  1  0
  4 25  1  0
  4 26  1  0
  7 27  1  0
  8 28  1  0
  9 29  1  0
 14 30  1  0
 15 31  1  0
 16 32  1  0
M  ISO  8  20   5  21  13  22  13  23  13  24  13  25  13  26  13  27  14
M  ISO  5  28  14  29   9  30  14  31  14  32  14
M  END
>  <minimizedAffinity>  (1) 
-4.73141909

>  <minimizedRMSD>  (1) 
3.22043061

$$$$
