
     RDKit          3D

 38 42  0  0  0  0  0  0  0  0999 V2000
   46.3450   32.7300   46.8980 C   0  0  0  0  0  0  0  0  0  0  0  0
   45.5180   32.5840   47.9910 C   0  0  0  0  0  0  0  0  0  0  0  0
   46.2440   31.8180   48.8780 C   0  0  0  0  0  0  0  0  0  0  0  0
   47.4780   31.5200   48.3070 C   0  0  0  0  0  0  0  0  0  0  0  0
   47.4570   32.0930   47.1440 O   0  0  0  0  0  0  0  0  0  0  0  0
   46.6710   34.0370   43.6010 C   0  0  0  0  0  0  0  0  0  0  0  0
   45.5350   34.7020   44.0630 C   0  0  0  0  0  0  0  0  0  0  0  0
   45.2870   34.2740   45.3640 C   0  0  0  0  0  0  0  0  0  0  0  0
   46.2730   33.3730   45.6460 N   0  0  0  0  0  0  0  0  0  0  0  0
   47.0920   33.2220   44.6220 N   0  0  0  0  0  0  0  0  0  0  0  0
   48.6690   35.3870   40.8310 C   0  0  0  0  0  0  0  0  0  0  0  0
   48.1180   34.7010   39.7270 C   0  0  0  0  0  0  0  0  0  0  0  0
   47.0700   33.7870   39.9610 C   0  0  0  0  0  0  0  0  0  0  0  0
   46.6230   33.5980   41.2450 N   0  0  0  0  0  0  0  0  0  0  0  0
   47.1850   34.2790   42.2570 C   0  0  0  0  0  0  0  0  0  0  0  0
   48.1960   35.1680   42.0830 N   0  0  0  0  0  0  0  0  0  0  0  0
   48.4780   30.7440   48.9470 N   0  0  0  0  0  0  0  0  0  0  0  0
   49.2770   31.0110   50.0420 C   0  0  0  0  0  0  0  0  0  0  0  0
   50.0590   29.9050   50.2430 C   0  0  0  0  0  0  0  0  0  0  0  0
   49.7340   29.0140   49.2980 N   0  0  0  0  0  0  0  0  0  0  0  0
   48.7590   29.5210   48.4890 C   0  0  0  0  0  0  0  0  0  0  0  0
   48.2290   28.7490   47.3570 C   0  0  0  0  0  0  0  0  0  0  0  0
   48.6490   28.8230   46.0460 C   0  0  0  0  0  0  0  0  0  0  0  0
   47.9330   27.9610   45.2480 C   0  0  0  0  0  0  0  0  0  0  0  0
   47.0880   27.3830   46.1170 N   0  0  0  0  0  0  0  0  0  0  0  0
   47.2490   27.8320   47.3440 N   0  0  0  0  0  0  0  0  0  0  0  0
   44.5041   32.9887   48.1256 H   0  0  0  0  0  0  0  0  0  0  0  0
   45.9041   31.4954   49.8732 H   0  0  0  0  0  0  0  0  0  0  0  0
   44.9402   35.4353   43.4986 H   0  0  0  0  0  0  0  0  0  0  0  0
   44.4687   34.5943   46.0257 H   0  0  0  0  0  0  0  0  0  0  0  0
   49.4880   36.1044   40.6746 H   0  0  0  0  0  0  0  0  0  0  0  0
   48.4969   34.8752   38.7091 H   0  0  0  0  0  0  0  0  0  0  0  0
   46.6168   33.2329   39.1258 H   0  0  0  0  0  0  0  0  0  0  0  0
   49.2837   31.9353   50.6384 H   0  0  0  0  0  0  0  0  0  0  0  0
   50.8130   29.7733   51.0330 H   0  0  0  0  0  0  0  0  0  0  0  0
   49.4509   29.4841   45.6856 H   0  0  0  0  0  0  0  0  0  0  0  0
   48.0289   27.7880   44.1659 H   0  0  0  0  0  0  0  0  0  0  0  0
   46.3932   26.6697   45.8536 H   0  0  0  0  0  0  0  0  0  0  0  0
  1  5  1  0
  1  2  2  0
  2  3  1  0
  4  3  2  0
  4 17  1  0
  5  4  1  0
  6  7  1  0
  6 10  2  0
  7  8  2  0
  8  9  1  0
  9  1  1  0
 10  9  1  0
 11 16  2  0
 12 13  2  0
 12 11  1  0
 13 14  1  0
 14 15  2  0
 15  6  1  0
 16 15  1  0
 17 18  1  0
 18 19  2  0
 20 19  1  0
 21 17  1  0
 21 20  2  0
 22 21  1  0
 23 22  1  0
 24 23  2  0
 24 25  1  0
 25 26  1  0
 26 22  2  0
  2 27  1  0
  3 28  1  0
  7 29  1  0
  8 30  1  0
 11 31  1  0
 12 32  1  0
 13 33  1  0
 18 34  1  0
 19 35  1  0
 23 36  1  0
 24 37  1  0
 25 38  1  0
M  ISO  8  27  14  28  14  29  14  30  14  31  14  32  14  33  14  34  14
M  ISO  4  35  14  36  14  37  14  38   9
M  END
>  <minimizedAffinity>  (1) 
-5.83763647

>  <minimizedRMSD>  (1) 
1.59179008

$$$$
