
     RDKit          3D

 45 49  0  0  1  0  0  0  0  0999 V2000
   45.6640   32.6470   47.1530 C   0  0  0  0  0  0  0  0  0  0  0  0
   46.4200   31.5310   46.7020 C   0  0  0  0  0  0  0  0  0  0  0  0
   46.6890   30.5150   47.6610 C   0  0  0  0  0  0  0  0  0  0  0  0
   46.2530   30.6260   48.9000 N   0  0  0  0  0  0  0  0  0  0  0  0
   45.5300   31.7220   49.2930 C   0  0  0  0  0  0  0  0  0  0  0  0
   45.2400   32.7260   48.4090 N   0  0  0  0  0  0  0  0  0  0  0  0
   47.0070   31.5920   45.3500 C   0  0  2  0  0  0  0  0  0  0  0  0
   47.1010   32.9580   44.8700 C   0  0  0  0  0  0  0  0  0  0  0  0
   46.8860   33.2560   43.4510 C   0  0  0  0  0  0  0  0  0  0  0  0
   46.6120   32.1580   42.4930 C   0  0  0  0  0  0  0  0  0  0  0  0
   46.9350   30.8430   43.0640 C   0  0  0  0  0  0  0  0  0  0  0  0
   46.1000   30.7530   44.3930 C   0  0  0  0  0  0  0  0  0  0  0  0
   47.3370   29.2530   47.5070 C   0  0  0  0  0  0  0  0  0  0  0  0
   48.5400   29.0060   47.8680 N   0  0  0  0  0  0  0  0  0  0  0  0
   48.8310   27.7700   47.5810 O   0  0  0  0  0  0  0  0  0  0  0  0
   47.8530   27.1500   47.0250 C   0  0  0  0  0  0  0  0  0  0  0  0
   46.8950   28.0190   46.9530 N   0  0  0  0  0  0  0  0  0  0  0  0
   47.8590   25.7580   46.5820 C   0  0  0  0  0  0  0  0  0  0  0  0
   48.6010   25.3900   45.6050 O   0  0  0  0  0  0  0  0  0  0  0  0
   46.9900   24.7480   47.2830 C   0  0  1  0  0  0  0  0  0  0  0  0
   47.5600   23.4340   47.5540 C   0  0  0  0  0  0  0  0  0  0  0  0
   47.5620   24.4430   48.6780 C   0  0  2  0  0  0  0  0  0  0  0  0
   46.6290   24.2120   49.8030 C   0  0  0  0  0  0  0  0  0  0  0  0
   46.7050   23.1920   50.7050 C   0  0  0  0  0  0  0  0  0  0  0  0
   45.6140   23.4160   51.5490 C   0  0  0  0  0  0  0  0  0  0  0  0
   44.9360   24.5160   51.1550 N   0  0  0  0  0  0  0  0  0  0  0  0
   45.5680   24.9980   50.0810 N   0  0  0  0  0  0  0  0  0  0  0  0
   45.4262   33.4588   46.4499 H   0  0  0  0  0  0  0  0  0  0  0  0
   45.1781   31.7958   50.3326 H   0  0  0  0  0  0  0  0  0  0  0  0
   48.0288   31.1857   45.3798 H   0  0  0  0  0  0  0  0  0  0  0  0
   47.3341   33.7717   45.5725 H   0  0  0  0  0  0  0  0  0  0  0  0
   46.9280   34.2963   43.0961 H   0  0  0  0  0  0  0  0  0  0  0  0
   47.2204   32.3133   41.5898 H   0  0  0  0  0  0  0  0  0  0  0  0
   45.5385   32.1727   42.2536 H   0  0  0  0  0  0  0  0  0  0  0  0
   46.6443   30.0398   42.3709 H   0  0  0  0  0  0  0  0  0  0  0  0
   48.0135   30.7289   43.2481 H   0  0  0  0  0  0  0  0  0  0  0  0
   45.1030   31.2033   44.2785 H   0  0  0  0  0  0  0  0  0  0  0  0
   45.8908   29.7293   44.7369 H   0  0  0  0  0  0  0  0  0  0  0  0
   46.0331   25.0542   46.8352 H   0  0  0  0  0  0  0  0  0  0  0  0
   46.8990   22.5567   47.6127 H   0  0  0  0  0  0  0  0  0  0  0  0
   48.3401   22.8261   47.0724 H   0  0  0  0  0  0  0  0  0  0  0  0
   48.3076   24.9079   49.3397 H   0  0  0  0  0  0  0  0  0  0  0  0
   47.4494   22.3837   50.7561 H   0  0  0  0  0  0  0  0  0  0  0  0
   45.3458   22.7869   52.4106 H   0  0  0  0  0  0  0  0  0  0  0  0
   44.0929   24.9082   51.5979 H   0  0  0  0  0  0  0  0  0  0  0  0
  1  6  2  0
  2  1  1  0
  2  3  2  0
  3  4  1  0
  4  5  2  0
  6  5  1  0
  7  2  1  0
  8  7  1  0
  9  8  2  0
 10 11  1  0
 10  9  1  0
 11 12  1  0
 12  7  1  0
 13  3  1  0
 13 14  2  0
 15 14  1  0
 16 15  1  0
 17 16  2  0
 17 13  1  0
 18 16  1  0
 18 20  1  0
 19 18  2  0
 20 21  1  0
 20 22  1  0
 21 22  1  0
 22 23  1  0
 23 27  2  0
 23 24  1  0
 24 25  2  0
 26 25  1  0
 27 26  1  0
  1 28  1  0
  5 29  1  0
  7 30  1  1
  8 31  1  0
  9 32  1  0
 10 33  1  0
 10 34  1  0
 11 35  1  0
 11 36  1  0
 12 37  1  0
 12 38  1  0
 20 39  1  1
 21 40  1  0
 21 41  1  0
 22 42  1  1
 24 43  1  0
 25 44  1  0
 26 45  1  0
M  ISO  8  28  14  29  14  30  13  31  13  32  13  33  13  34  13  35  13
M  ISO  8  36  13  37  13  38  13  39  13  40  13  41  13  42  13  43  14
M  ISO  2  44  14  45   9
M  END
>  <minimizedAffinity>  (1) 
-4.97587776

>  <minimizedRMSD>  (1) 
4.85157776

$$$$
