
     RDKit          3D

 30 33  0  0  0  0  0  0  0  0999 V2000
   45.5510   33.6050   42.1680 N   0  0  0  0  0  0  0  0  0  0  0  0
   44.5270   33.8870   41.3540 C   0  0  0  0  0  0  0  0  0  0  0  0
   44.9810   33.8500   40.0850 N   0  0  0  0  0  0  0  0  0  0  0  0
   46.2870   33.5480   40.0970 C   0  0  0  0  0  0  0  0  0  0  0  0
   47.2650   33.3750   39.1230 C   0  0  0  0  0  0  0  0  0  0  0  0
   48.5170   33.0640   39.5300 N   0  0  0  0  0  0  0  0  0  0  0  0
   48.8870   32.9090   40.8030 C   0  0  0  0  0  0  0  0  0  0  0  0
   47.9390   33.0750   41.7720 N   0  0  0  0  0  0  0  0  0  0  0  0
   46.6560   33.3920   41.4090 C   0  0  0  0  0  0  0  0  0  0  0  0
   44.9810   34.5060   45.7110 C   0  0  0  0  0  0  0  0  0  0  0  0
   44.9680   34.5830   44.3050 C   0  0  0  0  0  0  0  0  0  0  0  0
   45.5650   33.5250   43.5880 C   0  0  0  0  0  0  0  0  0  0  0  0
   46.1160   32.4940   44.2970 N   0  0  0  0  0  0  0  0  0  0  0  0
   46.1010   32.4710   45.6280 C   0  0  0  0  0  0  0  0  0  0  0  0
   45.5470   33.4510   46.3440 N   0  0  0  0  0  0  0  0  0  0  0  0
   44.4230   35.4900   46.5440 N   0  0  0  0  0  0  0  0  0  0  0  0
   50.2920   32.5640   41.1720 C   0  0  0  0  0  0  0  0  0  0  0  0
   50.5530   31.7760   42.3880 C   0  0  0  0  0  0  0  0  0  0  0  0
   50.9320   33.2580   42.3420 C   0  0  0  0  0  0  0  0  0  0  0  0
   43.4958   34.1099   41.6655 H   0  0  0  0  0  0  0  0  0  0  0  0
   47.0276   33.4876   38.0548 H   0  0  0  0  0  0  0  0  0  0  0  0
   44.5092   35.4368   43.7849 H   0  0  0  0  0  0  0  0  0  0  0  0
   46.5586   31.6193   46.1526 H   0  0  0  0  0  0  0  0  0  0  0  0
   43.9755   36.3208   46.1313 H   0  0  0  0  0  0  0  0  0  0  0  0
   44.4614   35.3806   47.5675 H   0  0  0  0  0  0  0  0  0  0  0  0
   50.5562   32.4409   40.1113 H   0  0  0  0  0  0  0  0  0  0  0  0
   49.7148   31.4421   43.0173 H   0  0  0  0  0  0  0  0  0  0  0  0
   51.0911   30.8424   42.6089 H   0  0  0  0  0  0  0  0  0  0  0  0
   51.9889   33.5598   42.2984 H   0  0  0  0  0  0  0  0  0  0  0  0
   50.7106   34.1483   42.9489 H   0  0  0  0  0  0  0  0  0  0  0  0
  1 12  1  0
  2  1  1  0
  3  4  1  0
  3  2  2  0
  4  9  2  0
  5  6  2  0
  5  4  1  0
  6  7  1  0
  7 17  1  0
  7  8  2  0
  9  8  1  0
  9  1  1  0
 10 15  2  0
 10 16  1  0
 11 10  1  0
 12 13  1  0
 12 11  2  0
 13 14  2  0
 14 15  1  0
 17 19  1  0
 17 18  1  0
 19 18  1  0
  2 20  1  0
  5 21  1  0
 11 22  1  0
 14 23  1  0
 16 24  1  0
 16 25  1  0
 17 26  1  0
 18 27  1  0
 18 28  1  0
 19 29  1  0
 19 30  1  0
M  ISO  8  20  14  21  14  22  14  23  14  26  13  27  13  28  13  29  13
M  ISO  1  30  13
M  END
>  <minimizedAffinity>  (1) 
-4.98181963

>  <minimizedRMSD>  (1) 
3.28204322

$$$$
