
     RDKit          3D

 39 42  0  0  1  0  0  0  0  0999 V2000
   45.5750   30.1450   45.9530 N   0  0  0  0  0  0  0  0  0  0  0  0
   44.6140   29.1040   45.7470 C   0  0  0  0  0  0  0  0  0  0  0  0
   44.8190   27.9510   46.7100 C   0  0  0  0  0  0  0  0  0  0  0  0
   45.2550   28.4230   48.0850 C   0  0  0  0  0  0  0  0  0  0  0  0
   44.9380   29.8930   48.2670 C   0  0  0  0  0  0  0  0  0  0  0  0
   45.7910   30.6510   47.3010 C   0  0  1  0  0  0  0  0  0  0  0  0
   47.6320   32.4570   43.3340 C   0  0  0  0  0  0  0  0  0  0  0  0
   48.1130   31.1790   43.4540 C   0  0  0  0  0  0  0  0  0  0  0  0
   47.5030   30.3170   44.3010 C   0  0  0  0  0  0  0  0  0  0  0  0
   46.4140   30.8170   44.9930 C   0  0  0  0  0  0  0  0  0  0  0  0
   46.2660   32.4970   44.4400 S   0  0  0  0  0  0  0  0  0  0  0  0
   49.4820   35.4300   42.2240 C   0  0  0  0  0  0  0  0  0  0  0  0
   48.9540   35.6090   40.9150 C   0  0  0  0  0  0  0  0  0  0  0  0
   47.9720   34.6940   40.4480 C   0  0  0  0  0  0  0  0  0  0  0  0
   47.5790   33.6790   41.2890 N   0  0  0  0  0  0  0  0  0  0  0  0
   48.1060   33.5520   42.5120 C   0  0  0  0  0  0  0  0  0  0  0  0
   49.0330   34.4110   42.9570 N   0  0  0  0  0  0  0  0  0  0  0  0
   47.2280   30.7760   47.6730 C   0  0  0  0  0  0  0  0  0  0  0  0
   47.6930   30.9910   49.0610 C   0  0  0  0  0  0  0  0  0  0  0  0
   47.7260   32.1580   48.1680 C   0  0  0  0  0  0  0  0  0  0  0  0
   43.6050   29.5164   45.8947 H   0  0  0  0  0  0  0  0  0  0  0  0
   44.7382   28.7212   44.7233 H   0  0  0  0  0  0  0  0  0  0  0  0
   43.8725   27.3992   46.8085 H   0  0  0  0  0  0  0  0  0  0  0  0
   45.6158   27.3101   46.3046 H   0  0  0  0  0  0  0  0  0  0  0  0
   44.7244   27.8406   48.8526 H   0  0  0  0  0  0  0  0  0  0  0  0
   46.3411   28.2788   48.1826 H   0  0  0  0  0  0  0  0  0  0  0  0
   43.8743   30.0782   48.0567 H   0  0  0  0  0  0  0  0  0  0  0  0
   45.1400   30.2115   49.3003 H   0  0  0  0  0  0  0  0  0  0  0  0
   45.4570   31.6983   47.3418 H   0  0  0  0  0  0  0  0  0  0  0  0
   48.9862   30.8570   42.8677 H   0  0  0  0  0  0  0  0  0  0  0  0
   47.8518   29.2819   44.4312 H   0  0  0  0  0  0  0  0  0  0  0  0
   50.2434   36.1168   42.6222 H   0  0  0  0  0  0  0  0  0  0  0  0
   49.2983   36.4374   40.2784 H   0  0  0  0  0  0  0  0  0  0  0  0
   47.5383   34.7947   39.4421 H   0  0  0  0  0  0  0  0  0  0  0  0
   47.4820   30.0406   46.8953 H   0  0  0  0  0  0  0  0  0  0  0  0
   46.9652   30.9618   49.8853 H   0  0  0  0  0  0  0  0  0  0  0  0
   48.4479   30.4985   49.6915 H   0  0  0  0  0  0  0  0  0  0  0  0
   48.6879   32.5588   47.8157 H   0  0  0  0  0  0  0  0  0  0  0  0
   47.3160   33.1785   48.1927 H   0  0  0  0  0  0  0  0  0  0  0  0
  1  6  1  0
  2  1  1  0
  2  3  1  0
  3  4  1  0
  4  5  1  0
  6 18  1  0
  6  5  1  0
  7  8  2  0
  7 11  1  0
  8  9  1  0
  9 10  2  0
 10  1  1  0
 11 10  1  0
 12 17  2  0
 13 12  1  0
 14 13  2  0
 14 15  1  0
 15 16  2  0
 16 17  1  0
 16  7  1  0
 18 20  1  0
 18 19  1  0
 20 19  1  0
  2 21  1  0
  2 22  1  0
  3 23  1  0
  3 24  1  0
  4 25  1  0
  4 26  1  0
  5 27  1  0
  5 28  1  0
  6 29  1  6
  8 30  1  0
  9 31  1  0
 12 32  1  0
 13 33  1  0
 14 34  1  0
 18 35  1  0
 19 36  1  0
 19 37  1  0
 20 38  1  0
 20 39  1  0
M  ISO  8  21  13  22  13  23  13  24  13  25  13  26  13  27  13  28  13
M  ISO  8  29  13  30  14  31  14  32  14  33  14  34  14  35  13  36  13
M  ISO  3  37  13  38  13  39  13
M  END
>  <minimizedAffinity>  (1) 
-4.79076338

>  <minimizedRMSD>  (1) 
4.05511951

$$$$
