
     RDKit          3D

 54 58  0  0  1  0  0  0  0  0999 V2000
   47.3230   34.8880   41.9130 C   0  0  0  0  0  0  0  0  0  0  0  0
   48.5400   35.5630   41.7870 C   0  0  0  0  0  0  0  0  0  0  0  0
   49.0080   35.3910   40.5370 N   0  0  0  0  0  0  0  0  0  0  0  0
   48.1200   34.6260   39.8750 C   0  0  0  0  0  0  0  0  0  0  0  0
   48.1380   34.1710   38.5730 C   0  0  0  0  0  0  0  0  0  0  0  0
   47.1070   33.4040   38.1340 C   0  0  0  0  0  0  0  0  0  0  0  0
   46.0190   33.0420   38.9230 C   0  0  0  0  0  0  0  0  0  0  0  0
   46.0670   33.5340   40.2170 C   0  0  0  0  0  0  0  0  0  0  0  0
   47.0530   34.2940   40.7090 C   0  0  0  0  0  0  0  0  0  0  0  0
   44.9090   33.1010   40.9610 N   0  0  0  0  0  0  0  0  0  0  0  0
   43.5320   33.4510   41.1740 C   0  0  0  0  0  0  0  0  0  0  0  0
   42.9050   32.2210   41.7810 C   0  0  0  0  0  0  0  0  0  0  0  0
   44.0310   31.8150   42.7070 C   0  0  0  0  0  0  0  0  0  0  0  0
   45.2070   31.9090   41.7710 C   0  0  1  0  0  0  0  0  0  0  0  0
   45.3790   30.6900   40.9820 C   0  0  0  0  0  0  0  0  0  0  0  0
   44.5840   30.1550   40.2040 O   0  0  0  0  0  0  0  0  0  0  0  0
   44.6250   35.6700   44.3580 C   0  0  0  0  0  0  0  0  0  0  0  0
   45.4110   35.7270   43.2110 C   0  0  0  0  0  0  0  0  0  0  0  0
   46.5100   34.8350   43.0910 C   0  0  0  0  0  0  0  0  0  0  0  0
   46.7010   33.9860   44.1280 N   0  0  0  0  0  0  0  0  0  0  0  0
   45.9460   33.9370   45.2210 C   0  0  0  0  0  0  0  0  0  0  0  0
   44.9020   34.7770   45.3470 N   0  0  0  0  0  0  0  0  0  0  0  0
   46.1990   32.9890   46.3340 C   0  0  0  0  0  0  0  0  0  0  0  0
   46.1140   31.5830   45.7300 C   0  0  0  0  0  0  0  0  0  0  0  0
   46.6680   30.6330   46.7710 C   0  0  0  0  0  0  0  0  0  0  0  0
   45.7640   30.7210   47.9850 C   0  0  0  0  0  0  0  0  0  0  0  0
   45.6880   32.1160   48.5320 C   0  0  0  0  0  0  0  0  0  0  0  0
   45.1740   33.0470   47.4270 C   0  0  0  0  0  0  0  0  0  0  0  0
   49.0353   36.1413   42.5809 H   0  0  0  0  0  0  0  0  0  0  0  0
   49.8850   35.7745   40.1565 H   0  0  0  0  0  0  0  0  0  0  0  0
   48.9723   34.4248   37.9025 H   0  0  0  0  0  0  0  0  0  0  0  0
   47.1332   33.0478   37.0936 H   0  0  0  0  0  0  0  0  0  0  0  0
   45.1923   32.4189   38.5510 H   0  0  0  0  0  0  0  0  0  0  0  0
   43.4524   34.3052   41.8625 H   0  0  0  0  0  0  0  0  0  0  0  0
   43.0331   33.7508   40.2406 H   0  0  0  0  0  0  0  0  0  0  0  0
   41.9826   32.4571   42.3318 H   0  0  0  0  0  0  0  0  0  0  0  0
   42.5808   31.4521   41.0643 H   0  0  0  0  0  0  0  0  0  0  0  0
   44.1301   32.5098   43.5540 H   0  0  0  0  0  0  0  0  0  0  0  0
   43.9011   30.8309   43.1809 H   0  0  0  0  0  0  0  0  0  0  0  0
   46.1708   32.0049   42.2925 H   0  0  0  0  0  0  0  0  0  0  0  0
   46.3474   30.1812   41.0973 H   0  0  0  0  0  0  0  0  0  0  0  0
   43.7705   36.3542   44.4665 H   0  0  0  0  0  0  0  0  0  0  0  0
   45.1855   36.4491   42.4124 H   0  0  0  0  0  0  0  0  0  0  0  0
   47.1720   33.2455   46.7783 H   0  0  0  0  0  0  0  0  0  0  0  0
   45.0679   31.3297   45.5029 H   0  0  0  0  0  0  0  0  0  0  0  0
   46.6826   31.5189   44.7906 H   0  0  0  0  0  0  0  0  0  0  0  0
   46.6731   29.6054   46.3786 H   0  0  0  0  0  0  0  0  0  0  0  0
   47.7018   30.9017   47.0338 H   0  0  0  0  0  0  0  0  0  0  0  0
   44.7527   30.3968   47.6984 H   0  0  0  0  0  0  0  0  0  0  0  0
   46.1841   30.0725   48.7679 H   0  0  0  0  0  0  0  0  0  0  0  0
   44.9983   32.1412   49.3885 H   0  0  0  0  0  0  0  0  0  0  0  0
   46.6834   32.4434   48.8666 H   0  0  0  0  0  0  0  0  0  0  0  0
   45.0767   34.0748   47.8067 H   0  0  0  0  0  0  0  0  0  0  0  0
   44.1811   32.7389   47.0675 H   0  0  0  0  0  0  0  0  0  0  0  0
  1 19  1  0
  2  1  2  0
  3  2  1  0
  4  3  1  0
  4  9  2  0
  5  4  1  0
  6  5  2  0
  6  7  1  0
  7  8  2  0
  8  9  1  0
  8 10  1  0
  9  1  1  0
 10 11  1  0
 10 14  1  0
 11 12  1  0
 12 13  1  0
 14 13  1  0
 15 14  1  0
 16 15  2  0
 17 22  2  0
 18 17  1  0
 19 18  2  0
 19 20  1  0
 20 21  2  0
 21 22  1  0
 21 23  1  0
 23 28  1  0
 24 23  1  0
 24 25  1  0
 25 26  1  0
 26 27  1  0
 28 27  1  0
  2 29  1  0
  3 30  1  0
  5 31  1  0
  6 32  1  0
  7 33  1  0
 11 34  1  0
 11 35  1  0
 12 36  1  0
 12 37  1  0
 13 38  1  0
 13 39  1  0
 14 40  1  1
 15 41  1  0
 17 42  1  0
 18 43  1  0
 23 44  1  0
 24 45  1  0
 24 46  1  0
 25 47  1  0
 25 48  1  0
 26 49  1  0
 26 50  1  0
 27 51  1  0
 27 52  1  0
 28 53  1  0
 28 54  1  0
M  END
>  <minimizedAffinity>  (1) 
-7.10898399

>  <minimizedRMSD>  (1) 
0.309969455

$$$$
