
     RDKit          3D

 49 53  0  0  0  0  0  0  0  0999 V2000
   44.6390   35.7570   45.0920 C   0  0  0  0  0  0  0  0  0  0  0  0
   44.0140   35.8100   43.8340 C   0  0  0  0  0  0  0  0  0  0  0  0
   44.1640   34.7380   42.9560 C   0  0  0  0  0  0  0  0  0  0  0  0
   44.9210   33.7130   43.4100 N   0  0  0  0  0  0  0  0  0  0  0  0
   45.5120   33.6720   44.6100 C   0  0  0  0  0  0  0  0  0  0  0  0
   45.3500   34.7110   45.4230 N   0  0  0  0  0  0  0  0  0  0  0  0
   46.1970   32.4770   44.5420 C   0  0  0  0  0  0  0  0  0  0  0  0
   46.8430   31.3890   44.3790 N   0  0  0  0  0  0  0  0  0  0  0  0
   47.4380   30.3670   44.3010 C   0  0  0  0  0  0  0  0  0  0  0  0
   47.4510   30.0320   45.5840 N   0  0  0  0  0  0  0  0  0  0  0  0
   46.8240   30.9030   46.4630 C   0  0  0  0  0  0  0  0  0  0  0  0
   46.8670   30.4480   47.7980 C   0  0  0  0  0  0  0  0  0  0  0  0
   46.2430   31.2200   48.7130 C   0  0  0  0  0  0  0  0  0  0  0  0
   45.6040   32.3620   48.3960 C   0  0  0  0  0  0  0  0  0  0  0  0
   45.6450   32.6850   47.0560 C   0  0  0  0  0  0  0  0  0  0  0  0
   46.2230   32.0720   45.9170 C   0  0  0  0  0  0  0  0  0  0  0  0
   43.5470   34.8110   41.6980 N   0  0  0  0  0  0  0  0  0  0  0  0
   42.2720   35.1710   41.5420 C   0  0  0  0  0  0  0  0  0  0  0  0
   42.0540   35.1150   40.1630 C   0  0  0  0  0  0  0  0  0  0  0  0
   43.2070   34.7210   39.5300 N   0  0  0  0  0  0  0  0  0  0  0  0
   44.1280   34.5340   40.4980 C   0  0  0  0  0  0  0  0  0  0  0  0
   45.4810   34.1240   40.3370 N   0  0  0  0  0  0  0  0  0  0  0  0
   40.7840   35.4260   39.4750 C   0  0  0  0  0  0  0  0  0  0  0  0
   39.5720   35.0440   40.2830 C   0  0  0  0  0  0  0  0  0  0  0  0
   38.5410   34.3000   39.4750 C   0  0  0  0  0  0  0  0  0  0  0  0
   39.0830   33.0480   38.8530 C   0  0  0  0  0  0  0  0  0  0  0  0
   40.4550   33.2630   38.2550 C   0  0  0  0  0  0  0  0  0  0  0  0
   40.7160   34.7420   38.1460 C   0  0  0  0  0  0  0  0  0  0  0  0
   44.5300   36.5944   45.7969 H   0  0  0  0  0  0  0  0  0  0  0  0
   43.4143   36.6861   43.5463 H   0  0  0  0  0  0  0  0  0  0  0  0
   47.8555   29.8498   43.4245 H   0  0  0  0  0  0  0  0  0  0  0  0
   47.3804   29.5162   48.0776 H   0  0  0  0  0  0  0  0  0  0  0  0
   46.2573   30.9015   49.7658 H   0  0  0  0  0  0  0  0  0  0  0  0
   45.0919   32.9854   49.1437 H   0  0  0  0  0  0  0  0  0  0  0  0
   45.1149   33.6197   46.8209 H   0  0  0  0  0  0  0  0  0  0  0  0
   41.5519   35.4501   42.3253 H   0  0  0  0  0  0  0  0  0  0  0  0
   46.0882   34.0167   41.1620 H   0  0  0  0  0  0  0  0  0  0  0  0
   45.8532   33.9345   39.3955 H   0  0  0  0  0  0  0  0  0  0  0  0
   40.7730   36.5176   39.3399 H   0  0  0  0  0  0  0  0  0  0  0  0
   39.8937   34.4033   41.1173 H   0  0  0  0  0  0  0  0  0  0  0  0
   39.1051   35.9743   40.6387 H   0  0  0  0  0  0  0  0  0  0  0  0
   37.7041   34.0302   40.1360 H   0  0  0  0  0  0  0  0  0  0  0  0
   38.2187   34.9628   38.6584 H   0  0  0  0  0  0  0  0  0  0  0  0
   39.1501   32.2676   39.6253 H   0  0  0  0  0  0  0  0  0  0  0  0
   38.4018   32.7475   38.0433 H   0  0  0  0  0  0  0  0  0  0  0  0
   41.2156   32.8009   38.9015 H   0  0  0  0  0  0  0  0  0  0  0  0
   40.5017   32.8028   37.2570 H   0  0  0  0  0  0  0  0  0  0  0  0
   41.6740   34.8910   37.6263 H   0  0  0  0  0  0  0  0  0  0  0  0
   39.8740   35.1835   37.5928 H   0  0  0  0  0  0  0  0  0  0  0  0
  1  6  2  0
  2  1  1  0
  3  4  1  0
  3  2  2  0
  4  5  2  0
  5  6  1  0
  7  5  1  0
  7 16  1  0
  8  7  2  0
  9  8  1  0
  9 10  2  0
 10 11  1  0
 11 12  1  0
 12 13  2  0
 14 13  1  0
 15 14  2  0
 16 11  2  0
 16 15  1  0
 17  3  1  0
 18 17  1  0
 19 18  2  0
 20 19  1  0
 20 21  2  0
 21 17  1  0
 22 21  1  0
 23 19  1  0
 23 24  1  0
 25 24  1  0
 26 25  1  0
 27 26  1  0
 28 27  1  0
 28 23  1  0
  1 29  1  0
  2 30  1  0
  9 31  1  0
 12 32  1  0
 13 33  1  0
 14 34  1  0
 15 35  1  0
 18 36  1  0
 22 37  1  0
 22 38  1  0
 23 39  1  0
 24 40  1  0
 24 41  1  0
 25 42  1  0
 25 43  1  0
 26 44  1  0
 26 45  1  0
 27 46  1  0
 27 47  1  0
 28 48  1  0
 28 49  1  0
M  END
>  <minimizedAffinity>  (1) 
-7.47882032

>  <minimizedRMSD>  (1) 
1.2376225

$$$$
