
     RDKit          3D

 40 42  0  0  0  0  0  0  0  0999 V2000
   47.0160   34.7370   42.1160 C   0  0  0  0  0  0  0  0  0  0  0  0
   48.2680   35.2870   41.8980 C   0  0  0  0  0  0  0  0  0  0  0  0
   48.4950   35.0150   40.5390 C   0  0  0  0  0  0  0  0  0  0  0  0
   47.4080   34.3400   40.0250 C   0  0  0  0  0  0  0  0  0  0  0  0
   46.5650   34.2100   41.0230 O   0  0  0  0  0  0  0  0  0  0  0  0
   44.5860   35.6030   44.7920 C   0  0  0  0  0  0  0  0  0  0  0  0
   45.2810   35.6580   43.5540 C   0  0  0  0  0  0  0  0  0  0  0  0
   46.2730   34.7270   43.3640 C   0  0  0  0  0  0  0  0  0  0  0  0
   46.5500   33.8070   44.3400 N   0  0  0  0  0  0  0  0  0  0  0  0
   45.8590   33.7950   45.5060 C   0  0  0  0  0  0  0  0  0  0  0  0
   44.8780   34.6880   45.7360 N   0  0  0  0  0  0  0  0  0  0  0  0
   46.1340   32.8100   46.5870 C   0  0  0  0  0  0  0  0  0  0  0  0
   46.0920   31.3920   46.0670 C   0  0  0  0  0  0  0  0  0  0  0  0
   45.6170   30.4350   47.1520 C   0  0  0  0  0  0  0  0  0  0  0  0
   46.2390   30.8500   48.4790 C   0  0  0  0  0  0  0  0  0  0  0  0
   45.7680   32.2120   48.9150 C   0  0  0  0  0  0  0  0  0  0  0  0
   45.1620   32.9630   47.7280 C   0  0  0  0  0  0  0  0  0  0  0  0
   47.2470   33.8880   38.6980 N   0  0  0  0  0  0  0  0  0  0  0  0
   48.2680   33.9820   37.7360 C   0  0  0  0  0  0  0  0  0  0  0  0
   49.0510   35.0430   37.7830 N   0  0  0  0  0  0  0  0  0  0  0  0
   48.3860   32.9110   36.7690 N   0  0  0  0  0  0  0  0  0  0  0  0
   49.8400   35.0270   37.1010 H   0  0  0  0  0  0  0  0  0  0  0  0
   48.9226   35.8079   42.6123 H   0  0  0  0  0  0  0  0  0  0  0  0
   49.3964   35.2957   39.9745 H   0  0  0  0  0  0  0  0  0  0  0  0
   43.7841   36.3307   44.9855 H   0  0  0  0  0  0  0  0  0  0  0  0
   45.0372   36.4078   42.7869 H   0  0  0  0  0  0  0  0  0  0  0  0
   47.1488   33.0171   46.9577 H   0  0  0  0  0  0  0  0  0  0  0  0
   45.4010   31.3410   45.2126 H   0  0  0  0  0  0  0  0  0  0  0  0
   47.1056   31.0991   45.7559 H   0  0  0  0  0  0  0  0  0  0  0  0
   44.5205   30.4775   47.2283 H   0  0  0  0  0  0  0  0  0  0  0  0
   45.9195   29.4073   46.9026 H   0  0  0  0  0  0  0  0  0  0  0  0
   45.9614   30.1141   49.2480 H   0  0  0  0  0  0  0  0  0  0  0  0
   47.3303   30.8913   48.3473 H   0  0  0  0  0  0  0  0  0  0  0  0
   45.0070   32.0994   49.7013 H   0  0  0  0  0  0  0  0  0  0  0  0
   46.6249   32.7824   49.3027 H   0  0  0  0  0  0  0  0  0  0  0  0
   45.0319   34.0265   47.9770 H   0  0  0  0  0  0  0  0  0  0  0  0
   44.1722   32.5615   47.4653 H   0  0  0  0  0  0  0  0  0  0  0  0
   46.3455   33.4726   38.4231 H   0  0  0  0  0  0  0  0  0  0  0  0
   47.7331   32.1150   36.7999 H   0  0  0  0  0  0  0  0  0  0  0  0
   49.1228   32.9451   36.0501 H   0  0  0  0  0  0  0  0  0  0  0  0
  1  8  1  0
  2  1  2  0
  3  2  1  0
  4  3  2  0
  4  5  1  0
  5  1  1  0
  6 11  2  0
  7  6  1  0
  8  7  2  0
  8  9  1  0
  9 10  2  0
 10 11  1  0
 10 12  1  0
 12 17  1  0
 13 12  1  0
 13 14  1  0
 14 15  1  0
 15 16  1  0
 17 16  1  0
 18  4  1  0
 19 20  2  0
 19 18  1  0
 21 19  1  0
 22 20  1  0
  2 23  1  0
  3 24  1  0
  6 25  1  0
  7 26  1  0
 12 27  1  0
 13 28  1  0
 13 29  1  0
 14 30  1  0
 14 31  1  0
 15 32  1  0
 15 33  1  0
 16 34  1  0
 16 35  1  0
 17 36  1  0
 17 37  1  0
 18 38  1  0
 21 39  1  0
 21 40  1  0
M  END
>  <minimizedAffinity>  (1) 
-7.16700315

>  <minimizedRMSD>  (1) 
0.384480596

$$$$
