
     RDKit          3D

 42 44  0  0  0  0  0  0  0  0999 V2000
   46.1842   33.6486   45.3136 C   0  0  2  0  0  0  0  0  0  0  0  0
   44.9592   34.6814   45.4831 C   0  0  0  0  0  0  0  0  0  0  0  0
   44.7069   35.5784   44.3793 C   0  0  0  0  0  0  0  0  0  0  0  0
   45.5212   35.5156   43.1768 C   0  0  1  0  0  0  0  0  0  0  0  0
   46.6411   34.5639   43.1920 C   0  0  0  0  0  0  0  0  0  0  0  0
   46.1631   33.3151   43.9293 C   0  0  0  0  0  0  0  0  0  0  0  0
   45.3065   32.9276   47.5464 C   0  0  0  0  0  0  0  0  0  0  0  0
   45.9675   32.6784   46.3456 C   0  0  0  0  0  0  0  0  0  0  0  0
   46.3449   31.3299   46.1026 C   0  0  0  0  0  0  0  0  0  0  0  0
   46.0410   30.4117   47.0180 N   0  0  0  0  0  0  0  0  0  0  0  0
   45.3955   30.6814   48.1763 C   0  0  0  0  0  0  0  0  0  0  0  0
   45.0292   31.9244   48.4465 N   0  0  0  0  0  0  0  0  0  0  0  0
   45.1560   29.6018   49.1007 N   0  0  0  0  0  0  0  0  0  0  0  0
   44.5714   35.1746   42.0010 C   0  0  0  0  0  0  0  0  0  0  0  0
   43.5851   34.2775   42.3485 F   0  0  0  0  0  0  0  0  0  0  0  0
   43.9239   36.3606   41.6613 F   0  0  0  0  0  0  0  0  0  0  0  0
   45.3005   34.7812   40.8970 F   0  0  0  0  0  0  0  0  0  0  0  0
   46.9037   34.4879   45.5738 H   0  0  0  0  0  0  0  0  0  0  0  0
   44.2155   34.9133   46.2394 H   0  0  0  0  0  0  0  0  0  0  0  0
   43.9076   36.3054   44.4047 H   0  0  0  0  0  0  0  0  0  0  0  0
   45.8738   36.5495   42.9614 H   0  0  0  0  0  0  0  0  0  0  0  0
   47.4763   35.0210   43.7772 H   0  0  0  0  0  0  0  0  0  0  0  0
   47.0193   34.3701   42.1914 H   0  0  0  0  0  0  0  0  0  0  0  0
   45.0554   33.2212   43.6190 H   0  0  0  0  0  0  0  0  0  0  0  0
   46.6310   32.5393   43.3978 H   0  0  0  0  0  0  0  0  0  0  0  0
   45.0028   33.9199   47.7935 H   0  0  0  0  0  0  0  0  0  0  0  0
   45.8658   29.3671   49.8490 H   0  0  0  0  0  0  0  0  0  0  0  0
   44.2687   29.0842   48.9889 H   0  0  0  0  0  0  0  0  0  0  0  0
   47.1415   30.7877   44.9846 C   0  0  0  0  0  0  0  0  0  0  0  0
   46.4108   31.1483   43.6247 C   0  0  0  0  0  0  0  0  0  0  0  0
   47.1837   30.3805   42.6044 C   0  0  0  0  0  0  0  0  0  0  0  0
   47.3557   29.0535   43.3085 C   0  0  0  0  0  0  0  0  0  0  0  0
   47.0398   29.3165   44.7683 C   0  0  0  0  0  0  0  0  0  0  0  0
   48.0557   31.3105   44.7187 H   0  0  0  0  0  0  0  0  0  0  0  0
   45.4058   30.7485   43.7532 H   0  0  0  0  0  0  0  0  0  0  0  0
   46.3960   32.2360   43.4975 H   0  0  0  0  0  0  0  0  0  0  0  0
   46.5250   30.2706   41.7196 H   0  0  0  0  0  0  0  0  0  0  0  0
   48.1154   30.8645   42.3052 H   0  0  0  0  0  0  0  0  0  0  0  0
   48.3735   28.7103   43.1104 H   0  0  0  0  0  0  0  0  0  0  0  0
   46.6559   28.3216   42.8539 H   0  0  0  0  0  0  0  0  0  0  0  0
   47.6855   28.6544   45.3142 H   0  0  0  0  0  0  0  0  0  0  0  0
   45.9480   29.0806   44.8611 H   0  0  0  0  0  0  0  0  0  0  0  0
  1  2  1  0
  1  8  1  0
  3  2  2  0
  4  5  1  0
  4  3  1  0
  5  6  1  0
  6  1  1  0
  7 12  2  0
  8  7  1  0
  9  8  2  0
  9 10  1  0
 10 11  2  0
 11 12  1  0
 11 13  1  0
 14 15  1  0
 14  4  1  0
 16 14  1  0
 17 14  1  0
  1 18  1  1
  2 19  1  0
  3 20  1  0
  4 21  1  6
  5 22  1  0
  5 23  1  0
  6 24  1  0
  6 25  1  0
  7 26  1  0
 13 27  1  0
 13 28  1  0
 29 30  1  0
 30 31  1  0
 31 32  1  0
 32 33  1  0
 33 29  1  0
 29 34  1  0
 30 35  1  0
 30 36  1  0
 31 37  1  0
 31 38  1  0
 32 39  1  0
 32 40  1  0
 33 41  1  0
 33 42  1  0
  9 29  1  0
M  ISO  8  18  13  19  13  20  13  21  13  22  13  23  13  24  13  25  13
M  ISO  1  26  14
M  END
>  <DihAtoms>  (1) 
7,8,28,29

>  <DihDeg>  (1) 
166.55314737575532

$$$$
