
     RDKit          3D

 46 49  0  0  0  0  0  0  0  0999 V2000
   47.6550   34.1530   42.1420 C   0  0  0  0  0  0  0  0  0  0  0  0
   48.5760   35.3050   41.7830 C   0  0  0  0  0  0  0  0  0  0  0  0
   49.8880   35.2900   42.4670 C   0  0  0  0  0  0  0  0  0  0  0  0
   50.5540   33.9610   42.5170 C   0  0  0  0  0  0  0  0  0  0  0  0
   49.6820   32.8290   42.0680 C   0  0  0  0  0  0  0  0  0  0  0  0
   48.3360   32.9930   42.7630 C   0  0  0  0  0  0  0  0  0  0  0  0
   45.3160   34.3610   45.0020 C   0  0  0  0  0  0  0  0  0  0  0  0
   44.5770   35.5270   44.7250 C   0  0  0  0  0  0  0  0  0  0  0  0
   44.8910   36.2320   43.5590 C   0  0  0  0  0  0  0  0  0  0  0  0
   45.8820   35.7580   42.7660 N   0  0  0  0  0  0  0  0  0  0  0  0
   46.5760   34.6270   43.0650 C   0  0  0  0  0  0  0  0  0  0  0  0
   46.2760   33.9320   44.2000 N   0  0  0  0  0  0  0  0  0  0  0  0
   47.0230   33.6680   40.8650 C   0  0  0  0  0  0  0  0  0  0  0  0
   45.9020   32.9690   40.4730 C   0  0  0  0  0  0  0  0  0  0  0  0
   45.7070   32.7440   39.1680 C   0  0  0  0  0  0  0  0  0  0  0  0
   46.5750   33.1790   38.2350 C   0  0  0  0  0  0  0  0  0  0  0  0
   47.8660   34.0340   39.2830 S   0  0  0  0  0  0  0  0  0  0  0  0
   46.6310   33.0920   36.8040 C   0  0  0  0  0  0  0  0  0  0  0  0
   48.0440   32.9510   36.3560 C   0  0  0  0  0  0  0  0  0  0  0  0
   47.8860   32.2750   35.0060 C   0  0  0  0  0  0  0  0  0  0  0  0
   46.8850   31.1920   35.3120 C   0  0  0  0  0  0  0  0  0  0  0  0
   45.9110   31.9050   36.2080 C   0  0  0  0  0  0  0  0  0  0  0  0
   48.7558   35.2735   40.6982 H   0  0  0  0  0  0  0  0  0  0  0  0
   48.0663   36.2221   42.1134 H   0  0  0  0  0  0  0  0  0  0  0  0
   50.5560   35.9871   41.9399 H   0  0  0  0  0  0  0  0  0  0  0  0
   49.6944   35.5771   43.5111 H   0  0  0  0  0  0  0  0  0  0  0  0
   51.4414   33.9934   41.8678 H   0  0  0  0  0  0  0  0  0  0  0  0
   50.8085   33.7703   43.5700 H   0  0  0  0  0  0  0  0  0  0  0  0
   49.5494   32.8655   40.9766 H   0  0  0  0  0  0  0  0  0  0  0  0
   50.1374   31.8608   42.3231 H   0  0  0  0  0  0  0  0  0  0  0  0
   48.4873   33.1766   43.8370 H   0  0  0  0  0  0  0  0  0  0  0  0
   47.7290   32.0822   42.6537 H   0  0  0  0  0  0  0  0  0  0  0  0
   45.0878   33.7893   45.9136 H   0  0  0  0  0  0  0  0  0  0  0  0
   43.7810   35.8711   45.4017 H   0  0  0  0  0  0  0  0  0  0  0  0
   44.3464   37.1496   43.2919 H   0  0  0  0  0  0  0  0  0  0  0  0
   45.1809   32.6028   41.2186 H   0  0  0  0  0  0  0  0  0  0  0  0
   44.8129   32.1883   38.8489 H   0  0  0  0  0  0  0  0  0  0  0  0
   46.1422   34.0166   36.4633 H   0  0  0  0  0  0  0  0  0  0  0  0
   48.5306   33.9324   36.2562 H   0  0  0  0  0  0  0  0  0  0  0  0
   48.6766   32.3899   37.0596 H   0  0  0  0  0  0  0  0  0  0  0  0
   48.8393   31.8510   34.6576 H   0  0  0  0  0  0  0  0  0  0  0  0
   47.5692   32.9571   34.2033 H   0  0  0  0  0  0  0  0  0  0  0  0
   46.3943   30.8318   34.3958 H   0  0  0  0  0  0  0  0  0  0  0  0
   47.3298   30.2951   35.7678 H   0  0  0  0  0  0  0  0  0  0  0  0
   45.0432   32.2459   35.6242 H   0  0  0  0  0  0  0  0  0  0  0  0
   45.5481   31.2332   36.9998 H   0  0  0  0  0  0  0  0  0  0  0  0
  1  6  1  0
  1 11  1  0
  2  1  1  0
  2  3  1  0
  3  4  1  0
  5  4  1  0
  5  6  1  0
  8  7  2  0
  9  8  1  0
 10 11  1  0
 10  9  2  0
 11 12  2  0
 12  7  1  0
 13  1  1  0
 14 13  2  0
 15 14  1  0
 16 15  2  0
 16 17  1  0
 17 13  1  0
 18 16  1  0
 19 18  1  0
 20 21  1  0
 20 19  1  0
 21 22  1  0
 22 18  1  0
  2 23  1  0
  2 24  1  0
  3 25  1  0
  3 26  1  0
  4 27  1  0
  4 28  1  0
  5 29  1  0
  5 30  1  0
  6 31  1  0
  6 32  1  0
  7 33  1  0
  8 34  1  0
  9 35  1  0
 14 36  1  0
 15 37  1  0
 18 38  1  0
 19 39  1  0
 19 40  1  0
 20 41  1  0
 20 42  1  0
 21 43  1  0
 21 44  1  0
 22 45  1  0
 22 46  1  0
M  ISO  8  23  13  24  13  25  13  26  13  27  13  28  13  29  13  30  13
M  ISO  8  31  13  32  13  33  14  34  14  35  14  36  14  37  14  38  13
M  ISO  8  39  13  40  13  41  13  42  13  43  13  44  13  45  13  46  13
M  END
>  <minimizedAffinity>  (1) 
-5.95090485

>  <minimizedRMSD>  (1) 
1.21842694

$$$$
