
     RDKit          3D

 30 32  0  0  0  0  0  0  0  0999 V2000
   46.6990   34.7500   42.0340 C   0  0  0  0  0  0  0  0  0  0  0  0
   47.9560   35.3280   41.9560 C   0  0  0  0  0  0  0  0  0  0  0  0
   48.7150   35.2300   40.7860 C   0  0  0  0  0  0  0  0  0  0  0  0
   48.2080   34.5490   39.6850 C   0  0  0  0  0  0  0  0  0  0  0  0
   46.9500   33.9730   39.7720 C   0  0  0  0  0  0  0  0  0  0  0  0
   46.2160   34.0830   40.9420 C   0  0  0  0  0  0  0  0  0  0  0  0
   44.4710   35.9690   44.8120 C   0  0  0  0  0  0  0  0  0  0  0  0
   45.1060   35.9370   43.5610 C   0  0  0  0  0  0  0  0  0  0  0  0
   45.9750   34.8970   43.2940 C   0  0  0  0  0  0  0  0  0  0  0  0
   46.1910   33.9380   44.2420 N   0  0  0  0  0  0  0  0  0  0  0  0
   45.5530   34.0060   45.4480 C   0  0  0  0  0  0  0  0  0  0  0  0
   44.7010   35.0110   45.7290 N   0  0  0  0  0  0  0  0  0  0  0  0
   46.2680   33.2270   38.7230 C   0  0  0  0  0  0  0  0  0  0  0  0
   45.1500   32.4250   38.9860 C   0  0  0  0  0  0  0  0  0  0  0  0
   44.5410   31.7370   37.9460 C   0  0  0  0  0  0  0  0  0  0  0  0
   45.0370   31.8400   36.6510 C   0  0  0  0  0  0  0  0  0  0  0  0
   46.1460   32.6340   36.3950 C   0  0  0  0  0  0  0  0  0  0  0  0
   46.7540   33.3230   37.4360 C   0  0  0  0  0  0  0  0  0  0  0  0
   48.3608   35.8696   42.8237 H   0  0  0  0  0  0  0  0  0  0  0  0
   49.7124   35.6913   40.7366 H   0  0  0  0  0  0  0  0  0  0  0  0
   48.7961   34.4685   38.7589 H   0  0  0  0  0  0  0  0  0  0  0  0
   45.2187   33.6218   40.9940 H   0  0  0  0  0  0  0  0  0  0  0  0
   43.7756   36.7884   45.0464 H   0  0  0  0  0  0  0  0  0  0  0  0
   44.9166   36.7201   42.8121 H   0  0  0  0  0  0  0  0  0  0  0  0
   45.7380   33.2271   46.2023 H   0  0  0  0  0  0  0  0  0  0  0  0
   44.7574   32.3411   40.0101 H   0  0  0  0  0  0  0  0  0  0  0  0
   43.6618   31.1072   38.1470 H   0  0  0  0  0  0  0  0  0  0  0  0
   44.5507   31.2925   35.8302 H   0  0  0  0  0  0  0  0  0  0  0  0
   46.5416   32.7172   35.3720 H   0  0  0  0  0  0  0  0  0  0  0  0
   47.6329   33.9522   37.2319 H   0  0  0  0  0  0  0  0  0  0  0  0
  1  9  1  0
  2  1  2  0
  3  2  1  0
  4  5  1  0
  4  3  2  0
  5  6  2  0
  6  1  1  0
  7 12  2  0
  8  7  1  0
  9  8  2  0
  9 10  1  0
 10 11  2  0
 11 12  1  0
 13 14  2  0
 13  5  1  0
 15 14  1  0
 16 15  2  0
 17 16  1  0
 17 18  2  0
 18 13  1  0
  2 19  1  0
  3 20  1  0
  4 21  1  0
  6 22  1  0
  7 23  1  0
  8 24  1  0
 11 25  1  0
 14 26  1  0
 15 27  1  0
 16 28  1  0
 17 29  1  0
 18 30  1  0
M  ISO  8  19  14  20  14  21  14  22  14  23  14  24  14  25  14  26  14
M  ISO  4  27  14  28  14  29  14  30  14
M  END
>  <minimizedAffinity>  (1) 
-5.6732378

>  <minimizedRMSD>  (1) 
0.251684248

$$$$
