
     RDKit          3D

 21 22  0  0  0  0  0  0  0  0999 V2000
   44.0160   35.5210   42.6810 C   0  0  0  0  0  0  0  0  0  0  0  0
   43.3200   35.0450   41.5310 C   0  0  0  0  0  0  0  0  0  0  0  0
   44.0190   34.3490   40.5560 C   0  0  0  0  0  0  0  0  0  0  0  0
   45.3560   34.1480   40.7410 N   0  0  0  0  0  0  0  0  0  0  0  0
   45.9820   34.6090   41.8350 C   0  0  0  0  0  0  0  0  0  0  0  0
   45.3350   35.2860   42.7960 N   0  0  0  0  0  0  0  0  0  0  0  0
   47.4080   34.4050   42.0500 C   0  0  0  0  0  0  0  0  0  0  0  0
   48.2540   35.5040   41.9180 C   0  0  0  0  0  0  0  0  0  0  0  0
   49.6150   35.3630   42.1110 C   0  0  0  0  0  0  0  0  0  0  0  0
   50.1820   34.1480   42.4370 C   0  0  0  0  0  0  0  0  0  0  0  0
   49.3380   33.0460   42.5690 C   0  0  0  0  0  0  0  0  0  0  0  0
   47.9780   33.1940   42.3760 C   0  0  0  0  0  0  0  0  0  0  0  0
   41.5450   35.3580   41.3690 S   0  0  0  0  0  0  0  0  0  0  0  0
   43.4796   36.0746   43.4657 H   0  0  0  0  0  0  0  0  0  0  0  0
   43.5095   33.9694   39.6581 H   0  0  0  0  0  0  0  0  0  0  0  0
   47.8367   36.4883   41.6590 H   0  0  0  0  0  0  0  0  0  0  0  0
   50.2646   36.2440   42.0017 H   0  0  0  0  0  0  0  0  0  0  0  0
   51.2673   34.0517   42.5882 H   0  0  0  0  0  0  0  0  0  0  0  0
   49.7541   32.0608   42.8263 H   0  0  0  0  0  0  0  0  0  0  0  0
   47.3275   32.3139   42.4865 H   0  0  0  0  0  0  0  0  0  0  0  0
   40.9832   35.4571   42.6146 H   0  0  0  0  0  0  0  0  0  0  0  0
  1  6  2  0
  2  1  1  0
  3  4  1  0
  3  2  2  0
  4  5  2  0
  5  7  1  0
  5  6  1  0
  7 12  1  0
  8  7  2  0
  8  9  1  0
  9 10  2  0
 10 11  1  0
 12 11  2  0
 13  2  1  0
  1 14  1  0
  3 15  1  0
  8 16  1  0
  9 17  1  0
 10 18  1  0
 11 19  1  0
 12 20  1  0
 13 21  1  0
M  ISO  8  14  14  15  14  16  14  17  14  18  14  19  14  20  14  21  11
M  END
>  <minimizedAffinity>  (1) 
-4.40719938

>  <minimizedRMSD>  (1) 
5.14958858

$$$$
