
     RDKit          3D

 25 26  0  0  0  0  0  0  0  0999 V2000
   44.9320   34.9730   44.4780 C   0  0  0  0  0  0  0  0  0  0  0  0
   45.4930   34.7820   43.2200 C   0  0  0  0  0  0  0  0  0  0  0  0
   46.5200   33.8470   43.0740 C   0  0  0  0  0  0  0  0  0  0  0  0
   46.9120   33.1720   44.1890 N   0  0  0  0  0  0  0  0  0  0  0  0
   46.3500   33.3810   45.3820 C   0  0  0  0  0  0  0  0  0  0  0  0
   45.3650   34.2720   45.5460 N   0  0  0  0  0  0  0  0  0  0  0  0
   43.8900   35.8870   44.7500 N   0  0  0  0  0  0  0  0  0  0  0  0
   48.3590   33.0100   39.3040 C   0  0  0  0  0  0  0  0  0  0  0  0
   48.0470   34.3100   39.6440 C   0  0  0  0  0  0  0  0  0  0  0  0
   47.4600   34.5660   40.8530 C   0  0  0  0  0  0  0  0  0  0  0  0
   47.1410   33.6050   41.7900 C   0  0  0  0  0  0  0  0  0  0  0  0
   47.4560   32.3110   41.4400 C   0  0  0  0  0  0  0  0  0  0  0  0
   48.0560   32.0180   40.2140 C   0  0  0  0  0  0  0  0  0  0  0  0
   49.1080   32.7000   37.7620 S   0  0  0  0  0  0  0  0  0  0  0  0
   48.9360   33.9110   36.8720 O   0  0  0  0  0  0  0  0  0  0  0  0
   48.4250   31.5740   37.0700 O   0  0  0  0  0  0  0  0  0  0  0  0
   45.1338   35.3578   42.3543 H   0  0  0  0  0  0  0  0  0  0  0  0
   46.7051   32.8072   46.2507 H   0  0  0  0  0  0  0  0  0  0  0  0
   43.4995   36.4636   43.9911 H   0  0  0  0  0  0  0  0  0  0  0  0
   43.5206   35.9769   45.7073 H   0  0  0  0  0  0  0  0  0  0  0  0
   48.2682   35.1336   38.9492 H   0  0  0  0  0  0  0  0  0  0  0  0
   47.2256   35.6131   41.0953 H   0  0  0  0  0  0  0  0  0  0  0  0
   47.2306   31.4927   42.1397 H   0  0  0  0  0  0  0  0  0  0  0  0
   48.2926   30.9724   39.9678 H   0  0  0  0  0  0  0  0  0  0  0  0
   50.4281   32.4082   37.9836 H   0  0  0  0  0  0  0  0  0  0  0  0
  1  7  1  0
  1  6  2  0
  2  1  1  0
  3  2  2  0
  3  4  1  0
  4  5  2  0
  5  6  1  0
  8  9  2  0
  8 13  1  0
  9 10  1  0
 10 11  2  0
 11  3  1  0
 12 11  1  0
 13 12  2  0
 14  8  1  0
 15 14  2  0
 16 14  2  0
  2 17  1  0
  5 18  1  0
  7 19  1  0
  7 20  1  0
  9 21  1  0
 10 22  1  0
 12 23  1  0
 13 24  1  0
 14 25  1  0
M  ISO  7  17  14  18  14  21  14  22  14  23  14  24  14  25  11
M  END
>  <minimizedAffinity>  (1) 
-4.60734558

>  <minimizedRMSD>  (1) 
1.65770519

$$$$
