
     RDKit          3D

 42 44  0  0  0  0  0  0  0  0999 V2000
   46.1414   33.6467   45.3129 C   0  0  2  0  0  0  0  0  0  0  0  0
   44.9395   34.6840   45.4741 C   0  0  0  0  0  0  0  0  0  0  0  0
   44.7007   35.5806   44.3727 C   0  0  0  0  0  0  0  0  0  0  0  0
   45.5113   35.5227   43.1798 C   0  0  1  0  0  0  0  0  0  0  0  0
   46.6452   34.5693   43.1922 C   0  0  0  0  0  0  0  0  0  0  0  0
   46.1890   33.3185   43.9306 C   0  0  0  0  0  0  0  0  0  0  0  0
   45.3236   32.9194   47.5412 C   0  0  0  0  0  0  0  0  0  0  0  0
   45.9280   32.6806   46.3408 C   0  0  0  0  0  0  0  0  0  0  0  0
   46.2784   31.3429   46.1108 C   0  0  0  0  0  0  0  0  0  0  0  0
   46.0368   30.3626   46.9973 N   0  0  0  0  0  0  0  0  0  0  0  0
   45.4232   30.6497   48.1977 C   0  0  0  0  0  0  0  0  0  0  0  0
   45.0816   31.9094   48.4463 N   0  0  0  0  0  0  0  0  0  0  0  0
   45.1736   29.6315   49.1550 N   0  0  0  0  0  0  0  0  0  0  0  0
   44.5767   35.1811   41.9916 C   0  0  0  0  0  0  0  0  0  0  0  0
   43.5855   34.2837   42.3314 F   0  0  0  0  0  0  0  0  0  0  0  0
   43.9331   36.3676   41.6493 F   0  0  0  0  0  0  0  0  0  0  0  0
   45.3293   34.8018   40.8943 F   0  0  0  0  0  0  0  0  0  0  0  0
   46.9254   34.3946   45.6441 H   0  0  0  0  0  0  0  0  0  0  0  0
   44.2137   34.9050   46.2348 H   0  0  0  0  0  0  0  0  0  0  0  0
   43.9318   36.3029   44.3813 H   0  0  0  0  0  0  0  0  0  0  0  0
   45.9030   36.5351   42.9384 H   0  0  0  0  0  0  0  0  0  0  0  0
   47.4700   35.0044   43.7955 H   0  0  0  0  0  0  0  0  0  0  0  0
   47.0206   34.3813   42.1891 H   0  0  0  0  0  0  0  0  0  0  0  0
   45.0894   33.2184   43.5726 H   0  0  0  0  0  0  0  0  0  0  0  0
   46.6764   32.5335   43.4306 H   0  0  0  0  0  0  0  0  0  0  0  0
   45.0227   33.9192   47.8058 H   0  0  0  0  0  0  0  0  0  0  0  0
   46.0409   29.7813   49.7439 H   0  0  0  0  0  0  0  0  0  0  0  0
   44.2679   29.2995   48.7430 H   0  0  0  0  0  0  0  0  0  0  0  0
   50.5334   28.1199   42.2033 H   0  0  0  0  0  0  0  0  0  0  0  0
   49.2228   28.2771   41.8393 S   0  0  0  0  0  0  0  0  0  0  0  0
   48.5706   26.9352   41.7718 O   0  0  0  0  0  0  0  0  0  0  0  0
   49.2017   28.9836   40.5264 O   0  0  0  0  0  0  0  0  0  0  0  0
   48.3463   29.2115   43.0569 C   0  0  0  0  0  0  0  0  0  0  0  0
   47.2029   29.9041   42.7455 C   0  0  0  0  0  0  0  0  0  0  0  0
   46.5330   30.6275   43.7093 C   0  0  0  0  0  0  0  0  0  0  0  0
   46.9821   30.6843   45.0172 C   0  0  0  0  0  0  0  0  0  0  0  0
   48.1628   29.9439   45.2483 C   0  0  0  0  0  0  0  0  0  0  0  0
   48.8733   29.2052   44.3292 C   0  0  0  0  0  0  0  0  0  0  0  0
   46.8274   29.8766   41.7237 H   0  0  0  0  0  0  0  0  0  0  0  0
   45.6237   31.1795   43.4663 H   0  0  0  0  0  0  0  0  0  0  0  0
   48.5270   29.9837   46.2864 H   0  0  0  0  0  0  0  0  0  0  0  0
   49.7572   28.6983   44.6727 H   0  0  0  0  0  0  0  0  0  0  0  0
  1  2  1  0
  1  8  1  0
  3  2  2  0
  4  5  1  0
  4  3  1  0
  5  6  1  0
  6  1  1  0
  7 12  2  0
  8  7  1  0
  9  8  2  0
  9 10  1  0
 10 11  2  0
 11 12  1  0
 11 13  1  0
 14 15  1  0
 14  4  1  0
 16 14  1  0
 17 14  1  0
  1 18  1  1
  2 19  1  0
  3 20  1  0
  4 21  1  6
  5 22  1  0
  5 23  1  0
  6 24  1  0
  6 25  1  0
  7 26  1  0
 13 27  1  0
 13 28  1  0
 29 30  1  0
 30 31  2  0
 30 32  2  0
 30 33  1  0
 33 34  2  0
 34 35  1  0
 35 36  2  0
 36 37  1  0
 37 38  2  0
 38 33  1  0
 34 39  1  0
 35 40  1  0
 37 41  1  0
 38 42  1  0
  9 36  1  0
M  ISO  8  18  13  19  13  20  13  21  13  22  13  23  13  24  13  25  13
M  ISO  2  26  14  29  12
M  END
>  <DihAtoms>  (1) 
7,8,35,34

>  <DihDeg>  (1) 
-123.30773436134268

$$$$
