
     RDKit          3D

 38 40  0  0  1  0  0  0  0  0999 V2000
   46.1650   32.0150   45.5420 C   0  0  2  0  0  0  0  0  0  0  0  0
   47.1880   31.0760   44.9470 C   0  0  0  0  0  0  0  0  0  0  0  0
   47.9840   31.5720   43.8430 C   0  0  0  0  0  0  0  0  0  0  0  0
   47.7880   32.9320   43.3480 C   0  0  2  0  0  0  0  0  0  0  0  0
   46.6370   33.6800   43.8830 C   0  0  0  0  0  0  0  0  0  0  0  0
   46.5620   33.4480   45.3740 C   0  0  0  0  0  0  0  0  0  0  0  0
   45.3920   30.3080   47.1400 C   0  0  0  0  0  0  0  0  0  0  0  0
   45.8470   31.6070   46.9130 C   0  0  0  0  0  0  0  0  0  0  0  0
   45.9560   32.4700   48.0140 C   0  0  0  0  0  0  0  0  0  0  0  0
   45.6120   32.0040   49.2470 N   0  0  0  0  0  0  0  0  0  0  0  0
   45.1740   30.7470   49.4350 C   0  0  0  0  0  0  0  0  0  0  0  0
   45.0640   29.8980   48.3860 N   0  0  0  0  0  0  0  0  0  0  0  0
   47.8420   32.9150   41.8870 N   0  0  0  0  0  0  0  0  0  0  0  0
   46.5610   33.3710   41.3860 C   0  0  0  0  0  0  0  0  0  0  0  0
   46.5870   33.4750   39.8780 C   0  0  0  0  0  0  0  0  0  0  0  0
   47.5830   34.4130   39.4570 N   0  0  0  0  0  0  0  0  0  0  0  0
   48.3720   34.9280   40.5520 C   0  0  0  0  0  0  0  0  0  0  0  0
   48.8810   33.8420   41.4670 C   0  0  0  0  0  0  0  0  0  0  0  0
   45.2207   31.9400   44.9829 H   0  0  0  0  0  0  0  0  0  0  0  0
   47.3231   30.0562   45.3366 H   0  0  0  0  0  0  0  0  0  0  0  0
   48.7386   30.9221   43.3759 H   0  0  0  0  0  0  0  0  0  0  0  0
   48.6205   33.5257   43.7535 H   0  0  0  0  0  0  0  0  0  0  0  0
   46.7665   34.7535   43.6811 H   0  0  0  0  0  0  0  0  0  0  0  0
   45.7093   33.3363   43.4022 H   0  0  0  0  0  0  0  0  0  0  0  0
   47.5411   33.6318   45.8404 H   0  0  0  0  0  0  0  0  0  0  0  0
   45.8426   34.1273   45.8546 H   0  0  0  0  0  0  0  0  0  0  0  0
   45.2990   29.6092   46.2956 H   0  0  0  0  0  0  0  0  0  0  0  0
   46.3122   33.5026   47.8841 H   0  0  0  0  0  0  0  0  0  0  0  0
   44.9038   30.4067   50.4455 H   0  0  0  0  0  0  0  0  0  0  0  0
   45.7802   32.6565   41.6859 H   0  0  0  0  0  0  0  0  0  0  0  0
   46.3486   34.3649   41.8068 H   0  0  0  0  0  0  0  0  0  0  0  0
   46.8163   32.4875   39.4510 H   0  0  0  0  0  0  0  0  0  0  0  0
   45.6029   33.8203   39.5283 H   0  0  0  0  0  0  0  0  0  0  0  0
   48.2132   33.9453   38.7899 H   0  0  0  0  0  0  0  0  0  0  0  0
   49.2341   35.4720   40.1387 H   0  0  0  0  0  0  0  0  0  0  0  0
   47.7221   35.5857   41.1479 H   0  0  0  0  0  0  0  0  0  0  0  0
   49.6618   33.2760   40.9378 H   0  0  0  0  0  0  0  0  0  0  0  0
   49.2687   34.3317   42.3725 H   0  0  0  0  0  0  0  0  0  0  0  0
  1  8  1  0
  2  1  1  0
  3  2  2  0
  4  3  1  0
  4  5  1  0
  5  6  1  0
  6  1  1  0
  7 12  2  0
  8  7  1  0
  8  9  2  0
  9 10  1  0
 10 11  2  0
 12 11  1  0
 13  4  1  0
 14 13  1  0
 15 14  1  0
 16 15  1  0
 16 17  1  0
 17 18  1  0
 18 13  1  0
  1 19  1  6
  2 20  1  0
  3 21  1  0
  4 22  1  1
  5 23  1  0
  5 24  1  0
  6 25  1  0
  6 26  1  0
  7 27  1  0
  9 28  1  0
 11 29  1  0
 14 30  1  0
 14 31  1  0
 15 32  1  0
 15 33  1  0
 16 34  1  0
 17 35  1  0
 17 36  1  0
 18 37  1  0
 18 38  1  0
M  ISO  8  19  13  20  13  21  13  22  13  23  13  24  13  25  13  26  13
M  ISO  8  27  14  28  14  29  14  30  13  31  13  32  13  33  13  34   5
M  ISO  4  35  13  36  13  37  13  38  13
M  END
>  <minimizedAffinity>  (1) 
-4.69655848

>  <minimizedRMSD>  (1) 
4.14353275

$$$$
