
     RDKit          3D

 47 50  0  0  0  0  0  0  0  0999 V2000
   44.7890   36.0860   44.7120 C   0  0  0  0  0  0  0  0  0  0  0  0
   43.9980   36.0420   43.5430 C   0  0  0  0  0  0  0  0  0  0  0  0
   43.9900   34.8620   42.8160 C   0  0  0  0  0  0  0  0  0  0  0  0
   44.7160   33.7970   43.2170 N   0  0  0  0  0  0  0  0  0  0  0  0
   45.4760   33.8530   44.3490 C   0  0  0  0  0  0  0  0  0  0  0  0
   45.5020   35.0020   45.0840 N   0  0  0  0  0  0  0  0  0  0  0  0
   46.2560   32.7110   44.7830 C   0  0  0  0  0  0  0  0  0  0  0  0
   47.1060   31.9240   43.9980 C   0  0  0  0  0  0  0  0  0  0  0  0
   47.6610   30.9470   44.7540 N   0  0  0  0  0  0  0  0  0  0  0  0
   47.1480   31.1380   46.0070 C   0  0  0  0  0  0  0  0  0  0  0  0
   46.3030   32.1990   46.0230 N   0  0  0  0  0  0  0  0  0  0  0  0
   47.4850   30.3030   47.1310 N   0  0  0  0  0  0  0  0  0  0  0  0
   48.7470   29.9770   47.8160 C   0  0  0  0  0  0  0  0  0  0  0  0
   48.4910   30.2370   49.2910 C   0  0  0  0  0  0  0  0  0  0  0  0
   47.2850   31.0550   49.4920 N   0  0  0  0  0  0  0  0  0  0  0  0
   46.1100   30.3180   49.0630 C   0  0  0  0  0  0  0  0  0  0  0  0
   46.3430   29.6130   47.7480 C   0  0  0  0  0  0  0  0  0  0  0  0
   45.5720   32.7080   47.1640 C   0  0  0  0  0  0  0  0  0  0  0  0
   44.6860   31.7340   47.6950 F   0  0  0  0  0  0  0  0  0  0  0  0
   44.8080   33.8300   46.8360 F   0  0  0  0  0  0  0  0  0  0  0  0
   46.4310   33.0020   48.2060 F   0  0  0  0  0  0  0  0  0  0  0  0
   43.1840   34.8370   41.6340 N   0  0  0  0  0  0  0  0  0  0  0  0
   41.8680   35.0690   41.5530 C   0  0  0  0  0  0  0  0  0  0  0  0
   41.2380   35.0040   40.3230 C   0  0  0  0  0  0  0  0  0  0  0  0
   41.9280   34.7080   39.1750 C   0  0  0  0  0  0  0  0  0  0  0  0
   41.3510   34.6500   38.0530 O   0  0  0  0  0  0  0  0  0  0  0  0
   43.2440   34.4830   39.3020 N   0  0  0  0  0  0  0  0  0  0  0  0
   43.8580   34.5470   40.5110 C   0  0  0  0  0  0  0  0  0  0  0  0
   45.1140   34.3080   40.4610 O   0  0  0  0  0  0  0  0  0  0  0  0
   39.8020   35.2580   40.2380 C   0  0  0  0  0  0  0  0  0  0  0  0
   44.8240   37.0028   45.3188 H   0  0  0  0  0  0  0  0  0  0  0  0
   43.4090   36.9134   43.2208 H   0  0  0  0  0  0  0  0  0  0  0  0
   47.2954   32.0764   42.9252 H   0  0  0  0  0  0  0  0  0  0  0  0
   49.0111   28.9218   47.6524 H   0  0  0  0  0  0  0  0  0  0  0  0
   49.5840   30.5810   47.4358 H   0  0  0  0  0  0  0  0  0  0  0  0
   48.3599   29.2741   49.8064 H   0  0  0  0  0  0  0  0  0  0  0  0
   49.3525   30.7854   49.6998 H   0  0  0  0  0  0  0  0  0  0  0  0
   47.1946   31.2903   50.4907 H   0  0  0  0  0  0  0  0  0  0  0  0
   45.8590   29.5697   49.8292 H   0  0  0  0  0  0  0  0  0  0  0  0
   45.2863   31.0343   48.9272 H   0  0  0  0  0  0  0  0  0  0  0  0
   45.4532   29.6922   47.1061 H   0  0  0  0  0  0  0  0  0  0  0  0
   46.5413   28.5402   47.8889 H   0  0  0  0  0  0  0  0  0  0  0  0
   41.2915   35.3097   42.4584 H   0  0  0  0  0  0  0  0  0  0  0  0
   43.8002   34.2570   38.4651 H   0  0  0  0  0  0  0  0  0  0  0  0
   39.3821   35.3323   41.2520 H   0  0  0  0  0  0  0  0  0  0  0  0
   39.6277   36.2009   39.6990 H   0  0  0  0  0  0  0  0  0  0  0  0
   39.3148   34.4321   39.6990 H   0  0  0  0  0  0  0  0  0  0  0  0
  1  6  2  0
  2  1  1  0
  3  4  1  0
  3  2  2  0
  4  5  2  0
  5  7  1  0
  5  6  1  0
  7 11  1  0
  8  9  1  0
  8  7  2  0
  9 10  2  0
 10 11  1  0
 10 12  1  0
 11 18  1  0
 12 17  1  0
 12 13  1  0
 13 14  1  0
 14 15  1  0
 16 15  1  0
 17 16  1  0
 18 19  1  0
 18 21  1  0
 20 18  1  0
 22  3  1  0
 23 22  1  0
 24 23  2  0
 25 27  1  0
 25 24  1  0
 26 25  2  0
 27 28  1  0
 28 22  1  0
 29 28  2  0
 30 24  1  0
  1 31  1  0
  2 32  1  0
  8 33  1  0
 13 34  1  0
 13 35  1  0
 14 36  1  0
 14 37  1  0
 15 38  1  0
 16 39  1  0
 16 40  1  0
 17 41  1  0
 17 42  1  0
 23 43  1  0
 27 44  1  0
 30 45  1  0
 30 46  1  0
 30 47  1  0
M  END
>  <minimizedAffinity>  (1) 
-7.04626799

>  <minimizedRMSD>  (1) 
0.447430104

$$$$
