
     RDKit          3D

 51 55  0  0  1  0  0  0  0  0999 V2000
   46.9290   34.5130   41.2980 C   0  0  0  0  0  0  0  0  0  0  0  0
   48.1900   34.9630   40.9350 C   0  0  0  0  0  0  0  0  0  0  0  0
   48.4510   34.6540   39.6740 N   0  0  0  0  0  0  0  0  0  0  0  0
   47.3760   34.0010   39.1940 C   0  0  0  0  0  0  0  0  0  0  0  0
   47.1270   33.4590   37.9340 C   0  0  0  0  0  0  0  0  0  0  0  0
   45.9300   32.8370   37.7080 C   0  0  0  0  0  0  0  0  0  0  0  0
   44.9200   32.6970   38.6500 C   0  0  0  0  0  0  0  0  0  0  0  0
   45.2240   33.2550   39.8840 C   0  0  0  0  0  0  0  0  0  0  0  0
   46.4000   33.8920   40.1830 C   0  0  0  0  0  0  0  0  0  0  0  0
   44.7770   35.8570   44.0350 C   0  0  0  0  0  0  0  0  0  0  0  0
   45.4110   35.7470   42.7790 C   0  0  0  0  0  0  0  0  0  0  0  0
   46.2640   34.6470   42.5860 C   0  0  0  0  0  0  0  0  0  0  0  0
   46.4500   33.7430   43.5940 N   0  0  0  0  0  0  0  0  0  0  0  0
   45.8010   33.9170   44.7830 C   0  0  0  0  0  0  0  0  0  0  0  0
   44.9770   34.9490   45.0140 N   0  0  0  0  0  0  0  0  0  0  0  0
   49.0940   35.6910   41.8610 C   0  0  0  0  0  0  0  0  0  0  0  0
   49.9510   34.7440   42.6590 C   0  0  0  0  0  0  0  0  0  0  0  0
   50.3110   33.4910   41.9340 C   0  0  1  0  0  0  0  0  0  0  0  0
   51.0600   32.3940   42.5570 C   0  0  0  0  0  0  0  0  0  0  0  0
   49.5960   32.2370   42.4960 C   0  0  2  0  0  0  0  0  0  0  0  0
   49.0450   31.2940   41.6040 N   0  0  0  0  0  0  0  0  0  0  0  0
   48.9520   30.0100   42.2740 C   0  0  0  0  0  0  0  0  0  0  0  0
   48.4660   28.9990   41.2810 C   0  0  0  0  0  0  0  0  0  0  0  0
   49.5610   28.7130   40.3720 N   0  0  0  0  0  0  0  0  0  0  0  0
   50.4450   29.8560   40.2280 C   0  0  0  0  0  0  0  0  0  0  0  0
   49.6230   31.1500   40.3220 C   0  0  0  0  0  0  0  0  0  0  0  0
   49.3148   34.8724   39.1572 H   0  0  0  0  0  0  0  0  0  0  0  0
   47.8801   33.5303   37.1354 H   0  0  0  0  0  0  0  0  0  0  0  0
   45.7548   32.4170   36.7065 H   0  0  0  0  0  0  0  0  0  0  0  0
   43.9668   32.1906   38.4381 H   0  0  0  0  0  0  0  0  0  0  0  0
   44.4670   33.1806   40.6786 H   0  0  0  0  0  0  0  0  0  0  0  0
   44.1018   36.7052   44.2214 H   0  0  0  0  0  0  0  0  0  0  0  0
   45.2447   36.4902   41.9853 H   0  0  0  0  0  0  0  0  0  0  0  0
   45.9609   33.1802   45.5840 H   0  0  0  0  0  0  0  0  0  0  0  0
   49.7464   36.3547   41.2745 H   0  0  0  0  0  0  0  0  0  0  0  0
   48.4745   36.2685   42.5629 H   0  0  0  0  0  0  0  0  0  0  0  0
   50.8808   35.2651   42.9310 H   0  0  0  0  0  0  0  0  0  0  0  0
   49.3599   34.4441   43.5369 H   0  0  0  0  0  0  0  0  0  0  0  0
   50.4546   34.0262   40.9838 H   0  0  0  0  0  0  0  0  0  0  0  0
   51.6982   31.7526   41.9315 H   0  0  0  0  0  0  0  0  0  0  0  0
   51.7920   32.3480   43.3768 H   0  0  0  0  0  0  0  0  0  0  0  0
   48.7889   32.0494   43.2195 H   0  0  0  0  0  0  0  0  0  0  0  0
   49.9418   29.7147   42.6523 H   0  0  0  0  0  0  0  0  0  0  0  0
   48.2561   30.0738   43.1235 H   0  0  0  0  0  0  0  0  0  0  0  0
   48.1608   28.0792   41.8014 H   0  0  0  0  0  0  0  0  0  0  0  0
   47.5976   29.3874   40.7287 H   0  0  0  0  0  0  0  0  0  0  0  0
   50.1010   27.9162   40.7387 H   0  0  0  0  0  0  0  0  0  0  0  0
   50.9478   29.8105   39.2507 H   0  0  0  0  0  0  0  0  0  0  0  0
   51.1998   29.8406   41.0281 H   0  0  0  0  0  0  0  0  0  0  0  0
   50.2817   32.0090   40.1264 H   0  0  0  0  0  0  0  0  0  0  0  0
   48.8146   31.1051   39.5774 H   0  0  0  0  0  0  0  0  0  0  0  0
  1 12  1  0
  2  1  2  0
  2 16  1  0
  3  2  1  0
  4  3  1  0
  4  9  2  0
  5  4  1  0
  6  5  2  0
  6  7  1  0
  7  8  2  0
  8  9  1  0
  9  1  1  0
 10 15  2  0
 11 10  1  0
 12 11  2  0
 12 13  1  0
 13 14  2  0
 14 15  1  0
 16 17  1  0
 18 20  1  0
 18 19  1  0
 18 17  1  0
 20 19  1  0
 21 22  1  0
 21 20  1  0
 23 22  1  0
 24 23  1  0
 25 26  1  0
 25 24  1  0
 26 21  1  0
  3 27  1  0
  5 28  1  0
  6 29  1  0
  7 30  1  0
  8 31  1  0
 10 32  1  0
 11 33  1  0
 14 34  1  0
 16 35  1  0
 16 36  1  0
 17 37  1  0
 17 38  1  0
 18 39  1  6
 19 40  1  0
 19 41  1  0
 20 42  1  1
 22 43  1  0
 22 44  1  0
 23 45  1  0
 23 46  1  0
 24 47  1  0
 25 48  1  0
 25 49  1  0
 26 50  1  0
 26 51  1  0
M  ISO  8  27   9  28  14  29  14  30  14  31  14  32  14  33  14  34  14
M  ISO  8  35   8  36   8  37   8  38   8  39  13  40  13  41  13  42  13
M  ISO  8  43  13  44  13  45  13  46  13  47   5  48  13  49  13  50  13
M  ISO  1  51  13
M  END
>  <minimizedAffinity>  (1) 
-5.72857714

>  <minimizedRMSD>  (1) 
0.242015868

$$$$
