
     RDKit          3D

 40 43  0  0  0  0  0  0  0  0999 V2000
   42.5470   34.2900   40.2910 C   0  0  0  0  0  0  0  0  0  0  0  0
   41.7870   33.1400   40.5330 C   0  0  0  0  0  0  0  0  0  0  0  0
   40.6370   33.2820   41.2920 C   0  0  0  0  0  0  0  0  0  0  0  0
   40.3010   34.5250   41.7640 N   0  0  0  0  0  0  0  0  0  0  0  0
   41.0540   35.5870   41.5080 C   0  0  0  0  0  0  0  0  0  0  0  0
   42.1600   35.4790   40.7840 N   0  0  0  0  0  0  0  0  0  0  0  0
   39.8640   32.1170   41.5410 N   0  0  0  0  0  0  0  0  0  0  0  0
   40.3930   31.1410   42.3340 C   0  0  0  0  0  0  0  0  0  0  0  0
   39.6240   30.0220   42.5600 C   0  0  0  0  0  0  0  0  0  0  0  0
   38.3610   29.8560   42.0240 C   0  0  0  0  0  0  0  0  0  0  0  0
   37.7360   28.8100   42.2800 O   0  0  0  0  0  0  0  0  0  0  0  0
   37.8670   30.8490   41.2380 N   0  0  0  0  0  0  0  0  0  0  0  0
   38.6170   31.9360   41.0200 C   0  0  0  0  0  0  0  0  0  0  0  0
   38.1190   32.8260   40.2900 O   0  0  0  0  0  0  0  0  0  0  0  0
   40.2250   28.9590   43.4360 C   0  0  0  0  0  0  0  0  0  0  0  0
   42.2540   31.9330   39.9860 N   0  0  0  0  0  0  0  0  0  0  0  0
   43.2750   31.3250   40.4800 N   0  0  0  0  0  0  0  0  0  0  0  0
   43.5390   30.1880   39.7930 C   0  0  0  0  0  0  0  0  0  0  0  0
   42.5500   30.1600   38.8010 C   0  0  0  0  0  0  0  0  0  0  0  0
   41.7310   31.2790   38.9290 C   0  0  0  0  0  0  0  0  0  0  0  0
   40.5890   31.6360   38.1060 C   0  0  0  0  0  0  0  0  0  0  0  0
   40.3370   32.8050   37.7120 O   0  0  0  0  0  0  0  0  0  0  0  0
   39.6340   30.6210   37.6760 C   0  0  0  0  0  0  0  0  0  0  0  0
   39.2850   30.5290   36.3440 C   0  0  0  0  0  0  0  0  0  0  0  0
   38.3730   29.5730   35.8810 C   0  0  0  0  0  0  0  0  0  0  0  0
   37.8180   28.7180   36.7440 N   0  0  0  0  0  0  0  0  0  0  0  0
   38.1630   28.8100   38.0570 C   0  0  0  0  0  0  0  0  0  0  0  0
   39.0470   29.7340   38.5240 N   0  0  0  0  0  0  0  0  0  0  0  0
   43.4676   34.2203   39.6930 H   0  0  0  0  0  0  0  0  0  0  0  0
   40.7570   36.5703   41.9015 H   0  0  0  0  0  0  0  0  0  0  0  0
   41.3951   31.2443   42.7756 H   0  0  0  0  0  0  0  0  0  0  0  0
   36.9306   30.7663   40.8170 H   0  0  0  0  0  0  0  0  0  0  0  0
   40.0741   29.2259   44.4924 H   0  0  0  0  0  0  0  0  0  0  0  0
   39.7386   27.9945   43.2284 H   0  0  0  0  0  0  0  0  0  0  0  0
   41.3022   28.8786   43.2284 H   0  0  0  0  0  0  0  0  0  0  0  0
   44.3418   29.4576   39.9720 H   0  0  0  0  0  0  0  0  0  0  0  0
   42.4377   29.3751   38.0386 H   0  0  0  0  0  0  0  0  0  0  0  0
   39.7369   31.2277   35.6245 H   0  0  0  0  0  0  0  0  0  0  0  0
   38.1150   29.5263   34.8127 H   0  0  0  0  0  0  0  0  0  0  0  0
   37.7083   28.1080   38.7714 H   0  0  0  0  0  0  0  0  0  0  0  0
  1  2  2  0
  1  6  1  0
  2  3  1  0
  3  7  1  0
  3  4  2  0
  5  4  1  0
  6  5  2  0
  7  8  1  0
  8  9  2  0
  9 15  1  0
 10 11  2  0
 10  9  1  0
 12 10  1  0
 13 12  1  0
 13  7  1  0
 14 13  2  0
 16 17  1  0
 16  2  1  0
 18 17  2  0
 19 20  2  0
 19 18  1  0
 20 16  1  0
 21 20  1  0
 22 21  2  0
 23 21  1  0
 23 28  1  0
 24 23  2  0
 25 24  1  0
 25 26  2  0
 26 27  1  0
 27 28  2  0
  1 29  1  0
  5 30  1  0
  8 31  1  0
 12 32  1  0
 15 33  1  0
 15 34  1  0
 15 35  1  0
 18 36  1  0
 19 37  1  0
 24 38  1  0
 25 39  1  0
 27 40  1  0
M  ISO  8  29  14  30  14  31  14  32   9  33   8  34   8  35   8  36  14
M  ISO  4  37  14  38  14  39  14  40  14
M  END
>  <minimizedAffinity>  (1) 
-4.73768759

>  <minimizedRMSD>  (1) 
5.05834246

$$$$
