
     RDKit          3D

 46 48  0  0  1  0  0  0  0  0999 V2000
   47.0840   34.2090   40.2140 C   0  0  1  0  0  0  0  0  0  0  0  0
   48.1000   34.1760   39.0590 C   0  0  0  0  0  0  0  0  0  0  0  0
   47.3720   33.6130   37.8680 C   0  0  0  0  0  0  0  0  0  0  0  0
   47.0430   32.1750   38.1170 C   0  0  0  0  0  0  0  0  0  0  0  0
   47.2350   31.7950   39.5550 C   0  0  0  0  0  0  0  0  0  0  0  0
   46.6780   32.8210   40.5410 C   0  0  2  0  0  0  0  0  0  0  0  0
   45.3040   32.5250   40.6770 N   0  0  0  0  0  0  0  0  0  0  0  0
   44.4010   33.5690   40.3460 C   0  0  0  0  0  0  0  0  0  0  0  0
   43.4120   33.9130   41.3900 C   0  0  0  0  0  0  0  0  0  0  0  0
   42.7450   32.6480   41.7520 N   0  0  0  0  0  0  0  0  0  0  0  0
   43.7390   31.8950   42.4550 C   0  0  0  0  0  0  0  0  0  0  0  0
   44.8620   31.5130   41.5230 C   0  0  0  0  0  0  0  0  0  0  0  0
   47.7960   34.8770   41.4150 C   0  0  0  0  0  0  0  0  0  0  0  0
   47.5160   33.9850   42.5980 C   0  0  0  0  0  0  0  0  0  0  0  0
   46.1250   33.8830   44.6010 C   0  0  0  0  0  0  0  0  0  0  0  0
   46.4980   34.5580   43.4260 C   0  0  0  0  0  0  0  0  0  0  0  0
   45.8650   35.7340   43.1060 C   0  0  0  0  0  0  0  0  0  0  0  0
   44.9050   36.2000   43.9400 N   0  0  0  0  0  0  0  0  0  0  0  0
   44.5440   35.5490   45.0750 C   0  0  0  0  0  0  0  0  0  0  0  0
   45.1600   34.3850   45.4020 N   0  0  0  0  0  0  0  0  0  0  0  0
   46.1769   34.7727   39.9506 H   0  0  0  0  0  0  0  0  0  0  0  0
   48.4595   35.1922   38.8396 H   0  0  0  0  0  0  0  0  0  0  0  0
   48.9765   33.5633   39.3166 H   0  0  0  0  0  0  0  0  0  0  0  0
   48.0110   33.6936   36.9762 H   0  0  0  0  0  0  0  0  0  0  0  0
   46.4425   34.1785   37.7062 H   0  0  0  0  0  0  0  0  0  0  0  0
   45.9933   31.9979   37.8401 H   0  0  0  0  0  0  0  0  0  0  0  0
   47.7241   31.5608   37.5097 H   0  0  0  0  0  0  0  0  0  0  0  0
   46.7292   30.8342   39.7308 H   0  0  0  0  0  0  0  0  0  0  0  0
   48.3194   31.7366   39.7301 H   0  0  0  0  0  0  0  0  0  0  0  0
   47.1158   32.7489   41.5475 H   0  0  0  0  0  0  0  0  0  0  0  0
   44.9916   34.4712   40.1289 H   0  0  0  0  0  0  0  0  0  0  0  0
   43.8180   33.2021   39.4884 H   0  0  0  0  0  0  0  0  0  0  0  0
   43.9168   34.3435   42.2674 H   0  0  0  0  0  0  0  0  0  0  0  0
   42.6896   34.6602   41.0296 H   0  0  0  0  0  0  0  0  0  0  0  0
   41.9313   32.8278   42.3573 H   0  0  0  0  0  0  0  0  0  0  0  0
   44.1414   32.5043   43.2777 H   0  0  0  0  0  0  0  0  0  0  0  0
   43.2784   30.9796   42.8548 H   0  0  0  0  0  0  0  0  0  0  0  0
   44.5157   30.6758   40.8991 H   0  0  0  0  0  0  0  0  0  0  0  0
   45.7176   31.2596   42.1662 H   0  0  0  0  0  0  0  0  0  0  0  0
   48.8786   34.9433   41.2315 H   0  0  0  0  0  0  0  0  0  0  0  0
   47.4356   35.9025   41.5835 H   0  0  0  0  0  0  0  0  0  0  0  0
   47.1796   33.0013   42.2385 H   0  0  0  0  0  0  0  0  0  0  0  0
   48.4374   33.8769   43.1890 H   0  0  0  0  0  0  0  0  0  0  0  0
   46.6223   32.9395   44.8702 H   0  0  0  0  0  0  0  0  0  0  0  0
   46.1318   36.2854   42.1923 H   0  0  0  0  0  0  0  0  0  0  0  0
   43.7582   35.9618   45.7247 H   0  0  0  0  0  0  0  0  0  0  0  0
  1  6  1  0
  1 13  1  0
  2  1  1  0
  3  4  1  0
  3  2  1  0
  4  5  1  0
  5  6  1  0
  6  7  1  0
  7 12  1  0
  8  7  1  0
  8  9  1  0
  9 10  1  0
 10 11  1  0
 12 11  1  0
 13 14  1  0
 14 16  1  0
 15 20  2  0
 16 15  1  0
 17 16  2  0
 17 18  1  0
 18 19  2  0
 19 20  1  0
  1 21  1  6
  2 22  1  0
  2 23  1  0
  3 24  1  0
  3 25  1  0
  4 26  1  0
  4 27  1  0
  5 28  1  0
  5 29  1  0
  6 30  1  1
  8 31  1  0
  8 32  1  0
  9 33  1  0
  9 34  1  0
 10 35  1  0
 11 36  1  0
 11 37  1  0
 12 38  1  0
 12 39  1  0
 13 40  1  0
 13 41  1  0
 14 42  1  0
 14 43  1  0
 15 44  1  0
 17 45  1  0
 19 46  1  0
M  ISO  8  21  13  22  13  23  13  24  13  25  13  26  13  27  13  28  13
M  ISO  8  29  13  30  13  31  13  32  13  33  13  34  13  35   5  36  13
M  ISO  8  37  13  38  13  39  13  40   8  41   8  42   8  43   8  44  14
M  ISO  2  45  14  46  14
M  END
>  <minimizedAffinity>  (1) 
-4.74130678

>  <minimizedRMSD>  (1) 
2.2075913

$$$$
