
     RDKit          3D

 52 57  0  0  1  0  0  0  0  0999 V2000
   46.2940   33.6110   44.6870 C   0  0  2  0  0  0  0  0  0  0  0  0
   44.9950   34.4050   44.7910 C   0  0  0  0  0  0  0  0  0  0  0  0
   44.8750   35.5340   43.9000 C   0  0  0  0  0  0  0  0  0  0  0  0
   45.9420   35.8910   42.9550 C   0  0  0  0  0  0  0  0  0  0  0  0
   47.1210   35.0130   42.9420 C   0  0  1  0  0  0  0  0  0  0  0  0
   46.8320   33.6190   43.3000 C   0  0  0  0  0  0  0  0  0  0  0  0
   47.7310   35.0170   41.5870 C   0  0  0  0  0  0  0  0  0  0  0  0
   48.8690   35.7130   41.1850 C   0  0  0  0  0  0  0  0  0  0  0  0
   49.0070   35.3900   39.8990 N   0  0  0  0  0  0  0  0  0  0  0  0
   48.0520   34.5510   39.4610 C   0  0  0  0  0  0  0  0  0  0  0  0
   47.8850   34.0060   38.1880 C   0  0  0  0  0  0  0  0  0  0  0  0
   46.7970   33.1710   38.0710 C   0  0  0  0  0  0  0  0  0  0  0  0
   45.9120   32.8630   39.0910 C   0  0  0  0  0  0  0  0  0  0  0  0
   46.1730   33.4610   40.3140 C   0  0  0  0  0  0  0  0  0  0  0  0
   47.2260   34.3120   40.5610 C   0  0  0  0  0  0  0  0  0  0  0  0
   45.9020   32.1290   46.6400 C   0  0  0  0  0  0  0  0  0  0  0  0
   46.0640   32.2660   45.2610 C   0  0  0  0  0  0  0  0  0  0  0  0
   46.0250   31.0960   44.4390 C   0  0  0  0  0  0  0  0  0  0  0  0
   45.8310   29.9010   45.0660 N   0  0  0  0  0  0  0  0  0  0  0  0
   45.6790   29.8010   46.3980 C   0  0  0  0  0  0  0  0  0  0  0  0
   45.7160   30.9040   47.1620 N   0  0  0  0  0  0  0  0  0  0  0  0
   45.4760   28.4890   47.0100 C   0  0  0  0  0  0  0  0  0  0  0  0
   46.3490   27.8710   47.8820 C   0  0  0  0  0  0  0  0  0  0  0  0
   45.7530   26.7010   48.1800 N   0  0  0  0  0  0  0  0  0  0  0  0
   44.5790   26.5330   47.5660 C   0  0  0  0  0  0  0  0  0  0  0  0
   43.6750   25.4820   47.6110 C   0  0  0  0  0  0  0  0  0  0  0  0
   42.5410   25.6630   46.8270 C   0  0  0  0  0  0  0  0  0  0  0  0
   42.2780   26.7680   46.0500 C   0  0  0  0  0  0  0  0  0  0  0  0
   43.2290   27.7690   46.0620 C   0  0  0  0  0  0  0  0  0  0  0  0
   44.3820   27.6700   46.8100 C   0  0  0  0  0  0  0  0  0  0  0  0
   47.0925   34.0850   45.2768 H   0  0  0  0  0  0  0  0  0  0  0  0
   44.1997   34.1338   45.5008 H   0  0  0  0  0  0  0  0  0  0  0  0
   43.9599   36.1438   43.9291 H   0  0  0  0  0  0  0  0  0  0  0  0
   45.5094   35.8863   41.9436 H   0  0  0  0  0  0  0  0  0  0  0  0
   46.3110   36.8728   43.2865 H   0  0  0  0  0  0  0  0  0  0  0  0
   47.8021   35.4178   43.7050 H   0  0  0  0  0  0  0  0  0  0  0  0
   46.0873   33.2007   42.6068 H   0  0  0  0  0  0  0  0  0  0  0  0
   47.7443   33.0077   43.2369 H   0  0  0  0  0  0  0  0  0  0  0  0
   49.5062   36.3757   41.7890 H   0  0  0  0  0  0  0  0  0  0  0  0
   49.7671   35.7465   39.3023 H   0  0  0  0  0  0  0  0  0  0  0  0
   48.5637   34.2245   37.3504 H   0  0  0  0  0  0  0  0  0  0  0  0
   46.6158   32.7113   37.0882 H   0  0  0  0  0  0  0  0  0  0  0  0
   45.0571   32.1874   38.9402 H   0  0  0  0  0  0  0  0  0  0  0  0
   45.4894   33.2395   41.1469 H   0  0  0  0  0  0  0  0  0  0  0  0
   45.9262   33.0138   47.2932 H   0  0  0  0  0  0  0  0  0  0  0  0
   46.1464   31.1578   43.3475 H   0  0  0  0  0  0  0  0  0  0  0  0
   47.3141   28.2490   48.2505 H   0  0  0  0  0  0  0  0  0  0  0  0
   46.1622   26.0042   48.8186 H   0  0  0  0  0  0  0  0  0  0  0  0
   43.8415   24.5793   48.2172 H   0  0  0  0  0  0  0  0  0  0  0  0
   41.7927   24.8568   46.8279 H   0  0  0  0  0  0  0  0  0  0  0  0
   41.3589   26.8495   45.4511 H   0  0  0  0  0  0  0  0  0  0  0  0
   43.0613   28.6720   45.4567 H   0  0  0  0  0  0  0  0  0  0  0  0
  1  2  1  0
  1 17  1  0
  3  2  2  0
  4  3  1  0
  5  4  1  0
  5  6  1  0
  6  1  1  0
  7  5  1  0
  8  7  2  0
  9  8  1  0
 10  9  1  0
 10 15  2  0
 11 10  1  0
 12 11  2  0
 12 13  1  0
 13 14  2  0
 14 15  1  0
 15  7  1  0
 16 21  2  0
 17 16  1  0
 18 19  1  0
 18 17  2  0
 19 20  2  0
 20 22  1  0
 20 21  1  0
 22 23  2  0
 23 24  1  0
 25 26  2  0
 25 24  1  0
 27 26  1  0
 28 29  1  0
 28 27  2  0
 29 30  2  0
 30 22  1  0
 30 25  1  0
  1 31  1  1
  2 32  1  0
  3 33  1  0
  4 34  1  0
  4 35  1  0
  5 36  1  1
  6 37  1  0
  6 38  1  0
  8 39  1  0
  9 40  1  0
 11 41  1  0
 12 42  1  0
 13 43  1  0
 14 44  1  0
 16 45  1  0
 18 46  1  0
 23 47  1  0
 24 48  1  0
 26 49  1  0
 27 50  1  0
 28 51  1  0
 29 52  1  0
M  END
>  <minimizedAffinity>  (1) 
-7.3176918

>  <minimizedRMSD>  (1) 
1.82153952

$$$$
