
     RDKit          3D

 44 48  0  0  0  0  0  0  0  0999 V2000
   46.5430   31.2560   46.0270 C   0  0  0  0  0  0  0  0  0  0  0  0
   45.8420   31.7220   47.1460 C   0  0  0  0  0  0  0  0  0  0  0  0
   45.0700   30.6570   47.5640 C   0  0  0  0  0  0  0  0  0  0  0  0
   45.3000   29.6170   46.7390 N   0  0  0  0  0  0  0  0  0  0  0  0
   46.1760   29.9570   45.8170 N   0  0  0  0  0  0  0  0  0  0  0  0
   44.6390   28.3610   46.9250 C   0  0  0  0  0  0  0  0  0  0  0  0
   43.6490   27.8080   45.9740 C   0  0  0  0  0  0  0  0  0  0  0  0
   43.2300   26.2000   46.8380 S   0  0  0  0  0  0  0  0  0  0  0  0
   44.4250   26.5830   48.2490 C   0  0  0  0  0  0  0  0  0  0  0  0
   44.8650   27.5820   47.9780 N   0  0  0  0  0  0  0  0  0  0  0  0
   44.6640   25.6860   49.4310 C   0  0  0  0  0  0  0  0  0  0  0  0
   43.8510   25.6010   50.5390 C   0  0  0  0  0  0  0  0  0  0  0  0
   44.4580   24.6870   51.3090 N   0  0  0  0  0  0  0  0  0  0  0  0
   45.5870   24.1860   50.7810 C   0  0  0  0  0  0  0  0  0  0  0  0
   46.4670   23.2440   51.2710 C   0  0  0  0  0  0  0  0  0  0  0  0
   47.5620   22.9190   50.4970 C   0  0  0  0  0  0  0  0  0  0  0  0
   47.7200   23.5470   49.2830 C   0  0  0  0  0  0  0  0  0  0  0  0
   46.8240   24.4840   48.8200 C   0  0  0  0  0  0  0  0  0  0  0  0
   45.7290   24.8230   49.5720 C   0  0  0  0  0  0  0  0  0  0  0  0
   47.7350   31.9060   44.8830 S   0  0  0  0  0  0  0  0  0  0  0  0
   47.2970   34.8810   42.1990 C   0  0  0  0  0  0  0  0  0  0  0  0
   47.8370   33.7800   42.8720 C   0  0  0  0  0  0  0  0  0  0  0  0
   47.1530   33.2770   43.9650 C   0  0  0  0  0  0  0  0  0  0  0  0
   45.9940   33.8780   44.3300 N   0  0  0  0  0  0  0  0  0  0  0  0
   45.5010   34.9420   43.6560 C   0  0  0  0  0  0  0  0  0  0  0  0
   46.1450   35.4260   42.6140 N   0  0  0  0  0  0  0  0  0  0  0  0
   48.1460   35.3070   41.0440 C   0  0  0  0  0  0  0  0  0  0  0  0
   49.2750   36.1740   41.5170 C   0  0  0  0  0  0  0  0  0  0  0  0
   45.8953   32.7242   47.5963 H   0  0  0  0  0  0  0  0  0  0  0  0
   44.3840   30.6573   48.4239 H   0  0  0  0  0  0  0  0  0  0  0  0
   43.2680   28.2230   45.0292 H   0  0  0  0  0  0  0  0  0  0  0  0
   42.9220   26.1532   50.7440 H   0  0  0  0  0  0  0  0  0  0  0  0
   44.0907   24.3943   52.2257 H   0  0  0  0  0  0  0  0  0  0  0  0
   46.3012   22.7668   52.2481 H   0  0  0  0  0  0  0  0  0  0  0  0
   48.2932   22.1736   50.8432 H   0  0  0  0  0  0  0  0  0  0  0  0
   48.5912   23.2919   48.6618 H   0  0  0  0  0  0  0  0  0  0  0  0
   46.9873   24.9625   47.8431 H   0  0  0  0  0  0  0  0  0  0  0  0
   48.7821   33.3251   42.5406 H   0  0  0  0  0  0  0  0  0  0  0  0
   44.5574   35.4055   43.9798 H   0  0  0  0  0  0  0  0  0  0  0  0
   47.5293   35.8725   40.3299 H   0  0  0  0  0  0  0  0  0  0  0  0
   48.5624   34.4124   40.5580 H   0  0  0  0  0  0  0  0  0  0  0  0
   49.2916   36.1867   42.6168 H   0  0  0  0  0  0  0  0  0  0  0  0
   50.2277   35.7732   41.1405 H   0  0  0  0  0  0  0  0  0  0  0  0
   49.1336   37.1979   41.1405 H   0  0  0  0  0  0  0  0  0  0  0  0
  1  2  1  0
  2  3  2  0
  4  6  1  0
  4  3  1  0
  5  1  2  0
  5  4  1  0
  6 10  1  0
  7  8  1  0
  7  6  2  0
  8  9  1  0
  9 11  1  0
 10  9  2  0
 11 19  1  0
 11 12  2  0
 12 13  1  0
 14 15  2  0
 14 13  1  0
 16 15  1  0
 17 16  2  0
 18 17  1  0
 18 19  2  0
 19 14  1  0
 20  1  1  0
 21 26  2  0
 21 22  1  0
 22 23  2  0
 23 24  1  0
 23 20  1  0
 25 24  2  0
 26 25  1  0
 27 28  1  0
 27 21  1  0
  2 29  1  0
  3 30  1  0
  7 31  1  0
 12 32  1  0
 13 33  1  0
 15 34  1  0
 16 35  1  0
 17 36  1  0
 18 37  1  0
 22 38  1  0
 25 39  1  0
 27 40  1  0
 27 41  1  0
 28 42  1  0
 28 43  1  0
 28 44  1  0
M  ISO  8  29  14  30  14  31  14  32  14  33   9  34  14  35  14  36  14
M  ISO  8  37  14  38  14  39  14  40   8  41   8  42   8  43   8  44   8
M  END
>  <minimizedAffinity>  (1) 
-6.11606741

>  <minimizedRMSD>  (1) 
0.98426789

$$$$
