
     RDKit          3D

 53 58  0  0  0  0  0  0  0  0999 V2000
   48.1310   30.8090   48.5130 C   0  0  0  0  0  0  0  0  0  0  0  0
   48.8780   31.2650   49.5550 C   0  0  0  0  0  0  0  0  0  0  0  0
   49.8790   30.5010   50.0920 C   0  0  0  0  0  0  0  0  0  0  0  0
   50.1270   29.2420   49.5590 C   0  0  0  0  0  0  0  0  0  0  0  0
   49.3800   28.7890   48.5200 C   0  0  0  0  0  0  0  0  0  0  0  0
   48.3760   29.5600   47.9830 C   0  0  0  0  0  0  0  0  0  0  0  0
   44.5390   35.6580   44.6860 C   0  0  0  0  0  0  0  0  0  0  0  0
   45.2750   35.5470   43.5060 C   0  0  0  0  0  0  0  0  0  0  0  0
   46.2590   34.5670   43.4180 C   0  0  0  0  0  0  0  0  0  0  0  0
   46.4670   33.7550   44.4820 N   0  0  0  0  0  0  0  0  0  0  0  0
   45.7280   33.8900   45.6250 C   0  0  0  0  0  0  0  0  0  0  0  0
   44.7610   34.8360   45.7420 N   0  0  0  0  0  0  0  0  0  0  0  0
   45.9400   33.0430   46.7450 N   0  0  0  0  0  0  0  0  0  0  0  0
   47.1310   32.4110   46.8290 C   0  0  0  0  0  0  0  0  0  0  0  0
   47.0820   31.6660   47.9860 C   0  0  0  0  0  0  0  0  0  0  0  0
   45.8800   31.8580   48.5760 N   0  0  0  0  0  0  0  0  0  0  0  0
   45.1850   32.6900   47.8290 C   0  0  0  0  0  0  0  0  0  0  0  0
   47.5950   29.0780   46.8920 N   0  0  0  0  0  0  0  0  0  0  0  0
   49.6320   27.4690   47.9460 C   0  0  0  0  0  0  0  0  0  0  0  0
   50.0490   27.3140   46.7550 O   0  0  0  0  0  0  0  0  0  0  0  0
   49.3970   26.2520   48.7730 C   0  0  0  0  0  0  0  0  0  0  0  0
   48.2820   25.4050   48.4810 C   0  0  0  0  0  0  0  0  0  0  0  0
   48.4880   24.0920   49.7260 S   0  0  0  0  0  0  0  0  0  0  0  0
   50.0440   24.8920   50.4490 C   0  0  0  0  0  0  0  0  0  0  0  0
   50.1400   25.8420   49.7620 N   0  0  0  0  0  0  0  0  0  0  0  0
   50.7780   24.3610   51.5420 N   0  0  0  0  0  0  0  0  0  0  0  0
   47.2210   25.4280   47.5300 C   0  0  0  0  0  0  0  0  0  0  0  0
   47.1920   25.2940   46.1830 C   0  0  0  0  0  0  0  0  0  0  0  0
   45.9650   25.3490   45.6350 N   0  0  0  0  0  0  0  0  0  0  0  0
   45.1570   25.5320   46.6950 C   0  0  0  0  0  0  0  0  0  0  0  0
   43.7760   25.6540   46.6660 C   0  0  0  0  0  0  0  0  0  0  0  0
   43.0910   25.8370   47.8470 C   0  0  0  0  0  0  0  0  0  0  0  0
   43.7720   25.8970   49.0450 C   0  0  0  0  0  0  0  0  0  0  0  0
   45.1370   25.7680   48.9890 C   0  0  0  0  0  0  0  0  0  0  0  0
   45.8960   25.5830   47.8590 C   0  0  0  0  0  0  0  0  0  0  0  0
   48.6745   32.2623   49.9720 H   0  0  0  0  0  0  0  0  0  0  0  0
   50.4785   30.8784   50.9335 H   0  0  0  0  0  0  0  0  0  0  0  0
   50.9269   28.6138   49.9780 H   0  0  0  0  0  0  0  0  0  0  0  0
   43.7598   36.4308   44.7619 H   0  0  0  0  0  0  0  0  0  0  0  0
   45.0808   36.2225   42.6598 H   0  0  0  0  0  0  0  0  0  0  0  0
   46.8567   34.4539   42.5015 H   0  0  0  0  0  0  0  0  0  0  0  0
   47.9683   32.4778   46.1187 H   0  0  0  0  0  0  0  0  0  0  0  0
   44.1651   33.0430   48.0418 H   0  0  0  0  0  0  0  0  0  0  0  0
   47.7807   28.1444   46.4985 H   0  0  0  0  0  0  0  0  0  0  0  0
   46.8450   29.6633   46.4973 H   0  0  0  0  0  0  0  0  0  0  0  0
   51.6174   24.8498   51.8847 H   0  0  0  0  0  0  0  0  0  0  0  0
   50.4712   23.4870   51.9923 H   0  0  0  0  0  0  0  0  0  0  0  0
   48.1026   25.1510   45.5826 H   0  0  0  0  0  0  0  0  0  0  0  0
   45.7059   25.2699   44.6413 H   0  0  0  0  0  0  0  0  0  0  0  0
   43.2335   25.6052   45.7104 H   0  0  0  0  0  0  0  0  0  0  0  0
   41.9955   25.9358   47.8346 H   0  0  0  0  0  0  0  0  0  0  0  0
   43.2458   26.0414   50.0001 H   0  0  0  0  0  0  0  0  0  0  0  0
   45.6781   25.8177   49.9454 H   0  0  0  0  0  0  0  0  0  0  0  0
  1  2  2  0
  2  3  1  0
  4  3  2  0
  5  4  1  0
  6  1  1  0
  6  5  2  0
  7 12  2  0
  8  7  1  0
  9  8  2  0
  9 10  1  0
 10 11  2  0
 11 12  1  0
 11 13  1  0
 13 14  1  0
 13 17  1  0
 14 15  2  0
 15  1  1  0
 15 16  1  0
 17 16  2  0
 18  6  1  0
 19  5  1  0
 19 21  1  0
 20 19  2  0
 21 25  1  0
 22 21  2  0
 22 23  1  0
 23 24  1  0
 24 26  1  0
 25 24  2  0
 27 35  1  0
 27 22  1  0
 28 27  2  0
 29 28  1  0
 29 30  1  0
 30 35  2  0
 31 30  1  0
 31 32  2  0
 32 33  1  0
 34 33  2  0
 35 34  1  0
  2 36  1  0
  3 37  1  0
  4 38  1  0
  7 39  1  0
  8 40  1  0
  9 41  1  0
 14 42  1  0
 17 43  1  0
 18 44  1  0
 18 45  1  0
 26 46  1  0
 26 47  1  0
 28 48  1  0
 29 49  1  0
 31 50  1  0
 32 51  1  0
 33 52  1  0
 34 53  1  0
M  END
>  <minimizedAffinity>  (1) 
-7.34570408

>  <minimizedRMSD>  (1) 
4.36488962

$$$$
