
     RDKit          3D

 38 41  0  0  1  0  0  0  0  0999 V2000
   46.3380   33.4430   45.3940 C   0  0  2  0  0  0  0  0  0  0  0  0
   45.1720   34.3850   45.1960 C   0  0  0  0  0  0  0  0  0  0  0  0
   45.1530   35.1660   43.9760 C   0  0  0  0  0  0  0  0  0  0  0  0
   46.2270   35.0340   42.9870 C   0  0  1  0  0  0  0  0  0  0  0  0
   47.3830   34.1760   43.3700 C   0  0  0  0  0  0  0  0  0  0  0  0
   46.8640   32.9500   44.0800 C   0  0  0  0  0  0  0  0  0  0  0  0
   45.6350   34.5900   41.6990 C   0  0  0  0  0  0  0  0  0  0  0  0
   46.2060   33.9250   40.6140 C   0  0  0  0  0  0  0  0  0  0  0  0
   45.2790   33.7270   39.6560 N   0  0  0  0  0  0  0  0  0  0  0  0
   44.0780   34.2410   40.0520 C   0  0  0  0  0  0  0  0  0  0  0  0
   42.8080   34.3350   39.5140 C   0  0  0  0  0  0  0  0  0  0  0  0
   41.7670   34.9360   40.1870 C   0  0  0  0  0  0  0  0  0  0  0  0
   42.0210   35.4550   41.4400 C   0  0  0  0  0  0  0  0  0  0  0  0
   43.2830   35.3800   42.0130 C   0  0  0  0  0  0  0  0  0  0  0  0
   44.3130   34.7700   41.3130 C   0  0  0  0  0  0  0  0  0  0  0  0
   45.4060   32.7100   47.5720 C   0  0  0  0  0  0  0  0  0  0  0  0
   45.9470   32.3840   46.3290 C   0  0  0  0  0  0  0  0  0  0  0  0
   46.1000   31.0090   46.0440 C   0  0  0  0  0  0  0  0  0  0  0  0
   45.7240   30.0900   46.9660 N   0  0  0  0  0  0  0  0  0  0  0  0
   45.2010   30.4540   48.1640 C   0  0  0  0  0  0  0  0  0  0  0  0
   45.0470   31.7660   48.4560 N   0  0  0  0  0  0  0  0  0  0  0  0
   47.1870   33.9724   45.8510 H   0  0  0  0  0  0  0  0  0  0  0  0
   44.3724   34.4735   45.9462 H   0  0  0  0  0  0  0  0  0  0  0  0
   44.3244   35.8651   43.7899 H   0  0  0  0  0  0  0  0  0  0  0  0
   46.6792   36.0333   42.9047 H   0  0  0  0  0  0  0  0  0  0  0  0
   47.9349   33.8747   42.4674 H   0  0  0  0  0  0  0  0  0  0  0  0
   48.0592   34.7344   44.0340 H   0  0  0  0  0  0  0  0  0  0  0  0
   46.0597   32.4788   43.4960 H   0  0  0  0  0  0  0  0  0  0  0  0
   47.6493   32.1913   44.2127 H   0  0  0  0  0  0  0  0  0  0  0  0
   47.2576   33.6089   40.5497 H   0  0  0  0  0  0  0  0  0  0  0  0
   45.4516   33.2564   38.7562 H   0  0  0  0  0  0  0  0  0  0  0  0
   42.6223   33.9155   38.5142 H   0  0  0  0  0  0  0  0  0  0  0  0
   40.7643   35.0002   39.7393 H   0  0  0  0  0  0  0  0  0  0  0  0
   41.2053   35.9389   41.9972 H   0  0  0  0  0  0  0  0  0  0  0  0
   43.4644   35.8005   43.0131 H   0  0  0  0  0  0  0  0  0  0  0  0
   45.2697   33.7693   47.8352 H   0  0  0  0  0  0  0  0  0  0  0  0
   46.5214   30.6866   45.0804 H   0  0  0  0  0  0  0  0  0  0  0  0
   44.9038   29.6865   48.8938 H   0  0  0  0  0  0  0  0  0  0  0  0
  1 17  1  0
  2  1  1  0
  3  2  2  0
  4  5  1  0
  4  3  1  0
  5  6  1  0
  6  1  1  0
  7  4  1  0
  8  7  2  0
  9 10  1  0
  9  8  1  0
 10 15  2  0
 11 10  1  0
 11 12  2  0
 12 13  1  0
 13 14  2  0
 15  7  1  0
 15 14  1  0
 16 21  2  0
 17 16  1  0
 18 17  2  0
 18 19  1  0
 19 20  2  0
 20 21  1  0
  1 22  1  1
  2 23  1  0
  3 24  1  0
  4 25  1  6
  5 26  1  0
  5 27  1  0
  6 28  1  0
  6 29  1  0
  8 30  1  0
  9 31  1  0
 11 32  1  0
 12 33  1  0
 13 34  1  0
 14 35  1  0
 16 36  1  0
 18 37  1  0
 20 38  1  0
M  ISO  8  22  13  23  13  24  13  25  13  26  13  27  13  28  13  29  13
M  ISO  8  30  14  31   9  32  14  33  14  34  14  35  14  36  14  37  14
M  ISO  1  38  14
M  END
>  <minimizedAffinity>  (1) 
-6.45905209

>  <minimizedRMSD>  (1) 
1.50525105

$$$$
