
     RDKit          3D

 58 61  0  0  1  0  0  0  0  0999 V2000
   47.6080   30.0000   45.1050 C   0  0  0  0  0  0  0  0  0  0  0  0
   48.5120   28.9910   45.4250 N   0  0  0  0  0  0  0  0  0  0  0  0
   48.2540   27.6430   45.0820 C   0  0  0  0  0  0  0  0  0  0  0  0
   48.0380   26.7800   46.3180 C   0  0  0  0  0  0  0  0  0  0  0  0
   49.0380   26.9820   47.4010 C   0  0  0  0  0  0  0  0  0  0  0  0
   50.0610   28.0570   47.0980 C   0  0  0  0  0  0  0  0  0  0  0  0
   49.2870   29.2410   46.5680 C   0  0  2  0  0  0  0  0  0  0  0  0
   48.6540   30.0170   47.6530 C   0  0  0  0  0  0  0  0  0  0  0  0
   49.3070   30.7880   48.6210 C   0  0  0  0  0  0  0  0  0  0  0  0
   48.3880   31.3470   49.4440 N   0  0  0  0  0  0  0  0  0  0  0  0
   47.1590   30.9940   49.0800 C   0  0  0  0  0  0  0  0  0  0  0  0
   45.8640   31.2280   49.5030 C   0  0  0  0  0  0  0  0  0  0  0  0
   44.7380   30.7020   48.9010 C   0  0  0  0  0  0  0  0  0  0  0  0
   44.9760   29.8950   47.8080 C   0  0  0  0  0  0  0  0  0  0  0  0
   46.2350   29.6080   47.3180 C   0  0  0  0  0  0  0  0  0  0  0  0
   47.3050   30.1750   47.9790 C   0  0  0  0  0  0  0  0  0  0  0  0
   47.7000   30.6550   43.7590 C   0  0  0  0  0  0  0  0  0  0  0  0
   46.3510   34.0990   43.6680 C   0  0  0  0  0  0  0  0  0  0  0  0
   45.0230   33.9630   43.2710 C   0  0  0  0  0  0  0  0  0  0  0  0
   44.6250   32.6280   43.0400 C   0  0  0  0  0  0  0  0  0  0  0  0
   45.4970   31.6190   43.2050 N   0  0  0  0  0  0  0  0  0  0  0  0
   46.7770   31.8100   43.5920 C   0  0  0  0  0  0  0  0  0  0  0  0
   47.1770   33.0700   43.8160 N   0  0  0  0  0  0  0  0  0  0  0  0
   44.1220   35.0570   43.1060 N   0  0  0  0  0  0  0  0  0  0  0  0
   43.3990   35.3090   41.8850 C   0  0  0  0  0  0  0  0  0  0  0  0
   44.0360   35.0790   40.7820 N   0  0  0  0  0  0  0  0  0  0  0  0
   42.0510   35.7860   42.1130 N   0  0  0  0  0  0  0  0  0  0  0  0
   43.5740   35.2080   39.8610 H   0  0  0  0  0  0  0  0  0  0  0  0
   47.2850   29.5790   42.7270 C   0  0  0  0  0  0  0  0  0  0  0  0
   49.0650   31.1390   43.3600 C   0  0  0  0  0  0  0  0  0  0  0  0
   46.5997   29.5676   45.1854 H   0  0  0  0  0  0  0  0  0  0  0  0
   47.8522   30.8081   45.8102 H   0  0  0  0  0  0  0  0  0  0  0  0
   47.3509   27.6009   44.4553 H   0  0  0  0  0  0  0  0  0  0  0  0
   49.1280   27.2533   44.5395 H   0  0  0  0  0  0  0  0  0  0  0  0
   47.0418   27.0079   46.7249 H   0  0  0  0  0  0  0  0  0  0  0  0
   48.1433   25.7355   45.9894 H   0  0  0  0  0  0  0  0  0  0  0  0
   48.5020   27.2629   48.3196 H   0  0  0  0  0  0  0  0  0  0  0  0
   49.5899   26.0364   47.5069 H   0  0  0  0  0  0  0  0  0  0  0  0
   50.6035   28.3355   48.0135 H   0  0  0  0  0  0  0  0  0  0  0  0
   50.8053   27.7064   46.3678 H   0  0  0  0  0  0  0  0  0  0  0  0
   50.0282   29.9313   46.1389 H   0  0  0  0  0  0  0  0  0  0  0  0
   50.3962   30.9195   48.7010 H   0  0  0  0  0  0  0  0  0  0  0  0
   48.6103   31.9603   50.2411 H   0  0  0  0  0  0  0  0  0  0  0  0
   45.7206   31.8776   50.3790 H   0  0  0  0  0  0  0  0  0  0  0  0
   43.7223   30.9119   49.2675 H   0  0  0  0  0  0  0  0  0  0  0  0
   44.1094   29.4526   47.2948 H   0  0  0  0  0  0  0  0  0  0  0  0
   46.3778   28.9581   46.4421 H   0  0  0  0  0  0  0  0  0  0  0  0
   46.7350   35.1100   43.8691 H   0  0  0  0  0  0  0  0  0  0  0  0
   43.5940   32.4125   42.7228 H   0  0  0  0  0  0  0  0  0  0  0  0
   43.9813   35.6988   43.8992 H   0  0  0  0  0  0  0  0  0  0  0  0
   41.4383   36.0002   41.3132 H   0  0  0  0  0  0  0  0  0  0  0  0
   41.7048   35.9111   43.0750 H   0  0  0  0  0  0  0  0  0  0  0  0
   46.9378   28.6788   43.2553 H   0  0  0  0  0  0  0  0  0  0  0  0
   46.4731   29.9699   42.0961 H   0  0  0  0  0  0  0  0  0  0  0  0
   48.1491   29.3235   42.0961 H   0  0  0  0  0  0  0  0  0  0  0  0
   49.6578   31.3492   44.2625 H   0  0  0  0  0  0  0  0  0  0  0  0
   49.5685   30.3646   42.7627 H   0  0  0  0  0  0  0  0  0  0  0  0
   48.9682   32.0576   42.7627 H   0  0  0  0  0  0  0  0  0  0  0  0
  1  2  1  0
  2  7  1  0
  3  2  1  0
  3  4  1  0
  4  5  1  0
  6  5  1  0
  7  6  1  0
  7  8  1  0
  8 16  1  0
  8  9  2  0
  9 10  1  0
 11 10  1  0
 11 12  2  0
 13 12  1  0
 14 13  2  0
 15 14  1  0
 15 16  2  0
 16 11  1  0
 17  1  1  0
 18 23  2  0
 19 18  1  0
 20 21  1  0
 20 19  2  0
 21 22  2  0
 22 17  1  0
 22 23  1  0
 24 19  1  0
 25 27  1  0
 25 24  1  0
 26 25  2  0
 28 26  1  0
 29 17  1  0
 30 17  1  0
  1 31  1  0
  1 32  1  0
  3 33  1  0
  3 34  1  0
  4 35  1  0
  4 36  1  0
  5 37  1  0
  5 38  1  0
  6 39  1  0
  6 40  1  0
  7 41  1  6
  9 42  1  0
 10 43  1  0
 12 44  1  0
 13 45  1  0
 14 46  1  0
 15 47  1  0
 18 48  1  0
 20 49  1  0
 24 50  1  0
 27 51  1  0
 27 52  1  0
 29 53  1  0
 29 54  1  0
 29 55  1  0
 30 56  1  0
 30 57  1  0
 30 58  1  0
M  ISO  8  31   8  32   8  33  13  34  13  35  13  36  13  37  13  38  13
M  ISO  8  39  13  40  13  41  13  42  14  43   9  44  14  45  14  46  14
M  ISO  8  47  14  48  14  49  14  53   8  54   8  55   8  56   8  57   8
M  ISO  1  58   8
M  END
>  <minimizedAffinity>  (1) 
-5.59219313

>  <minimizedRMSD>  (1) 
3.5895195

$$$$
