
     RDKit          3D

 49 53  0  0  0  0  0  0  0  0999 V2000
   47.5610   33.9770   42.3550 C   0  0  0  0  0  0  0  0  0  0  0  0
   48.3040   35.1120   41.6800 C   0  0  0  0  0  0  0  0  0  0  0  0
   49.6530   35.3660   42.2000 C   0  0  0  0  0  0  0  0  0  0  0  0
   50.4780   34.1430   42.4650 C   0  0  0  0  0  0  0  0  0  0  0  0
   49.7010   32.8490   42.3470 C   0  0  0  0  0  0  0  0  0  0  0  0
   48.4060   33.0300   43.1130 C   0  0  0  0  0  0  0  0  0  0  0  0
   45.2760   34.3770   45.2390 C   0  0  0  0  0  0  0  0  0  0  0  0
   44.5290   35.5220   44.9000 C   0  0  0  0  0  0  0  0  0  0  0  0
   44.8190   36.1510   43.6840 C   0  0  0  0  0  0  0  0  0  0  0  0
   45.8010   35.6250   42.9010 N   0  0  0  0  0  0  0  0  0  0  0  0
   46.5020   34.5170   43.2600 C   0  0  0  0  0  0  0  0  0  0  0  0
   46.2260   33.8980   44.4440 N   0  0  0  0  0  0  0  0  0  0  0  0
   46.8860   33.1690   41.2590 C   0  0  0  0  0  0  0  0  0  0  0  0
   46.0660   32.0720   41.1420 C   0  0  0  0  0  0  0  0  0  0  0  0
   45.6880   31.7110   39.9000 C   0  0  0  0  0  0  0  0  0  0  0  0
   46.0730   32.3720   38.8040 C   0  0  0  0  0  0  0  0  0  0  0  0
   47.1180   33.6910   39.5350 S   0  0  0  0  0  0  0  0  0  0  0  0
   45.7160   32.0510   37.5130 C   0  0  0  0  0  0  0  0  0  0  0  0
   44.4670   31.5790   37.2360 C   0  0  0  0  0  0  0  0  0  0  0  0
   44.0320   31.2390   35.9840 C   0  0  0  0  0  0  0  0  0  0  0  0
   44.8280   31.3440   34.8840 C   0  0  0  0  0  0  0  0  0  0  0  0
   46.1000   31.8180   35.1180 C   0  0  0  0  0  0  0  0  0  0  0  0
   46.9330   31.9380   34.0290 C   0  0  0  0  0  0  0  0  0  0  0  0
   48.2270   32.4010   34.1460 C   0  0  0  0  0  0  0  0  0  0  0  0
   48.6650   32.7450   35.4140 C   0  0  0  0  0  0  0  0  0  0  0  0
   47.7890   32.6040   36.4630 C   0  0  0  0  0  0  0  0  0  0  0  0
   46.4990   32.1500   36.3940 C   0  0  0  0  0  0  0  0  0  0  0  0
   47.7114   36.0302   41.8055 H   0  0  0  0  0  0  0  0  0  0  0  0
   48.4307   34.8144   40.6286 H   0  0  0  0  0  0  0  0  0  0  0  0
   50.1892   35.9852   41.4658 H   0  0  0  0  0  0  0  0  0  0  0  0
   49.5158   35.8575   43.1745 H   0  0  0  0  0  0  0  0  0  0  0  0
   51.3058   34.1186   41.7410 H   0  0  0  0  0  0  0  0  0  0  0  0
   50.8321   34.2124   43.5041 H   0  0  0  0  0  0  0  0  0  0  0  0
   49.4862   32.6339   41.2898 H   0  0  0  0  0  0  0  0  0  0  0  0
   50.2807   32.0079   42.7550 H   0  0  0  0  0  0  0  0  0  0  0  0
   48.6167   33.4350   44.1138 H   0  0  0  0  0  0  0  0  0  0  0  0
   47.8912   32.0651   43.2306 H   0  0  0  0  0  0  0  0  0  0  0  0
   45.0665   33.8647   46.1896 H   0  0  0  0  0  0  0  0  0  0  0  0
   43.7450   35.9083   45.5678 H   0  0  0  0  0  0  0  0  0  0  0  0
   44.2670   37.0486   43.3684 H   0  0  0  0  0  0  0  0  0  0  0  0
   45.7316   31.5111   42.0272 H   0  0  0  0  0  0  0  0  0  0  0  0
   45.0341   30.8342   39.7831 H   0  0  0  0  0  0  0  0  0  0  0  0
   43.7633   31.4641   38.0736 H   0  0  0  0  0  0  0  0  0  0  0  0
   43.0037   30.8680   35.8618 H   0  0  0  0  0  0  0  0  0  0  0  0
   44.4791   31.0691   33.8777 H   0  0  0  0  0  0  0  0  0  0  0  0
   46.5553   31.6561   33.0351 H   0  0  0  0  0  0  0  0  0  0  0  0
   48.8839   32.4932   33.2685 H   0  0  0  0  0  0  0  0  0  0  0  0
   49.6860   33.1207   35.5768 H   0  0  0  0  0  0  0  0  0  0  0  0
   48.1617   32.8842   37.4593 H   0  0  0  0  0  0  0  0  0  0  0  0
  1  6  1  0
  1 11  1  0
  2  3  1  0
  2  1  1  0
  3  4  1  0
  5  4  1  0
  5  6  1  0
  8  7  2  0
  9  8  1  0
 10 11  1  0
 10  9  2  0
 11 12  2  0
 12  7  1  0
 13  1  1  0
 14 13  2  0
 15 14  1  0
 16 17  1  0
 16 15  2  0
 17 13  1  0
 18 16  1  0
 19 18  2  0
 20 19  1  0
 21 22  1  0
 21 20  2  0
 22 27  2  0
 23 24  2  0
 23 22  1  0
 24 25  1  0
 25 26  2  0
 27 26  1  0
 27 18  1  0
  2 28  1  0
  2 29  1  0
  3 30  1  0
  3 31  1  0
  4 32  1  0
  4 33  1  0
  5 34  1  0
  5 35  1  0
  6 36  1  0
  6 37  1  0
  7 38  1  0
  8 39  1  0
  9 40  1  0
 14 41  1  0
 15 42  1  0
 19 43  1  0
 20 44  1  0
 21 45  1  0
 23 46  1  0
 24 47  1  0
 25 48  1  0
 26 49  1  0
M  ISO  8  28  13  29  13  30  13  31  13  32  13  33  13  34  13  35  13
M  ISO  8  36  13  37  13  38  14  39  14  40  14  41  14  42  14  43  14
M  ISO  6  44  14  45  14  46  14  47  14  48  14  49  14
M  END
>  <minimizedAffinity>  (1) 
-6.54489374

>  <minimizedRMSD>  (1) 
0.882071912

$$$$
