
     RDKit          3D

 47 52  0  0  0  0  0  0  0  0999 V2000
   46.3060   32.7970   46.7490 C   0  0  0  0  0  0  0  0  0  0  0  0
   45.4810   32.7060   47.8540 C   0  0  0  0  0  0  0  0  0  0  0  0
   46.1770   31.8970   48.7370 C   0  0  0  0  0  0  0  0  0  0  0  0
   47.3870   31.5340   48.1410 C   0  0  0  0  0  0  0  0  0  0  0  0
   47.3760   32.1040   46.9840 O   0  0  0  0  0  0  0  0  0  0  0  0
   46.6770   34.0970   43.4480 C   0  0  0  0  0  0  0  0  0  0  0  0
   45.5420   34.7650   43.8970 C   0  0  0  0  0  0  0  0  0  0  0  0
   45.2790   34.3430   45.1970 C   0  0  0  0  0  0  0  0  0  0  0  0
   46.2490   33.4430   45.4940 N   0  0  0  0  0  0  0  0  0  0  0  0
   47.0770   33.2870   44.4780 N   0  0  0  0  0  0  0  0  0  0  0  0
   48.6980   35.4450   40.6970 C   0  0  0  0  0  0  0  0  0  0  0  0
   48.1860   34.7510   39.5960 C   0  0  0  0  0  0  0  0  0  0  0  0
   47.1470   33.8240   39.8170 C   0  0  0  0  0  0  0  0  0  0  0  0
   46.6780   33.6350   41.0910 N   0  0  0  0  0  0  0  0  0  0  0  0
   47.2070   34.3300   42.1120 C   0  0  0  0  0  0  0  0  0  0  0  0
   48.1980   35.2220   41.9400 N   0  0  0  0  0  0  0  0  0  0  0  0
   48.3640   30.7010   48.7650 N   0  0  0  0  0  0  0  0  0  0  0  0
   49.0500   30.8540   49.9520 C   0  0  0  0  0  0  0  0  0  0  0  0
   49.8160   29.7460   50.1180 C   0  0  0  0  0  0  0  0  0  0  0  0
   49.5930   28.9580   49.0630 N   0  0  0  0  0  0  0  0  0  0  0  0
   48.6930   29.5300   48.2030 C   0  0  0  0  0  0  0  0  0  0  0  0
   48.2400   28.9080   46.9640 C   0  0  0  0  0  0  0  0  0  0  0  0
   49.0310   28.9170   45.8110 C   0  0  0  0  0  0  0  0  0  0  0  0
   48.6580   28.3910   44.5940 C   0  0  0  0  0  0  0  0  0  0  0  0
   47.4310   27.8070   44.4610 C   0  0  0  0  0  0  0  0  0  0  0  0
   46.6020   27.7640   45.5590 C   0  0  0  0  0  0  0  0  0  0  0  0
   45.3620   27.1820   45.4110 C   0  0  0  0  0  0  0  0  0  0  0  0
   44.4740   27.1130   46.4640 C   0  0  0  0  0  0  0  0  0  0  0  0
   44.8790   27.6570   47.6880 C   0  0  0  0  0  0  0  0  0  0  0  0
   46.1300   28.2260   47.7720 C   0  0  0  0  0  0  0  0  0  0  0  0
   47.0370   28.3100   46.7440 C   0  0  0  0  0  0  0  0  0  0  0  0
   44.4947   33.1709   47.9994 H   0  0  0  0  0  0  0  0  0  0  0  0
   45.8351   31.5923   49.7371 H   0  0  0  0  0  0  0  0  0  0  0  0
   44.9551   35.4984   43.3246 H   0  0  0  0  0  0  0  0  0  0  0  0
   44.4555   34.6713   45.8482 H   0  0  0  0  0  0  0  0  0  0  0  0
   49.5091   36.1745   40.5557 H   0  0  0  0  0  0  0  0  0  0  0  0
   48.5832   34.9238   38.5849 H   0  0  0  0  0  0  0  0  0  0  0  0
   46.7176   33.2589   38.9766 H   0  0  0  0  0  0  0  0  0  0  0  0
   48.9878   31.7132   50.6360 H   0  0  0  0  0  0  0  0  0  0  0  0
   50.4915   29.5369   50.9606 H   0  0  0  0  0  0  0  0  0  0  0  0
   50.0267   29.3792   45.8813 H   0  0  0  0  0  0  0  0  0  0  0  0
   49.3437   28.4410   43.7353 H   0  0  0  0  0  0  0  0  0  0  0  0
   47.1123   27.3806   43.4984 H   0  0  0  0  0  0  0  0  0  0  0  0
   45.0748   26.7645   44.4347 H   0  0  0  0  0  0  0  0  0  0  0  0
   43.4843   26.6477   46.3461 H   0  0  0  0  0  0  0  0  0  0  0  0
   44.2131   27.6307   48.5631 H   0  0  0  0  0  0  0  0  0  0  0  0
   46.4278   28.6484   48.7430 H   0  0  0  0  0  0  0  0  0  0  0  0
  1  5  1  0
  1  2  2  0
  2  3  1  0
  4  3  2  0
  4 17  1  0
  5  4  1  0
  6  7  1  0
  6 10  2  0
  7  8  2  0
  8  9  1  0
  9  1  1  0
 10  9  1  0
 11 16  2  0
 12 13  2  0
 12 11  1  0
 13 14  1  0
 14 15  2  0
 15  6  1  0
 16 15  1  0
 17 18  1  0
 18 19  2  0
 20 19  1  0
 21 17  1  0
 21 20  2  0
 22 21  1  0
 23 22  2  0
 24 23  1  0
 25 24  2  0
 25 26  1  0
 26 31  2  0
 27 26  1  0
 27 28  2  0
 28 29  1  0
 29 30  2  0
 31 22  1  0
 31 30  1  0
  2 32  1  0
  3 33  1  0
  7 34  1  0
  8 35  1  0
 11 36  1  0
 12 37  1  0
 13 38  1  0
 18 39  1  0
 19 40  1  0
 23 41  1  0
 24 42  1  0
 25 43  1  0
 27 44  1  0
 28 45  1  0
 29 46  1  0
 30 47  1  0
M  ISO  8  32  14  33  14  34  14  35  14  36  14  37  14  38  14  39  14
M  ISO  8  40  14  41  14  42  14  43  14  44  14  45  14  46  14  47  14
M  END
>  <minimizedAffinity>  (1) 
-6.3415184

>  <minimizedRMSD>  (1) 
2.33739901

$$$$
