
     RDKit          3D

 45 48  0  0  0  0  0  0  0  0999 V2000
   46.0615   33.6368   45.3192 C   0  0  2  0  0  0  0  0  0  0  0  0
   44.9097   34.6755   45.4704 C   0  0  0  0  0  0  0  0  0  0  0  0
   44.7001   35.5793   44.3758 C   0  0  0  0  0  0  0  0  0  0  0  0
   45.5116   35.5282   43.1845 C   0  0  1  0  0  0  0  0  0  0  0  0
   46.6602   34.6027   43.2178 C   0  0  0  0  0  0  0  0  0  0  0  0
   46.2775   33.3329   43.9407 C   0  0  0  0  0  0  0  0  0  0  0  0
   45.3158   32.9095   47.5168 C   0  0  0  0  0  0  0  0  0  0  0  0
   45.8386   32.6113   46.3002 C   0  0  0  0  0  0  0  0  0  0  0  0
   46.1680   31.2731   46.0519 C   0  0  0  0  0  0  0  0  0  0  0  0
   45.9775   30.3466   46.9873 N   0  0  0  0  0  0  0  0  0  0  0  0
   45.4510   30.6728   48.2147 C   0  0  0  0  0  0  0  0  0  0  0  0
   45.1218   31.9426   48.4710 N   0  0  0  0  0  0  0  0  0  0  0  0
   45.3056   29.6671   49.2218 N   0  0  0  0  0  0  0  0  0  0  0  0
   44.5893   35.1838   41.9852 C   0  0  0  0  0  0  0  0  0  0  0  0
   43.6109   34.2941   42.3127 F   0  0  0  0  0  0  0  0  0  0  0  0
   43.9411   36.3812   41.6533 F   0  0  0  0  0  0  0  0  0  0  0  0
   45.3570   34.8145   40.8946 F   0  0  0  0  0  0  0  0  0  0  0  0
   46.8670   34.3190   45.7621 H   0  0  0  0  0  0  0  0  0  0  0  0
   44.2043   34.8607   46.2701 H   0  0  0  0  0  0  0  0  0  0  0  0
   43.9018   36.3078   44.4642 H   0  0  0  0  0  0  0  0  0  0  0  0
   45.8946   36.5504   42.9702 H   0  0  0  0  0  0  0  0  0  0  0  0
   46.9667   34.3703   42.1541 H   0  0  0  0  0  0  0  0  0  0  0  0
   47.5704   35.0073   43.7275 H   0  0  0  0  0  0  0  0  0  0  0  0
   45.3894   32.9344   43.4320 H   0  0  0  0  0  0  0  0  0  0  0  0
   47.1523   32.7297   43.6566 H   0  0  0  0  0  0  0  0  0  0  0  0
   45.0172   33.8771   47.8354 H   0  0  0  0  0  0  0  0  0  0  0  0
   46.0537   29.5199   49.9258 H   0  0  0  0  0  0  0  0  0  0  0  0
   44.4454   29.0769   49.2485 H   0  0  0  0  0  0  0  0  0  0  0  0
   46.7259   30.5940   44.8996 C   0  0  0  0  0  0  0  0  0  0  0  0
   47.0389   29.2294   44.6913 C   0  0  0  0  0  0  0  0  0  0  0  0
   47.6458   28.8227   43.5158 C   0  0  0  0  0  0  0  0  0  0  0  0
   47.9512   29.7305   42.5373 C   0  0  0  0  0  0  0  0  0  0  0  0
   47.6824   31.0560   42.6653 C   0  0  0  0  0  0  0  0  0  0  0  0
   47.9909   31.9540   41.6650 C   0  0  0  0  0  0  0  0  0  0  0  0
   47.6996   33.2903   41.8142 C   0  0  0  0  0  0  0  0  0  0  0  0
   47.0980   33.7580   42.9582 C   0  0  0  0  0  0  0  0  0  0  0  0
   46.8105   32.8238   43.9257 C   0  0  0  0  0  0  0  0  0  0  0  0
   47.0690   31.4680   43.8554 C   0  0  0  0  0  0  0  0  0  0  0  0
   46.7383   28.6588   45.5578 H   0  0  0  0  0  0  0  0  0  0  0  0
   47.8252   27.7358   43.5027 H   0  0  0  0  0  0  0  0  0  0  0  0
   48.4206   29.3274   41.6619 H   0  0  0  0  0  0  0  0  0  0  0  0
   48.4643   31.6283   40.7562 H   0  0  0  0  0  0  0  0  0  0  0  0
   47.9259   34.0396   41.0490 H   0  0  0  0  0  0  0  0  0  0  0  0
   46.8545   34.8110   43.0980 H   0  0  0  0  0  0  0  0  0  0  0  0
   46.3383   33.2251   44.8050 H   0  0  0  0  0  0  0  0  0  0  0  0
  1  2  1  0
  1  8  1  0
  3  2  2  0
  4  5  1  0
  4  3  1  0
  5  6  1  0
  6  1  1  0
  7 12  2  0
  8  7  1  0
  9  8  2  0
  9 10  1  0
 10 11  2  0
 11 12  1  0
 11 13  1  0
 14 15  1  0
 14  4  1  0
 16 14  1  0
 17 14  1  0
  1 18  1  1
  2 19  1  0
  3 20  1  0
  4 21  1  6
  5 22  1  0
  5 23  1  0
  6 24  1  0
  6 25  1  0
  7 26  1  0
 13 27  1  0
 13 28  1  0
 29 30  2  0
 30 31  1  0
 31 32  2  0
 32 33  1  0
 33 34  2  0
 34 35  1  0
 35 36  2  0
 36 37  1  0
 37 38  2  0
 38 29  1  0
 38 33  1  0
 30 39  1  0
 31 40  1  0
 32 41  1  0
 34 42  1  0
 35 43  1  0
 36 44  1  0
 37 45  1  0
  9 29  1  0
M  ISO  8  18  13  19  13  20  13  21  13  22  13  23  13  24  13  25  13
M  ISO  1  26  14
M  END
>  <DihAtoms>  (1) 
7,8,28,29

>  <DihDeg>  (1) 
-74.71385196652109

$$$$
