
     RDKit          3D

 48 53  0  0  0  0  0  0  0  0999 V2000
   44.6280   35.6610   44.8880 C   0  0  0  0  0  0  0  0  0  0  0  0
   44.2490   35.5450   43.5350 C   0  0  0  0  0  0  0  0  0  0  0  0
   44.6160   34.3930   42.8950 C   0  0  0  0  0  0  0  0  0  0  0  0
   45.3070   33.4830   43.6220 N   0  0  0  0  0  0  0  0  0  0  0  0
   45.6810   33.5710   44.9140 C   0  0  0  0  0  0  0  0  0  0  0  0
   45.2910   34.6840   45.4290 N   0  0  0  0  0  0  0  0  0  0  0  0
   46.4010   32.4070   45.3620 C   0  0  0  0  0  0  0  0  0  0  0  0
   47.2200   31.6780   44.5180 C   0  0  0  0  0  0  0  0  0  0  0  0
   47.9110   30.5630   44.9130 C   0  0  0  0  0  0  0  0  0  0  0  0
   47.8230   30.1010   46.1990 C   0  0  0  0  0  0  0  0  0  0  0  0
   47.0300   30.7920   47.0480 C   0  0  0  0  0  0  0  0  0  0  0  0
   46.9470   30.3180   48.3500 C   0  0  0  0  0  0  0  0  0  0  0  0
   46.1610   30.9690   49.2750 C   0  0  0  0  0  0  0  0  0  0  0  0
   45.4600   32.1010   48.8730 C   0  0  0  0  0  0  0  0  0  0  0  0
   45.5970   32.5010   47.5740 C   0  0  0  0  0  0  0  0  0  0  0  0
   46.3540   31.9040   46.6180 C   0  0  0  0  0  0  0  0  0  0  0  0
   44.2650   34.1690   41.4970 C   0  0  0  0  0  0  0  0  0  0  0  0
   45.0430   33.2320   40.7060 C   0  0  0  0  0  0  0  0  0  0  0  0
   44.1650   33.3250   39.0330 S   0  0  0  0  0  0  0  0  0  0  0  0
   42.9670   34.5790   39.7520 C   0  0  0  0  0  0  0  0  0  0  0  0
   43.2830   34.7110   40.7940 N   0  0  0  0  0  0  0  0  0  0  0  0
   41.9440   35.0350   38.7320 C   0  0  0  0  0  0  0  0  0  0  0  0
   42.1180   36.0890   37.9000 C   0  0  0  0  0  0  0  0  0  0  0  0
   41.1550   36.4700   36.9820 C   0  0  0  0  0  0  0  0  0  0  0  0
   39.9750   35.7660   36.8940 C   0  0  0  0  0  0  0  0  0  0  0  0
   39.7720   34.6920   37.7230 C   0  0  0  0  0  0  0  0  0  0  0  0
   38.5800   34.0140   37.6060 C   0  0  0  0  0  0  0  0  0  0  0  0
   38.3550   32.9150   38.4440 C   0  0  0  0  0  0  0  0  0  0  0  0
   39.3640   32.5850   39.3470 C   0  0  0  0  0  0  0  0  0  0  0  0
   40.5270   33.2880   39.4240 C   0  0  0  0  0  0  0  0  0  0  0  0
   40.7590   34.3560   38.6190 C   0  0  0  0  0  0  0  0  0  0  0  0
   44.3686   36.5569   45.4711 H   0  0  0  0  0  0  0  0  0  0  0  0
   43.6877   36.3391   43.0210 H   0  0  0  0  0  0  0  0  0  0  0  0
   47.3216   32.0114   43.4747 H   0  0  0  0  0  0  0  0  0  0  0  0
   48.5448   30.0319   44.1876 H   0  0  0  0  0  0  0  0  0  0  0  0
   48.3735   29.2068   46.5268 H   0  0  0  0  0  0  0  0  0  0  0  0
   47.5104   29.4201   48.6438 H   0  0  0  0  0  0  0  0  0  0  0  0
   46.0893   30.6015   50.3093 H   0  0  0  0  0  0  0  0  0  0  0  0
   44.8188   32.6539   49.5753 H   0  0  0  0  0  0  0  0  0  0  0  0
   45.0369   33.3982   47.2717 H   0  0  0  0  0  0  0  0  0  0  0  0
   45.9132   32.6276   41.0017 H   0  0  0  0  0  0  0  0  0  0  0  0
   43.0557   36.6613   37.9556 H   0  0  0  0  0  0  0  0  0  0  0  0
   41.3319   37.3335   36.3240 H   0  0  0  0  0  0  0  0  0  0  0  0
   39.2039   36.0614   36.1673 H   0  0  0  0  0  0  0  0  0  0  0  0
   37.8228   34.3277   36.8723 H   0  0  0  0  0  0  0  0  0  0  0  0
   37.4210   32.3363   38.3918 H   0  0  0  0  0  0  0  0  0  0  0  0
   39.2155   31.7277   40.0200 H   0  0  0  0  0  0  0  0  0  0  0  0
   41.2935   32.9849   40.1525 H   0  0  0  0  0  0  0  0  0  0  0  0
  1  6  2  0
  2  1  1  0
  3  2  2  0
  3  4  1  0
  4  5  2  0
  5  7  1  0
  5  6  1  0
  7 16  2  0
  8  9  2  0
  8  7  1  0
  9 10  1  0
 10 11  2  0
 11 12  1  0
 12 13  2  0
 14 13  1  0
 15 14  2  0
 16 11  1  0
 16 15  1  0
 17  3  1  0
 18 17  2  0
 19 20  1  0
 19 18  1  0
 20 21  2  0
 21 17  1  0
 22 20  1  0
 23 22  2  0
 24 23  1  0
 25 24  2  0
 25 26  1  0
 26 31  2  0
 27 26  1  0
 27 28  2  0
 28 29  1  0
 29 30  2  0
 31 22  1  0
 31 30  1  0
  1 32  1  0
  2 33  1  0
  8 34  1  0
  9 35  1  0
 10 36  1  0
 12 37  1  0
 13 38  1  0
 14 39  1  0
 15 40  1  0
 18 41  1  0
 23 42  1  0
 24 43  1  0
 25 44  1  0
 27 45  1  0
 28 46  1  0
 29 47  1  0
 30 48  1  0
M  END
>  <minimizedAffinity>  (1) 
-8.23514271

>  <minimizedRMSD>  (1) 
1.32671213

$$$$
