
     RDKit          3D

 39 41  0  0  0  0  0  0  0  0999 V2000
   46.1291   33.6385   45.3101 C   0  0  2  0  0  0  0  0  0  0  0  0
   44.9232   34.6723   45.4717 C   0  0  0  0  0  0  0  0  0  0  0  0
   44.6908   35.5768   44.3730 C   0  0  0  0  0  0  0  0  0  0  0  0
   45.5150   35.5237   43.1835 C   0  0  1  0  0  0  0  0  0  0  0  0
   46.6483   34.5723   43.1969 C   0  0  0  0  0  0  0  0  0  0  0  0
   46.1876   33.3186   43.9284 C   0  0  0  0  0  0  0  0  0  0  0  0
   45.3218   32.9183   47.5384 C   0  0  0  0  0  0  0  0  0  0  0  0
   45.9101   32.6672   46.3345 C   0  0  0  0  0  0  0  0  0  0  0  0
   46.2555   31.3310   46.0985 C   0  0  0  0  0  0  0  0  0  0  0  0
   46.0219   30.3554   46.9960 N   0  0  0  0  0  0  0  0  0  0  0  0
   45.4261   30.6562   48.2015 C   0  0  0  0  0  0  0  0  0  0  0  0
   45.0885   31.9174   48.4516 N   0  0  0  0  0  0  0  0  0  0  0  0
   45.2198   29.6370   49.1834 N   0  0  0  0  0  0  0  0  0  0  0  0
   44.5844   35.1904   41.9896 C   0  0  0  0  0  0  0  0  0  0  0  0
   43.5930   34.2905   42.3189 F   0  0  0  0  0  0  0  0  0  0  0  0
   43.9462   36.3782   41.6478 F   0  0  0  0  0  0  0  0  0  0  0  0
   45.3357   34.8083   40.8944 F   0  0  0  0  0  0  0  0  0  0  0  0
   46.9061   34.3879   45.6573 H   0  0  0  0  0  0  0  0  0  0  0  0
   44.1862   34.8843   46.2411 H   0  0  0  0  0  0  0  0  0  0  0  0
   43.9148   36.2954   44.3937 H   0  0  0  0  0  0  0  0  0  0  0  0
   45.9040   36.5448   42.9539 H   0  0  0  0  0  0  0  0  0  0  0  0
   46.9610   34.3609   42.1744 H   0  0  0  0  0  0  0  0  0  0  0  0
   47.5369   34.9609   43.7379 H   0  0  0  0  0  0  0  0  0  0  0  0
   45.0901   33.2216   43.5622 H   0  0  0  0  0  0  0  0  0  0  0  0
   46.6737   32.5334   43.4266 H   0  0  0  0  0  0  0  0  0  0  0  0
   45.0273   33.9076   47.8036 H   0  0  0  0  0  0  0  0  0  0  0  0
   46.1400   29.4974   49.6791 H   0  0  0  0  0  0  0  0  0  0  0  0
   44.2455   29.2840   49.1796 H   0  0  0  0  0  0  0  0  0  0  0  0
   46.9371   30.6587   45.0022 C   0  0  0  0  0  0  0  0  0  0  0  0
   46.3940   29.6199   44.2701 C   0  0  0  0  0  0  0  0  0  0  0  0
   47.0920   28.9344   43.2991 C   0  0  0  0  0  0  0  0  0  0  0  0
   46.6164   28.1159   42.7442 H   0  0  0  0  0  0  0  0  0  0  0  0
   48.3920   29.2962   43.0412 C   0  0  0  0  0  0  0  0  0  0  0  0
   49.0277   30.3054   43.7026 C   0  0  0  0  0  0  0  0  0  0  0  0
   50.0390   30.6286   43.5416 H   0  0  0  0  0  0  0  0  0  0  0  0
   48.2683   30.9436   44.6572 C   0  0  0  0  0  0  0  0  0  0  0  0
   45.3627   29.3328   44.4748 H   0  0  0  0  0  0  0  0  0  0  0  0
   48.9492   28.7544   42.2712 H   0  0  0  0  0  0  0  0  0  0  0  0
   48.7273   31.7602   45.2179 H   0  0  0  0  0  0  0  0  0  0  0  0
  1  2  1  0
  1  8  1  0
  3  2  2  0
  4  5  1  0
  4  3  1  0
  5  6  1  0
  6  1  1  0
  7 12  2  0
  8  7  1  0
  9  8  2  0
  9 10  1  0
 10 11  2  0
 11 12  1  0
 11 13  1  0
 14 15  1  0
 14  4  1  0
 16 14  1  0
 17 14  1  0
  1 18  1  1
  2 19  1  0
  3 20  1  0
  4 21  1  6
  5 22  1  0
  5 23  1  0
  6 24  1  0
  6 25  1  0
  7 26  1  0
 13 27  1  0
 13 28  1  0
 29 30  2  0
 30 31  1  0
 31 32  1  0
 31 33  2  0
 33 34  1  0
 34 35  1  0
 34 36  2  0
 36 29  1  0
 30 37  1  0
 33 38  1  0
 36 39  1  0
  9 29  1  0
M  ISO  8  18  13  19  13  20  13  21  13  22  13  23  13  24  13  25  13
M  ISO  3  26  14  32  16  35  16
M  END
>  <DihAtoms>  (1) 
7,8,28,29

>  <DihDeg>  (1) 
-122.62457809457412

$$$$
