
     RDKit          3D

 43 46  0  0  0  0  0  0  0  0999 V2000
   47.5740   34.2050   42.1150 C   0  0  0  0  0  0  0  0  0  0  0  0
   48.4770   35.3290   41.6950 C   0  0  0  0  0  0  0  0  0  0  0  0
   49.8010   35.3670   42.3390 C   0  0  0  0  0  0  0  0  0  0  0  0
   50.4820   34.0420   42.4660 C   0  0  0  0  0  0  0  0  0  0  0  0
   49.6030   32.8690   42.0950 C   0  0  0  0  0  0  0  0  0  0  0  0
   48.2720   33.0650   42.7960 C   0  0  0  0  0  0  0  0  0  0  0  0
   45.2230   34.4900   44.9700 C   0  0  0  0  0  0  0  0  0  0  0  0
   44.5290   35.6630   44.6910 C   0  0  0  0  0  0  0  0  0  0  0  0
   44.8700   36.3500   43.5320 C   0  0  0  0  0  0  0  0  0  0  0  0
   45.8500   35.8490   42.7410 N   0  0  0  0  0  0  0  0  0  0  0  0
   46.5090   34.6980   43.0430 C   0  0  0  0  0  0  0  0  0  0  0  0
   46.1790   34.0260   44.1730 N   0  0  0  0  0  0  0  0  0  0  0  0
   46.9220   33.6420   40.8790 C   0  0  0  0  0  0  0  0  0  0  0  0
   45.7270   33.0440   40.5290 C   0  0  0  0  0  0  0  0  0  0  0  0
   45.5670   32.6850   39.2440 C   0  0  0  0  0  0  0  0  0  0  0  0
   46.5190   32.8900   38.3180 C   0  0  0  0  0  0  0  0  0  0  0  0
   47.8570   33.6970   39.3210 S   0  0  0  0  0  0  0  0  0  0  0  0
   46.6500   32.6380   36.9450 C   0  0  0  0  0  0  0  0  0  0  0  0
   45.4630   32.4730   36.2640 C   0  0  0  0  0  0  0  0  0  0  0  0
   45.4700   32.2160   34.8880 C   0  0  0  0  0  0  0  0  0  0  0  0
   46.7040   32.1360   34.2550 C   0  0  0  0  0  0  0  0  0  0  0  0
   47.9020   32.3050   34.9560 C   0  0  0  0  0  0  0  0  0  0  0  0
   47.8820   32.5610   36.3310 C   0  0  0  0  0  0  0  0  0  0  0  0
   48.6329   35.2480   40.6091 H   0  0  0  0  0  0  0  0  0  0  0  0
   47.9676   36.2522   42.0083 H   0  0  0  0  0  0  0  0  0  0  0  0
   50.4498   36.0283   41.7458 H   0  0  0  0  0  0  0  0  0  0  0  0
   49.6326   35.7249   43.3654 H   0  0  0  0  0  0  0  0  0  0  0  0
   51.3619   34.0391   41.8059 H   0  0  0  0  0  0  0  0  0  0  0  0
   50.7517   33.9193   43.5253 H   0  0  0  0  0  0  0  0  0  0  0  0
   49.4542   32.8396   41.0055 H   0  0  0  0  0  0  0  0  0  0  0  0
   50.0688   31.9205   42.4006 H   0  0  0  0  0  0  0  0  0  0  0  0
   48.4367   33.3041   43.8570 H   0  0  0  0  0  0  0  0  0  0  0  0
   47.6651   32.1490   42.7436 H   0  0  0  0  0  0  0  0  0  0  0  0
   44.9716   33.9278   45.8814 H   0  0  0  0  0  0  0  0  0  0  0  0
   43.7401   36.0328   45.3624 H   0  0  0  0  0  0  0  0  0  0  0  0
   44.3541   37.2831   43.2616 H   0  0  0  0  0  0  0  0  0  0  0  0
   44.9366   32.8684   41.2737 H   0  0  0  0  0  0  0  0  0  0  0  0
   44.6243   32.2069   38.9396 H   0  0  0  0  0  0  0  0  0  0  0  0
   44.5071   32.5435   36.8036 H   0  0  0  0  0  0  0  0  0  0  0  0
   44.5325   32.0823   34.3283 H   0  0  0  0  0  0  0  0  0  0  0  0
   46.7396   31.9345   33.1742 H   0  0  0  0  0  0  0  0  0  0  0  0
   48.8628   32.2364   34.4247 H   0  0  0  0  0  0  0  0  0  0  0  0
   48.8134   32.6957   36.9005 H   0  0  0  0  0  0  0  0  0  0  0  0
  1  6  1  0
  1 11  1  0
  2  1  1  0
  2  3  1  0
  3  4  1  0
  5  4  1  0
  5  6  1  0
  8  7  2  0
  9  8  1  0
 10 11  1  0
 10  9  2  0
 11 12  2  0
 12  7  1  0
 13  1  1  0
 14 13  2  0
 15 14  1  0
 16 15  2  0
 16 17  1  0
 17 13  1  0
 18 16  1  0
 19 18  2  0
 20 19  1  0
 21 20  2  0
 21 22  1  0
 22 23  2  0
 23 18  1  0
  2 24  1  0
  2 25  1  0
  3 26  1  0
  3 27  1  0
  4 28  1  0
  4 29  1  0
  5 30  1  0
  5 31  1  0
  6 32  1  0
  6 33  1  0
  7 34  1  0
  8 35  1  0
  9 36  1  0
 14 37  1  0
 15 38  1  0
 19 39  1  0
 20 40  1  0
 21 41  1  0
 22 42  1  0
 23 43  1  0
M  ISO  8  24  13  25  13  26  13  27  13  28  13  29  13  30  13  31  13
M  ISO  8  32  13  33  13  34  14  35  14  36  14  37  14  38  14  39  14
M  ISO  4  40  14  41  14  42  14  43  14
M  END
>  <minimizedAffinity>  (1) 
-6.16423225

>  <minimizedRMSD>  (1) 
0.461990267

$$$$
