
     RDKit          3D

 43 46  0  0  0  0  0  0  0  0999 V2000
   46.4540   34.6340   42.2120 C   0  0  0  0  0  0  0  0  0  0  0  0
   47.7570   35.0060   42.0760 C   0  0  0  0  0  0  0  0  0  0  0  0
   48.4530   34.8500   40.8660 C   0  0  0  0  0  0  0  0  0  0  0  0
   47.7970   34.2990   39.7650 C   0  0  0  0  0  0  0  0  0  0  0  0
   46.4850   33.9270   39.9040 C   0  0  0  0  0  0  0  0  0  0  0  0
   45.8280   34.0960   41.1190 C   0  0  0  0  0  0  0  0  0  0  0  0
   44.4690   33.6970   41.2220 N   0  0  0  0  0  0  0  0  0  0  0  0
   43.6490   34.6580   40.6870 C   0  0  0  0  0  0  0  0  0  0  0  0
   42.2600   34.4710   40.6820 C   0  0  0  0  0  0  0  0  0  0  0  0
   41.7650   33.2940   41.2310 C   0  0  0  0  0  0  0  0  0  0  0  0
   40.5290   33.0700   41.2540 O   0  0  0  0  0  0  0  0  0  0  0  0
   42.6180   32.3820   41.7430 N   0  0  0  0  0  0  0  0  0  0  0  0
   43.9420   32.5790   41.7390 C   0  0  0  0  0  0  0  0  0  0  0  0
   44.8050   31.7970   42.1880 O   0  0  0  0  0  0  0  0  0  0  0  0
   41.3280   35.4830   40.1150 C   0  0  0  0  0  0  0  0  0  0  0  0
   44.4140   35.9580   45.0790 C   0  0  0  0  0  0  0  0  0  0  0  0
   44.9600   35.8820   43.8020 C   0  0  0  0  0  0  0  0  0  0  0  0
   45.8200   34.8320   43.4930 C   0  0  0  0  0  0  0  0  0  0  0  0
   46.0740   33.9420   44.4620 N   0  0  0  0  0  0  0  0  0  0  0  0
   45.5310   34.0330   45.7070 C   0  0  0  0  0  0  0  0  0  0  0  0
   44.7060   35.0380   46.0070 N   0  0  0  0  0  0  0  0  0  0  0  0
   45.8530   33.0240   46.7180 C   0  0  0  0  0  0  0  0  0  0  0  0
   46.9870   32.2360   46.5590 C   0  0  0  0  0  0  0  0  0  0  0  0
   47.3420   31.2750   47.4740 C   0  0  0  0  0  0  0  0  0  0  0  0
   46.5370   31.0930   48.5810 C   0  0  0  0  0  0  0  0  0  0  0  0
   45.4070   31.8690   48.7490 C   0  0  0  0  0  0  0  0  0  0  0  0
   45.0560   32.8450   47.8130 C   0  0  0  0  0  0  0  0  0  0  0  0
   48.2802   35.4418   42.9399 H   0  0  0  0  0  0  0  0  0  0  0  0
   49.5056   35.1594   40.7873 H   0  0  0  0  0  0  0  0  0  0  0  0
   48.3208   34.1660   38.8069 H   0  0  0  0  0  0  0  0  0  0  0  0
   45.9475   33.4916   39.0487 H   0  0  0  0  0  0  0  0  0  0  0  0
   44.0818   35.5756   40.2618 H   0  0  0  0  0  0  0  0  0  0  0  0
   42.2408   31.5128   42.1469 H   0  0  0  0  0  0  0  0  0  0  0  0
   40.8306   36.0230   40.9341 H   0  0  0  0  0  0  0  0  0  0  0  0
   41.8929   36.1955   39.4959 H   0  0  0  0  0  0  0  0  0  0  0  0
   40.5715   34.9786   39.4959 H   0  0  0  0  0  0  0  0  0  0  0  0
   43.7333   36.7849   45.3299 H   0  0  0  0  0  0  0  0  0  0  0  0
   44.7152   36.6423   43.0456 H   0  0  0  0  0  0  0  0  0  0  0  0
   47.6202   32.3868   45.6723 H   0  0  0  0  0  0  0  0  0  0  0  0
   48.2458   30.6651   47.3284 H   0  0  0  0  0  0  0  0  0  0  0  0
   46.7959   30.3296   49.3294 H   0  0  0  0  0  0  0  0  0  0  0  0
   44.7727   31.7161   49.6346 H   0  0  0  0  0  0  0  0  0  0  0  0
   44.1540   33.4584   47.9552 H   0  0  0  0  0  0  0  0  0  0  0  0
  1 18  1  0
  2  1  2  0
  3  2  1  0
  4  5  1  0
  4  3  2  0
  5  6  2  0
  6  7  1  0
  6  1  1  0
  7 13  1  0
  8  7  1  0
  9  8  2  0
  9 10  1  0
 10 11  2  0
 10 12  1  0
 13 12  1  0
 13 14  2  0
 15  9  1  0
 16 21  2  0
 17 16  1  0
 18 17  2  0
 18 19  1  0
 19 20  2  0
 20 21  1  0
 20 22  1  0
 22 27  1  0
 23 22  2  0
 23 24  1  0
 24 25  2  0
 25 26  1  0
 27 26  2  0
  2 28  1  0
  3 29  1  0
  4 30  1  0
  5 31  1  0
  8 32  1  0
 12 33  1  0
 15 34  1  0
 15 35  1  0
 15 36  1  0
 16 37  1  0
 17 38  1  0
 23 39  1  0
 24 40  1  0
 25 41  1  0
 26 42  1  0
 27 43  1  0
M  END
>  <minimizedAffinity>  (1) 
-7.92559433

>  <minimizedRMSD>  (1) 
0.357936978

$$$$
