
     RDKit          3D

 52 56  0  0  1  0  0  0  0  0999 V2000
   46.7780   34.4790   41.3750 C   0  0  0  0  0  0  0  0  0  0  0  0
   48.0690   34.8340   41.0200 C   0  0  0  0  0  0  0  0  0  0  0  0
   48.3100   34.4850   39.7540 N   0  0  0  0  0  0  0  0  0  0  0  0
   47.1790   33.9070   39.2940 C   0  0  0  0  0  0  0  0  0  0  0  0
   46.8890   33.3650   38.0410 C   0  0  0  0  0  0  0  0  0  0  0  0
   45.6500   32.8320   37.8260 C   0  0  0  0  0  0  0  0  0  0  0  0
   44.6430   32.7860   38.7680 C   0  0  0  0  0  0  0  0  0  0  0  0
   44.9740   33.3340   39.9970 C   0  0  0  0  0  0  0  0  0  0  0  0
   46.1970   33.8860   40.2810 C   0  0  0  0  0  0  0  0  0  0  0  0
   44.7290   36.0490   44.0830 C   0  0  0  0  0  0  0  0  0  0  0  0
   45.3500   35.8430   42.8410 C   0  0  0  0  0  0  0  0  0  0  0  0
   46.1300   34.6900   42.6780 C   0  0  0  0  0  0  0  0  0  0  0  0
   46.2650   33.8080   43.7110 N   0  0  0  0  0  0  0  0  0  0  0  0
   45.6400   34.0610   44.8900 C   0  0  0  0  0  0  0  0  0  0  0  0
   44.8830   35.1530   45.0920 N   0  0  0  0  0  0  0  0  0  0  0  0
   49.0330   35.5010   41.9140 C   0  0  0  0  0  0  0  0  0  0  0  0
   49.9830   34.5190   42.5350 C   0  0  0  0  0  0  0  0  0  0  0  0
   50.1180   33.2170   41.7950 C   0  0  1  0  0  0  0  0  0  0  0  0
   51.3410   32.4350   41.7720 C   0  0  0  0  0  0  0  0  0  0  0  0
   50.2890   32.0040   42.7290 C   0  0  2  0  0  0  0  0  0  0  0  0
   49.4190   30.9180   42.5020 N   0  0  0  0  0  0  0  0  0  0  0  0
   49.9440   29.6000   42.6160 C   0  0  0  0  0  0  0  0  0  0  0  0
   49.6720   28.9520   43.9520 C   0  0  0  0  0  0  0  0  0  0  0  0
   48.1890   29.0740   44.2990 C   0  0  0  0  0  0  0  0  0  0  0  0
   47.9020   30.5610   44.3970 C   0  0  0  0  0  0  0  0  0  0  0  0
   48.0940   31.1040   42.9910 C   0  0  0  0  0  0  0  0  0  0  0  0
   49.1858   34.6283   39.2311 H   0  0  0  0  0  0  0  0  0  0  0  0
   47.6444   33.3671   37.2414 H   0  0  0  0  0  0  0  0  0  0  0  0
   45.4403   32.4098   36.8321 H   0  0  0  0  0  0  0  0  0  0  0  0
   43.6553   32.3488   38.5599 H   0  0  0  0  0  0  0  0  0  0  0  0
   44.2121   33.3258   40.7904 H   0  0  0  0  0  0  0  0  0  0  0  0
   44.1113   36.9454   44.2406 H   0  0  0  0  0  0  0  0  0  0  0  0
   45.2281   36.5650   42.0201 H   0  0  0  0  0  0  0  0  0  0  0  0
   45.7583   33.3420   45.7141 H   0  0  0  0  0  0  0  0  0  0  0  0
   49.6091   36.2360   41.3328 H   0  0  0  0  0  0  0  0  0  0  0  0
   48.4700   35.9920   42.7214 H   0  0  0  0  0  0  0  0  0  0  0  0
   50.9764   34.9887   42.5848 H   0  0  0  0  0  0  0  0  0  0  0  0
   49.5695   34.2714   43.5238 H   0  0  0  0  0  0  0  0  0  0  0  0
   49.4670   33.5639   40.9790 H   0  0  0  0  0  0  0  0  0  0  0  0
   51.5656   31.8079   40.8966 H   0  0  0  0  0  0  0  0  0  0  0  0
   52.4058   32.6893   41.8795 H   0  0  0  0  0  0  0  0  0  0  0  0
   50.3043   31.7701   43.8037 H   0  0  0  0  0  0  0  0  0  0  0  0
   49.4927   28.9772   41.8296 H   0  0  0  0  0  0  0  0  0  0  0  0
   51.0364   29.6791   42.5135 H   0  0  0  0  0  0  0  0  0  0  0  0
   49.9488   27.8885   43.9042 H   0  0  0  0  0  0  0  0  0  0  0  0
   50.2672   29.4576   44.7267 H   0  0  0  0  0  0  0  0  0  0  0  0
   47.5733   28.6173   43.5101 H   0  0  0  0  0  0  0  0  0  0  0  0
   47.9519   28.5556   45.2397 H   0  0  0  0  0  0  0  0  0  0  0  0
   46.8702   30.7319   44.7377 H   0  0  0  0  0  0  0  0  0  0  0  0
   48.5645   31.0581   45.1209 H   0  0  0  0  0  0  0  0  0  0  0  0
   47.8698   32.1809   42.9968 H   0  0  0  0  0  0  0  0  0  0  0  0
   47.4155   30.5487   42.3267 H   0  0  0  0  0  0  0  0  0  0  0  0
  1 12  1  0
  2  1  2  0
  2 16  1  0
  3  2  1  0
  4  3  1  0
  4  9  2  0
  5  4  1  0
  6  5  2  0
  6  7  1  0
  7  8  2  0
  8  9  1  0
  9  1  1  0
 10 15  2  0
 11 10  1  0
 12 11  2  0
 12 13  1  0
 13 14  2  0
 14 15  1  0
 16 17  1  0
 18 17  1  0
 18 20  1  0
 19 18  1  0
 19 20  1  0
 21 22  1  0
 21 20  1  0
 21 26  1  0
 22 23  1  0
 23 24  1  0
 24 25  1  0
 26 25  1  0
  3 27  1  0
  5 28  1  0
  6 29  1  0
  7 30  1  0
  8 31  1  0
 10 32  1  0
 11 33  1  0
 14 34  1  0
 16 35  1  0
 16 36  1  0
 17 37  1  0
 17 38  1  0
 18 39  1  6
 19 40  1  0
 19 41  1  0
 20 42  1  1
 22 43  1  0
 22 44  1  0
 23 45  1  0
 23 46  1  0
 24 47  1  0
 24 48  1  0
 25 49  1  0
 25 50  1  0
 26 51  1  0
 26 52  1  0
M  ISO  8  27   9  28  14  29  14  30  14  31  14  32  14  33  14  34  14
M  ISO  8  35   8  36   8  37   8  38   8  39  13  40  13  41  13  42  13
M  ISO  8  43  13  44  13  45  13  46  13  47  13  48  13  49  13  50  13
M  ISO  2  51  13  52  13
M  END
>  <minimizedAffinity>  (1) 
-5.7731142

>  <minimizedRMSD>  (1) 
1.4728322

$$$$
