
     RDKit          3D

 45 48  0  0  0  0  0  0  0  0999 V2000
   46.8970   34.6990   41.9440 C   0  0  0  0  0  0  0  0  0  0  0  0
   48.1800   35.1580   41.6970 C   0  0  0  0  0  0  0  0  0  0  0  0
   48.4140   34.7680   40.3760 C   0  0  0  0  0  0  0  0  0  0  0  0
   47.2910   34.1140   39.9120 C   0  0  0  0  0  0  0  0  0  0  0  0
   46.3960   34.0980   40.9020 O   0  0  0  0  0  0  0  0  0  0  0  0
   44.5310   35.9740   44.5170 C   0  0  0  0  0  0  0  0  0  0  0  0
   45.2400   35.8680   43.2900 C   0  0  0  0  0  0  0  0  0  0  0  0
   46.1490   34.8400   43.1880 C   0  0  0  0  0  0  0  0  0  0  0  0
   46.3290   33.9890   44.2340 N   0  0  0  0  0  0  0  0  0  0  0  0
   45.6230   34.1350   45.3850 C   0  0  0  0  0  0  0  0  0  0  0  0
   44.7300   35.1150   45.5350 N   0  0  0  0  0  0  0  0  0  0  0  0
   45.8490   33.2180   46.4470 N   0  0  0  0  0  0  0  0  0  0  0  0
   46.9960   32.3330   46.5040 C   0  0  0  0  0  0  0  0  0  0  0  0
   47.5200   32.3250   47.9140 C   0  0  0  0  0  0  0  0  0  0  0  0
   46.5000   31.7010   48.8300 C   0  0  0  0  0  0  0  0  0  0  0  0
   45.1030   31.8260   48.3140 C   0  0  0  0  0  0  0  0  0  0  0  0
   44.9170   33.1220   47.5520 C   0  0  0  0  0  0  0  0  0  0  0  0
   47.1050   33.5570   38.6250 N   0  0  0  0  0  0  0  0  0  0  0  0
   46.2170   32.5590   38.4680 C   0  0  0  0  0  0  0  0  0  0  0  0
   46.0010   31.9870   37.2260 C   0  0  0  0  0  0  0  0  0  0  0  0
   46.7120   32.4600   36.1520 C   0  0  0  0  0  0  0  0  0  0  0  0
   46.5020   31.9310   35.0380 O   0  0  0  0  0  0  0  0  0  0  0  0
   47.5890   33.4620   36.3670 N   0  0  0  0  0  0  0  0  0  0  0  0
   47.7910   34.0120   37.5820 C   0  0  0  0  0  0  0  0  0  0  0  0
   48.6240   34.9430   37.7100 O   0  0  0  0  0  0  0  0  0  0  0  0
   45.0010   30.8930   37.1570 C   0  0  0  0  0  0  0  0  0  0  0  0
   48.8533   35.6997   42.3776 H   0  0  0  0  0  0  0  0  0  0  0  0
   49.3355   34.9509   39.8039 H   0  0  0  0  0  0  0  0  0  0  0  0
   43.7962   36.7834   44.6392 H   0  0  0  0  0  0  0  0  0  0  0  0
   45.0705   36.5729   42.4627 H   0  0  0  0  0  0  0  0  0  0  0  0
   46.6950   31.3156   46.2138 H   0  0  0  0  0  0  0  0  0  0  0  0
   47.7772   32.6817   45.8125 H   0  0  0  0  0  0  0  0  0  0  0  0
   48.4526   31.7430   47.9544 H   0  0  0  0  0  0  0  0  0  0  0  0
   47.7158   33.3584   48.2362 H   0  0  0  0  0  0  0  0  0  0  0  0
   46.7378   30.6332   48.9448 H   0  0  0  0  0  0  0  0  0  0  0  0
   46.5469   32.2357   49.7901 H   0  0  0  0  0  0  0  0  0  0  0  0
   44.8911   30.9809   47.6426 H   0  0  0  0  0  0  0  0  0  0  0  0
   44.4126   31.8220   49.1703 H   0  0  0  0  0  0  0  0  0  0  0  0
   45.0829   33.9674   48.2359 H   0  0  0  0  0  0  0  0  0  0  0  0
   43.8941   33.1451   47.1481 H   0  0  0  0  0  0  0  0  0  0  0  0
   45.6543   32.1921   39.3391 H   0  0  0  0  0  0  0  0  0  0  0  0
   48.1287   33.8234   35.5676 H   0  0  0  0  0  0  0  0  0  0  0  0
   44.7213   30.5871   38.1759 H   0  0  0  0  0  0  0  0  0  0  0  0
   44.1072   31.2464   36.6220 H   0  0  0  0  0  0  0  0  0  0  0  0
   45.4331   30.0345   36.6220 H   0  0  0  0  0  0  0  0  0  0  0  0
  1  8  1  0
  2  1  2  0
  3  2  1  0
  4  3  2  0
  4  5  1  0
  5  1  1  0
  6 11  2  0
  7  6  1  0
  8  7  2  0
  8  9  1  0
  9 10  2  0
 10 11  1  0
 10 12  1  0
 12 13  1  0
 12 17  1  0
 13 14  1  0
 14 15  1  0
 16 15  1  0
 17 16  1  0
 18  4  1  0
 19 18  1  0
 20 19  2  0
 21 23  1  0
 21 20  1  0
 22 21  2  0
 23 24  1  0
 24 25  2  0
 24 18  1  0
 26 20  1  0
  2 27  1  0
  3 28  1  0
  6 29  1  0
  7 30  1  0
 13 31  1  0
 13 32  1  0
 14 33  1  0
 14 34  1  0
 15 35  1  0
 15 36  1  0
 16 37  1  0
 16 38  1  0
 17 39  1  0
 17 40  1  0
 19 41  1  0
 23 42  1  0
 26 43  1  0
 26 44  1  0
 26 45  1  0
M  END
>  <minimizedAffinity>  (1) 
-7.96380377

>  <minimizedRMSD>  (1) 
0.15992339

$$$$
