
     RDKit          3D

 39 40  0  0  0  0  0  0  0  0999 V2000
   45.7400   33.6080   42.2000 C   0  0  0  0  0  0  0  0  0  0  0  0
   45.5200   33.6620   45.8600 C   0  0  0  0  0  0  0  0  0  0  0  0
   44.8310   34.8250   46.0320 C   0  0  0  0  0  0  0  0  0  0  0  0
   44.5780   35.4030   44.3430 S   0  0  0  0  0  0  0  0  0  0  0  0
   45.5010   33.8890   43.6520 C   0  0  0  0  0  0  0  0  0  0  0  0
   45.7590   33.3610   44.6430 N   0  0  0  0  0  0  0  0  0  0  0  0
   45.4710   31.6150   49.0740 C   0  0  0  0  0  0  0  0  0  0  0  0
   45.0210   32.3720   48.0000 C   0  0  0  0  0  0  0  0  0  0  0  0
   45.9250   32.8540   47.0350 C   0  0  0  0  0  0  0  0  0  0  0  0
   47.2080   32.5080   47.2730 N   0  0  0  0  0  0  0  0  0  0  0  0
   47.6420   31.7870   48.2960 C   0  0  0  0  0  0  0  0  0  0  0  0
   46.7680   31.3480   49.1860 N   0  0  0  0  0  0  0  0  0  0  0  0
   44.3930   33.5910   41.5370 C   0  0  0  0  0  0  0  0  0  0  0  0
   46.4130   32.2880   42.1070 C   0  0  0  0  0  0  0  0  0  0  0  0
   46.5960   34.6860   41.5770 C   0  0  0  0  0  0  0  0  0  0  0  0
   47.8920   34.1160   41.1670 N   0  0  0  0  0  0  0  0  0  0  0  0
   48.0360   34.1830   39.6810 C   0  0  0  0  0  0  0  0  0  0  0  0
   48.6080   35.4140   39.3970 F   0  0  0  0  0  0  0  0  0  0  0  0
   46.8550   34.0220   39.0670 F   0  0  0  0  0  0  0  0  0  0  0  0
   48.9360   33.2170   39.2450 F   0  0  0  0  0  0  0  0  0  0  0  0
   48.7520   35.3590   41.4580 C   0  0  0  0  0  0  0  0  0  0  0  0
   49.7600   35.0570   42.5020 C   0  0  0  0  0  0  0  0  0  0  0  0
   44.5080   35.2962   46.9720 H   0  0  0  0  0  0  0  0  0  0  0  0
   44.7603   31.2399   49.8251 H   0  0  0  0  0  0  0  0  0  0  0  0
   43.9486   32.5968   47.9028 H   0  0  0  0  0  0  0  0  0  0  0  0
   48.7123   31.5571   48.4035 H   0  0  0  0  0  0  0  0  0  0  0  0
   43.6061   33.5811   42.3056 H   0  0  0  0  0  0  0  0  0  0  0  0
   44.2817   34.4878   40.9098 H   0  0  0  0  0  0  0  0  0  0  0  0
   44.3043   32.6917   40.9098 H   0  0  0  0  0  0  0  0  0  0  0  0
   46.6087   31.9041   43.1191 H   0  0  0  0  0  0  0  0  0  0  0  0
   45.7643   31.5830   41.5665 H   0  0  0  0  0  0  0  0  0  0  0  0
   47.3646   32.3989   41.5665 H   0  0  0  0  0  0  0  0  0  0  0  0
   46.0821   35.0972   40.6956 H   0  0  0  0  0  0  0  0  0  0  0  0
   46.7662   35.4864   42.3121 H   0  0  0  0  0  0  0  0  0  0  0  0
   49.2664   35.6678   40.5360 H   0  0  0  0  0  0  0  0  0  0  0  0
   48.0992   36.1688   41.8159 H   0  0  0  0  0  0  0  0  0  0  0  0
   49.3096   35.1919   43.4965 H   0  0  0  0  0  0  0  0  0  0  0  0
   50.1014   34.0171   42.3921 H   0  0  0  0  0  0  0  0  0  0  0  0
   50.6170   35.7378   42.3921 H   0  0  0  0  0  0  0  0  0  0  0  0
  1  5  1  0
  2  3  2  0
  2  9  1  0
  4  3  1  0
  5  4  1  0
  5  6  2  0
  6  2  1  0
  7 12  2  0
  8  7  1  0
  9 10  1  0
  9  8  2  0
 10 11  2  0
 11 12  1  0
 13  1  1  0
 14  1  1  0
 15  1  1  0
 16 21  1  0
 16 15  1  0
 17 16  1  0
 18 17  1  0
 19 17  1  0
 20 17  1  0
 21 22  1  0
  3 23  1  0
  7 24  1  0
  8 25  1  0
 11 26  1  0
 13 27  1  0
 13 28  1  0
 13 29  1  0
 14 30  1  0
 14 31  1  0
 14 32  1  0
 15 33  1  0
 15 34  1  0
 21 35  1  0
 21 36  1  0
 22 37  1  0
 22 38  1  0
 22 39  1  0
M  ISO  8  23  14  24  14  25  14  26  14  27   8  28   8  29   8  30   8
M  ISO  8  31   8  32   8  33   8  34   8  35   8  36   8  37   8  38   8
M  ISO  1  39   8
M  END
>  <minimizedAffinity>  (1) 
-5.45326567

>  <minimizedRMSD>  (1) 
2.0428822

$$$$
