
     RDKit          3D

 50 54  0  0  1  0  0  0  0  0999 V2000
   46.8250   34.4820   41.3460 C   0  0  0  0  0  0  0  0  0  0  0  0
   48.1140   34.8250   40.9820 C   0  0  0  0  0  0  0  0  0  0  0  0
   48.3440   34.4910   39.7110 N   0  0  0  0  0  0  0  0  0  0  0  0
   47.2160   33.9350   39.2510 C   0  0  0  0  0  0  0  0  0  0  0  0
   46.9280   33.4150   37.9840 C   0  0  0  0  0  0  0  0  0  0  0  0
   45.6840   32.8940   37.7590 C   0  0  0  0  0  0  0  0  0  0  0  0
   44.6690   32.8390   38.7050 C   0  0  0  0  0  0  0  0  0  0  0  0
   45.0080   33.3650   39.9320 C   0  0  0  0  0  0  0  0  0  0  0  0
   46.2290   33.9040   40.2380 C   0  0  0  0  0  0  0  0  0  0  0  0
   44.7630   35.9720   44.0780 C   0  0  0  0  0  0  0  0  0  0  0  0
   45.3830   35.8060   42.8230 C   0  0  0  0  0  0  0  0  0  0  0  0
   46.1750   34.6730   42.6380 C   0  0  0  0  0  0  0  0  0  0  0  0
   46.3250   33.7680   43.6690 N   0  0  0  0  0  0  0  0  0  0  0  0
   45.6980   33.9940   44.8530 C   0  0  0  0  0  0  0  0  0  0  0  0
   44.9260   35.0760   45.0640 N   0  0  0  0  0  0  0  0  0  0  0  0
   49.0710   35.4720   41.9050 C   0  0  0  0  0  0  0  0  0  0  0  0
   49.9940   34.4830   42.5420 C   0  0  0  0  0  0  0  0  0  0  0  0
   50.1350   33.1930   41.7950 C   0  0  1  0  0  0  0  0  0  0  0  0
   51.3710   32.4110   41.7430 C   0  0  0  0  0  0  0  0  0  0  0  0
   50.3340   31.9590   42.6890 C   0  0  2  0  0  0  0  0  0  0  0  0
   49.5220   30.7890   42.4760 N   0  0  0  0  0  0  0  0  0  0  0  0
   49.2150   30.0780   43.6890 C   0  0  0  0  0  0  0  0  0  0  0  0
   47.9410   30.5410   44.3550 C   0  0  0  0  0  0  0  0  0  0  0  0
   46.8970   30.1040   43.5440 O   0  0  0  0  0  0  0  0  0  0  0  0
   47.1060   30.3400   42.1970 C   0  0  0  0  0  0  0  0  0  0  0  0
   48.2660   31.2710   41.9320 C   0  0  0  0  0  0  0  0  0  0  0  0
   49.2187   34.6331   39.1859 H   0  0  0  0  0  0  0  0  0  0  0  0
   47.6858   33.4252   37.1867 H   0  0  0  0  0  0  0  0  0  0  0  0
   45.4724   32.4899   36.7580 H   0  0  0  0  0  0  0  0  0  0  0  0
   43.6780   32.4115   38.4925 H   0  0  0  0  0  0  0  0  0  0  0  0
   44.2433   33.3511   40.7226 H   0  0  0  0  0  0  0  0  0  0  0  0
   44.1315   36.8555   44.2532 H   0  0  0  0  0  0  0  0  0  0  0  0
   45.2470   36.5436   42.0184 H   0  0  0  0  0  0  0  0  0  0  0  0
   45.8259   33.2666   45.6682 H   0  0  0  0  0  0  0  0  0  0  0  0
   49.6689   36.2030   41.3409 H   0  0  0  0  0  0  0  0  0  0  0  0
   48.4938   35.9602   42.7040 H   0  0  0  0  0  0  0  0  0  0  0  0
   50.9895   34.9442   42.6216 H   0  0  0  0  0  0  0  0  0  0  0  0
   49.5562   34.2317   43.5194 H   0  0  0  0  0  0  0  0  0  0  0  0
   49.4660   33.5548   41.0003 H   0  0  0  0  0  0  0  0  0  0  0  0
   51.5914   31.8055   40.8515 H   0  0  0  0  0  0  0  0  0  0  0  0
   52.4358   32.6660   41.8485 H   0  0  0  0  0  0  0  0  0  0  0  0
   50.3263   31.7261   43.7640 H   0  0  0  0  0  0  0  0  0  0  0  0
   49.1137   29.0092   43.4495 H   0  0  0  0  0  0  0  0  0  0  0  0
   50.0367   30.2726   44.3939 H   0  0  0  0  0  0  0  0  0  0  0  0
   47.8538   30.1003   45.3591 H   0  0  0  0  0  0  0  0  0  0  0  0
   47.9255   31.6345   44.4735 H   0  0  0  0  0  0  0  0  0  0  0  0
   47.3074   29.3794   41.7003 H   0  0  0  0  0  0  0  0  0  0  0  0
   46.1999   30.8245   41.8042 H   0  0  0  0  0  0  0  0  0  0  0  0
   48.3784   31.3885   40.8441 H   0  0  0  0  0  0  0  0  0  0  0  0
   48.0392   32.2255   42.4296 H   0  0  0  0  0  0  0  0  0  0  0  0
  1 12  1  0
  2  1  2  0
  2 16  1  0
  3  2  1  0
  4  3  1  0
  4  9  2  0
  5  4  1  0
  6  5  2  0
  6  7  1  0
  7  8  2  0
  8  9  1  0
  9  1  1  0
 10 15  2  0
 11 10  1  0
 12 11  2  0
 12 13  1  0
 13 14  2  0
 14 15  1  0
 16 17  1  0
 18 17  1  0
 18 20  1  0
 19 18  1  0
 19 20  1  0
 21 20  1  0
 21 22  1  0
 22 23  1  0
 24 23  1  0
 25 24  1  0
 26 25  1  0
 26 21  1  0
  3 27  1  0
  5 28  1  0
  6 29  1  0
  7 30  1  0
  8 31  1  0
 10 32  1  0
 11 33  1  0
 14 34  1  0
 16 35  1  0
 16 36  1  0
 17 37  1  0
 17 38  1  0
 18 39  1  6
 19 40  1  0
 19 41  1  0
 20 42  1  1
 22 43  1  0
 22 44  1  0
 23 45  1  0
 23 46  1  0
 25 47  1  0
 25 48  1  0
 26 49  1  0
 26 50  1  0
M  ISO  8  27   9  28  14  29  14  30  14  31  14  32  14  33  14  34  14
M  ISO  8  35   8  36   8  37   8  38   8  39  13  40  13  41  13  42  13
M  ISO  8  43  13  44  13  45  13  46  13  47  13  48  13  49  13  50  13
M  END
>  <minimizedAffinity>  (1) 
-5.74769974

>  <minimizedRMSD>  (1) 
1.34219313

$$$$
