
     RDKit          3D

 48 50  0  0  0  0  0  0  0  0999 V2000
   46.1544   33.5953   45.2794 C   0  0  2  0  0  0  0  0  0  0  0  0
   44.9235   34.6654   45.4985 C   0  0  0  0  0  0  0  0  0  0  0  0
   44.6897   35.5976   44.4306 C   0  0  0  0  0  0  0  0  0  0  0  0
   45.5098   35.5475   43.2165 C   0  0  1  0  0  0  0  0  0  0  0  0
   46.5880   34.5672   43.1796 C   0  0  0  0  0  0  0  0  0  0  0  0
   46.1508   33.3198   43.9134 C   0  0  0  0  0  0  0  0  0  0  0  0
   45.3853   32.8821   47.5251 C   0  0  0  0  0  0  0  0  0  0  0  0
   45.9072   32.6324   46.2979 C   0  0  0  0  0  0  0  0  0  0  0  0
   46.1503   31.2835   46.0269 C   0  0  0  0  0  0  0  0  0  0  0  0
   45.8918   30.2838   46.9065 N   0  0  0  0  0  0  0  0  0  0  0  0
   45.3592   30.5938   48.1483 C   0  0  0  0  0  0  0  0  0  0  0  0
   45.1211   31.8680   48.4248 N   0  0  0  0  0  0  0  0  0  0  0  0
   45.1131   29.5646   49.0965 N   0  0  0  0  0  0  0  0  0  0  0  0
   46.7488   30.5966   44.8964 C   0  0  0  0  0  0  0  0  0  0  0  0
   46.3605   29.9194   43.7853 C   0  0  0  0  0  0  0  0  0  0  0  0
   47.5191   29.4681   43.1269 C   0  0  0  0  0  0  0  0  0  0  0  0
   48.5395   29.8941   43.8696 N   0  0  0  0  0  0  0  0  0  0  0  0
   48.1141   30.5609   44.9170 N   0  0  0  0  0  0  0  0  0  0  0  0
   44.5162   35.2676   42.0495 C   0  0  0  0  0  0  0  0  0  0  0  0
   43.4611   34.4554   42.4284 F   0  0  0  0  0  0  0  0  0  0  0  0
   43.9615   36.4974   41.7043 F   0  0  0  0  0  0  0  0  0  0  0  0
   45.2129   34.8145   40.9465 F   0  0  0  0  0  0  0  0  0  0  0  0
   46.9504   34.3210   45.6302 H   0  0  0  0  0  0  0  0  0  0  0  0
   44.2302   34.8049   46.3181 H   0  0  0  0  0  0  0  0  0  0  0  0
   43.9070   36.3043   44.5344 H   0  0  0  0  0  0  0  0  0  0  0  0
   45.9171   36.5619   43.0233 H   0  0  0  0  0  0  0  0  0  0  0  0
   46.8504   34.3663   42.1018 H   0  0  0  0  0  0  0  0  0  0  0  0
   47.5337   34.8968   43.6483 H   0  0  0  0  0  0  0  0  0  0  0  0
   47.0232   32.6912   43.5911 H   0  0  0  0  0  0  0  0  0  0  0  0
   45.2125   32.9167   43.4729 H   0  0  0  0  0  0  0  0  0  0  0  0
   45.1631   33.8896   47.8402 H   0  0  0  0  0  0  0  0  0  0  0  0
   44.1962   29.5329   49.6162 H   0  0  0  0  0  0  0  0  0  0  0  0
   45.8372   28.8202   49.2957 H   0  0  0  0  0  0  0  0  0  0  0  0
   45.2981   29.8438   43.6024 H   0  0  0  0  0  0  0  0  0  0  0  0
   47.4296   28.9120   42.2284 H   0  0  0  0  0  0  0  0  0  0  0  0
   49.9392   29.6201   43.5091 C   0  0  0  0  0  0  0  0  0  0  0  0
   50.2723   30.4815   42.2902 C   0  0  0  0  0  0  0  0  0  0  0  0
   50.1299   28.1961   43.0963 C   0  0  0  0  0  0  0  0  0  0  0  0
   50.7846   30.0684   44.6576 C   0  0  0  0  0  0  0  0  0  0  0  0
   50.0904   31.5319   42.5878 H   0  0  0  0  0  0  0  0  0  0  0  0
   51.2965   30.2713   41.9644 H   0  0  0  0  0  0  0  0  0  0  0  0
   49.4949   30.2464   41.5239 H   0  0  0  0  0  0  0  0  0  0  0  0
   49.7929   27.4524   43.8434 H   0  0  0  0  0  0  0  0  0  0  0  0
   49.5957   28.0777   42.1187 H   0  0  0  0  0  0  0  0  0  0  0  0
   51.2018   28.0762   42.8498 H   0  0  0  0  0  0  0  0  0  0  0  0
   50.2277   30.0063   45.6145 H   0  0  0  0  0  0  0  0  0  0  0  0
   51.6975   29.4645   44.6891 H   0  0  0  0  0  0  0  0  0  0  0  0
   51.0982   31.1389   44.5502 H   0  0  0  0  0  0  0  0  0  0  0  0
  1  2  1  0
  1  8  1  0
  3  2  2  0
  4  3  1  0
  5  4  1  0
  5  6  1  0
  6  1  1  0
  7 12  2  0
  8  7  1  0
  9  8  2  0
  9 10  1  0
 10 11  2  0
 11 12  1  0
 11 13  1  0
 14 18  2  0
 14  9  1  0
 15 14  1  0
 16 15  2  0
 16 17  1  0
 17 18  1  0
 19 20  1  0
 19  4  1  0
 21 19  1  0
 22 19  1  0
  1 23  1  1
  2 24  1  0
  3 25  1  0
  4 26  1  6
  5 27  1  0
  5 28  1  0
  6 29  1  0
  6 30  1  0
  7 31  1  0
 13 32  1  0
 13 33  1  0
 15 34  1  0
 16 35  1  0
 36 37  1  0
 36 38  1  0
 36 39  1  0
 37 40  1  0
 37 41  1  0
 37 42  1  0
 38 43  1  0
 38 44  1  0
 38 45  1  0
 39 46  1  0
 39 47  1  0
 39 48  1  0
 17 36  1  0
M  ISO  8  23  13  24  13  25  13  26  13  27  13  28  13  29  13  30  13
M  ISO  3  31  14  34  14  35  14
M  END
>  <DihAtoms>  (1) 
15,16,35,36

>  <DihDeg>  (1) 
146.5313831097956

$$$$
