
     RDKit          3D

 45 48  0  0  0  0  0  0  0  0999 V2000
   44.5720   35.8250   44.5420 C   0  0  0  0  0  0  0  0  0  0  0  0
   45.1660   35.7540   43.2680 C   0  0  0  0  0  0  0  0  0  0  0  0
   46.0750   34.7450   43.0230 C   0  0  0  0  0  0  0  0  0  0  0  0
   46.3540   33.8650   44.0280 N   0  0  0  0  0  0  0  0  0  0  0  0
   45.7720   33.9510   45.2440 C   0  0  0  0  0  0  0  0  0  0  0  0
   44.8720   34.9460   45.4980 N   0  0  0  0  0  0  0  0  0  0  0  0
   46.0850   33.0080   46.2960 C   0  0  0  0  0  0  0  0  0  0  0  0
   45.4020   33.0320   47.4970 C   0  0  0  0  0  0  0  0  0  0  0  0
   45.6430   32.1670   48.5470 C   0  0  0  0  0  0  0  0  0  0  0  0
   46.6250   31.2770   48.2860 C   0  0  0  0  0  0  0  0  0  0  0  0
   47.3530   31.1880   47.1140 C   0  0  0  0  0  0  0  0  0  0  0  0
   47.0300   32.0870   46.1580 N   0  0  0  0  0  0  0  0  0  0  0  0
   44.3790   34.0220   47.6640 N   0  0  0  0  0  0  0  0  0  0  0  0
   46.7020   34.6620   41.6860 C   0  0  0  0  0  0  0  0  0  0  0  0
   48.0350   35.3650   41.6570 C   0  0  0  0  0  0  0  0  0  0  0  0
   49.1730   34.4270   41.8230 C   0  0  0  0  0  0  0  0  0  0  0  0
   50.2200   34.7290   42.5950 N   0  0  0  0  0  0  0  0  0  0  0  0
   51.0440   33.7470   42.5450 O   0  0  0  0  0  0  0  0  0  0  0  0
   50.5820   32.7910   41.7630 C   0  0  0  0  0  0  0  0  0  0  0  0
   49.3740   33.2180   41.2900 N   0  0  0  0  0  0  0  0  0  0  0  0
   51.1760   31.5400   41.4330 N   0  0  0  0  0  0  0  0  0  0  0  0
   51.4870   30.3160   42.1450 C   0  0  0  0  0  0  0  0  0  0  0  0
   52.8250   29.7440   41.8110 C   0  0  0  0  0  0  0  0  0  0  0  0
   53.2220   29.8790   40.4950 O   0  0  0  0  0  0  0  0  0  0  0  0
   53.0720   31.1950   40.0350 C   0  0  0  0  0  0  0  0  0  0  0  0
   51.5690   31.4330   40.0410 C   0  0  0  0  0  0  0  0  0  0  0  0
   43.8448   36.6228   44.7532 H   0  0  0  0  0  0  0  0  0  0  0  0
   44.9118   36.4851   42.4865 H   0  0  0  0  0  0  0  0  0  0  0  0
   45.0916   32.1997   49.4982 H   0  0  0  0  0  0  0  0  0  0  0  0
   46.8682   30.5557   49.0801 H   0  0  0  0  0  0  0  0  0  0  0  0
   48.1424   30.4357   46.9693 H   0  0  0  0  0  0  0  0  0  0  0  0
   43.8485   34.0707   48.5455 H   0  0  0  0  0  0  0  0  0  0  0  0
   44.1744   34.6847   46.9025 H   0  0  0  0  0  0  0  0  0  0  0  0
   46.8502   33.6036   41.4257 H   0  0  0  0  0  0  0  0  0  0  0  0
   46.0364   35.1537   40.9613 H   0  0  0  0  0  0  0  0  0  0  0  0
   48.1410   35.8816   40.6917 H   0  0  0  0  0  0  0  0  0  0  0  0
   48.0589   36.0735   42.4981 H   0  0  0  0  0  0  0  0  0  0  0  0
   51.4604   30.5270   43.2242 H   0  0  0  0  0  0  0  0  0  0  0  0
   50.7369   29.5710   41.8412 H   0  0  0  0  0  0  0  0  0  0  0  0
   53.5737   30.2440   42.4430 H   0  0  0  0  0  0  0  0  0  0  0  0
   52.7418   28.6618   41.9898 H   0  0  0  0  0  0  0  0  0  0  0  0
   53.4780   31.2999   39.0181 H   0  0  0  0  0  0  0  0  0  0  0  0
   53.6124   31.9205   40.6608 H   0  0  0  0  0  0  0  0  0  0  0  0
   51.3292   32.3635   39.5056 H   0  0  0  0  0  0  0  0  0  0  0  0
   51.0340   30.6141   39.5378 H   0  0  0  0  0  0  0  0  0  0  0  0
  1  6  2  0
  2  1  1  0
  3  2  2  0
  3  4  1  0
  4  5  2  0
  5  6  1  0
  5  7  1  0
  7  8  2  0
  8 13  1  0
  8  9  1  0
 10  9  2  0
 11 10  1  0
 12  7  1  0
 12 11  2  0
 14  3  1  0
 15 14  1  0
 15 16  1  0
 16 17  2  0
 18 17  1  0
 19 18  1  0
 20 19  2  0
 20 16  1  0
 21 19  1  0
 21 22  1  0
 23 22  1  0
 24 23  1  0
 25 26  1  0
 25 24  1  0
 26 21  1  0
  1 27  1  0
  2 28  1  0
  9 29  1  0
 10 30  1  0
 11 31  1  0
 13 32  1  0
 13 33  1  0
 14 34  1  0
 14 35  1  0
 15 36  1  0
 15 37  1  0
 22 38  1  0
 22 39  1  0
 23 40  1  0
 23 41  1  0
 25 42  1  0
 25 43  1  0
 26 44  1  0
 26 45  1  0
M  END
>  <minimizedAffinity>  (1) 
-7.42389965

>  <minimizedRMSD>  (1) 
0.295583755

$$$$
