
     RDKit          3D

 48 51  0  0  0  0  0  0  0  0999 V2000
   46.1587   33.5989   45.2792 C   0  0  2  0  0  0  0  0  0  0  0  0
   44.9215   34.6644   45.4991 C   0  0  0  0  0  0  0  0  0  0  0  0
   44.6844   35.5945   44.4309 C   0  0  0  0  0  0  0  0  0  0  0  0
   45.5036   35.5484   43.2182 C   0  0  1  0  0  0  0  0  0  0  0  0
   46.5871   34.5677   43.1777 C   0  0  0  0  0  0  0  0  0  0  0  0
   46.1527   33.3208   43.9134 C   0  0  0  0  0  0  0  0  0  0  0  0
   45.3973   32.8837   47.5284 C   0  0  0  0  0  0  0  0  0  0  0  0
   45.9163   32.6355   46.2987 C   0  0  0  0  0  0  0  0  0  0  0  0
   46.1516   31.2857   46.0275 C   0  0  0  0  0  0  0  0  0  0  0  0
   45.8898   30.2829   46.9039 N   0  0  0  0  0  0  0  0  0  0  0  0
   45.3598   30.5888   48.1480 C   0  0  0  0  0  0  0  0  0  0  0  0
   45.1289   31.8672   48.4267 N   0  0  0  0  0  0  0  0  0  0  0  0
   45.0923   29.5670   49.0933 N   0  0  0  0  0  0  0  0  0  0  0  0
   46.7500   30.5979   44.8974 C   0  0  0  0  0  0  0  0  0  0  0  0
   46.3644   29.9207   43.7859 C   0  0  0  0  0  0  0  0  0  0  0  0
   47.5153   29.4685   43.1278 C   0  0  0  0  0  0  0  0  0  0  0  0
   48.5401   29.8922   43.8693 N   0  0  0  0  0  0  0  0  0  0  0  0
   48.1141   30.5596   44.9162 N   0  0  0  0  0  0  0  0  0  0  0  0
   44.5159   35.2667   42.0490 C   0  0  0  0  0  0  0  0  0  0  0  0
   43.4608   34.4526   42.4270 F   0  0  0  0  0  0  0  0  0  0  0  0
   43.9569   36.4945   41.7044 F   0  0  0  0  0  0  0  0  0  0  0  0
   45.2165   34.8166   40.9461 F   0  0  0  0  0  0  0  0  0  0  0  0
   46.9542   34.3260   45.6258 H   0  0  0  0  0  0  0  0  0  0  0  0
   44.2305   34.7960   46.3228 H   0  0  0  0  0  0  0  0  0  0  0  0
   43.8989   36.2978   44.5339 H   0  0  0  0  0  0  0  0  0  0  0  0
   45.9128   36.5668   43.0339 H   0  0  0  0  0  0  0  0  0  0  0  0
   46.7883   34.3402   42.0885 H   0  0  0  0  0  0  0  0  0  0  0  0
   47.5783   34.9108   43.5621 H   0  0  0  0  0  0  0  0  0  0  0  0
   47.0271   32.6928   43.5945 H   0  0  0  0  0  0  0  0  0  0  0  0
   45.2151   32.9661   43.4372 H   0  0  0  0  0  0  0  0  0  0  0  0
   45.1811   33.8926   47.8443 H   0  0  0  0  0  0  0  0  0  0  0  0
   45.9309   28.9160   49.1515 H   0  0  0  0  0  0  0  0  0  0  0  0
   44.2720   29.3851   49.6782 H   0  0  0  0  0  0  0  0  0  0  0  0
   45.3055   29.8433   43.5982 H   0  0  0  0  0  0  0  0  0  0  0  0
   47.4386   28.9032   42.2151 H   0  0  0  0  0  0  0  0  0  0  0  0
   51.5661   30.5954   44.3406 H   0  0  0  0  0  0  0  0  0  0  0  0
   50.7698   30.0049   44.6267 N   0  0  0  0  0  0  0  0  0  0  0  0
   51.1615   28.7615   45.2625 C   0  0  0  0  0  0  0  0  0  0  0  0
   51.4035   27.8741   44.0491 C   0  0  0  0  0  0  0  0  0  0  0  0
   50.1907   28.1832   43.1980 C   0  0  0  0  0  0  0  0  0  0  0  0
   49.9409   29.6184   43.5127 C   0  0  1  0  0  0  0  0  0  0  0  0
   52.0897   28.9588   45.8112 H   0  0  0  0  0  0  0  0  0  0  0  0
   50.3289   28.3806   45.8600 H   0  0  0  0  0  0  0  0  0  0  0  0
   52.3034   28.2433   43.5235 H   0  0  0  0  0  0  0  0  0  0  0  0
   51.4252   26.8289   44.3540 H   0  0  0  0  0  0  0  0  0  0  0  0
   49.3069   27.5934   43.4552 H   0  0  0  0  0  0  0  0  0  0  0  0
   50.4125   28.0467   42.1092 H   0  0  0  0  0  0  0  0  0  0  0  0
   50.2179   30.2804   42.6454 H   0  0  0  0  0  0  0  0  0  0  0  0
  1  2  1  0
  1  8  1  0
  3  2  2  0
  4  3  1  0
  5  4  1  0
  5  6  1  0
  6  1  1  0
  7 12  2  0
  8  7  1  0
  9  8  2  0
  9 10  1  0
 10 11  2  0
 11 12  1  0
 11 13  1  0
 14 18  2  0
 14  9  1  0
 15 14  1  0
 16 15  2  0
 16 17  1  0
 17 18  1  0
 19 20  1  0
 19  4  1  0
 21 19  1  0
 22 19  1  0
  1 23  1  1
  2 24  1  0
  3 25  1  0
  4 26  1  6
  5 27  1  0
  5 28  1  0
  6 29  1  0
  6 30  1  0
  7 31  1  0
 13 32  1  0
 13 33  1  0
 15 34  1  0
 16 35  1  0
 36 37  1  0
 37 38  1  0
 38 39  1  0
 39 40  1  0
 40 41  1  0
 41 37  1  0
 38 42  1  0
 38 43  1  0
 39 44  1  0
 39 45  1  0
 40 46  1  0
 40 47  1  0
 41 48  1  6
 17 41  1  0
M  ISO  8  23  13  24  13  25  13  26  13  27  13  28  13  29  13  30  13
M  ISO  4  31  14  34  14  35  14  36   5
M  END
>  <DihAtoms>  (1) 
15,16,40,39

>  <DihDeg>  (1) 
40.48746114281791

$$$$
