
     RDKit          3D

 40 42  0  0  0  0  0  0  0  0999 V2000
   45.7770   34.2080   41.3650 C   0  0  0  0  0  0  0  0  0  0  0  0
   47.0740   34.3110   40.9620 C   0  0  0  0  0  0  0  0  0  0  0  0
   47.4840   33.9460   39.6700 C   0  0  0  0  0  0  0  0  0  0  0  0
   46.5380   33.4590   38.7620 C   0  0  0  0  0  0  0  0  0  0  0  0
   45.2430   33.3590   39.1760 C   0  0  0  0  0  0  0  0  0  0  0  0
   44.8660   33.7280   40.4590 C   0  0  0  0  0  0  0  0  0  0  0  0
   44.6590   36.1140   44.4060 C   0  0  0  0  0  0  0  0  0  0  0  0
   44.9380   35.8540   43.0600 C   0  0  0  0  0  0  0  0  0  0  0  0
   45.4460   34.6080   42.7170 C   0  0  0  0  0  0  0  0  0  0  0  0
   45.6430   33.7200   43.6970 N   0  0  0  0  0  0  0  0  0  0  0  0
   45.3620   34.0030   44.9990 C   0  0  0  0  0  0  0  0  0  0  0  0
   44.8720   35.2000   45.3380 N   0  0  0  0  0  0  0  0  0  0  0  0
   45.5890   33.0220   46.0070 N   0  0  0  0  0  0  0  0  0  0  0  0
   45.3140   33.2700   47.3570 C   0  0  0  0  0  0  0  0  0  0  0  0
   44.3460   34.0830   47.6470 N   0  0  0  0  0  0  0  0  0  0  0  0
   46.0850   32.6400   48.3810 N   0  0  0  0  0  0  0  0  0  0  0  0
   44.0770   34.3210   48.6480 H   0  0  0  0  0  0  0  0  0  0  0  0
   43.5050   33.6060   40.8390 N   0  0  0  0  0  0  0  0  0  0  0  0
   42.7960   34.7040   40.4220 C   0  0  0  0  0  0  0  0  0  0  0  0
   41.4200   34.7980   40.6910 C   0  0  0  0  0  0  0  0  0  0  0  0
   40.8280   33.7500   41.3840 C   0  0  0  0  0  0  0  0  0  0  0  0
   39.6000   33.7840   41.6510 O   0  0  0  0  0  0  0  0  0  0  0  0
   41.5710   32.7070   41.7640 N   0  0  0  0  0  0  0  0  0  0  0  0
   42.8860   32.6230   41.5030 C   0  0  0  0  0  0  0  0  0  0  0  0
   43.6510   31.6900   41.8200 O   0  0  0  0  0  0  0  0  0  0  0  0
   40.6090   35.9690   40.2590 C   0  0  0  0  0  0  0  0  0  0  0  0
   47.8236   34.6921   41.6711 H   0  0  0  0  0  0  0  0  0  0  0  0
   48.5392   34.0421   39.3745 H   0  0  0  0  0  0  0  0  0  0  0  0
   46.8306   33.1652   37.7432 H   0  0  0  0  0  0  0  0  0  0  0  0
   44.4820   32.9782   38.4790 H   0  0  0  0  0  0  0  0  0  0  0  0
   44.2554   37.0958   44.6943 H   0  0  0  0  0  0  0  0  0  0  0  0
   44.7590   36.6195   42.2906 H   0  0  0  0  0  0  0  0  0  0  0  0
   45.9666   32.1033   45.7344 H   0  0  0  0  0  0  0  0  0  0  0  0
   45.8763   32.8278   49.3720 H   0  0  0  0  0  0  0  0  0  0  0  0
   46.8497   31.9979   48.1285 H   0  0  0  0  0  0  0  0  0  0  0  0
   43.3054   35.5119   39.8763 H   0  0  0  0  0  0  0  0  0  0  0  0
   41.1180   31.9373   42.2771 H   0  0  0  0  0  0  0  0  0  0  0  0
   40.2379   36.5049   41.1450 H   0  0  0  0  0  0  0  0  0  0  0  0
   41.2333   36.6451   39.6564 H   0  0  0  0  0  0  0  0  0  0  0  0
   39.7565   35.6224   39.6564 H   0  0  0  0  0  0  0  0  0  0  0  0
  1  9  1  0
  2  1  2  0
  3  2  1  0
  4  5  1  0
  4  3  2  0
  5  6  2  0
  6 18  1  0
  6  1  1  0
  7 12  2  0
  8  7  1  0
  9  8  2  0
  9 10  1  0
 10 11  2  0
 11 12  1  0
 11 13  1  0
 13 14  1  0
 14 15  2  0
 14 16  1  0
 15 17  1  0
 18 24  1  0
 19 20  2  0
 19 18  1  0
 20 21  1  0
 21 22  2  0
 21 23  1  0
 24 23  1  0
 24 25  2  0
 26 20  1  0
  2 27  1  0
  3 28  1  0
  4 29  1  0
  5 30  1  0
  7 31  1  0
  8 32  1  0
 13 33  1  0
 16 34  1  0
 16 35  1  0
 19 36  1  0
 23 37  1  0
 26 38  1  0
 26 39  1  0
 26 40  1  0
M  ISO  8  27  14  28  14  29  14  30  14  31  14  32  14  36  14  37   9
M  ISO  3  38   8  39   8  40   8
M  END
>  <minimizedAffinity>  (1) 
-7.9946909

>  <minimizedRMSD>  (1) 
1.04518855

$$$$
