
     RDKit          3D

 33 34  0  0  0  0  0  0  0  0999 V2000
   47.5450   33.7890   42.6190 C   0  0  0  0  0  0  0  0  0  0  0  0
   48.4000   34.9740   42.2050 C   0  0  0  0  0  0  0  0  0  0  0  0
   49.8350   34.8440   42.5840 C   0  0  0  0  0  0  0  0  0  0  0  0
   50.4780   33.5610   42.1380 C   0  0  0  0  0  0  0  0  0  0  0  0
   49.4430   32.4930   41.8770 C   0  0  0  0  0  0  0  0  0  0  0  0
   48.4090   32.6190   42.9790 C   0  0  0  0  0  0  0  0  0  0  0  0
   45.6650   33.9520   45.8860 C   0  0  0  0  0  0  0  0  0  0  0  0
   46.5960   33.5440   44.9360 C   0  0  0  0  0  0  0  0  0  0  0  0
   46.5740   34.1560   43.6840 C   0  0  0  0  0  0  0  0  0  0  0  0
   45.6450   35.1280   43.4430 N   0  0  0  0  0  0  0  0  0  0  0  0
   44.7410   35.5100   44.3990 C   0  0  0  0  0  0  0  0  0  0  0  0
   44.7650   34.9220   45.5930 N   0  0  0  0  0  0  0  0  0  0  0  0
   45.6280   33.3820   47.1870 N   0  0  0  0  0  0  0  0  0  0  0  0
   45.1450   32.0820   47.4730 C   0  0  0  0  0  0  0  0  0  0  0  0
   45.5730   31.1510   46.6670 N   0  0  0  0  0  0  0  0  0  0  0  0
   44.2520   31.9010   48.5940 N   0  0  0  0  0  0  0  0  0  0  0  0
   45.2390   30.1850   46.8460 H   0  0  0  0  0  0  0  0  0  0  0  0
   46.9329   33.4794   41.7590 H   0  0  0  0  0  0  0  0  0  0  0  0
   47.9955   35.8775   42.6846 H   0  0  0  0  0  0  0  0  0  0  0  0
   48.3630   35.0266   41.1069 H   0  0  0  0  0  0  0  0  0  0  0  0
   50.3877   35.6814   42.1332 H   0  0  0  0  0  0  0  0  0  0  0  0
   49.8725   34.8500   43.6833 H   0  0  0  0  0  0  0  0  0  0  0  0
   51.0438   33.7459   41.2130 H   0  0  0  0  0  0  0  0  0  0  0  0
   51.1463   33.2100   42.9381 H   0  0  0  0  0  0  0  0  0  0  0  0
   48.9732   32.6507   40.8949 H   0  0  0  0  0  0  0  0  0  0  0  0
   49.8974   31.4913   41.8697 H   0  0  0  0  0  0  0  0  0  0  0  0
   48.9033   32.7947   43.9458 H   0  0  0  0  0  0  0  0  0  0  0  0
   47.8138   31.6988   43.0735 H   0  0  0  0  0  0  0  0  0  0  0  0
   47.3306   32.7585   45.1671 H   0  0  0  0  0  0  0  0  0  0  0  0
   44.0021   36.2954   44.1819 H   0  0  0  0  0  0  0  0  0  0  0  0
   45.9748   33.9509   47.9725 H   0  0  0  0  0  0  0  0  0  0  0  0
   43.8901   30.9630   48.8179 H   0  0  0  0  0  0  0  0  0  0  0  0
   43.9772   32.7099   49.1694 H   0  0  0  0  0  0  0  0  0  0  0  0
  1  6  1  0
  1  9  1  0
  2  3  1  0
  2  1  1  0
  4  3  1  0
  5  4  1  0
  5  6  1  0
  7 13  1  0
  8  7  2  0
  9  8  1  0
 10  9  2  0
 10 11  1  0
 11 12  2  0
 12  7  1  0
 13 14  1  0
 14 16  1  0
 15 17  1  0
 15 14  2  0
  1 18  1  0
  2 19  1  0
  2 20  1  0
  3 21  1  0
  3 22  1  0
  4 23  1  0
  4 24  1  0
  5 25  1  0
  5 26  1  0
  6 27  1  0
  6 28  1  0
  8 29  1  0
 11 30  1  0
 13 31  1  0
 16 32  1  0
 16 33  1  0
M  ISO  8  18  13  19  13  20  13  21  13  22  13  23  13  24  13  25  13
M  ISO  5  26  13  27  13  28  13  29  14  30  14
M  END
>  <minimizedAffinity>  (1) 
-6.08402252

>  <minimizedRMSD>  (1) 
3.98932481

$$$$
