
     RDKit          3D

 45 47  0  0  1  0  0  0  0  0999 V2000
   44.3260   34.5910   42.0860 C   0  0  0  0  0  0  0  0  0  0  0  0
   43.7000   33.5400   41.2520 C   0  0  1  0  0  0  0  0  0  0  0  0
   42.2360   33.6320   41.2240 C   0  0  0  0  0  0  0  0  0  0  0  0
   41.6340   34.9210   41.0210 C   0  0  0  0  0  0  0  0  0  0  0  0
   40.2380   35.0520   40.9840 C   0  0  0  0  0  0  0  0  0  0  0  0
   39.5240   33.9160   41.1480 N   0  0  0  0  0  0  0  0  0  0  0  0
   40.0920   32.7390   41.3330 C   0  0  0  0  0  0  0  0  0  0  0  0
   41.4450   32.5620   41.3770 N   0  0  0  0  0  0  0  0  0  0  0  0
   39.2810   31.5180   41.5040 C   0  0  0  0  0  0  0  0  0  0  0  0
   39.8930   30.3940   42.0980 C   0  0  0  0  0  0  0  0  0  0  0  0
   38.4610   29.1810   42.0660 S   0  0  0  0  0  0  0  0  0  0  0  0
   37.3330   30.4490   41.2560 C   0  0  0  0  0  0  0  0  0  0  0  0
   38.0270   31.3220   41.1700 N   0  0  0  0  0  0  0  0  0  0  0  0
   44.2430   33.6010   39.8420 C   0  0  0  0  0  0  0  0  0  0  0  0
   45.5450   34.2530   42.7090 N   0  0  0  0  0  0  0  0  0  0  0  0
   45.9620   33.2550   43.6400 C   0  0  0  0  0  0  0  0  0  0  0  0
   46.8370   32.2810   43.2330 C   0  0  0  0  0  0  0  0  0  0  0  0
   47.2690   31.2870   44.1010 C   0  0  0  0  0  0  0  0  0  0  0  0
   46.7860   31.3300   45.3530 N   0  0  0  0  0  0  0  0  0  0  0  0
   45.9240   32.2950   45.7400 C   0  0  0  0  0  0  0  0  0  0  0  0
   45.5000   33.2610   44.9110 N   0  0  0  0  0  0  0  0  0  0  0  0
   45.4520   32.2820   47.0840 N   0  0  0  0  0  0  0  0  0  0  0  0
   46.3800   32.3880   48.1560 C   0  0  0  0  0  0  0  0  0  0  0  0
   47.5710   32.8550   47.9870 N   0  0  0  0  0  0  0  0  0  0  0  0
   45.9840   31.9660   49.4530 N   0  0  0  0  0  0  0  0  0  0  0  0
   48.2770   32.9500   48.7310 H   0  0  0  0  0  0  0  0  0  0  0  0
   46.6970   35.0090   42.4350 C   0  0  0  0  0  0  0  0  0  0  0  0
   47.6890   34.7570   43.3380 F   0  0  0  0  0  0  0  0  0  0  0  0
   46.2910   36.3550   42.6840 F   0  0  0  0  0  0  0  0  0  0  0  0
   47.1600   34.9240   41.1510 F   0  0  0  0  0  0  0  0  0  0  0  0
   43.6102   34.8621   42.8760 H   0  0  0  0  0  0  0  0  0  0  0  0
   44.5692   35.4089   41.3919 H   0  0  0  0  0  0  0  0  0  0  0  0
   43.9564   32.5747   41.7130 H   0  0  0  0  0  0  0  0  0  0  0  0
   42.2708   35.8089   40.8941 H   0  0  0  0  0  0  0  0  0  0  0  0
   39.7508   36.0261   40.8299 H   0  0  0  0  0  0  0  0  0  0  0  0
   40.9189   30.2651   42.4735 H   0  0  0  0  0  0  0  0  0  0  0  0
   36.2802   30.3574   40.9507 H   0  0  0  0  0  0  0  0  0  0  0  0
   45.3356   33.7237   39.8749 H   0  0  0  0  0  0  0  0  0  0  0  0
   43.9944   32.6693   39.3127 H   0  0  0  0  0  0  0  0  0  0  0  0
   43.7939   34.4543   39.3127 H   0  0  0  0  0  0  0  0  0  0  0  0
   47.2048   32.2872   42.1963 H   0  0  0  0  0  0  0  0  0  0  0  0
   47.9714   30.5040   43.7792 H   0  0  0  0  0  0  0  0  0  0  0  0
   44.4441   32.1963   47.2781 H   0  0  0  0  0  0  0  0  0  0  0  0
   46.6436   32.0357   50.2410 H   0  0  0  0  0  0  0  0  0  0  0  0
   45.0372   31.5902   49.6056 H   0  0  0  0  0  0  0  0  0  0  0  0
  1 15  1  0
  2  1  1  0
  3  2  1  0
  3  8  1  0
  4  3  2  0
  5  4  1  0
  5  6  2  0
  6  7  1  0
  7  8  2  0
  7  9  1  0
  9 10  2  0
 11 10  1  0
 12 11  1  0
 13 12  2  0
 13  9  1  0
 14  2  1  0
 15 16  1  0
 16 21  1  0
 17 16  2  0
 17 18  1  0
 18 19  2  0
 19 20  1  0
 20 22  1  0
 21 20  2  0
 22 23  1  0
 23 25  1  0
 24 23  2  0
 24 26  1  0
 27 29  1  0
 27 15  1  0
 27 28  1  0
 30 27  1  0
  1 31  1  0
  1 32  1  0
  2 33  1  1
  4 34  1  0
  5 35  1  0
 10 36  1  0
 12 37  1  0
 14 38  1  0
 14 39  1  0
 14 40  1  0
 17 41  1  0
 18 42  1  0
 22 43  1  0
 25 44  1  0
 25 45  1  0
M  ISO  8  31   8  32   8  33   8  34  14  35  14  36  14  37  14  38   8
M  ISO  4  39   8  40   8  41  14  42  14
M  END
>  <minimizedAffinity>  (1) 
-6.73360634

>  <minimizedRMSD>  (1) 
0.888503969

$$$$
