
     RDKit          3D

 44 47  0  0  0  0  0  0  0  0999 V2000
   46.1545   33.5952   45.2795 C   0  0  2  0  0  0  0  0  0  0  0  0
   44.9145   34.6597   45.4956 C   0  0  0  0  0  0  0  0  0  0  0  0
   44.6863   35.5969   44.4304 C   0  0  0  0  0  0  0  0  0  0  0  0
   45.5088   35.5494   43.2190 C   0  0  1  0  0  0  0  0  0  0  0  0
   46.5859   34.5708   43.1827 C   0  0  0  0  0  0  0  0  0  0  0  0
   46.1526   33.3203   43.9140 C   0  0  0  0  0  0  0  0  0  0  0  0
   45.3906   32.8810   47.5275 C   0  0  0  0  0  0  0  0  0  0  0  0
   45.9104   32.6334   46.3003 C   0  0  0  0  0  0  0  0  0  0  0  0
   46.1499   31.2838   46.0276 C   0  0  0  0  0  0  0  0  0  0  0  0
   45.8900   30.2818   46.9047 N   0  0  0  0  0  0  0  0  0  0  0  0
   45.3585   30.5965   48.1475 C   0  0  0  0  0  0  0  0  0  0  0  0
   45.1245   31.8673   48.4250 N   0  0  0  0  0  0  0  0  0  0  0  0
   45.1116   29.5665   49.0974 N   0  0  0  0  0  0  0  0  0  0  0  0
   46.7517   30.5969   44.8968 C   0  0  0  0  0  0  0  0  0  0  0  0
   46.3619   29.9191   43.7882 C   0  0  0  0  0  0  0  0  0  0  0  0
   47.5127   29.4678   43.1278 C   0  0  0  0  0  0  0  0  0  0  0  0
   48.5379   29.8936   43.8666 N   0  0  0  0  0  0  0  0  0  0  0  0
   48.1160   30.5613   44.9143 N   0  0  0  0  0  0  0  0  0  0  0  0
   44.5181   35.2671   42.0491 C   0  0  0  0  0  0  0  0  0  0  0  0
   43.4620   34.4538   42.4245 F   0  0  0  0  0  0  0  0  0  0  0  0
   43.9647   36.4978   41.7037 F   0  0  0  0  0  0  0  0  0  0  0  0
   45.2149   34.8149   40.9460 F   0  0  0  0  0  0  0  0  0  0  0  0
   46.9005   34.3667   45.6388 H   0  0  0  0  0  0  0  0  0  0  0  0
   44.2175   34.7859   46.3134 H   0  0  0  0  0  0  0  0  0  0  0  0
   43.9010   36.2984   44.5333 H   0  0  0  0  0  0  0  0  0  0  0  0
   45.9140   36.5661   43.0340 H   0  0  0  0  0  0  0  0  0  0  0  0
   47.5522   34.9370   43.6113 H   0  0  0  0  0  0  0  0  0  0  0  0
   46.8386   34.3694   42.1001 H   0  0  0  0  0  0  0  0  0  0  0  0
   47.0209   32.6914   43.5862 H   0  0  0  0  0  0  0  0  0  0  0  0
   45.2121   32.9601   43.4459 H   0  0  0  0  0  0  0  0  0  0  0  0
   45.1720   33.8901   47.8402 H   0  0  0  0  0  0  0  0  0  0  0  0
   44.1629   29.3977   49.5372 H   0  0  0  0  0  0  0  0  0  0  0  0
   45.8752   28.9219   49.4046 H   0  0  0  0  0  0  0  0  0  0  0  0
   45.3058   29.8380   43.6001 H   0  0  0  0  0  0  0  0  0  0  0  0
   47.4387   28.9068   42.2242 H   0  0  0  0  0  0  0  0  0  0  0  0
   49.9120   29.6278   43.5153 C   0  0  0  0  0  0  0  0  0  0  0  0
   50.2724   29.2896   42.2299 C   0  0  0  0  0  0  0  0  0  0  0  0
   51.5725   29.0276   41.8507 C   0  0  0  0  0  0  0  0  0  0  0  0
   52.5236   29.1119   42.7999 N   0  0  0  0  0  0  0  0  0  0  0  0
   52.1720   29.4449   44.0678 C   0  0  0  0  0  0  0  0  0  0  0  0
   52.9983   29.4836   44.7390 H   0  0  0  0  0  0  0  0  0  0  0  0
   50.8947   29.7017   44.4375 N   0  0  0  0  0  0  0  0  0  0  0  0
   49.4487   29.2411   41.5168 H   0  0  0  0  0  0  0  0  0  0  0  0
   51.7115   28.7716   40.7973 H   0  0  0  0  0  0  0  0  0  0  0  0
  1  2  1  0
  1  8  1  0
  3  2  2  0
  4  3  1  0
  5  4  1  0
  5  6  1  0
  6  1  1  0
  7 12  2  0
  8  7  1  0
  9  8  2  0
  9 10  1  0
 10 11  2  0
 11 12  1  0
 11 13  1  0
 14 18  2  0
 14  9  1  0
 15 14  1  0
 16 15  2  0
 16 17  1  0
 17 18  1  0
 19 20  1  0
 19  4  1  0
 21 19  1  0
 22 19  1  0
  1 23  1  1
  2 24  1  0
  3 25  1  0
  4 26  1  6
  5 27  1  0
  5 28  1  0
  6 29  1  0
  6 30  1  0
  7 31  1  0
 13 32  1  0
 13 33  1  0
 15 34  1  0
 16 35  1  0
 36 37  2  0
 37 38  1  0
 38 39  2  0
 39 40  1  0
 40 41  1  0
 40 42  2  0
 42 36  1  0
 37 43  1  0
 38 44  1  0
 17 36  1  0
M  ISO  8  23  13  24  13  25  13  26  13  27  13  28  13  29  13  30  13
M  ISO  4  31  14  34  14  35  14  41  14
M  END
>  <DihAtoms>  (1) 
15,16,35,36

>  <DihDeg>  (1) 
20.078705997750212

$$$$
