
     RDKit          3D

 36 38  0  0  0  0  0  0  0  0999 V2000
   47.5400   34.1350   42.1720 C   0  0  0  0  0  0  0  0  0  0  0  0
   48.4820   35.2360   41.7810 C   0  0  0  0  0  0  0  0  0  0  0  0
   49.8100   35.1990   42.4170 C   0  0  0  0  0  0  0  0  0  0  0  0
   50.4470   33.8480   42.4580 C   0  0  0  0  0  0  0  0  0  0  0  0
   49.5230   32.7210   42.0670 C   0  0  0  0  0  0  0  0  0  0  0  0
   48.2060   32.9420   42.7980 C   0  0  0  0  0  0  0  0  0  0  0  0
   45.2860   34.4270   45.0980 C   0  0  0  0  0  0  0  0  0  0  0  0
   44.5780   35.5950   44.8370 C   0  0  0  0  0  0  0  0  0  0  0  0
   44.8810   36.2770   43.6620 C   0  0  0  0  0  0  0  0  0  0  0  0
   45.8360   35.7730   42.8440 N   0  0  0  0  0  0  0  0  0  0  0  0
   46.5080   34.6280   43.1310 C   0  0  0  0  0  0  0  0  0  0  0  0
   46.2170   33.9580   44.2770 N   0  0  0  0  0  0  0  0  0  0  0  0
   46.8540   33.6410   40.9230 C   0  0  0  0  0  0  0  0  0  0  0  0
   45.7170   32.9280   40.5910 C   0  0  0  0  0  0  0  0  0  0  0  0
   45.4840   32.7020   39.2870 C   0  0  0  0  0  0  0  0  0  0  0  0
   46.3070   33.1440   38.3240 C   0  0  0  0  0  0  0  0  0  0  0  0
   47.6320   34.0130   39.3180 S   0  0  0  0  0  0  0  0  0  0  0  0
   46.3660   33.0910   36.9100 C   0  0  0  0  0  0  0  0  0  0  0  0
   47.4800   32.6990   36.4870 O   0  0  0  0  0  0  0  0  0  0  0  0
   45.3060   33.4370   36.1160 O   0  0  0  0  0  0  0  0  0  0  0  0
   48.6278   35.1847   40.6919 H   0  0  0  0  0  0  0  0  0  0  0  0
   48.0114   36.1685   42.1258 H   0  0  0  0  0  0  0  0  0  0  0  0
   50.4755   35.8745   41.8595 H   0  0  0  0  0  0  0  0  0  0  0  0
   49.6610   35.5033   43.4635 H   0  0  0  0  0  0  0  0  0  0  0  0
   51.3033   33.8484   41.7676 H   0  0  0  0  0  0  0  0  0  0  0  0
   50.7440   33.6681   43.5017 H   0  0  0  0  0  0  0  0  0  0  0  0
   49.3564   32.7306   40.9797 H   0  0  0  0  0  0  0  0  0  0  0  0
   49.9596   31.7479   42.3361 H   0  0  0  0  0  0  0  0  0  0  0  0
   48.3954   33.1335   43.8645 H   0  0  0  0  0  0  0  0  0  0  0  0
   47.5637   32.0525   42.7192 H   0  0  0  0  0  0  0  0  0  0  0  0
   45.0658   33.8703   46.0208 H   0  0  0  0  0  0  0  0  0  0  0  0
   43.8093   35.9652   45.5313 H   0  0  0  0  0  0  0  0  0  0  0  0
   44.3549   37.2076   43.4026 H   0  0  0  0  0  0  0  0  0  0  0  0
   45.0285   32.5593   41.3656 H   0  0  0  0  0  0  0  0  0  0  0  0
   44.5868   32.1345   38.9989 H   0  0  0  0  0  0  0  0  0  0  0  0
   45.3881   33.3860   35.1307 H   0  0  0  0  0  0  0  0  0  0  0  0
  1  6  1  0
  1 11  1  0
  2  1  1  0
  2  3  1  0
  3  4  1  0
  5  4  1  0
  5  6  1  0
  8  7  2  0
  9  8  1  0
 10 11  1  0
 10  9  2  0
 11 12  2  0
 12  7  1  0
 13  1  1  0
 14 13  2  0
 15 14  1  0
 16 15  2  0
 16 17  1  0
 17 13  1  0
 18 16  1  0
 19 18  2  0
 20 18  1  0
  2 21  1  0
  2 22  1  0
  3 23  1  0
  3 24  1  0
  4 25  1  0
  4 26  1  0
  5 27  1  0
  5 28  1  0
  6 29  1  0
  6 30  1  0
  7 31  1  0
  8 32  1  0
  9 33  1  0
 14 34  1  0
 15 35  1  0
 20 36  1  0
M  ISO  8  21  13  22  13  23  13  24  13  25  13  26  13  27  13  28  13
M  ISO  8  29  13  30  13  31  14  32  14  33  14  34  14  35  14  36   3
M  END
>  <minimizedAffinity>  (1) 
-5.97233772

>  <minimizedRMSD>  (1) 
0.475204498

$$$$
