
     RDKit          3D

 40 43  0  0  1  0  0  0  0  0999 V2000
   46.9470   34.5140   41.3100 C   0  0  0  0  0  0  0  0  0  0  0  0
   48.2160   34.9620   40.9640 C   0  0  0  0  0  0  0  0  0  0  0  0
   48.4730   34.6580   39.7040 N   0  0  0  0  0  0  0  0  0  0  0  0
   47.3850   34.0130   39.2150 C   0  0  0  0  0  0  0  0  0  0  0  0
   47.1380   33.4840   37.9520 C   0  0  0  0  0  0  0  0  0  0  0  0
   45.9480   32.8800   37.7180 C   0  0  0  0  0  0  0  0  0  0  0  0
   44.9330   32.7390   38.6480 C   0  0  0  0  0  0  0  0  0  0  0  0
   45.2210   33.2790   39.8880 C   0  0  0  0  0  0  0  0  0  0  0  0
   46.4040   33.9050   40.1990 C   0  0  0  0  0  0  0  0  0  0  0  0
   44.7810   35.8600   44.0510 C   0  0  0  0  0  0  0  0  0  0  0  0
   45.4250   35.7430   42.8000 C   0  0  0  0  0  0  0  0  0  0  0  0
   46.2740   34.6450   42.6050 C   0  0  0  0  0  0  0  0  0  0  0  0
   46.4490   33.7410   43.6130 N   0  0  0  0  0  0  0  0  0  0  0  0
   45.8010   33.9100   44.7940 C   0  0  0  0  0  0  0  0  0  0  0  0
   44.9830   34.9380   45.0290 N   0  0  0  0  0  0  0  0  0  0  0  0
   49.1080   35.6670   41.8980 C   0  0  0  0  0  0  0  0  0  0  0  0
   50.0090   34.7120   42.6390 C   0  0  0  0  0  0  0  0  0  0  0  0
   50.2890   33.4370   41.9170 C   0  0  1  0  0  0  0  0  0  0  0  0
   51.0170   32.3090   42.4940 C   0  0  0  0  0  0  0  0  0  0  0  0
   49.5430   32.2090   42.5120 C   0  0  2  0  0  0  0  0  0  0  0  0
   48.9700   31.2450   41.5260 C   0  0  0  0  0  0  0  0  0  0  0  0
   48.0240   30.4560   41.7900 O   0  0  0  0  0  0  0  0  0  0  0  0
   49.5250   31.2250   40.2330 O   0  0  0  0  0  0  0  0  0  0  0  0
   49.3390   34.8714   39.1889 H   0  0  0  0  0  0  0  0  0  0  0  0
   47.8955   33.5549   37.1575 H   0  0  0  0  0  0  0  0  0  0  0  0
   45.7755   32.4704   36.7118 H   0  0  0  0  0  0  0  0  0  0  0  0
   43.9793   32.2403   38.4205 H   0  0  0  0  0  0  0  0  0  0  0  0
   44.4555   33.2027   40.6743 H   0  0  0  0  0  0  0  0  0  0  0  0
   44.1066   36.7089   44.2367 H   0  0  0  0  0  0  0  0  0  0  0  0
   45.2660   36.4876   42.0061 H   0  0  0  0  0  0  0  0  0  0  0  0
   45.9568   33.1681   45.5911 H   0  0  0  0  0  0  0  0  0  0  0  0
   49.7295   36.3756   41.3308 H   0  0  0  0  0  0  0  0  0  0  0  0
   48.4844   36.1920   42.6365 H   0  0  0  0  0  0  0  0  0  0  0  0
   50.9674   35.2187   42.8251 H   0  0  0  0  0  0  0  0  0  0  0  0
   49.4800   34.4375   43.5635 H   0  0  0  0  0  0  0  0  0  0  0  0
   50.4168   33.9711   40.9639 H   0  0  0  0  0  0  0  0  0  0  0  0
   51.5941   31.6454   41.8333 H   0  0  0  0  0  0  0  0  0  0  0  0
   51.7879   32.2289   43.2746 H   0  0  0  0  0  0  0  0  0  0  0  0
   48.7589   32.0572   43.2684 H   0  0  0  0  0  0  0  0  0  0  0  0
   50.2691   31.8366   40.0042 H   0  0  0  0  0  0  0  0  0  0  0  0
  1 12  1  0
  2  1  2  0
  2 16  1  0
  3  2  1  0
  4  3  1  0
  4  9  2  0
  5  4  1  0
  6  5  2  0
  6  7  1  0
  7  8  2  0
  8  9  1  0
  9  1  1  0
 10 15  2  0
 11 10  1  0
 12 11  2  0
 12 13  1  0
 13 14  2  0
 14 15  1  0
 16 17  1  0
 18 19  1  0
 18 20  1  0
 18 17  1  0
 19 20  1  0
 21 22  2  0
 21 20  1  0
 23 21  1  0
  3 24  1  0
  5 25  1  0
  6 26  1  0
  7 27  1  0
  8 28  1  0
 10 29  1  0
 11 30  1  0
 14 31  1  0
 16 32  1  0
 16 33  1  0
 17 34  1  0
 17 35  1  0
 18 36  1  6
 19 37  1  0
 19 38  1  0
 20 39  1  1
 23 40  1  0
M  ISO  8  24   9  25  14  26  14  27  14  28  14  29  14  30  14  31  14
M  ISO  8  32   8  33   8  34   8  35   8  36  13  37  13  38  13  39  13
M  ISO  1  40   3
M  END
>  <minimizedAffinity>  (1) 
-5.68330479

>  <minimizedRMSD>  (1) 
0.113275386

$$$$
