
     RDKit          3D

 14 14  0  0  0  0  0  0  0  0999 V2000
   44.3950   35.6680   44.3240 C   0  0  0  0  0  0  0  0  0  0  0  0
   44.4870   34.9300   43.1250 C   0  0  0  0  0  0  0  0  0  0  0  0
   45.0400   33.6450   43.1660 C   0  0  0  0  0  0  0  0  0  0  0  0
   45.4640   33.1770   44.3880 N   0  0  0  0  0  0  0  0  0  0  0  0
   45.3570   33.9170   45.5040 C   0  0  0  0  0  0  0  0  0  0  0  0
   44.8340   35.1370   45.4800 N   0  0  0  0  0  0  0  0  0  0  0  0
   43.9080   35.6140   41.5630 S   0  0  0  0  0  0  0  0  0  0  0  0
   45.8300   33.3500   46.7620 C   0  0  0  0  0  0  0  0  0  0  0  0
   45.0410   32.9570   47.6570 O   0  0  0  0  0  0  0  0  0  0  0  0
   47.2060   33.2300   47.0030 O   0  0  0  0  0  0  0  0  0  0  0  0
   43.9634   36.6798   44.3138 H   0  0  0  0  0  0  0  0  0  0  0  0
   45.1320   33.0332   42.2565 H   0  0  0  0  0  0  0  0  0  0  0  0
   43.0373   36.6426   41.8097 H   0  0  0  0  0  0  0  0  0  0  0  0
   47.5273   32.8452   47.8567 H   0  0  0  0  0  0  0  0  0  0  0  0
  1  6  2  0
  2  3  2  0
  2  1  1  0
  3  4  1  0
  4  5  2  0
  5  8  1  0
  6  5  1  0
  7  2  1  0
  8 10  1  0
  8  9  2  0
  1 11  1  0
  3 12  1  0
  7 13  1  0
 10 14  1  0
M  ISO  4  11  14  12  14  13  11  14   3
M  END
>  <minimizedAffinity>  (1) 
-3.68298674

>  <minimizedRMSD>  (1) 
0.400118768

$$$$
