
     RDKit          3D

 32 32  0  0  0  0  0  0  0  0999 V2000
   44.8000   35.3330   44.8510 C   0  0  0  0  0  0  0  0  0  0  0  0
   45.6440   34.8240   43.8890 C   0  0  0  0  0  0  0  0  0  0  0  0
   46.3750   33.6950   44.1890 C   0  0  0  0  0  0  0  0  0  0  0  0
   46.2170   33.1440   45.4340 N   0  0  0  0  0  0  0  0  0  0  0  0
   45.3980   33.6490   46.3510 C   0  0  0  0  0  0  0  0  0  0  0  0
   44.7070   34.7320   46.0410 N   0  0  0  0  0  0  0  0  0  0  0  0
   45.7760   35.4590   42.5580 C   0  0  0  0  0  0  0  0  0  0  0  0
   44.8490   36.5020   42.5030 F   0  0  0  0  0  0  0  0  0  0  0  0
   45.3410   34.6010   41.5480 F   0  0  0  0  0  0  0  0  0  0  0  0
   47.0230   35.8980   42.2740 F   0  0  0  0  0  0  0  0  0  0  0  0
   47.2940   33.0050   43.3440 C   0  0  0  0  0  0  0  0  0  0  0  0
   46.9500   32.2160   42.4200 O   0  0  0  0  0  0  0  0  0  0  0  0
   48.6160   32.8560   43.1260 O   0  0  0  0  0  0  0  0  0  0  0  0
   49.4550   33.5380   42.2720 C   0  0  0  0  0  0  0  0  0  0  0  0
   49.6890   34.9750   42.6980 C   0  0  0  0  0  0  0  0  0  0  0  0
   50.7890   32.9110   42.0460 C   0  0  0  0  0  0  0  0  0  0  0  0
   48.7290   33.6090   40.9450 C   0  0  0  0  0  0  0  0  0  0  0  0
   45.2170   33.1160   47.6170 O   0  0  0  0  0  0  0  0  0  0  0  0
   46.1250   32.2370   48.2260 C   0  0  0  0  0  0  0  0  0  0  0  0
   47.4030   32.7490   48.2300 F   0  0  0  0  0  0  0  0  0  0  0  0
   46.0600   30.9820   47.7070 F   0  0  0  0  0  0  0  0  0  0  0  0
   45.7730   32.1920   49.5890 F   0  0  0  0  0  0  0  0  0  0  0  0
   44.2034   36.2328   44.6402 H   0  0  0  0  0  0  0  0  0  0  0  0
   49.6988   35.0349   43.7963 H   0  0  0  0  0  0  0  0  0  0  0  0
   50.6554   35.3217   42.3033 H   0  0  0  0  0  0  0  0  0  0  0  0
   48.8825   35.6104   42.3033 H   0  0  0  0  0  0  0  0  0  0  0  0
   51.2592   32.6900   43.0155 H   0  0  0  0  0  0  0  0  0  0  0  0
   50.6638   31.9774   41.4779 H   0  0  0  0  0  0  0  0  0  0  0  0
   51.4279   33.6031   41.4779 H   0  0  0  0  0  0  0  0  0  0  0  0
   47.6487   33.7146   41.1233 H   0  0  0  0  0  0  0  0  0  0  0  0
   49.0929   34.4758   40.3739 H   0  0  0  0  0  0  0  0  0  0  0  0
   48.9180   32.6881   40.3739 H   0  0  0  0  0  0  0  0  0  0  0  0
  1  6  2  0
  2  3  2  0
  2  1  1  0
  3  4  1  0
  4  5  2  0
  5 18  1  0
  6  5  1  0
  7  2  1  0
  8  7  1  0
  9  7  1  0
 10  7  1  0
 11  3  1  0
 12 11  2  0
 13 11  1  0
 14 15  1  0
 14 13  1  0
 16 14  1  0
 17 14  1  0
 18 19  1  0
 19 20  1  0
 19 22  1  0
 21 19  1  0
  1 23  1  0
 15 24  1  0
 15 25  1  0
 15 26  1  0
 16 27  1  0
 16 28  1  0
 16 29  1  0
 17 30  1  0
 17 31  1  0
 17 32  1  0
M  ISO  8  23  14  24   8  25   8  26   8  27   8  28   8  29   8  30   8
M  ISO  2  31   8  32   8
M  END
>  <minimizedAffinity>  (1) 
-5.6625638

>  <minimizedRMSD>  (1) 
0.954184711

$$$$
