
     RDKit          3D

 47 51  0  0  1  0  0  0  0  0999 V2000
   45.7680   33.8370   45.4860 C   0  0  0  0  0  0  0  0  0  0  0  0
   46.5620   33.8470   44.3420 C   0  0  0  0  0  0  0  0  0  0  0  0
   46.3380   34.8180   43.3710 C   0  0  0  0  0  0  0  0  0  0  0  0
   45.3520   35.7220   43.5730 N   0  0  0  0  0  0  0  0  0  0  0  0
   44.5910   35.6980   44.6890 C   0  0  0  0  0  0  0  0  0  0  0  0
   44.8050   34.7580   45.6350 N   0  0  0  0  0  0  0  0  0  0  0  0
   47.1780   34.8130   42.1810 C   0  0  0  0  0  0  0  0  0  0  0  0
   48.4390   35.3910   42.0530 C   0  0  0  0  0  0  0  0  0  0  0  0
   48.9120   35.1910   40.8200 N   0  0  0  0  0  0  0  0  0  0  0  0
   47.9660   34.4860   40.1480 C   0  0  0  0  0  0  0  0  0  0  0  0
   47.9510   34.0180   38.8420 C   0  0  0  0  0  0  0  0  0  0  0  0
   46.8660   33.3200   38.3880 C   0  0  0  0  0  0  0  0  0  0  0  0
   45.7460   33.0450   39.1780 C   0  0  0  0  0  0  0  0  0  0  0  0
   45.8280   33.5430   40.4710 C   0  0  0  0  0  0  0  0  0  0  0  0
   46.8690   34.2340   40.9710 C   0  0  0  0  0  0  0  0  0  0  0  0
   45.9340   32.9010   46.4910 O   0  0  0  0  0  0  0  0  0  0  0  0
   45.1080   32.7480   47.6010 C   0  0  1  0  0  0  0  0  0  0  0  0
   44.8440   31.3530   48.0420 C   0  0  0  0  0  0  0  0  0  0  0  0
   45.7900   32.2650   48.8420 C   0  0  1  0  0  0  0  0  0  0  0  0
   47.2440   31.9010   48.7410 C   0  0  0  0  0  0  0  0  0  0  0  0
   48.0300   32.7280   48.2010 O   0  0  0  0  0  0  0  0  0  0  0  0
   47.8560   30.7620   49.1570 O   0  0  0  0  0  0  0  0  0  0  0  0
   49.5340   30.4920   50.8190 N   0  0  0  0  0  0  0  0  0  0  0  0
   50.9950   30.3460   50.7780 C   0  0  0  0  0  0  0  0  0  0  0  0
   51.3490   29.8330   49.4130 C   0  0  0  0  0  0  0  0  0  0  0  0
   49.9870   29.6800   48.7290 C   0  0  0  0  0  0  0  0  0  0  0  0
   49.2380   30.8010   49.4440 C   0  0  1  0  0  0  0  0  0  0  0  0
   47.3557   33.0973   44.2078 H   0  0  0  0  0  0  0  0  0  0  0  0
   43.7958   36.4453   44.8275 H   0  0  0  0  0  0  0  0  0  0  0  0
   48.9679   35.9330   42.8508 H   0  0  0  0  0  0  0  0  0  0  0  0
   49.8190   35.5099   40.4504 H   0  0  0  0  0  0  0  0  0  0  0  0
   48.8060   34.2071   38.1762 H   0  0  0  0  0  0  0  0  0  0  0  0
   46.8751   32.9570   37.3497 H   0  0  0  0  0  0  0  0  0  0  0  0
   44.8759   32.4832   38.8074 H   0  0  0  0  0  0  0  0  0  0  0  0
   44.9746   33.3582   41.1400 H   0  0  0  0  0  0  0  0  0  0  0  0
   44.4606   33.6031   47.3568 H   0  0  0  0  0  0  0  0  0  0  0  0
   43.8608   31.0808   48.4534 H   0  0  0  0  0  0  0  0  0  0  0  0
   44.9225   30.3582   47.5791 H   0  0  0  0  0  0  0  0  0  0  0  0
   45.8650   32.6382   49.8740 H   0  0  0  0  0  0  0  0  0  0  0  0
   49.0766   29.6179   51.1151 H   0  0  0  0  0  0  0  0  0  0  0  0
   51.4765   31.3196   50.9518 H   0  0  0  0  0  0  0  0  0  0  0  0
   51.3413   29.6528   51.5587 H   0  0  0  0  0  0  0  0  0  0  0  0
   51.9820   30.5529   48.8736 H   0  0  0  0  0  0  0  0  0  0  0  0
   51.9237   28.8955   49.4415 H   0  0  0  0  0  0  0  0  0  0  0  0
   50.0481   29.8505   47.6440 H   0  0  0  0  0  0  0  0  0  0  0  0
   49.5293   28.6823   48.8009 H   0  0  0  0  0  0  0  0  0  0  0  0
   49.5323   31.8190   49.1490 H   0  0  0  0  0  0  0  0  0  0  0  0
  1  6  1  0
  1 16  1  0
  2  1  2  0
  3  4  2  0
  3  2  1  0
  4  5  1  0
  5  6  2  0
  7  3  1  0
  8  7  2  0
  9  8  1  0
 10  9  1  0
 10 15  2  0
 11 10  1  0
 12 11  2  0
 12 13  1  0
 13 14  2  0
 14 15  1  0
 15  7  1  0
 16 17  1  0
 17 18  1  0
 17 19  1  0
 18 19  1  0
 20 19  1  0
 20 22  1  0
 21 20  2  0
 24 23  1  0
 25 24  1  0
 26 25  1  0
 26 27  1  0
 27 22  1  0
 27 23  1  0
  2 28  1  0
  5 29  1  0
  8 30  1  0
  9 31  1  0
 11 32  1  0
 12 33  1  0
 13 34  1  0
 14 35  1  0
 17 36  1  1
 18 37  1  0
 18 38  1  0
 19 39  1  1
 23 40  1  0
 24 41  1  0
 24 42  1  0
 25 43  1  0
 25 44  1  0
 26 45  1  0
 26 46  1  0
 27 47  1  6
M  END
>  <minimizedAffinity>  (1) 
-7.02623796

>  <minimizedRMSD>  (1) 
0.4509269

$$$$
