
     RDKit          3D

 28 29  0  0  0  0  0  0  0  0999 V2000
   47.4590   34.1140   42.2450 C   0  0  0  0  0  0  0  0  0  0  0  0
   48.3520   35.2760   41.8120 C   0  0  0  0  0  0  0  0  0  0  0  0
   49.7090   35.2960   42.3850 C   0  0  0  0  0  0  0  0  0  0  0  0
   50.3730   33.9440   42.3960 C   0  0  0  0  0  0  0  0  0  0  0  0
   49.4770   32.7990   42.0470 C   0  0  0  0  0  0  0  0  0  0  0  0
   48.1630   32.9590   42.7880 C   0  0  0  0  0  0  0  0  0  0  0  0
   45.3070   34.3420   45.2700 C   0  0  0  0  0  0  0  0  0  0  0  0
   44.5650   35.5050   44.9910 C   0  0  0  0  0  0  0  0  0  0  0  0
   44.8080   36.2150   43.7930 C   0  0  0  0  0  0  0  0  0  0  0  0
   45.7630   35.7350   42.9520 N   0  0  0  0  0  0  0  0  0  0  0  0
   46.4580   34.6120   43.2550 C   0  0  0  0  0  0  0  0  0  0  0  0
   46.2280   33.9200   44.4110 N   0  0  0  0  0  0  0  0  0  0  0  0
   46.6220   33.7510   41.0580 C   0  0  0  0  0  0  0  0  0  0  0  0
   47.0210   34.1590   39.9750 O   0  0  0  0  0  0  0  0  0  0  0  0
   48.4496   35.2356   40.7171 H   0  0  0  0  0  0  0  0  0  0  0  0
   47.8585   36.1849   42.1867 H   0  0  0  0  0  0  0  0  0  0  0  0
   50.3284   35.9840   41.7908 H   0  0  0  0  0  0  0  0  0  0  0  0
   49.6150   35.6205   43.4318 H   0  0  0  0  0  0  0  0  0  0  0  0
   51.2001   33.9638   41.6711 H   0  0  0  0  0  0  0  0  0  0  0  0
   50.7044   33.7718   43.4307 H   0  0  0  0  0  0  0  0  0  0  0  0
   49.2911   32.7929   40.9628 H   0  0  0  0  0  0  0  0  0  0  0  0
   49.9544   31.8510   42.3358 H   0  0  0  0  0  0  0  0  0  0  0  0
   48.3585   33.1145   43.8593 H   0  0  0  0  0  0  0  0  0  0  0  0
   47.5501   32.0539   42.6647 H   0  0  0  0  0  0  0  0  0  0  0  0
   45.1242   33.7826   46.1993 H   0  0  0  0  0  0  0  0  0  0  0  0
   43.8018   35.8588   45.6998 H   0  0  0  0  0  0  0  0  0  0  0  0
   44.2428   37.1265   43.5488 H   0  0  0  0  0  0  0  0  0  0  0  0
   45.7034   33.1534   41.1533 H   0  0  0  0  0  0  0  0  0  0  0  0
  1  6  1  0
  1 11  1  0
  2  1  1  0
  2  3  1  0
  3  4  1  0
  5  4  1  0
  5  6  1  0
  8  7  2  0
  9  8  1  0
 10 11  1  0
 10  9  2  0
 11 12  2  0
 12  7  1  0
 13  1  1  0
 14 13  2  0
  2 15  1  0
  2 16  1  0
  3 17  1  0
  3 18  1  0
  4 19  1  0
  4 20  1  0
  5 21  1  0
  5 22  1  0
  6 23  1  0
  6 24  1  0
  7 25  1  0
  8 26  1  0
  9 27  1  0
 13 28  1  0
M  ISO  8  15  13  16  13  17  13  18  13  19  13  20  13  21  13  22  13
M  ISO  6  23  13  24  13  25  14  26  14  27  14  28   6
M  END
>  <minimizedAffinity>  (1) 
-4.91177368

>  <minimizedRMSD>  (1) 
0.324916959

$$$$
