
     RDKit          3D

 40 44  0  0  0  0  0  0  0  0999 V2000
   45.5810   34.2300   41.0560 C   0  0  0  0  0  0  0  0  0  0  0  0
   46.2400   34.7710   42.1920 C   0  0  0  0  0  0  0  0  0  0  0  0
   47.6060   35.0060   42.1500 C   0  0  0  0  0  0  0  0  0  0  0  0
   48.2660   34.7020   41.0060 N   0  0  0  0  0  0  0  0  0  0  0  0
   47.6080   34.1800   39.9220 C   0  0  0  0  0  0  0  0  0  0  0  0
   46.2960   33.9640   39.9860 N   0  0  0  0  0  0  0  0  0  0  0  0
   45.5920   35.1070   43.4160 N   0  0  0  0  0  0  0  0  0  0  0  0
   44.8520   36.1160   43.8790 C   0  0  0  0  0  0  0  0  0  0  0  0
   44.4960   35.8950   45.1580 N   0  0  0  0  0  0  0  0  0  0  0  0
   45.0170   34.7140   45.5340 C   0  0  0  0  0  0  0  0  0  0  0  0
   44.8920   34.1130   46.7660 C   0  0  0  0  0  0  0  0  0  0  0  0
   45.5160   32.9110   46.9010 N   0  0  0  0  0  0  0  0  0  0  0  0
   46.2050   32.3880   45.8460 C   0  0  0  0  0  0  0  0  0  0  0  0
   46.2930   33.0210   44.6690 N   0  0  0  0  0  0  0  0  0  0  0  0
   45.6930   34.2300   44.4590 C   0  0  0  0  0  0  0  0  0  0  0  0
   44.1430   34.0470   41.2690 C   0  0  0  0  0  0  0  0  0  0  0  0
   43.3430   35.1390   40.6110 C   0  0  0  0  0  0  0  0  0  0  0  0
   41.9260   34.8690   40.5550 N   0  0  0  0  0  0  0  0  0  0  0  0
   40.8900   35.6290   40.1160 C   0  0  0  0  0  0  0  0  0  0  0  0
   39.7480   34.9140   40.2770 N   0  0  0  0  0  0  0  0  0  0  0  0
   40.0740   33.7070   40.8180 C   0  0  0  0  0  0  0  0  0  0  0  0
   39.3490   32.5770   41.2010 C   0  0  0  0  0  0  0  0  0  0  0  0
   39.9720   31.5020   41.7200 N   0  0  0  0  0  0  0  0  0  0  0  0
   41.3070   31.4850   41.8870 C   0  0  0  0  0  0  0  0  0  0  0  0
   41.9860   32.5670   41.5170 N   0  0  0  0  0  0  0  0  0  0  0  0
   41.4220   33.6780   40.9900 C   0  0  0  0  0  0  0  0  0  0  0  0
   37.9420   32.5670   41.0380 N   0  0  0  0  0  0  0  0  0  0  0  0
   48.1368   35.4256   43.0173 H   0  0  0  0  0  0  0  0  0  0  0  0
   48.1625   33.9406   39.0026 H   0  0  0  0  0  0  0  0  0  0  0  0
   44.5716   37.0056   43.2959 H   0  0  0  0  0  0  0  0  0  0  0  0
   44.3247   34.5741   47.5879 H   0  0  0  0  0  0  0  0  0  0  0  0
   46.7043   31.4152   45.9659 H   0  0  0  0  0  0  0  0  0  0  0  0
   43.8398   33.0778   40.8462 H   0  0  0  0  0  0  0  0  0  0  0  0
   43.9479   34.0813   42.3510 H   0  0  0  0  0  0  0  0  0  0  0  0
   43.4967   36.0703   41.1759 H   0  0  0  0  0  0  0  0  0  0  0  0
   43.6965   35.2141   39.5721 H   0  0  0  0  0  0  0  0  0  0  0  0
   40.9635   36.6457   39.7025 H   0  0  0  0  0  0  0  0  0  0  0  0
   41.8176   30.6090   42.3136 H   0  0  0  0  0  0  0  0  0  0  0  0
   37.3971   31.7387   41.3171 H   0  0  0  0  0  0  0  0  0  0  0  0
   37.4638   33.3880   40.6403 H   0  0  0  0  0  0  0  0  0  0  0  0
  1 16  1  0
  1  2  1  0
  2  7  1  0
  3  2  2  0
  4  3  1  0
  5  6  1  0
  5  4  2  0
  6  1  2  0
  7  8  1  0
  7 15  1  0
  8  9  2  0
  9 10  1  0
 10 11  2  0
 11 12  1  0
 13 12  2  0
 14 13  1  0
 15 14  2  0
 15 10  1  0
 17 16  1  0
 18 17  1  0
 18 26  1  0
 19 20  2  0
 19 18  1  0
 20 21  1  0
 21 26  2  0
 21 22  1  0
 22 23  2  0
 23 24  1  0
 25 24  2  0
 26 25  1  0
 27 22  1  0
  3 28  1  0
  5 29  1  0
  8 30  1  0
 11 31  1  0
 13 32  1  0
 16 33  1  0
 16 34  1  0
 17 35  1  0
 17 36  1  0
 19 37  1  0
 24 38  1  0
 27 39  1  0
 27 40  1  0
M  END
>  <minimizedAffinity>  (1) 
-7.01930761

>  <minimizedRMSD>  (1) 
0.804886818

$$$$
