
     RDKit          3D

 16 16  0  0  0  0  0  0  0  0999 V2000
   44.9350   35.2450   44.7150 C   0  0  0  0  0  0  0  0  0  0  0  0
   45.8720   34.6840   43.8310 C   0  0  0  0  0  0  0  0  0  0  0  0
   46.5660   33.5820   44.2780 C   0  0  0  0  0  0  0  0  0  0  0  0
   46.3100   33.1070   45.5310 N   0  0  0  0  0  0  0  0  0  0  0  0
   45.4130   33.6560   46.3550 C   0  0  0  0  0  0  0  0  0  0  0  0
   44.7190   34.7300   45.9510 N   0  0  0  0  0  0  0  0  0  0  0  0
   46.0920   35.2510   42.5000 C   0  0  0  0  0  0  0  0  0  0  0  0
   47.2820   35.2770   42.0640 O   0  0  0  0  0  0  0  0  0  0  0  0
   45.1370   33.1930   47.6210 O   0  0  0  0  0  0  0  0  0  0  0  0
   45.9040   32.2240   48.2990 C   0  0  0  0  0  0  0  0  0  0  0  0
   47.2470   32.5730   48.3470 F   0  0  0  0  0  0  0  0  0  0  0  0
   45.7030   30.9720   47.7490 F   0  0  0  0  0  0  0  0  0  0  0  0
   45.4790   32.1910   49.6270 F   0  0  0  0  0  0  0  0  0  0  0  0
   44.3603   36.1269   44.3956 H   0  0  0  0  0  0  0  0  0  0  0  0
   47.3137   33.0932   43.6361 H   0  0  0  0  0  0  0  0  0  0  0  0
   45.2560   35.6401   41.9003 H   0  0  0  0  0  0  0  0  0  0  0  0
  1  6  2  0
  2  3  2  0
  2  1  1  0
  3  4  1  0
  4  5  2  0
  5  9  1  0
  6  5  1  0
  7  2  1  0
  8  7  2  0
  9 10  1  0
 10 11  1  0
 10 13  1  0
 12 10  1  0
  1 14  1  0
  3 15  1  0
  7 16  1  0
M  ISO  3  14  14  15  14  16   6
M  END
>  <minimizedAffinity>  (1) 
-4.05221272

>  <minimizedRMSD>  (1) 
1.03722644

$$$$
