
     RDKit          3D

 39 42  0  0  0  0  0  0  0  0999 V2000
   46.5960   34.6400   42.1410 C   0  0  0  0  0  0  0  0  0  0  0  0
   47.7650   35.3210   41.9320 C   0  0  0  0  0  0  0  0  0  0  0  0
   48.5020   35.1900   40.7570 C   0  0  0  0  0  0  0  0  0  0  0  0
   48.0210   34.3210   39.7550 C   0  0  0  0  0  0  0  0  0  0  0  0
   46.8340   33.6250   39.9640 C   0  0  0  0  0  0  0  0  0  0  0  0
   46.1550   33.8040   41.1520 C   0  0  0  0  0  0  0  0  0  0  0  0
   44.9370   33.0770   41.3430 N   0  0  0  0  0  0  0  0  0  0  0  0
   44.7770   31.8840   41.9780 C   0  0  0  0  0  0  0  0  0  0  0  0
   43.5360   31.3300   42.0700 C   0  0  0  0  0  0  0  0  0  0  0  0
   42.4240   31.9420   41.5350 C   0  0  0  0  0  0  0  0  0  0  0  0
   41.2950   31.3950   41.6420 O   0  0  0  0  0  0  0  0  0  0  0  0
   42.6260   33.1280   40.9110 N   0  0  0  0  0  0  0  0  0  0  0  0
   43.8400   33.6770   40.8180 C   0  0  0  0  0  0  0  0  0  0  0  0
   43.8820   34.7950   40.2040 O   0  0  0  0  0  0  0  0  0  0  0  0
   41.4640   33.7730   40.3490 C   0  0  0  0  0  0  0  0  0  0  0  0
   40.6380   34.6750   40.9410 C   0  0  0  0  0  0  0  0  0  0  0  0
   39.5680   35.1840   40.2350 C   0  0  0  0  0  0  0  0  0  0  0  0
   39.3680   34.7500   38.9200 C   0  0  0  0  0  0  0  0  0  0  0  0
   40.2350   33.8220   38.3400 C   0  0  0  0  0  0  0  0  0  0  0  0
   41.2750   33.3520   39.0800 N   0  0  0  0  0  0  0  0  0  0  0  0
   44.4160   35.9870   44.9080 C   0  0  0  0  0  0  0  0  0  0  0  0
   45.0290   35.8840   43.6590 C   0  0  0  0  0  0  0  0  0  0  0  0
   45.9020   34.8470   43.4030 C   0  0  0  0  0  0  0  0  0  0  0  0
   46.1430   33.9410   44.3940 N   0  0  0  0  0  0  0  0  0  0  0  0
   45.5310   34.0590   45.6150 C   0  0  0  0  0  0  0  0  0  0  0  0
   44.6890   35.0600   45.8640 N   0  0  0  0  0  0  0  0  0  0  0  0
   48.1351   35.9948   42.7188 H   0  0  0  0  0  0  0  0  0  0  0  0
   49.4372   35.7511   40.6138 H   0  0  0  0  0  0  0  0  0  0  0  0
   48.5797   34.1945   38.8160 H   0  0  0  0  0  0  0  0  0  0  0  0
   46.4433   32.9430   39.1944 H   0  0  0  0  0  0  0  0  0  0  0  0
   45.6456   31.3696   42.4149 H   0  0  0  0  0  0  0  0  0  0  0  0
   43.4185   30.3659   42.5865 H   0  0  0  0  0  0  0  0  0  0  0  0
   40.8215   34.9972   41.9766 H   0  0  0  0  0  0  0  0  0  0  0  0
   38.8870   35.9149   40.6956 H   0  0  0  0  0  0  0  0  0  0  0  0
   38.5210   35.1430   38.3385 H   0  0  0  0  0  0  0  0  0  0  0  0
   40.0803   33.4783   37.3066 H   0  0  0  0  0  0  0  0  0  0  0  0
   43.7180   36.8110   45.1173 H   0  0  0  0  0  0  0  0  0  0  0  0
   44.8163   36.6295   42.8786 H   0  0  0  0  0  0  0  0  0  0  0  0
   45.7384   33.3166   46.3998 H   0  0  0  0  0  0  0  0  0  0  0  0
  1 23  1  0
  2  1  2  0
  3  2  1  0
  4  5  1  0
  4  3  2  0
  5  6  2  0
  6  7  1  0
  6  1  1  0
  7  8  1  0
  8  9  2  0
 10 11  2  0
 10  9  1  0
 12 10  1  0
 13 12  1  0
 13  7  1  0
 14 13  2  0
 15 12  1  0
 15 16  2  0
 17 16  1  0
 18 17  2  0
 19 18  1  0
 19 20  2  0
 20 15  1  0
 21 26  2  0
 22 21  1  0
 23 22  2  0
 23 24  1  0
 24 25  2  0
 25 26  1  0
  2 27  1  0
  3 28  1  0
  4 29  1  0
  5 30  1  0
  8 31  1  0
  9 32  1  0
 16 33  1  0
 17 34  1  0
 18 35  1  0
 19 36  1  0
 21 37  1  0
 22 38  1  0
 25 39  1  0
M  END
>  <minimizedAffinity>  (1) 
-7.31135511

>  <minimizedRMSD>  (1) 
0.577196598

$$$$
