MODEL 1
REMARK minimizedAffinity -2.343297REMARK  Name = 7
REMARK  0 active torsions:
REMARK  status: ('A' for Active; 'I' for Inactive)
REMARK                            x       y       z     vdW  Elec       q    Type
REMARK                         _______ _______ _______ _____ _____    ______ ____
ROOT
ATOM      1  C   UNL     1      47.043  72.935  30.437  0.00  0.00    +0.000 A 
ATOM      2  C   UNL     1      46.318  71.989  29.681  0.00  0.00    +0.000 A 
ATOM      3  C   UNL     1      46.898  70.727  29.481  0.00  0.00    +0.000 A 
ATOM      4  N   UNL     1      48.128  70.490  30.025  0.00  0.00    +0.000 NA
ATOM      5  C   UNL     1      48.793  71.422  30.746  0.00  0.00    +0.000 A 
ATOM      6  N   UNL     1      48.249  72.636  30.951  0.00  0.00    +0.000 NA
ENDROOT
TORSDOF 0
ENDMDL
MODEL 2
REMARK minimizedAffinity -2.34312105REMARK  Name = 7
REMARK  0 active torsions:
REMARK  status: ('A' for Active; 'I' for Inactive)
REMARK                            x       y       z     vdW  Elec       q    Type
REMARK                         _______ _______ _______ _____ _____    ______ ____
ROOT
ATOM      1  C   UNL     1      46.911  70.758  29.499  0.00  0.00    +0.000 A 
ATOM      2  C   UNL     1      46.296  72.011  29.706  0.00  0.00    +0.000 A 
ATOM      3  C   UNL     1      46.998  72.969  30.454  0.00  0.00    +0.000 A 
ATOM      4  N   UNL     1      48.229  72.632  30.940  0.00  0.00    +0.000 NA
ATOM      5  C   UNL     1      48.787  71.420  30.720  0.00  0.00    +0.000 A 
ATOM      6  N   UNL     1      48.130  70.491  30.000  0.00  0.00    +0.000 NA
ENDROOT
TORSDOF 0
ENDMDL
MODEL 3
REMARK minimizedAffinity -2.28282261REMARK  Name = 7
REMARK  0 active torsions:
REMARK  status: ('A' for Active; 'I' for Inactive)
REMARK                            x       y       z     vdW  Elec       q    Type
REMARK                         _______ _______ _______ _____ _____    ______ ____
ROOT
ATOM      1  C   UNL     1      48.380  72.393  30.866  0.00  0.00    +0.000 A 
ATOM      2  C   UNL     1      47.166  72.880  30.336  0.00  0.00    +0.000 A 
ATOM      3  C   UNL     1      46.373  71.992  29.594  0.00  0.00    +0.000 A 
ATOM      4  N   UNL     1      46.823  70.714  29.425  0.00  0.00    +0.000 NA
ATOM      5  C   UNL     1      47.992  70.282  29.949  0.00  0.00    +0.000 A 
ATOM      6  N   UNL     1      48.763  71.120  30.668  0.00  0.00    +0.000 NA
ENDROOT
TORSDOF 0
ENDMDL
MODEL 4
REMARK minimizedAffinity -2.0635314REMARK  Name = 7
REMARK  0 active torsions:
REMARK  status: ('A' for Active; 'I' for Inactive)
REMARK                            x       y       z     vdW  Elec       q    Type
REMARK                         _______ _______ _______ _____ _____    ______ ____
ROOT
ATOM      1  C   UNL     1      55.540  65.258  31.180  0.00  0.00    +0.000 A 
ATOM      2  C   UNL     1      56.489  66.287  31.358  0.00  0.00    +0.000 A 
ATOM      3  C   UNL     1      56.276  67.201  32.401  0.00  0.00    +0.000 A 
ATOM      4  N   UNL     1      55.164  67.043  33.178  0.00  0.00    +0.000 NA
ATOM      5  C   UNL     1      54.276  66.043  32.978  0.00  0.00    +0.000 A 
ATOM      6  N   UNL     1      54.468  65.155  31.984  0.00  0.00    +0.000 NA
ENDROOT
TORSDOF 0
ENDMDL
MODEL 5
REMARK minimizedAffinity -2.00439072REMARK  Name = 7
REMARK  0 active torsions:
REMARK  status: ('A' for Active; 'I' for Inactive)
REMARK                            x       y       z     vdW  Elec       q    Type
REMARK                         _______ _______ _______ _____ _____    ______ ____
ROOT
ATOM      1  C   UNL     1      42.743  64.299  31.615  0.00  0.00    +0.000 A 
ATOM      2  C   UNL     1      42.879  63.379  30.553  0.00  0.00    +0.000 A 
ATOM      3  C   UNL     1      43.058  63.894  29.260  0.00  0.00    +0.000 A 
ATOM      4  N   UNL     1      43.086  65.251  29.105  0.00  0.00    +0.000 NA
ATOM      5  C   UNL     1      42.953  66.102  30.147  0.00  0.00    +0.000 A 
ATOM      6  N   UNL     1      42.785  65.625  31.395  0.00  0.00    +0.000 NA
ENDROOT
TORSDOF 0
ENDMDL
MODEL 6
REMARK minimizedAffinity -1.99627805REMARK  Name = 7
REMARK  0 active torsions:
REMARK  status: ('A' for Active; 'I' for Inactive)
REMARK                            x       y       z     vdW  Elec       q    Type
REMARK                         _______ _______ _______ _____ _____    ______ ____
ROOT
ATOM      1  C   UNL     1      45.138  71.846  30.879  0.00  0.00    +0.000 A 
ATOM      2  C   UNL     1      45.843  73.013  30.513  0.00  0.00    +0.000 A 
ATOM      3  C   UNL     1      47.191  72.876  30.150  0.00  0.00    +0.000 A 
ATOM      4  N   UNL     1      47.742  71.627  30.175  0.00  0.00    +0.000 NA
ATOM      5  C   UNL     1      47.034  70.531  30.530  0.00  0.00    +0.000 A 
ATOM      6  N   UNL     1      45.738  70.644  30.877  0.00  0.00    +0.000 NA
ENDROOT
TORSDOF 0
ENDMDL
MODEL 7
REMARK minimizedAffinity -1.99229395REMARK  Name = 7
REMARK  0 active torsions:
REMARK  status: ('A' for Active; 'I' for Inactive)
REMARK                            x       y       z     vdW  Elec       q    Type
REMARK                         _______ _______ _______ _____ _____    ______ ____
ROOT
ATOM      1  C   UNL     1      46.577  70.892  31.734  0.00  0.00    +0.000 A 
ATOM      2  C   UNL     1      47.902  71.376  31.765  0.00  0.00    +0.000 A 
ATOM      3  C   UNL     1      48.257  72.370  30.841  0.00  0.00    +0.000 A 
ATOM      4  N   UNL     1      47.303  72.808  29.967  0.00  0.00    +0.000 NA
ATOM      5  C   UNL     1      46.042  72.321  29.969  0.00  0.00    +0.000 A 
ATOM      6  N   UNL     1      45.683  71.369  30.851  0.00  0.00    +0.000 NA
ENDROOT
TORSDOF 0
ENDMDL
MODEL 8
REMARK minimizedAffinity -1.99019909REMARK  Name = 7
REMARK  0 active torsions:
REMARK  status: ('A' for Active; 'I' for Inactive)
REMARK                            x       y       z     vdW  Elec       q    Type
REMARK                         _______ _______ _______ _____ _____    ______ ____
ROOT
ATOM      1  C   UNL     1      46.472  69.212  29.800  0.00  0.00    +0.000 A 
ATOM      2  C   UNL     1      45.530  69.354  30.842  0.00  0.00    +0.000 A 
ATOM      3  C   UNL     1      45.159  70.654  31.216  0.00  0.00    +0.000 A 
ATOM      4  N   UNL     1      45.731  71.703  30.555  0.00  0.00    +0.000 NA
ATOM      5  C   UNL     1      46.629  71.528  29.560  0.00  0.00    +0.000 A 
ATOM      6  N   UNL     1      46.994  70.288  29.185  0.00  0.00    +0.000 NA
ENDROOT
TORSDOF 0
ENDMDL
MODEL 9
REMARK minimizedAffinity -1.97410715REMARK  Name = 7
REMARK  0 active torsions:
REMARK  status: ('A' for Active; 'I' for Inactive)
REMARK                            x       y       z     vdW  Elec       q    Type
REMARK                         _______ _______ _______ _____ _____    ______ ____
ROOT
ATOM      1  C   UNL     1      53.443  68.567  40.474  0.00  0.00    +0.000 A 
ATOM      2  C   UNL     1      54.541  68.244  39.649  0.00  0.00    +0.000 A 
ATOM      3  C   UNL     1      54.274  67.823  38.338  0.00  0.00    +0.000 A 
ATOM      4  N   UNL     1      52.970  67.747  37.939  0.00  0.00    +0.000 NA
ATOM      5  C   UNL     1      51.943  68.067  38.758  0.00  0.00    +0.000 A 
ATOM      6  N   UNL     1      52.182  68.477  40.017  0.00  0.00    +0.000 NA
ENDROOT
TORSDOF 0
ENDMDL
