MODEL 1
REMARK minimizedAffinity -2.343297REMARK  Name = 7
REMARK  0 active torsions:
REMARK  status: ('A' for Active; 'I' for Inactive)
REMARK                            x       y       z     vdW  Elec       q    Type
REMARK                         _______ _______ _______ _____ _____    ______ ____
ROOT
ATOM      1  C   UNL     1      47.043  72.935  30.437  0.00  0.00    +0.000 A 
ATOM      2  C   UNL     1      46.318  71.989  29.681  0.00  0.00    +0.000 A 
ATOM      3  C   UNL     1      46.898  70.727  29.481  0.00  0.00    +0.000 A 
ATOM      4  N   UNL     1      48.128  70.490  30.025  0.00  0.00    +0.000 NA
ATOM      5  C   UNL     1      48.793  71.422  30.746  0.00  0.00    +0.000 A 
ATOM      6  N   UNL     1      48.249  72.636  30.951  0.00  0.00    +0.000 NA
ENDROOT
TORSDOF 0
ENDMDL
