./init_pose/1_0.pdbqt
 OpenBabel03222510333D

  6  6  0  0  0  0  0  0  0  0999 V2000
   47.0430   72.9350   30.4370 C   0  0  0  0  0  0  0  0  0  0  0  0
   46.3180   71.9890   29.6810 C   0  0  0  0  0  0  0  0  0  0  0  0
   46.8980   70.7270   29.4810 C   0  0  0  0  0  0  0  0  0  0  0  0
   48.1280   70.4900   30.0250 N   0  0  0  0  0  0  0  0  0  0  0  0
   48.7930   71.4220   30.7460 C   0  0  0  0  0  0  0  0  0  0  0  0
   48.2490   72.6360   30.9510 N   0  0  0  0  0  0  0  0  0  0  0  0
  1  6  1  0  0  0  0
  2  1  2  0  0  0  0
  3  2  1  0  0  0  0
  3  4  2  0  0  0  0
  4  5  1  0  0  0  0
  5  6  2  0  0  0  0
M  END
>  <MODEL>
1

>  <REMARK>
 minimizedAffinity -2.343297REMARK  Name = 7
  0 active torsions:
  status: ('A' for Active; 'I' for Inactive)
                            x       y       z     vdW  Elec       q    Type
                         _______ _______ _______ _____ _____    ______ ____

>  <TORSDO>
F 0

$$$$
