./init_pose/1_0.pdbqt
     RDKit          3D

 10 10  0  0  0  0  0  0  0  0999 V2000
   47.0430   72.9350   30.4370 C   0  0  0  0  0  0  0  0  0  0  0  0
   46.3180   71.9890   29.6810 C   0  0  0  0  0  0  0  0  0  0  0  0
   46.8980   70.7270   29.4810 C   0  0  0  0  0  0  0  0  0  0  0  0
   48.1280   70.4900   30.0250 N   0  0  0  0  0  0  0  0  0  0  0  0
   48.7930   71.4220   30.7460 C   0  0  0  0  0  0  0  0  0  0  0  0
   48.2490   72.6360   30.9510 N   0  0  0  0  0  0  0  0  0  0  0  0
   46.6143   73.9334   30.6086 H   0  0  0  0  0  0  0  0  0  0  0  0
   45.3305   72.2330   29.2623 H   0  0  0  0  0  0  0  0  0  0  0  0
   46.3765   69.9504   28.9023 H   0  0  0  0  0  0  0  0  0  0  0  0
   49.7820   71.1867   31.1662 H   0  0  0  0  0  0  0  0  0  0  0  0
  1  6  2  0
  2  1  1  0
  3  2  2  0
  3  4  1  0
  4  5  2  0
  5  6  1  0
  1  7  1  0
  2  8  1  0
  3  9  1  0
  5 10  1  0
M  END
>  <MODEL>  (1) 
1

>  <REMARK>  (1) 
 minimizedAffinity -2.343297REMARK  Name = 7
  0 active torsions:
  status: ('A' for Active; 'I' for Inactive)
                            x       y       z     vdW  Elec       q    Type
                         _______ _______ _______ _____ _____    ______ ____

>  <TORSDO>  (1) 
F 0

$$$$
