MODEL 2
REMARK minimizedAffinity -2.34312105REMARK  Name = 7
REMARK  0 active torsions:
REMARK  status: ('A' for Active; 'I' for Inactive)
REMARK                            x       y       z     vdW  Elec       q    Type
REMARK                         _______ _______ _______ _____ _____    ______ ____
ROOT
ATOM      1  C   UNL     1      46.911  70.758  29.499  0.00  0.00    +0.000 A 
ATOM      2  C   UNL     1      46.296  72.011  29.706  0.00  0.00    +0.000 A 
ATOM      3  C   UNL     1      46.998  72.969  30.454  0.00  0.00    +0.000 A 
ATOM      4  N   UNL     1      48.229  72.632  30.940  0.00  0.00    +0.000 NA
ATOM      5  C   UNL     1      48.787  71.420  30.720  0.00  0.00    +0.000 A 
ATOM      6  N   UNL     1      48.130  70.491  30.000  0.00  0.00    +0.000 NA
ENDROOT
TORSDOF 0
ENDMDL
