./init_pose/1_1.pdbqt
     RDKit          3D

 10 10  0  0  0  0  0  0  0  0999 V2000
   46.9110   70.7580   29.4990 C   0  0  0  0  0  0  0  0  0  0  0  0
   46.2960   72.0110   29.7060 C   0  0  0  0  0  0  0  0  0  0  0  0
   46.9980   72.9690   30.4540 C   0  0  0  0  0  0  0  0  0  0  0  0
   48.2290   72.6320   30.9400 N   0  0  0  0  0  0  0  0  0  0  0  0
   48.7870   71.4200   30.7200 C   0  0  0  0  0  0  0  0  0  0  0  0
   48.1300   70.4910   30.0000 N   0  0  0  0  0  0  0  0  0  0  0  0
   46.3844   69.9866   28.9180 H   0  0  0  0  0  0  0  0  0  0  0  0
   45.2995   72.2297   29.2948 H   0  0  0  0  0  0  0  0  0  0  0  0
   46.5685   73.9638   30.6435 H   0  0  0  0  0  0  0  0  0  0  0  0
   49.7816   71.1921   31.1309 H   0  0  0  0  0  0  0  0  0  0  0  0
  1  2  2  0
  1  6  1  0
  2  3  1  0
  3  4  2  0
  5  4  1  0
  6  5  2  0
  1  7  1  0
  2  8  1  0
  3  9  1  0
  5 10  1  0
M  END
>  <MODEL>  (1) 
2

>  <REMARK>  (1) 
 minimizedAffinity -2.34312105REMARK  Name = 7
  0 active torsions:
  status: ('A' for Active; 'I' for Inactive)
                            x       y       z     vdW  Elec       q    Type
                         _______ _______ _______ _____ _____    ______ ____

>  <TORSDO>  (1) 
F 0

$$$$
