./init_pose/1_2.pdbqt
     RDKit          3D

 10 10  0  0  0  0  0  0  0  0999 V2000
   48.3800   72.3930   30.8660 C   0  0  0  0  0  0  0  0  0  0  0  0
   47.1660   72.8800   30.3360 C   0  0  0  0  0  0  0  0  0  0  0  0
   46.3730   71.9920   29.5940 C   0  0  0  0  0  0  0  0  0  0  0  0
   46.8230   70.7140   29.4250 N   0  0  0  0  0  0  0  0  0  0  0  0
   47.9920   70.2820   29.9490 C   0  0  0  0  0  0  0  0  0  0  0  0
   48.7630   71.1200   30.6680 N   0  0  0  0  0  0  0  0  0  0  0  0
   49.0235   73.0666   31.4509 H   0  0  0  0  0  0  0  0  0  0  0  0
   46.8520   73.9215   30.4993 H   0  0  0  0  0  0  0  0  0  0  0  0
   45.4154   72.3162   29.1605 H   0  0  0  0  0  0  0  0  0  0  0  0
   48.3144   69.2428   29.7876 H   0  0  0  0  0  0  0  0  0  0  0  0
  2  1  2  0
  3  2  1  0
  4  3  2  0
  4  5  1  0
  5  6  2  0
  6  1  1  0
  1  7  1  0
  2  8  1  0
  3  9  1  0
  5 10  1  0
M  END
>  <MODEL>  (1) 
3

>  <REMARK>  (1) 
 minimizedAffinity -2.28282261REMARK  Name = 7
  0 active torsions:
  status: ('A' for Active; 'I' for Inactive)
                            x       y       z     vdW  Elec       q    Type
                         _______ _______ _______ _____ _____    ______ ____

>  <TORSDO>  (1) 
F 0

$$$$
