MODEL 4
REMARK minimizedAffinity -2.0635314REMARK  Name = 7
REMARK  0 active torsions:
REMARK  status: ('A' for Active; 'I' for Inactive)
REMARK                            x       y       z     vdW  Elec       q    Type
REMARK                         _______ _______ _______ _____ _____    ______ ____
ROOT
ATOM      1  C   UNL     1      55.540  65.258  31.180  0.00  0.00    +0.000 A 
ATOM      2  C   UNL     1      56.489  66.287  31.358  0.00  0.00    +0.000 A 
ATOM      3  C   UNL     1      56.276  67.201  32.401  0.00  0.00    +0.000 A 
ATOM      4  N   UNL     1      55.164  67.043  33.178  0.00  0.00    +0.000 NA
ATOM      5  C   UNL     1      54.276  66.043  32.978  0.00  0.00    +0.000 A 
ATOM      6  N   UNL     1      54.468  65.155  31.984  0.00  0.00    +0.000 NA
ENDROOT
TORSDOF 0
ENDMDL
