./init_pose/1_3.pdbqt
 OpenBabel03222510333D

  6  6  0  0  0  0  0  0  0  0999 V2000
   55.5400   65.2580   31.1800 C   0  0  0  0  0  0  0  0  0  0  0  0
   56.4890   66.2870   31.3580 C   0  0  0  0  0  0  0  0  0  0  0  0
   56.2760   67.2010   32.4010 C   0  0  0  0  0  0  0  0  0  0  0  0
   55.1640   67.0430   33.1780 N   0  0  0  0  0  0  0  0  0  0  0  0
   54.2760   66.0430   32.9780 C   0  0  0  0  0  0  0  0  0  0  0  0
   54.4680   65.1550   31.9840 N   0  0  0  0  0  0  0  0  0  0  0  0
  1  2  2  0  0  0  0
  1  6  1  0  0  0  0
  2  3  1  0  0  0  0
  3  4  2  0  0  0  0
  5  4  1  0  0  0  0
  6  5  2  0  0  0  0
M  END
>  <MODEL>
4

>  <REMARK>
 minimizedAffinity -2.0635314REMARK  Name = 7
  0 active torsions:
  status: ('A' for Active; 'I' for Inactive)
                            x       y       z     vdW  Elec       q    Type
                         _______ _______ _______ _____ _____    ______ ____

>  <TORSDO>
F 0

$$$$
