MODEL 5
REMARK minimizedAffinity -2.00439072REMARK  Name = 7
REMARK  0 active torsions:
REMARK  status: ('A' for Active; 'I' for Inactive)
REMARK                            x       y       z     vdW  Elec       q    Type
REMARK                         _______ _______ _______ _____ _____    ______ ____
ROOT
ATOM      1  C   UNL     1      42.743  64.299  31.615  0.00  0.00    +0.000 A 
ATOM      2  C   UNL     1      42.879  63.379  30.553  0.00  0.00    +0.000 A 
ATOM      3  C   UNL     1      43.058  63.894  29.260  0.00  0.00    +0.000 A 
ATOM      4  N   UNL     1      43.086  65.251  29.105  0.00  0.00    +0.000 NA
ATOM      5  C   UNL     1      42.953  66.102  30.147  0.00  0.00    +0.000 A 
ATOM      6  N   UNL     1      42.785  65.625  31.395  0.00  0.00    +0.000 NA
ENDROOT
TORSDOF 0
ENDMDL
