./init_pose/1_4.pdbqt
 OpenBabel03222510333D

  6  6  0  0  0  0  0  0  0  0999 V2000
   42.7430   64.2990   31.6150 C   0  0  0  0  0  3  0  0  0  0  0  0
   42.8790   63.3790   30.5530 C   0  0  0  0  0  3  0  0  0  0  0  0
   43.0580   63.8940   29.2600 C   0  0  0  0  0  3  0  0  0  0  0  0
   43.0860   65.2510   29.1050 N   0  0  0  0  0  0  0  0  0  0  0  0
   42.9530   66.1020   30.1470 C   0  0  0  0  0  3  0  0  0  0  0  0
   42.7850   65.6250   31.3950 N   0  0  0  0  0  0  0  0  0  0  0  0
  2  1  2  0  0  0  0
  3  2  1  0  0  0  0
  4  3  2  0  0  0  0
  4  5  1  0  0  0  0
  5  6  2  0  0  0  0
  6  1  1  0  0  0  0
M  END
>  <MODEL>
5

>  <REMARK>
 minimizedAffinity -2.00439072REMARK  Name = 7
  0 active torsions:
  status: ('A' for Active; 'I' for Inactive)
                            x       y       z     vdW  Elec       q    Type
                         _______ _______ _______ _____ _____    ______ ____

>  <TORSDO>
F 0

$$$$
