./init_pose/1_4.pdbqt
     RDKit          3D

 10 10  0  0  0  0  0  0  0  0999 V2000
   42.7430   64.2990   31.6150 C   0  0  0  0  0  0  0  0  0  0  0  0
   42.8790   63.3790   30.5530 C   0  0  0  0  0  0  0  0  0  0  0  0
   43.0580   63.8940   29.2600 C   0  0  0  0  0  0  0  0  0  0  0  0
   43.0860   65.2510   29.1050 N   0  0  0  0  0  0  0  0  0  0  0  0
   42.9530   66.1020   30.1470 C   0  0  0  0  0  0  0  0  0  0  0  0
   42.7850   65.6250   31.3950 N   0  0  0  0  0  0  0  0  0  0  0  0
   42.6003   63.9250   32.6396 H   0  0  0  0  0  0  0  0  0  0  0  0
   42.8458   62.2943   30.7331 H   0  0  0  0  0  0  0  0  0  0  0  0
   43.1726   63.2237   28.3954 H   0  0  0  0  0  0  0  0  0  0  0  0
   42.9821   67.1880   29.9747 H   0  0  0  0  0  0  0  0  0  0  0  0
  2  1  2  0
  3  2  1  0
  4  3  2  0
  4  5  1  0
  5  6  2  0
  6  1  1  0
  1  7  1  0
  2  8  1  0
  3  9  1  0
  5 10  1  0
M  END
>  <MODEL>  (1) 
5

>  <REMARK>  (1) 
 minimizedAffinity -2.00439072REMARK  Name = 7
  0 active torsions:
  status: ('A' for Active; 'I' for Inactive)
                            x       y       z     vdW  Elec       q    Type
                         _______ _______ _______ _____ _____    ______ ____

>  <TORSDO>  (1) 
F 0

$$$$
