MODEL 6
REMARK minimizedAffinity -1.99627805REMARK  Name = 7
REMARK  0 active torsions:
REMARK  status: ('A' for Active; 'I' for Inactive)
REMARK                            x       y       z     vdW  Elec       q    Type
REMARK                         _______ _______ _______ _____ _____    ______ ____
ROOT
ATOM      1  C   UNL     1      45.138  71.846  30.879  0.00  0.00    +0.000 A 
ATOM      2  C   UNL     1      45.843  73.013  30.513  0.00  0.00    +0.000 A 
ATOM      3  C   UNL     1      47.191  72.876  30.150  0.00  0.00    +0.000 A 
ATOM      4  N   UNL     1      47.742  71.627  30.175  0.00  0.00    +0.000 NA
ATOM      5  C   UNL     1      47.034  70.531  30.530  0.00  0.00    +0.000 A 
ATOM      6  N   UNL     1      45.738  70.644  30.877  0.00  0.00    +0.000 NA
ENDROOT
TORSDOF 0
ENDMDL
