./init_pose/1_5.pdbqt
 OpenBabel03222510333D

  6  6  0  0  0  0  0  0  0  0999 V2000
   45.1380   71.8460   30.8790 C   0  0  0  0  0  0  0  0  0  0  0  0
   45.8430   73.0130   30.5130 C   0  0  0  0  0  0  0  0  0  0  0  0
   47.1910   72.8760   30.1500 C   0  0  0  0  0  0  0  0  0  0  0  0
   47.7420   71.6270   30.1750 N   0  0  0  0  0  0  0  0  0  0  0  0
   47.0340   70.5310   30.5300 C   0  0  0  0  0  0  0  0  0  0  0  0
   45.7380   70.6440   30.8770 N   0  0  0  0  0  0  0  0  0  0  0  0
  2  1  2  0  0  0  0
  3  4  2  0  0  0  0
  3  2  1  0  0  0  0
  4  5  1  0  0  0  0
  5  6  2  0  0  0  0
  6  1  1  0  0  0  0
M  END
>  <MODEL>
6

>  <REMARK>
 minimizedAffinity -1.99627805REMARK  Name = 7
  0 active torsions:
  status: ('A' for Active; 'I' for Inactive)
                            x       y       z     vdW  Elec       q    Type
                         _______ _______ _______ _____ _____    ______ ____

>  <TORSDO>
F 0

$$$$
