MODEL 7
REMARK minimizedAffinity -1.99229395REMARK  Name = 7
REMARK  0 active torsions:
REMARK  status: ('A' for Active; 'I' for Inactive)
REMARK                            x       y       z     vdW  Elec       q    Type
REMARK                         _______ _______ _______ _____ _____    ______ ____
ROOT
ATOM      1  C   UNL     1      46.577  70.892  31.734  0.00  0.00    +0.000 A 
ATOM      2  C   UNL     1      47.902  71.376  31.765  0.00  0.00    +0.000 A 
ATOM      3  C   UNL     1      48.257  72.370  30.841  0.00  0.00    +0.000 A 
ATOM      4  N   UNL     1      47.303  72.808  29.967  0.00  0.00    +0.000 NA
ATOM      5  C   UNL     1      46.042  72.321  29.969  0.00  0.00    +0.000 A 
ATOM      6  N   UNL     1      45.683  71.369  30.851  0.00  0.00    +0.000 NA
ENDROOT
TORSDOF 0
ENDMDL
