./init_pose/1_6.pdbqt
 OpenBabel03222510333D

  6  6  0  0  0  0  0  0  0  0999 V2000
   46.5770   70.8920   31.7340 C   0  0  0  0  0  3  0  0  0  0  0  0
   47.9020   71.3760   31.7650 C   0  0  0  0  0  3  0  0  0  0  0  0
   48.2570   72.3700   30.8410 C   0  0  0  0  0  3  0  0  0  0  0  0
   47.3030   72.8080   29.9670 N   0  0  0  0  0  0  0  0  0  0  0  0
   46.0420   72.3210   29.9690 C   0  0  0  0  0  3  0  0  0  0  0  0
   45.6830   71.3690   30.8510 N   0  0  0  0  0  0  0  0  0  0  0  0
  1  2  1  0  0  0  0
  3  2  2  0  0  0  0
  4  5  2  0  0  0  0
  4  3  1  0  0  0  0
  5  6  1  0  0  0  0
  6  1  2  0  0  0  0
M  END
>  <MODEL>
7

>  <REMARK>
 minimizedAffinity -1.99229395REMARK  Name = 7
  0 active torsions:
  status: ('A' for Active; 'I' for Inactive)
                            x       y       z     vdW  Elec       q    Type
                         _______ _______ _______ _____ _____    ______ ____

>  <TORSDO>
F 0

$$$$
