./init_pose/1_6.pdbqt
     RDKit          3D

 10 10  0  0  0  0  0  0  0  0999 V2000
   46.5770   70.8920   31.7340 C   0  0  0  0  0  0  0  0  0  0  0  0
   47.9020   71.3760   31.7650 C   0  0  0  0  0  0  0  0  0  0  0  0
   48.2570   72.3700   30.8410 C   0  0  0  0  0  0  0  0  0  0  0  0
   47.3030   72.8080   29.9670 N   0  0  0  0  0  0  0  0  0  0  0  0
   46.0420   72.3210   29.9690 C   0  0  0  0  0  0  0  0  0  0  0  0
   45.6830   71.3690   30.8510 N   0  0  0  0  0  0  0  0  0  0  0  0
   46.2703   70.1106   32.4449 H   0  0  0  0  0  0  0  0  0  0  0  0
   48.6323   70.9868   32.4897 H   0  0  0  0  0  0  0  0  0  0  0  0
   49.2754   72.7852   30.8208 H   0  0  0  0  0  0  0  0  0  0  0  0
   45.3059   72.7041   29.2469 H   0  0  0  0  0  0  0  0  0  0  0  0
  1  2  2  0
  3  2  1  0
  4  5  1  0
  4  3  2  0
  5  6  2  0
  6  1  1  0
  1  7  1  0
  2  8  1  0
  3  9  1  0
  5 10  1  0
M  END
>  <MODEL>  (1) 
7

>  <REMARK>  (1) 
 minimizedAffinity -1.99229395REMARK  Name = 7
  0 active torsions:
  status: ('A' for Active; 'I' for Inactive)
                            x       y       z     vdW  Elec       q    Type
                         _______ _______ _______ _____ _____    ______ ____

>  <TORSDO>  (1) 
F 0

$$$$
