./init_pose/1_7.pdbqt
 OpenBabel03222510333D

  6  6  0  0  0  0  0  0  0  0999 V2000
   46.4720   69.2120   29.8000 C   0  0  0  0  0  3  0  0  0  0  0  0
   45.5300   69.3540   30.8420 C   0  0  0  0  0  3  0  0  0  0  0  0
   45.1590   70.6540   31.2160 C   0  0  0  0  0  3  0  0  0  0  0  0
   45.7310   71.7030   30.5550 N   0  0  0  0  0  0  0  0  0  0  0  0
   46.6290   71.5280   29.5600 C   0  0  0  0  0  3  0  0  0  0  0  0
   46.9940   70.2880   29.1850 N   0  0  0  0  0  0  0  0  0  0  0  0
  1  2  1  0  0  0  0
  2  3  2  0  0  0  0
  4  3  1  0  0  0  0
  5  4  2  0  0  0  0
  6  5  1  0  0  0  0
  6  1  2  0  0  0  0
M  END
>  <MODEL>
8

>  <REMARK>
 minimizedAffinity -1.99019909REMARK  Name = 7
  0 active torsions:
  status: ('A' for Active; 'I' for Inactive)
                            x       y       z     vdW  Elec       q    Type
                         _______ _______ _______ _____ _____    ______ ____

>  <TORSDO>
F 0

$$$$
