./init_pose/1_7.pdbqt
     RDKit          3D

 10 10  0  0  0  0  0  0  0  0999 V2000
   46.4720   69.2120   29.8000 C   0  0  0  0  0  0  0  0  0  0  0  0
   45.5300   69.3540   30.8420 C   0  0  0  0  0  0  0  0  0  0  0  0
   45.1590   70.6540   31.2160 C   0  0  0  0  0  0  0  0  0  0  0  0
   45.7310   71.7030   30.5550 N   0  0  0  0  0  0  0  0  0  0  0  0
   46.6290   71.5280   29.5600 C   0  0  0  0  0  0  0  0  0  0  0  0
   46.9940   70.2880   29.1850 N   0  0  0  0  0  0  0  0  0  0  0  0
   46.7840   68.2050   29.4861 H   0  0  0  0  0  0  0  0  0  0  0  0
   45.1012   68.4742   31.3440 H   0  0  0  0  0  0  0  0  0  0  0  0
   44.4274   70.8238   32.0197 H   0  0  0  0  0  0  0  0  0  0  0  0
   47.0635   72.4030   29.0545 H   0  0  0  0  0  0  0  0  0  0  0  0
  1  2  2  0
  2  3  1  0
  4  3  2  0
  5  4  1  0
  6  5  2  0
  6  1  1  0
  1  7  1  0
  2  8  1  0
  3  9  1  0
  5 10  1  0
M  END
>  <MODEL>  (1) 
8

>  <REMARK>  (1) 
 minimizedAffinity -1.99019909REMARK  Name = 7
  0 active torsions:
  status: ('A' for Active; 'I' for Inactive)
                            x       y       z     vdW  Elec       q    Type
                         _______ _______ _______ _____ _____    ______ ____

>  <TORSDO>  (1) 
F 0

$$$$
