./init_pose/1_8.pdbqt
 OpenBabel03222510333D

  6  6  0  0  0  0  0  0  0  0999 V2000
   53.4430   68.5670   40.4740 C   0  0  0  0  0  3  0  0  0  0  0  0
   54.5410   68.2440   39.6490 C   0  0  0  0  0  3  0  0  0  0  0  0
   54.2740   67.8230   38.3380 C   0  0  0  0  0  3  0  0  0  0  0  0
   52.9700   67.7470   37.9390 N   0  0  0  0  0  0  0  0  0  0  0  0
   51.9430   68.0670   38.7580 C   0  0  0  0  0  3  0  0  0  0  0  0
   52.1820   68.4770   40.0170 N   0  0  0  0  0  0  0  0  0  0  0  0
  2  1  2  0  0  0  0
  3  2  1  0  0  0  0
  4  3  2  0  0  0  0
  4  5  1  0  0  0  0
  5  6  2  0  0  0  0
  6  1  1  0  0  0  0
M  END
>  <MODEL>
9

>  <REMARK>
 minimizedAffinity -1.97410715REMARK  Name = 7
  0 active torsions:
  status: ('A' for Active; 'I' for Inactive)
                            x       y       z     vdW  Elec       q    Type
                         _______ _______ _______ _____ _____    ______ ____

>  <TORSDO>
F 0

$$$$
