./init_pose/1_1.pdbqt
 OpenBabel03222511403D

  6  6  0  0  0  0  0  0  0  0999 V2000
   46.1200   34.4540   43.3560 C   0  0  0  0  0  0  0  0  0  0  0  0
   45.3450   35.6310   43.2870 C   0  0  0  0  0  0  0  0  0  0  0  0
   44.6080   35.9970   44.4240 C   0  0  0  0  0  0  0  0  0  0  0  0
   44.6820   35.1940   45.5260 N   0  0  0  0  0  0  0  0  0  0  0  0
   45.4370   34.0730   45.5550 C   0  0  0  0  0  0  0  0  0  0  0  0
   46.1530   33.7090   44.4750 N   0  0  0  0  0  0  0  0  0  0  0  0
  1  6  1  0  0  0  0
  2  1  2  0  0  0  0
  2  3  1  0  0  0  0
  3  4  2  0  0  0  0
  4  5  1  0  0  0  0
  6  5  2  0  0  0  0
M  END
>  <MODEL>
2

>  <REMARK>
 minimizedAffinity -2.59403038REMARK  Name = 7
  0 active torsions:
  status: ('A' for Active; 'I' for Inactive)
                            x       y       z     vdW  Elec       q    Type
                         _______ _______ _______ _____ _____    ______ ____

>  <TORSDO>
F 0

$$$$
