MODEL 2
REMARK minimizedAffinity -2.59403038REMARK  Name = 7
REMARK  0 active torsions:
REMARK  status: ('A' for Active; 'I' for Inactive)
REMARK                            x       y       z     vdW  Elec       q    Type
REMARK                         _______ _______ _______ _____ _____    ______ ____
ROOT
ATOM      1  C   UNL     1      46.120  34.454  43.356  0.00  0.00    +0.000 A 
ATOM      2  C   UNL     1      45.345  35.631  43.287  0.00  0.00    +0.000 A 
ATOM      3  C   UNL     1      44.608  35.997  44.424  0.00  0.00    +0.000 A 
ATOM      4  N   UNL     1      44.682  35.194  45.526  0.00  0.00    +0.000 NA
ATOM      5  C   UNL     1      45.437  34.073  45.555  0.00  0.00    +0.000 A 
ATOM      6  N   UNL     1      46.153  33.709  44.475  0.00  0.00    +0.000 NA
ENDROOT
TORSDOF 0
ENDMDL
