./init_pose/1_1.pdbqt
     RDKit          3D

 10 10  0  0  0  0  0  0  0  0999 V2000
   46.1200   34.4540   43.3560 C   0  0  0  0  0  0  0  0  0  0  0  0
   45.3450   35.6310   43.2870 C   0  0  0  0  0  0  0  0  0  0  0  0
   44.6080   35.9970   44.4240 C   0  0  0  0  0  0  0  0  0  0  0  0
   44.6820   35.1940   45.5260 N   0  0  0  0  0  0  0  0  0  0  0  0
   45.4370   34.0730   45.5550 C   0  0  0  0  0  0  0  0  0  0  0  0
   46.1530   33.7090   44.4750 N   0  0  0  0  0  0  0  0  0  0  0  0
   46.7069   34.1406   42.4800 H   0  0  0  0  0  0  0  0  0  0  0  0
   45.3193   36.2416   42.3724 H   0  0  0  0  0  0  0  0  0  0  0  0
   43.9879   36.9056   44.4273 H   0  0  0  0  0  0  0  0  0  0  0  0
   45.4663   33.4558   46.4650 H   0  0  0  0  0  0  0  0  0  0  0  0
  1  6  2  0
  2  1  1  0
  2  3  2  0
  3  4  1  0
  4  5  2  0
  6  5  1  0
  1  7  1  0
  2  8  1  0
  3  9  1  0
  5 10  1  0
M  END
>  <MODEL>  (1) 
2

>  <REMARK>  (1) 
 minimizedAffinity -2.59403038REMARK  Name = 7
  0 active torsions:
  status: ('A' for Active; 'I' for Inactive)
                            x       y       z     vdW  Elec       q    Type
                         _______ _______ _______ _____ _____    ______ ____

>  <TORSDO>  (1) 
F 0

$$$$
