./init_pose/1_2.pdbqt
     RDKit          3D

 10 10  0  0  0  0  0  0  0  0999 V2000
   46.0320   34.9570   43.0740 C   0  0  0  0  0  0  0  0  0  0  0  0
   46.2800   33.9170   43.9950 C   0  0  0  0  0  0  0  0  0  0  0  0
   45.6250   33.9710   45.2340 C   0  0  0  0  0  0  0  0  0  0  0  0
   44.7900   35.0240   45.4770 N   0  0  0  0  0  0  0  0  0  0  0  0
   44.5760   36.0020   44.5680 C   0  0  0  0  0  0  0  0  0  0  0  0
   45.1930   35.9640   43.3730 N   0  0  0  0  0  0  0  0  0  0  0  0
   46.5335   34.9435   42.0951 H   0  0  0  0  0  0  0  0  0  0  0  0
   46.9642   33.0915   43.7494 H   0  0  0  0  0  0  0  0  0  0  0  0
   45.7796   33.1866   45.9895 H   0  0  0  0  0  0  0  0  0  0  0  0
   43.8947   36.8320   44.8065 H   0  0  0  0  0  0  0  0  0  0  0  0
  1  6  2  0
  1  2  1  0
  2  3  2  0
  3  4  1  0
  5  4  2  0
  6  5  1  0
  1  7  1  0
  2  8  1  0
  3  9  1  0
  5 10  1  0
M  END
>  <MODEL>  (1) 
3

>  <REMARK>  (1) 
 minimizedAffinity -2.57526636REMARK  Name = 7
  0 active torsions:
  status: ('A' for Active; 'I' for Inactive)
                            x       y       z     vdW  Elec       q    Type
                         _______ _______ _______ _____ _____    ______ ____

>  <TORSDO>  (1) 
F 0

$$$$
