./init_pose/1_5.pdbqt
     RDKit          3D

 10 10  0  0  0  0  0  0  0  0999 V2000
   49.7930   35.1050   42.4320 C   0  0  0  0  0  0  0  0  0  0  0  0
   48.8870   35.6700   41.5100 C   0  0  0  0  0  0  0  0  0  0  0  0
   48.2890   34.8150   40.5720 C   0  0  0  0  0  0  0  0  0  0  0  0
   48.6210   33.4900   40.6050 N   0  0  0  0  0  0  0  0  0  0  0  0
   49.4930   32.9850   41.5060 C   0  0  0  0  0  0  0  0  0  0  0  0
   50.0720   33.7900   42.4150 N   0  0  0  0  0  0  0  0  0  0  0  0
   50.2794   35.7513   43.1774 H   0  0  0  0  0  0  0  0  0  0  0  0
   48.6570   36.7456   41.5260 H   0  0  0  0  0  0  0  0  0  0  0  0
   47.5732   35.2004   39.8310 H   0  0  0  0  0  0  0  0  0  0  0  0
   49.7302   31.9109   41.4958 H   0  0  0  0  0  0  0  0  0  0  0  0
  2  1  2  0
  3  4  2  0
  3  2  1  0
  4  5  1  0
  5  6  2  0
  6  1  1  0
  1  7  1  0
  2  8  1  0
  3  9  1  0
  5 10  1  0
M  END
>  <MODEL>  (1) 
6

>  <REMARK>  (1) 
 minimizedAffinity -2.46771693REMARK  Name = 7
  0 active torsions:
  status: ('A' for Active; 'I' for Inactive)
                            x       y       z     vdW  Elec       q    Type
                         _______ _______ _______ _____ _____    ______ ____

>  <TORSDO>  (1) 
F 0

$$$$
