MODEL 8
REMARK minimizedAffinity -2.46067238REMARK  Name = 7
REMARK  0 active torsions:
REMARK  status: ('A' for Active; 'I' for Inactive)
REMARK                            x       y       z     vdW  Elec       q    Type
REMARK                         _______ _______ _______ _____ _____    ______ ____
ROOT
ATOM      1  C   UNL     1      48.309  34.851  40.575  0.00  0.00    +0.000 A 
ATOM      2  C   UNL     1      48.910  35.682  41.546  0.00  0.00    +0.000 A 
ATOM      3  C   UNL     1      49.787  35.085  42.464  0.00  0.00    +0.000 A 
ATOM      4  N   UNL     1      50.006  33.741  42.367  0.00  0.00    +0.000 NA
ATOM      5  C   UNL     1      49.413  32.978  41.421  0.00  0.00    +0.000 A 
ATOM      6  N   UNL     1      48.571  33.534  40.530  0.00  0.00    +0.000 NA
ENDROOT
TORSDOF 0
ENDMDL
