./init_pose/1_7.pdbqt
 OpenBabel03222511403D

  6  6  0  0  0  0  0  0  0  0999 V2000
   48.3090   34.8510   40.5750 C   0  0  0  0  0  0  0  0  0  0  0  0
   48.9100   35.6820   41.5460 C   0  0  0  0  0  0  0  0  0  0  0  0
   49.7870   35.0850   42.4640 C   0  0  0  0  0  0  0  0  0  0  0  0
   50.0060   33.7410   42.3670 N   0  0  0  0  0  0  0  0  0  0  0  0
   49.4130   32.9780   41.4210 C   0  0  0  0  0  0  0  0  0  0  0  0
   48.5710   33.5340   40.5300 N   0  0  0  0  0  0  0  0  0  0  0  0
  1  2  1  0  0  0  0
  2  3  2  0  0  0  0
  4  3  1  0  0  0  0
  5  4  2  0  0  0  0
  6  1  2  0  0  0  0
  6  5  1  0  0  0  0
M  END
>  <MODEL>
8

>  <REMARK>
 minimizedAffinity -2.46067238REMARK  Name = 7
  0 active torsions:
  status: ('A' for Active; 'I' for Inactive)
                            x       y       z     vdW  Elec       q    Type
                         _______ _______ _______ _____ _____    ______ ____

>  <TORSDO>
F 0

$$$$
