./init_pose/1_8.pdbqt
 OpenBabel03222511403D

  6  6  0  0  0  0  0  0  0  0999 V2000
   44.7530   36.0880   44.0250 C   0  0  0  0  0  0  0  0  0  0  0  0
   44.5840   35.4830   45.2890 C   0  0  0  0  0  0  0  0  0  0  0  0
   45.2500   34.2710   45.5280 C   0  0  0  0  0  0  0  0  0  0  0  0
   46.0170   33.7490   44.5260 N   0  0  0  0  0  0  0  0  0  0  0  0
   46.1560   34.3590   43.3280 C   0  0  0  0  0  0  0  0  0  0  0  0
   45.5280   35.5240   43.0830 N   0  0  0  0  0  0  0  0  0  0  0  0
  1  2  1  0  0  0  0
  2  3  2  0  0  0  0
  4  3  1  0  0  0  0
  5  4  2  0  0  0  0
  6  5  1  0  0  0  0
  6  1  2  0  0  0  0
M  END
>  <MODEL>
9

>  <REMARK>
 minimizedAffinity -2.43234205REMARK  Name = 7
  0 active torsions:
  status: ('A' for Active; 'I' for Inactive)
                            x       y       z     vdW  Elec       q    Type
                         _______ _______ _______ _____ _____    ______ ____

>  <TORSDO>
F 0

$$$$
