MODEL 9
REMARK minimizedAffinity -2.43234205REMARK  Name = 7
REMARK  0 active torsions:
REMARK  status: ('A' for Active; 'I' for Inactive)
REMARK                            x       y       z     vdW  Elec       q    Type
REMARK                         _______ _______ _______ _____ _____    ______ ____
ROOT
ATOM      1  C   UNL     1      44.753  36.088  44.025  0.00  0.00    +0.000 A 
ATOM      2  C   UNL     1      44.584  35.483  45.289  0.00  0.00    +0.000 A 
ATOM      3  C   UNL     1      45.250  34.271  45.528  0.00  0.00    +0.000 A 
ATOM      4  N   UNL     1      46.017  33.749  44.526  0.00  0.00    +0.000 NA
ATOM      5  C   UNL     1      46.156  34.359  43.328  0.00  0.00    +0.000 A 
ATOM      6  N   UNL     1      45.528  35.524  43.083  0.00  0.00    +0.000 NA
ENDROOT
TORSDOF 0
ENDMDL
