./init_pose/1_8.pdbqt
     RDKit          3D

 10 10  0  0  0  0  0  0  0  0999 V2000
   44.7530   36.0880   44.0250 C   0  0  0  0  0  0  0  0  0  0  0  0
   44.5840   35.4830   45.2890 C   0  0  0  0  0  0  0  0  0  0  0  0
   45.2500   34.2710   45.5280 C   0  0  0  0  0  0  0  0  0  0  0  0
   46.0170   33.7490   44.5260 N   0  0  0  0  0  0  0  0  0  0  0  0
   46.1560   34.3590   43.3280 C   0  0  0  0  0  0  0  0  0  0  0  0
   45.5280   35.5240   43.0830 N   0  0  0  0  0  0  0  0  0  0  0  0
   44.2417   37.0373   43.8073 H   0  0  0  0  0  0  0  0  0  0  0  0
   43.9515   35.9459   46.0608 H   0  0  0  0  0  0  0  0  0  0  0  0
   45.1568   33.7559   46.4955 H   0  0  0  0  0  0  0  0  0  0  0  0
   46.7849   33.9015   42.5500 H   0  0  0  0  0  0  0  0  0  0  0  0
  1  2  2  0
  2  3  1  0
  4  3  2  0
  5  4  1  0
  6  5  2  0
  6  1  1  0
  1  7  1  0
  2  8  1  0
  3  9  1  0
  5 10  1  0
M  END
>  <MODEL>  (1) 
9

>  <REMARK>  (1) 
 minimizedAffinity -2.43234205REMARK  Name = 7
  0 active torsions:
  status: ('A' for Active; 'I' for Inactive)
                            x       y       z     vdW  Elec       q    Type
                         _______ _______ _______ _____ _____    ______ ____

>  <TORSDO>  (1) 
F 0

$$$$
