
     RDKit          3D

  0  0  0  0  0  0  0  0  0  0999 V3000
M  V30 BEGIN CTAB
M  V30 COUNTS 1485 1182 0 0 0
M  V30 BEGIN ATOM
M  V30 1 N 24.629000 48.690000 53.391000 0
M  V30 2 C 24.497000 46.232000 53.501000 0
M  V30 3 O 24.798000 45.981000 52.351000 0
M  V30 4 C 22.295000 47.619000 53.166000 0
M  V30 5 C 21.348000 46.661000 53.872000 0
M  V30 6 S 20.072000 46.036000 52.901000 0
M  V30 7 C 19.254000 47.596000 52.402000 0
M  V30 8 N 24.866000 45.433000 54.523000 0
M  V30 9 C 24.789000 42.916000 54.479000 0
M  V30 10 O 24.102000 42.672000 55.438000 0
M  V30 11 C 26.628000 44.051000 55.676000 0
M  V30 12 C 27.677000 45.147000 55.629000 0
M  V30 13 C 28.190000 45.379000 57.023000 0
M  V30 14 N 27.217000 45.830000 57.950000 0
M  V30 15 C 27.325000 46.197000 59.200000 0
M  V30 16 N 28.516000 46.284000 59.742000 0 CHG=1
M  V30 17 N 26.314000 46.472000 60.001000 0
M  V30 18 N 24.707000 42.183000 53.407000 0
M  V30 19 C 24.224000 39.899000 52.618000 0
M  V30 20 O 25.198000 39.906000 51.896000 0
M  V30 21 C 22.704000 41.719000 52.011000 0
M  V30 22 C 22.180000 43.184000 52.178000 0
M  V30 23 C 21.572000 40.716000 51.765000 0
M  V30 24 C 21.859000 43.666000 50.734000 0
M  V30 25 N 23.737000 38.771000 53.124000 0
M  V30 26 C 23.021000 36.458000 52.544000 0
M  V30 27 O 22.050000 36.292000 53.262000 0
M  V30 28 C 25.046000 36.696000 54.027000 0
M  V30 29 C 26.322000 37.578000 54.375000 0
M  V30 30 C 25.455000 35.339000 53.565000 0
M  V30 31 C 27.071000 37.011000 55.559000 0
M  V30 32 N 23.131000 35.830000 51.394000 0
M  V30 33 C 22.331000 33.515000 51.561000 0
M  V30 34 O 23.400000 32.957000 51.508000 0
M  V30 35 C 22.191000 34.939000 49.333000 0
M  V30 36 C 22.027000 36.268000 48.648000 0
M  V30 37 C 21.817000 36.204000 47.063000 0
M  V30 38 C 21.039000 37.278000 49.239000 0
M  V30 39 N 21.161000 33.036000 52.063000 0
M  V30 40 C 20.385000 30.649000 51.824000 0
M  V30 41 O 19.617000 31.125000 50.988000 0
M  V30 42 C 20.544000 31.749000 54.104000 0
M  V30 43 C 21.512000 32.272000 55.195000 0
M  V30 44 C 20.827000 32.468000 56.609000 0
M  V30 45 C 22.773000 31.400000 55.409000 0
M  V30 46 N 20.505000 29.370000 52.110000 0
M  V30 47 C 19.904000 28.011000 50.037000 0
M  V30 48 O 21.086000 27.852000 49.770000 0
M  V30 49 N 18.963000 27.642000 49.157000 0
M  V30 50 C 20.188000 27.672000 46.923000 0
M  V30 51 O 20.422000 28.869000 47.068000 0
M  V30 52 C 17.823000 26.677000 47.275000 0
M  V30 53 N 20.627000 27.052000 45.842000 0
M  V30 54 C 20.453000 28.350000 43.726000 0
M  V30 55 O 19.233000 28.131000 43.732000 0
M  V30 56 C 22.287000 26.678000 44.167000 0
M  V30 57 C 22.280000 25.529000 45.096000 0
M  V30 58 C 20.970000 25.633000 45.841000 0
M  V30 59 N 20.959000 29.261000 42.899000 0
M  V30 60 C 19.135000 30.571000 41.791000 0
M  V30 61 O 19.179000 31.699000 42.309000 0
M  V30 62 N 18.040000 30.095000 41.210000 0
M  V30 63 C 16.651000 32.207000 41.078000 0
M  V30 64 O 15.783000 32.889000 41.608000 0
M  V30 65 C 16.381000 30.160000 42.958000 0
M  V30 66 N 17.479000 32.694000 40.137000 0
M  V30 67 C 17.997000 35.143000 40.694000 0
M  V30 68 O 18.002000 36.327000 40.422000 0
M  V30 69 N 18.796000 34.648000 41.691000 0
M  V30 70 C 20.634000 36.436000 41.945000 0
M  V30 71 O 20.803000 37.544000 42.438000 0
M  V30 72 C 20.414000 34.546000 43.536000 0
M  V30 73 C 19.619000 33.991000 44.728000 0
M  V30 74 C 20.440000 33.176000 45.764000 0
M  V30 75 C 21.015000 31.920000 45.045000 0
M  V30 76 N 22.058000 31.231000 45.890000 0 CHG=1
M  V30 77 N 21.122000 36.153000 40.759000 0
M  V30 78 C 21.051000 38.242000 39.428000 0
M  V30 79 O 21.452000 39.401000 39.587000 0
M  V30 80 N 19.810000 38.006000 38.961000 0
M  V30 81 C 18.512000 39.914000 39.992000 0
M  V30 82 O 18.375000 41.171000 39.916000 0
M  V30 83 C 17.549000 38.575000 38.091000 0
M  V30 84 C 16.596000 39.774000 37.655000 0
M  V30 85 O 17.897000 38.009000 36.881000 0
M  V30 86 N 18.352000 39.261000 41.109000 0
M  V30 87 C 19.057000 40.797000 42.776000 0
M  V30 88 O 18.890000 41.965000 43.079000 0
M  V30 89 C 17.598000 38.828000 43.329000 0
M  V30 90 C 16.387000 38.033000 42.919000 0
M  V30 91 C 15.123000 38.895000 42.779000 0
M  V30 92 N 13.979000 38.261000 42.484000 0
M  V30 93 O 15.100000 40.119000 43.044000 0
M  V30 94 N 20.257000 40.250000 42.774000 0
M  V30 95 C 21.626000 42.235000 41.882000 0
M  V30 96 O 21.885000 43.305000 42.340000 0
M  V30 97 C 22.622000 40.027000 42.894000 0
M  V30 98 N 21.158000 42.106000 40.646000 0
M  V30 99 C 20.067000 44.341000 40.381000 0
M  V30 100 O 20.470000 45.438000 40.417000 0
M  V30 101 C 20.732000 42.820000 38.288000 0
M  V30 102 C 21.617000 43.613000 37.254000 0
M  V30 103 C 21.577000 45.038000 37.585000 0
M  V30 104 N 22.658000 45.556000 38.206000 0
M  V30 105 O 20.621000 45.762000 37.414000 0
M  V30 106 N 18.850000 43.967000 40.829000 0
M  V30 107 C 18.428000 45.609000 42.783000 0
M  V30 108 O 17.896000 46.704000 43.112000 0
M  V30 109 C 16.515000 44.342000 41.675000 0
M  V30 110 C 15.661000 44.254000 40.367000 0
M  V30 111 C 15.465000 45.320000 39.474000 0
M  V30 112 C 15.028000 43.040000 40.156000 0
M  V30 113 C 14.629000 45.171000 38.359000 0
M  V30 114 C 14.316000 42.839000 39.008000 0
M  V30 115 C 13.948000 43.917000 38.156000 0
M  V30 116 N 19.233000 44.901000 43.645000 0
M  V30 117 C 21.113000 46.360000 44.476000 0
M  V30 118 O 21.480000 47.343000 45.192000 0
M  V30 119 C 20.385000 44.179000 45.772000 0
M  V30 120 C 19.111000 43.317000 46.164000 0
M  V30 121 C 21.165000 44.591000 46.968000 0
M  V30 122 C 19.542000 41.934000 46.752000 0
M  V30 123 N 21.778000 46.093000 43.314000 0
M  V30 124 C 22.014000 48.159000 42.170000 0
M  V30 125 O 22.537000 49.234000 42.286000 0
M  V30 126 C 23.592000 46.250000 41.658000 0
M  V30 127 C 24.203000 47.130000 40.571000 0
M  V30 128 S 25.291000 48.477000 41.153000 0
M  V30 129 C 26.752000 47.436000 41.425000 0
M  V30 130 N 20.877000 48.023000 41.456000 0
M  V30 131 C 19.434000 49.943000 41.937000 0
M  V30 132 O 19.476000 51.175000 41.830000 0
M  V30 133 C 19.398000 48.518000 39.704000 0
M  V30 134 C 18.345000 49.457000 39.086000 0
M  V30 135 C 18.724000 50.739000 38.527000 0
M  V30 136 O 17.860000 51.661000 38.372000 0
M  V30 137 O 19.916000 50.964000 38.217000 0 CHG=-1
M  V30 138 N 18.993000 49.377000 43.039000 0
M  V30 139 C 19.409000 50.826000 45.045000 0
M  V30 140 O 19.129000 51.904000 45.618000 0
M  V30 141 C 17.407000 49.255000 44.946000 0
M  V30 142 C 16.474000 50.033000 45.913000 0
M  V30 143 C 15.518000 48.974000 46.535000 0
M  V30 144 C 14.771000 49.638000 47.702000 0
M  V30 145 N 13.834000 48.746000 48.395000 0 CHG=1
M  V30 146 N 20.568000 50.213000 45.411000 0
M  V30 147 C 22.933000 50.718000 46.060000 0
M  V30 148 O 23.766000 51.050000 46.901000 0
M  V30 149 C 21.286000 49.839000 47.752000 0
M  V30 150 C 19.936000 49.396000 48.299000 0
M  V30 151 C 19.187000 50.293000 49.085000 0
M  V30 152 C 19.581000 48.036000 48.149000 0
M  V30 153 C 17.961000 49.892000 49.600000 0
M  V30 154 C 18.280000 47.695000 48.653000 0
M  V30 155 C 17.561000 48.617000 49.445000 0
M  V30 156 O 16.346000 48.220000 49.895000 0
M  V30 157 N 23.308000 50.338000 44.811000 0
M  V30 158 C 25.546000 49.124000 45.072000 0
M  V30 159 O 26.817000 49.054000 44.951000 0
M  V30 160 N 24.904000 48.191000 45.778000 0
M  V30 161 C 26.313000 46.073000 45.419000 0
M  V30 162 O 25.588000 45.704000 44.472000 0
M  V30 163 C 24.845000 46.593000 47.561000 0
M  V30 164 C 24.625000 47.543000 48.704000 0
M  V30 165 C 25.454000 45.270000 48.163000 0
M  V30 166 C 23.389000 47.228000 49.607000 0
M  V30 167 N 27.621000 45.731000 45.493000 0
M  V30 168 C 27.872000 43.375000 44.969000 0
M  V30 169 O 27.566000 43.140000 46.143000 0
M  V30 170 C 29.719000 44.972000 44.670000 0
M  V30 171 C 29.986000 45.582000 46.046000 0
M  V30 172 C 28.628000 46.067000 46.401000 0
M  V30 173 N 27.816000 42.435000 43.951000 0
M  V30 174 C 28.964000 40.118000 44.495000 0
M  V30 175 O 30.048000 40.504000 44.018000 0
M  V30 176 C 26.575000 40.240000 43.407000 0
M  V30 177 C 27.136000 39.964000 41.959000 0
M  V30 178 C 28.004000 38.699000 41.794000 0
M  V30 179 N 28.837000 38.635000 40.765000 0
M  V30 180 O 28.067000 37.775000 42.600000 0
M  V30 181 N 29.012000 39.139000 45.430000 0
M  V30 182 C 30.178000 38.456000 45.965000 0 CFG=2
M  V30 183 C 29.795000 36.911000 45.995000 0
M  V30 184 O 29.695000 36.290000 47.054000 0
M  V30 185 C 30.578000 39.142000 47.329000 0 CFG=2
M  V30 186 C 30.905000 40.655000 47.060000 0
M  V30 187 C 31.686000 38.394000 48.072000 0
M  V30 188 C 31.315000 41.422000 48.300000 0
M  V30 189 N 29.661000 36.368000 44.775000 0
M  V30 190 C 29.398000 34.870000 44.614000 0 CFG=2
M  V30 191 C 30.698000 34.136000 44.735000 0
M  V30 192 O 31.510000 34.037000 43.810000 0
M  V30 193 C 28.641000 34.537000 43.292000 0
M  V30 194 O 27.358000 35.125000 43.213000 0
M  V30 195 N 30.876000 33.586000 45.929000 0
M  V30 196 C 32.213000 33.156000 46.459000 0 CFG=2
M  V30 197 C 32.753000 31.970000 45.728000 0
M  V30 198 O 33.960000 31.911000 45.384000 0
M  V30 199 C 32.208000 32.884000 47.950000 0 CFG=1
M  V30 200 C 33.577000 32.876000 48.530000 0
M  V30 201 O 31.402000 33.843000 48.631000 0
M  V30 202 N 31.983000 30.940000 45.380000 0
M  V30 203 C 32.440000 29.815000 44.611000 0
M  V30 204 C 32.814000 30.091000 43.116000 0
M  V30 205 O 33.645000 29.404000 42.570000 0
M  V30 206 N 32.271000 31.101000 42.409000 0
M  V30 207 C 32.697000 31.637000 41.135000 0 CFG=2
M  V30 208 C 34.022000 32.275000 41.196000 0
M  V30 209 O 34.893000 31.870000 40.452000 0
M  V30 210 C 31.614000 32.636000 40.556000 0
M  V30 211 C 30.189000 32.047000 40.158000 0
M  V30 212 O 29.248000 32.748000 40.023000 0
M  V30 213 O 30.238000 30.821000 39.968000 0 CHG=-1
M  V30 214 N 34.187000 33.178000 42.150000 0
M  V30 215 C 35.427000 33.770000 42.633000 0 CFG=2
M  V30 216 C 36.570000 32.804000 42.914000 0
M  V30 217 O 37.624000 32.972000 42.323000 0
M  V30 218 C 35.264000 34.769000 43.819000 0
M  V30 219 C 34.267000 35.855000 43.551000 0
M  V30 220 S 33.478000 36.453000 45.088000 0
M  V30 221 C 34.821000 36.477000 46.364000 0
M  V30 222 N 36.330000 31.693000 43.535000 0
M  V30 223 C 37.232000 30.559000 43.488000 0 CFG=2
M  V30 224 C 37.516000 29.987000 42.026000 0
M  V30 225 O 38.733000 29.695000 41.712000 0
M  V30 226 C 36.745000 29.413000 44.377000 0
M  V30 227 C 37.910000 28.476000 44.889000 0
M  V30 228 C 38.843000 29.095000 45.915000 0
M  V30 229 C 37.125000 27.297000 45.538000 0
M  V30 230 N 36.520000 29.823000 41.199000 0
M  V30 231 C 36.684000 29.305000 39.849000 0 CFG=2
M  V30 232 C 37.623000 30.198000 38.983000 0
M  V30 233 O 38.492000 29.756000 38.232000 0
M  V30 234 C 35.285000 29.121000 39.182000 0
M  V30 235 C 35.159000 28.325000 37.892000 0
M  V30 236 C 35.238000 26.787000 38.193000 0
M  V30 237 N 33.965000 26.316000 38.715000 0
M  V30 238 C 33.644000 25.080000 39.051000 0
M  V30 239 N 34.265000 23.940000 38.722000 0 CHG=1
M  V30 240 N 32.557000 24.822000 39.731000 0
M  V30 241 N 37.502000 31.484000 39.274000 0
M  V30 242 C 38.270000 32.618000 38.708000 0 CFG=2
M  V30 243 C 39.737000 32.499000 39.215000 0
M  V30 244 O 40.686000 32.699000 38.408000 0
M  V30 245 C 37.630000 33.935000 39.112000 0
M  V30 246 N 39.927000 32.205000 40.531000 0
M  V30 247 C 41.284000 31.889000 40.988000 0 CFG=2
M  V30 248 C 41.916000 30.724000 40.200000 0
M  V30 249 O 43.066000 30.898000 39.797000 0
M  V30 250 C 41.269000 31.755000 42.554000 0
M  V30 251 N 41.136000 29.645000 39.968000 0
M  V30 252 C 41.641000 28.536000 39.091000 0 CFG=2
M  V30 253 C 41.879000 28.900000 37.621000 0
M  V30 254 O 42.759000 28.390000 36.999000 0
M  V30 255 C 40.731000 27.341000 39.290000 0
M  V30 256 C 41.185000 26.151000 38.444000 0
M  V30 257 C 40.705000 26.726000 40.709000 0
M  V30 258 N 41.037000 29.807000 37.070000 0
M  V30 259 C 41.082000 30.221000 35.654000 0 CFG=2
M  V30 260 C 42.419000 30.838000 35.385000 0
M  V30 261 O 43.157000 30.457000 34.515000 0
M  V30 262 C 39.892000 31.102000 35.280000 0
M  V30 263 C 39.212000 30.671000 33.971000 0
M  V30 264 C 40.004000 30.835000 32.641000 0
M  V30 265 C 40.622000 32.321000 32.624000 0
M  V30 266 N 41.368000 32.516000 31.378000 0 CHG=1
M  V30 267 N 42.722000 31.853000 36.210000 0
M  V30 268 C 44.028000 32.514000 36.186000 0 CFG=2
M  V30 269 C 45.202000 31.516000 36.493000 0
M  V30 270 O 46.372000 31.808000 36.115000 0
M  V30 271 C 44.134000 33.664000 37.264000 0
M  V30 272 O 43.116000 34.636000 37.077000 0
M  V30 273 N 45.000000 30.387000 37.215000 0
M  V30 274 C 46.034000 29.479000 37.710000 0
M  V30 275 C 46.754000 30.146000 38.904000 0
M  V30 276 O 47.953000 30.063000 38.936000 0
M  V30 277 N 45.966000 30.755000 39.868000 0
M  V30 278 C 47.379000 30.894000 41.922000 0
M  V30 279 O 47.331000 29.682000 42.013000 0
M  V30 280 C 45.696000 32.650000 41.464000 0
M  V30 281 O 44.913000 32.186000 42.537000 0
M  V30 282 N 48.038000 31.580000 42.819000 0
M  V30 283 C 47.680000 30.286000 44.986000 0
M  V30 284 O 48.001000 29.182000 45.464000 0
M  V30 285 C 49.561000 31.989000 44.660000 0
M  V30 286 C 50.807000 31.381000 45.333000 0
M  V30 287 C 51.980000 31.156000 44.348000 0
M  V30 288 O 52.988000 30.774000 44.837000 0
M  V30 289 O 51.952000 31.465000 43.115000 0 CHG=-1
M  V30 290 N 46.442000 30.785000 45.102000 0
M  V30 291 C 44.585000 29.158000 44.856000 0
M  V30 292 O 44.222000 28.135000 45.375000 0
M  V30 293 C 44.465000 31.251000 46.405000 0
M  V30 294 C 43.012000 30.886000 46.873000 0
M  V30 295 C 43.073000 30.191000 48.242000 0
M  V30 296 C 41.987000 32.064000 46.906000 0
M  V30 297 N 44.453000 29.403000 43.524000 0
M  V30 298 C 44.801000 27.157000 42.436000 0
M  V30 299 O 44.261000 26.104000 42.250000 0
M  V30 300 N 46.135000 27.207000 42.669000 0
M  V30 301 C 46.937000 25.127000 43.911000 0
M  V30 302 O 47.323000 23.966000 43.782000 0
M  V30 303 C 48.415000 26.647000 42.386000 0
M  V30 304 C 48.612000 27.157000 40.879000 0
M  V30 305 C 50.064000 27.607000 40.561000 0
M  V30 306 C 50.531000 28.740000 41.539000 0
M  V30 307 N 51.702000 29.510000 41.138000 0 CHG=1
M  V30 308 N 46.211000 25.536000 44.987000 0
M  V30 309 C 44.377000 24.010000 45.961000 0
M  V30 310 O 44.055000 23.098000 46.711000 0
M  V30 311 C 45.912000 25.278000 47.444000 0
M  V30 312 C 47.314000 25.869000 47.753000 0
M  V30 313 C 47.581000 26.077000 49.280000 0
M  V30 314 N 48.222000 27.142000 49.696000 0
M  V30 315 O 47.297000 25.206000 50.097000 0
M  V30 316 N 43.599000 24.569000 45.025000 0
M  V30 317 C 41.611000 23.761000 43.577000 0
M  V30 318 O 40.529000 23.207000 43.619000 0
M  V30 319 C 41.570000 25.828000 45.135000 0
M  V30 320 N 42.387000 23.631000 42.511000 0
M  V30 321 C 42.036000 22.916000 41.273000 0 CFG=2
M  V30 322 C 41.354000 21.565000 41.419000 0
M  V30 323 O 40.240000 21.369000 40.941000 0
M  V30 324 C 43.187000 22.989000 40.211000 0
M  V30 325 C 44.444000 22.278000 40.671000 0
M  V30 326 C 45.249000 21.730000 39.498000 0
M  V30 327 C 46.626000 21.118000 39.915000 0
M  V30 328 N 46.497000 19.677000 40.187000 0 CHG=1
M  V30 329 N 42.032000 20.632000 42.111000 0
M  V30 330 C 41.606000 19.242000 42.367000 0 CFG=2
M  V30 331 C 40.571000 19.085000 43.481000 0
M  V30 332 O 39.774000 18.120000 43.498000 0
M  V30 333 C 42.805000 18.301000 42.669000 0
M  V30 334 C 43.903000 18.394000 41.597000 0
M  V30 335 O 45.114000 17.986000 41.673000 0
M  V30 336 O 43.538000 18.918000 40.515000 0 CHG=-1
M  V30 337 N 40.424000 20.219000 44.273000 0
M  V30 338 C 39.413000 20.387000 45.319000 0 CFG=2
M  V30 339 C 38.109000 20.955000 44.730000 0
M  V30 340 O 37.074000 20.364000 44.957000 0
M  V30 341 C 39.903000 21.294000 46.455000 0 CFG=2
M  V30 342 C 41.296000 20.883000 47.026000 0
M  V30 343 C 39.052000 21.595000 47.637000 0
M  V30 344 C 41.370000 19.457000 47.484000 0
M  V30 345 N 38.130000 21.849000 43.772000 0
M  V30 346 C 36.912000 22.194000 42.957000 0 CFG=2
M  V30 347 C 36.519000 21.026000 42.005000 0
M  V30 348 O 35.347000 20.870000 41.593000 0
M  V30 349 C 37.177000 23.464000 42.015000 0
M  V30 350 C 37.518000 24.610000 42.935000 0
M  V30 351 S 37.252000 26.239000 42.235000 0
M  V30 352 C 35.443000 26.464000 41.989000 0
M  V30 353 N 37.439000 20.198000 41.574000 0
M  V30 354 C 37.169000 18.914000 40.904000 0 CFG=2
M  V30 355 C 36.394000 17.945000 41.817000 0
M  V30 356 O 35.469000 17.324000 41.354000 0
M  V30 357 C 38.400000 18.347000 40.244000 0
M  V30 358 C 38.842000 18.993000 38.936000 0
M  V30 359 O 39.903000 18.638000 38.418000 0
M  V30 360 O 38.117000 19.888000 38.405000 0 CHG=-1
M  V30 361 N 36.762000 17.745000 43.032000 0
M  V30 362 C 36.056000 16.992000 44.104000 0 CFG=2
M  V30 363 C 34.724000 17.697000 44.415000 0
M  V30 364 O 33.964000 17.108000 45.196000 0
M  V30 365 C 37.025000 16.944000 45.303000 0
M  V30 366 N 34.348000 18.867000 43.927000 0
M  V30 367 C 33.132000 19.606000 44.453000 0
M  V30 368 C 33.264000 20.272000 45.845000 0
M  V30 369 O 32.211000 20.815000 46.274000 0
M  V30 370 N 34.375000 20.348000 46.550000 0
M  V30 371 C 34.764000 20.966000 47.849000 0 CFG=2
M  V30 372 C 35.062000 22.489000 47.681000 0
M  V30 373 O 35.329000 22.986000 46.579000 0
M  V30 374 C 35.872000 20.156000 48.527000 0
M  V30 375 C 35.345000 18.850000 49.142000 0
M  V30 376 C 36.370000 18.028000 49.972000 0
M  V30 377 C 35.627000 16.841000 50.581000 0
M  V30 378 N 36.457000 15.687000 51.049000 0 CHG=1
M  V30 379 N 35.129000 23.242000 48.800000 0
M  V30 380 C 37.144000 24.310000 49.681000 0
M  V30 381 O 37.229000 23.517000 50.605000 0
M  V30 382 C 34.892000 25.627000 49.451000 0
M  V30 383 C 33.749000 25.899000 48.483000 0
M  V30 384 C 32.587000 26.808000 49.071000 0
M  V30 385 C 34.077000 26.412000 47.176000 0
M  V30 386 N 38.276000 25.030000 49.224000 0
M  V30 387 C 39.635000 25.613000 51.267000 0
M  V30 388 O 38.769000 26.310000 51.744000 0
M  V30 389 C 40.675000 25.502000 48.891000 0
M  V30 390 C 40.891000 27.058000 48.890000 0
M  V30 391 C 42.007000 24.787000 49.110000 0
M  V30 392 N 40.720000 25.314000 51.989000 0
M  V30 393 C 40.550000 26.801000 54.020000 0
M  V30 394 O 40.968000 27.893000 53.565000 0
M  V30 395 C 42.421000 25.360000 53.812000 0
M  V30 396 C 42.776000 25.579000 55.297000 0
M  V30 397 O 42.867000 24.159000 53.363000 0
M  V30 398 N 39.702000 26.758000 55.075000 0
M  V30 399 C 39.460000 29.192000 55.656000 0
M  V30 400 O 38.933000 30.120000 55.106000 0
M  V30 401 C 38.130000 27.320000 56.842000 0
M  V30 402 C 37.225000 26.110000 56.678000 0
M  V30 403 O 37.125000 25.576000 55.491000 0
M  V30 404 O 36.565000 25.817000 57.702000 0 CHG=-1
M  V30 405 N 40.593000 29.252000 56.342000 0
M  V30 406 C 41.837000 31.295000 55.438000 0
M  V30 407 O 41.905000 32.503000 55.503000 0
M  V30 408 C 42.795000 30.001000 57.270000 0
M  V30 409 C 43.699000 31.032000 57.938000 0
M  V30 410 C 43.336000 31.318000 59.445000 0
M  V30 411 O 42.998000 30.413000 60.157000 0
M  V30 412 O 43.292000 32.529000 59.888000 0 CHG=-1
M  V30 413 N 42.059000 30.626000 54.316000 0
M  V30 414 C 41.098000 31.879000 52.285000 0
M  V30 415 O 41.143000 32.802000 51.519000 0
M  V30 416 C 43.207000 30.581000 52.065000 0
M  V30 417 C 44.734000 30.393000 52.378000 0
M  V30 418 C 45.013000 29.887000 53.782000 0
M  V30 419 C 45.396000 29.383000 51.416000 0
M  V30 420 N 39.962000 31.127000 52.416000 0
M  V30 421 C 37.933000 32.612000 52.526000 0
M  V30 422 O 37.563000 33.598000 51.893000 0
M  V30 423 C 37.716000 30.174000 51.727000 0
M  V30 424 C 36.340000 30.482000 51.216000 0
M  V30 425 C 38.410000 29.200000 50.675000 0
M  V30 426 N 37.981000 32.605000 53.892000 0
M  V30 427 C 38.536000 34.945000 54.448000 0
M  V30 428 O 37.982000 36.089000 54.551000 0
M  V30 429 C 37.795000 33.341000 56.247000 0
M  V30 430 C 36.709000 32.268000 56.469000 0
M  V30 431 C 37.757000 34.475000 57.233000 0
M  V30 432 C 36.944000 31.589000 57.911000 0
M  V30 433 N 39.793000 34.777000 54.149000 0
M  V30 434 C 40.226000 36.365000 52.322000 0
M  V30 435 O 40.235000 37.586000 52.182000 0
M  V30 436 C 42.136000 35.339000 53.732000 0
M  V30 437 N 39.810000 35.573000 51.315000 0
M  V30 438 C 38.044000 36.908000 50.019000 0
M  V30 439 O 37.777000 37.893000 49.298000 0
M  V30 440 C 39.225000 34.864000 49.098000 0
M  V30 441 C 38.741000 35.069000 47.688000 0
M  V30 442 C 39.962000 35.522000 46.732000 0
M  V30 443 C 38.101000 33.840000 47.008000 0
M  V30 444 N 37.100000 36.435000 50.825000 0
M  V30 445 C 36.217000 38.425000 51.775000 0
M  V30 446 O 35.855000 39.453000 51.209000 0
M  V30 447 C 35.154000 36.262000 52.149000 0
M  V30 448 C 34.026000 37.106000 52.857000 0
M  V30 449 C 34.343000 35.218000 51.348000 0
M  V30 450 N 37.046000 38.450000 52.811000 0
M  V30 451 C 38.123000 40.642000 52.370000 0
M  V30 452 O 37.669000 41.809000 52.305000 0
M  V30 453 C 38.350000 39.424000 54.650000 0
M  V30 454 C 38.650000 40.704000 55.509000 0
M  V30 455 C 39.915000 40.414000 56.417000 0
M  V30 456 C 40.149000 41.550000 57.462000 0
M  V30 457 N 39.104000 41.735000 58.528000 0 CHG=1
M  V30 458 N 39.066000 40.127000 51.656000 0
M  V30 459 C 38.660000 41.652000 49.566000 0
M  V30 460 O 38.733000 42.884000 49.323000 0
M  V30 461 C 40.886000 40.400000 50.105000 0
M  V30 462 C 41.537000 41.090000 48.852000 0
M  V30 463 C 42.892000 40.523000 48.443000 0
M  V30 464 O 43.603000 40.967000 47.551000 0
M  V30 465 O 43.400000 39.562000 49.119000 0 CHG=-1
M  V30 466 N 37.773000 40.843000 48.940000 0
M  V30 467 C 35.795000 42.461000 48.655000 0
M  V30 468 O 35.498000 43.361000 47.905000 0
M  V30 469 C 36.144000 40.237000 47.350000 0
M  V30 470 C 35.051000 40.640000 46.429000 0
M  V30 471 C 35.649000 41.376000 45.166000 0
M  V30 472 N 34.675000 41.987000 44.221000 0
M  V30 473 C 34.020000 43.168000 44.403000 0
M  V30 474 N 34.153000 43.885000 45.519000 0 CHG=1
M  V30 475 N 33.368000 43.631000 43.409000 0
M  V30 476 N 35.525000 42.385000 49.941000 0
M  V30 477 C 35.466000 44.576000 51.109000 0
M  V30 478 O 34.816000 45.657000 51.060000 0
M  V30 479 C 34.053000 42.648000 51.949000 0
M  V30 480 C 33.056000 41.517000 51.601000 0
M  V30 481 C 33.172000 43.580000 52.798000 0
M  V30 482 C 32.485000 40.517000 52.716000 0
M  V30 483 N 36.803000 44.592000 51.294000 0
M  V30 484 C 37.758000 46.763000 50.401000 0
M  V30 485 O 38.326000 47.869000 50.502000 0
M  V30 486 C 38.778000 45.224000 52.102000 0
M  V30 487 N 37.362000 46.414000 49.172000 0
M  V30 488 C 36.504000 48.352000 47.936000 0
M  V30 489 O 35.631000 48.419000 48.801000 0
M  V30 490 C 37.235000 46.462000 46.662000 0
M  V30 491 C 37.899000 45.096000 46.421000 0
M  V30 492 C 39.427000 45.042000 46.517000 0
M  V30 493 N 40.097000 43.962000 46.194000 0
M  V30 494 O 40.055000 45.922000 47.004000 0
M  V30 495 N 36.732000 49.367000 47.110000 0
M  V30 496 C 34.591000 50.510000 46.521000 0
M  V30 497 O 33.721000 51.167000 47.148000 0
M  V30 498 C 36.659000 51.557000 45.919000 0
M  V30 499 C 38.185000 51.773000 46.286000 0
M  V30 500 C 38.403000 52.199000 47.740000 0
M  V30 501 O 38.829000 51.398000 48.580000 0
M  V30 502 O 37.976000 53.305000 48.132000 0 CHG=-1
M  V30 503 N 34.242000 49.654000 45.582000 0
M  V30 504 C 31.945000 48.982000 46.436000 0
M  V30 505 O 30.830000 49.424000 46.634000 0
M  V30 506 C 32.727000 48.469000 44.040000 0
M  V30 507 C 32.953000 47.019000 44.245000 0
M  V30 508 O 32.359000 46.160000 43.556000 0
M  V30 509 O 33.744000 46.668000 45.109000 0 CHG=-1
M  V30 510 N 32.521000 48.131000 47.270000 0
M  V30 511 C 31.540000 48.851000 49.593000 0
M  V30 512 O 31.031000 48.552000 50.703000 0
M  V30 513 C 32.544000 46.452000 49.048000 0
M  V30 514 S 32.700000 45.182000 47.791000 0
M  V30 515 N 31.874000 50.141000 49.341000 0
M  V30 516 C 30.032000 51.595000 50.234000 0
M  V30 517 O 29.604000 52.528000 50.976000 0
M  V30 518 C 32.382000 52.455000 49.906000 0
M  V30 519 C 33.899000 52.231000 50.137000 0
M  V30 520 C 34.548000 53.605000 49.857000 0
M  V30 521 N 36.029000 53.561000 49.972000 0
M  V30 522 C 36.849000 53.659000 51.053000 0
M  V30 523 N 36.396000 54.148000 52.234000 0 CHG=1
M  V30 524 N 38.142000 53.440000 50.903000 0
M  V30 525 N 29.220000 50.844000 49.425000 0
M  V30 526 C 27.266000 49.699000 50.649000 0
M  V30 527 O 26.091000 49.698000 51.118000 0
M  V30 528 C 27.280000 50.363000 48.188000 0
M  V30 529 C 27.597000 51.368000 47.039000 0
M  V30 530 N 28.675000 51.145000 46.295000 0
M  V30 531 O 26.877000 52.312000 46.825000 0
M  V30 532 N 28.246000 48.801000 51.006000 0
M  V30 533 C 28.380000 46.382000 50.770000 0
M  V30 534 O 29.217000 46.452000 49.913000 0
M  V30 535 N 27.699000 45.245000 50.939000 0
M  V30 536 C 26.938000 43.133000 50.228000 0
M  V30 537 O 26.189000 43.151000 51.176000 0
M  V30 538 C 29.352000 43.353000 50.951000 0
M  V30 539 C 29.180000 42.583000 52.228000 0
M  V30 540 C 29.594000 43.118000 53.511000 0
M  V30 541 C 28.635000 41.280000 52.227000 0
M  V30 542 C 29.480000 42.339000 54.701000 0
M  V30 543 C 28.511000 40.550000 53.415000 0
M  V30 544 C 28.949000 41.042000 54.638000 0
M  V30 545 N 26.825000 42.347000 49.149000 0
M  V30 546 C 26.751000 39.899000 48.735000 0
M  V30 547 O 27.406000 39.859000 47.734000 0
M  V30 548 C 24.744000 41.391000 48.106000 0
M  V30 549 C 23.940000 40.186000 47.683000 0
M  V30 550 C 22.495000 40.725000 47.403000 0
M  V30 551 C 24.406000 39.624000 46.388000 0
M  V30 552 N 26.629000 38.826000 49.531000 0
M  V30 553 C 26.505000 36.342000 49.100000 0
M  V30 554 O 25.415000 36.156000 49.621000 0
M  V30 555 C 28.472000 37.404000 50.477000 0
M  V30 556 C 29.448000 36.258000 50.502000 0
M  V30 557 C 30.635000 36.772000 51.364000 0
M  V30 558 C 28.909000 34.968000 51.112000 0
M  V30 559 N 27.081000 35.246000 48.504000 0
M  V30 560 C 27.584000 32.786000 48.263000 0
M  V30 561 O 28.743000 33.027000 47.834000 0
M  V30 562 C 25.771000 34.053000 46.907000 0
M  V30 563 C 24.774000 32.902000 46.612000 0
M  V30 564 O 24.216000 32.241000 47.545000 0
M  V30 565 O 24.395000 32.863000 45.422000 0 CHG=-1
M  V30 566 N 27.114000 31.537000 48.391000 0
M  V30 567 C 28.939000 30.071000 49.450000 0
M  V30 568 O 29.759000 29.123000 49.493000 0
M  V30 569 N 28.888000 30.909000 50.447000 0
M  V30 570 C 28.893000 31.511000 52.821000 0
M  V30 571 O 28.254000 32.525000 52.564000 0
M  V30 572 C 31.065000 31.396000 51.488000 0
M  V30 573 C 32.059000 31.097000 52.649000 0
M  V30 574 C 32.451000 32.101000 53.545000 0
M  V30 575 C 32.722000 29.854000 52.674000 0
M  V30 576 C 33.546000 31.844000 54.433000 0
M  V30 577 C 33.691000 29.600000 53.582000 0
M  V30 578 C 34.180000 30.596000 54.414000 0
M  V30 579 N 29.016000 31.020000 54.041000 0
M  V30 580 C 28.894000 28.579000 54.498000 0
M  V30 581 O 27.661000 28.509000 54.620000 0
M  V30 582 C 29.783000 30.164000 56.093000 0
M  V30 583 C 28.551000 31.058000 56.339000 0
M  V30 584 C 28.520000 31.902000 55.137000 0
M  V30 585 N 29.599000 27.493000 54.289000 0
M  V30 586 C 28.841000 25.544000 55.649000 0
M  V30 587 O 28.075000 24.614000 55.814000 0
M  V30 588 C 30.125000 25.217000 53.519000 0
M  V30 589 C 30.557000 25.690000 52.103000 0
M  V30 590 C 29.428000 26.081000 51.131000 0
M  V30 591 N 28.696000 24.959000 50.660000 0
M  V30 592 C 27.487000 25.012000 50.182000 0
M  V30 593 N 26.755000 26.138000 50.255000 0 CHG=1
M  V30 594 N 26.890000 23.970000 49.692000 0
M  V30 595 N 29.558000 26.005000 56.687000 0
M  V30 596 C 29.631000 26.407000 59.176000 0
M  V30 597 O 30.001000 27.548000 58.979000 0
M  V30 598 C 30.758000 24.372000 58.175000 0
M  V30 599 C 31.041000 23.484000 56.991000 0
M  V30 600 O 31.942000 25.029000 58.474000 0
M  V30 601 N 29.151000 26.046000 60.416000 0
M  V30 602 C 30.708000 27.235000 61.977000 0
M  V30 603 O 30.943000 28.433000 62.216000 0
M  V30 604 C 28.443000 26.363000 62.807000 0
M  V30 605 C 27.003000 26.145000 62.436000 0
M  V30 606 C 28.797000 27.059000 64.125000 0
M  V30 607 C 26.235000 25.034000 63.204000 0
M  V30 608 N 31.715000 26.303000 62.011000 0
M  V30 609 C 33.520000 27.790000 61.136000 0
M  V30 610 O 34.268000 28.711000 61.394000 0
M  V30 611 C 34.022000 25.451000 61.854000 0
M  V30 612 C 33.058000 24.367000 62.448000 0
M  V30 613 C 31.706000 24.852000 61.951000 0
M  V30 614 N 33.014000 27.755000 59.877000 0
M  V30 615 C 32.384000 30.209000 59.328000 0
M  V30 616 O 32.829000 31.319000 59.162000 0
M  V30 617 C 32.767000 28.451000 57.567000 0
M  V30 618 C 33.637000 27.370000 57.020000 0
M  V30 619 C 33.222000 26.893000 55.658000 0
M  V30 620 N 34.086000 26.161000 54.972000 0
M  V30 621 O 32.104000 27.097000 55.189000 0
M  V30 622 N 31.161000 30.017000 59.820000 0
M  V30 623 C 30.915000 31.946000 61.361000 0
M  V30 624 O 31.150000 33.186000 61.327000 0
M  V30 625 C 29.004000 30.729000 60.174000 0
M  V30 626 N 31.261000 31.316000 62.467000 0
M  V30 627 C 33.184000 32.540000 63.389000 0
M  V30 628 O 33.536000 33.632000 63.807000 0
M  V30 629 C 31.989000 30.920000 64.749000 0
M  V30 630 C 32.628000 31.541000 65.959000 0
M  V30 631 O 33.633000 30.975000 66.495000 0
M  V30 632 O 32.122000 32.520000 66.599000 0 CHG=-1
M  V30 633 N 34.089000 31.878000 62.686000 0
M  V30 634 C 35.363000 33.554000 61.323000 0
M  V30 635 O 36.330000 34.370000 61.424000 0
M  V30 636 C 36.176000 31.167000 61.482000 0
M  V30 637 N 34.351000 33.656000 60.525000 0
M  V30 638 C 33.597000 36.120000 60.419000 0
M  V30 639 O 33.889000 37.271000 60.037000 0
M  V30 640 C 33.276000 34.525000 58.530000 0
M  V30 641 C 33.535000 35.455000 57.368000 0
M  V30 642 S 32.989000 35.058000 55.737000 0
M  V30 643 C 31.247000 35.405000 55.904000 0
M  V30 644 N 33.029000 35.847000 61.600000 0
M  V30 645 C 33.901000 37.367000 63.236000 0
M  V30 646 O 34.152000 38.570000 63.244000 0
M  V30 647 C 31.564000 36.411000 63.442000 0
M  V30 648 C 31.299000 37.344000 64.617000 0
M  V30 649 C 30.583000 38.638000 64.204000 0
M  V30 650 C 30.338000 39.277000 65.568000 0
M  V30 651 N 29.253000 38.777000 66.422000 0 CHG=1
M  V30 652 N 34.702000 36.420000 63.826000 0
M  V30 653 C 37.002000 37.444000 63.479000 0
M  V30 654 O 37.789000 38.298000 63.921000 0
M  V30 655 C 36.706000 35.565000 65.017000 0
M  V30 656 C 37.896000 35.825000 65.861000 0
M  V30 657 C 37.593000 36.597000 67.158000 0
M  V30 658 O 36.558000 36.436000 67.794000 0
M  V30 659 O 38.328000 37.519000 67.534000 0 CHG=-1
M  V30 660 N 36.836000 37.234000 62.227000 0
M  V30 661 C 36.832000 39.371000 60.693000 0
M  V30 662 O 37.287000 39.909000 59.717000 0
M  V30 663 C 37.590000 37.134000 59.750000 0
M  V30 664 N 35.908000 39.901000 61.487000 0
M  V30 665 C 34.215000 41.524000 60.360000 0
M  V30 666 O 33.619000 42.624000 60.277000 0
M  V30 667 N 33.727000 40.466000 59.726000 0
M  V30 668 C 31.142000 40.513000 59.727000 0
M  V30 669 O 30.848000 39.524000 60.478000 0
M  V30 670 C 32.507000 39.336000 57.852000 0
M  V30 671 C 33.861000 39.186000 57.122000 0
M  V30 672 C 31.338000 39.635000 56.868000 0
M  V30 673 C 34.365000 40.333000 56.252000 0
M  V30 674 N 30.297000 41.464000 59.379000 0
M  V30 675 C 27.939000 41.792000 58.880000 0
M  V30 676 O 28.194000 42.198000 57.750000 0
M  V30 677 C 29.171000 42.944000 60.883000 0
M  V30 678 C 29.976000 42.721000 62.113000 0
M  V30 679 N 31.258000 42.958000 62.204000 0
M  V30 680 O 29.510000 42.299000 63.080000 0
M  V30 681 N 26.695000 41.475000 59.326000 0
M  V30 682 C 24.307000 42.153000 59.079000 0
M  V30 683 O 23.846000 41.988000 60.215000 0
M  V30 684 C 25.201000 39.732000 58.353000 0
M  V30 685 C 25.317000 38.947000 59.608000 0
M  V30 686 C 23.972000 39.479000 57.538000 0
M  V30 687 N 23.680000 42.917000 58.145000 0
M  V30 688 C 21.166000 42.911000 58.160000 0
M  V30 689 O 20.112000 43.070000 58.812000 0
M  V30 690 C 22.522000 45.005000 57.615000 0
M  V30 691 C 23.703000 45.821000 58.068000 0
M  V30 692 O 23.695000 46.210000 59.269000 0
M  V30 693 O 24.613000 46.136000 57.280000 0 CHG=-1
M  V30 694 N 21.157000 42.121000 57.101000 0
M  V30 695 C 20.597000 39.897000 56.219000 0
M  V30 696 O 21.497000 39.877000 55.394000 0
M  V30 697 C 19.191000 42.008000 55.568000 0
M  V30 698 C 18.475000 43.288000 55.884000 0
M  V30 699 C 17.081000 43.397000 55.945000 0
M  V30 700 C 19.261000 44.433000 55.900000 0
M  V30 701 C 16.524000 44.633000 56.179000 0
M  V30 702 C 18.654000 45.686000 56.127000 0
M  V30 703 C 17.286000 45.784000 56.311000 0
M  V30 704 O 16.719000 46.971000 56.534000 0
M  V30 705 N 20.020000 38.769000 56.691000 0
M  V30 706 C 18.865000 37.119000 55.250000 0
M  V30 707 O 17.706000 37.510000 55.632000 0
M  V30 708 C 20.483000 36.402000 57.006000 0
M  V30 709 C 21.940000 36.582000 57.403000 0
M  V30 710 C 19.663000 36.422000 58.250000 0
M  V30 711 N 19.026000 36.456000 54.072000 0
M  V30 712 C 17.898000 34.720000 52.671000 0
M  V30 713 O 18.719000 34.266000 51.867000 0
M  V30 714 C 18.106000 37.124000 51.907000 0
M  V30 715 C 17.824000 38.541000 52.223000 0
M  V30 716 C 18.016000 39.445000 51.019000 0
M  V30 717 C 16.432000 38.728000 52.616000 0
M  V30 718 N 17.079000 33.903000 53.272000 0
M  V30 719 C 16.172000 32.007000 51.764000 0
M  V30 720 O 14.953000 32.187000 51.759000 0
M  V30 721 C 16.342000 31.814000 54.276000 0
M  V30 722 C 16.274000 30.310000 54.117000 0
M  V30 723 C 15.704000 29.594000 55.322000 0
M  V30 724 O 15.600000 30.197000 56.401000 0
M  V30 725 O 15.151000 28.511000 55.068000 0 CHG=-1
M  V30 726 N 16.783000 31.395000 50.713000 0
M  V30 727 C 15.508000 29.416000 49.584000 0
M  V30 728 O 16.249000 28.459000 49.754000 0
M  V30 729 C 17.062000 30.977000 48.331000 0
M  V30 730 C 16.869000 32.268000 47.550000 0
M  V30 731 C 17.635000 33.432000 47.874000 0
M  V30 732 C 16.015000 32.291000 46.416000 0
M  V30 733 C 17.383000 34.607000 47.093000 0
M  V30 734 C 15.965000 33.444000 45.635000 0
M  V30 735 C 16.500000 34.614000 46.004000 0
M  V30 736 N 14.180000 29.252000 49.562000 0
M  V30 737 C 12.929000 27.415000 48.579000 0
M  V30 738 O 11.907000 27.887000 48.076000 0
M  V30 739 C 12.404000 28.212000 50.960000 0
M  V30 740 C 11.621000 26.936000 51.168000 0
M  V30 741 O 10.355000 26.980000 51.324000 0
M  V30 742 O 12.273000 25.862000 51.222000 0 CHG=-1
M  V30 743 N 13.566000 26.334000 47.976000 0
M  V30 744 C 13.313000 24.220000 46.956000 0
M  V30 745 O 14.216000 23.781000 47.675000 0
M  V30 746 C 14.229000 26.130000 45.561000 0
M  V30 747 C 13.710000 25.654000 44.149000 0
M  V30 748 C 14.399000 27.633000 45.292000 0
M  V30 749 N 12.464000 23.391000 46.265000 0
M  V30 750 C 13.641000 21.209000 45.964000 0
M  V30 751 O 14.264000 21.589000 44.919000 0
M  V30 752 C 11.119000 21.449000 45.841000 0
M  V30 753 C 10.873000 22.552000 44.734000 0
M  V30 754 C 11.310000 23.778000 45.432000 0
M  V30 755 N 14.137000 20.148000 46.674000 0
M  V30 756 C 15.435000 18.658000 45.158000 0
M  V30 757 O 16.601000 18.375000 44.680000 0
M  V30 758 C 15.888000 18.662000 47.590000 0
M  V30 759 C 16.059000 19.561000 48.850000 0
M  V30 760 O 15.318000 19.351000 49.830000 0
M  V30 761 O 16.943000 20.418000 48.836000 0 CHG=-1
M  V30 762 N 14.339000 18.073000 44.627000 0
M  V30 763 C 14.672000 18.544000 42.168000 0
M  V30 764 O 15.363000 18.291000 41.168000 0
M  V30 765 C 13.136000 16.580000 43.048000 0
M  V30 766 C 13.182000 15.857000 41.694000 0
M  V30 767 C 12.225000 14.659000 41.620000 0
M  V30 768 O 12.550000 13.645000 40.951000 0
M  V30 769 O 11.045000 14.789000 42.103000 0 CHG=-1
M  V30 770 N 14.027000 19.758000 42.256000 0
M  V30 771 C 15.668000 21.375000 41.544000 0
M  V30 772 O 16.313000 21.866000 40.602000 0
M  V30 773 C 13.147000 21.955000 41.464000 0
M  V30 774 C 13.235000 23.313000 40.750000 0
M  V30 775 C 13.390000 23.221000 39.236000 0
M  V30 776 C 11.915000 24.191000 40.997000 0
M  V30 777 N 16.297000 21.229000 42.755000 0
M  V30 778 C 18.746000 20.595000 42.316000 0
M  V30 779 O 19.656000 21.137000 41.690000 0
M  V30 780 C 18.050000 21.577000 44.491000 0
M  V30 781 C 17.653000 22.941000 45.052000 0
M  V30 782 C 19.593000 21.364000 44.894000 0
M  V30 783 C 17.644000 23.087000 46.565000 0
M  V30 784 N 18.649000 19.326000 42.550000 0
M  V30 785 C 19.350000 18.470000 40.405000 0
M  V30 786 O 20.328000 18.444000 39.659000 0
M  V30 787 C 19.334000 16.900000 42.321000 0
M  V30 788 C 17.936000 16.410000 42.016000 0
M  V30 789 C 20.263000 15.910000 41.692000 0
M  V30 790 N 18.160000 18.706000 39.850000 0
M  V30 791 C 18.548000 20.034000 37.860000 0
M  V30 792 O 19.266000 19.869000 36.881000 0
M  V30 793 C 16.315000 19.077000 38.342000 0
M  V30 794 C 15.568000 18.639000 37.108000 0
M  V30 795 O 14.352000 18.917000 36.896000 0
M  V30 796 O 16.139000 17.912000 36.254000 0 CHG=-1
M  V30 797 N 18.507000 21.245000 38.425000 0
M  V30 798 C 20.780000 22.245000 37.958000 0
M  V30 799 O 21.555000 22.879000 37.154000 0
M  V30 800 C 19.007000 23.774000 38.666000 0
M  V30 801 C 17.535000 24.253000 38.392000 0
M  V30 802 C 17.052000 25.126000 39.367000 0
M  V30 803 N 15.802000 25.857000 39.052000 0
M  V30 804 C 15.167000 26.841000 39.735000 0
M  V30 805 N 15.530000 27.257000 40.936000 0 CHG=1
M  V30 806 N 14.167000 27.346000 39.108000 0
M  V30 807 N 21.294000 21.386000 38.838000 0
M  V30 808 C 23.213000 19.984000 37.719000 0
M  V30 809 O 24.051000 20.209000 36.865000 0
M  V30 810 C 23.191000 20.500000 40.228000 0
M  V30 811 C 23.234000 21.607000 41.291000 0
M  V30 812 C 24.517000 19.653000 40.347000 0
M  V30 813 C 23.256000 21.221000 42.780000 0
M  V30 814 N 22.584000 18.802000 37.776000 0
M  V30 815 C 23.018000 17.538000 35.556000 0
M  V30 816 O 23.803000 16.892000 34.811000 0
M  V30 817 C 22.750000 16.304000 37.786000 0
M  V30 818 C 21.353000 15.796000 37.589000 0
M  V30 819 C 23.778000 15.188000 37.642000 0
M  V30 820 N 21.914000 18.184000 35.138000 0
M  V30 821 C 21.552000 18.241000 33.694000 0
M  V30 822 C 22.328000 19.264000 32.910000 0
M  V30 823 O 22.068000 19.580000 31.767000 0
M  V30 824 N 23.258000 19.970000 33.596000 0
M  V30 825 C 24.091000 21.037000 33.014000 0 CFG=2
M  V30 826 C 25.318000 20.457000 32.209000 0
M  V30 827 O 25.780000 19.398000 32.455000 0
M  V30 828 C 24.483000 21.975000 34.185000 0
M  V30 829 C 25.037000 23.285000 33.705000 0
M  V30 830 C 25.595000 24.111000 34.867000 0
M  V30 831 N 26.758000 23.638000 35.622000 0
M  V30 832 C 27.657000 24.343000 36.224000 0
M  V30 833 N 27.625000 25.625000 36.487000 0 CHG=1
M  V30 834 N 28.752000 23.729000 36.512000 0
M  V30 835 N 25.837000 21.257000 31.367000 0
M  V30 836 C 26.968000 21.057000 30.479000 0 CFG=2
M  V30 837 C 27.746000 22.380000 30.329000 0
M  V30 838 O 27.117000 23.438000 30.428000 0
M  V30 839 C 26.446000 20.636000 29.092000 0
M  V30 840 C 25.647000 19.393000 29.053000 0
M  V30 841 C 26.355000 18.101000 29.451000 0
M  V30 842 N 25.485000 16.898000 29.525000 0
M  V30 843 C 24.864000 16.360000 30.535000 0
M  V30 844 N 24.732000 16.820000 31.693000 0 CHG=1
M  V30 845 N 24.232000 15.213000 30.470000 0
M  V30 846 N 28.993000 22.280000 29.924000 0
M  V30 847 C 29.830000 23.377000 29.394000 0 CFG=2
M  V30 848 C 30.565000 22.956000 28.038000 0
M  V30 849 O 30.760000 21.785000 27.650000 0
M  V30 850 C 30.931000 23.830000 30.405000 0
M  V30 851 C 30.197000 24.164000 31.680000 0
M  V30 852 C 32.039000 22.804000 30.751000 0
M  V30 853 N 30.806000 24.020000 27.239000 0
M  V30 854 C 31.779000 24.019000 26.127000 0
M  V30 855 C 33.153000 24.428000 26.646000 0
M  V30 856 O 33.359000 25.624000 26.944000 0
M  V30 857 C 31.251000 24.946000 25.055000 0
M  V30 858 C 32.179000 25.164000 23.874000 0
M  V30 859 C 32.154000 24.484000 22.748000 0
M  V30 860 N 33.128000 26.200000 23.763000 0
M  V30 861 C 33.577000 26.156000 22.544000 0
M  V30 862 N 33.042000 25.125000 21.880000 0
M  V30 863 N 34.004000 23.484000 26.720000 0
M  V30 864 C 35.266000 23.687000 27.453000 0 CFG=2
M  V30 865 C 36.086000 24.841000 26.848000 0
M  V30 866 O 36.519000 25.695000 27.647000 0
M  V30 867 C 36.097000 22.377000 27.515000 0
M  V30 868 N 36.271000 24.960000 25.499000 0
M  V30 869 C 37.056000 26.126000 24.950000 0 CFG=2
M  V30 870 C 36.558000 27.551000 25.261000 0
M  V30 871 O 37.189000 28.502000 24.820000 0
M  V30 872 C 36.990000 25.881000 23.454000 0
M  V30 873 C 36.683000 24.429000 23.232000 0
M  V30 874 C 35.848000 23.972000 24.422000 0
M  V30 875 N 35.405000 27.774000 25.884000 0
M  V30 876 C 34.912000 29.110000 26.204000 0 CFG=2
M  V30 877 C 34.127000 29.242000 27.478000 0
M  V30 878 O 33.878000 30.357000 27.885000 0
M  V30 879 C 33.864000 29.418000 25.133000 0
M  V30 880 O 32.763000 28.493000 25.059000 0
M  V30 881 N 33.754000 28.134000 28.212000 0
M  V30 882 C 32.901000 28.097000 29.389000 0
M  V30 883 C 31.383000 28.314000 29.080000 0
M  V30 884 O 30.581000 28.565000 29.951000 0
M  V30 885 N 30.909000 28.217000 27.847000 0
M  V30 886 C 29.459000 28.412000 27.491000 0 CFG=2
M  V30 887 C 28.718000 27.346000 28.149000 0
M  V30 888 O 28.953000 26.146000 28.025000 0
M  V30 889 C 29.237000 28.415000 25.975000 0
M  V30 890 C 29.361000 29.871000 25.457000 0
M  V30 891 C 28.695000 29.864000 24.119000 0
M  V30 892 N 29.488000 29.114000 23.119000 0
M  V30 893 C 30.659000 29.424000 22.560000 0
M  V30 894 N 31.202000 30.568000 22.814000 0 CHG=1
M  V30 895 N 31.238000 28.643000 21.714000 0
M  V30 896 N 27.832000 27.651000 29.113000 0
M  V30 897 C 26.983000 26.788000 29.955000 0 CFG=2
M  V30 898 C 25.725000 26.395000 29.161000 0
M  V30 899 O 25.112000 27.235000 28.475000 0
M  V30 900 C 26.750000 27.474000 31.361000 0
M  V30 901 C 25.732000 26.730000 32.194000 0
M  V30 902 C 28.060000 27.494000 32.256000 0
M  V30 903 N 25.283000 25.168000 29.235000 0
M  V30 904 C 23.995000 24.605000 28.644000 0 CFG=2
M  V30 905 C 23.269000 23.788000 29.700000 0
M  V30 906 O 23.899000 23.217000 30.644000 0
M  V30 907 C 24.152000 23.645000 27.426000 0
M  V30 908 C 24.728000 24.372000 26.199000 0
M  V30 909 C 26.102000 24.451000 26.032000 0
M  V30 910 C 23.891000 25.103000 25.388000 0
M  V30 911 C 26.685000 25.306000 25.036000 0
M  V30 912 C 24.409000 25.784000 24.291000 0
M  V30 913 C 25.780000 26.018000 24.095000 0
M  V30 914 O 26.193000 26.835000 23.061000 0
M  V30 915 N 21.960000 23.489000 29.526000 0
M  V30 916 C 21.221000 22.496000 30.393000 0
M  V30 917 C 19.963000 22.050000 29.640000 0
M  V30 918 O 19.258000 22.876000 29.014000 0
M  V30 919 C 20.971000 23.211000 31.682000 0
M  V30 920 C 20.179000 22.381000 32.685000 0
M  V30 921 C 20.551000 22.034000 33.925000 0
M  V30 922 N 18.929000 21.809000 32.422000 0
M  V30 923 C 18.587000 21.062000 33.436000 0
M  V30 924 N 19.565000 21.167000 34.397000 0
M  V30 925 N 19.751000 20.716000 29.534000 0
M  V30 926 C 17.362000 20.274000 28.934000 0
M  V30 927 O 16.659000 20.159000 27.972000 0
M  V30 928 C 19.098000 18.408000 29.052000 0
M  V30 929 C 18.807000 18.061000 30.514000 0
M  V30 930 C 18.361000 17.507000 28.009000 0
M  V30 931 N 17.005000 20.698000 30.123000 0
M  V30 932 C 15.557000 22.825000 30.305000 0
M  V30 933 O 14.537000 23.327000 29.808000 0
M  V30 934 C 15.068000 20.719000 31.717000 0
M  V30 935 C 15.118000 19.180000 31.888000 0
M  V30 936 C 14.299000 18.876000 33.166000 0
M  V30 937 C 14.258000 17.388000 33.522000 0
M  V30 938 N 13.600000 17.119000 34.821000 0 CHG=1
M  V30 939 N 16.619000 23.594000 30.683000 0
M  V30 940 C 17.143000 25.997000 29.857000 0
M  V30 941 O 16.593000 27.092000 29.651000 0
M  V30 942 C 16.840000 25.377000 32.335000 0
M  V30 943 C 16.147000 24.546000 33.399000 0
M  V30 944 C 14.757000 24.622000 33.506000 0
M  V30 945 C 16.938000 23.844000 34.365000 0
M  V30 946 C 14.133000 23.911000 34.539000 0
M  V30 947 C 16.265000 23.036000 35.314000 0
M  V30 948 C 14.886000 23.109000 35.437000 0
M  V30 949 N 18.293000 25.689000 29.335000 0
M  V30 950 C 19.696000 25.374000 27.298000 0
M  V30 951 O 20.873000 25.014000 27.240000 0
M  V30 952 C 20.342000 27.004000 29.146000 0
M  V30 953 C 19.969000 27.942000 30.316000 0
M  V30 954 N 19.584000 29.133000 29.968000 0
M  V30 955 O 20.173000 27.619000 31.497000 0
M  V30 956 N 18.777000 24.733000 26.557000 0
M  V30 957 C 19.923000 24.046000 24.484000 0
M  V30 958 O 19.565000 25.116000 23.872000 0
M  V30 959 C 17.784000 22.867000 25.336000 0
M  V30 960 C 16.775000 24.035000 25.455000 0
M  V30 961 C 17.370000 24.843000 26.664000 0
M  V30 962 N 20.956000 23.258000 24.050000 0
M  V30 963 C 20.789000 23.418000 21.600000 0
M  V30 964 O 19.794000 22.715000 21.663000 0
M  V30 965 C 22.832000 22.582000 22.824000 0
M  V30 966 C 22.475000 21.388000 23.727000 0
M  V30 967 C 21.359000 21.960000 24.699000 0
M  V30 968 N 21.019000 24.095000 20.461000 0
M  V30 969 C 20.512000 22.557000 18.553000 0
M  V30 970 O 19.556000 21.940000 18.086000 0
M  V30 971 C 20.828000 24.963000 18.167000 0
M  V30 972 C 20.284000 26.378000 18.407000 0
M  V30 973 C 20.969000 27.557000 17.720000 0
M  V30 974 C 20.583000 27.521000 16.264000 0
M  V30 975 N 20.959000 28.826000 15.573000 0 CHG=1
M  V30 976 N 21.735000 22.064000 18.533000 0
M  V30 977 C 22.504000 19.861000 19.192000 0
M  V30 978 O 23.089000 20.285000 20.184000 0
M  V30 979 C 23.312000 20.833000 17.067000 0
M  V30 980 C 23.881000 19.530000 16.605000 0
M  V30 981 C 22.797000 21.667000 15.859000 0
M  V30 982 N 22.330000 18.569000 19.112000 0
M  V30 983 C 23.630000 17.349000 20.826000 0
M  V30 984 O 24.218000 16.439000 20.182000 0
M  V30 985 C 21.449000 16.386000 20.009000 0
M  V30 986 C 21.214000 15.464000 21.163000 0
M  V30 987 C 20.709000 16.095000 22.499000 0
M  V30 988 O 19.957000 17.080000 22.444000 0
M  V30 989 O 21.002000 15.552000 23.567000 0 CHG=-1
M  V30 990 N 23.993000 17.734000 22.062000 0
M  V30 991 C 26.509000 18.133000 21.993000 0
M  V30 992 O 27.658000 17.773000 22.173000 0
M  V30 993 N 26.141000 19.214000 21.299000 0
M  V30 994 C 26.764000 21.642000 20.942000 0
M  V30 995 O 25.669000 22.067000 21.309000 0
M  V30 996 C 27.111000 19.972000 19.081000 0
M  V30 997 C 27.878000 18.713000 18.697000 0
M  V30 998 C 27.769000 18.580000 17.183000 0
M  V30 999 C 28.939000 17.660000 16.561000 0
M  V30 1000 N 29.775000 18.333000 15.509000 0 CHG=1
M  V30 1001 N 27.735000 22.518000 20.826000 0
M  V30 1002 C 27.024000 24.770000 19.862000 0
M  V30 1003 O 27.407000 24.580000 18.709000 0
M  V30 1004 C 29.054000 24.459000 21.503000 0
M  V30 1005 C 29.229000 25.968000 21.486000 0
M  V30 1006 O 28.545000 26.712000 22.211000 0
M  V30 1007 O 30.046000 26.464000 20.672000 0 CHG=-1
M  V30 1008 N 26.164000 25.730000 20.249000 0
M  V30 1009 C 26.298000 27.492000 18.412000 0
M  V30 1010 O 25.905000 27.914000 17.332000 0
M  V30 1011 C 24.473000 27.600000 20.152000 0
M  V30 1012 C 23.447000 26.945000 20.995000 0
M  V30 1013 O 23.296000 25.691000 20.952000 0
M  V30 1014 O 22.722000 27.672000 21.741000 0 CHG=-1
M  V30 1015 N 27.488000 27.876000 18.886000 0
M  V30 1016 C 29.290000 27.823000 17.224000 0
M  V30 1017 O 29.337000 28.020000 16.011000 0
M  V30 1018 C 29.351000 29.659000 19.016000 0
M  V30 1019 C 30.194000 30.778000 18.337000 0
M  V30 1020 C 28.377000 30.377000 20.003000 0
M  V30 1021 N 29.947000 26.797000 17.773000 0
M  V30 1022 C 30.849000 24.622000 16.622000 0
M  V30 1023 O 31.743000 24.021000 16.027000 0
M  V30 1024 C 32.226000 25.907000 18.097000 0
M  V30 1025 C 32.613000 27.260000 18.645000 0
M  V30 1026 O 31.847000 25.124000 19.183000 0
M  V30 1027 N 29.766000 24.036000 17.072000 0
M  V30 1028 C 30.473000 21.703000 17.520000 0
M  V30 1029 O 30.560000 20.544000 17.138000 0
M  V30 1030 N 31.271000 22.191000 18.497000 0
M  V30 1031 C 31.258000 20.502000 20.296000 0
M  V30 1032 O 30.224000 21.019000 20.676000 0
M  V30 1033 C 33.174000 22.043000 19.977000 0
M  V30 1034 C 34.123000 22.718000 18.907000 0
M  V30 1035 C 35.067000 21.790000 18.131000 0
M  V30 1036 O 36.015000 22.258000 17.454000 0
M  V30 1037 O 34.990000 20.546000 18.145000 0 CHG=-1
M  V30 1038 N 31.608000 19.235000 20.574000 0
M  V30 1039 C 30.919000 19.005000 22.966000 0
M  V30 1040 O 31.971000 19.541000 23.349000 0
M  V30 1041 C 31.265000 16.979000 21.463000 0
M  V30 1042 C 31.140000 16.198000 20.194000 0
M  V30 1043 C 32.483000 16.021000 19.400000 0
M  V30 1044 O 33.343000 16.936000 19.387000 0
M  V30 1045 O 32.757000 14.900000 18.880000 0 CHG=-1
M  V30 1046 N 29.888000 18.956000 23.786000 0
M  V30 1047 C 29.913000 19.591000 25.121000 0 CFG=2
M  V30 1048 C 30.515000 18.565000 26.024000 0
M  V30 1049 O 30.939000 17.461000 25.668000 0
M  V30 1050 C 28.477000 19.950000 25.623000 0
M  V30 1051 C 27.882000 20.931000 24.654000 0
M  V30 1052 C 26.363000 21.001000 24.701000 0
M  V30 1053 C 28.515000 22.293000 24.907000 0
M  V30 1054 N 30.660000 18.922000 27.336000 0
M  V30 1055 C 31.291000 18.110000 28.377000 0 CFG=2
M  V30 1056 C 30.535000 18.418000 29.677000 0
M  V30 1057 O 30.084000 19.552000 29.897000 0
M  V30 1058 C 32.799000 18.397000 28.447000 0 CFG=1
M  V30 1059 C 33.077000 19.908000 28.728000 0
M  V30 1060 O 33.422000 17.537000 29.432000 0
M  V30 1061 N 30.304000 17.415000 30.578000 0
M  V30 1062 C 29.797000 17.616000 31.936000 0 CFG=2
M  V30 1063 C 31.060000 17.799000 32.791000 0
M  V30 1064 O 31.978000 17.031000 32.808000 0
M  V30 1065 C 29.104000 16.336000 32.515000 0 CFG=1
M  V30 1066 C 28.410000 16.702000 33.843000 0
M  V30 1067 O 28.105000 15.760000 31.752000 0
M  V30 1068 N 31.123000 18.830000 33.649000 0
M  V30 1069 C 32.217000 19.113000 34.570000 0 CFG=2
M  V30 1070 C 32.467000 18.033000 35.592000 0
M  V30 1071 O 31.671000 17.169000 35.846000 0
M  V30 1072 C 31.854000 20.316000 35.383000 0
M  V30 1073 C 32.111000 21.676000 34.580000 0
M  V30 1074 C 31.961000 22.894000 35.577000 0
M  V30 1075 N 32.254000 24.193000 34.921000 0
M  V30 1076 C 33.478000 24.707000 34.720000 0
M  V30 1077 N 34.589000 23.993000 34.950000 0 CHG=1
M  V30 1078 N 33.623000 25.919000 34.272000 0
M  V30 1079 N 33.715000 18.053000 36.115000 0
M  V30 1080 C 34.209000 17.121000 37.153000 0 CFG=2
M  V30 1081 C 33.387000 17.165000 38.487000 0
M  V30 1082 O 33.278000 16.095000 39.110000 0
M  V30 1083 C 35.707000 17.292000 37.253000 0
M  V30 1084 C 36.388000 16.797000 35.925000 0
M  V30 1085 C 37.896000 16.974000 35.826000 0
M  V30 1086 C 38.238000 18.351000 35.301000 0
M  V30 1087 N 39.679000 18.656000 35.438000 0 CHG=1
M  V30 1088 N 32.840000 18.307000 38.879000 0
M  V30 1089 C 31.984000 18.361000 40.069000 0 CFG=2
M  V30 1090 C 30.495000 18.273000 39.816000 0
M  V30 1091 O 29.795000 18.053000 40.800000 0
M  V30 1092 C 32.234000 19.655000 40.895000 0
M  V30 1093 C 32.345000 20.995000 39.993000 0
M  V30 1094 O 32.129000 20.989000 38.766000 0
M  V30 1095 O 32.668000 22.145000 40.545000 0 CHG=-1
M  V30 1096 N 30.060000 18.305000 38.566000 0
M  V30 1097 C 28.665000 18.093000 38.106000 0 CFG=2
M  V30 1098 C 28.417000 16.623000 37.749000 0
M  V30 1099 O 27.328000 16.199000 37.245000 0
M  V30 1100 C 28.117000 19.050000 37.032000 0
M  V30 1101 C 28.056000 20.544000 37.373000 0
M  V30 1102 O 27.982000 20.920000 38.590000 0
M  V30 1103 O 27.834000 21.275000 36.401000 0 CHG=-1
M  V30 1104 N 29.330000 15.803000 38.107000 0
M  V30 1105 C 28.303000 13.703000 39.023000 0
M  V30 1106 O 28.271000 14.150000 40.172000 0
M  V30 1107 C 30.693000 13.810000 38.028000 0
M  V30 1108 C 30.709000 12.305000 37.753000 0
M  V30 1109 C 30.513000 11.435000 38.973000 0
M  V30 1110 N 30.200000 10.182000 38.757000 0
M  V30 1111 O 30.543000 11.859000 40.163000 0
M  V30 1112 N 27.597000 12.605000 38.779000 0
M  V30 1113 C 26.623000 11.859000 40.977000 0
M  V30 1114 O 25.945000 12.396000 41.866000 0
M  V30 1115 C 25.575000 11.171000 38.713000 0
M  V30 1116 C 24.156000 10.846000 39.274000 0
M  V30 1117 C 23.413000 9.973000 38.298000 0
M  V30 1118 O 24.041000 9.310000 37.449000 0
M  V30 1119 O 22.140000 9.863000 38.344000 0 CHG=-1
M  V30 1120 N 27.686000 11.140000 41.134000 0
M  V30 1121 C 28.835000 11.930000 43.282000 0
M  V30 1122 O 28.559000 12.130000 44.479000 0
M  V30 1123 C 28.984000 9.462000 42.551000 0
M  V30 1124 C 29.690000 9.248000 43.894000 0
M  V30 1125 C 28.732000 9.009000 45.066000 0
M  V30 1126 O 29.192000 8.678000 46.169000 0
M  V30 1127 O 27.495000 8.833000 44.846000 0 CHG=-1
M  V30 1128 N 29.576000 12.816000 42.641000 0
M  V30 1129 C 28.900000 15.061000 43.618000 0
M  V30 1130 O 29.031000 15.693000 44.656000 0
M  V30 1131 C 31.028000 14.712000 42.201000 0
M  V30 1132 C 31.827000 15.734000 43.015000 0
M  V30 1133 O 32.087000 13.787000 42.064000 0
M  V30 1134 N 27.783000 15.141000 42.860000 0
M  V30 1135 C 25.830000 15.182000 44.343000 0
M  V30 1136 O 25.418000 15.899000 45.223000 0
M  V30 1137 C 25.647000 15.957000 41.898000 0
M  V30 1138 C 24.337000 16.652000 42.140000 0
M  V30 1139 C 26.368000 16.942000 40.930000 0
M  V30 1140 N 25.798000 13.812000 44.505000 0
M  V30 1141 C 26.271000 13.545000 46.817000 0
M  V30 1142 O 25.779000 13.775000 47.911000 0
M  V30 1143 C 25.292000 11.587000 45.553000 0
M  V30 1144 C 24.430000 10.892000 46.606000 0
M  V30 1145 C 24.472000 9.353000 46.507000 0
M  V30 1146 N 25.800000 8.750000 46.831000 0
M  V30 1147 C 26.148000 8.245000 47.973000 0
M  V30 1148 N 25.327000 7.970000 48.981000 0 CHG=1
M  V30 1149 N 27.385000 8.070000 48.221000 0
M  V30 1150 N 27.592000 13.591000 46.740000 0
M  V30 1151 C 28.322000 15.461000 48.265000 0
M  V30 1152 O 28.395000 15.742000 49.494000 0
M  V30 1153 C 30.002000 13.743000 47.386000 0
M  V30 1154 C 30.368000 12.259000 47.444000 0
M  V30 1155 C 31.691000 11.938000 46.661000 0
M  V30 1156 C 32.450000 10.653000 47.013000 0
M  V30 1157 N 31.848000 9.354000 46.726000 0 CHG=1
M  V30 1158 N 28.147000 16.402000 47.337000 0
M  V30 1159 C 26.312000 17.986000 48.151000 0
M  V30 1160 O 26.179000 18.609000 49.207000 0
M  V30 1161 C 27.624000 18.534000 46.056000 0
M  V30 1162 C 28.965000 18.795000 45.479000 0
M  V30 1163 C 28.879000 19.111000 44.066000 0
M  V30 1164 N 28.319000 20.501000 43.818000 0
M  V30 1165 C 28.141000 21.057000 42.667000 0
M  V30 1166 N 27.457000 22.160000 42.490000 0 CHG=1
M  V30 1167 N 28.586000 20.511000 41.581000 0
M  V30 1168 N 25.275000 17.242000 47.701000 0
M  V30 1169 C 23.973000 16.550000 49.742000 0
M  V30 1170 O 23.260000 16.916000 50.600000 0
M  V30 1171 C 22.878000 16.675000 47.427000 0
M  V30 1172 C 22.661000 17.557000 46.158000 0
M  V30 1173 C 21.694000 16.737000 45.293000 0
M  V30 1174 C 22.146000 18.999000 46.491000 0
M  V30 1175 N 24.878000 15.575000 49.995000 0
M  V30 1176 C 25.787000 15.961000 52.307000 0
M  V30 1177 O 25.331000 16.078000 53.458000 0
M  V30 1178 C 25.884000 13.531000 51.312000 0
M  V30 1179 C 26.635000 13.064000 52.559000 0
M  V30 1180 C 24.906000 12.433000 50.894000 0
M  V30 1181 N 26.882000 16.674000 51.979000 0
M  V30 1182 C 26.467000 18.927000 53.057000 0
M  V30 1183 O 26.434000 19.416000 54.153000 0
M  V30 1184 C 28.688000 18.329000 51.869000 0
M  V30 1185 C 29.315000 19.623000 52.365000 0
M  V30 1186 C 30.587000 20.147000 51.535000 0
M  V30 1187 O 30.493000 20.275000 50.239000 0
M  V30 1188 O 31.693000 20.374000 52.152000 0 CHG=-1
M  V30 1189 N 25.643000 19.299000 52.086000 0
M  V30 1190 C 23.655000 19.998000 53.445000 0
M  V30 1191 O 23.462000 20.775000 54.335000 0
M  V30 1192 C 23.927000 20.723000 50.948000 0
M  V30 1193 C 22.933000 21.930000 51.117000 0
M  V30 1194 C 23.479000 23.229000 50.920000 0
M  V30 1195 C 21.586000 21.865000 51.596000 0
M  V30 1196 C 22.744000 24.335000 51.404000 0
M  V30 1197 C 20.835000 22.996000 51.976000 0
M  V30 1198 C 21.451000 24.224000 52.032000 0
M  V30 1199 O 20.777000 25.372000 52.287000 0
M  V30 1200 N 22.985000 18.860000 53.325000 0
M  V30 1201 C 22.483000 17.985000 55.618000 0
M  V30 1202 O 21.674000 17.906000 56.566000 0
M  V30 1203 C 20.953000 17.253000 53.698000 0
M  V30 1204 C 19.985000 17.771000 52.653000 0
M  V30 1205 C 20.191000 17.510000 51.301000 0
M  V30 1206 N 19.004000 18.703000 52.756000 0
M  V30 1207 C 18.538000 18.933000 51.534000 0
M  V30 1208 N 19.303000 18.336000 50.656000 0
M  V30 1209 N 23.824000 17.730000 55.703000 0
M  V30 1210 C 24.934000 18.634000 57.860000 0
M  V30 1211 O 24.766000 18.528000 59.038000 0
M  V30 1212 C 25.836000 16.596000 56.590000 0
M  V30 1213 C 26.534000 15.972000 57.828000 0
M  V30 1214 C 27.798000 15.152000 57.612000 0
M  V30 1215 N 28.799000 15.284000 58.436000 0
M  V30 1216 O 27.948000 14.484000 56.617000 0
M  V30 1217 N 25.517000 19.588000 57.187000 0
M  V30 1218 C 25.933000 22.072000 57.349000 0
M  V30 1219 O 26.206000 23.026000 58.083000 0
M  V30 1220 C 27.736000 20.429000 57.967000 0
M  V30 1221 C 28.432000 20.378000 56.635000 0
M  V30 1222 S 30.179000 20.044000 56.915000 0
M  V30 1223 C 30.080000 18.247000 57.015000 0
M  V30 1224 N 25.351000 22.224000 56.173000 0
M  V30 1225 C 23.450000 23.850000 56.087000 0
M  V30 1226 O 23.217000 24.968000 56.542000 0
M  V30 1227 C 25.148000 23.728000 54.253000 0
M  V30 1228 C 24.820000 25.193000 53.872000 0
M  V30 1229 O 26.543000 23.611000 53.826000 0
M  V30 1230 N 22.450000 22.977000 55.984000 0
M  V30 1231 C 20.991000 23.729000 57.980000 0
M  V30 1232 O 20.289000 24.651000 58.343000 0
M  V30 1233 C 20.100000 22.166000 56.016000 0
M  V30 1234 N 21.832000 23.139000 58.899000 0
M  V30 1235 C 22.378000 25.124000 60.392000 0
M  V30 1236 O 22.098000 25.691000 61.407000 0
M  V30 1237 C 23.079000 22.797000 60.878000 0
M  V30 1238 C 22.856000 21.426000 60.251000 0
M  V30 1239 C 22.495000 21.811000 58.799000 0
M  V30 1240 N 22.955000 25.829000 59.374000 0
M  V30 1241 C 22.006000 28.176000 59.467000 0
M  V30 1242 O 22.073000 29.235000 59.989000 0
M  V30 1243 C 24.189000 27.719000 58.352000 0
M  V30 1244 C 25.664000 27.470000 58.639000 0
M  V30 1245 C 26.475000 27.515000 57.286000 0
M  V30 1246 C 26.263000 28.539000 59.536000 0
M  V30 1247 N 20.852000 27.670000 58.980000 0
M  V30 1248 C 19.363000 28.520000 60.643000 0
M  V30 1249 O 18.979000 29.595000 60.971000 0
M  V30 1250 C 18.422000 27.476000 58.493000 0
M  V30 1251 C 18.334000 27.822000 56.946000 0
M  V30 1252 C 17.008000 27.554000 59.093000 0
M  V30 1253 C 19.276000 27.051000 56.007000 0
M  V30 1254 N 19.670000 27.514000 61.491000 0
M  V30 1255 C 20.540000 28.865000 63.498000 0
M  V30 1256 O 20.184000 29.902000 63.959000 0
M  V30 1257 N 21.853000 28.673000 63.328000 0
M  V30 1258 C 22.536000 31.078000 63.110000 0
M  V30 1259 O 22.623000 31.947000 63.955000 0
M  V30 1260 C 24.196000 29.212000 62.784000 0
M  V30 1261 C 25.357000 30.156000 63.055000 0
M  V30 1262 C 25.631000 31.208000 62.256000 0
M  V30 1263 C 26.224000 29.688000 64.061000 0
M  V30 1264 C 26.654000 32.090000 62.565000 0
M  V30 1265 C 27.345000 30.514000 64.335000 0
M  V30 1266 C 27.508000 31.797000 63.678000 0
M  V30 1267 O 28.449000 32.666000 64.051000 0
M  V30 1268 N 22.083000 31.329000 61.876000 0
M  V30 1269 C 20.373000 33.291000 61.987000 0
M  V30 1270 O 20.200000 34.463000 62.262000 0
M  V30 1271 C 21.925000 33.065000 60.050000 0
M  V30 1272 C 23.411000 33.097000 59.596000 0
M  V30 1273 C 24.191000 34.243000 59.911000 0
M  V30 1274 C 23.989000 32.112000 58.861000 0
M  V30 1275 C 25.528000 34.327000 59.538000 0
M  V30 1276 C 25.378000 32.133000 58.523000 0
M  V30 1277 C 26.143000 33.286000 58.737000 0
M  V30 1278 O 27.402000 33.435000 58.413000 0
M  V30 1279 N 19.400000 32.382000 62.254000 0
M  V30 1280 C 18.423000 32.953000 64.342000 0
M  V30 1281 O 17.706000 33.762000 64.920000 0
M  V30 1282 C 17.346000 31.407000 62.883000 0
M  V30 1283 O 17.009000 31.015000 61.515000 0
M  V30 1284 N 19.435000 32.370000 65.002000 0
M  V30 1285 C 20.515000 34.165000 66.574000 0
M  V30 1286 O 20.153000 34.880000 67.511000 0
M  V30 1287 C 20.899000 31.604000 66.815000 0
M  V30 1288 C 21.463000 31.585000 68.293000 0
M  V30 1289 C 22.476000 30.385000 68.454000 0
M  V30 1290 C 23.064000 30.341000 69.859000 0
M  V30 1291 N 24.041000 29.242000 70.040000 0 CHG=1
M  V30 1292 N 21.220000 34.652000 65.570000 0
M  V30 1293 C 20.679000 36.991000 65.319000 0
M  V30 1294 O 20.779000 38.136000 65.738000 0
M  V30 1295 C 22.976000 36.160000 64.391000 0
M  V30 1296 C 24.174000 35.250000 64.512000 0
M  V30 1297 C 25.065000 35.647000 65.726000 0
M  V30 1298 O 24.753000 36.547000 66.535000 0
M  V30 1299 O 26.087000 34.967000 65.931000 0 CHG=-1
M  V30 1300 N 19.616000 36.640000 64.561000 0
M  V30 1301 C 17.531000 37.622000 65.531000 0
M  V30 1302 O 16.863000 38.596000 65.786000 0
M  V30 1303 C 17.742000 37.046000 63.100000 0
M  V30 1304 N 17.458000 36.582000 66.320000 0
M  V30 1305 C 17.483000 37.364000 68.680000 0
M  V30 1306 O 16.879000 37.852000 69.607000 0
M  V30 1307 C 16.561000 35.045000 67.993000 0
M  V30 1308 C 15.762000 34.713000 69.330000 0
M  V30 1309 C 14.310000 35.214000 69.324000 0
M  V30 1310 O 13.774000 35.676000 68.292000 0
M  V30 1311 O 13.663000 35.181000 70.391000 0 CHG=-1
M  V30 1312 N 18.826000 37.468000 68.536000 0
M  V30 1313 C 19.796000 39.733000 68.913000 0
M  V30 1314 O 20.497000 40.551000 69.506000 0
M  V30 1315 C 20.991000 37.544000 69.403000 0
M  V30 1316 N 19.233000 40.115000 67.703000 0
M  V30 1317 C 20.504000 41.932000 66.360000 0
M  V30 1318 O 20.478000 43.064000 65.761000 0
M  V30 1319 N 21.562000 41.053000 66.403000 0
M  V30 1320 C 22.439000 41.199000 63.963000 0
M  V30 1321 O 23.207000 41.767000 63.257000 0
M  V30 1322 C 23.682000 40.077000 65.857000 0
M  V30 1323 C 24.171000 40.067000 67.304000 0
M  V30 1324 N 24.057000 38.961000 67.949000 0
M  V30 1325 O 24.421000 41.112000 67.899000 0
M  V30 1326 N 21.255000 40.657000 63.520000 0
M  V30 1327 C 19.389000 40.662000 61.990000 0
M  V30 1328 O 18.636000 40.580000 62.998000 0
M  V30 1329 C 21.581000 39.757000 61.272000 0
M  V30 1330 C 21.068000 38.331000 61.350000 0
M  V30 1331 O 21.543000 40.195000 59.986000 0
M  V30 1332 N 18.801000 40.685000 60.810000 0
M  V30 1333 C 17.221000 39.358000 59.516000 0
M  V30 1334 O 18.031000 39.180000 58.581000 0
M  V30 1335 C 16.755000 41.690000 59.978000 0
M  V30 1336 C 16.664000 42.785000 61.090000 0
M  V30 1337 C 16.452000 44.260000 60.586000 0
M  V30 1338 C 17.701000 44.796000 59.820000 0
M  V30 1339 N 18.763000 45.077000 60.795000 0 CHG=1
M  V30 1340 N 16.172000 38.557000 59.637000 0
M  V30 1341 C 14.549000 37.335000 58.107000 0
M  V30 1342 O 13.510000 37.809000 58.545000 0
M  V30 1343 C 15.794000 36.116000 59.954000 0
M  V30 1344 C 16.273000 34.766000 59.410000 0
M  V30 1345 C 17.566000 34.277000 59.834000 0
M  V30 1346 C 15.417000 34.047000 58.588000 0
M  V30 1347 C 18.005000 33.079000 59.282000 0
M  V30 1348 C 15.917000 32.913000 58.030000 0
M  V30 1349 C 17.226000 32.437000 58.263000 0
M  V30 1350 O 17.620000 31.275000 57.729000 0
M  V30 1351 N 14.576000 36.769000 56.929000 0
M  V30 1352 C 13.629000 35.200000 55.288000 0
M  V30 1353 O 14.676000 35.079000 54.701000 0
M  V30 1354 C 13.004000 37.719000 55.430000 0
M  V30 1355 N 12.730000 34.240000 55.289000 0
M  V30 1356 C 11.690000 33.727000 53.069000 0
M  V30 1357 O 10.553000 34.255000 53.276000 0
M  V30 1358 C 11.881000 31.950000 54.874000 0
M  V30 1359 C 12.650000 31.319000 56.035000 0
M  V30 1360 C 12.114000 29.914000 56.261000 0
M  V30 1361 C 12.343000 29.504000 57.692000 0
M  V30 1362 N 13.781000 29.232000 57.888000 0 CHG=1
M  V30 1363 N 12.227000 33.610000 51.821000 0
M  V30 1364 C 11.231000 32.529000 49.938000 0
M  V30 1365 O 12.163000 31.747000 49.773000 0
M  V30 1366 C 12.205000 34.893000 49.531000 0
M  V30 1367 C 12.067000 36.400000 49.871000 0
M  V30 1368 C 13.751000 34.624000 49.399000 0
M  V30 1369 N 10.042000 32.333000 49.440000 0
M  V30 1370 C 10.298000 31.324000 47.299000 0
M  V30 1371 O 9.863000 32.227000 46.517000 0
M  V30 1372 C 8.142000 31.018000 48.475000 0
M  V30 1373 C 7.810000 29.722000 47.772000 0
M  V30 1374 O 8.646000 29.165000 47.008000 0
M  V30 1375 O 6.661000 29.181000 48.049000 0 CHG=-1
M  V30 1376 N 11.387000 30.591000 46.951000 0
M  V30 1377 C 11.365000 30.467000 44.460000 0
M  V30 1378 O 11.941000 30.618000 43.401000 0
M  V30 1379 N 10.353000 29.639000 44.571000 0
M  V30 1380 C 8.717000 30.376000 42.804000 0
M  V30 1381 O 8.234000 30.225000 41.677000 0
M  V30 1382 C 8.612000 28.076000 43.858000 0
M  V30 1383 C 9.181000 26.803000 44.597000 0
M  V30 1384 O 7.569000 28.507000 44.681000 0
M  V30 1385 N 8.533000 31.468000 43.527000 0
M  V30 1386 C 8.773000 33.297000 41.823000 0
M  V30 1387 O 9.955000 33.011000 41.720000 0
M  V30 1388 C 7.578000 33.715000 44.066000 0
M  V30 1389 C 6.615000 33.115000 45.111000 0
M  V30 1390 C 6.558000 34.110000 46.361000 0
M  V30 1391 C 6.331000 35.578000 45.910000 0
M  V30 1392 N 4.999000 35.769000 45.309000 0 CHG=1
M  V30 1393 N 8.027000 33.960000 40.831000 0
M  V30 1394 C 8.674000 34.628000 39.633000 0 CFG=2
M  V30 1395 C 9.641000 35.705000 40.121000 0
M  V30 1396 O 9.459000 36.287000 41.217000 0
M  V30 1397 C 7.552000 35.108000 38.693000 0
M  V30 1398 C 6.297000 34.464000 39.372000 0
M  V30 1399 C 6.592000 34.058000 40.756000 0
M  V30 1400 N 10.758000 35.982000 39.397000 0
M  V30 1401 C 11.087000 38.373000 40.066000 0
M  V30 1402 O 11.538000 39.082000 41.016000 0
M  V30 1403 C 12.951000 37.136000 38.865000 0
M  V30 1404 C 13.871000 35.961000 39.040000 0
M  V30 1405 C 12.616000 37.223000 37.360000 0
M  V30 1406 N 10.057000 38.673000 39.338000 0
M  V30 1407 C 8.489000 39.988000 40.835000 0
M  V30 1408 O 8.306000 41.069000 41.418000 0
M  V30 1409 C 8.305000 40.111000 38.412000 0
M  V30 1410 N 7.976000 38.835000 41.339000 0
M  V30 1411 C 8.045000 38.640000 43.778000 0
M  V30 1412 O 7.710000 39.110000 44.796000 0
M  V30 1413 C 6.270000 37.464000 42.436000 0
M  V30 1414 C 5.359000 37.393000 41.254000 0
M  V30 1415 C 4.344000 38.611000 41.301000 0
M  V30 1416 O 3.717000 38.761000 40.258000 0
M  V30 1417 O 4.202000 39.338000 42.354000 0 CHG=-1
M  V30 1418 N 9.216000 37.944000 43.676000 0
M  V30 1419 C 10.823000 39.383000 44.995000 0
M  V30 1420 O 10.969000 39.777000 46.169000 0
M  V30 1421 C 11.397000 37.014000 44.418000 0
M  V30 1422 C 12.505000 37.097000 45.474000 0
M  V30 1423 C 10.904000 35.551000 44.467000 0
M  V30 1424 N 11.090000 40.155000 43.961000 0
M  V30 1425 C 10.390000 42.333000 44.858000 0
M  V30 1426 O 10.749000 42.986000 45.841000 0
M  V30 1427 C 11.542000 42.150000 42.562000 0
M  V30 1428 C 12.089000 43.609000 42.445000 0
M  V30 1429 C 11.779000 44.197000 41.071000 0
M  V30 1430 N 12.400000 45.516000 41.016000 0
M  V30 1431 C 11.929000 46.702000 41.337000 0
M  V30 1432 N 10.927000 46.819000 42.060000 0 CHG=1
M  V30 1433 N 12.415000 47.796000 40.946000 0
M  V30 1434 N 9.127000 42.212000 44.561000 0
M  V30 1435 C 7.837000 42.349000 46.765000 0
M  V30 1436 O 7.582000 43.278000 47.517000 0
M  V30 1437 C 6.734000 42.406000 44.524000 0
M  V30 1438 N 8.280000 41.166000 47.230000 0
M  V30 1439 C 9.778000 41.511000 49.286000 0
M  V30 1440 O 9.799000 42.009000 50.404000 0
M  V30 1441 C 8.399000 39.396000 48.906000 0
M  V30 1442 C 6.942000 38.842000 48.813000 0
M  V30 1443 O 6.716000 37.646000 48.386000 0
M  V30 1444 O 6.003000 39.524000 49.333000 0 CHG=-1
M  V30 1445 N 10.903000 41.437000 48.551000 0
M  V30 1446 C 12.050000 43.557000 49.088000 0
M  V30 1447 O 12.772000 44.134000 49.923000 0
M  V30 1448 C 13.239000 41.583000 47.950000 0
M  V30 1449 C 13.706000 40.147000 48.066000 0
M  V30 1450 C 14.642000 39.792000 46.900000 0
M  V30 1451 C 14.526000 39.963000 49.433000 0
M  V30 1452 N 11.162000 44.162000 48.264000 0
M  V30 1453 C 10.063000 45.917000 49.789000 0
M  V30 1454 O 10.065000 47.025000 50.297000 0
M  V30 1455 C 10.009000 46.102000 47.215000 0
M  V30 1456 C 10.793000 46.529000 45.958000 0
M  V30 1457 C 11.575000 47.865000 46.059000 0
M  V30 1458 O 11.965000 48.349000 44.968000 0
M  V30 1459 O 11.465000 48.530000 47.059000 0 CHG=-1
M  V30 1460 N 9.446000 44.940000 50.440000 0
M  V30 1461 C 9.866000 44.887000 52.941000 0
M  V30 1462 O 9.725000 45.458000 54.008000 0
M  V30 1463 C 7.742000 44.018000 51.939000 0
M  V30 1464 C 6.715000 43.944000 50.782000 0
M  V30 1465 C 5.782000 42.694000 50.814000 0
M  V30 1466 C 4.806000 42.754000 49.605000 0
M  V30 1467 N 4.116000 41.465000 49.567000 0 CHG=1
M  V30 1468 N 10.832000 43.999000 52.663000 0
M  V30 1469 C 13.004000 44.237000 53.841000 0
M  V30 1470 O 13.338000 44.554000 54.995000 0
M  V30 1471 C 12.119000 41.918000 53.186000 0
M  V30 1472 C 10.850000 41.073000 53.145000 0
M  V30 1473 C 13.095000 41.381000 54.191000 0
M  V30 1474 C 11.086000 39.734000 52.384000 0
M  V30 1475 N 13.620000 44.747000 52.813000 0
M  V30 1476 C 14.498000 46.963000 53.205000 0
M  V30 1477 O 13.346000 47.510000 53.075000 0
M  V30 1478 C 15.601000 45.391000 51.463000 0
M  V30 1479 C 15.931000 43.983000 51.047000 0
M  V30 1480 C 16.552000 44.083000 49.670000 0
M  V30 1481 C 16.711000 43.307000 52.141000 0
M  V30 1482 N 15.535000 47.653000 53.633000 0
M  V30 1483 C 15.291000 50.147000 53.156000 0
M  V30 1484 O 15.918000 50.150000 52.080000 0
M  V30 1485 O 14.454000 51.047000 53.494000 0 CHG=-1
M  V30 END ATOM
M  V30 BEGIN BOND
M  V30 1 2 3 2
M  V30 2 1 5 4
M  V30 3 1 6 5
M  V30 4 1 7 6
M  V30 5 1 8 2
M  V30 6 2 10 9
M  V30 7 1 12 11
M  V30 8 1 13 12
M  V30 9 1 14 13
M  V30 10 1 15 14
M  V30 11 1 16 15
M  V30 12 2 17 15
M  V30 13 1 18 9
M  V30 14 2 20 19
M  V30 15 1 22 21
M  V30 16 1 23 21
M  V30 17 1 24 22
M  V30 18 1 25 19
M  V30 19 2 27 26
M  V30 20 1 29 28
M  V30 21 1 30 28
M  V30 22 1 31 29
M  V30 23 1 32 26
M  V30 24 2 34 33
M  V30 25 1 36 35
M  V30 26 1 37 36
M  V30 27 1 38 36
M  V30 28 1 39 33
M  V30 29 2 41 40
M  V30 30 1 43 42
M  V30 31 1 44 43
M  V30 32 1 45 43
M  V30 33 1 46 40
M  V30 34 2 48 47
M  V30 35 1 49 47
M  V30 36 2 51 50
M  V30 37 1 53 50
M  V30 38 2 55 54
M  V30 39 1 57 56
M  V30 40 1 58 53
M  V30 41 1 58 57
M  V30 42 1 59 54
M  V30 43 2 61 60
M  V30 44 1 62 60
M  V30 45 2 64 63
M  V30 46 1 66 63
M  V30 47 2 68 67
M  V30 48 1 69 67
M  V30 49 2 71 70
M  V30 50 1 73 72
M  V30 51 1 74 73
M  V30 52 1 75 74
M  V30 53 1 76 75
M  V30 54 1 77 70
M  V30 55 2 79 78
M  V30 56 1 80 78
M  V30 57 2 82 81
M  V30 58 1 84 83
M  V30 59 1 85 83
M  V30 60 1 86 81
M  V30 61 2 88 87
M  V30 62 1 90 89
M  V30 63 1 91 90
M  V30 64 1 92 91
M  V30 65 2 93 91
M  V30 66 1 94 87
M  V30 67 2 96 95
M  V30 68 1 98 95
M  V30 69 2 100 99
M  V30 70 1 102 101
M  V30 71 1 103 102
M  V30 72 1 104 103
M  V30 73 2 105 103
M  V30 74 1 106 99
M  V30 75 2 108 107
M  V30 76 1 110 109
M  V30 77 2 111 110
M  V30 78 1 112 110
M  V30 79 1 113 111
M  V30 80 2 114 112
M  V30 81 1 115 114
M  V30 82 2 115 113
M  V30 83 1 116 107
M  V30 84 2 118 117
M  V30 85 1 120 119
M  V30 86 1 121 119
M  V30 87 1 122 120
M  V30 88 1 123 117
M  V30 89 2 125 124
M  V30 90 1 127 126
M  V30 91 1 128 127
M  V30 92 1 129 128
M  V30 93 1 130 124
M  V30 94 2 132 131
M  V30 95 1 134 133
M  V30 96 1 135 134
M  V30 97 2 136 135
M  V30 98 1 137 135
M  V30 99 1 138 131
M  V30 100 2 140 139
M  V30 101 1 142 141
M  V30 102 1 143 142
M  V30 103 1 144 143
M  V30 104 1 145 144
M  V30 105 1 146 139
M  V30 106 2 148 147
M  V30 107 1 150 149
M  V30 108 2 151 150
M  V30 109 1 152 150
M  V30 110 1 153 151
M  V30 111 2 154 152
M  V30 112 1 155 154
M  V30 113 2 155 153
M  V30 114 1 156 155
M  V30 115 1 157 147
M  V30 116 2 159 158
M  V30 117 1 160 158
M  V30 118 2 162 161
M  V30 119 1 164 163
M  V30 120 1 165 163
M  V30 121 1 166 164
M  V30 122 1 167 161
M  V30 123 2 169 168
M  V30 124 1 171 170
M  V30 125 1 172 171
M  V30 126 1 172 167
M  V30 127 1 173 168
M  V30 128 2 175 174
M  V30 129 1 177 176
M  V30 130 1 178 177
M  V30 131 1 179 178
M  V30 132 2 180 178
M  V30 133 1 181 174
M  V30 134 1 182 181 CFG=1
M  V30 135 1 183 182
M  V30 136 2 184 183
M  V30 137 1 185 182
M  V30 138 1 186 185
M  V30 139 1 185 187 CFG=3
M  V30 140 1 188 186
M  V30 141 1 189 183
M  V30 142 1 190 189
M  V30 143 1 191 190
M  V30 144 2 192 191
M  V30 145 1 190 193 CFG=3
M  V30 146 1 194 193
M  V30 147 1 195 191
M  V30 148 1 196 195 CFG=3
M  V30 149 1 197 196
M  V30 150 2 198 197
M  V30 151 1 199 196
M  V30 152 1 199 200 CFG=1
M  V30 153 1 201 199
M  V30 154 1 202 197
M  V30 155 1 203 202
M  V30 156 1 204 203
M  V30 157 2 205 204
M  V30 158 1 206 204
M  V30 159 1 207 206
M  V30 160 1 208 207
M  V30 161 2 209 208
M  V30 162 1 207 210 CFG=1
M  V30 163 1 211 210
M  V30 164 2 212 211
M  V30 165 1 213 211
M  V30 166 1 214 208
M  V30 167 1 215 214
M  V30 168 1 216 215
M  V30 169 2 217 216
M  V30 170 1 215 218 CFG=1
M  V30 171 1 219 218
M  V30 172 1 220 219
M  V30 173 1 221 220
M  V30 174 1 222 216
M  V30 175 1 223 222
M  V30 176 1 224 223
M  V30 177 2 225 224
M  V30 178 1 223 226 CFG=1
M  V30 179 1 227 226
M  V30 180 1 228 227
M  V30 181 1 229 227
M  V30 182 1 230 224
M  V30 183 1 231 230
M  V30 184 1 232 231
M  V30 185 2 233 232
M  V30 186 1 231 234 CFG=3
M  V30 187 1 235 234
M  V30 188 1 236 235
M  V30 189 1 237 236
M  V30 190 1 238 237
M  V30 191 1 239 238
M  V30 192 2 240 238
M  V30 193 1 241 232
M  V30 194 1 242 241
M  V30 195 1 243 242
M  V30 196 2 244 243
M  V30 197 1 242 245 CFG=1
M  V30 198 1 246 243
M  V30 199 1 247 246
M  V30 200 1 248 247
M  V30 201 2 249 248
M  V30 202 1 247 250 CFG=1
M  V30 203 1 251 248
M  V30 204 1 252 251 CFG=1
M  V30 205 1 253 252
M  V30 206 2 254 253
M  V30 207 1 255 252
M  V30 208 1 256 255
M  V30 209 1 257 255
M  V30 210 1 258 253
M  V30 211 1 259 258
M  V30 212 1 260 259
M  V30 213 2 261 260
M  V30 214 1 259 262 CFG=1
M  V30 215 1 263 262
M  V30 216 1 264 263
M  V30 217 1 265 264
M  V30 218 1 266 265
M  V30 219 1 267 260
M  V30 220 1 268 267
M  V30 221 1 269 268
M  V30 222 2 270 269
M  V30 223 1 268 271 CFG=1
M  V30 224 1 272 271
M  V30 225 1 273 269
M  V30 226 1 274 273
M  V30 227 1 275 274
M  V30 228 2 276 275
M  V30 229 1 277 275
M  V30 230 2 279 278
M  V30 231 1 281 280
M  V30 232 1 282 278
M  V30 233 2 284 283
M  V30 234 1 286 285
M  V30 235 1 287 286
M  V30 236 2 288 287
M  V30 237 1 289 287
M  V30 238 1 290 283
M  V30 239 2 292 291
M  V30 240 1 294 293
M  V30 241 1 295 294
M  V30 242 1 296 294
M  V30 243 1 297 291
M  V30 244 2 299 298
M  V30 245 1 300 298
M  V30 246 2 302 301
M  V30 247 1 304 303
M  V30 248 1 305 304
M  V30 249 1 306 305
M  V30 250 1 307 306
M  V30 251 1 308 301
M  V30 252 2 310 309
M  V30 253 1 312 311
M  V30 254 1 313 312
M  V30 255 1 314 313
M  V30 256 2 315 313
M  V30 257 1 316 309
M  V30 258 2 318 317
M  V30 259 1 320 317
M  V30 260 1 321 320
M  V30 261 1 322 321
M  V30 262 2 323 322
M  V30 263 1 321 324 CFG=1
M  V30 264 1 325 324
M  V30 265 1 326 325
M  V30 266 1 327 326
M  V30 267 1 328 327
M  V30 268 1 329 322
M  V30 269 1 330 329
M  V30 270 1 331 330
M  V30 271 2 332 331
M  V30 272 1 330 333 CFG=1
M  V30 273 1 334 333
M  V30 274 2 335 334
M  V30 275 1 336 334
M  V30 276 1 337 331
M  V30 277 1 338 337 CFG=3
M  V30 278 1 339 338
M  V30 279 2 340 339
M  V30 280 1 341 338
M  V30 281 1 342 341
M  V30 282 1 341 343 CFG=1
M  V30 283 1 344 342
M  V30 284 1 345 339
M  V30 285 1 346 345
M  V30 286 1 347 346
M  V30 287 2 348 347
M  V30 288 1 346 349 CFG=3
M  V30 289 1 350 349
M  V30 290 1 351 350
M  V30 291 1 352 351
M  V30 292 1 353 347
M  V30 293 1 354 353
M  V30 294 1 355 354
M  V30 295 2 356 355
M  V30 296 1 354 357 CFG=1
M  V30 297 1 358 357
M  V30 298 2 359 358
M  V30 299 1 360 358
M  V30 300 1 361 355
M  V30 301 1 362 361
M  V30 302 1 363 362
M  V30 303 2 364 363
M  V30 304 1 362 365 CFG=1
M  V30 305 1 366 363
M  V30 306 1 367 366
M  V30 307 1 368 367
M  V30 308 2 369 368
M  V30 309 1 370 368
M  V30 310 1 371 370
M  V30 311 1 372 371
M  V30 312 2 373 372
M  V30 313 1 371 374 CFG=3
M  V30 314 1 375 374
M  V30 315 1 376 375
M  V30 316 1 377 376
M  V30 317 1 378 377
M  V30 318 1 379 372
M  V30 319 2 381 380
M  V30 320 1 383 382
M  V30 321 1 384 383
M  V30 322 1 385 383
M  V30 323 1 386 380
M  V30 324 2 388 387
M  V30 325 1 390 389
M  V30 326 1 391 389
M  V30 327 1 392 387
M  V30 328 2 394 393
M  V30 329 1 396 395
M  V30 330 1 397 395
M  V30 331 1 398 393
M  V30 332 2 400 399
M  V30 333 1 402 401
M  V30 334 2 403 402
M  V30 335 1 404 402
M  V30 336 1 405 399
M  V30 337 2 407 406
M  V30 338 1 409 408
M  V30 339 1 410 409
M  V30 340 2 411 410
M  V30 341 1 412 410
M  V30 342 1 413 406
M  V30 343 2 415 414
M  V30 344 1 417 416
M  V30 345 1 418 417
M  V30 346 1 419 417
M  V30 347 1 420 414
M  V30 348 2 422 421
M  V30 349 1 424 423
M  V30 350 1 425 423
M  V30 351 1 426 421
M  V30 352 2 428 427
M  V30 353 1 430 429
M  V30 354 1 431 429
M  V30 355 1 432 430
M  V30 356 1 433 427
M  V30 357 2 435 434
M  V30 358 1 437 434
M  V30 359 2 439 438
M  V30 360 1 441 440
M  V30 361 1 442 441
M  V30 362 1 443 441
M  V30 363 1 444 438
M  V30 364 2 446 445
M  V30 365 1 448 447
M  V30 366 1 449 447
M  V30 367 1 450 445
M  V30 368 2 452 451
M  V30 369 1 454 453
M  V30 370 1 455 454
M  V30 371 1 456 455
M  V30 372 1 457 456
M  V30 373 1 458 451
M  V30 374 2 460 459
M  V30 375 1 462 461
M  V30 376 1 463 462
M  V30 377 2 464 463
M  V30 378 1 465 463
M  V30 379 1 466 459
M  V30 380 2 468 467
M  V30 381 1 470 469
M  V30 382 1 471 470
M  V30 383 1 472 471
M  V30 384 1 473 472
M  V30 385 1 474 473
M  V30 386 2 475 473
M  V30 387 1 476 467
M  V30 388 2 478 477
M  V30 389 1 480 479
M  V30 390 1 481 479
M  V30 391 1 482 480
M  V30 392 1 483 477
M  V30 393 2 485 484
M  V30 394 1 487 484
M  V30 395 2 489 488
M  V30 396 1 491 490
M  V30 397 1 492 491
M  V30 398 1 493 492
M  V30 399 2 494 492
M  V30 400 1 495 488
M  V30 401 2 497 496
M  V30 402 1 499 498
M  V30 403 1 500 499
M  V30 404 2 501 500
M  V30 405 1 502 500
M  V30 406 1 503 496
M  V30 407 2 505 504
M  V30 408 1 507 506
M  V30 409 2 508 507
M  V30 410 1 509 507
M  V30 411 1 510 504
M  V30 412 2 512 511
M  V30 413 1 514 513
M  V30 414 1 515 511
M  V30 415 2 517 516
M  V30 416 1 519 518
M  V30 417 1 520 519
M  V30 418 1 521 520
M  V30 419 1 522 521
M  V30 420 1 523 522
M  V30 421 2 524 522
M  V30 422 1 525 516
M  V30 423 2 527 526
M  V30 424 1 529 528
M  V30 425 1 530 529
M  V30 426 2 531 529
M  V30 427 1 532 526
M  V30 428 2 534 533
M  V30 429 1 535 533
M  V30 430 2 537 536
M  V30 431 1 539 538
M  V30 432 2 540 539
M  V30 433 1 541 539
M  V30 434 1 542 540
M  V30 435 2 543 541
M  V30 436 1 544 543
M  V30 437 2 544 542
M  V30 438 1 545 536
M  V30 439 2 547 546
M  V30 440 1 549 548
M  V30 441 1 550 549
M  V30 442 1 551 549
M  V30 443 1 552 546
M  V30 444 2 554 553
M  V30 445 1 556 555
M  V30 446 1 557 556
M  V30 447 1 558 556
M  V30 448 1 559 553
M  V30 449 2 561 560
M  V30 450 1 563 562
M  V30 451 2 564 563
M  V30 452 1 565 563
M  V30 453 1 566 560
M  V30 454 2 568 567
M  V30 455 1 569 567
M  V30 456 2 571 570
M  V30 457 1 573 572
M  V30 458 2 574 573
M  V30 459 1 575 573
M  V30 460 1 576 574
M  V30 461 2 577 575
M  V30 462 1 578 577
M  V30 463 2 578 576
M  V30 464 1 579 570
M  V30 465 2 581 580
M  V30 466 1 583 582
M  V30 467 1 584 579
M  V30 468 1 584 583
M  V30 469 1 585 580
M  V30 470 2 587 586
M  V30 471 1 589 588
M  V30 472 1 590 589
M  V30 473 1 591 590
M  V30 474 1 592 591
M  V30 475 1 593 592
M  V30 476 2 594 592
M  V30 477 1 595 586
M  V30 478 2 597 596
M  V30 479 1 599 598
M  V30 480 1 600 598
M  V30 481 1 601 596
M  V30 482 2 603 602
M  V30 483 1 605 604
M  V30 484 1 606 604
M  V30 485 1 607 605
M  V30 486 1 608 602
M  V30 487 2 610 609
M  V30 488 1 612 611
M  V30 489 1 613 608
M  V30 490 1 613 612
M  V30 491 1 614 609
M  V30 492 2 616 615
M  V30 493 1 618 617
M  V30 494 1 619 618
M  V30 495 1 620 619
M  V30 496 2 621 619
M  V30 497 1 622 615
M  V30 498 2 624 623
M  V30 499 1 626 623
M  V30 500 2 628 627
M  V30 501 1 630 629
M  V30 502 2 631 630
M  V30 503 1 632 630
M  V30 504 1 633 627
M  V30 505 2 635 634
M  V30 506 1 637 634
M  V30 507 2 639 638
M  V30 508 1 641 640
M  V30 509 1 642 641
M  V30 510 1 643 642
M  V30 511 1 644 638
M  V30 512 2 646 645
M  V30 513 1 648 647
M  V30 514 1 649 648
M  V30 515 1 650 649
M  V30 516 1 651 650
M  V30 517 1 652 645
M  V30 518 2 654 653
M  V30 519 1 656 655
M  V30 520 1 657 656
M  V30 521 2 658 657
M  V30 522 1 659 657
M  V30 523 1 660 653
M  V30 524 2 662 661
M  V30 525 1 664 661
M  V30 526 2 666 665
M  V30 527 1 667 665
M  V30 528 2 669 668
M  V30 529 1 671 670
M  V30 530 1 672 670
M  V30 531 1 673 671
M  V30 532 1 674 668
M  V30 533 2 676 675
M  V30 534 1 678 677
M  V30 535 1 679 678
M  V30 536 2 680 678
M  V30 537 1 681 675
M  V30 538 2 683 682
M  V30 539 1 685 684
M  V30 540 1 686 684
M  V30 541 1 687 682
M  V30 542 2 689 688
M  V30 543 1 691 690
M  V30 544 2 692 691
M  V30 545 1 693 691
M  V30 546 1 694 688
M  V30 547 2 696 695
M  V30 548 1 698 697
M  V30 549 2 699 698
M  V30 550 1 700 698
M  V30 551 1 701 699
M  V30 552 2 702 700
M  V30 553 1 703 702
M  V30 554 2 703 701
M  V30 555 1 704 703
M  V30 556 1 705 695
M  V30 557 2 707 706
M  V30 558 1 709 708
M  V30 559 1 710 708
M  V30 560 1 711 706
M  V30 561 2 713 712
M  V30 562 1 715 714
M  V30 563 1 716 715
M  V30 564 1 717 715
M  V30 565 1 718 712
M  V30 566 2 720 719
M  V30 567 1 722 721
M  V30 568 1 723 722
M  V30 569 2 724 723
M  V30 570 1 725 723
M  V30 571 1 726 719
M  V30 572 2 728 727
M  V30 573 1 730 729
M  V30 574 2 731 730
M  V30 575 1 732 730
M  V30 576 1 733 731
M  V30 577 2 734 732
M  V30 578 1 735 734
M  V30 579 2 735 733
M  V30 580 1 736 727
M  V30 581 2 738 737
M  V30 582 1 740 739
M  V30 583 2 741 740
M  V30 584 1 742 740
M  V30 585 1 743 737
M  V30 586 2 745 744
M  V30 587 1 747 746
M  V30 588 1 748 746
M  V30 589 1 749 744
M  V30 590 2 751 750
M  V30 591 1 753 752
M  V30 592 1 754 753
M  V30 593 1 754 749
M  V30 594 1 755 750
M  V30 595 2 757 756
M  V30 596 1 759 758
M  V30 597 2 760 759
M  V30 598 1 761 759
M  V30 599 1 762 756
M  V30 600 2 764 763
M  V30 601 1 766 765
M  V30 602 1 767 766
M  V30 603 2 768 767
M  V30 604 1 769 767
M  V30 605 1 770 763
M  V30 606 2 772 771
M  V30 607 1 774 773
M  V30 608 1 775 774
M  V30 609 1 776 774
M  V30 610 1 777 771
M  V30 611 2 779 778
M  V30 612 1 781 780
M  V30 613 1 782 780
M  V30 614 1 783 781
M  V30 615 1 784 778
M  V30 616 2 786 785
M  V30 617 1 788 787
M  V30 618 1 789 787
M  V30 619 1 790 785
M  V30 620 2 792 791
M  V30 621 1 794 793
M  V30 622 2 795 794
M  V30 623 1 796 794
M  V30 624 1 797 791
M  V30 625 2 799 798
M  V30 626 1 801 800
M  V30 627 1 802 801
M  V30 628 1 803 802
M  V30 629 1 804 803
M  V30 630 1 805 804
M  V30 631 2 806 804
M  V30 632 1 807 798
M  V30 633 2 809 808
M  V30 634 1 811 810
M  V30 635 1 812 810
M  V30 636 1 813 811
M  V30 637 1 814 808
M  V30 638 2 816 815
M  V30 639 1 818 817
M  V30 640 1 819 817
M  V30 641 1 820 815
M  V30 642 1 821 820
M  V30 643 1 822 821
M  V30 644 2 823 822
M  V30 645 1 824 822
M  V30 646 1 825 824
M  V30 647 1 826 825
M  V30 648 2 827 826
M  V30 649 1 825 828 CFG=1
M  V30 650 1 829 828
M  V30 651 1 830 829
M  V30 652 1 831 830
M  V30 653 1 832 831
M  V30 654 1 833 832
M  V30 655 2 834 832
M  V30 656 1 835 826
M  V30 657 1 836 835
M  V30 658 1 837 836
M  V30 659 2 838 837
M  V30 660 1 836 839 CFG=3
M  V30 661 1 840 839
M  V30 662 1 841 840
M  V30 663 1 842 841
M  V30 664 1 843 842
M  V30 665 1 844 843
M  V30 666 2 845 843
M  V30 667 1 846 837
M  V30 668 1 847 846 CFG=1
M  V30 669 1 848 847
M  V30 670 2 849 848
M  V30 671 1 850 847
M  V30 672 1 851 850
M  V30 673 1 852 850
M  V30 674 1 853 848
M  V30 675 1 854 853
M  V30 676 1 855 854
M  V30 677 1 856 855
M  V30 678 1 857 854
M  V30 679 1 858 857
M  V30 680 1 859 858
M  V30 681 1 860 858
M  V30 682 1 861 860
M  V30 683 1 862 859
M  V30 684 1 862 861
M  V30 685 1 863 855
M  V30 686 1 864 863
M  V30 687 1 865 864
M  V30 688 2 866 865
M  V30 689 1 864 867 CFG=3
M  V30 690 1 868 865
M  V30 691 1 869 868
M  V30 692 1 869 870 CFG=3
M  V30 693 2 871 870
M  V30 694 1 872 869
M  V30 695 1 873 872
M  V30 696 1 874 873
M  V30 697 1 874 868
M  V30 698 1 875 870
M  V30 699 1 876 875
M  V30 700 1 877 876
M  V30 701 2 878 877
M  V30 702 1 876 879 CFG=3
M  V30 703 1 880 879
M  V30 704 1 881 877
M  V30 705 1 882 881
M  V30 706 1 883 882
M  V30 707 2 884 883
M  V30 708 1 885 883
M  V30 709 1 886 885
M  V30 710 1 887 886
M  V30 711 2 888 887
M  V30 712 1 886 889 CFG=3
M  V30 713 1 890 889
M  V30 714 1 891 890
M  V30 715 1 892 891
M  V30 716 1 893 892
M  V30 717 1 894 893
M  V30 718 2 895 893
M  V30 719 1 896 887
M  V30 720 1 897 896 CFG=3
M  V30 721 1 898 897
M  V30 722 2 899 898
M  V30 723 1 900 897
M  V30 724 1 901 900
M  V30 725 1 902 900
M  V30 726 1 903 898
M  V30 727 1 904 903
M  V30 728 1 905 904
M  V30 729 2 906 905
M  V30 730 1 904 907 CFG=3
M  V30 731 1 908 907
M  V30 732 2 909 908
M  V30 733 1 910 908
M  V30 734 1 911 909
M  V30 735 2 912 910
M  V30 736 1 913 912
M  V30 737 2 913 911
M  V30 738 1 914 913
M  V30 739 1 915 905
M  V30 740 1 916 915
M  V30 741 1 917 916
M  V30 742 1 918 917
M  V30 743 1 919 916
M  V30 744 1 920 919
M  V30 745 1 921 920
M  V30 746 1 922 920
M  V30 747 1 923 922
M  V30 748 1 924 923
M  V30 749 1 924 921
M  V30 750 1 925 917
M  V30 751 2 927 926
M  V30 752 1 929 928
M  V30 753 1 930 928
M  V30 754 1 931 926
M  V30 755 2 933 932
M  V30 756 1 935 934
M  V30 757 1 936 935
M  V30 758 1 937 936
M  V30 759 1 938 937
M  V30 760 1 939 932
M  V30 761 2 941 940
M  V30 762 1 943 942
M  V30 763 2 944 943
M  V30 764 1 945 943
M  V30 765 1 946 944
M  V30 766 2 947 945
M  V30 767 1 948 947
M  V30 768 2 948 946
M  V30 769 1 949 940
M  V30 770 2 951 950
M  V30 771 1 953 952
M  V30 772 1 954 953
M  V30 773 2 955 953
M  V30 774 1 956 950
M  V30 775 2 958 957
M  V30 776 1 960 959
M  V30 777 1 961 960
M  V30 778 1 961 956
M  V30 779 1 962 957
M  V30 780 2 964 963
M  V30 781 1 966 965
M  V30 782 1 967 962
M  V30 783 1 967 966
M  V30 784 1 968 963
M  V30 785 2 970 969
M  V30 786 1 972 971
M  V30 787 1 973 972
M  V30 788 1 974 973
M  V30 789 1 975 974
M  V30 790 1 976 969
M  V30 791 2 978 977
M  V30 792 1 980 979
M  V30 793 1 981 979
M  V30 794 1 982 977
M  V30 795 2 984 983
M  V30 796 1 986 985
M  V30 797 1 987 986
M  V30 798 2 988 987
M  V30 799 1 989 987
M  V30 800 1 990 983
M  V30 801 2 992 991
M  V30 802 1 993 991
M  V30 803 2 995 994
M  V30 804 1 997 996
M  V30 805 1 998 997
M  V30 806 1 999 998
M  V30 807 1 1000 999
M  V30 808 1 1001 994
M  V30 809 2 1003 1002
M  V30 810 1 1005 1004
M  V30 811 2 1006 1005
M  V30 812 1 1007 1005
M  V30 813 1 1008 1002
M  V30 814 2 1010 1009
M  V30 815 1 1012 1011
M  V30 816 2 1013 1012
M  V30 817 1 1014 1012
M  V30 818 1 1015 1009
M  V30 819 2 1017 1016
M  V30 820 1 1019 1018
M  V30 821 1 1020 1018
M  V30 822 1 1021 1016
M  V30 823 2 1023 1022
M  V30 824 1 1025 1024
M  V30 825 1 1026 1024
M  V30 826 1 1027 1022
M  V30 827 2 1029 1028
M  V30 828 1 1030 1028
M  V30 829 2 1032 1031
M  V30 830 1 1034 1033
M  V30 831 1 1035 1034
M  V30 832 2 1036 1035
M  V30 833 1 1037 1035
M  V30 834 1 1038 1031
M  V30 835 2 1040 1039
M  V30 836 1 1042 1041
M  V30 837 1 1043 1042
M  V30 838 2 1044 1043
M  V30 839 1 1045 1043
M  V30 840 1 1046 1039
M  V30 841 1 1047 1046
M  V30 842 1 1048 1047
M  V30 843 2 1049 1048
M  V30 844 1 1047 1050 CFG=1
M  V30 845 1 1051 1050
M  V30 846 1 1052 1051
M  V30 847 1 1053 1051
M  V30 848 1 1054 1048
M  V30 849 1 1055 1054 CFG=3
M  V30 850 1 1056 1055
M  V30 851 2 1057 1056
M  V30 852 1 1058 1055
M  V30 853 1 1058 1059 CFG=1
M  V30 854 1 1060 1058
M  V30 855 1 1061 1056
M  V30 856 1 1062 1061 CFG=3
M  V30 857 1 1063 1062
M  V30 858 2 1064 1063
M  V30 859 1 1065 1062
M  V30 860 1 1065 1066 CFG=1
M  V30 861 1 1067 1065
M  V30 862 1 1068 1063
M  V30 863 1 1069 1068
M  V30 864 1 1070 1069
M  V30 865 2 1071 1070
M  V30 866 1 1069 1072 CFG=1
M  V30 867 1 1073 1072
M  V30 868 1 1074 1073
M  V30 869 1 1075 1074
M  V30 870 1 1076 1075
M  V30 871 1 1077 1076
M  V30 872 2 1078 1076
M  V30 873 1 1079 1070
M  V30 874 1 1080 1079
M  V30 875 1 1081 1080
M  V30 876 2 1082 1081
M  V30 877 1 1080 1083 CFG=1
M  V30 878 1 1084 1083
M  V30 879 1 1085 1084
M  V30 880 1 1086 1085
M  V30 881 1 1087 1086
M  V30 882 1 1088 1081
M  V30 883 1 1089 1088
M  V30 884 1 1090 1089
M  V30 885 2 1091 1090
M  V30 886 1 1089 1092 CFG=3
M  V30 887 1 1093 1092
M  V30 888 2 1094 1093
M  V30 889 1 1095 1093
M  V30 890 1 1096 1090
M  V30 891 1 1097 1096
M  V30 892 1 1098 1097
M  V30 893 2 1099 1098
M  V30 894 1 1097 1100 CFG=3
M  V30 895 1 1101 1100
M  V30 896 2 1102 1101
M  V30 897 1 1103 1101
M  V30 898 1 1104 1098
M  V30 899 2 1106 1105
M  V30 900 1 1108 1107
M  V30 901 1 1109 1108
M  V30 902 1 1110 1109
M  V30 903 2 1111 1109
M  V30 904 1 1112 1105
M  V30 905 2 1114 1113
M  V30 906 1 1116 1115
M  V30 907 1 1117 1116
M  V30 908 2 1118 1117
M  V30 909 1 1119 1117
M  V30 910 1 1120 1113
M  V30 911 2 1122 1121
M  V30 912 1 1124 1123
M  V30 913 1 1125 1124
M  V30 914 2 1126 1125
M  V30 915 1 1127 1125
M  V30 916 1 1128 1121
M  V30 917 2 1130 1129
M  V30 918 1 1132 1131
M  V30 919 1 1133 1131
M  V30 920 1 1134 1129
M  V30 921 2 1136 1135
M  V30 922 1 1138 1137
M  V30 923 1 1139 1137
M  V30 924 1 1140 1135
M  V30 925 2 1142 1141
M  V30 926 1 1144 1143
M  V30 927 1 1145 1144
M  V30 928 1 1146 1145
M  V30 929 1 1147 1146
M  V30 930 1 1148 1147
M  V30 931 2 1149 1147
M  V30 932 1 1150 1141
M  V30 933 2 1152 1151
M  V30 934 1 1154 1153
M  V30 935 1 1155 1154
M  V30 936 1 1156 1155
M  V30 937 1 1157 1156
M  V30 938 1 1158 1151
M  V30 939 2 1160 1159
M  V30 940 1 1162 1161
M  V30 941 1 1163 1162
M  V30 942 1 1164 1163
M  V30 943 1 1165 1164
M  V30 944 1 1166 1165
M  V30 945 2 1167 1165
M  V30 946 1 1168 1159
M  V30 947 2 1170 1169
M  V30 948 1 1172 1171
M  V30 949 1 1173 1172
M  V30 950 1 1174 1172
M  V30 951 1 1175 1169
M  V30 952 2 1177 1176
M  V30 953 1 1179 1178
M  V30 954 1 1180 1178
M  V30 955 1 1181 1176
M  V30 956 2 1183 1182
M  V30 957 1 1185 1184
M  V30 958 1 1186 1185
M  V30 959 2 1187 1186
M  V30 960 1 1188 1186
M  V30 961 1 1189 1182
M  V30 962 2 1191 1190
M  V30 963 1 1193 1192
M  V30 964 2 1194 1193
M  V30 965 1 1195 1193
M  V30 966 1 1196 1194
M  V30 967 2 1197 1195
M  V30 968 1 1198 1197
M  V30 969 2 1198 1196
M  V30 970 1 1199 1198
M  V30 971 1 1200 1190
M  V30 972 1 1202 1201
M  V30 973 1 1204 1203
M  V30 974 1 1205 1204
M  V30 975 1 1206 1204
M  V30 976 1 1207 1206
M  V30 977 1 1208 1207
M  V30 978 1 1208 1205
M  V30 979 1 1209 1201
M  V30 980 2 1211 1210
M  V30 981 1 1213 1212
M  V30 982 1 1214 1213
M  V30 983 1 1215 1214
M  V30 984 2 1216 1214
M  V30 985 1 1217 1210
M  V30 986 2 1219 1218
M  V30 987 1 1221 1220
M  V30 988 1 1222 1221
M  V30 989 1 1223 1222
M  V30 990 1 1224 1218
M  V30 991 2 1226 1225
M  V30 992 1 1228 1227
M  V30 993 1 1229 1227
M  V30 994 1 1230 1225
M  V30 995 2 1232 1231
M  V30 996 1 1234 1231
M  V30 997 2 1236 1235
M  V30 998 1 1238 1237
M  V30 999 1 1239 1238
M  V30 1000 1 1239 1234
M  V30 1001 1 1240 1235
M  V30 1002 2 1242 1241
M  V30 1003 1 1244 1243
M  V30 1004 1 1245 1244
M  V30 1005 1 1246 1244
M  V30 1006 1 1247 1241
M  V30 1007 2 1249 1248
M  V30 1008 1 1251 1250
M  V30 1009 1 1252 1250
M  V30 1010 1 1253 1251
M  V30 1011 1 1254 1248
M  V30 1012 2 1256 1255
M  V30 1013 1 1257 1255
M  V30 1014 2 1259 1258
M  V30 1015 1 1261 1260
M  V30 1016 2 1262 1261
M  V30 1017 1 1263 1261
M  V30 1018 1 1264 1262
M  V30 1019 2 1265 1263
M  V30 1020 2 1266 1264
M  V30 1021 1 1266 1265
M  V30 1022 1 1267 1266
M  V30 1023 1 1268 1258
M  V30 1024 2 1270 1269
M  V30 1025 1 1272 1271
M  V30 1026 2 1273 1272
M  V30 1027 1 1274 1272
M  V30 1028 1 1275 1273
M  V30 1029 2 1276 1274
M  V30 1030 1 1277 1276
M  V30 1031 2 1277 1275
M  V30 1032 1 1278 1277
M  V30 1033 1 1279 1269
M  V30 1034 2 1281 1280
M  V30 1035 1 1283 1282
M  V30 1036 1 1284 1280
M  V30 1037 2 1286 1285
M  V30 1038 1 1288 1287
M  V30 1039 1 1289 1288
M  V30 1040 1 1290 1289
M  V30 1041 1 1291 1290
M  V30 1042 1 1292 1285
M  V30 1043 2 1294 1293
M  V30 1044 1 1296 1295
M  V30 1045 1 1297 1296
M  V30 1046 2 1298 1297
M  V30 1047 1 1299 1297
M  V30 1048 1 1300 1293
M  V30 1049 2 1302 1301
M  V30 1050 1 1304 1301
M  V30 1051 2 1306 1305
M  V30 1052 1 1308 1307
M  V30 1053 1 1309 1308
M  V30 1054 2 1310 1309
M  V30 1055 1 1311 1309
M  V30 1056 1 1312 1305
M  V30 1057 2 1314 1313
M  V30 1058 1 1316 1313
M  V30 1059 2 1318 1317
M  V30 1060 1 1319 1317
M  V30 1061 2 1321 1320
M  V30 1062 1 1323 1322
M  V30 1063 1 1324 1323
M  V30 1064 2 1325 1323
M  V30 1065 1 1326 1320
M  V30 1066 2 1328 1327
M  V30 1067 1 1330 1329
M  V30 1068 1 1331 1329
M  V30 1069 1 1332 1327
M  V30 1070 2 1334 1333
M  V30 1071 1 1336 1335
M  V30 1072 1 1337 1336
M  V30 1073 1 1338 1337
M  V30 1074 1 1339 1338
M  V30 1075 1 1340 1333
M  V30 1076 2 1342 1341
M  V30 1077 1 1344 1343
M  V30 1078 2 1345 1344
M  V30 1079 1 1346 1344
M  V30 1080 1 1347 1345
M  V30 1081 2 1348 1346
M  V30 1082 1 1349 1348
M  V30 1083 2 1349 1347
M  V30 1084 1 1350 1349
M  V30 1085 1 1351 1341
M  V30 1086 2 1353 1352
M  V30 1087 1 1355 1352
M  V30 1088 2 1357 1356
M  V30 1089 1 1359 1358
M  V30 1090 1 1360 1359
M  V30 1091 1 1361 1360
M  V30 1092 1 1362 1361
M  V30 1093 1 1363 1356
M  V30 1094 2 1365 1364
M  V30 1095 1 1367 1366
M  V30 1096 1 1368 1366
M  V30 1097 1 1369 1364
M  V30 1098 2 1371 1370
M  V30 1099 1 1373 1372
M  V30 1100 2 1374 1373
M  V30 1101 1 1375 1373
M  V30 1102 1 1376 1370
M  V30 1103 2 1378 1377
M  V30 1104 1 1379 1377
M  V30 1105 2 1381 1380
M  V30 1106 1 1383 1382
M  V30 1107 1 1384 1382
M  V30 1108 1 1385 1380
M  V30 1109 2 1387 1386
M  V30 1110 1 1389 1388
M  V30 1111 1 1390 1389
M  V30 1112 1 1391 1390
M  V30 1113 1 1392 1391
M  V30 1114 1 1393 1386
M  V30 1115 1 1394 1393
M  V30 1116 1 1394 1395 CFG=1
M  V30 1117 2 1396 1395
M  V30 1118 1 1397 1394
M  V30 1119 1 1398 1397
M  V30 1120 1 1399 1398
M  V30 1121 1 1399 1393
M  V30 1122 1 1400 1395
M  V30 1123 2 1402 1401
M  V30 1124 1 1404 1403
M  V30 1125 1 1405 1403
M  V30 1126 1 1406 1401
M  V30 1127 2 1408 1407
M  V30 1128 1 1410 1407
M  V30 1129 2 1412 1411
M  V30 1130 1 1414 1413
M  V30 1131 1 1415 1414
M  V30 1132 2 1416 1415
M  V30 1133 1 1417 1415
M  V30 1134 1 1418 1411
M  V30 1135 2 1420 1419
M  V30 1136 1 1422 1421
M  V30 1137 1 1423 1421
M  V30 1138 1 1424 1419
M  V30 1139 2 1426 1425
M  V30 1140 1 1428 1427
M  V30 1141 1 1429 1428
M  V30 1142 1 1430 1429
M  V30 1143 1 1431 1430
M  V30 1144 1 1432 1431
M  V30 1145 2 1433 1431
M  V30 1146 1 1434 1425
M  V30 1147 2 1436 1435
M  V30 1148 1 1438 1435
M  V30 1149 2 1440 1439
M  V30 1150 1 1442 1441
M  V30 1151 2 1443 1442
M  V30 1152 1 1444 1442
M  V30 1153 1 1445 1439
M  V30 1154 2 1447 1446
M  V30 1155 1 1449 1448
M  V30 1156 1 1450 1449
M  V30 1157 1 1451 1449
M  V30 1158 1 1452 1446
M  V30 1159 2 1454 1453
M  V30 1160 1 1456 1455
M  V30 1161 1 1457 1456
M  V30 1162 2 1458 1457
M  V30 1163 1 1459 1457
M  V30 1164 1 1460 1453
M  V30 1165 2 1462 1461
M  V30 1166 1 1464 1463
M  V30 1167 1 1465 1464
M  V30 1168 1 1466 1465
M  V30 1169 1 1467 1466
M  V30 1170 1 1468 1461
M  V30 1171 2 1470 1469
M  V30 1172 1 1472 1471
M  V30 1173 1 1473 1471
M  V30 1174 1 1474 1472
M  V30 1175 1 1475 1469
M  V30 1176 2 1477 1476
M  V30 1177 1 1479 1478
M  V30 1178 1 1480 1479
M  V30 1179 1 1481 1479
M  V30 1180 1 1482 1476
M  V30 1181 2 1484 1483
M  V30 1182 1 1485 1483
M  V30 END BOND
M  V30 END CTAB
M  END
$$$$
