
     RDKit          3D

 35 36  0  0  0  0  0  0  0  0999 V2000
   38.8630   33.1740   48.8020 C   0  0  0  0  0  0  0  0  0  0  0  0
   37.9480   32.5690   49.5630 C   0  0  0  0  0  0  0  0  0  0  0  0
   38.3250   31.2000   50.0880 C   0  0  0  0  0  0  0  0  0  0  0  0
   36.9330   30.2560   50.6080 S   0  0  0  0  0  0  0  0  0  0  0  0
   35.9100   29.7590   49.2480 C   0  0  0  0  0  0  0  0  0  0  0  0
   35.1970   28.6120   49.6230 C   0  0  0  0  0  0  0  0  0  0  0  0
   34.3040   27.9970   48.7440 C   0  0  0  0  0  0  0  0  0  0  0  0
   34.1280   28.5370   47.4800 C   0  0  0  0  0  0  0  0  0  0  0  0
   34.8250   29.6640   47.1030 C   0  0  0  0  0  0  0  0  0  0  0  0
   35.6900   30.2450   47.9800 C   0  0  0  0  0  0  0  0  0  0  0  0
   39.1260   32.1530   47.9110 O   0  0  0  0  0  0  0  0  0  0  0  0
   39.0130   32.4020   46.5750 C   0  0  0  0  0  0  0  0  0  0  0  0
   40.1950   32.7810   46.0070 C   0  0  0  0  0  0  0  0  0  0  0  0
   40.2460   33.0760   44.6270 C   0  0  0  0  0  0  0  0  0  0  0  0
   39.0590   32.9550   43.9340 N   0  0  0  0  0  0  0  0  0  0  0  0
   37.8940   32.5740   44.5300 C   0  0  0  0  0  0  0  0  0  0  0  0
   37.9020   32.3090   45.8340 N   0  0  0  0  0  0  0  0  0  0  0  0
   36.9460   32.7500   42.3480 C   0  0  0  0  0  0  0  0  0  0  0  0
   38.0540   33.0570   41.8010 O   0  0  0  0  0  0  0  0  0  0  0  0
   36.7180   32.4750   43.7420 N   0  0  0  0  0  0  0  0  0  0  0  0
   38.4558   34.0635   48.2990 H   0  0  0  0  0  0  0  0  0  0  0  0
   39.7390   33.5631   49.3416 H   0  0  0  0  0  0  0  0  0  0  0  0
   37.7466   33.2180   50.4280 H   0  0  0  0  0  0  0  0  0  0  0  0
   37.0773   32.4081   48.9103 H   0  0  0  0  0  0  0  0  0  0  0  0
   38.8439   30.6490   49.2897 H   0  0  0  0  0  0  0  0  0  0  0  0
   38.9680   31.3504   50.9677 H   0  0  0  0  0  0  0  0  0  0  0  0
   35.3438   28.1890   50.6278 H   0  0  0  0  0  0  0  0  0  0  0  0
   33.7488   27.0980   49.0498 H   0  0  0  0  0  0  0  0  0  0  0  0
   33.4289   28.0639   46.7747 H   0  0  0  0  0  0  0  0  0  0  0  0
   34.6837   30.0920   46.0996 H   0  0  0  0  0  0  0  0  0  0  0  0
   36.2376   31.1437   47.6599 H   0  0  0  0  0  0  0  0  0  0  0  0
   41.1041   32.8563   46.6218 H   0  0  0  0  0  0  0  0  0  0  0  0
   41.1789   33.3847   44.1326 H   0  0  0  0  0  0  0  0  0  0  0  0
   36.0705   32.6885   41.6849 H   0  0  0  0  0  0  0  0  0  0  0  0
   35.7950   32.2311   44.1285 H   0  0  0  0  0  0  0  0  0  0  0  0
  1  2  1  0
  2  3  1  0
  3  4  1  0
  5  6  2  0
  5  4  1  0
  7  6  1  0
  8  7  2  0
  9  8  1  0
  9 10  2  0
 10  5  1  0
 11  1  1  0
 12 11  1  0
 13 12  2  0
 14 13  1  0
 15 16  1  0
 15 14  2  0
 16 17  2  0
 17 12  1  0
 18 20  1  0
 19 18  2  0
 20 16  1  0
  1 21  1  0
  1 22  1  0
  2 23  1  0
  2 24  1  0
  3 25  1  0
  3 26  1  0
  6 27  1  0
  7 28  1  0
  8 29  1  0
  9 30  1  0
 10 31  1  0
 13 32  1  0
 14 33  1  0
 18 34  1  0
 20 35  1  0
M  ISO  8  21   8  22   8  23   8  24   8  25   8  26   8  27  14  28  14
M  ISO  6  29  14  30  14  31  14  32  14  33  14  34   6
M  END
>  <minimizedAffinity>  (1) 
-5.96320724

>  <minimizedRMSD>  (1) 
2.4204843

$$$$
