
     RDKit          3D

 38 41  0  0  1  0  0  0  0  0999 V2000
   36.1740   30.1420   46.5570 C   0  0  0  0  0  0  0  0  0  0  0  0
   37.0370   30.7710   47.4480 C   0  0  0  0  0  0  0  0  0  0  0  0
   37.9850   31.7080   47.0050 C   0  0  0  0  0  0  0  0  0  0  0  0
   37.9990   31.9560   45.6400 C   0  0  0  0  0  0  0  0  0  0  0  0
   38.8230   32.8240   44.9630 N   0  0  0  0  0  0  0  0  0  0  0  0
   38.4780   32.7360   43.6700 C   0  0  0  0  0  0  0  0  0  0  0  0
   37.4960   31.8670   43.5260 N   0  0  0  0  0  0  0  0  0  0  0  0
   37.1670   31.3570   44.7250 C   0  0  0  0  0  0  0  0  0  0  0  0
   36.2340   30.4290   45.2040 C   0  0  0  0  0  0  0  0  0  0  0  0
   37.5750   30.4180   51.1520 C   0  0  0  0  0  0  0  0  0  0  0  0
   37.8190   30.8210   49.8430 C   0  0  0  0  0  0  0  0  0  0  0  0
   36.9440   30.4460   48.8590 C   0  0  0  0  0  0  0  0  0  0  0  0
   35.8610   29.6790   49.2390 N   0  0  0  0  0  0  0  0  0  0  0  0
   35.6320   29.2920   50.5070 C   0  0  0  0  0  0  0  0  0  0  0  0
   36.4770   29.6570   51.4460 N   0  0  0  0  0  0  0  0  0  0  0  0
   39.1090   33.4880   42.6770 O   0  0  0  0  0  0  0  0  0  0  0  0
   38.6610   32.1080   40.8850 N   0  0  0  0  0  0  0  0  0  0  0  0
   38.4930   33.4620   41.3990 C   0  0  1  0  0  0  0  0  0  0  0  0
   37.0800   33.7960   41.4910 C   0  0  0  0  0  0  0  0  0  0  0  0
   36.5250   33.7800   40.2000 O   0  0  0  0  0  0  0  0  0  0  0  0
   36.7120   32.6220   39.5010 C   0  0  0  0  0  0  0  0  0  0  0  0
   38.1530   32.1610   39.5360 C   0  0  1  0  0  0  0  0  0  0  0  0
   39.1570   33.3820   38.6230 S   0  0  0  0  0  0  0  0  0  0  0  0
   35.4397   29.4125   46.9294 H   0  0  0  0  0  0  0  0  0  0  0  0
   38.6738   32.2139   47.6975 H   0  0  0  0  0  0  0  0  0  0  0  0
   39.5577   33.4218   45.3677 H   0  0  0  0  0  0  0  0  0  0  0  0
   35.5484   29.9278   44.5048 H   0  0  0  0  0  0  0  0  0  0  0  0
   38.2679   30.7125   51.9539 H   0  0  0  0  0  0  0  0  0  0  0  0
   38.7016   31.4317   49.6022 H   0  0  0  0  0  0  0  0  0  0  0  0
   34.7520   28.6801   50.7542 H   0  0  0  0  0  0  0  0  0  0  0  0
   39.6554   31.8394   40.8881 H   0  0  0  0  0  0  0  0  0  0  0  0
   38.9536   34.2052   40.7316 H   0  0  0  0  0  0  0  0  0  0  0  0
   36.5660   33.0571   42.1234 H   0  0  0  0  0  0  0  0  0  0  0  0
   36.9606   34.7947   41.9364 H   0  0  0  0  0  0  0  0  0  0  0  0
   36.4184   32.7886   38.4541 H   0  0  0  0  0  0  0  0  0  0  0  0
   36.0955   31.8408   39.9695 H   0  0  0  0  0  0  0  0  0  0  0  0
   38.2067   31.1553   39.0937 H   0  0  0  0  0  0  0  0  0  0  0  0
   39.8185   34.1864   39.5131 H   0  0  0  0  0  0  0  0  0  0  0  0
  1  2  2  0
  2 12  1  0
  3  2  1  0
  4  3  2  0
  5  4  1  0
  6  5  1  0
  7  6  2  0
  7  8  1  0
  8  9  2  0
  8  4  1  0
  9  1  1  0
 10 15  2  0
 11 10  1  0
 12 13  1  0
 12 11  2  0
 13 14  2  0
 14 15  1  0
 16  6  1  0
 17 18  1  0
 18 19  1  0
 18 16  1  0
 20 19  1  0
 21 22  1  0
 21 20  1  0
 22 17  1  0
 23 22  1  0
  1 24  1  0
  3 25  1  0
  5 26  1  0
  9 27  1  0
 10 28  1  0
 11 29  1  0
 14 30  1  0
 17 31  1  0
 18 32  1  6
 19 33  1  0
 19 34  1  0
 21 35  1  0
 21 36  1  0
 22 37  1  6
 23 38  1  0
M  ISO  8  24  14  25  14  26   9  27  14  28  14  29  14  30  14  31   5
M  ISO  7  32  13  33  13  34  13  35  13  36  13  37  13  38  11
M  END
>  <minimizedAffinity>  (1) 
-5.34263849

>  <minimizedRMSD>  (1) 
0.839506149

$$$$
