
     RDKit          3D

 27 29  0  0  0  0  0  0  0  0999 V2000
   36.9100   31.2180   49.3450 C   0  0  0  0  0  0  0  0  0  0  0  0
   37.1680   32.4540   49.9420 C   0  0  0  0  0  0  0  0  0  0  0  0
   38.1190   33.2360   49.3250 C   0  0  0  0  0  0  0  0  0  0  0  0
   38.7460   32.7810   48.1920 N   0  0  0  0  0  0  0  0  0  0  0  0
   38.4560   31.5600   47.6460 C   0  0  0  0  0  0  0  0  0  0  0  0
   37.5140   30.7600   48.2420 N   0  0  0  0  0  0  0  0  0  0  0  0
   35.8520   30.3520   49.9780 C   0  0  0  0  0  0  0  0  0  0  0  0
   35.8180   28.9190   49.8370 C   0  0  0  0  0  0  0  0  0  0  0  0
   36.4030   29.4820   51.1210 C   0  0  0  0  0  0  0  0  0  0  0  0
   39.1030   31.0550   46.4260 C   0  0  0  0  0  0  0  0  0  0  0  0
   40.0420   32.0910   45.8540 C   0  0  0  0  0  0  0  0  0  0  0  0
   40.6680   31.9190   44.5310 C   0  0  0  0  0  0  0  0  0  0  0  0
   39.5970   32.9990   44.7840 C   0  0  0  0  0  0  0  0  0  0  0  0
   36.6429   32.7832   50.8508 H   0  0  0  0  0  0  0  0  0  0  0  0
   38.3753   34.2224   49.7390 H   0  0  0  0  0  0  0  0  0  0  0  0
   35.0644   31.1007   49.8072 H   0  0  0  0  0  0  0  0  0  0  0  0
   34.8520   28.3936   49.8654 H   0  0  0  0  0  0  0  0  0  0  0  0
   36.1881   28.2191   49.0733 H   0  0  0  0  0  0  0  0  0  0  0  0
   37.4847   29.4298   51.3139 H   0  0  0  0  0  0  0  0  0  0  0  0
   36.2196   29.3694   52.1998 H   0  0  0  0  0  0  0  0  0  0  0  0
   39.6725   30.1458   46.6688 H   0  0  0  0  0  0  0  0  0  0  0  0
   38.3265   30.8300   45.6801 H   0  0  0  0  0  0  0  0  0  0  0  0
   40.4472   32.2418   46.8655 H   0  0  0  0  0  0  0  0  0  0  0  0
   40.4322   31.0377   43.9165 H   0  0  0  0  0  0  0  0  0  0  0  0
   41.6971   31.9067   44.1427 H   0  0  0  0  0  0  0  0  0  0  0  0
   39.8772   34.0625   44.8075 H   0  0  0  0  0  0  0  0  0  0  0  0
   38.6308   33.2695   44.3331 H   0  0  0  0  0  0  0  0  0  0  0  0
  1  2  2  0
  1  7  1  0
  3  2  1  0
  4  3  2  0
  5  4  1  0
  5  6  2  0
  6  1  1  0
  7  9  1  0
  8  7  1  0
  8  9  1  0
 10  5  1  0
 11 10  1  0
 12 13  1  0
 12 11  1  0
 13 11  1  0
  2 14  1  0
  3 15  1  0
  7 16  1  0
  8 17  1  0
  8 18  1  0
  9 19  1  0
  9 20  1  0
 10 21  1  0
 10 22  1  0
 11 23  1  0
 12 24  1  0
 12 25  1  0
 13 26  1  0
 13 27  1  0
M  ISO  8  14  14  15  14  16  13  17  13  18  13  19  13  20  13  21   8
M  ISO  6  22   8  23  13  24  13  25  13  26  13  27  13
M  END
>  <minimizedAffinity>  (1) 
-5.14116764

>  <minimizedRMSD>  (1) 
1.57363296

$$$$
