
     RDKit          3D

 24 25  0  0  0  0  0  0  0  0999 V2000
   37.4660   31.4260   49.3780 C   0  0  0  0  0  0  0  0  0  0  0  0
   37.8820   32.7170   49.7030 C   0  0  0  0  0  0  0  0  0  0  0  0
   38.6990   33.3310   48.7640 C   0  0  0  0  0  0  0  0  0  0  0  0
   39.0430   32.6790   47.6210 N   0  0  0  0  0  0  0  0  0  0  0  0
   38.6140   31.4180   47.3430 C   0  0  0  0  0  0  0  0  0  0  0  0
   37.8060   30.7890   48.2520 N   0  0  0  0  0  0  0  0  0  0  0  0
   36.5540   30.7250   50.3480 C   0  0  0  0  0  0  0  0  0  0  0  0
   36.5090   29.2900   50.4760 C   0  0  0  0  0  0  0  0  0  0  0  0
   37.3130   30.0610   51.4980 C   0  0  0  0  0  0  0  0  0  0  0  0
   38.9640   30.6990   46.1230 C   0  0  0  0  0  0  0  0  0  0  0  0
   41.0630   31.5610   45.0210 C   0  0  0  0  0  0  0  0  0  0  0  0
   40.4440   32.2740   44.1730 O   0  0  0  0  0  0  0  0  0  0  0  0
   40.4220   30.7690   45.9990 N   0  0  0  0  0  0  0  0  0  0  0  0
   37.5835   33.2137   50.6380 H   0  0  0  0  0  0  0  0  0  0  0  0
   39.0703   34.3505   48.9452 H   0  0  0  0  0  0  0  0  0  0  0  0
   35.7438   31.4541   50.1997 H   0  0  0  0  0  0  0  0  0  0  0  0
   35.5716   28.8006   50.7789 H   0  0  0  0  0  0  0  0  0  0  0  0
   36.7366   28.4551   49.7970 H   0  0  0  0  0  0  0  0  0  0  0  0
   38.4122   30.0191   51.4921 H   0  0  0  0  0  0  0  0  0  0  0  0
   37.3350   30.1482   52.5943 H   0  0  0  0  0  0  0  0  0  0  0  0
   38.6391   29.6505   46.1940 H   0  0  0  0  0  0  0  0  0  0  0  0
   38.4698   31.1422   45.2459 H   0  0  0  0  0  0  0  0  0  0  0  0
   42.1626   31.5598   44.9926 H   0  0  0  0  0  0  0  0  0  0  0  0
   41.0016   30.2198   46.6497 H   0  0  0  0  0  0  0  0  0  0  0  0
  1  2  2  0
  1  7  1  0
  3  2  1  0
  4  3  2  0
  5  4  1  0
  5  6  2  0
  6  1  1  0
  7  8  1  0
  7  9  1  0
  8  9  1  0
 10  5  1  0
 11 13  1  0
 12 11  2  0
 13 10  1  0
  2 14  1  0
  3 15  1  0
  7 16  1  0
  8 17  1  0
  8 18  1  0
  9 19  1  0
  9 20  1  0
 10 21  1  0
 10 22  1  0
 11 23  1  0
 13 24  1  0
M  ISO  8  14  14  15  14  16  13  17  13  18  13  19  13  20  13  21   8
M  ISO  2  22   8  23   6
M  END
>  <minimizedAffinity>  (1) 
-5.17063951

>  <minimizedRMSD>  (1) 
1.01404262

$$$$
