
     RDKit          3D

 20 21  0  0  0  0  0  0  0  0999 V2000
   38.0120   33.1050   49.4820 C   0  0  0  0  0  0  0  0  0  0  0  0
   38.9760   33.2100   48.4690 C   0  0  0  0  0  0  0  0  0  0  0  0
   38.9500   32.2210   47.4580 C   0  0  0  0  0  0  0  0  0  0  0  0
   38.0130   31.2440   47.5260 N   0  0  0  0  0  0  0  0  0  0  0  0
   37.1050   31.1840   48.5210 C   0  0  0  0  0  0  0  0  0  0  0  0
   37.1090   32.1190   49.4990 N   0  0  0  0  0  0  0  0  0  0  0  0
   36.0920   30.1340   48.6010 C   0  0  0  0  0  0  0  0  0  0  0  0
   35.2820   29.9530   47.5050 C   0  0  0  0  0  0  0  0  0  0  0  0
   34.2980   28.9790   47.5040 C   0  0  0  0  0  0  0  0  0  0  0  0
   34.1500   28.1920   48.6280 C   0  0  0  0  0  0  0  0  0  0  0  0
   34.9560   28.3570   49.7440 C   0  0  0  0  0  0  0  0  0  0  0  0
   35.9420   29.3380   49.7370 C   0  0  0  0  0  0  0  0  0  0  0  0
   37.9983   33.8556   50.2860 H   0  0  0  0  0  0  0  0  0  0  0  0
   39.7171   34.0228   48.4610 H   0  0  0  0  0  0  0  0  0  0  0  0
   39.6764   32.2444   46.6323 H   0  0  0  0  0  0  0  0  0  0  0  0
   35.4173   30.5897   46.6182 H   0  0  0  0  0  0  0  0  0  0  0  0
   33.6491   28.8357   46.6274 H   0  0  0  0  0  0  0  0  0  0  0  0
   33.3726   27.4138   48.6387 H   0  0  0  0  0  0  0  0  0  0  0  0
   34.8168   27.7172   50.6279 H   0  0  0  0  0  0  0  0  0  0  0  0
   36.5924   29.4838   50.6121 H   0  0  0  0  0  0  0  0  0  0  0  0
  1  6  2  0
  2  1  1  0
  3  4  1  0
  3  2  2  0
  4  5  2  0
  5  7  1  0
  5  6  1  0
  7 12  1  0
  8  7  2  0
  9  8  1  0
  9 10  2  0
 10 11  1  0
 12 11  2  0
  1 13  1  0
  2 14  1  0
  3 15  1  0
  8 16  1  0
  9 17  1  0
 10 18  1  0
 11 19  1  0
 12 20  1  0
M  ISO  8  13  14  14  14  15  14  16  14  17  14  18  14  19  14  20  14
M  END
>  <minimizedAffinity>  (1) 
-4.97639799

>  <minimizedRMSD>  (1) 
2.96565628

$$$$
