
     RDKit          3D

 37 37  0  0  0  0  0  0  0  0999 V2000
   38.6602   32.3366   46.4419 C   0  0  0  0  0  0  0  0  0  0  0  0
   39.9419   32.8246   46.2335 C   0  0  0  0  0  0  0  0  0  0  0  0
   40.3314   33.2285   44.9399 C   0  0  0  0  0  0  0  0  0  0  0  0
   39.3711   33.1012   43.9487 N   0  0  0  0  0  0  0  0  0  0  0  0
   38.1226   32.6175   44.1915 C   0  0  0  0  0  0  0  0  0  0  0  0
   37.7820   32.2428   45.4264 N   0  0  0  0  0  0  0  0  0  0  0  0
   37.7754   32.9170   41.8381 C   0  0  0  0  0  0  0  0  0  0  0  0
   38.9651   33.3112   41.6362 O   0  0  0  0  0  0  0  0  0  0  0  0
   37.2342   32.5379   43.0928 N   0  0  0  0  0  0  0  0  0  0  0  0
   38.4374   31.9894   47.7414 O   0  0  0  0  0  0  0  0  0  0  0  0
   37.2811   31.3026   48.0378 C   0  0  0  0  0  0  0  0  0  0  0  0
   37.7734   30.3814   48.8788 C   0  0  0  0  0  0  0  0  0  0  0  0
   38.0342   30.8891   50.2793 C   0  0  0  0  0  0  0  0  0  0  0  0
   37.3610   29.8660   51.5487 S   0  0  0  0  0  0  0  0  0  0  0  0
   40.7163   32.9419   46.9632 H   0  0  0  0  0  0  0  0  0  0  0  0
   41.3007   33.6081   44.7324 H   0  0  0  0  0  0  0  0  0  0  0  0
   37.2088   32.9042   40.9173 H   0  0  0  0  0  0  0  0  0  0  0  0
   36.2404   32.2231   43.1763 H   0  0  0  0  0  0  0  0  0  0  0  0
   36.7159   30.9509   47.1393 H   0  0  0  0  0  0  0  0  0  0  0  0
   36.5791   32.0510   48.5086 H   0  0  0  0  0  0  0  0  0  0  0  0
   37.0331   29.5303   49.0216 H   0  0  0  0  0  0  0  0  0  0  0  0
   38.6866   29.7992   48.6099 H   0  0  0  0  0  0  0  0  0  0  0  0
   39.1221   31.0236   50.4538 H   0  0  0  0  0  0  0  0  0  0  0  0
   37.6085   31.9119   50.3466 H   0  0  0  0  0  0  0  0  0  0  0  0
   35.5737   29.8028   51.5918 C   0  0  0  0  0  0  0  0  0  0  0  0
   35.0472   28.8528   50.6646 N   0  0  0  0  0  4  0  0  0  0  0  0
   34.4348   27.7646   51.4307 C   0  0  0  0  0  0  0  0  0  0  0  0
   34.1919   28.1326   52.4475 H   0  0  0  0  0  0  0  0  0  0  0  0
   35.9733   28.3141   49.7217 C   0  0  0  0  0  0  0  0  0  0  0  0
   36.9642   28.7795   49.6992 H   0  0  0  0  0  0  0  0  0  0  0  0
   35.2130   30.8390   51.3275 H   0  0  0  0  0  0  0  0  0  0  0  0
   35.1731   29.6568   52.6353 H   0  0  0  0  0  0  0  0  0  0  0  0
   34.2473   29.3102   50.1345 H   0  0  0  0  0  0  0  0  0  0  0  0
   33.4741   27.4519   50.9729 H   0  0  0  0  0  0  0  0  0  0  0  0
   35.0996   26.8981   51.5397 H   0  0  0  0  0  0  0  0  0  0  0  0
   36.1135   27.2202   49.8757 H   0  0  0  0  0  0  0  0  0  0  0  0
   35.5663   28.4101   48.6719 H   0  0  0  0  0  0  0  0  0  0  0  0
  1 10  1  0
  2  1  2  0
  3  2  1  0
  4  5  1  0
  4  3  2  0
  5  6  2  0
  6  1  1  0
  7  9  1  0
  8  7  2  0
  9  5  1  0
 10 11  1  0
 11 12  1  0
 12 13  1  0
 13 14  1  0
  2 15  1  0
  3 16  1  0
  7 17  1  0
  9 18  1  0
 11 19  1  0
 11 20  1  0
 12 21  1  0
 12 22  1  0
 13 23  1  0
 13 24  1  0
 25 26  1  0
 26 27  1  0
 27 28  1  0
 26 29  1  0
 29 30  1  0
 25 31  1  0
 25 32  1  0
 26 33  1  0
 27 34  1  0
 27 35  1  0
 29 36  1  0
 29 37  1  0
 14 25  1  0
M  CHG  1  26   1
M  END
>  <DihAtoms>  (1) 
12,13,24,25

>  <DihDeg>  (1) 
-66.71573291065974

$$$$
