
     RDKit          3D

 31 31  0  0  0  0  0  0  0  0999 V2000
   39.2290   32.0490   47.7610 O   0  0  0  0  0  0  0  0  0  0  0  0
   39.0490   32.3430   46.4420 C   0  0  0  0  0  0  0  0  0  0  0  0
   40.2140   32.7720   45.8340 C   0  0  0  0  0  0  0  0  0  0  0  0
   40.2060   33.1190   44.4700 C   0  0  0  0  0  0  0  0  0  0  0  0
   38.9850   32.9970   43.8270 N   0  0  0  0  0  0  0  0  0  0  0  0
   37.8520   32.5700   44.4580 C   0  0  0  0  0  0  0  0  0  0  0  0
   37.9130   32.2510   45.7640 N   0  0  0  0  0  0  0  0  0  0  0  0
   36.7840   32.9400   42.3660 C   0  0  0  0  0  0  0  0  0  0  0  0
   37.8280   33.3880   41.8100 O   0  0  0  0  0  0  0  0  0  0  0  0
   36.6490   32.4840   43.7130 N   0  0  0  0  0  0  0  0  0  0  0  0
   38.1860   32.2730   48.6320 C   0  0  0  0  0  0  0  0  0  0  0  0
   38.0060   31.0230   49.0770 C   0  0  0  0  0  0  0  0  0  0  0  0
   38.0760   30.8240   50.5630 C   0  0  0  0  0  0  0  0  0  0  0  0
   36.9450   29.6180   51.1850 S   0  0  0  0  0  0  0  0  0  0  0  0
   35.8970   29.0010   49.8540 C   0  0  0  0  0  0  0  0  0  0  0  0
   34.4760   29.5080   50.0920 C   0  0  0  0  0  0  0  0  0  0  0  0
   41.1454   32.8420   46.4150 H   0  0  0  0  0  0  0  0  0  0  0  0
   41.1106   33.4647   43.9483 H   0  0  0  0  0  0  0  0  0  0  0  0
   35.8788   32.8967   41.7426 H   0  0  0  0  0  0  0  0  0  0  0  0
   35.7652   32.1280   44.1042 H   0  0  0  0  0  0  0  0  0  0  0  0
   38.4671   32.9618   49.4422 H   0  0  0  0  0  0  0  0  0  0  0  0
   37.2976   32.7483   48.1906 H   0  0  0  0  0  0  0  0  0  0  0  0
   37.0132   30.6887   48.7416 H   0  0  0  0  0  0  0  0  0  0  0  0
   38.8463   30.4442   48.6661 H   0  0  0  0  0  0  0  0  0  0  0  0
   39.0968   30.5053   50.8208 H   0  0  0  0  0  0  0  0  0  0  0  0
   37.8005   31.7839   51.0242 H   0  0  0  0  0  0  0  0  0  0  0  0
   35.9048   27.9010   49.8533 H   0  0  0  0  0  0  0  0  0  0  0  0
   36.2693   29.3556   48.8816 H   0  0  0  0  0  0  0  0  0  0  0  0
   34.2871   29.5754   51.1736 H   0  0  0  0  0  0  0  0  0  0  0  0
   34.3606   30.5028   49.6369 H   0  0  0  0  0  0  0  0  0  0  0  0
   33.7570   28.8109   49.6369 H   0  0  0  0  0  0  0  0  0  0  0  0
  1 11  1  0
  2  1  1  0
  3  2  2  0
  4  3  1  0
  5  6  1  0
  5  4  2  0
  6  7  2  0
  7  2  1  0
  8 10  1  0
  9  8  2  0
 10  6  1  0
 11 12  1  0
 12 13  1  0
 13 14  1  0
 15 16  1  0
 15 14  1  0
  3 17  1  0
  4 18  1  0
  8 19  1  0
 10 20  1  0
 11 21  1  0
 11 22  1  0
 12 23  1  0
 12 24  1  0
 13 25  1  0
 13 26  1  0
 15 27  1  0
 15 28  1  0
 16 29  1  0
 16 30  1  0
 16 31  1  0
M  ISO  8  17  14  18  14  19   6  21   8  22   8  23   8  24   8  25   8
M  ISO  6  26   8  27   8  28   8  29   8  30   8  31   8
M  END
>  <minimizedAffinity>  (1) 
-4.68306589

>  <minimizedRMSD>  (1) 
1.11288619

$$$$
