
     RDKit          3D

 39 40  0  0  1  0  0  0  0  0999 V2000
   37.3140   30.6780   50.9170 C   0  0  0  0  0  0  0  0  0  0  0  0
   36.9850   29.5260   51.5390 C   0  0  0  0  0  0  0  0  0  0  0  0
   37.8520   28.3380   51.1990 C   0  0  0  0  0  0  0  0  0  0  0  0
   38.8670   27.7430   52.5110 S   0  0  0  0  0  0  0  0  0  0  0  0
   40.0930   25.5990   53.6190 N   0  0  0  0  0  0  0  0  0  0  0  0
   39.4080   26.0470   52.4040 C   0  0  2  0  0  0  0  0  0  0  0  0
   40.3000   25.7570   51.2380 C   0  0  0  0  0  0  0  0  0  0  0  0
   40.5180   24.3210   51.1610 N   0  0  0  0  0  0  0  0  0  0  0  0
   39.9350   23.5790   52.2340 C   0  0  0  0  0  0  0  0  0  0  0  0
   40.1680   24.1700   53.5960 C   0  0  0  0  0  0  0  0  0  0  0  0
   36.7650   30.4360   49.6790 O   0  0  0  0  0  0  0  0  0  0  0  0
   37.3230   31.0580   48.5880 C   0  0  0  0  0  0  0  0  0  0  0  0
   38.3890   31.8550   48.9150 C   0  0  0  0  0  0  0  0  0  0  0  0
   39.0600   32.5550   47.8940 C   0  0  0  0  0  0  0  0  0  0  0  0
   38.5840   32.3820   46.6080 N   0  0  0  0  0  0  0  0  0  0  0  0
   37.5220   31.5800   46.3270 C   0  0  0  0  0  0  0  0  0  0  0  0
   36.9020   30.9260   47.3150 N   0  0  0  0  0  0  0  0  0  0  0  0
   37.8380   32.3070   44.0720 C   0  0  0  0  0  0  0  0  0  0  0  0
   38.7830   33.1010   44.3760 O   0  0  0  0  0  0  0  0  0  0  0  0
   37.1140   31.4760   44.9670 N   0  0  0  0  0  0  0  0  0  0  0  0
   36.8569   31.5518   51.4043 H   0  0  0  0  0  0  0  0  0  0  0  0
   38.3879   30.9163   50.9131 H   0  0  0  0  0  0  0  0  0  0  0  0
   37.0507   29.6950   52.6240 H   0  0  0  0  0  0  0  0  0  0  0  0
   35.9723   29.2721   51.1925 H   0  0  0  0  0  0  0  0  0  0  0  0
   37.1929   27.5169   50.8806 H   0  0  0  0  0  0  0  0  0  0  0  0
   38.5418   28.6809   50.4137 H   0  0  0  0  0  0  0  0  0  0  0  0
   41.0427   25.9965   53.6493 H   0  0  0  0  0  0  0  0  0  0  0  0
   38.4694   25.4898   52.2680 H   0  0  0  0  0  0  0  0  0  0  0  0
   39.8233   26.1089   50.3112 H   0  0  0  0  0  0  0  0  0  0  0  0
   41.2620   26.2750   51.3652 H   0  0  0  0  0  0  0  0  0  0  0  0
   40.1143   23.9805   50.2767 H   0  0  0  0  0  0  0  0  0  0  0  0
   38.8496   23.5236   52.0641 H   0  0  0  0  0  0  0  0  0  0  0  0
   40.4201   22.5918   52.2330 H   0  0  0  0  0  0  0  0  0  0  0  0
   39.4080   23.7704   54.2835 H   0  0  0  0  0  0  0  0  0  0  0  0
   41.1895   23.8949   53.8975 H   0  0  0  0  0  0  0  0  0  0  0  0
   38.7160   31.9466   49.9613 H   0  0  0  0  0  0  0  0  0  0  0  0
   39.9197   33.2067   48.1090 H   0  0  0  0  0  0  0  0  0  0  0  0
   37.5530   32.2590   43.0106 H   0  0  0  0  0  0  0  0  0  0  0  0
   36.3566   30.8500   44.6581 H   0  0  0  0  0  0  0  0  0  0  0  0
  1  2  1  0
  3  2  1  0
  3  4  1  0
  6  4  1  0
  6  5  1  0
  7  6  1  0
  8  7  1  0
  8  9  1  0
  9 10  1  0
 10  5  1  0
 11  1  1  0
 12 13  2  0
 12 11  1  0
 14 13  1  0
 15 14  2  0
 16 15  1  0
 16 17  2  0
 17 12  1  0
 18 19  2  0
 18 20  1  0
 20 16  1  0
  1 21  1  0
  1 22  1  0
  2 23  1  0
  2 24  1  0
  3 25  1  0
  3 26  1  0
  5 27  1  0
  6 28  1  6
  7 29  1  0
  7 30  1  0
  8 31  1  0
  9 32  1  0
  9 33  1  0
 10 34  1  0
 10 35  1  0
 13 36  1  0
 14 37  1  0
 18 38  1  0
 20 39  1  0
M  ISO  8  21   8  22   8  23   8  24   8  25   8  26   8  27   5  28  13
M  ISO  8  29  13  30  13  31   5  32  13  33  13  34  13  35  13  36  14
M  ISO  2  37  14  38   6
M  END
>  <minimizedAffinity>  (1) 
-3.68083906

>  <minimizedRMSD>  (1) 
2.89418769

$$$$
