
     RDKit          3D

 22 23  0  0  0  0  0  0  0  0999 V2000
   35.4330   29.2160   48.7480 C   0  0  0  0  0  0  0  0  0  0  0  0
   35.0080   30.0130   47.6750 C   0  0  0  0  0  0  0  0  0  0  0  0
   33.8000   29.6780   47.0460 C   0  0  0  0  0  0  0  0  0  0  0  0
   33.1130   28.5880   47.5250 N   0  0  0  0  0  0  0  0  0  0  0  0
   33.5600   27.8480   48.5610 C   0  0  0  0  0  0  0  0  0  0  0  0
   34.7280   28.1650   49.1760 N   0  0  0  0  0  0  0  0  0  0  0  0
   36.6600   29.5690   49.3770 N   0  0  0  0  0  0  0  0  0  0  0  0
   37.6640   30.4810   48.8690 C   0  0  0  0  0  0  0  0  0  0  0  0
   38.2630   31.0590   50.1470 C   0  0  0  0  0  0  0  0  0  0  0  0
   37.5230   30.4000   51.3020 C   0  0  0  0  0  0  0  0  0  0  0  0
   37.1390   29.0770   50.6580 C   0  0  0  0  0  0  0  0  0  0  0  0
   35.6035   30.8740   47.3373 H   0  0  0  0  0  0  0  0  0  0  0  0
   33.4161   30.2665   46.1996 H   0  0  0  0  0  0  0  0  0  0  0  0
   32.9752   26.9837   48.9089 H   0  0  0  0  0  0  0  0  0  0  0  0
   38.4242   29.9471   48.2799 H   0  0  0  0  0  0  0  0  0  0  0  0
   37.2581   31.2457   48.1904 H   0  0  0  0  0  0  0  0  0  0  0  0
   39.3372   30.8288   50.2021 H   0  0  0  0  0  0  0  0  0  0  0  0
   38.1584   32.1536   50.1779 H   0  0  0  0  0  0  0  0  0  0  0  0
   38.1773   30.2536   52.1741 H   0  0  0  0  0  0  0  0  0  0  0  0
   36.6780   30.9814   51.6994 H   0  0  0  0  0  0  0  0  0  0  0  0
   36.3484   28.5597   51.2214 H   0  0  0  0  0  0  0  0  0  0  0  0
   37.9444   28.3298   50.6031 H   0  0  0  0  0  0  0  0  0  0  0  0
  1  6  1  0
  1  7  1  0
  2  1  2  0
  3  4  2  0
  3  2  1  0
  4  5  1  0
  5  6  2  0
  7 11  1  0
  8  7  1  0
  8  9  1  0
  9 10  1  0
 11 10  1  0
  2 12  1  0
  3 13  1  0
  5 14  1  0
  8 15  1  0
  8 16  1  0
  9 17  1  0
  9 18  1  0
 10 19  1  0
 10 20  1  0
 11 21  1  0
 11 22  1  0
M  ISO  8  12  14  13  14  14  14  15  13  16  13  17  13  18  13  19  13
M  ISO  3  20  13  21  13  22  13
M  END
>  <minimizedAffinity>  (1) 
-4.18214703

>  <minimizedRMSD>  (1) 
3.87333894

$$$$
