
     RDKit          3D

 24 25  0  0  1  0  0  0  0  0999 V2000
   36.5440   29.6570   49.1730 N   0  0  0  0  0  0  0  0  0  0  0  0
   37.7310   30.2310   48.5970 C   0  0  0  0  0  0  0  0  0  0  0  0
   38.2620   31.0870   49.7410 C   0  0  0  0  0  0  0  0  0  0  0  0
   37.3550   30.8420   50.9390 C   0  0  0  0  0  0  0  0  0  0  0  0
   36.8140   29.4680   50.5970 C   0  0  1  0  0  0  0  0  0  0  0  0
   35.3280   29.3280   48.4990 C   0  0  0  0  0  0  0  0  0  0  0  0
   34.8010   30.2790   47.6270 C   0  0  0  0  0  0  0  0  0  0  0  0
   33.6130   29.9640   46.9680 C   0  0  0  0  0  0  0  0  0  0  0  0
   33.0470   28.7280   47.2300 N   0  0  0  0  0  0  0  0  0  0  0  0
   33.5870   27.8390   48.0790 C   0  0  0  0  0  0  0  0  0  0  0  0
   34.7390   28.1450   48.7190 N   0  0  0  0  0  0  0  0  0  0  0  0
   35.5620   29.1990   51.2930 N   0  0  0  0  0  0  0  0  0  0  0  0
   38.4536   29.4517   48.3132 H   0  0  0  0  0  0  0  0  0  0  0  0
   37.5442   30.7964   47.6721 H   0  0  0  0  0  0  0  0  0  0  0  0
   39.2946   30.7953   49.9832 H   0  0  0  0  0  0  0  0  0  0  0  0
   38.2678   32.1517   49.4645 H   0  0  0  0  0  0  0  0  0  0  0  0
   37.9210   30.8327   51.8821 H   0  0  0  0  0  0  0  0  0  0  0  0
   36.5856   31.6120   51.0974 H   0  0  0  0  0  0  0  0  0  0  0  0
   37.4845   28.6371   50.8616 H   0  0  0  0  0  0  0  0  0  0  0  0
   35.3042   31.2436   47.4644 H   0  0  0  0  0  0  0  0  0  0  0  0
   33.1438   30.6702   46.2672 H   0  0  0  0  0  0  0  0  0  0  0  0
   33.0967   26.8698   48.2528 H   0  0  0  0  0  0  0  0  0  0  0  0
   35.7205   29.2330   52.3102 H   0  0  0  0  0  0  0  0  0  0  0  0
   34.8637   29.9092   51.0303 H   0  0  0  0  0  0  0  0  0  0  0  0
  1  5  1  0
  2  1  1  0
  2  3  1  0
  3  4  1  0
  5  4  1  0
  5 12  1  0
  6 11  1  0
  6  1  1  0
  7  6  2  0
  8  9  2  0
  8  7  1  0
  9 10  1  0
 10 11  2  0
  2 13  1  0
  2 14  1  0
  3 15  1  0
  3 16  1  0
  4 17  1  0
  4 18  1  0
  5 19  1  6
  7 20  1  0
  8 21  1  0
 10 22  1  0
 12 23  1  0
 12 24  1  0
M  ISO  8  13  13  14  13  15  13  16  13  17  13  18  13  19  13  20  14
M  ISO  4  21  14  22  14  23   5  24   5
M  END
>  <minimizedAffinity>  (1) 
-4.22325945

>  <minimizedRMSD>  (1) 
0.464957386

$$$$
