
     RDKit          3D

 27 28  0  0  1  0  0  0  0  0999 V2000
   36.7760   30.8130   48.4320 N   0  0  0  0  0  0  0  0  0  0  0  0
   38.0260   31.0210   47.7450 C   0  0  0  0  0  0  0  0  0  0  0  0
   38.5470   32.3200   48.3680 C   0  0  0  0  0  0  0  0  0  0  0  0
   37.5130   32.7100   49.3940 C   0  0  0  0  0  0  0  0  0  0  0  0
   36.9050   31.3850   49.7610 C   0  0  2  0  0  0  0  0  0  0  0  0
   35.6210   30.1720   47.9260 C   0  0  0  0  0  0  0  0  0  0  0  0
   35.4450   30.1720   46.5400 C   0  0  0  0  0  0  0  0  0  0  0  0
   34.3250   29.5560   45.9710 C   0  0  0  0  0  0  0  0  0  0  0  0
   33.4470   28.9740   46.8450 N   0  0  0  0  0  0  0  0  0  0  0  0
   33.6470   28.9930   48.1770 C   0  0  0  0  0  0  0  0  0  0  0  0
   34.7370   29.5920   48.7240 N   0  0  0  0  0  0  0  0  0  0  0  0
   32.7010   28.3710   49.0400 N   0  0  0  0  0  0  0  0  0  0  0  0
   37.7640   30.5840   50.6870 C   0  0  0  0  0  0  0  0  0  0  0  0
   38.0010   29.3130   50.1380 F   0  0  0  0  0  0  0  0  0  0  0  0
   37.2280   30.4790   51.9260 F   0  0  0  0  0  0  0  0  0  0  0  0
   39.0070   31.1890   50.8510 F   0  0  0  0  0  0  0  0  0  0  0  0
   37.8682   31.1367   46.6626 H   0  0  0  0  0  0  0  0  0  0  0  0
   38.7249   30.1781   47.8500 H   0  0  0  0  0  0  0  0  0  0  0  0
   39.5226   32.1533   48.8479 H   0  0  0  0  0  0  0  0  0  0  0  0
   38.6945   33.1070   47.6138 H   0  0  0  0  0  0  0  0  0  0  0  0
   37.9800   33.1889   50.2673 H   0  0  0  0  0  0  0  0  0  0  0  0
   36.7802   33.4416   49.0227 H   0  0  0  0  0  0  0  0  0  0  0  0
   35.9655   31.4356   50.3309 H   0  0  0  0  0  0  0  0  0  0  0  0
   36.1902   30.6584   45.8933 H   0  0  0  0  0  0  0  0  0  0  0  0
   34.1596   29.5403   44.8836 H   0  0  0  0  0  0  0  0  0  0  0  0
   32.8485   28.3823   50.0593 H   0  0  0  0  0  0  0  0  0  0  0  0
   31.8690   27.9097   48.6451 H   0  0  0  0  0  0  0  0  0  0  0  0
  1  5  1  0
  2  3  1  0
  2  1  1  0
  3  4  1  0
  4  5  1  0
  5 13  1  0
  6  1  1  0
  6 11  1  0
  7  6  2  0
  8  7  1  0
  8  9  2  0
  9 10  1  0
 10 11  2  0
 10 12  1  0
 13 16  1  0
 13 15  1  0
 14 13  1  0
  2 17  1  0
  2 18  1  0
  3 19  1  0
  3 20  1  0
  4 21  1  0
  4 22  1  0
  5 23  1  1
  7 24  1  0
  8 25  1  0
 12 26  1  0
 12 27  1  0
M  ISO  8  17  13  18  13  19  13  20  13  21  13  22  13  23  13  24  14
M  ISO  1  25  14
M  END
>  <minimizedAffinity>  (1) 
-5.66765785

>  <minimizedRMSD>  (1) 
0.845982611

$$$$
