
     RDKit          3D

 26 27  0  0  1  0  0  0  0  0999 V2000
   37.8070   31.8320   49.6000 C   0  0  1  0  0  0  0  0  0  0  0  0
   37.7450   30.5670   48.7920 C   0  0  2  0  0  0  0  0  0  0  0  0
   38.2580   30.8210   47.5370 O   0  0  0  0  0  0  0  0  0  0  0  0
   39.0800   31.9410   47.6570 C   0  0  0  0  0  0  0  0  0  0  0  0
   38.2470   32.8270   48.5650 C   0  0  2  0  0  0  0  0  0  0  0  0
   34.7270   28.3510   49.3250 C   0  0  0  0  0  0  0  0  0  0  0  0
   36.0290   28.8600   49.4850 C   0  0  0  0  0  0  0  0  0  0  0  0
   36.3950   29.9690   48.7000 C   0  0  0  0  0  0  0  0  0  0  0  0
   35.4780   30.4930   47.8290 N   0  0  0  0  0  0  0  0  0  0  0  0
   34.2380   29.9740   47.7060 C   0  0  0  0  0  0  0  0  0  0  0  0
   33.8690   28.9110   48.4510 N   0  0  0  0  0  0  0  0  0  0  0  0
   36.6780   32.1520   50.2730 O   0  0  0  0  0  0  0  0  0  0  0  0
   38.9780   33.8670   49.0810 O   0  0  0  0  0  0  0  0  0  0  0  0
   39.9520   34.3000   48.2030 C   0  0  0  0  0  0  0  0  0  0  0  0
   38.4923   31.7648   50.4578 H   0  0  0  0  0  0  0  0  0  0  0  0
   38.3499   29.8136   49.3179 H   0  0  0  0  0  0  0  0  0  0  0  0
   40.0446   31.6846   48.1194 H   0  0  0  0  0  0  0  0  0  0  0  0
   39.3490   32.4066   46.6974 H   0  0  0  0  0  0  0  0  0  0  0  0
   37.4117   33.3442   48.0703 H   0  0  0  0  0  0  0  0  0  0  0  0
   34.4058   27.4844   49.9216 H   0  0  0  0  0  0  0  0  0  0  0  0
   36.7346   28.4077   50.1974 H   0  0  0  0  0  0  0  0  0  0  0  0
   33.5256   30.4192   46.9958 H   0  0  0  0  0  0  0  0  0  0  0  0
   36.8493   32.1034   51.2468 H   0  0  0  0  0  0  0  0  0  0  0  0
   40.8131   34.6828   48.7704 H   0  0  0  0  0  0  0  0  0  0  0  0
   40.2742   33.4603   47.5696 H   0  0  0  0  0  0  0  0  0  0  0  0
   39.5445   35.1017   47.5696 H   0  0  0  0  0  0  0  0  0  0  0  0
  1 12  1  0
  2  1  1  0
  3  4  1  0
  3  2  1  0
  4  5  1  0
  5 13  1  0
  5  1  1  0
  6  7  2  0
  8  2  1  0
  8  7  1  0
  9  8  2  0
 10  9  1  0
 10 11  2  0
 11  6  1  0
 14 13  1  0
  1 15  1  1
  2 16  1  1
  4 17  1  0
  4 18  1  0
  5 19  1  6
  6 20  1  0
  7 21  1  0
 10 22  1  0
 12 23  1  0
 14 24  1  0
 14 25  1  0
 14 26  1  0
M  ISO  8  15  13  16  13  17  13  18  13  19  13  20  14  21  14  22  14
M  ISO  4  23   3  24   8  25   8  26   8
M  END
>  <minimizedAffinity>  (1) 
-4.49964714

>  <minimizedRMSD>  (1) 
1.34417105

$$$$
