
     RDKit          3D

 36 38  0  0  1  0  0  0  0  0999 V2000
   38.4830   31.9160   48.3740 C   0  0  1  0  0  0  0  0  0  0  0  0
   38.1080   30.4710   48.5450 C   0  0  2  0  0  0  0  0  0  0  0  0
   38.1410   29.8560   47.3110 O   0  0  0  0  0  0  0  0  0  0  0  0
   38.9730   30.6290   46.4960 C   0  0  0  0  0  0  0  0  0  0  0  0
   38.5490   32.0280   46.8790 C   0  0  2  0  0  0  0  0  0  0  0  0
   35.4540   29.4010   51.0160 C   0  0  0  0  0  0  0  0  0  0  0  0
   36.7500   29.5820   50.4540 C   0  0  0  0  0  0  0  0  0  0  0  0
   36.8120   30.2400   49.2180 C   0  0  0  0  0  0  0  0  0  0  0  0
   35.6540   30.6770   48.6070 N   0  0  0  0  0  0  0  0  0  0  0  0
   34.4560   30.4680   49.2030 C   0  0  0  0  0  0  0  0  0  0  0  0
   34.3620   29.8380   50.3910 N   0  0  0  0  0  0  0  0  0  0  0  0
   37.6710   32.8050   48.9940 O   0  0  0  0  0  0  0  0  0  0  0  0
   39.4120   32.9940   46.4340 O   0  0  0  0  0  0  0  0  0  0  0  0
   39.3290   33.1940   45.0520 C   0  0  0  0  0  0  0  0  0  0  0  0
   38.0490   32.6230   44.5310 C   0  0  0  0  0  0  0  0  0  0  0  0
   38.4090   31.8980   43.2310 C   0  0  0  0  0  0  0  0  0  0  0  0
   39.8260   32.3330   42.9270 C   0  0  0  0  0  0  0  0  0  0  0  0
   40.4060   32.4170   44.3260 C   0  0  0  0  0  0  0  0  0  0  0  0
   39.4262   32.1861   48.8714 H   0  0  0  0  0  0  0  0  0  0  0  0
   38.8501   30.0287   49.2259 H   0  0  0  0  0  0  0  0  0  0  0  0
   38.7890   30.4305   45.4298 H   0  0  0  0  0  0  0  0  0  0  0  0
   40.0464   30.4311   46.6326 H   0  0  0  0  0  0  0  0  0  0  0  0
   37.6017   32.3506   46.4222 H   0  0  0  0  0  0  0  0  0  0  0  0
   35.3529   28.8904   51.9850 H   0  0  0  0  0  0  0  0  0  0  0  0
   37.6563   29.2236   50.9640 H   0  0  0  0  0  0  0  0  0  0  0  0
   33.5396   30.8201   48.7068 H   0  0  0  0  0  0  0  0  0  0  0  0
   37.7613   32.7061   49.9749 H   0  0  0  0  0  0  0  0  0  0  0  0
   39.4178   34.2776   44.8852 H   0  0  0  0  0  0  0  0  0  0  0  0
   37.6222   31.9159   45.2575 H   0  0  0  0  0  0  0  0  0  0  0  0
   37.2976   33.4079   44.3600 H   0  0  0  0  0  0  0  0  0  0  0  0
   38.3592   30.8078   43.3685 H   0  0  0  0  0  0  0  0  0  0  0  0
   37.7148   32.1416   42.4132 H   0  0  0  0  0  0  0  0  0  0  0  0
   40.3549   31.5885   42.3139 H   0  0  0  0  0  0  0  0  0  0  0  0
   39.9011   33.2646   42.3470 H   0  0  0  0  0  0  0  0  0  0  0  0
   40.5452   31.4177   44.7641 H   0  0  0  0  0  0  0  0  0  0  0  0
   41.4023   32.8810   44.3717 H   0  0  0  0  0  0  0  0  0  0  0  0
  1  2  1  0
  1 12  1  0
  2  8  1  0
  3  2  1  0
  4  5  1  0
  4  3  1  0
  5  1  1  0
  7  6  2  0
  8  7  1  0
  9 10  1  0
  9  8  2  0
 10 11  2  0
 11  6  1  0
 13  5  1  0
 14 13  1  0
 15 14  1  0
 16 15  1  0
 17 16  1  0
 17 18  1  0
 18 14  1  0
  1 19  1  1
  2 20  1  1
  4 21  1  0
  4 22  1  0
  5 23  1  6
  6 24  1  0
  7 25  1  0
 10 26  1  0
 12 27  1  0
 14 28  1  0
 15 29  1  0
 15 30  1  0
 16 31  1  0
 16 32  1  0
 17 33  1  0
 17 34  1  0
 18 35  1  0
 18 36  1  0
M  ISO  8  19  13  20  13  21  13  22  13  23  13  24  14  25  14  26  14
M  ISO  8  27   3  28  13  29  13  30  13  31  13  32  13  33  13  34  13
M  ISO  2  35  13  36  13
M  END
>  <minimizedAffinity>  (1) 
-4.40415192

>  <minimizedRMSD>  (1) 
2.43265104

$$$$
