
     RDKit          3D

 33 35  0  0  1  0  0  0  0  0999 V2000
   38.6870   32.0420   46.4100 C   0  0  1  0  0  0  0  0  0  0  0  0
   38.4130   30.6810   46.9800 C   0  0  2  0  0  0  0  0  0  0  0  0
   37.7150   29.9400   46.0520 O   0  0  0  0  0  0  0  0  0  0  0  0
   37.9830   30.5070   44.8050 C   0  0  0  0  0  0  0  0  0  0  0  0
   37.9030   31.9890   45.1260 C   0  0  2  0  0  0  0  0  0  0  0  0
   37.6510   30.5630   50.6850 C   0  0  0  0  0  0  0  0  0  0  0  0
   38.4070   30.5510   49.4870 C   0  0  0  0  0  0  0  0  0  0  0  0
   37.7070   30.6930   48.2800 C   0  0  0  0  0  0  0  0  0  0  0  0
   36.3450   30.8350   48.3110 N   0  0  0  0  0  0  0  0  0  0  0  0
   35.6630   30.8410   49.4760 C   0  0  0  0  0  0  0  0  0  0  0  0
   36.3150   30.7070   50.6450 N   0  0  0  0  0  0  0  0  0  0  0  0
   38.4020   33.0900   47.2200 O   0  0  0  0  0  0  0  0  0  0  0  0
   38.4170   32.7770   44.1390 O   0  0  0  0  0  0  0  0  0  0  0  0
   37.9910   32.9920   42.8590 C   0  0  0  0  0  0  0  0  0  0  0  0
   39.0010   33.2540   41.9450 C   0  0  0  0  0  0  0  0  0  0  0  0
   38.6660   33.4880   40.6070 C   0  0  0  0  0  0  0  0  0  0  0  0
   37.3130   33.4430   40.2650 C   0  0  0  0  0  0  0  0  0  0  0  0
   36.2970   33.1820   41.1700 C   0  0  0  0  0  0  0  0  0  0  0  0
   36.6630   32.9560   42.4820 C   0  0  0  0  0  0  0  0  0  0  0  0
   39.7591   32.2398   46.2637 H   0  0  0  0  0  0  0  0  0  0  0  0
   39.3895   30.2216   47.1929 H   0  0  0  0  0  0  0  0  0  0  0  0
   37.2281   30.2154   44.0599 H   0  0  0  0  0  0  0  0  0  0  0  0
   38.9412   30.1934   44.3651 H   0  0  0  0  0  0  0  0  0  0  0  0
   36.8787   32.3801   45.2147 H   0  0  0  0  0  0  0  0  0  0  0  0
   38.1603   30.4538   51.6539 H   0  0  0  0  0  0  0  0  0  0  0  0
   39.5007   30.4348   49.5028 H   0  0  0  0  0  0  0  0  0  0  0  0
   34.5690   30.9560   49.4694 H   0  0  0  0  0  0  0  0  0  0  0  0
   38.4790   32.8068   48.1655 H   0  0  0  0  0  0  0  0  0  0  0  0
   40.0522   33.2775   42.2682 H   0  0  0  0  0  0  0  0  0  0  0  0
   39.4389   33.6993   39.8533 H   0  0  0  0  0  0  0  0  0  0  0  0
   37.0377   33.6254   39.2157 H   0  0  0  0  0  0  0  0  0  0  0  0
   35.2430   33.1559   40.8565 H   0  0  0  0  0  0  0  0  0  0  0  0
   35.8889   32.7451   43.2346 H   0  0  0  0  0  0  0  0  0  0  0  0
  1  2  1  0
  1 12  1  0
  2  8  1  0
  3  2  1  0
  4  5  1  0
  4  3  1  0
  5  1  1  0
  7  6  2  0
  8  9  2  0
  8  7  1  0
  9 10  1  0
 10 11  2  0
 11  6  1  0
 13  5  1  0
 14 13  1  0
 15 14  2  0
 16 15  1  0
 17 16  2  0
 17 18  1  0
 18 19  2  0
 19 14  1  0
  1 20  1  6
  2 21  1  1
  4 22  1  0
  4 23  1  0
  5 24  1  1
  6 25  1  0
  7 26  1  0
 10 27  1  0
 12 28  1  0
 15 29  1  0
 16 30  1  0
 17 31  1  0
 18 32  1  0
 19 33  1  0
M  ISO  8  20  13  21  13  22  13  23  13  24  13  25  14  26  14  27  14
M  ISO  6  28   3  29  14  30  14  31  14  32  14  33  14
M  END
>  <minimizedAffinity>  (1) 
-4.23069811

>  <minimizedRMSD>  (1) 
3.84879017

$$$$
