
     RDKit          3D

 41 43  0  0  0  0  0  0  0  0999 V2000
   38.1630   31.4360   48.9450 Br  0  0  0  0  0  0  0  0  0  0  0  0
   36.9590   30.8590   47.5630 C   0  0  0  0  0  0  0  0  0  0  0  0
   37.3280   30.9380   46.2410 C   0  0  0  0  0  0  0  0  0  0  0  0
   36.4310   30.5210   45.2990 C   0  0  0  0  0  0  0  0  0  0  0  0
   35.1760   30.0270   45.6320 C   0  0  0  0  0  0  0  0  0  0  0  0
   34.8370   29.9610   46.9880 C   0  0  0  0  0  0  0  0  0  0  0  0
   35.7330   30.3770   47.9330 C   0  0  0  0  0  0  0  0  0  0  0  0
   39.8910   33.2860   45.1310 C   0  0  0  0  0  0  0  0  0  0  0  0
   41.0830   32.4950   45.0980 C   0  0  0  0  0  0  0  0  0  0  0  0
   40.9600   31.1790   45.4600 C   0  0  0  0  0  0  0  0  0  0  0  0
   39.7360   30.6700   45.8330 N   0  0  0  0  0  0  0  0  0  0  0  0
   38.6430   31.4570   45.8480 C   0  0  0  0  0  0  0  0  0  0  0  0
   38.7350   32.7490   45.4990 N   0  0  0  0  0  0  0  0  0  0  0  0
   35.2590   30.2500   49.3050 C   0  0  0  0  0  0  0  0  0  0  0  0
   34.1170   29.3310   49.5460 C   0  0  0  0  0  0  0  0  0  0  0  0
   34.5500   27.9940   49.3780 N   0  0  0  0  0  0  0  0  0  0  0  0
   33.7570   27.1440   48.5630 C   0  0  0  0  0  0  0  0  0  0  0  0
   32.4710   27.8360   48.2670 C   0  0  0  0  0  0  0  0  0  0  0  0
   31.3710   26.7600   48.5030 C   0  0  0  0  0  0  0  0  0  0  0  0
   30.1820   27.1650   49.3080 C   0  0  0  0  0  0  0  0  0  0  0  0
   30.0800   26.8340   47.8330 C   0  0  0  0  0  0  0  0  0  0  0  0
   36.7128   30.5785   44.2373 H   0  0  0  0  0  0  0  0  0  0  0  0
   34.4710   29.6981   44.8543 H   0  0  0  0  0  0  0  0  0  0  0  0
   33.8528   29.5756   47.2926 H   0  0  0  0  0  0  0  0  0  0  0  0
   39.9335   34.3483   44.8488 H   0  0  0  0  0  0  0  0  0  0  0  0
   42.0508   32.9224   44.7968 H   0  0  0  0  0  0  0  0  0  0  0  0
   41.8445   30.5251   45.4526 H   0  0  0  0  0  0  0  0  0  0  0  0
   36.1030   29.8963   49.9154 H   0  0  0  0  0  0  0  0  0  0  0  0
   34.8799   31.2486   49.5678 H   0  0  0  0  0  0  0  0  0  0  0  0
   33.7431   29.4702   50.5711 H   0  0  0  0  0  0  0  0  0  0  0  0
   33.3101   29.5500   48.8311 H   0  0  0  0  0  0  0  0  0  0  0  0
   35.4930   28.0251   48.9649 H   0  0  0  0  0  0  0  0  0  0  0  0
   34.2878   26.9301   47.6236 H   0  0  0  0  0  0  0  0  0  0  0  0
   33.5626   26.1957   49.0855 H   0  0  0  0  0  0  0  0  0  0  0  0
   32.4516   28.1866   47.2245 H   0  0  0  0  0  0  0  0  0  0  0  0
   32.3238   28.7232   48.9004 H   0  0  0  0  0  0  0  0  0  0  0  0
   32.1334   25.9690   48.5592 H   0  0  0  0  0  0  0  0  0  0  0  0
   29.7620   26.4820   50.0611 H   0  0  0  0  0  0  0  0  0  0  0  0
   29.9142   28.0202   49.9459 H   0  0  0  0  0  0  0  0  0  0  0  0
   29.8850   27.6333   47.1028 H   0  0  0  0  0  0  0  0  0  0  0  0
   29.4753   26.1376   47.2335 H   0  0  0  0  0  0  0  0  0  0  0  0
  2  7  2  0
  2  1  1  0
  3  2  1  0
  4  5  1  0
  4  3  2  0
  5  6  2  0
  6  7  1  0
  7 14  1  0
  8 13  2  0
  9  8  1  0
  9 10  2  0
 10 11  1  0
 11 12  2  0
 12  3  1  0
 13 12  1  0
 14 15  1  0
 16 15  1  0
 17 16  1  0
 18 19  1  0
 18 17  1  0
 19 20  1  0
 21 19  1  0
 21 20  1  0
  4 22  1  0
  5 23  1  0
  6 24  1  0
  8 25  1  0
  9 26  1  0
 10 27  1  0
 14 28  1  0
 14 29  1  0
 15 30  1  0
 15 31  1  0
 16 32  1  0
 17 33  1  0
 17 34  1  0
 18 35  1  0
 18 36  1  0
 19 37  1  0
 20 38  1  0
 20 39  1  0
 21 40  1  0
 21 41  1  0
M  ISO  8  22  14  23  14  24  14  25  14  26  14  27  14  28   8  29   8
M  ISO  8  30   8  31   8  32   5  33   8  34   8  35   8  36   8  37  13
M  ISO  4  38  13  39  13  40  13  41  13
M  END
>  <minimizedAffinity>  (1) 
-5.11203909

>  <minimizedRMSD>  (1) 
0.677371323

$$$$
