
     RDKit          3D

 33 35  0  0  1  0  0  0  0  0999 V2000
   37.5280   32.3630   48.9170 C   0  0  1  0  0  0  0  0  0  0  0  0
   38.8190   32.9690   49.1560 C   0  0  0  0  0  0  0  0  0  0  0  0
   38.7310   31.9160   48.0560 C   0  0  2  0  0  0  0  0  0  0  0  0
   35.2830   29.6790   50.2520 C   0  0  0  0  0  0  0  0  0  0  0  0
   35.7520   30.6950   49.4120 C   0  0  0  0  0  0  0  0  0  0  0  0
   36.9770   31.2760   49.7450 C   0  0  0  0  0  0  0  0  0  0  0  0
   37.6440   30.8320   50.8530 N   0  0  0  0  0  0  0  0  0  0  0  0
   37.1500   29.8420   51.6430 C   0  0  0  0  0  0  0  0  0  0  0  0
   35.9540   29.2570   51.3390 N   0  0  0  0  0  0  0  0  0  0  0  0
   38.6870   32.3160   46.6150 C   0  0  0  0  0  0  0  0  0  0  0  0
   38.2270   31.2720   45.6620 C   0  0  0  0  0  0  0  0  0  0  0  0
   38.7550   31.3820   44.2810 C   0  0  0  0  0  0  0  0  0  0  0  0
   39.1050   32.7920   43.8720 C   0  0  0  0  0  0  0  0  0  0  0  0
   39.9830   33.5120   44.8320 C   0  0  0  0  0  0  0  0  0  0  0  0
   40.0150   32.9250   46.2200 C   0  0  0  0  0  0  0  0  0  0  0  0
   36.5389   32.8265   48.7873 H   0  0  0  0  0  0  0  0  0  0  0  0
   38.9820   34.0229   48.8865 H   0  0  0  0  0  0  0  0  0  0  0  0
   39.4515   33.0883   50.0480 H   0  0  0  0  0  0  0  0  0  0  0  0
   39.2852   30.9948   47.8232 H   0  0  0  0  0  0  0  0  0  0  0  0
   34.3207   29.2031   50.0124 H   0  0  0  0  0  0  0  0  0  0  0  0
   35.1817   31.0210   48.5297 H   0  0  0  0  0  0  0  0  0  0  0  0
   37.7141   29.5119   52.5278 H   0  0  0  0  0  0  0  0  0  0  0  0
   37.8915   33.0713   46.5337 H   0  0  0  0  0  0  0  0  0  0  0  0
   38.5293   30.2929   46.0620 H   0  0  0  0  0  0  0  0  0  0  0  0
   37.1382   31.4035   45.5772 H   0  0  0  0  0  0  0  0  0  0  0  0
   39.6621   30.7642   44.2065 H   0  0  0  0  0  0  0  0  0  0  0  0
   37.9565   31.0418   43.6052 H   0  0  0  0  0  0  0  0  0  0  0  0
   39.6193   32.7504   42.9005 H   0  0  0  0  0  0  0  0  0  0  0  0
   38.1584   33.3510   43.8336 H   0  0  0  0  0  0  0  0  0  0  0  0
   41.0078   33.5023   44.4324 H   0  0  0  0  0  0  0  0  0  0  0  0
   39.5669   34.5252   44.9332 H   0  0  0  0  0  0  0  0  0  0  0  0
   40.7878   32.1430   46.2560 H   0  0  0  0  0  0  0  0  0  0  0  0
   40.2357   33.7395   46.9256 H   0  0  0  0  0  0  0  0  0  0  0  0
  1  2  1  0
  1  6  1  0
  3  1  1  0
  3  2  1  0
  4  9  2  0
  5  6  2  0
  5  4  1  0
  6  7  1  0
  7  8  2  0
  9  8  1  0
 10  3  1  0
 11 10  1  0
 12 11  1  0
 13 12  1  0
 13 14  1  0
 14 15  1  0
 15 10  1  0
  1 16  1  6
  2 17  1  0
  2 18  1  0
  3 19  1  6
  4 20  1  0
  5 21  1  0
  8 22  1  0
 10 23  1  0
 11 24  1  0
 11 25  1  0
 12 26  1  0
 12 27  1  0
 13 28  1  0
 13 29  1  0
 14 30  1  0
 14 31  1  0
 15 32  1  0
 15 33  1  0
M  ISO  8  16  13  17  13  18  13  19  13  20  14  21  14  22  14  23  13
M  ISO  8  24  13  25  13  26  13  27  13  28  13  29  13  30  13  31  13
M  ISO  2  32  13  33  13
M  END
>  <minimizedAffinity>  (1) 
-5.69073439

>  <minimizedRMSD>  (1) 
2.90885639

$$$$
