
     RDKit          3D

 24 26  0  0  1  0  0  0  0  0999 V2000
   37.8990   30.3270   46.8850 C   0  0  1  0  0  0  0  0  0  0  0  0
   37.5610   31.3050   45.8730 C   0  0  0  0  0  0  0  0  0  0  0  0
   38.7960   31.5730   46.6880 C   0  0  1  0  0  0  0  0  0  0  0  0
   37.3750   29.9600   50.5780 C   0  0  0  0  0  0  0  0  0  0  0  0
   38.0400   29.9570   49.3480 C   0  0  0  0  0  0  0  0  0  0  0  0
   37.2880   30.3110   48.2290 C   0  0  0  0  0  0  0  0  0  0  0  0
   35.9600   30.6340   48.4040 N   0  0  0  0  0  0  0  0  0  0  0  0
   35.3660   30.6200   49.6210 C   0  0  0  0  0  0  0  0  0  0  0  0
   36.0820   30.2800   50.7080 N   0  0  0  0  0  0  0  0  0  0  0  0
   38.8070   32.6170   47.7200 C   0  0  0  0  0  0  0  0  0  0  0  0
   37.9250   32.9360   48.7320 C   0  0  0  0  0  0  0  0  0  0  0  0
   38.3750   34.0240   49.4730 C   0  0  0  0  0  0  0  0  0  0  0  0
   39.5380   34.3240   48.8590 N   0  0  0  0  0  0  0  0  0  0  0  0
   39.8090   33.5350   47.8540 N   0  0  0  0  0  0  0  0  0  0  0  0
   37.9496   29.2299   46.8224 H   0  0  0  0  0  0  0  0  0  0  0  0
   36.6739   31.9408   46.0103 H   0  0  0  0  0  0  0  0  0  0  0  0
   37.3645   31.2413   44.7926 H   0  0  0  0  0  0  0  0  0  0  0  0
   39.8540   31.7796   46.4691 H   0  0  0  0  0  0  0  0  0  0  0  0
   37.9409   29.6866   51.4808 H   0  0  0  0  0  0  0  0  0  0  0  0
   39.1037   29.6886   49.2674 H   0  0  0  0  0  0  0  0  0  0  0  0
   34.3031   30.8854   49.7202 H   0  0  0  0  0  0  0  0  0  0  0  0
   36.9855   32.3984   48.9279 H   0  0  0  0  0  0  0  0  0  0  0  0
   37.9035   34.5139   50.3377 H   0  0  0  0  0  0  0  0  0  0  0  0
   40.1509   35.0977   49.1532 H   0  0  0  0  0  0  0  0  0  0  0  0
  1  6  1  0
  2  3  1  0
  2  1  1  0
  3  1  1  0
  3 10  1  0
  4  9  2  0
  5  4  1  0
  6  7  1  0
  6  5  2  0
  7  8  2  0
  8  9  1  0
 10 14  2  0
 10 11  1  0
 11 12  2  0
 13 12  1  0
 14 13  1  0
  1 15  1  6
  2 16  1  0
  2 17  1  0
  3 18  1  6
  4 19  1  0
  5 20  1  0
  8 21  1  0
 11 22  1  0
 12 23  1  0
 13 24  1  0
M  ISO  8  15  13  16  13  17  13  18  13  19  14  20  14  21  14  22  14
M  ISO  2  23  14  24   9
M  END
>  <minimizedAffinity>  (1) 
-4.06296921

>  <minimizedRMSD>  (1) 
1.73570156

$$$$
