
     RDKit          3D

 38 39  0  0  0  0  0  0  0  0999 V2000
   38.2040   31.5970   48.9610 Br  0  0  0  0  0  0  0  0  0  0  0  0
   36.9750   30.9620   47.6170 C   0  0  0  0  0  0  0  0  0  0  0  0
   37.3320   30.9760   46.2930 C   0  0  0  0  0  0  0  0  0  0  0  0
   36.4200   30.5200   45.3820 C   0  0  0  0  0  0  0  0  0  0  0  0
   35.1670   30.0540   45.7520 C   0  0  0  0  0  0  0  0  0  0  0  0
   34.8440   30.0580   47.1140 C   0  0  0  0  0  0  0  0  0  0  0  0
   35.7550   30.5120   48.0270 C   0  0  0  0  0  0  0  0  0  0  0  0
   39.8860   33.2730   45.0590 C   0  0  0  0  0  0  0  0  0  0  0  0
   41.0750   32.4700   45.0360 C   0  0  0  0  0  0  0  0  0  0  0  0
   40.9530   31.1650   45.4490 C   0  0  0  0  0  0  0  0  0  0  0  0
   39.7330   30.6750   45.8580 N   0  0  0  0  0  0  0  0  0  0  0  0
   38.6470   31.4690   45.8610 C   0  0  0  0  0  0  0  0  0  0  0  0
   38.7390   32.7490   45.4630 N   0  0  0  0  0  0  0  0  0  0  0  0
   35.2910   30.4550   49.4070 C   0  0  0  0  0  0  0  0  0  0  0  0
   34.2170   29.4820   49.7280 C   0  0  0  0  0  0  0  0  0  0  0  0
   34.7010   28.1660   49.5380 N   0  0  0  0  0  0  0  0  0  0  0  0
   33.9360   27.2960   48.7150 C   0  0  0  0  0  0  0  0  0  0  0  0
   32.5290   27.7970   48.6780 C   0  0  0  0  0  0  0  0  0  0  0  0
   30.3490   26.6270   47.8830 C   0  0  0  0  0  0  0  0  0  0  0  0
   29.6200   27.6320   48.0640 O   0  0  0  0  0  0  0  0  0  0  0  0
   31.7400   26.6400   48.1580 N   0  0  0  0  0  0  0  0  0  0  0  0
   36.6901   30.5228   44.3157 H   0  0  0  0  0  0  0  0  0  0  0  0
   34.4504   29.6930   44.9995 H   0  0  0  0  0  0  0  0  0  0  0  0
   33.8603   29.6970   47.4488 H   0  0  0  0  0  0  0  0  0  0  0  0
   39.9274   34.3251   44.7406 H   0  0  0  0  0  0  0  0  0  0  0  0
   42.0398   32.8802   44.7031 H   0  0  0  0  0  0  0  0  0  0  0  0
   41.8352   30.5080   45.4529 H   0  0  0  0  0  0  0  0  0  0  0  0
   36.1585   30.2081   50.0366 H   0  0  0  0  0  0  0  0  0  0  0  0
   34.8410   31.4414   49.5929 H   0  0  0  0  0  0  0  0  0  0  0  0
   33.9064   29.6109   50.7753 H   0  0  0  0  0  0  0  0  0  0  0  0
   33.3555   29.6551   49.0663 H   0  0  0  0  0  0  0  0  0  0  0  0
   35.6392   28.2402   49.1195 H   0  0  0  0  0  0  0  0  0  0  0  0
   34.3533   27.2852   47.6973 H   0  0  0  0  0  0  0  0  0  0  0  0
   33.9623   26.2734   49.1194 H   0  0  0  0  0  0  0  0  0  0  0  0
   32.1891   28.0794   49.6853 H   0  0  0  0  0  0  0  0  0  0  0  0
   32.4188   28.6960   48.0537 H   0  0  0  0  0  0  0  0  0  0  0  0
   29.8930   25.7032   47.4974 H   0  0  0  0  0  0  0  0  0  0  0  0
   32.2568   25.7666   47.9821 H   0  0  0  0  0  0  0  0  0  0  0  0
  2  7  2  0
  2  1  1  0
  3  2  1  0
  4  5  1  0
  4  3  2  0
  5  6  2  0
  6  7  1  0
  7 14  1  0
  8 13  2  0
  9  8  1  0
  9 10  2  0
 10 11  1  0
 11 12  2  0
 12  3  1  0
 13 12  1  0
 14 15  1  0
 16 15  1  0
 17 16  1  0
 18 17  1  0
 19 20  2  0
 19 21  1  0
 21 18  1  0
  4 22  1  0
  5 23  1  0
  6 24  1  0
  8 25  1  0
  9 26  1  0
 10 27  1  0
 14 28  1  0
 14 29  1  0
 15 30  1  0
 15 31  1  0
 16 32  1  0
 17 33  1  0
 17 34  1  0
 18 35  1  0
 18 36  1  0
 19 37  1  0
 21 38  1  0
M  ISO  8  22  14  23  14  24  14  25  14  26  14  27  14  28   8  29   8
M  ISO  8  30   8  31   8  32   5  33   8  34   8  35   8  36   8  37   6
M  END
>  <minimizedAffinity>  (1) 
-4.92981339

>  <minimizedRMSD>  (1) 
0.708670497

$$$$
