
     RDKit          3D

 45 49  0  0  1  0  0  0  0  0999 V2000
   38.3550   31.7330   45.3820 C   0  0  1  0  0  0  0  0  0  0  0  0
   38.8790   32.6150   46.4680 C   0  0  2  0  0  0  0  0  0  0  0  0
   40.3210   32.8730   46.0440 C   0  0  0  0  0  0  0  0  0  0  0  0
   40.7050   31.6340   45.6190 O   0  0  0  0  0  0  0  0  0  0  0  0
   39.6700   31.0160   44.9720 C   0  0  0  0  0  0  0  0  0  0  0  0
   37.6570   32.4920   48.7590 C   0  0  1  0  0  0  0  0  0  0  0  0
   38.9190   33.1730   48.9230 C   0  0  0  0  0  0  0  0  0  0  0  0
   38.8180   32.0570   47.8630 C   0  0  2  0  0  0  0  0  0  0  0  0
   35.5110   29.9180   50.4150 C   0  0  0  0  0  0  0  0  0  0  0  0
   35.9230   30.9230   49.5500 C   0  0  0  0  0  0  0  0  0  0  0  0
   37.2040   31.4250   49.6620 C   0  0  0  0  0  0  0  0  0  0  0  0
   38.0110   30.8910   50.6440 N   0  0  0  0  0  0  0  0  0  0  0  0
   37.6020   29.9130   51.4820 C   0  0  0  0  0  0  0  0  0  0  0  0
   36.3290   29.4120   51.3720 N   0  0  0  0  0  0  0  0  0  0  0  0
   37.4400   30.8150   45.7610 O   0  0  0  0  0  0  0  0  0  0  0  0
   36.4140   30.2320   45.1450 C   0  0  0  0  0  0  0  0  0  0  0  0
   36.7990   30.0370   43.8080 C   0  0  0  0  0  0  0  0  0  0  0  0
   35.9830   29.4490   42.8380 C   0  0  0  0  0  0  0  0  0  0  0  0
   34.7100   29.0220   43.1910 C   0  0  0  0  0  0  0  0  0  0  0  0
   34.2820   29.1870   44.4900 C   0  0  0  0  0  0  0  0  0  0  0  0
   33.0550   28.7830   44.9670 C   0  0  0  0  0  0  0  0  0  0  0  0
   32.6540   28.9340   46.2870 C   0  0  0  0  0  0  0  0  0  0  0  0
   33.5650   29.5300   47.1510 C   0  0  0  0  0  0  0  0  0  0  0  0
   34.7910   29.9370   46.6820 C   0  0  0  0  0  0  0  0  0  0  0  0
   35.1460   29.7730   45.3810 C   0  0  0  0  0  0  0  0  0  0  0  0
   37.8162   32.3041   44.6116 H   0  0  0  0  0  0  0  0  0  0  0  0
   38.2505   33.5135   46.5556 H   0  0  0  0  0  0  0  0  0  0  0  0
   40.3747   33.6115   45.2305 H   0  0  0  0  0  0  0  0  0  0  0  0
   40.9549   33.2907   46.8401 H   0  0  0  0  0  0  0  0  0  0  0  0
   39.6252   29.9567   45.2651 H   0  0  0  0  0  0  0  0  0  0  0  0
   39.8123   31.0698   43.8826 H   0  0  0  0  0  0  0  0  0  0  0  0
   36.6430   32.9042   48.6500 H   0  0  0  0  0  0  0  0  0  0  0  0
   39.0190   34.2210   48.6042 H   0  0  0  0  0  0  0  0  0  0  0  0
   39.5845   33.3632   49.7780 H   0  0  0  0  0  0  0  0  0  0  0  0
   39.2771   31.0873   47.6202 H   0  0  0  0  0  0  0  0  0  0  0  0
   34.4899   29.5197   50.3215 H   0  0  0  0  0  0  0  0  0  0  0  0
   35.2368   31.3145   48.7846 H   0  0  0  0  0  0  0  0  0  0  0  0
   38.2861   29.5203   52.2487 H   0  0  0  0  0  0  0  0  0  0  0  0
   37.8040   30.3673   43.5064 H   0  0  0  0  0  0  0  0  0  0  0  0
   36.3451   29.3259   41.8066 H   0  0  0  0  0  0  0  0  0  0  0  0
   34.0511   28.5576   42.4425 H   0  0  0  0  0  0  0  0  0  0  0  0
   32.3530   28.3140   44.2619 H   0  0  0  0  0  0  0  0  0  0  0  0
   31.6648   28.5988   46.6321 H   0  0  0  0  0  0  0  0  0  0  0  0
   33.3048   29.6759   48.2098 H   0  0  0  0  0  0  0  0  0  0  0  0
   35.5023   30.4071   47.3771 H   0  0  0  0  0  0  0  0  0  0  0  0
  1 15  1  0
  1  2  1  0
  2  8  1  0
  3  2  1  0
  4  3  1  0
  5  1  1  0
  5  4  1  0
  6  7  1  0
  6 11  1  0
  8  6  1  0
  8  7  1  0
  9 14  2  0
 10 11  2  0
 10  9  1  0
 11 12  1  0
 12 13  2  0
 14 13  1  0
 16 25  1  0
 16 15  1  0
 17 16  2  0
 18 19  2  0
 18 17  1  0
 19 20  1  0
 20 21  1  0
 20 25  2  0
 21 22  2  0
 22 23  1  0
 24 23  2  0
 25 24  1  0
  1 26  1  6
  2 27  1  1
  3 28  1  0
  3 29  1  0
  5 30  1  0
  5 31  1  0
  6 32  1  6
  7 33  1  0
  7 34  1  0
  8 35  1  1
  9 36  1  0
 10 37  1  0
 13 38  1  0
 17 39  1  0
 18 40  1  0
 19 41  1  0
 21 42  1  0
 22 43  1  0
 23 44  1  0
 24 45  1  0
M  ISO  8  26  13  27  13  28  13  29  13  30  13  31  13  32  13  33  13
M  ISO  8  34  13  35  13  36  14  37  14  38  14  39  14  40  14  41  14
M  ISO  4  42  14  43  14  44  14  45  14
M  END
>  <minimizedAffinity>  (1) 
-6.1657958

>  <minimizedRMSD>  (1) 
2.10993075

$$$$
