
     RDKit          3D

 45 48  0  0  1  0  0  0  0  0999 V2000
   38.5020   31.4780   45.3590 C   0  0  1  0  0  0  0  0  0  0  0  0
   38.8160   32.4630   46.3860 C   0  0  2  0  0  0  0  0  0  0  0  0
   40.2850   32.8280   46.0580 C   0  0  0  0  0  0  0  0  0  0  0  0
   40.8060   31.6240   45.7030 O   0  0  0  0  0  0  0  0  0  0  0  0
   39.8760   30.8630   45.0390 C   0  0  0  0  0  0  0  0  0  0  0  0
   37.5610   32.3710   48.6700 C   0  0  1  0  0  0  0  0  0  0  0  0
   38.7700   33.1360   48.8330 C   0  0  0  0  0  0  0  0  0  0  0  0
   38.7690   31.9710   47.8220 C   0  0  2  0  0  0  0  0  0  0  0  0
   35.5800   29.6710   50.3720 C   0  0  0  0  0  0  0  0  0  0  0  0
   35.9590   30.6520   49.4500 C   0  0  0  0  0  0  0  0  0  0  0  0
   37.1580   31.3230   49.6170 C   0  0  0  0  0  0  0  0  0  0  0  0
   37.9190   30.9690   50.7080 N   0  0  0  0  0  0  0  0  0  0  0  0
   37.5450   30.0210   51.5910 C   0  0  0  0  0  0  0  0  0  0  0  0
   36.3640   29.3640   51.4250 N   0  0  0  0  0  0  0  0  0  0  0  0
   37.6140   30.4650   45.7570 O   0  0  0  0  0  0  0  0  0  0  0  0
   36.4600   30.5190   44.9810 C   0  0  0  0  0  0  0  0  0  0  0  0
   35.2980   29.9820   45.7600 C   0  0  0  0  0  0  0  0  0  0  0  0
   33.9920   30.1650   44.9840 C   0  0  0  0  0  0  0  0  0  0  0  0
   34.1020   29.2620   43.7470 C   0  0  0  0  0  0  0  0  0  0  0  0
   35.2750   29.7520   42.9560 C   0  0  0  0  0  0  0  0  0  0  0  0
   36.5870   29.7030   43.7080 C   0  0  0  0  0  0  0  0  0  0  0  0
   37.9868   31.9594   44.5147 H   0  0  0  0  0  0  0  0  0  0  0  0
   38.0721   33.2728   46.3552 H   0  0  0  0  0  0  0  0  0  0  0  0
   40.3417   33.5477   45.2281 H   0  0  0  0  0  0  0  0  0  0  0  0
   40.8169   33.3119   46.8905 H   0  0  0  0  0  0  0  0  0  0  0  0
   39.9172   29.8210   45.3891 H   0  0  0  0  0  0  0  0  0  0  0  0
   40.0669   30.8559   43.9557 H   0  0  0  0  0  0  0  0  0  0  0  0
   36.5261   32.7099   48.5147 H   0  0  0  0  0  0  0  0  0  0  0  0
   38.8123   34.1735   48.4699 H   0  0  0  0  0  0  0  0  0  0  0  0
   39.3987   33.4052   49.6945 H   0  0  0  0  0  0  0  0  0  0  0  0
   39.3027   31.0273   47.6359 H   0  0  0  0  0  0  0  0  0  0  0  0
   34.6259   29.1408   50.2357 H   0  0  0  0  0  0  0  0  0  0  0  0
   35.3073   30.8892   48.5962 H   0  0  0  0  0  0  0  0  0  0  0  0
   38.1940   29.7784   52.4454 H   0  0  0  0  0  0  0  0  0  0  0  0
   36.3049   31.5742   44.7118 H   0  0  0  0  0  0  0  0  0  0  0  0
   35.4566   28.9104   45.9514 H   0  0  0  0  0  0  0  0  0  0  0  0
   35.2245   30.5339   46.7087 H   0  0  0  0  0  0  0  0  0  0  0  0
   33.1345   29.8621   45.6028 H   0  0  0  0  0  0  0  0  0  0  0  0
   33.8362   31.2166   44.7015 H   0  0  0  0  0  0  0  0  0  0  0  0
   34.2617   28.2177   44.0536 H   0  0  0  0  0  0  0  0  0  0  0  0
   33.1797   29.2986   43.1486 H   0  0  0  0  0  0  0  0  0  0  0  0
   35.0832   30.7946   42.6623 H   0  0  0  0  0  0  0  0  0  0  0  0
   35.3785   29.0809   42.0906 H   0  0  0  0  0  0  0  0  0  0  0  0
   36.8276   28.6600   43.9614 H   0  0  0  0  0  0  0  0  0  0  0  0
   37.3897   30.1175   43.0805 H   0  0  0  0  0  0  0  0  0  0  0  0
  1 15  1  0
  1  2  1  0
  2  8  1  0
  3  2  1  0
  4  3  1  0
  5  1  1  0
  5  4  1  0
  6  7  1  0
  6 11  1  0
  8  6  1  0
  8  7  1  0
  9 14  2  0
 10 11  2  0
 10  9  1  0
 11 12  1  0
 12 13  2  0
 14 13  1  0
 16 15  1  0
 16 17  1  0
 18 17  1  0
 19 18  1  0
 20 21  1  0
 20 19  1  0
 21 16  1  0
  1 22  1  6
  2 23  1  1
  3 24  1  0
  3 25  1  0
  5 26  1  0
  5 27  1  0
  6 28  1  6
  7 29  1  0
  7 30  1  0
  8 31  1  1
  9 32  1  0
 10 33  1  0
 13 34  1  0
 16 35  1  0
 17 36  1  0
 17 37  1  0
 18 38  1  0
 18 39  1  0
 19 40  1  0
 19 41  1  0
 20 42  1  0
 20 43  1  0
 21 44  1  0
 21 45  1  0
M  ISO  8  22  13  23  13  24  13  25  13  26  13  27  13  28  13  29  13
M  ISO  8  30  13  31  13  32  14  33  14  34  14  35  13  36  13  37  13
M  ISO  8  38  13  39  13  40  13  41  13  42  13  43  13  44  13  45  13
M  END
>  <minimizedAffinity>  (1) 
-5.46375513

>  <minimizedRMSD>  (1) 
1.07929564

$$$$
