
     RDKit          3D

 40 43  0  0  1  0  0  0  0  0999 V2000
   38.2960   31.5830   45.4150 C   0  0  1  0  0  0  0  0  0  0  0  0
   38.9070   32.4180   46.4490 C   0  0  2  0  0  0  0  0  0  0  0  0
   40.3970   32.4090   46.0520 C   0  0  0  0  0  0  0  0  0  0  0  0
   40.5690   31.1180   45.6510 O   0  0  0  0  0  0  0  0  0  0  0  0
   39.4410   30.6450   45.0160 C   0  0  0  0  0  0  0  0  0  0  0  0
   37.5730   32.3660   48.6970 C   0  0  1  0  0  0  0  0  0  0  0  0
   38.8130   33.0680   48.9000 C   0  0  0  0  0  0  0  0  0  0  0  0
   38.7840   31.9150   47.8750 C   0  0  2  0  0  0  0  0  0  0  0  0
   35.4240   29.7310   50.2880 C   0  0  0  0  0  0  0  0  0  0  0  0
   35.8720   30.6980   49.3940 C   0  0  0  0  0  0  0  0  0  0  0  0
   37.0860   31.3220   49.6140 C   0  0  0  0  0  0  0  0  0  0  0  0
   37.7850   30.9400   50.7230 N   0  0  0  0  0  0  0  0  0  0  0  0
   37.3400   30.0010   51.5860 C   0  0  0  0  0  0  0  0  0  0  0  0
   36.1400   29.3860   51.3670 N   0  0  0  0  0  0  0  0  0  0  0  0
   37.1900   30.8470   45.8350 O   0  0  0  0  0  0  0  0  0  0  0  0
   36.4310   30.3860   44.8070 C   0  0  2  0  0  0  0  0  0  0  0  0
   36.1460   31.3300   43.6670 C   0  0  0  0  0  0  0  0  0  0  0  0
   35.2590   30.3520   42.8570 C   0  0  0  0  0  0  0  0  0  0  0  0
   34.5410   29.6450   43.7990 O   0  0  0  0  0  0  0  0  0  0  0  0
   35.0680   29.8880   45.0700 C   0  0  0  0  0  0  0  0  0  0  0  0
   37.8923   32.2027   44.6007 H   0  0  0  0  0  0  0  0  0  0  0  0
   38.4037   33.3958   46.4753 H   0  0  0  0  0  0  0  0  0  0  0  0
   40.5975   33.1137   45.2315 H   0  0  0  0  0  0  0  0  0  0  0  0
   41.0759   32.7196   46.8598 H   0  0  0  0  0  0  0  0  0  0  0  0
   39.2228   29.6175   45.3427 H   0  0  0  0  0  0  0  0  0  0  0  0
   39.5769   30.6225   43.9247 H   0  0  0  0  0  0  0  0  0  0  0  0
   36.5612   32.7609   48.5231 H   0  0  0  0  0  0  0  0  0  0  0  0
   38.9156   34.1059   48.5504 H   0  0  0  0  0  0  0  0  0  0  0  0
   39.4305   33.2966   49.7811 H   0  0  0  0  0  0  0  0  0  0  0  0
   39.2714   30.9462   47.6908 H   0  0  0  0  0  0  0  0  0  0  0  0
   34.4582   29.2373   50.1048 H   0  0  0  0  0  0  0  0  0  0  0  0
   35.2639   30.9647   48.5170 H   0  0  0  0  0  0  0  0  0  0  0  0
   37.9438   29.7315   52.4651 H   0  0  0  0  0  0  0  0  0  0  0  0
   37.1431   29.5796   44.5775 H   0  0  0  0  0  0  0  0  0  0  0  0
   35.6011   32.2301   43.9879 H   0  0  0  0  0  0  0  0  0  0  0  0
   37.0138   31.7638   43.1486 H   0  0  0  0  0  0  0  0  0  0  0  0
   34.5805   30.9075   42.1928 H   0  0  0  0  0  0  0  0  0  0  0  0
   35.8594   29.6888   42.2169 H   0  0  0  0  0  0  0  0  0  0  0  0
   35.0986   28.9622   45.6633 H   0  0  0  0  0  0  0  0  0  0  0  0
   34.4626   30.6019   45.6478 H   0  0  0  0  0  0  0  0  0  0  0  0
  1 15  1  0
  1  2  1  0
  2  8  1  0
  3  2  1  0
  4  3  1  0
  5  1  1  0
  5  4  1  0
  6  7  1  0
  6 11  1  0
  8  6  1  0
  8  7  1  0
  9 14  2  0
 10 11  2  0
 10  9  1  0
 11 12  1  0
 12 13  2  0
 14 13  1  0
 16 20  1  0
 16 15  1  0
 17 16  1  0
 18 17  1  0
 18 19  1  0
 19 20  1  0
  1 21  1  6
  2 22  1  1
  3 23  1  0
  3 24  1  0
  5 25  1  0
  5 26  1  0
  6 27  1  6
  7 28  1  0
  7 29  1  0
  8 30  1  1
  9 31  1  0
 10 32  1  0
 13 33  1  0
 16 34  1  6
 17 35  1  0
 17 36  1  0
 18 37  1  0
 18 38  1  0
 20 39  1  0
 20 40  1  0
M  ISO  8  21  13  22  13  23  13  24  13  25  13  26  13  27  13  28  13
M  ISO  8  29  13  30  13  31  14  32  14  33  14  34  13  35  13  36  13
M  ISO  4  37  13  38  13  39  13  40  13
M  END
>  <minimizedAffinity>  (1) 
-5.34135532

>  <minimizedRMSD>  (1) 
1.27539158

$$$$
