
     RDKit          3D

 31 33  0  0  1  0  0  0  0  0999 V2000
   37.5880   32.3890   48.7400 C   0  0  1  0  0  0  0  0  0  0  0  0
   38.8470   33.0580   48.9290 C   0  0  0  0  0  0  0  0  0  0  0  0
   38.7780   31.9310   47.8930 C   0  0  2  0  0  0  0  0  0  0  0  0
   38.1850   31.6900   45.4260 C   0  0  1  0  0  0  0  0  0  0  0  0
   38.9000   32.4580   46.4770 C   0  0  2  0  0  0  0  0  0  0  0  0
   40.3610   32.3870   46.0230 C   0  0  0  0  0  0  0  0  0  0  0  0
   40.4380   31.0980   45.5690 O   0  0  0  0  0  0  0  0  0  0  0  0
   39.2570   30.7290   44.9550 C   0  0  0  0  0  0  0  0  0  0  0  0
   37.0750   30.9980   45.8770 O   0  0  0  0  0  0  0  0  0  0  0  0
   36.1850   30.3360   45.0580 C   0  0  0  0  0  0  0  0  0  0  0  0
   35.1720   29.8530   45.6230 O   0  0  0  0  0  0  0  0  0  0  0  0
   35.4280   29.7360   50.2550 C   0  0  0  0  0  0  0  0  0  0  0  0
   35.8700   30.7140   49.3740 C   0  0  0  0  0  0  0  0  0  0  0  0
   37.0800   31.3290   49.6410 C   0  0  0  0  0  0  0  0  0  0  0  0
   37.7810   30.9420   50.7560 N   0  0  0  0  0  0  0  0  0  0  0  0
   37.3330   29.9860   51.6020 C   0  0  0  0  0  0  0  0  0  0  0  0
   36.1350   29.3690   51.3500 N   0  0  0  0  0  0  0  0  0  0  0  0
   36.5823   32.8111   48.5968 H   0  0  0  0  0  0  0  0  0  0  0  0
   38.9662   34.0990   48.5941 H   0  0  0  0  0  0  0  0  0  0  0  0
   39.4850   33.2578   49.8025 H   0  0  0  0  0  0  0  0  0  0  0  0
   39.2387   30.9541   47.6844 H   0  0  0  0  0  0  0  0  0  0  0  0
   37.7703   32.3518   44.6514 H   0  0  0  0  0  0  0  0  0  0  0  0
   38.4663   33.4659   46.5544 H   0  0  0  0  0  0  0  0  0  0  0  0
   40.5689   33.1098   45.2203 H   0  0  0  0  0  0  0  0  0  0  0  0
   41.0898   32.6320   46.8097 H   0  0  0  0  0  0  0  0  0  0  0  0
   38.9909   29.7000   45.2384 H   0  0  0  0  0  0  0  0  0  0  0  0
   39.3592   30.7656   43.8604 H   0  0  0  0  0  0  0  0  0  0  0  0
   36.3518   30.2367   43.9753 H   0  0  0  0  0  0  0  0  0  0  0  0
   34.4665   29.2403   50.0557 H   0  0  0  0  0  0  0  0  0  0  0  0
   35.2761   30.9913   48.4906 H   0  0  0  0  0  0  0  0  0  0  0  0
   37.9256   29.7059   52.4854 H   0  0  0  0  0  0  0  0  0  0  0  0
  1  2  1  0
  1 14  1  0
  3  1  1  0
  3  2  1  0
  4  9  1  0
  4  5  1  0
  5  3  1  0
  6  5  1  0
  7  6  1  0
  8  4  1  0
  8  7  1  0
 10 11  2  0
 10  9  1  0
 12 17  2  0
 13 14  2  0
 13 12  1  0
 14 15  1  0
 15 16  2  0
 17 16  1  0
  1 18  1  6
  2 19  1  0
  2 20  1  0
  3 21  1  1
  4 22  1  6
  5 23  1  1
  6 24  1  0
  6 25  1  0
  8 26  1  0
  8 27  1  0
 10 28  1  0
 12 29  1  0
 13 30  1  0
 16 31  1  0
M  ISO  8  18  13  19  13  20  13  21  13  22  13  23  13  24  13  25  13
M  ISO  6  26  13  27  13  28   6  29  14  30  14  31  14
M  END
>  <minimizedAffinity>  (1) 
-5.0774579

>  <minimizedRMSD>  (1) 
0.664881647

$$$$
