
     RDKit          3D

 41 43  0  0  0  0  0  0  0  0999 V2000
   37.5039   32.3065   48.8612 C   0  0  1  0  0  0  0  0  0  0  0  0
   38.7916   32.9153   49.0708 C   0  0  0  0  0  0  0  0  0  0  0  0
   38.6615   31.8292   47.9860 C   0  0  2  0  0  0  0  0  0  0  0  0
   35.2540   29.6927   50.3158 C   0  0  0  0  0  0  0  0  0  0  0  0
   35.7310   30.6808   49.4699 C   0  0  0  0  0  0  0  0  0  0  0  0
   36.9691   31.2397   49.7279 C   0  0  0  0  0  0  0  0  0  0  0  0
   37.6663   30.7792   50.8226 N   0  0  0  0  0  0  0  0  0  0  0  0
   37.1876   29.8124   51.6426 C   0  0  0  0  0  0  0  0  0  0  0  0
   35.9606   29.2572   51.3876 N   0  0  0  0  0  0  0  0  0  0  0  0
   37.9689   31.7773   45.5542 C   0  0  1  0  0  0  0  0  0  0  0  0
   38.7879   32.4066   46.5929 C   0  0  2  0  0  0  0  0  0  0  0  0
   40.2208   32.1790   46.0722 C   0  0  0  0  0  0  0  0  0  0  0  0
   40.1325   30.9070   45.5811 O   0  0  0  0  0  0  0  0  0  0  0  0
   38.9023   30.6893   45.0060 C   0  0  0  0  0  0  0  0  0  0  0  0
   36.7891   31.1799   46.0151 O   0  0  0  0  0  0  0  0  0  0  0  0
   36.7128   32.9007   48.3261 H   0  0  0  0  0  0  0  0  0  0  0  0
   39.0237   33.9396   48.7824 H   0  0  0  0  0  0  0  0  0  0  0  0
   39.3316   32.6108   50.0135 H   0  0  0  0  0  0  0  0  0  0  0  0
   39.0958   30.8472   48.1407 H   0  0  0  0  0  0  0  0  0  0  0  0
   34.2811   29.2662   50.0964 H   0  0  0  0  0  0  0  0  0  0  0  0
   35.2142   31.0691   48.6108 H   0  0  0  0  0  0  0  0  0  0  0  0
   37.8308   29.5382   52.4691 H   0  0  0  0  0  0  0  0  0  0  0  0
   37.7261   32.5027   44.7411 H   0  0  0  0  0  0  0  0  0  0  0  0
   38.6664   33.5063   46.5758 H   0  0  0  0  0  0  0  0  0  0  0  0
   40.8573   32.1545   46.9834 H   0  0  0  0  0  0  0  0  0  0  0  0
   40.5062   32.9484   45.3496 H   0  0  0  0  0  0  0  0  0  0  0  0
   38.4774   29.6904   45.2033 H   0  0  0  0  0  0  0  0  0  0  0  0
   39.0005   30.8288   43.9150 H   0  0  0  0  0  0  0  0  0  0  0  0
   35.6912   31.6497   45.2985 C   0  0  0  0  0  0  0  0  0  0  0  0
   34.5059   30.9834   45.7695 N   0  0  0  0  0  4  0  0  0  0  0  0
   33.5923   31.9233   46.4006 C   0  0  0  0  0  0  0  0  0  0  0  0
   33.2012   32.5514   45.5553 H   0  0  0  0  0  0  0  0  0  0  0  0
   33.8503   30.3502   44.6286 C   0  0  0  0  0  0  0  0  0  0  0  0
   33.9447   29.2432   44.6872 H   0  0  0  0  0  0  0  0  0  0  0  0
   35.5955   32.7276   45.5392 H   0  0  0  0  0  0  0  0  0  0  0  0
   35.8332   31.5557   44.2048 H   0  0  0  0  0  0  0  0  0  0  0  0
   34.7772   30.2401   46.4454 H   0  0  0  0  0  0  0  0  0  0  0  0
   32.8205   31.3323   46.9054 H   0  0  0  0  0  0  0  0  0  0  0  0
   34.1644   32.5814   47.0673 H   0  0  0  0  0  0  0  0  0  0  0  0
   34.3123   30.6819   43.6799 H   0  0  0  0  0  0  0  0  0  0  0  0
   32.7612   30.5897   44.6368 H   0  0  0  0  0  0  0  0  0  0  0  0
  1  2  1  0
  1  6  1  0
  3  1  1  0
  3  2  1  0
  4  9  2  0
  5  6  2  0
  5  4  1  0
  6  7  1  0
  7  8  2  0
  9  8  1  0
 10 15  1  0
 10 11  1  0
 11 12  1  0
 11  3  1  0
 13 12  1  0
 14 10  1  0
 14 13  1  0
  1 16  1  6
  2 17  1  0
  2 18  1  0
  3 19  1  1
  4 20  1  0
  5 21  1  0
  8 22  1  0
 10 23  1  6
 11 24  1  1
 12 25  1  0
 12 26  1  0
 14 27  1  0
 14 28  1  0
 29 30  1  0
 30 31  1  0
 31 32  1  0
 30 33  1  0
 33 34  1  0
 29 35  1  0
 29 36  1  0
 30 37  1  0
 31 38  1  0
 31 39  1  0
 33 40  1  0
 33 41  1  0
 15 29  1  0
M  CHG  1  30   1
M  END
>  <DihAtoms>  (1) 
9,14,28,29

>  <DihDeg>  (1) 
178.16112418866493

$$$$
