
     RDKit          3D

 23 24  0  0  0  0  0  0  0  0999 V2000
   36.9660   32.2610   49.6990 F   0  0  0  0  0  0  0  0  0  0  0  0
   37.6610   31.8960   48.5720 C   0  0  0  0  0  0  0  0  0  0  0  0
   37.2930   30.7970   47.8010 C   0  0  0  0  0  0  0  0  0  0  0  0
   38.0250   30.4700   46.6750 C   0  0  0  0  0  0  0  0  0  0  0  0
   39.1330   31.2380   46.3070 C   0  0  0  0  0  0  0  0  0  0  0  0
   39.4550   32.3260   47.1150 C   0  0  0  0  0  0  0  0  0  0  0  0
   38.7480   32.6650   48.2260 C   0  0  0  0  0  0  0  0  0  0  0  0
   36.3740   29.2270   49.3460 C   0  0  0  0  0  0  0  0  0  0  0  0
   36.1440   30.0650   48.2500 C   0  0  0  0  0  0  0  0  0  0  0  0
   34.8560   30.0920   47.7290 C   0  0  0  0  0  0  0  0  0  0  0  0
   33.9000   29.3140   48.3070 N   0  0  0  0  0  0  0  0  0  0  0  0
   34.1620   28.5180   49.3660 C   0  0  0  0  0  0  0  0  0  0  0  0
   35.4040   28.4720   49.8920 N   0  0  0  0  0  0  0  0  0  0  0  0
   39.1170   33.8430   49.0800 C   0  0  0  0  0  0  0  0  0  0  0  0
   40.1420   34.5380   48.4300 F   0  0  0  0  0  0  0  0  0  0  0  0
   38.0000   34.6640   49.1710 F   0  0  0  0  0  0  0  0  0  0  0  0
   39.6080   33.4420   50.2840 F   0  0  0  0  0  0  0  0  0  0  0  0
   37.7341   29.6014   46.0659 H   0  0  0  0  0  0  0  0  0  0  0  0
   39.7274   30.9930   45.4145 H   0  0  0  0  0  0  0  0  0  0  0  0
   40.3244   32.9415   46.8407 H   0  0  0  0  0  0  0  0  0  0  0  0
   37.3851   29.1839   49.7771 H   0  0  0  0  0  0  0  0  0  0  0  0
   34.6136   30.7297   46.8661 H   0  0  0  0  0  0  0  0  0  0  0  0
   33.3597   27.9045   49.8017 H   0  0  0  0  0  0  0  0  0  0  0  0
  2  1  1  0
  3  9  1  0
  3  2  2  0
  4  3  1  0
  5  4  2  0
  5  6  1  0
  6  7  2  0
  7  2  1  0
  7 14  1  0
  8 13  2  0
  9  8  1  0
 10  9  2  0
 10 11  1  0
 11 12  2  0
 12 13  1  0
 14 16  1  0
 14 17  1  0
 15 14  1  0
  4 18  1  0
  5 19  1  0
  6 20  1  0
  8 21  1  0
 10 22  1  0
 12 23  1  0
M  ISO  6  18  14  19  14  20  14  21  14  22  14  23  14
M  END
>  <minimizedAffinity>  (1) 
-6.00918198

>  <minimizedRMSD>  (1) 
1.03167319

$$$$
