
     RDKit          3D

 21 22  0  0  0  0  0  0  0  0999 V2000
   36.5860   32.1370   49.9540 F   0  0  0  0  0  0  0  0  0  0  0  0
   37.3790   31.8840   48.8580 C   0  0  0  0  0  0  0  0  0  0  0  0
   37.1090   30.8530   47.9840 C   0  0  0  0  0  0  0  0  0  0  0  0
   37.9390   30.6310   46.8870 C   0  0  0  0  0  0  0  0  0  0  0  0
   39.0450   31.4660   46.6860 C   0  0  0  0  0  0  0  0  0  0  0  0
   39.2660   32.4830   47.5970 C   0  0  0  0  0  0  0  0  0  0  0  0
   38.4660   32.7170   48.6760 C   0  0  0  0  0  0  0  0  0  0  0  0
   36.1310   29.1310   49.3280 C   0  0  0  0  0  0  0  0  0  0  0  0
   35.9510   30.0530   48.2770 C   0  0  0  0  0  0  0  0  0  0  0  0
   34.7110   30.0870   47.6590 C   0  0  0  0  0  0  0  0  0  0  0  0
   33.7250   29.2460   48.0770 N   0  0  0  0  0  0  0  0  0  0  0  0
   33.9420   28.3750   49.0910 C   0  0  0  0  0  0  0  0  0  0  0  0
   35.1210   28.3160   49.7050 N   0  0  0  0  0  0  0  0  0  0  0  0
   38.7090   33.7470   49.5780 O   0  0  0  0  0  0  0  0  0  0  0  0
   37.7278   29.8092   46.1869 H   0  0  0  0  0  0  0  0  0  0  0  0
   39.7182   31.3175   45.8288 H   0  0  0  0  0  0  0  0  0  0  0  0
   40.1352   33.1393   47.4425 H   0  0  0  0  0  0  0  0  0  0  0  0
   37.1003   29.0745   49.8449 H   0  0  0  0  0  0  0  0  0  0  0  0
   34.5241   30.7904   46.8342 H   0  0  0  0  0  0  0  0  0  0  0  0
   33.1305   27.7055   49.4122 H   0  0  0  0  0  0  0  0  0  0  0  0
   38.1031   33.8829   50.3491 H   0  0  0  0  0  0  0  0  0  0  0  0
  2  1  1  0
  3  9  1  0
  3  2  2  0
  4  3  1  0
  5  4  2  0
  5  6  1  0
  6  7  2  0
  7  2  1  0
  7 14  1  0
  8 13  2  0
  9  8  1  0
 10 11  1  0
 10  9  2  0
 11 12  2  0
 12 13  1  0
  4 15  1  0
  5 16  1  0
  6 17  1  0
  8 18  1  0
 10 19  1  0
 12 20  1  0
 14 21  1  0
M  ISO  7  15  14  16  14  17  14  18  14  19  14  20  14  21   3
M  END
>  <minimizedAffinity>  (1) 
-5.34838486

>  <minimizedRMSD>  (1) 
0.475030959

$$$$
