
     RDKit          3D

 22 23  0  0  0  0  0  0  0  0999 V2000
   36.7140   32.1440   49.9560 F   0  0  0  0  0  0  0  0  0  0  0  0
   37.4570   31.8820   48.8400 C   0  0  0  0  0  0  0  0  0  0  0  0
   37.1430   30.8470   47.9640 C   0  0  0  0  0  0  0  0  0  0  0  0
   37.9270   30.6280   46.8520 C   0  0  0  0  0  0  0  0  0  0  0  0
   39.0360   31.4320   46.5880 C   0  0  0  0  0  0  0  0  0  0  0  0
   39.3120   32.4590   47.4950 C   0  0  0  0  0  0  0  0  0  0  0  0
   38.5560   32.6990   48.6010 C   0  0  0  0  0  0  0  0  0  0  0  0
   36.1700   29.1490   49.3340 C   0  0  0  0  0  0  0  0  0  0  0  0
   35.9880   30.0670   48.3070 C   0  0  0  0  0  0  0  0  0  0  0  0
   34.7180   30.1350   47.7220 C   0  0  0  0  0  0  0  0  0  0  0  0
   33.7420   29.3060   48.1890 N   0  0  0  0  0  0  0  0  0  0  0  0
   33.9600   28.4390   49.1790 C   0  0  0  0  0  0  0  0  0  0  0  0
   35.1700   28.3570   49.7520 N   0  0  0  0  0  0  0  0  0  0  0  0
   38.8950   33.7740   49.4970 N   0  0  0  0  0  0  0  0  0  0  0  0
   37.6749   29.8082   46.1633 H   0  0  0  0  0  0  0  0  0  0  0  0
   39.6671   31.2647   45.7027 H   0  0  0  0  0  0  0  0  0  0  0  0
   40.1823   33.1045   47.3058 H   0  0  0  0  0  0  0  0  0  0  0  0
   37.1558   29.0694   49.8154 H   0  0  0  0  0  0  0  0  0  0  0  0
   34.5124   30.8413   46.9041 H   0  0  0  0  0  0  0  0  0  0  0  0
   33.1440   27.7885   49.5270 H   0  0  0  0  0  0  0  0  0  0  0  0
   38.3182   33.9497   50.3321 H   0  0  0  0  0  0  0  0  0  0  0  0
   39.7143   34.3673   49.3028 H   0  0  0  0  0  0  0  0  0  0  0  0
  2  1  1  0
  3  9  1  0
  3  2  2  0
  4  3  1  0
  5  4  2  0
  5  6  1  0
  6  7  2  0
  7  2  1  0
  7 14  1  0
  8 13  2  0
  9  8  1  0
 10 11  1  0
 10  9  2  0
 11 12  2  0
 12 13  1  0
  4 15  1  0
  5 16  1  0
  6 17  1  0
  8 18  1  0
 10 19  1  0
 12 20  1  0
 14 21  1  0
 14 22  1  0
M  ISO  6  15  14  16  14  17  14  18  14  19  14  20  14
M  END
>  <minimizedAffinity>  (1) 
-5.33312511

>  <minimizedRMSD>  (1) 
0.531657219

$$$$
