
     RDKit          3D

 27 29  0  0  0  0  0  0  0  0999 V2000
   38.1370   31.0220   47.9590 F   0  0  0  0  0  0  0  0  0  0  0  0
   37.2380   30.7310   46.9540 C   0  0  0  0  0  0  0  0  0  0  0  0
   36.0050   30.1670   47.2260 C   0  0  0  0  0  0  0  0  0  0  0  0
   35.1420   29.8970   46.1770 C   0  0  0  0  0  0  0  0  0  0  0  0
   35.5060   30.1880   44.8640 C   0  0  0  0  0  0  0  0  0  0  0  0
   36.7530   30.7530   44.6560 C   0  0  0  0  0  0  0  0  0  0  0  0
   37.6310   31.0330   45.6670 C   0  0  0  0  0  0  0  0  0  0  0  0
   36.8070   29.4180   49.3500 C   0  0  0  0  0  0  0  0  0  0  0  0
   35.7120   29.8990   48.6070 C   0  0  0  0  0  0  0  0  0  0  0  0
   34.4880   30.0650   49.2530 C   0  0  0  0  0  0  0  0  0  0  0  0
   34.4100   29.7510   50.5890 N   0  0  0  0  0  0  0  0  0  0  0  0
   35.4680   29.2970   51.2660 C   0  0  0  0  0  0  0  0  0  0  0  0
   36.6470   29.1320   50.6620 N   0  0  0  0  0  0  0  0  0  0  0  0
   38.9460   31.6310   45.4280 C   0  0  0  0  0  0  0  0  0  0  0  0
   39.1160   32.9300   44.9400 C   0  0  0  0  0  0  0  0  0  0  0  0
   40.4930   33.0490   44.8800 C   0  0  0  0  0  0  0  0  0  0  0  0
   41.1110   31.9290   45.2940 N   0  0  0  0  0  0  0  0  0  0  0  0
   40.1480   31.0570   45.6300 N   0  0  0  0  0  0  0  0  0  0  0  0
   34.1590   29.4482   46.3826 H   0  0  0  0  0  0  0  0  0  0  0  0
   34.8281   29.9768   44.0239 H   0  0  0  0  0  0  0  0  0  0  0  0
   37.0531   30.9889   43.6244 H   0  0  0  0  0  0  0  0  0  0  0  0
   37.7850   29.2760   48.8670 H   0  0  0  0  0  0  0  0  0  0  0  0
   33.6079   30.4374   48.7082 H   0  0  0  0  0  0  0  0  0  0  0  0
   35.3666   29.0561   52.3345 H   0  0  0  0  0  0  0  0  0  0  0  0
   38.3484   33.6707   44.6714 H   0  0  0  0  0  0  0  0  0  0  0  0
   41.0190   33.9514   44.5351 H   0  0  0  0  0  0  0  0  0  0  0  0
   42.1276   31.7708   45.3437 H   0  0  0  0  0  0  0  0  0  0  0  0
  2  3  2  0
  2  1  1  0
  3  9  1  0
  4  3  1  0
  5  4  2  0
  6  5  1  0
  6  7  2  0
  7  2  1  0
  8 13  2  0
  9 10  2  0
  9  8  1  0
 10 11  1  0
 11 12  2  0
 13 12  1  0
 14 18  2  0
 14  7  1  0
 15 14  1  0
 16 15  2  0
 16 17  1  0
 17 18  1  0
  4 19  1  0
  5 20  1  0
  6 21  1  0
  8 22  1  0
 10 23  1  0
 12 24  1  0
 15 25  1  0
 16 26  1  0
 17 27  1  0
M  ISO  8  19  14  20  14  21  14  22  14  23  14  24  14  25  14  26  14
M  ISO  1  27   9
M  END
>  <minimizedAffinity>  (1) 
-5.23042011

>  <minimizedRMSD>  (1) 
4.3737421

$$$$
