
     RDKit          3D

 33 36  0  0  0  0  0  0  0  0999 V2000
   33.9710   30.0170   47.6400 F   0  0  0  0  0  0  0  0  0  0  0  0
   34.0450   29.4530   46.3820 C   0  0  0  0  0  0  0  0  0  0  0  0
   33.0150   28.6900   45.8700 C   0  0  0  0  0  0  0  0  0  0  0  0
   33.1470   28.1470   44.5960 C   0  0  0  0  0  0  0  0  0  0  0  0
   34.3000   28.3670   43.8390 C   0  0  0  0  0  0  0  0  0  0  0  0
   35.2920   29.1410   44.4130 C   0  0  0  0  0  0  0  0  0  0  0  0
   35.1980   29.6890   45.6590 C   0  0  0  0  0  0  0  0  0  0  0  0
   36.4830   30.4250   47.5750 C   0  0  0  0  0  0  0  0  0  0  0  0
   36.2910   30.4940   46.1920 C   0  0  0  0  0  0  0  0  0  0  0  0
   37.0650   31.2650   45.3500 C   0  0  0  0  0  0  0  0  0  0  0  0
   38.0870   32.0070   45.9220 C   0  0  0  0  0  0  0  0  0  0  0  0
   39.0040   32.8430   45.3940 N   0  0  0  0  0  0  0  0  0  0  0  0
   39.7940   33.3260   46.3850 C   0  0  0  0  0  0  0  0  0  0  0  0
   39.3540   32.7740   47.5520 N   0  0  0  0  0  0  0  0  0  0  0  0
   38.3110   31.9630   47.3010 C   0  0  0  0  0  0  0  0  0  0  0  0
   37.5180   31.1760   48.1440 C   0  0  0  0  0  0  0  0  0  0  0  0
   32.0650   27.6390   47.7910 C   0  0  0  0  0  0  0  0  0  0  0  0
   31.8670   28.5110   46.7060 C   0  0  0  0  0  0  0  0  0  0  0  0
   30.6130   29.0880   46.5640 C   0  0  0  0  0  0  0  0  0  0  0  0
   29.6410   28.7840   47.4790 N   0  0  0  0  0  0  0  0  0  0  0  0
   29.8660   27.9480   48.5030 C   0  0  0  0  0  0  0  0  0  0  0  0
   31.0690   27.3780   48.6600 N   0  0  0  0  0  0  0  0  0  0  0  0
   32.3325   27.5363   44.1793 H   0  0  0  0  0  0  0  0  0  0  0  0
   34.4140   27.9432   42.8304 H   0  0  0  0  0  0  0  0  0  0  0  0
   36.2081   29.3251   43.8325 H   0  0  0  0  0  0  0  0  0  0  0  0
   35.8352   29.7947   48.2019 H   0  0  0  0  0  0  0  0  0  0  0  0
   36.8786   31.2902   44.2662 H   0  0  0  0  0  0  0  0  0  0  0  0
   39.0908   33.0779   44.3949 H   0  0  0  0  0  0  0  0  0  0  0  0
   40.6313   34.0299   46.2694 H   0  0  0  0  0  0  0  0  0  0  0  0
   37.7037   31.1483   49.2279 H   0  0  0  0  0  0  0  0  0  0  0  0
   33.0467   27.1633   47.9323 H   0  0  0  0  0  0  0  0  0  0  0  0
   30.4039   29.7766   45.7321 H   0  0  0  0  0  0  0  0  0  0  0  0
   29.0592   27.7288   49.2179 H   0  0  0  0  0  0  0  0  0  0  0  0
  2  1  1  0
  3  2  2  0
  3 18  1  0
  4  3  1  0
  5  6  1  0
  5  4  2  0
  6  7  2  0
  7  9  1  0
  7  2  1  0
  8 16  2  0
  9  8  1  0
 10 11  1  0
 10  9  2  0
 11 15  2  0
 12 11  1  0
 12 13  1  0
 13 14  2  0
 15 14  1  0
 15 16  1  0
 17 22  2  0
 18 17  1  0
 19 18  2  0
 19 20  1  0
 20 21  2  0
 21 22  1  0
  4 23  1  0
  5 24  1  0
  6 25  1  0
  8 26  1  0
 10 27  1  0
 12 28  1  0
 13 29  1  0
 16 30  1  0
 17 31  1  0
 19 32  1  0
 21 33  1  0
M  ISO  8  23  14  24  14  25  14  26  14  27  14  28   9  29  14  30  14
M  ISO  3  31  14  32  14  33  14
M  END
>  <minimizedAffinity>  (1) 
-5.02208185

>  <minimizedRMSD>  (1) 
5.8191247

$$$$
