
     RDKit          3D

 35 37  0  0  1  0  0  0  0  0999 V2000
   34.9520   27.9040   49.8320 F   0  0  0  0  0  0  0  0  0  0  0  0
   35.0250   28.6450   48.6790 C   0  0  0  0  0  0  0  0  0  0  0  0
   34.1870   28.4130   47.6000 C   0  0  0  0  0  0  0  0  0  0  0  0
   34.3150   29.1980   46.4700 C   0  0  0  0  0  0  0  0  0  0  0  0
   35.2680   30.2070   46.4120 C   0  0  0  0  0  0  0  0  0  0  0  0
   36.0760   30.4000   47.5040 C   0  0  0  0  0  0  0  0  0  0  0  0
   35.9840   29.6470   48.6460 C   0  0  0  0  0  0  0  0  0  0  0  0
   33.6540   26.1250   47.2480 C   0  0  0  0  0  0  0  0  0  0  0  0
   33.2430   27.3570   47.7550 C   0  0  0  0  0  0  0  0  0  0  0  0
   31.9750   27.4210   48.3490 C   0  0  0  0  0  0  0  0  0  0  0  0
   31.2270   26.2850   48.3940 N   0  0  0  0  0  0  0  0  0  0  0  0
   31.6610   25.1180   47.8930 C   0  0  0  0  0  0  0  0  0  0  0  0
   32.8700   25.0190   47.3180 N   0  0  0  0  0  0  0  0  0  0  0  0
   37.0600   29.9260   50.0590 S   0  0  0  0  0  0  0  0  0  0  0  0
   38.8160   31.0090   48.2970 N   0  0  0  0  0  0  0  0  0  0  0  0
   38.1890   31.2600   49.5790 C   0  0  1  0  0  0  0  0  0  0  0  0
   37.4650   32.6150   49.5510 C   0  0  0  0  0  0  0  0  0  0  0  0
   38.5200   33.6120   49.5320 N   0  0  0  0  0  0  0  0  0  0  0  0
   39.3080   33.4330   48.3590 C   0  0  0  0  0  0  0  0  0  0  0  0
   39.0180   32.2200   47.5430 C   0  0  0  0  0  0  0  0  0  0  0  0
   33.6554   29.0221   45.6075 H   0  0  0  0  0  0  0  0  0  0  0  0
   35.3721   30.8345   45.5146 H   0  0  0  0  0  0  0  0  0  0  0  0
   36.8334   31.1966   47.4612 H   0  0  0  0  0  0  0  0  0  0  0  0
   34.6447   26.0467   46.7764 H   0  0  0  0  0  0  0  0  0  0  0  0
   31.5946   28.3644   48.7677 H   0  0  0  0  0  0  0  0  0  0  0  0
   31.0161   24.2290   47.9545 H   0  0  0  0  0  0  0  0  0  0  0  0
   39.7298   30.5615   48.4567 H   0  0  0  0  0  0  0  0  0  0  0  0
   38.9803   31.2928   50.3424 H   0  0  0  0  0  0  0  0  0  0  0  0
   36.8391   32.6990   48.6504 H   0  0  0  0  0  0  0  0  0  0  0  0
   36.7967   32.7411   50.4156 H   0  0  0  0  0  0  0  0  0  0  0  0
   38.1042   34.5543   49.5279 H   0  0  0  0  0  0  0  0  0  0  0  0
   39.1556   34.3126   47.7163 H   0  0  0  0  0  0  0  0  0  0  0  0
   40.3397   33.3032   48.7178 H   0  0  0  0  0  0  0  0  0  0  0  0
   39.8649   32.0586   46.8599 H   0  0  0  0  0  0  0  0  0  0  0  0
   38.0685   32.4197   47.0249 H   0  0  0  0  0  0  0  0  0  0  0  0
  2  1  1  0
  3  9  1  0
  3  2  2  0
  4  3  1  0
  5  4  2  0
  5  6  1  0
  6  7  2  0
  7  2  1  0
  7 14  1  0
  8 13  2  0
  8  9  1  0
  9 10  2  0
 10 11  1  0
 12 11  2  0
 13 12  1  0
 15 16  1  0
 16 14  1  0
 17 16  1  0
 18 17  1  0
 19 18  1  0
 20 15  1  0
 20 19  1  0
  4 21  1  0
  5 22  1  0
  6 23  1  0
  8 24  1  0
 10 25  1  0
 12 26  1  0
 15 27  1  0
 16 28  1  1
 17 29  1  0
 17 30  1  0
 18 31  1  0
 19 32  1  0
 19 33  1  0
 20 34  1  0
 20 35  1  0
M  ISO  8  21  14  22  14  23  14  24  14  25  14  26  14  27   5  28  13
M  ISO  7  29  13  30  13  31   5  32  13  33  13  34  13  35  13
M  END
>  <minimizedAffinity>  (1) 
-5.5036788

>  <minimizedRMSD>  (1) 
4.32785606

$$$$
