
     RDKit          3D

 48 52  0  0  0  0  0  0  0  0999 V2000
   37.9450   31.2560   46.5190 C   0  0  0  0  0  0  0  0  0  0  0  0
   38.3850   31.4710   45.2390 N   0  0  0  0  0  0  0  0  0  0  0  0
   39.2260   32.4870   44.9730 C   0  0  0  0  0  0  0  0  0  0  0  0
   39.6770   33.3290   45.9070 N   0  0  0  0  0  0  0  0  0  0  0  0
   39.2800   33.1670   47.1780 C   0  0  0  0  0  0  0  0  0  0  0  0
   39.7520   34.0240   48.1410 C   0  0  0  0  0  0  0  0  0  0  0  0
   39.3630   33.8640   49.4610 C   0  0  0  0  0  0  0  0  0  0  0  0
   38.4830   32.8190   49.8050 C   0  0  0  0  0  0  0  0  0  0  0  0
   38.0570   32.0070   48.7800 C   0  0  0  0  0  0  0  0  0  0  0  0
   38.4210   32.1380   47.4770 C   0  0  0  0  0  0  0  0  0  0  0  0
   37.1490   31.1120   49.4180 N   0  0  0  0  0  0  0  0  0  0  0  0
   35.7000   31.0340   49.6390 C   0  0  0  0  0  0  0  0  0  0  0  0
   35.4000   29.6540   50.1430 C   0  0  0  0  0  0  0  0  0  0  0  0
   35.9040   29.5870   51.4430 O   0  0  0  0  0  0  0  0  0  0  0  0
   37.2900   29.7550   51.4570 C   0  0  0  0  0  0  0  0  0  0  0  0
   37.8250   29.9930   50.0540 C   0  0  0  0  0  0  0  0  0  0  0  0
   36.8620   29.9710   47.0230 S   0  0  0  0  0  0  0  0  0  0  0  0
   34.4010   28.4810   47.5810 F   0  0  0  0  0  0  0  0  0  0  0  0
   34.3110   29.1360   46.3920 C   0  0  0  0  0  0  0  0  0  0  0  0
   33.1660   29.0440   45.6260 C   0  0  0  0  0  0  0  0  0  0  0  0
   33.1140   29.7410   44.4060 C   0  0  0  0  0  0  0  0  0  0  0  0
   34.1960   30.5060   43.9820 C   0  0  0  0  0  0  0  0  0  0  0  0
   35.2990   30.5540   44.7880 C   0  0  0  0  0  0  0  0  0  0  0  0
   35.3930   29.8790   46.0040 C   0  0  0  0  0  0  0  0  0  0  0  0
   32.1950   26.8910   45.7780 C   0  0  0  0  0  0  0  0  0  0  0  0
   32.1040   28.2480   46.1120 C   0  0  0  0  0  0  0  0  0  0  0  0
   31.0060   28.6380   46.8620 C   0  0  0  0  0  0  0  0  0  0  0  0
   30.0880   27.6800   47.2240 N   0  0  0  0  0  0  0  0  0  0  0  0
   30.2200   26.4120   46.8840 C   0  0  0  0  0  0  0  0  0  0  0  0
   31.2730   25.9740   46.1510 N   0  0  0  0  0  0  0  0  0  0  0  0
   39.5589   32.6316   43.9346 H   0  0  0  0  0  0  0  0  0  0  0  0
   40.4389   34.8375   47.8646 H   0  0  0  0  0  0  0  0  0  0  0  0
   39.7389   34.5486   50.2356 H   0  0  0  0  0  0  0  0  0  0  0  0
   38.1529   32.6604   50.8422 H   0  0  0  0  0  0  0  0  0  0  0  0
   35.3920   31.7822   50.3842 H   0  0  0  0  0  0  0  0  0  0  0  0
   35.1522   31.2360   48.7067 H   0  0  0  0  0  0  0  0  0  0  0  0
   34.3140   29.4790   50.1473 H   0  0  0  0  0  0  0  0  0  0  0  0
   35.8576   28.8880   49.4997 H   0  0  0  0  0  0  0  0  0  0  0  0
   37.5410   30.6196   52.0890 H   0  0  0  0  0  0  0  0  0  0  0  0
   37.7497   28.8389   51.8562 H   0  0  0  0  0  0  0  0  0  0  0  0
   37.6657   29.0872   49.4505 H   0  0  0  0  0  0  0  0  0  0  0  0
   38.8974   30.2275   50.1245 H   0  0  0  0  0  0  0  0  0  0  0  0
   32.2104   29.6810   43.7816 H   0  0  0  0  0  0  0  0  0  0  0  0
   34.1649   31.0545   43.0290 H   0  0  0  0  0  0  0  0  0  0  0  0
   36.1581   31.1574   44.4596 H   0  0  0  0  0  0  0  0  0  0  0  0
   33.0575   26.5547   45.1839 H   0  0  0  0  0  0  0  0  0  0  0  0
   30.8719   29.6882   47.1605 H   0  0  0  0  0  0  0  0  0  0  0  0
   29.4543   25.6901   47.2042 H   0  0  0  0  0  0  0  0  0  0  0  0
  1 17  1  0
  1 10  1  0
  2  1  2  0
  3  2  1  0
  3  4  2  0
  4  5  1  0
  5 10  2  0
  5  6  1  0
  6  7  2  0
  7  8  1  0
  9 11  1  0
  9  8  2  0
 10  9  1  0
 11 12  1  0
 11 16  1  0
 12 13  1  0
 13 14  1  0
 14 15  1  0
 16 15  1  0
 19 18  1  0
 20 26  1  0
 20 19  2  0
 21 20  1  0
 22 21  2  0
 22 23  1  0
 23 24  2  0
 24 19  1  0
 24 17  1  0
 25 26  2  0
 25 30  1  0
 26 27  1  0
 27 28  2  0
 29 28  1  0
 30 29  2  0
  3 31  1  0
  6 32  1  0
  7 33  1  0
  8 34  1  0
 12 35  1  0
 12 36  1  0
 13 37  1  0
 13 38  1  0
 15 39  1  0
 15 40  1  0
 16 41  1  0
 16 42  1  0
 21 43  1  0
 22 44  1  0
 23 45  1  0
 25 46  1  0
 27 47  1  0
 29 48  1  0
M  ISO  8  31  14  32  14  33  14  34  14  35  13  36  13  37  13  38  13
M  ISO  8  39  13  40  13  41  13  42  13  43  14  44  14  45  14  46  14
M  ISO  2  47  14  48  14
M  END
>  <minimizedAffinity>  (1) 
-5.90018463

>  <minimizedRMSD>  (1) 
1.32262015

$$$$
