
     RDKit          3D

 34 36  0  0  1  0  0  0  0  0999 V2000
   38.2930   32.4500   47.7630 C   0  0  1  0  0  0  0  0  0  0  0  0
   37.4460   32.2430   49.0250 C   0  0  2  0  0  0  0  0  0  0  0  0
   38.5920   32.3280   50.0080 C   0  0  0  0  0  0  0  0  0  0  0  0
   39.3570   33.4070   49.5920 O   0  0  0  0  0  0  0  0  0  0  0  0
   39.1190   33.6470   48.2670 C   0  0  0  0  0  0  0  0  0  0  0  0
   36.7460   30.9530   49.0180 C   0  0  0  0  0  0  0  0  0  0  0  0
   35.7620   30.6890   48.0550 C   0  0  0  0  0  0  0  0  0  0  0  0
   35.1200   29.4490   48.1190 C   0  0  0  0  0  0  0  0  0  0  0  0
   35.4820   28.5710   49.1060 N   0  0  0  0  0  0  0  0  0  0  0  0
   36.4490   28.8630   50.0310 C   0  0  0  0  0  0  0  0  0  0  0  0
   37.0740   30.0630   49.9720 N   0  0  0  0  0  0  0  0  0  0  0  0
   39.1580   31.4360   47.5390 O   0  0  0  0  0  0  0  0  0  0  0  0
   39.8440   32.2600   45.4440 C   0  0  2  0  0  0  0  0  0  0  0  0
   39.3730   31.0520   46.2440 C   0  0  2  0  0  0  0  0  0  0  0  0
   38.1010   30.7300   45.4900 C   0  0  0  0  0  0  0  0  0  0  0  0
   38.5470   30.8000   44.1660 O   0  0  0  0  0  0  0  0  0  0  0  0
   39.3280   31.9350   44.0630 C   0  0  0  0  0  0  0  0  0  0  0  0
   41.2220   32.3180   45.4440 O   0  0  0  0  0  0  0  0  0  0  0  0
   37.7063   32.5510   46.8381 H   0  0  0  0  0  0  0  0  0  0  0  0
   36.6090   32.9341   49.2033 H   0  0  0  0  0  0  0  0  0  0  0  0
   38.2130   32.4955   51.0270 H   0  0  0  0  0  0  0  0  0  0  0  0
   39.1781   31.3975   50.0333 H   0  0  0  0  0  0  0  0  0  0  0  0
   40.0676   33.7170   47.7145 H   0  0  0  0  0  0  0  0  0  0  0  0
   38.5852   34.5972   48.1183 H   0  0  0  0  0  0  0  0  0  0  0  0
   35.5057   31.4273   47.2809 H   0  0  0  0  0  0  0  0  0  0  0  0
   34.3393   29.1835   47.3910 H   0  0  0  0  0  0  0  0  0  0  0  0
   36.7141   28.1335   50.8104 H   0  0  0  0  0  0  0  0  0  0  0  0
   39.4953   33.2275   45.8342 H   0  0  0  0  0  0  0  0  0  0  0  0
   40.0584   30.1950   46.3202 H   0  0  0  0  0  0  0  0  0  0  0  0
   37.7286   29.7250   45.7377 H   0  0  0  0  0  0  0  0  0  0  0  0
   37.2580   31.3984   45.7191 H   0  0  0  0  0  0  0  0  0  0  0  0
   40.1712   31.7497   43.3814 H   0  0  0  0  0  0  0  0  0  0  0  0
   38.7399   32.7740   43.6627 H   0  0  0  0  0  0  0  0  0  0  0  0
   41.5517   32.3319   46.3774 H   0  0  0  0  0  0  0  0  0  0  0  0
  1  5  1  0
  1  2  1  0
  2  3  1  0
  4  3  1  0
  5  4  1  0
  6  2  1  0
  6 11  2  0
  7  8  2  0
  7  6  1  0
  8  9  1  0
  9 10  2  0
 11 10  1  0
 12  1  1  0
 13 18  1  0
 13 14  1  0
 14 12  1  0
 15 14  1  0
 16 15  1  0
 17 16  1  0
 17 13  1  0
  1 19  1  6
  2 20  1  1
  3 21  1  0
  3 22  1  0
  5 23  1  0
  5 24  1  0
  7 25  1  0
  8 26  1  0
 10 27  1  0
 13 28  1  1
 14 29  1  1
 15 30  1  0
 15 31  1  0
 17 32  1  0
 17 33  1  0
 18 34  1  0
M  ISO  8  19  13  20  13  21  13  22  13  23  13  24  13  25  14  26  14
M  ISO  8  27  14  28  13  29  13  30  13  31  13  32  13  33  13  34   3
M  END
>  <minimizedAffinity>  (1) 
-4.61511374

>  <minimizedRMSD>  (1) 
4.17632961

$$$$
