
     RDKit          3D

 38 40  0  0  1  0  0  0  0  0999 V2000
   37.5400   31.9360   47.9160 C   0  0  1  0  0  0  0  0  0  0  0  0
   36.8100   31.3830   49.1440 C   0  0  2  0  0  0  0  0  0  0  0  0
   38.0360   30.9070   49.8960 C   0  0  0  0  0  0  0  0  0  0  0  0
   38.9510   31.9370   49.7860 O   0  0  0  0  0  0  0  0  0  0  0  0
   38.6530   32.6880   48.6880 C   0  0  0  0  0  0  0  0  0  0  0  0
   35.8820   30.3030   48.7860 C   0  0  0  0  0  0  0  0  0  0  0  0
   35.1100   30.4120   47.6200 C   0  0  0  0  0  0  0  0  0  0  0  0
   34.2150   29.3510   47.3400 C   0  0  0  0  0  0  0  0  0  0  0  0
   34.1620   28.2980   48.2130 N   0  0  0  0  0  0  0  0  0  0  0  0
   34.9290   28.2340   49.3320 C   0  0  0  0  0  0  0  0  0  0  0  0
   35.7860   29.2420   49.6100 N   0  0  0  0  0  0  0  0  0  0  0  0
   38.1940   30.9710   47.2110 O   0  0  0  0  0  0  0  0  0  0  0  0
   38.6070   32.0500   45.0610 C   0  0  2  0  0  0  0  0  0  0  0  0
   39.1080   31.5870   46.3750 C   0  0  2  0  0  0  0  0  0  0  0  0
   40.3010   30.6670   46.1050 C   0  0  0  0  0  0  0  0  0  0  0  0
   40.9920   31.0910   44.9940 O   0  0  0  0  0  0  0  0  0  0  0  0
   41.0430   32.4700   44.9690 C   0  0  0  0  0  0  0  0  0  0  0  0
   39.6970   32.9710   44.4940 C   0  0  2  0  0  0  0  0  0  0  0  0
   37.4500   32.7780   45.0520 O   0  0  0  0  0  0  0  0  0  0  0  0
   39.5390   34.2550   45.0500 O   0  0  0  0  0  0  0  0  0  0  0  0
   36.8860   32.4650   47.2072 H   0  0  0  0  0  0  0  0  0  0  0  0
   36.1544   32.0737   49.6946 H   0  0  0  0  0  0  0  0  0  0  0  0
   37.7920   30.7189   50.9520 H   0  0  0  0  0  0  0  0  0  0  0  0
   38.4279   29.9635   49.4882 H   0  0  0  0  0  0  0  0  0  0  0  0
   39.5443   32.7997   48.0531 H   0  0  0  0  0  0  0  0  0  0  0  0
   38.3186   33.6948   48.9789 H   0  0  0  0  0  0  0  0  0  0  0  0
   35.1960   31.2825   46.9531 H   0  0  0  0  0  0  0  0  0  0  0  0
   33.5782   29.3724   46.4433 H   0  0  0  0  0  0  0  0  0  0  0  0
   34.8535   27.3687   50.0069 H   0  0  0  0  0  0  0  0  0  0  0  0
   38.3820   31.1366   44.4908 H   0  0  0  0  0  0  0  0  0  0  0  0
   39.3785   32.4906   46.9411 H   0  0  0  0  0  0  0  0  0  0  0  0
   40.9726   30.6794   46.9761 H   0  0  0  0  0  0  0  0  0  0  0  0
   39.9313   29.6464   45.9271 H   0  0  0  0  0  0  0  0  0  0  0  0
   41.2517   32.8556   45.9778 H   0  0  0  0  0  0  0  0  0  0  0  0
   41.8419   32.8140   44.2956 H   0  0  0  0  0  0  0  0  0  0  0  0
   39.6281   32.9905   43.3963 H   0  0  0  0  0  0  0  0  0  0  0  0
   37.1655   32.9570   45.9832 H   0  0  0  0  0  0  0  0  0  0  0  0
   39.5470   34.1901   46.0378 H   0  0  0  0  0  0  0  0  0  0  0  0
  1  5  1  0
  1  2  1  0
  2  3  1  0
  4  3  1  0
  5  4  1  0
  6  2  1  0
  6 11  1  0
  7  6  2  0
  8  7  1  0
  8  9  2  0
  9 10  1  0
 10 11  2  0
 12  1  1  0
 13 19  1  0
 13 14  1  0
 14 12  1  0
 15 14  1  0
 16 15  1  0
 17 16  1  0
 18 17  1  0
 18 20  1  0
 18 13  1  0
  1 21  1  6
  2 22  1  1
  3 23  1  0
  3 24  1  0
  5 25  1  0
  5 26  1  0
  7 27  1  0
  8 28  1  0
 10 29  1  0
 13 30  1  6
 14 31  1  1
 15 32  1  0
 15 33  1  0
 17 34  1  0
 17 35  1  0
 18 36  1  6
 19 37  1  0
 20 38  1  0
M  ISO  8  21  13  22  13  23  13  24  13  25  13  26  13  27  14  28  14
M  ISO  8  29  14  30  13  31  13  32  13  33  13  34  13  35  13  36  13
M  ISO  2  37   3  38   3
M  END
>  <minimizedAffinity>  (1) 
-5.48087454

>  <minimizedRMSD>  (1) 
4.57547379

$$$$
