
     RDKit          3D

 32 33  0  0  0  0  0  0  0  0999 V2000
   35.6920   29.2680   51.1130 O   0  0  0  0  0  0  0  0  0  0  0  0
   36.8930   29.1650   50.4030 C   0  0  0  0  0  0  0  0  0  0  0  0
   37.7070   30.3870   50.6870 C   0  0  0  0  0  0  0  0  0  0  0  0
   38.0960   31.1410   49.5000 C   0  0  0  0  0  0  0  0  0  0  0  0
   38.5350   32.4650   49.5680 C   0  0  0  0  0  0  0  0  0  0  0  0
   38.8860   33.1000   48.3690 C   0  0  0  0  0  0  0  0  0  0  0  0
   38.7770   32.3820   47.1890 N   0  0  0  0  0  0  0  0  0  0  0  0
   38.3450   31.0970   47.1760 C   0  0  0  0  0  0  0  0  0  0  0  0
   38.0050   30.4840   48.3480 N   0  0  0  0  0  0  0  0  0  0  0  0
   34.6380   30.5340   49.0970 O   0  0  0  0  0  0  0  0  0  0  0  0
   34.3620   29.3900   50.0900 P   0  0  2  0  0  0  0  0  0  0  0  0
   32.9710   29.8170   50.9090 O   0  0  0  0  0  0  0  0  0  0  0  0
   34.0970   27.9550   49.2660 O   0  0  0  0  0  0  0  0  0  0  0  0
   33.1780   27.2880   45.8870 N   0  0  0  0  0  0  0  0  0  0  0  0
   33.8770   27.5370   47.0340 C   0  0  0  0  0  0  0  0  0  0  0  0
   33.2140   27.7180   48.2560 C   0  0  0  0  0  0  0  0  0  0  0  0
   31.8300   27.6360   48.2450 C   0  0  0  0  0  0  0  0  0  0  0  0
   31.3380   27.8130   49.3910 O   0  0  0  0  0  0  0  0  0  0  0  0
   31.1840   27.3880   47.0910 N   0  0  0  0  0  0  0  0  0  0  0  0
   31.8450   27.2200   45.9440 C   0  0  0  0  0  0  0  0  0  0  0  0
   31.1250   26.9930   44.9270 O   0  0  0  0  0  0  0  0  0  0  0  0
   36.6843   29.0983   49.3250 H   0  0  0  0  0  0  0  0  0  0  0  0
   37.4411   28.2621   50.7103 H   0  0  0  0  0  0  0  0  0  0  0  0
   37.1174   31.0496   51.3377 H   0  0  0  0  0  0  0  0  0  0  0  0
   38.6386   30.0412   51.1587 H   0  0  0  0  0  0  0  0  0  0  0  0
   38.6030   32.9921   50.5311 H   0  0  0  0  0  0  0  0  0  0  0  0
   39.2390   34.1418   48.3648 H   0  0  0  0  0  0  0  0  0  0  0  0
   38.2686   30.5500   46.2247 H   0  0  0  0  0  0  0  0  0  0  0  0
   33.1338   29.7670   51.8843 H   0  0  0  0  0  0  0  0  0  0  0  0
   33.6709   27.1548   44.9924 H   0  0  0  0  0  0  0  0  0  0  0  0
   34.9748   27.5963   46.9983 H   0  0  0  0  0  0  0  0  0  0  0  0
   30.1558   27.3264   47.0930 H   0  0  0  0  0  0  0  0  0  0  0  0
  2  3  1  0
  2  1  1  0
  4  5  2  0
  4  3  1  0
  6  5  1  0
  7  6  2  0
  8  7  1  0
  8  9  2  0
  9  4  1  0
 11 10  2  0
 11 12  1  0
 11  1  1  0
 13 11  1  0
 14 20  1  0
 14 15  1  0
 15 16  2  0
 16 13  1  0
 17 16  1  0
 17 18  2  0
 19 17  1  0
 20 19  1  0
 21 20  2  0
  2 22  1  0
  2 23  1  0
  3 24  1  0
  3 25  1  0
  5 26  1  0
  6 27  1  0
  8 28  1  0
 12 29  1  0
 14 30  1  0
 15 31  1  0
 19 32  1  0
M  ISO  8  22   8  23   8  24   8  25   8  26  14  27  14  28  14  29   3
M  ISO  3  30   9  31  14  32   9
M  END
>  <minimizedAffinity>  (1) 
-5.20590782

>  <minimizedRMSD>  (1) 
0.765794396

$$$$
