
     RDKit          3D

 38 39  0  0  0  0  0  0  0  0999 V2000
   38.9250   31.0530   47.0120 C   0  0  0  0  0  0  0  0  0  0  0  0
   39.8840   31.5570   45.9850 C   0  0  0  0  0  0  0  0  0  0  0  0
   39.8010   30.9110   44.6850 C   0  0  0  0  0  0  0  0  0  0  0  0
   40.3660   31.4430   43.5320 C   0  0  0  0  0  0  0  0  0  0  0  0
   40.2170   30.7230   42.3380 C   0  0  0  0  0  0  0  0  0  0  0  0
   39.5230   29.5330   42.3750 N   0  0  0  0  0  0  0  0  0  0  0  0
   38.9900   29.0540   43.5260 C   0  0  0  0  0  0  0  0  0  0  0  0
   39.1390   29.7570   44.6750 N   0  0  0  0  0  0  0  0  0  0  0  0
   38.1640   32.1220   47.4740 O   0  0  0  0  0  0  0  0  0  0  0  0
   38.1280   33.3080   49.7910 O   0  0  0  0  0  0  0  0  0  0  0  0
   37.8050   31.9680   49.1180 P   0  0  2  0  0  0  0  0  0  0  0  0
   38.7890   30.8490   49.8710 O   0  0  0  0  0  0  0  0  0  0  0  0
   36.1910   31.5810   49.3760 O   0  0  0  0  0  0  0  0  0  0  0  0
   35.9490   30.2490   49.1120 C   0  0  0  0  0  0  0  0  0  0  0  0
   34.9040   29.6510   50.0250 C   0  0  0  0  0  0  0  0  0  0  0  0
   34.6350   28.2290   49.5190 C   0  0  0  0  0  0  0  0  0  0  0  0
   33.6720   28.3990   48.3590 C   0  0  0  0  0  0  0  0  0  0  0  0
   33.9880   29.7030   47.6370 C   0  0  0  0  0  0  0  0  0  0  0  0
   35.4710   30.0080   47.6900 C   0  0  0  0  0  0  0  0  0  0  0  0
   39.4806   30.6050   47.8490 H   0  0  0  0  0  0  0  0  0  0  0  0
   38.2687   30.2893   46.5693 H   0  0  0  0  0  0  0  0  0  0  0  0
   39.6956   32.6314   45.8429 H   0  0  0  0  0  0  0  0  0  0  0  0
   40.8889   31.3322   46.3719 H   0  0  0  0  0  0  0  0  0  0  0  0
   40.9121   32.3976   43.5553 H   0  0  0  0  0  0  0  0  0  0  0  0
   40.6432   31.0984   41.3960 H   0  0  0  0  0  0  0  0  0  0  0  0
   38.4403   28.1012   43.5272 H   0  0  0  0  0  0  0  0  0  0  0  0
   38.7055   30.9440   50.8529 H   0  0  0  0  0  0  0  0  0  0  0  0
   36.9237   29.7664   49.2766 H   0  0  0  0  0  0  0  0  0  0  0  0
   35.2774   29.6206   51.0592 H   0  0  0  0  0  0  0  0  0  0  0  0
   33.9833   30.2529   50.0186 H   0  0  0  0  0  0  0  0  0  0  0  0
   35.5687   27.7565   49.1800 H   0  0  0  0  0  0  0  0  0  0  0  0
   34.2218   27.5820   50.3068 H   0  0  0  0  0  0  0  0  0  0  0  0
   33.7825   27.5555   47.6616 H   0  0  0  0  0  0  0  0  0  0  0  0
   32.6387   28.4243   48.7353 H   0  0  0  0  0  0  0  0  0  0  0  0
   33.4347   30.5233   48.1176 H   0  0  0  0  0  0  0  0  0  0  0  0
   33.6888   29.6013   46.5834 H   0  0  0  0  0  0  0  0  0  0  0  0
   36.0246   29.1562   47.2682 H   0  0  0  0  0  0  0  0  0  0  0  0
   35.6516   30.9247   47.1095 H   0  0  0  0  0  0  0  0  0  0  0  0
  1  9  1  0
  2  1  1  0
  3  2  1  0
  4  3  2  0
  5  6  2  0
  5  4  1  0
  6  7  1  0
  7  8  2  0
  8  3  1  0
  9 11  1  0
 11 13  1  0
 11 10  2  0
 11 12  1  0
 14 13  1  0
 14 15  1  0
 16 15  1  0
 17 16  1  0
 18 19  1  0
 18 17  1  0
 19 14  1  0
  1 20  1  0
  1 21  1  0
  2 22  1  0
  2 23  1  0
  4 24  1  0
  5 25  1  0
  7 26  1  0
 12 27  1  0
 14 28  1  0
 15 29  1  0
 15 30  1  0
 16 31  1  0
 16 32  1  0
 17 33  1  0
 17 34  1  0
 18 35  1  0
 18 36  1  0
 19 37  1  0
 19 38  1  0
M  ISO  8  20   8  21   8  22   8  23   8  24  14  25  14  26  14  27   3
M  ISO  8  28  13  29  13  30  13  31  13  32  13  33  13  34  13  35  13
M  ISO  3  36  13  37  13  38  13
M  END
>  <minimizedAffinity>  (1) 
-5.20027781

>  <minimizedRMSD>  (1) 
4.96604872

$$$$
