
     RDKit          3D

 34 34  0  0  0  0  0  0  0  0999 V2000
   37.7276   30.5094   50.8386 C   0  0  0  0  0  0  0  0  0  0  0  0
   38.1109   31.2085   49.6129 C   0  0  0  0  0  0  0  0  0  0  0  0
   38.5448   32.5186   49.6034 C   0  0  0  0  0  0  0  0  0  0  0  0
   38.8909   33.1046   48.3760 C   0  0  0  0  0  0  0  0  0  0  0  0
   38.7790   32.3387   47.2420 N   0  0  0  0  0  0  0  0  0  0  0  0
   38.3433   31.0430   47.3040 C   0  0  0  0  0  0  0  0  0  0  0  0
   38.0124   30.4867   48.4879 N   0  0  0  0  0  0  0  0  0  0  0  0
   36.9515   29.2553   50.6181 C   0  0  0  0  0  0  0  0  0  0  0  0
   35.7116   29.3911   51.2356 O   0  0  0  0  0  0  0  0  0  0  0  0
   34.6894   30.5425   49.1287 O   0  0  0  0  0  0  0  0  0  0  0  0
   34.4502   29.3903   50.0989 P   0  0  2  0  0  0  0  0  0  0  0  0
   32.9666   29.6741   50.8169 O   0  0  0  0  0  0  0  0  0  0  0  0
   34.4009   27.9211   49.2761 O   0  0  0  0  0  0  0  0  0  0  0  0
   37.1785   31.2492   51.4741 H   0  0  0  0  0  0  0  0  0  0  0  0
   38.6731   30.3153   51.3969 H   0  0  0  0  0  0  0  0  0  0  0  0
   38.6132   33.0748   50.5308 H   0  0  0  0  0  0  0  0  0  0  0  0
   39.2351   34.1283   48.3272 H   0  0  0  0  0  0  0  0  0  0  0  0
   38.2671   30.4633   46.3771 H   0  0  0  0  0  0  0  0  0  0  0  0
   37.5240   28.4021   51.0240 H   0  0  0  0  0  0  0  0  0  0  0  0
   36.8016   29.0606   49.5367 H   0  0  0  0  0  0  0  0  0  0  0  0
   33.1352   30.0145   51.7492 H   0  0  0  0  0  0  0  0  0  0  0  0
   33.3481   27.1176   49.6620 C   0  0  0  0  0  0  0  0  0  0  0  0
   32.0785   27.5813   49.1243 N   0  0  0  0  0  4  0  0  0  0  0  0
   30.9931   27.2916   50.0338 C   0  0  0  0  0  0  0  0  0  0  0  0
   30.2439   26.6849   49.4715 H   0  0  0  0  0  0  0  0  0  0  0  0
   31.8859   26.9465   47.8387 C   0  0  0  0  0  0  0  0  0  0  0  0
   32.0989   25.8534   47.9170 H   0  0  0  0  0  0  0  0  0  0  0  0
   33.2661   27.1248   50.7680 H   0  0  0  0  0  0  0  0  0  0  0  0
   33.4982   26.0726   49.3071 H   0  0  0  0  0  0  0  0  0  0  0  0
   32.1298   28.6152   48.9807 H   0  0  0  0  0  0  0  0  0  0  0  0
   30.5686   28.2342   50.4428 H   0  0  0  0  0  0  0  0  0  0  0  0
   31.3097   26.6668   50.9036 H   0  0  0  0  0  0  0  0  0  0  0  0
   30.8878   27.1068   47.4062 H   0  0  0  0  0  0  0  0  0  0  0  0
   32.6248   27.3852   47.1232 H   0  0  0  0  0  0  0  0  0  0  0  0
  2  1  1  0
  3  2  2  0
  4  3  1  0
  5  6  1  0
  5  4  2  0
  6  7  2  0
  7  2  1  0
  8  1  1  0
  8  9  1  0
 10 11  2  0
 11 12  1  1
 11  9  1  0
 13 11  1  0
  1 14  1  0
  1 15  1  0
  3 16  1  0
  4 17  1  0
  6 18  1  0
  8 19  1  0
  8 20  1  0
 12 21  1  0
 22 23  1  0
 23 24  1  0
 24 25  1  0
 23 26  1  0
 26 27  1  0
 22 28  1  0
 22 29  1  0
 23 30  1  0
 24 31  1  0
 24 32  1  0
 26 33  1  0
 26 34  1  0
 13 22  1  0
M  CHG  1  23   1
M  END
>  <DihAtoms>  (1) 
10,12,21,22

>  <DihDeg>  (1) 
-179.99988057914825

$$$$
