
     RDKit          3D

 25 25  0  0  0  0  0  0  0  0999 V2000
   37.7250   30.5190   50.8320 C   0  0  0  0  0  0  0  0  0  0  0  0
   38.1120   31.2110   49.6010 C   0  0  0  0  0  0  0  0  0  0  0  0
   38.5380   32.5240   49.6040 C   0  0  0  0  0  0  0  0  0  0  0  0
   38.8910   33.1110   48.3770 C   0  0  0  0  0  0  0  0  0  0  0  0
   38.7900   32.3400   47.2400 N   0  0  0  0  0  0  0  0  0  0  0  0
   38.3650   31.0520   47.2890 C   0  0  0  0  0  0  0  0  0  0  0  0
   38.0280   30.5010   48.4900 N   0  0  0  0  0  0  0  0  0  0  0  0
   36.9570   29.2500   50.6110 C   0  0  0  0  0  0  0  0  0  0  0  0
   35.7210   29.3740   51.2300 O   0  0  0  0  0  0  0  0  0  0  0  0
   34.6830   30.5590   49.1550 O   0  0  0  0  0  0  0  0  0  0  0  0
   34.4510   29.3960   50.1070 P   0  0  2  0  0  0  0  0  0  0  0  0
   32.9680   29.6890   50.8330 O   0  0  0  0  0  0  0  0  0  0  0  0
   34.3750   27.9440   49.2540 O   0  0  0  0  0  0  0  0  0  0  0  0
   33.2040   27.7990   48.5480 C   0  0  0  0  0  0  0  0  0  0  0  0
   38.6397   30.2750   51.3922 H   0  0  0  0  0  0  0  0  0  0  0  0
   37.0572   31.2002   51.3798 H   0  0  0  0  0  0  0  0  0  0  0  0
   38.5995   33.0956   50.5418 H   0  0  0  0  0  0  0  0  0  0  0  0
   39.2372   34.1538   48.3261 H   0  0  0  0  0  0  0  0  0  0  0  0
   38.2929   30.4569   46.3667 H   0  0  0  0  0  0  0  0  0  0  0  0
   36.8177   29.0828   49.5327 H   0  0  0  0  0  0  0  0  0  0  0  0
   37.5075   28.3961   51.0326 H   0  0  0  0  0  0  0  0  0  0  0  0
   33.0726   29.6683   51.8172 H   0  0  0  0  0  0  0  0  0  0  0  0
   32.3633   27.6949   49.2497 H   0  0  0  0  0  0  0  0  0  0  0  0
   33.0456   28.6844   47.9148 H   0  0  0  0  0  0  0  0  0  0  0  0
   33.2663   26.9017   47.9148 H   0  0  0  0  0  0  0  0  0  0  0  0
  2  3  2  0
  2  1  1  0
  4  3  1  0
  5  6  1  0
  5  4  2  0
  6  7  2  0
  7  2  1  0
  8  1  1  0
  8  9  1  0
 11 10  2  0
 11 12  1  0
 11  9  1  0
 13 11  1  0
 14 13  1  0
  1 15  1  0
  1 16  1  0
  3 17  1  0
  4 18  1  0
  6 19  1  0
  8 20  1  0
  8 21  1  0
 12 22  1  0
 14 23  1  0
 14 24  1  0
 14 25  1  0
M  ISO  8  15   8  16   8  17  14  18  14  19  14  20   8  21   8  22   3
M  ISO  3  23   8  24   8  25   8
M  END
>  <minimizedAffinity>  (1) 
-4.678473

>  <minimizedRMSD>  (1) 
0.46611315

$$$$
