
     RDKit          3D

 22 23  0  0  0  0  0  0  0  0999 V2000
   37.3220   30.1850   51.4260 C   0  0  0  0  0  0  0  0  0  0  0  0
   38.0150   30.8210   50.3790 C   0  0  0  0  0  0  0  0  0  0  0  0
   37.6020   30.5720   49.0640 C   0  0  0  0  0  0  0  0  0  0  0  0
   36.5550   29.7330   48.8760 N   0  0  0  0  0  0  0  0  0  0  0  0
   35.8990   29.1290   49.8970 C   0  0  0  0  0  0  0  0  0  0  0  0
   36.2880   29.3610   51.1680 N   0  0  0  0  0  0  0  0  0  0  0  0
   38.2580   31.1800   47.9660 N   0  0  0  0  0  0  0  0  0  0  0  0
   38.9090   32.4770   48.0030 C   0  0  0  0  0  0  0  0  0  0  0  0
   39.3420   32.7470   46.5830 C   0  0  0  0  0  0  0  0  0  0  0  0
   38.3230   31.9320   45.8130 C   0  0  0  0  0  0  0  0  0  0  0  0
   38.3990   30.6450   46.6480 C   0  0  0  0  0  0  0  0  0  0  0  0
   37.6284   30.3629   52.4674 H   0  0  0  0  0  0  0  0  0  0  0  0
   38.8584   31.4956   50.5879 H   0  0  0  0  0  0  0  0  0  0  0  0
   35.0551   28.4542   49.6907 H   0  0  0  0  0  0  0  0  0  0  0  0
   38.2062   33.2510   48.3451 H   0  0  0  0  0  0  0  0  0  0  0  0
   39.7599   32.4885   48.7000 H   0  0  0  0  0  0  0  0  0  0  0  0
   39.2743   33.8168   46.3360 H   0  0  0  0  0  0  0  0  0  0  0  0
   40.3888   32.4849   46.3694 H   0  0  0  0  0  0  0  0  0  0  0  0
   37.3215   32.3862   45.8387 H   0  0  0  0  0  0  0  0  0  0  0  0
   38.5119   31.8187   44.7353 H   0  0  0  0  0  0  0  0  0  0  0  0
   37.5809   29.9522   46.4014 H   0  0  0  0  0  0  0  0  0  0  0  0
   39.3105   30.0498   46.4903 H   0  0  0  0  0  0  0  0  0  0  0  0
  2  1  2  0
  3  2  1  0
  4  3  2  0
  4  5  1  0
  5  6  2  0
  6  1  1  0
  7  8  1  0
  7  3  1  0
  9  8  1  0
 10  9  1  0
 10 11  1  0
 11  7  1  0
  1 12  1  0
  2 13  1  0
  5 14  1  0
  8 15  1  0
  8 16  1  0
  9 17  1  0
  9 18  1  0
 10 19  1  0
 10 20  1  0
 11 21  1  0
 11 22  1  0
M  ISO  8  12  14  13  14  14  14  15  13  16  13  17  13  18  13  19  13
M  ISO  3  20  13  21  13  22  13
M  END
>  <minimizedAffinity>  (1) 
-4.53009462

>  <minimizedRMSD>  (1) 
0.389216334

$$$$
