
     RDKit          3D

 35 38  0  0  1  0  0  0  0  0999 V2000
   37.2600   29.2260   50.4660 C   0  0  0  0  0  0  0  0  0  0  0  0
   37.3550   30.5370   50.9240 C   0  0  0  0  0  0  0  0  0  0  0  0
   36.5770   31.4930   50.2710 C   0  0  0  0  0  0  0  0  0  0  0  0
   35.7810   31.0920   49.2370 N   0  0  0  0  0  0  0  0  0  0  0  0
   35.7280   29.8040   48.8340 C   0  0  0  0  0  0  0  0  0  0  0  0
   36.4640   28.8660   49.4440 N   0  0  0  0  0  0  0  0  0  0  0  0
   34.8830   29.4450   47.7560 N   0  0  0  0  0  0  0  0  0  0  0  0
   34.2910   28.1110   47.6670 C   0  0  0  0  0  0  0  0  0  0  0  0
   32.8140   28.2380   47.5120 C   0  0  0  0  0  0  0  0  0  0  0  0
   32.3140   29.4740   47.1230 N   0  0  0  0  0  0  0  0  0  0  0  0
   33.1270   30.4270   46.4630 C   0  0  0  0  0  0  0  0  0  0  0  0
   34.5760   30.3960   46.6950 C   0  0  2  0  0  0  0  0  0  0  0  0
   35.3740   29.9970   45.5490 N   0  0  0  0  0  0  0  0  0  0  0  0
   34.9960   29.2090   44.5330 C   0  0  0  0  0  0  0  0  0  0  0  0
   36.0180   29.0760   43.6680 N   0  0  0  0  0  0  0  0  0  0  0  0
   37.0740   29.7940   44.1400 C   0  0  0  0  0  0  0  0  0  0  0  0
   38.3250   29.9410   43.5770 C   0  0  0  0  0  0  0  0  0  0  0  0
   39.1580   30.7280   44.3020 N   0  0  0  0  0  0  0  0  0  0  0  0
   38.7580   31.2900   45.4560 C   0  0  0  0  0  0  0  0  0  0  0  0
   37.5200   31.1310   45.9900 N   0  0  0  0  0  0  0  0  0  0  0  0
   36.6450   30.3710   45.3370 C   0  0  0  0  0  0  0  0  0  0  0  0
   37.8625   28.4507   50.9618 H   0  0  0  0  0  0  0  0  0  0  0  0
   38.0136   30.8068   51.7627 H   0  0  0  0  0  0  0  0  0  0  0  0
   36.6043   32.5476   50.5826 H   0  0  0  0  0  0  0  0  0  0  0  0
   34.7077   27.5811   46.7977 H   0  0  0  0  0  0  0  0  0  0  0  0
   34.5186   27.5446   48.5821 H   0  0  0  0  0  0  0  0  0  0  0  0
   32.4974   27.5024   46.7580 H   0  0  0  0  0  0  0  0  0  0  0  0
   32.4114   28.0785   48.5232 H   0  0  0  0  0  0  0  0  0  0  0  0
   31.5221   29.2818   46.4931 H   0  0  0  0  0  0  0  0  0  0  0  0
   32.7713   31.4225   46.7669 H   0  0  0  0  0  0  0  0  0  0  0  0
   33.0209   30.1774   45.3970 H   0  0  0  0  0  0  0  0  0  0  0  0
   34.8364   31.4348   46.9463 H   0  0  0  0  0  0  0  0  0  0  0  0
   34.0053   28.7438   44.4234 H   0  0  0  0  0  0  0  0  0  0  0  0
   38.6188   29.4650   42.6299 H   0  0  0  0  0  0  0  0  0  0  0  0
   39.4784   31.9175   46.0012 H   0  0  0  0  0  0  0  0  0  0  0  0
  1  2  2  0
  3  2  1  0
  4  3  2  0
  5  4  1  0
  5  6  2  0
  6  1  1  0
  7  5  1  0
  8  7  1  0
  9  8  1  0
 10  9  1  0
 11 12  1  0
 11 10  1  0
 12  7  1  0
 13 12  1  0
 14 13  1  0
 15 16  1  0
 15 14  2  0
 16 21  2  0
 17 16  1  0
 17 18  2  0
 18 19  1  0
 19 20  2  0
 21 13  1  0
 21 20  1  0
  1 22  1  0
  2 23  1  0
  3 24  1  0
  8 25  1  0
  8 26  1  0
  9 27  1  0
  9 28  1  0
 10 29  1  0
 11 30  1  0
 11 31  1  0
 12 32  1  1
 14 33  1  0
 17 34  1  0
 19 35  1  0
M  ISO  8  22  14  23  14  24  14  25  13  26  13  27  13  28  13  29   5
M  ISO  6  30  13  31  13  32  13  33  14  34  14  35  14
M  END
>  <minimizedAffinity>  (1) 
-5.11132097

>  <minimizedRMSD>  (1) 
1.94611657

$$$$
