
     RDKit          3D

 38 40  0  0  1  0  0  0  0  0999 V2000
   37.2650   29.2350   50.5270 C   0  0  0  0  0  0  0  0  0  0  0  0
   37.4530   30.6000   50.8350 C   0  0  0  0  0  0  0  0  0  0  0  0
   36.7370   31.5390   50.0700 C   0  0  0  0  0  0  0  0  0  0  0  0
   35.9190   31.0540   49.0940 N   0  0  0  0  0  0  0  0  0  0  0  0
   35.7730   29.7390   48.8370 C   0  0  0  0  0  0  0  0  0  0  0  0
   36.4480   28.8330   49.5560 N   0  0  0  0  0  0  0  0  0  0  0  0
   34.9070   29.3500   47.8080 N   0  0  0  0  0  0  0  0  0  0  0  0
   34.2190   28.0530   47.8700 C   0  0  0  0  0  0  0  0  0  0  0  0
   32.7660   28.2450   47.6550 C   0  0  0  0  0  0  0  0  0  0  0  0
   32.3430   29.4760   47.1670 N   0  0  0  0  0  0  0  0  0  0  0  0
   33.2240   30.2480   46.3760 C   0  0  0  0  0  0  0  0  0  0  0  0
   34.6600   30.2000   46.6540 C   0  0  2  0  0  0  0  0  0  0  0  0
   35.5610   29.9280   45.6170 N   0  0  0  0  0  0  0  0  0  0  0  0
   36.7910   30.6380   45.6250 C   0  0  0  0  0  0  0  0  0  0  0  0
   36.9660   31.3270   44.2860 C   0  0  0  0  0  0  0  0  0  0  0  0
   36.9850   30.3790   43.2130 N   0  0  0  0  0  0  0  0  0  0  0  0
   36.4690   29.0920   43.6320 C   0  0  0  0  0  0  0  0  0  0  0  0
   35.1620   29.3850   44.3960 C   0  0  0  0  0  0  0  0  0  0  0  0
   37.8119   28.4785   51.1089 H   0  0  0  0  0  0  0  0  0  0  0  0
   38.1319   30.9166   51.6406 H   0  0  0  0  0  0  0  0  0  0  0  0
   36.8335   32.6195   50.2522 H   0  0  0  0  0  0  0  0  0  0  0  0
   34.6192   27.3896   47.0891 H   0  0  0  0  0  0  0  0  0  0  0  0
   34.3832   27.6017   48.8596 H   0  0  0  0  0  0  0  0  0  0  0  0
   32.4351   27.4769   46.9405 H   0  0  0  0  0  0  0  0  0  0  0  0
   32.3244   28.1773   48.6602 H   0  0  0  0  0  0  0  0  0  0  0  0
   31.5034   29.3004   46.5968 H   0  0  0  0  0  0  0  0  0  0  0  0
   32.9116   31.2978   46.4781 H   0  0  0  0  0  0  0  0  0  0  0  0
   33.1360   29.8017   45.3744 H   0  0  0  0  0  0  0  0  0  0  0  0
   34.8980   31.2563   46.8480 H   0  0  0  0  0  0  0  0  0  0  0  0
   36.7791   31.3891   46.4285 H   0  0  0  0  0  0  0  0  0  0  0  0
   37.6239   29.9407   45.7983 H   0  0  0  0  0  0  0  0  0  0  0  0
   36.1317   32.0270   44.1312 H   0  0  0  0  0  0  0  0  0  0  0  0
   37.9266   31.8629   44.2936 H   0  0  0  0  0  0  0  0  0  0  0  0
   37.9552   30.2608   42.8880 H   0  0  0  0  0  0  0  0  0  0  0  0
   36.2656   28.4584   42.7561 H   0  0  0  0  0  0  0  0  0  0  0  0
   37.1922   28.5546   44.2630 H   0  0  0  0  0  0  0  0  0  0  0  0
   34.5928   28.4572   44.5549 H   0  0  0  0  0  0  0  0  0  0  0  0
   34.5066   30.0700   43.8381 H   0  0  0  0  0  0  0  0  0  0  0  0
  1  2  2  0
  3  2  1  0
  4  3  2  0
  5  4  1  0
  5  6  2  0
  6  1  1  0
  7  8  1  0
  7  5  1  0
  9  8  1  0
 10  9  1  0
 11 12  1  0
 11 10  1  0
 12  7  1  0
 13 18  1  0
 13 14  1  0
 13 12  1  0
 15 14  1  0
 16 17  1  0
 16 15  1  0
 17 18  1  0
  1 19  1  0
  2 20  1  0
  3 21  1  0
  8 22  1  0
  8 23  1  0
  9 24  1  0
  9 25  1  0
 10 26  1  0
 11 27  1  0
 11 28  1  0
 12 29  1  1
 14 30  1  0
 14 31  1  0
 15 32  1  0
 15 33  1  0
 16 34  1  0
 17 35  1  0
 17 36  1  0
 18 37  1  0
 18 38  1  0
M  ISO  8  19  14  20  14  21  14  22  13  23  13  24  13  25  13  26   5
M  ISO  8  27  13  28  13  29  13  30  13  31  13  32  13  33  13  34   5
M  ISO  4  35  13  36  13  37  13  38  13
M  END
>  <minimizedAffinity>  (1) 
-4.7763257

>  <minimizedRMSD>  (1) 
1.19443095

$$$$
