
     RDKit          3D

 11 11  0  0  0  0  0  0  0  0999 V2000
   36.7740   30.1700   49.8730 C   0  0  0  0  0  0  0  0  0  0  0  0
   37.8980   30.4450   49.0560 C   0  0  0  0  0  0  0  0  0  0  0  0
   37.6750   30.6600   47.6970 C   0  0  0  0  0  0  0  0  0  0  0  0
   36.3850   30.5920   47.2290 N   0  0  0  0  0  0  0  0  0  0  0  0
   35.3510   30.3270   48.0450 C   0  0  0  0  0  0  0  0  0  0  0  0
   35.5460   30.1180   49.3540 N   0  0  0  0  0  0  0  0  0  0  0  0
   37.2360   29.9200   51.5840 S   0  0  0  0  0  0  0  0  0  0  0  0
   38.9123   30.4874   49.4796 H   0  0  0  0  0  0  0  0  0  0  0  0
   38.5109   30.8786   47.0162 H   0  0  0  0  0  0  0  0  0  0  0  0
   34.3320   30.2811   47.6334 H   0  0  0  0  0  0  0  0  0  0  0  0
   36.2679   30.4439   52.3996 H   0  0  0  0  0  0  0  0  0  0  0  0
  1  7  1  0
  2  1  2  0
  3  2  1  0
  4  3  2  0
  4  5  1  0
  5  6  2  0
  6  1  1  0
  2  8  1  0
  3  9  1  0
  5 10  1  0
  7 11  1  0
M  ISO  4   8  14   9  14  10  14  11  11
M  END
>  <minimizedAffinity>  (1) 
-2.74582839

>  <minimizedRMSD>  (1) 
1.81319082

$$$$
