
     RDKit          3D

 27 28  0  0  0  0  0  0  0  0999 V2000
   38.0830   31.5290   49.2490 C   0  0  0  0  0  0  0  0  0  0  0  0
   38.4430   32.8270   49.6150 C   0  0  0  0  0  0  0  0  0  0  0  0
   39.1190   33.6320   48.6920 C   0  0  0  0  0  0  0  0  0  0  0  0
   39.3990   33.1100   47.4700 N   0  0  0  0  0  0  0  0  0  0  0  0
   39.0320   31.8470   47.1560 C   0  0  0  0  0  0  0  0  0  0  0  0
   38.3910   31.0860   48.0320 N   0  0  0  0  0  0  0  0  0  0  0  0
   37.2260   30.6450   50.5510 S   0  0  0  0  0  0  0  0  0  0  0  0
   36.6240   29.1010   49.8000 C   0  0  0  0  0  0  0  0  0  0  0  0
   35.1560   29.2650   49.4560 C   0  0  0  0  0  0  0  0  0  0  0  0
   34.4420   27.9670   49.2660 C   0  0  0  0  0  0  0  0  0  0  0  0
   33.3140   28.3270   48.3350 C   0  0  0  0  0  0  0  0  0  0  0  0
   34.0060   29.2260   47.3340 C   0  0  0  0  0  0  0  0  0  0  0  0
   34.9260   30.0530   48.2130 C   0  0  0  0  0  0  0  0  0  0  0  0
   38.1984   33.2118   50.6160 H   0  0  0  0  0  0  0  0  0  0  0  0
   39.4156   34.6596   48.9490 H   0  0  0  0  0  0  0  0  0  0  0  0
   39.2687   31.4454   46.1597 H   0  0  0  0  0  0  0  0  0  0  0  0
   37.1964   28.8870   48.8854 H   0  0  0  0  0  0  0  0  0  0  0  0
   36.7516   28.2673   50.5061 H   0  0  0  0  0  0  0  0  0  0  0  0
   34.7566   29.7987   50.3310 H   0  0  0  0  0  0  0  0  0  0  0  0
   35.1042   27.2156   48.8111 H   0  0  0  0  0  0  0  0  0  0  0  0
   34.0960   27.5229   50.2110 H   0  0  0  0  0  0  0  0  0  0  0  0
   32.8972   27.4331   47.8479 H   0  0  0  0  0  0  0  0  0  0  0  0
   32.4580   28.8003   48.8382 H   0  0  0  0  0  0  0  0  0  0  0  0
   33.2819   29.8639   46.8060 H   0  0  0  0  0  0  0  0  0  0  0  0
   34.5355   28.6744   46.5432 H   0  0  0  0  0  0  0  0  0  0  0  0
   35.8806   30.2342   47.6973 H   0  0  0  0  0  0  0  0  0  0  0  0
   34.4785   31.0312   48.4428 H   0  0  0  0  0  0  0  0  0  0  0  0
  1  2  2  0
  1  7  1  0
  3  2  1  0
  4  3  2  0
  5  4  1  0
  5  6  2  0
  6  1  1  0
  8  7  1  0
  9  8  1  0
 10  9  1  0
 11 10  1  0
 12 13  1  0
 12 11  1  0
 13  9  1  0
  2 14  1  0
  3 15  1  0
  5 16  1  0
  8 17  1  0
  8 18  1  0
  9 19  1  0
 10 20  1  0
 10 21  1  0
 11 22  1  0
 11 23  1  0
 12 24  1  0
 12 25  1  0
 13 26  1  0
 13 27  1  0
M  ISO  8  14  14  15  14  16  14  17   8  18   8  19  13  20  13  21  13
M  ISO  6  22  13  23  13  24  13  25  13  26  13  27  13
M  END
>  <minimizedAffinity>  (1) 
-4.48019028

>  <minimizedRMSD>  (1) 
2.54676723

$$$$
