
     RDKit          3D

 20 20  0  0  0  0  0  0  0  0999 V2000
   38.2710   32.0830   47.7660 S   0  0  0  0  0  0  0  0  0  0  0  0
   38.9290   32.0840   46.1070 C   0  0  0  0  0  0  0  0  0  0  0  0
   40.1340   31.3680   45.9860 C   0  0  0  0  0  0  0  0  0  0  0  0
   40.7180   31.3190   44.7100 C   0  0  0  0  0  0  0  0  0  0  0  0
   40.0900   31.9600   43.6770 N   0  0  0  0  0  0  0  0  0  0  0  0
   38.9300   32.6320   43.8670 C   0  0  0  0  0  0  0  0  0  0  0  0
   38.3710   32.6840   45.0670 N   0  0  0  0  0  0  0  0  0  0  0  0
   37.7550   30.3880   48.1550 C   0  0  0  0  0  0  0  0  0  0  0  0
   36.6610   30.3510   48.9960 O   0  0  0  0  0  0  0  0  0  0  0  0
   37.8820   28.3960   50.3000 O   0  0  0  0  0  0  0  0  0  0  0  0
   37.1870   29.7230   50.4770 P   0  0  0  0  0  0  0  0  0  0  0  0
   35.8490   29.5920   51.5100 O   0  0  0  0  0  0  0  0  0  0  0  0
   38.3040   30.8190   51.1180 O   0  0  0  0  0  0  0  0  0  0  0  0
   40.5970   30.8699   46.8506 H   0  0  0  0  0  0  0  0  0  0  0  0
   41.6606   30.7767   44.5443 H   0  0  0  0  0  0  0  0  0  0  0  0
   38.4478   33.1389   43.0181 H   0  0  0  0  0  0  0  0  0  0  0  0
   37.4976   29.8732   47.2176 H   0  0  0  0  0  0  0  0  0  0  0  0
   38.5912   29.8927   48.6703 H   0  0  0  0  0  0  0  0  0  0  0  0
   36.1546   29.6219   52.4512 H   0  0  0  0  0  0  0  0  0  0  0  0
   38.2694   30.7851   52.1068 H   0  0  0  0  0  0  0  0  0  0  0  0
  1  8  1  0
  2  1  1  0
  3  2  2  0
  4  3  1  0
  5  6  1  0
  5  4  2  0
  6  7  2  0
  7  2  1  0
  8  9  1  0
  9 11  1  0
 10 11  2  0
 11 13  1  0
 11 12  1  0
  3 14  1  0
  4 15  1  0
  6 16  1  0
  8 17  1  0
  8 18  1  0
 12 19  1  0
 13 20  1  0
M  ISO  7  14  14  15  14  16  14  17   8  18   8  19   3  20   3
M  END
>  <minimizedAffinity>  (1) 
-3.50991488

>  <minimizedRMSD>  (1) 
3.74928236

$$$$
