
     RDKit          3D

 29 31  0  0  0  0  0  0  0  0999 V2000
   34.7210   29.3170   50.1800 C   0  0  0  0  0  0  0  0  0  0  0  0
   36.4180   29.5390   50.7180 S   0  0  0  0  0  0  0  0  0  0  0  0
   37.2250   30.6810   49.6150 C   0  0  0  0  0  0  0  0  0  0  0  0
   37.2600   31.9940   50.0530 C   0  0  0  0  0  0  0  0  0  0  0  0
   37.8790   32.9230   49.2280 C   0  0  0  0  0  0  0  0  0  0  0  0
   38.4260   32.5140   48.0260 N   0  0  0  0  0  0  0  0  0  0  0  0
   38.3550   31.2110   47.6610 C   0  0  0  0  0  0  0  0  0  0  0  0
   37.7690   30.3200   48.4360 N   0  0  0  0  0  0  0  0  0  0  0  0
   34.5830   28.2510   48.7170 S   0  0  0  0  0  0  0  0  0  0  0  0
   33.2670   28.7960   47.6560 C   0  0  0  0  0  0  0  0  0  0  0  0
   33.5910   29.8260   46.8460 N   0  0  0  0  0  0  0  0  0  0  0  0
   32.6820   30.3320   45.9950 C   0  0  0  0  0  0  0  0  0  0  0  0
   31.4380   29.8270   45.9320 N   0  0  0  0  0  0  0  0  0  0  0  0
   31.0800   28.8040   46.7200 C   0  0  0  0  0  0  0  0  0  0  0  0
   29.7900   28.2700   46.6640 C   0  0  0  0  0  0  0  0  0  0  0  0
   29.5120   27.2110   47.5200 C   0  0  0  0  0  0  0  0  0  0  0  0
   30.4470   26.7000   48.3880 C   0  0  0  0  0  0  0  0  0  0  0  0
   31.7310   27.2280   48.4480 C   0  0  0  0  0  0  0  0  0  0  0  0
   31.9910   28.2800   47.5900 C   0  0  0  0  0  0  0  0  0  0  0  0
   34.1480   28.8626   51.0017 H   0  0  0  0  0  0  0  0  0  0  0  0
   34.3268   30.3072   49.9077 H   0  0  0  0  0  0  0  0  0  0  0  0
   36.8156   32.2888   51.0151 H   0  0  0  0  0  0  0  0  0  0  0  0
   37.9340   33.9795   49.5292 H   0  0  0  0  0  0  0  0  0  0  0  0
   38.7929   30.8919   46.7037 H   0  0  0  0  0  0  0  0  0  0  0  0
   32.9601   31.1714   45.3407 H   0  0  0  0  0  0  0  0  0  0  0  0
   29.0307   28.6688   45.9752 H   0  0  0  0  0  0  0  0  0  0  0  0
   28.5065   26.7654   47.5021 H   0  0  0  0  0  0  0  0  0  0  0  0
   30.1750   25.8607   49.0449 H   0  0  0  0  0  0  0  0  0  0  0  0
   32.4933   26.8332   49.1358 H   0  0  0  0  0  0  0  0  0  0  0  0
  1  2  1  0
  3  4  2  0
  3  2  1  0
  5  4  1  0
  6  5  2  0
  7  6  1  0
  7  8  2  0
  8  3  1  0
  9  1  1  0
 10  9  1  0
 11 10  2  0
 12 11  1  0
 13 12  2  0
 13 14  1  0
 14 19  2  0
 15 14  1  0
 15 16  2  0
 16 17  1  0
 17 18  2  0
 19 10  1  0
 19 18  1  0
  1 20  1  0
  1 21  1  0
  4 22  1  0
  5 23  1  0
  7 24  1  0
 12 25  1  0
 15 26  1  0
 16 27  1  0
 17 28  1  0
 18 29  1  0
M  ISO  8  20   8  21   8  22  14  23  14  24  14  25  14  26  14  27  14
M  ISO  2  28  14  29  14
M  END
>  <minimizedAffinity>  (1) 
-4.65187693

>  <minimizedRMSD>  (1) 
3.19902325

$$$$
