
     RDKit          3D

 25 26  0  0  0  0  0  0  0  0999 V2000
   35.6440   29.4550   50.7310 C   0  0  0  0  0  0  0  0  0  0  0  0
   37.3420   29.1690   50.2530 S   0  0  0  0  0  0  0  0  0  0  0  0
   37.9110   30.5510   49.2710 C   0  0  0  0  0  0  0  0  0  0  0  0
   38.2090   31.6890   49.9980 C   0  0  0  0  0  0  0  0  0  0  0  0
   38.6580   32.7950   49.2770 C   0  0  0  0  0  0  0  0  0  0  0  0
   38.7850   32.7240   47.9090 N   0  0  0  0  0  0  0  0  0  0  0  0
   38.4690   31.5660   47.2770 C   0  0  0  0  0  0  0  0  0  0  0  0
   38.0450   30.5090   47.9350 N   0  0  0  0  0  0  0  0  0  0  0  0
   34.7320   30.4670   49.5360 S   0  0  0  0  0  0  0  0  0  0  0  0
   32.9830   28.0880   49.3990 F   0  0  0  0  0  0  0  0  0  0  0  0
   33.5260   28.4960   48.2080 C   0  0  0  0  0  0  0  0  0  0  0  0
   34.3720   29.5860   48.0440 C   0  0  0  0  0  0  0  0  0  0  0  0
   34.8350   29.8670   46.7740 C   0  0  0  0  0  0  0  0  0  0  0  0
   34.4830   29.1040   45.6840 C   0  0  0  0  0  0  0  0  0  0  0  0
   33.6400   28.0280   45.8790 C   0  0  0  0  0  0  0  0  0  0  0  0
   33.1450   27.7020   47.1460 C   0  0  0  0  0  0  0  0  0  0  0  0
   35.1380   28.4828   50.8252 H   0  0  0  0  0  0  0  0  0  0  0  0
   35.6588   30.0047   51.6837 H   0  0  0  0  0  0  0  0  0  0  0  0
   38.0973   31.7203   51.0919 H   0  0  0  0  0  0  0  0  0  0  0  0
   38.9114   33.7269   49.8036 H   0  0  0  0  0  0  0  0  0  0  0  0
   38.5702   31.5094   46.1831 H   0  0  0  0  0  0  0  0  0  0  0  0
   35.5056   30.7268   46.6289 H   0  0  0  0  0  0  0  0  0  0  0  0
   34.8643   29.3457   44.6809 H   0  0  0  0  0  0  0  0  0  0  0  0
   33.3502   27.4111   45.0156 H   0  0  0  0  0  0  0  0  0  0  0  0
   32.4748   26.8419   47.2907 H   0  0  0  0  0  0  0  0  0  0  0  0
  2  1  1  0
  3  4  2  0
  3  2  1  0
  5  4  1  0
  6  5  2  0
  7  6  1  0
  7  8  2  0
  8  3  1  0
  9  1  1  0
 11 10  1  0
 12 11  2  0
 12  9  1  0
 13 12  1  0
 14 15  1  0
 14 13  2  0
 15 16  2  0
 16 11  1  0
  1 17  1  0
  1 18  1  0
  4 19  1  0
  5 20  1  0
  7 21  1  0
 13 22  1  0
 14 23  1  0
 15 24  1  0
 16 25  1  0
M  ISO  8  17   8  18   8  19  14  20  14  21  14  22  14  23  14  24  14
M  ISO  1  25  14
M  END
>  <minimizedAffinity>  (1) 
-4.38446474

>  <minimizedRMSD>  (1) 
2.70310187

$$$$
