
     RDKit          3D

 21 22  0  0  0  0  0  0  0  0999 V2000
   38.3390   31.1740   49.3210 C   0  0  0  0  0  0  0  0  0  0  0  0
   36.7450   31.1110   50.1350 S   0  0  0  0  0  0  0  0  0  0  0  0
   35.6410   30.1100   49.1690 C   0  0  0  0  0  0  0  0  0  0  0  0
   35.3200   28.8850   49.7320 C   0  0  0  0  0  0  0  0  0  0  0  0
   34.4530   28.0580   49.0090 C   0  0  0  0  0  0  0  0  0  0  0  0
   33.9580   28.4690   47.7990 N   0  0  0  0  0  0  0  0  0  0  0  0
   34.3150   29.6800   47.3100 C   0  0  0  0  0  0  0  0  0  0  0  0
   35.1300   30.4730   47.9760 N   0  0  0  0  0  0  0  0  0  0  0  0
   38.4070   32.4640   48.0290 S   0  0  0  0  0  0  0  0  0  0  0  0
   39.4330   31.9240   46.6770 C   0  0  0  0  0  0  0  0  0  0  0  0
   40.1030   32.9160   46.0300 N   0  0  0  0  0  0  0  0  0  0  0  0
   40.8360   32.3760   45.0370 C   0  0  0  0  0  0  0  0  0  0  0  0
   40.6140   31.0400   45.0710 N   0  0  0  0  0  0  0  0  0  0  0  0
   39.7780   30.7670   46.0460 N   0  0  0  0  0  0  0  0  0  0  0  0
   39.1125   31.3861   50.0738 H   0  0  0  0  0  0  0  0  0  0  0  0
   38.5074   30.2017   48.8350 H   0  0  0  0  0  0  0  0  0  0  0  0
   35.7291   28.5761   50.7052 H   0  0  0  0  0  0  0  0  0  0  0  0
   34.1680   27.0754   49.4130 H   0  0  0  0  0  0  0  0  0  0  0  0
   33.9172   30.0082   46.3384 H   0  0  0  0  0  0  0  0  0  0  0  0
   41.4884   32.9154   44.3346 H   0  0  0  0  0  0  0  0  0  0  0  0
   41.0341   30.3486   44.4336 H   0  0  0  0  0  0  0  0  0  0  0  0
  1  2  1  0
  3  4  2  0
  3  2  1  0
  5  4  1  0
  6  5  2  0
  7  6  1  0
  7  8  2  0
  8  3  1  0
  9  1  1  0
 10  9  1  0
 11 10  1  0
 12 13  1  0
 12 11  2  0
 13 14  1  0
 14 10  2  0
  1 15  1  0
  1 16  1  0
  4 17  1  0
  5 18  1  0
  7 19  1  0
 12 20  1  0
 13 21  1  0
M  ISO  7  15   8  16   8  17  14  18  14  19  14  20  14  21   9
M  END
>  <minimizedAffinity>  (1) 
-4.27093077

>  <minimizedRMSD>  (1) 
6.4277482

$$$$
