
     RDKit          3D

 11 11  0  0  0  0  0  0  0  0999 V2000
   37.2760   30.2290   51.4550 C   0  0  0  0  0  0  0  0  0  0  0  0
   38.1380   30.7560   50.4630 C   0  0  0  0  0  0  0  0  0  0  0  0
   37.8820   30.4200   49.1290 C   0  0  0  0  0  0  0  0  0  0  0  0
   36.8170   29.6070   48.8850 N   0  0  0  0  0  0  0  0  0  0  0  0
   36.0130   29.1180   49.8460 C   0  0  0  0  0  0  0  0  0  0  0  0
   36.2490   29.4350   51.1420 N   0  0  0  0  0  0  0  0  0  0  0  0
   38.6490   30.8680   48.0620 O   0  0  0  0  0  0  0  0  0  0  0  0
   37.4570   30.4801   52.5106 H   0  0  0  0  0  0  0  0  0  0  0  0
   38.9817   31.4085   50.7323 H   0  0  0  0  0  0  0  0  0  0  0  0
   35.1687   28.4645   49.5813 H   0  0  0  0  0  0  0  0  0  0  0  0
   38.4187   30.5962   47.1383 H   0  0  0  0  0  0  0  0  0  0  0  0
  2  1  2  0
  3  2  1  0
  4  3  2  0
  4  5  1  0
  5  6  2  0
  6  1  1  0
  7  3  1  0
  1  8  1  0
  2  9  1  0
  5 10  1  0
  7 11  1  0
M  ISO  4   8  14   9  14  10  14  11   3
M  END
>  <minimizedAffinity>  (1) 
-3.38326788

>  <minimizedRMSD>  (1) 
0.209509701

$$$$
