
     RDKit          3D

 18 18  0  0  0  0  0  0  0  0999 V2000
   37.8070   30.4430   49.3760 C   0  0  0  0  0  0  0  0  0  0  0  0
   38.2290   31.6320   49.9690 C   0  0  0  0  0  0  0  0  0  0  0  0
   38.5650   32.6810   49.0940 C   0  0  0  0  0  0  0  0  0  0  0  0
   38.4640   32.4900   47.7400 N   0  0  0  0  0  0  0  0  0  0  0  0
   38.0430   31.3000   47.2520 C   0  0  0  0  0  0  0  0  0  0  0  0
   37.7270   30.3120   48.0480 N   0  0  0  0  0  0  0  0  0  0  0  0
   37.3800   29.1480   50.5310 S   0  0  0  0  0  0  0  0  0  0  0  0
   35.7280   29.4440   51.1460 C   0  0  0  0  0  0  0  0  0  0  0  0
   34.5280   29.6800   49.8000 S   0  0  0  0  0  0  0  0  0  0  0  0
   34.4360   28.0350   48.9850 C   0  0  0  0  0  0  0  0  0  0  0  0
   38.2956   31.7438   51.0613 H   0  0  0  0  0  0  0  0  0  0  0  0
   38.9063   33.6475   49.4932 H   0  0  0  0  0  0  0  0  0  0  0  0
   37.9651   31.1611   46.1636 H   0  0  0  0  0  0  0  0  0  0  0  0
   35.4155   28.5811   51.7523 H   0  0  0  0  0  0  0  0  0  0  0  0
   35.7502   30.3662   51.7452 H   0  0  0  0  0  0  0  0  0  0  0  0
   34.3920   27.2477   49.7520 H   0  0  0  0  0  0  0  0  0  0  0  0
   33.5337   27.9866   48.3576 H   0  0  0  0  0  0  0  0  0  0  0  0
   35.3272   27.8863   48.3576 H   0  0  0  0  0  0  0  0  0  0  0  0
  1  2  2  0
  1  7  1  0
  3  2  1  0
  4  3  2  0
  5  4  1  0
  5  6  2  0
  6  1  1  0
  7  8  1  0
  9  8  1  0
 10  9  1  0
  2 11  1  0
  3 12  1  0
  5 13  1  0
  8 14  1  0
  8 15  1  0
 10 16  1  0
 10 17  1  0
 10 18  1  0
M  ISO  8  11  14  12  14  13  14  14   8  15   8  16   8  17   8  18   8
M  END
>  <minimizedAffinity>  (1) 
-3.39451814

>  <minimizedRMSD>  (1) 
0.727429152

$$$$
