
     RDKit          3D

 35 37  0  0  1  0  0  0  0  0999 V2000
   36.7380   30.3880   48.7170 N   0  0  0  0  0  0  0  0  0  0  0  0
   36.2170   29.1150   48.3130 C   0  0  0  0  0  0  0  0  0  0  0  0
   34.7850   28.8580   48.5200 C   0  0  0  0  0  0  0  0  0  0  0  0
   34.0660   29.6440   49.5570 C   0  0  0  0  0  0  0  0  0  0  0  0
   34.7640   30.8880   50.0130 C   0  0  0  0  0  0  0  0  0  0  0  0
   36.2830   30.6740   50.0280 C   0  0  1  0  0  0  0  0  0  0  0  0
   37.5840   31.2220   47.9100 C   0  0  0  0  0  0  0  0  0  0  0  0
   38.5240   32.1180   48.4160 C   0  0  0  0  0  0  0  0  0  0  0  0
   39.2720   32.8600   47.5200 C   0  0  0  0  0  0  0  0  0  0  0  0
   39.0430   32.6690   46.1780 N   0  0  0  0  0  0  0  0  0  0  0  0
   38.1420   31.8100   45.7330 C   0  0  0  0  0  0  0  0  0  0  0  0
   37.4160   31.0900   46.5930 N   0  0  0  0  0  0  0  0  0  0  0  0
   37.9410   31.6480   44.2830 C   0  0  0  0  0  0  0  0  0  0  0  0
   38.7190   30.7890   43.4830 C   0  0  0  0  0  0  0  0  0  0  0  0
   38.4250   30.7350   42.1450 C   0  0  0  0  0  0  0  0  0  0  0  0
   37.4020   31.4930   41.5980 C   0  0  0  0  0  0  0  0  0  0  0  0
   36.7640   32.4060   43.1640 S   0  0  0  0  0  0  0  0  0  0  0  0
   36.6090   29.6780   51.0860 C   0  0  0  0  0  0  0  0  0  0  0  0
   37.3360   30.3640   52.0640 F   0  0  0  0  0  0  0  0  0  0  0  0
   37.5080   28.7520   50.6080 F   0  0  0  0  0  0  0  0  0  0  0  0
   35.5600   29.1240   51.7310 F   0  0  0  0  0  0  0  0  0  0  0  0
   36.7712   28.3438   48.8680 H   0  0  0  0  0  0  0  0  0  0  0  0
   36.3433   29.1009   47.2204 H   0  0  0  0  0  0  0  0  0  0  0  0
   34.2794   29.0461   47.5613 H   0  0  0  0  0  0  0  0  0  0  0  0
   34.7481   27.8236   48.8924 H   0  0  0  0  0  0  0  0  0  0  0  0
   33.0875   29.9340   49.1465 H   0  0  0  0  0  0  0  0  0  0  0  0
   33.9966   28.9920   50.4403 H   0  0  0  0  0  0  0  0  0  0  0  0
   34.5209   31.7124   49.3265 H   0  0  0  0  0  0  0  0  0  0  0  0
   34.4281   31.1327   51.0315 H   0  0  0  0  0  0  0  0  0  0  0  0
   36.8409   31.5802   50.3064 H   0  0  0  0  0  0  0  0  0  0  0  0
   38.6674   32.2322   49.5006 H   0  0  0  0  0  0  0  0  0  0  0  0
   40.0262   33.5801   47.8701 H   0  0  0  0  0  0  0  0  0  0  0  0
   39.5307   30.1851   43.9147 H   0  0  0  0  0  0  0  0  0  0  0  0
   39.0143   30.0753   41.4911 H   0  0  0  0  0  0  0  0  0  0  0  0
   37.0524   31.5549   40.5569 H   0  0  0  0  0  0  0  0  0  0  0  0
  1  6  1  0
  2  3  1  0
  2  1  1  0
  3  4  1  0
  4  5  1  0
  5  6  1  0
  6 18  1  0
  7  8  2  0
  7  1  1  0
  9  8  1  0
 10  9  2  0
 11 10  1  0
 11 12  2  0
 12  7  1  0
 13 11  1  0
 14 13  2  0
 15 14  1  0
 16 15  2  0
 16 17  1  0
 17 13  1  0
 18 21  1  0
 18 19  1  0
 20 18  1  0
  2 22  1  0
  2 23  1  0
  3 24  1  0
  3 25  1  0
  4 26  1  0
  4 27  1  0
  5 28  1  0
  5 29  1  0
  6 30  1  1
  8 31  1  0
  9 32  1  0
 14 33  1  0
 15 34  1  0
 16 35  1  0
M  ISO  8  22  13  23  13  24  13  25  13  26  13  27  13  28  13  29  13
M  ISO  6  30  13  31  14  32  14  33  14  34  14  35  14
M  END
>  <minimizedAffinity>  (1) 
-5.69895411

>  <minimizedRMSD>  (1) 
6.71191216

$$$$
