
     RDKit          3D

 43 45  0  0  1  0  0  0  0  0999 V2000
   35.9000   29.8960   48.6350 N   0  0  0  0  0  0  0  0  0  0  0  0
   36.6660   28.9730   49.4170 C   0  0  0  0  0  0  0  0  0  0  0  0
   37.0790   29.3880   50.7670 C   0  0  0  0  0  0  0  0  0  0  0  0
   37.1760   30.8390   51.0640 C   0  0  0  0  0  0  0  0  0  0  0  0
   36.4530   31.7370   50.1020 C   0  0  0  0  0  0  0  0  0  0  0  0
   36.5310   31.1640   48.6810 C   0  0  1  0  0  0  0  0  0  0  0  0
   34.6930   29.5730   47.9270 C   0  0  0  0  0  0  0  0  0  0  0  0
   33.9990   30.4570   47.1020 C   0  0  0  0  0  0  0  0  0  0  0  0
   32.8460   29.9970   46.4840 C   0  0  0  0  0  0  0  0  0  0  0  0
   32.4550   28.7060   46.7180 N   0  0  0  0  0  0  0  0  0  0  0  0
   33.1420   27.8910   47.5100 C   0  0  0  0  0  0  0  0  0  0  0  0
   34.2500   28.3250   48.1080 N   0  0  0  0  0  0  0  0  0  0  0  0
   32.6850   26.5590   47.7130 N   0  0  0  0  0  0  0  0  0  0  0  0
   33.5120   25.3880   47.6850 C   0  0  0  0  0  0  0  0  0  0  0  0
   32.6670   24.2320   47.1910 C   0  0  0  0  0  0  0  0  0  0  0  0
   31.7470   24.7690   46.1150 C   0  0  0  0  0  0  0  0  0  0  0  0
   30.7060   25.7130   46.7030 C   0  0  0  0  0  0  0  0  0  0  0  0
   31.2840   26.2890   47.9760 C   0  0  0  0  0  0  0  0  0  0  0  0
   37.9500   31.2250   48.2260 C   0  0  0  0  0  0  0  0  0  0  0  0
   38.0300   32.2950   47.3250 F   0  0  0  0  0  0  0  0  0  0  0  0
   38.2480   30.1330   47.4500 F   0  0  0  0  0  0  0  0  0  0  0  0
   38.8720   31.4870   49.1760 F   0  0  0  0  0  0  0  0  0  0  0  0
   36.0646   28.0584   49.5256 H   0  0  0  0  0  0  0  0  0  0  0  0
   37.6098   28.8608   48.8632 H   0  0  0  0  0  0  0  0  0  0  0  0
   36.3536   28.9597   51.4744 H   0  0  0  0  0  0  0  0  0  0  0  0
   38.1139   29.0257   50.8549 H   0  0  0  0  0  0  0  0  0  0  0  0
   36.7597   31.0097   52.0678 H   0  0  0  0  0  0  0  0  0  0  0  0
   38.2420   31.0974   50.9814 H   0  0  0  0  0  0  0  0  0  0  0  0
   35.3983   31.8183   50.4035 H   0  0  0  0  0  0  0  0  0  0  0  0
   36.9250   32.7305   50.1146 H   0  0  0  0  0  0  0  0  0  0  0  0
   35.9656   31.7606   47.9500 H   0  0  0  0  0  0  0  0  0  0  0  0
   34.3546   31.4862   46.9463 H   0  0  0  0  0  0  0  0  0  0  0  0
   32.2605   30.6526   45.8227 H   0  0  0  0  0  0  0  0  0  0  0  0
   34.3618   25.5470   47.0049 H   0  0  0  0  0  0  0  0  0  0  0  0
   33.9052   25.1729   48.6895 H   0  0  0  0  0  0  0  0  0  0  0  0
   33.3132   23.4453   46.7745 H   0  0  0  0  0  0  0  0  0  0  0  0
   32.0852   23.7964   48.0167 H   0  0  0  0  0  0  0  0  0  0  0  0
   31.2336   23.9266   45.6283 H   0  0  0  0  0  0  0  0  0  0  0  0
   32.3519   25.3274   45.3855 H   0  0  0  0  0  0  0  0  0  0  0  0
   30.4868   26.5217   45.9903 H   0  0  0  0  0  0  0  0  0  0  0  0
   29.7687   25.1760   46.9108 H   0  0  0  0  0  0  0  0  0  0  0  0
   31.1853   25.5653   48.7985 H   0  0  0  0  0  0  0  0  0  0  0  0
   30.7532   27.2058   48.2721 H   0  0  0  0  0  0  0  0  0  0  0  0
  1  6  1  0
  1  2  1  0
  2  3  1  0
  3  4  1  0
  5  4  1  0
  6  5  1  0
  7 12  1  0
  7  1  1  0
  8  7  2  0
  9 10  2  0
  9  8  1  0
 10 11  1  0
 11 13  1  0
 11 12  2  0
 13 18  1  0
 14 13  1  0
 15 14  1  0
 16 17  1  0
 16 15  1  0
 17 18  1  0
 19  6  1  0
 19 22  1  0
 20 19  1  0
 21 19  1  0
  2 23  1  0
  2 24  1  0
  3 25  1  0
  3 26  1  0
  4 27  1  0
  4 28  1  0
  5 29  1  0
  5 30  1  0
  6 31  1  6
  8 32  1  0
  9 33  1  0
 14 34  1  0
 14 35  1  0
 15 36  1  0
 15 37  1  0
 16 38  1  0
 16 39  1  0
 17 40  1  0
 17 41  1  0
 18 42  1  0
 18 43  1  0
M  ISO  8  23  13  24  13  25  13  26  13  27  13  28  13  29  13  30  13
M  ISO  8  31  13  32  14  33  14  34  13  35  13  36  13  37  13  38  13
M  ISO  5  39  13  40  13  41  13  42  13  43  13
M  END
>  <minimizedAffinity>  (1) 
-5.62186384

>  <minimizedRMSD>  (1) 
1.16504729

$$$$
