
     RDKit          3D

 31 32  0  0  1  0  0  0  0  0999 V2000
   35.9080   29.9250   48.5850 N   0  0  0  0  0  0  0  0  0  0  0  0
   36.6050   28.9730   49.3790 C   0  0  0  0  0  0  0  0  0  0  0  0
   36.9540   29.3440   50.7580 C   0  0  0  0  0  0  0  0  0  0  0  0
   37.0630   30.7880   51.0950 C   0  0  0  0  0  0  0  0  0  0  0  0
   36.4110   31.7220   50.1250 C   0  0  0  0  0  0  0  0  0  0  0  0
   36.5610   31.1900   48.6900 C   0  0  1  0  0  0  0  0  0  0  0  0
   34.7330   29.6600   47.8000 C   0  0  0  0  0  0  0  0  0  0  0  0
   34.4990   30.1710   46.5250 C   0  0  0  0  0  0  0  0  0  0  0  0
   33.3070   29.8210   45.8930 C   0  0  0  0  0  0  0  0  0  0  0  0
   32.4440   28.9960   46.5680 N   0  0  0  0  0  0  0  0  0  0  0  0
   32.6970   28.5270   47.7800 C   0  0  0  0  0  0  0  0  0  0  0  0
   33.8350   28.8620   48.3830 N   0  0  0  0  0  0  0  0  0  0  0  0
   31.6990   27.6420   48.4260 C   0  0  0  0  0  0  0  0  0  0  0  0
   31.4950   28.0460   49.7110 F   0  0  0  0  0  0  0  0  0  0  0  0
   30.4930   27.6940   47.7270 F   0  0  0  0  0  0  0  0  0  0  0  0
   32.1410   26.3340   48.4050 F   0  0  0  0  0  0  0  0  0  0  0  0
   38.0030   31.2260   48.3180 C   0  0  0  0  0  0  0  0  0  0  0  0
   38.1590   32.3370   47.4760 F   0  0  0  0  0  0  0  0  0  0  0  0
   38.3150   30.1640   47.5090 F   0  0  0  0  0  0  0  0  0  0  0  0
   38.8800   31.4120   49.3290 F   0  0  0  0  0  0  0  0  0  0  0  0
   35.9782   28.0706   49.4323 H   0  0  0  0  0  0  0  0  0  0  0  0
   37.5749   28.8534   48.8741 H   0  0  0  0  0  0  0  0  0  0  0  0
   36.1842   28.9137   51.4154 H   0  0  0  0  0  0  0  0  0  0  0  0
   37.9748   28.9569   50.8924 H   0  0  0  0  0  0  0  0  0  0  0  0
   36.5990   30.9430   52.0802 H   0  0  0  0  0  0  0  0  0  0  0  0
   38.1368   31.0257   51.0712 H   0  0  0  0  0  0  0  0  0  0  0  0
   35.3422   31.8111   50.3693 H   0  0  0  0  0  0  0  0  0  0  0  0
   36.8964   32.7067   50.1945 H   0  0  0  0  0  0  0  0  0  0  0  0
   36.0558   31.8212   47.9441 H   0  0  0  0  0  0  0  0  0  0  0  0
   35.2308   30.8289   46.0335 H   0  0  0  0  0  0  0  0  0  0  0  0
   33.0665   30.1940   44.8865 H   0  0  0  0  0  0  0  0  0  0  0  0
  1  6  1  0
  1  2  1  0
  2  3  1  0
  3  4  1  0
  5  4  1  0
  6  5  1  0
  7 12  1  0
  7  1  1  0
  8  7  2  0
  9  8  1  0
  9 10  2  0
 10 11  1  0
 11 12  2  0
 11 13  1  0
 13 14  1  0
 15 13  1  0
 16 13  1  0
 17  6  1  0
 17 20  1  0
 18 17  1  0
 19 17  1  0
  2 21  1  0
  2 22  1  0
  3 23  1  0
  3 24  1  0
  4 25  1  0
  4 26  1  0
  5 27  1  0
  5 28  1  0
  6 29  1  6
  8 30  1  0
  9 31  1  0
M  ISO  8  21  13  22  13  23  13  24  13  25  13  26  13  27  13  28  13
M  ISO  3  29  13  30  14  31  14
M  END
>  <minimizedAffinity>  (1) 
-5.43456173

>  <minimizedRMSD>  (1) 
0.742412865

$$$$
