
     RDKit          3D

 21 22  0  0  0  0  0  0  0  0999 V2000
   36.8730   31.3290   48.9690 C   0  0  0  0  0  0  0  0  0  0  0  0
   36.8410   32.0190   50.0130 O   0  0  0  0  0  0  0  0  0  0  0  0
   37.9020   31.5150   47.9620 C   0  0  0  0  0  0  0  0  0  0  0  0
   38.6330   32.7120   47.9700 C   0  0  0  0  0  0  0  0  0  0  0  0
   39.6300   32.8990   47.0000 C   0  0  0  0  0  0  0  0  0  0  0  0
   39.8200   31.8870   46.1020 N   0  0  0  0  0  0  0  0  0  0  0  0
   39.1040   30.7600   46.1260 C   0  0  0  0  0  0  0  0  0  0  0  0
   38.1470   30.5610   47.0430 N   0  0  0  0  0  0  0  0  0  0  0  0
   35.8350   30.3200   48.7860 C   0  0  0  0  0  0  0  0  0  0  0  0
   35.7750   29.2300   49.6310 C   0  0  0  0  0  0  0  0  0  0  0  0
   34.8210   28.2220   49.5290 C   0  0  0  0  0  0  0  0  0  0  0  0
   33.9140   28.4030   48.4880 C   0  0  0  0  0  0  0  0  0  0  0  0
   33.9440   29.4820   47.6210 C   0  0  0  0  0  0  0  0  0  0  0  0
   34.9100   30.3940   47.8150 N   0  0  0  0  0  0  0  0  0  0  0  0
   38.4290   33.4888   48.7216 H   0  0  0  0  0  0  0  0  0  0  0  0
   40.2316   33.8193   46.9644 H   0  0  0  0  0  0  0  0  0  0  0  0
   39.3038   29.9789   45.3777 H   0  0  0  0  0  0  0  0  0  0  0  0
   36.5252   29.1538   50.4318 H   0  0  0  0  0  0  0  0  0  0  0  0
   34.7865   27.3590   50.2102 H   0  0  0  0  0  0  0  0  0  0  0  0
   33.1290   27.6456   48.3465 H   0  0  0  0  0  0  0  0  0  0  0  0
   33.2091   29.5874   46.8093 H   0  0  0  0  0  0  0  0  0  0  0  0
  1  2  2  0
  3  4  2  0
  3  1  1  0
  5  4  1  0
  6  7  1  0
  6  5  2  0
  7  8  2  0
  8  3  1  0
  9  1  1  0
  9 10  2  0
 11 10  1  0
 12 11  2  0
 13 14  2  0
 13 12  1  0
 14  9  1  0
  4 15  1  0
  5 16  1  0
  7 17  1  0
 10 18  1  0
 11 19  1  0
 12 20  1  0
 13 21  1  0
M  ISO  7  15  14  16  14  17  14  18  14  19  14  20  14  21  14
M  END
>  <minimizedAffinity>  (1) 
-4.71041632

>  <minimizedRMSD>  (1) 
3.08200121

$$$$
