
     RDKit          3D

 14 14  0  0  0  0  0  0  0  0999 V2000
   37.8630   30.8870   49.2370 C   0  0  0  0  0  0  0  0  0  0  0  0
   38.3020   32.1880   49.5650 C   0  0  0  0  0  0  0  0  0  0  0  0
   38.8590   32.9750   48.5570 C   0  0  0  0  0  0  0  0  0  0  0  0
   38.9420   32.4310   47.3100 N   0  0  0  0  0  0  0  0  0  0  0  0
   38.5190   31.1950   47.0240 C   0  0  0  0  0  0  0  0  0  0  0  0
   37.9790   30.4250   47.9870 N   0  0  0  0  0  0  0  0  0  0  0  0
   37.2820   30.0690   50.2890 C   0  0  0  0  0  0  0  0  0  0  0  0
   37.4780   30.3250   51.4990 O   0  0  0  0  0  0  0  0  0  0  0  0
   36.4760   28.9550   49.9330 N   0  0  0  0  0  0  0  0  0  0  0  0
   38.2070   32.5721   50.5914 H   0  0  0  0  0  0  0  0  0  0  0  0
   39.2173   33.9949   48.7605 H   0  0  0  0  0  0  0  0  0  0  0  0
   38.6126   30.8066   45.9991 H   0  0  0  0  0  0  0  0  0  0  0  0
   36.0577   28.3663   50.6674 H   0  0  0  0  0  0  0  0  0  0  0  0
   36.3098   28.7358   48.9404 H   0  0  0  0  0  0  0  0  0  0  0  0
  1  2  2  0
  1  7  1  0
  3  2  1  0
  4  3  2  0
  5  4  1  0
  5  6  2  0
  6  1  1  0
  7  8  2  0
  9  7  1  0
  2 10  1  0
  3 11  1  0
  5 12  1  0
  9 13  1  0
  9 14  1  0
M  ISO  3  10  14  11  14  12  14
M  END
>  <minimizedAffinity>  (1) 
-3.60741401

>  <minimizedRMSD>  (1) 
0.897224545

$$$$
