
     RDKit          3D

 41 44  0  0  1  0  0  0  0  0999 V2000
   34.4170   29.1670   48.9230 C   0  0  2  0  0  0  0  0  0  0  0  0
   35.1350   28.4250   50.0020 C   0  0  0  0  0  0  0  0  0  0  0  0
   36.3260   29.1600   50.3830 N   0  0  0  0  0  0  0  0  0  0  0  0
   37.3430   29.8580   51.1110 C   0  0  0  0  0  0  0  0  0  0  0  0
   37.6600   30.0360   52.3050 O   0  0  0  0  0  0  0  0  0  0  0  0
   37.9900   30.3730   49.9070 C   0  0  1  0  0  0  0  0  0  0  0  0
   37.1040   29.3910   49.1930 C   0  0  2  0  0  0  0  0  0  0  0  0
   35.7890   30.1420   48.1750 S   0  0  0  0  0  0  0  0  0  0  0  0
   33.2790   30.0210   49.3450 C   0  0  0  0  0  0  0  0  0  0  0  0
   34.0370   28.1690   47.8190 C   0  0  0  0  0  0  0  0  0  0  0  0
   32.5620   30.0360   45.7480 Cl  0  0  0  0  0  0  0  0  0  0  0  0
   31.8930   28.7290   46.7070 C   0  0  0  0  0  0  0  0  0  0  0  0
   32.6060   27.9900   47.6210 C   0  0  0  0  0  0  0  0  0  0  0  0
   31.9240   27.0230   48.3340 C   0  0  0  0  0  0  0  0  0  0  0  0
   30.5560   26.7840   48.1520 C   0  0  0  0  0  0  0  0  0  0  0  0
   29.8880   27.5480   47.2250 C   0  0  0  0  0  0  0  0  0  0  0  0
   30.5460   28.5140   46.5050 C   0  0  0  0  0  0  0  0  0  0  0  0
   37.7790   31.8000   49.6180 C   0  0  0  0  0  0  0  0  0  0  0  0
   36.8050   32.3110   50.2380 O   0  0  0  0  0  0  0  0  0  0  0  0
   38.6090   32.5530   48.7140 C   0  0  0  0  0  0  0  0  0  0  0  0
   39.1310   33.7550   49.1680 C   0  0  0  0  0  0  0  0  0  0  0  0
   39.9440   34.5020   48.2870 C   0  0  0  0  0  0  0  0  0  0  0  0
   40.1660   33.9910   47.0370 N   0  0  0  0  0  0  0  0  0  0  0  0
   39.6460   32.8320   46.6390 C   0  0  0  0  0  0  0  0  0  0  0  0
   38.8670   32.1070   47.4720 N   0  0  0  0  0  0  0  0  0  0  0  0
   34.4749   28.3180   50.8754 H   0  0  0  0  0  0  0  0  0  0  0  0
   35.4207   27.4283   49.6345 H   0  0  0  0  0  0  0  0  0  0  0  0
   39.0803   30.4063   49.7653 H   0  0  0  0  0  0  0  0  0  0  0  0
   37.6512   28.6537   48.5872 H   0  0  0  0  0  0  0  0  0  0  0  0
   33.2337   30.0550   50.4435 H   0  0  0  0  0  0  0  0  0  0  0  0
   33.4190   31.0389   48.9521 H   0  0  0  0  0  0  0  0  0  0  0  0
   32.3408   29.6021   48.9521 H   0  0  0  0  0  0  0  0  0  0  0  0
   34.4711   28.5244   46.8728 H   0  0  0  0  0  0  0  0  0  0  0  0
   34.4290   27.1920   48.1379 H   0  0  0  0  0  0  0  0  0  0  0  0
   32.4747   26.4195   49.0706 H   0  0  0  0  0  0  0  0  0  0  0  0
   30.0329   26.0097   48.7324 H   0  0  0  0  0  0  0  0  0  0  0  0
   28.8133   27.3834   47.0581 H   0  0  0  0  0  0  0  0  0  0  0  0
   29.9981   29.1172   45.7661 H   0  0  0  0  0  0  0  0  0  0  0  0
   38.9180   34.1162   50.1849 H   0  0  0  0  0  0  0  0  0  0  0  0
   40.3838   35.4620   48.5952 H   0  0  0  0  0  0  0  0  0  0  0  0
   39.8520   32.4614   45.6240 H   0  0  0  0  0  0  0  0  0  0  0  0
  1 10  1  6
  1  9  1  0
  1  2  1  0
  2  3  1  0
  3  4  1  0
  4  5  2  0
  6  4  1  0
  7  6  1  0
  7  3  1  0
  8  1  1  0
  8  7  1  0
 11 12  1  0
 12 13  2  0
 13 10  1  0
 13 14  1  0
 15 14  2  0
 16 15  1  0
 17 12  1  0
 17 16  2  0
 18  6  1  0
 18 19  2  0
 20 21  2  0
 20 18  1  0
 22 21  1  0
 23 22  2  0
 24 23  1  0
 24 25  2  0
 25 20  1  0
  2 26  1  0
  2 27  1  0
  6 28  1  1
  7 29  1  6
  9 30  1  0
  9 31  1  0
  9 32  1  0
 10 33  1  0
 10 34  1  0
 14 35  1  0
 15 36  1  0
 16 37  1  0
 17 38  1  0
 21 39  1  0
 22 40  1  0
 24 41  1  0
M  ISO  8  26  13  27  13  28  13  29  13  30   8  31   8  32   8  33   8
M  ISO  8  34   8  35  14  36  14  37  14  38  14  39  14  40  14  41  14
M  END
>  <minimizedAffinity>  (1) 
-5.40450144

>  <minimizedRMSD>  (1) 
1.73377633

$$$$
