
     RDKit          3D

 41 44  0  0  1  0  0  0  0  0999 V2000
   34.4700   29.1750   48.8260 C   0  0  2  0  0  0  0  0  0  0  0  0
   35.1510   28.4310   49.9270 C   0  0  0  0  0  0  0  0  0  0  0  0
   36.3340   29.1750   50.3360 N   0  0  0  0  0  0  0  0  0  0  0  0
   37.3310   29.8750   51.0860 C   0  0  0  0  0  0  0  0  0  0  0  0
   37.6200   30.0530   52.2900 O   0  0  0  0  0  0  0  0  0  0  0  0
   38.0090   30.3950   49.8990 C   0  0  1  0  0  0  0  0  0  0  0  0
   37.1360   29.4150   49.1630 C   0  0  2  0  0  0  0  0  0  0  0  0
   35.8430   30.1600   48.1150 S   0  0  0  0  0  0  0  0  0  0  0  0
   33.2980   30.0090   49.2360 C   0  0  0  0  0  0  0  0  0  0  0  0
   34.0990   28.1750   47.7230 C   0  0  0  0  0  0  0  0  0  0  0  0
   32.6560   28.0320   47.5300 C   0  0  0  0  0  0  0  0  0  0  0  0
   32.0500   27.1050   48.3830 C   0  0  0  0  0  0  0  0  0  0  0  0
   30.6840   26.8350   48.3450 C   0  0  0  0  0  0  0  0  0  0  0  0
   29.8910   27.5020   47.4370 C   0  0  0  0  0  0  0  0  0  0  0  0
   30.5040   28.4000   46.6170 C   0  0  0  0  0  0  0  0  0  0  0  0
   31.8430   28.6880   46.6280 C   0  0  0  0  0  0  0  0  0  0  0  0
   37.7880   31.8300   49.6100 C   0  0  0  0  0  0  0  0  0  0  0  0
   36.8090   32.3340   50.2310 O   0  0  0  0  0  0  0  0  0  0  0  0
   38.6210   32.5770   48.7050 C   0  0  0  0  0  0  0  0  0  0  0  0
   39.1480   33.7780   49.1610 C   0  0  0  0  0  0  0  0  0  0  0  0
   39.9650   34.5180   48.2790 C   0  0  0  0  0  0  0  0  0  0  0  0
   40.1840   34.0070   47.0420 N   0  0  0  0  0  0  0  0  0  0  0  0
   39.6640   32.8480   46.6290 C   0  0  0  0  0  0  0  0  0  0  0  0
   38.8820   32.1330   47.4630 N   0  0  0  0  0  0  0  0  0  0  0  0
   34.4661   28.3271   50.7815 H   0  0  0  0  0  0  0  0  0  0  0  0
   35.4424   27.4299   49.5764 H   0  0  0  0  0  0  0  0  0  0  0  0
   39.1023   30.4294   49.7824 H   0  0  0  0  0  0  0  0  0  0  0  0
   37.6982   28.6823   48.5655 H   0  0  0  0  0  0  0  0  0  0  0  0
   33.2423   30.0486   50.3339 H   0  0  0  0  0  0  0  0  0  0  0  0
   33.4156   31.0276   48.8378 H   0  0  0  0  0  0  0  0  0  0  0  0
   32.3741   29.5641   48.8378 H   0  0  0  0  0  0  0  0  0  0  0  0
   34.5450   28.5173   46.7776 H   0  0  0  0  0  0  0  0  0  0  0  0
   34.4842   27.1923   48.0326 H   0  0  0  0  0  0  0  0  0  0  0  0
   32.6755   26.5685   49.1117 H   0  0  0  0  0  0  0  0  0  0  0  0
   30.2434   26.0976   49.0321 H   0  0  0  0  0  0  0  0  0  0  0  0
   28.8083   27.3170   47.3769 H   0  0  0  0  0  0  0  0  0  0  0  0
   29.8755   28.9352   45.8900 H   0  0  0  0  0  0  0  0  0  0  0  0
   32.2626   29.4283   45.9309 H   0  0  0  0  0  0  0  0  0  0  0  0
   38.9356   34.1413   50.1773 H   0  0  0  0  0  0  0  0  0  0  0  0
   40.4090   35.4768   48.5848 H   0  0  0  0  0  0  0  0  0  0  0  0
   39.8726   32.4788   45.6140 H   0  0  0  0  0  0  0  0  0  0  0  0
  1 10  1  6
  1  9  1  0
  1  2  1  0
  2  3  1  0
  3  4  1  0
  4  5  2  0
  6  4  1  0
  7  6  1  0
  7  3  1  0
  8  1  1  0
  8  7  1  0
 11 10  1  0
 11 12  2  0
 13 12  1  0
 14 13  2  0
 15 16  2  0
 15 14  1  0
 16 11  1  0
 17  6  1  0
 17 18  2  0
 19 20  2  0
 19 17  1  0
 21 20  1  0
 22 21  2  0
 23 22  1  0
 23 24  2  0
 24 19  1  0
  2 25  1  0
  2 26  1  0
  6 27  1  1
  7 28  1  6
  9 29  1  0
  9 30  1  0
  9 31  1  0
 10 32  1  0
 10 33  1  0
 12 34  1  0
 13 35  1  0
 14 36  1  0
 15 37  1  0
 16 38  1  0
 20 39  1  0
 21 40  1  0
 23 41  1  0
M  ISO  8  25  13  26  13  27  13  28  13  29   8  30   8  31   8  32   8
M  ISO  8  33   8  34  14  35  14  36  14  37  14  38  14  39  14  40  14
M  ISO  1  41  14
M  END
>  <minimizedAffinity>  (1) 
-5.34742737

>  <minimizedRMSD>  (1) 
1.78833711

$$$$
