
     RDKit          3D

 23 24  0  0  0  0  0  0  0  0999 V2000
   37.6500   29.3610   50.7690 C   0  0  0  0  0  0  0  0  0  0  0  0
   38.1460   30.6710   50.5250 C   0  0  0  0  0  0  0  0  0  0  0  0
   37.4690   31.4570   49.5850 C   0  0  0  0  0  0  0  0  0  0  0  0
   36.3840   30.9190   48.9670 N   0  0  0  0  0  0  0  0  0  0  0  0
   35.9380   29.6770   49.2180 C   0  0  0  0  0  0  0  0  0  0  0  0
   36.5790   28.9110   50.1190 N   0  0  0  0  0  0  0  0  0  0  0  0
   35.8470   30.2550   46.3220 Cl  0  0  0  0  0  0  0  0  0  0  0  0
   34.6110   29.3600   47.1740 C   0  0  0  0  0  0  0  0  0  0  0  0
   34.7780   29.1610   48.5290 C   0  0  0  0  0  0  0  0  0  0  0  0
   33.8130   28.4520   49.2460 C   0  0  0  0  0  0  0  0  0  0  0  0
   32.7330   27.9900   48.5150 C   0  0  0  0  0  0  0  0  0  0  0  0
   32.5470   28.1800   47.1540 C   0  0  0  0  0  0  0  0  0  0  0  0
   33.5250   28.8930   46.4590 C   0  0  0  0  0  0  0  0  0  0  0  0
   37.9720   32.8400   49.3100 C   0  0  0  0  0  0  0  0  0  0  0  0
   39.1490   32.9460   49.9870 F   0  0  0  0  0  0  0  0  0  0  0  0
   38.1850   33.0660   47.9730 F   0  0  0  0  0  0  0  0  0  0  0  0
   37.0830   33.8000   49.8110 F   0  0  0  0  0  0  0  0  0  0  0  0
   38.1555   28.7140   51.5010 H   0  0  0  0  0  0  0  0  0  0  0  0
   39.0303   31.0533   51.0560 H   0  0  0  0  0  0  0  0  0  0  0  0
   33.9055   28.2714   50.3271 H   0  0  0  0  0  0  0  0  0  0  0  0
   31.9594   27.4265   49.0572 H   0  0  0  0  0  0  0  0  0  0  0  0
   31.6594   27.7825   46.6400 H   0  0  0  0  0  0  0  0  0  0  0  0
   33.4342   29.0769   45.3783 H   0  0  0  0  0  0  0  0  0  0  0  0
  2  1  2  0
  3  2  1  0
  4  5  1  0
  4  3  2  0
  5  6  2  0
  6  1  1  0
  7  8  1  0
  8  9  2  0
  9  5  1  0
  9 10  1  0
 11 10  2  0
 12 11  1  0
 13 12  2  0
 13  8  1  0
 14  3  1  0
 14 17  1  0
 14 15  1  0
 16 14  1  0
  1 18  1  0
  2 19  1  0
 10 20  1  0
 11 21  1  0
 12 22  1  0
 13 23  1  0
M  ISO  6  18  14  19  14  20  14  21  14  22  14  23  14
M  END
>  <minimizedAffinity>  (1) 
-5.79494715

>  <minimizedRMSD>  (1) 
1.23281395

$$$$
