
     RDKit          3D

 39 42  0  0  1  0  0  0  0  0999 V2000
   34.4770   29.1940   48.8050 C   0  0  2  0  0  0  0  0  0  0  0  0
   35.1430   28.4540   49.9300 C   0  0  0  0  0  0  0  0  0  0  0  0
   36.3300   29.1860   50.3310 N   0  0  0  0  0  0  0  0  0  0  0  0
   37.3310   29.8780   51.0830 C   0  0  0  0  0  0  0  0  0  0  0  0
   37.6210   30.0500   52.2920 O   0  0  0  0  0  0  0  0  0  0  0  0
   38.0150   30.3990   49.9010 C   0  0  1  0  0  0  0  0  0  0  0  0
   37.1390   29.4250   49.1630 C   0  0  2  0  0  0  0  0  0  0  0  0
   35.8530   30.1800   48.1130 S   0  0  0  0  0  0  0  0  0  0  0  0
   33.3020   30.0310   49.2220 C   0  0  0  0  0  0  0  0  0  0  0  0
   34.0970   28.2100   47.7060 C   0  0  0  0  0  0  0  0  0  0  0  0
   32.6530   27.9820   47.5960 C   0  0  0  0  0  0  0  0  0  0  0  0
   31.9180   27.1460   48.4110 C   0  0  0  0  0  0  0  0  0  0  0  0
   30.5520   26.9590   48.2680 C   0  0  0  0  0  0  0  0  0  0  0  0
   29.9660   27.6530   47.2720 N   0  0  0  0  0  0  0  0  0  0  0  0
   30.6910   28.4660   46.4830 C   0  0  0  0  0  0  0  0  0  0  0  0
   32.0160   28.6520   46.6140 N   0  0  0  0  0  0  0  0  0  0  0  0
   37.7980   31.8370   49.6200 C   0  0  0  0  0  0  0  0  0  0  0  0
   36.8260   32.3460   50.2480 O   0  0  0  0  0  0  0  0  0  0  0  0
   38.6300   32.5840   48.7110 C   0  0  0  0  0  0  0  0  0  0  0  0
   39.1510   33.7840   49.1640 C   0  0  0  0  0  0  0  0  0  0  0  0
   39.9690   34.5260   48.2760 C   0  0  0  0  0  0  0  0  0  0  0  0
   40.1920   34.0030   47.0230 N   0  0  0  0  0  0  0  0  0  0  0  0
   39.6710   32.8490   46.6360 C   0  0  0  0  0  0  0  0  0  0  0  0
   38.8920   32.1360   47.4720 N   0  0  0  0  0  0  0  0  0  0  0  0
   34.4514   28.3754   50.7818 H   0  0  0  0  0  0  0  0  0  0  0  0
   35.4207   27.4421   49.6000 H   0  0  0  0  0  0  0  0  0  0  0  0
   39.1083   30.4295   49.7840 H   0  0  0  0  0  0  0  0  0  0  0  0
   37.7002   28.6899   48.5675 H   0  0  0  0  0  0  0  0  0  0  0  0
   33.2497   30.0683   50.3201 H   0  0  0  0  0  0  0  0  0  0  0  0
   33.4189   31.0504   48.8257 H   0  0  0  0  0  0  0  0  0  0  0  0
   32.3767   29.5874   48.8257 H   0  0  0  0  0  0  0  0  0  0  0  0
   34.4611   28.6037   46.7456 H   0  0  0  0  0  0  0  0  0  0  0  0
   34.5573   27.2448   47.9639 H   0  0  0  0  0  0  0  0  0  0  0  0
   32.4405   26.6023   49.2119 H   0  0  0  0  0  0  0  0  0  0  0  0
   29.9820   26.2865   48.9259 H   0  0  0  0  0  0  0  0  0  0  0  0
   30.1687   29.0111   45.6830 H   0  0  0  0  0  0  0  0  0  0  0  0
   38.9372   34.1493   50.1793 H   0  0  0  0  0  0  0  0  0  0  0  0
   40.4105   35.4871   48.5781 H   0  0  0  0  0  0  0  0  0  0  0  0
   39.8759   32.4696   45.6240 H   0  0  0  0  0  0  0  0  0  0  0  0
  1 10  1  6
  1  9  1  0
  1  2  1  0
  2  3  1  0
  3  4  1  0
  4  5  2  0
  6  4  1  0
  7  6  1  0
  7  3  1  0
  8  1  1  0
  8  7  1  0
 11 10  1  0
 11 12  2  0
 13 12  1  0
 14 13  2  0
 15 16  2  0
 15 14  1  0
 16 11  1  0
 17  6  1  0
 17 18  2  0
 19 20  2  0
 19 17  1  0
 21 20  1  0
 22 21  2  0
 23 22  1  0
 23 24  2  0
 24 19  1  0
  2 25  1  0
  2 26  1  0
  6 27  1  1
  7 28  1  6
  9 29  1  0
  9 30  1  0
  9 31  1  0
 10 32  1  0
 10 33  1  0
 12 34  1  0
 13 35  1  0
 15 36  1  0
 20 37  1  0
 21 38  1  0
 23 39  1  0
M  ISO  8  25  13  26  13  27  13  28  13  29   8  30   8  31   8  32   8
M  ISO  7  33   8  34  14  35  14  36  14  37  14  38  14  39  14
M  END
>  <minimizedAffinity>  (1) 
-5.24679852

>  <minimizedRMSD>  (1) 
1.71698594

$$$$
