
     RDKit          3D

 38 41  0  0  1  0  0  0  0  0999 V2000
   34.4760   29.1510   48.8660 C   0  0  2  0  0  0  0  0  0  0  0  0
   35.1660   28.4090   49.9590 C   0  0  0  0  0  0  0  0  0  0  0  0
   36.3470   29.1590   50.3620 N   0  0  0  0  0  0  0  0  0  0  0  0
   37.3450   29.8680   51.1100 C   0  0  0  0  0  0  0  0  0  0  0  0
   37.6350   30.0520   52.3100 O   0  0  0  0  0  0  0  0  0  0  0  0
   38.0150   30.3840   49.9170 C   0  0  1  0  0  0  0  0  0  0  0  0
   37.1450   29.3960   49.1860 C   0  0  2  0  0  0  0  0  0  0  0  0
   35.8490   30.1340   48.1380 S   0  0  0  0  0  0  0  0  0  0  0  0
   33.3050   29.9790   49.2730 C   0  0  0  0  0  0  0  0  0  0  0  0
   34.1020   28.1500   47.7570 C   0  0  0  0  0  0  0  0  0  0  0  0
   32.8520   28.5570   47.0860 C   0  0  0  0  0  0  0  0  0  0  0  0
   32.8400   29.4410   46.0220 C   0  0  0  0  0  0  0  0  0  0  0  0
   31.5080   29.6050   45.6320 C   0  0  0  0  0  0  0  0  0  0  0  0
   30.7920   28.7850   46.5120 C   0  0  0  0  0  0  0  0  0  0  0  0
   31.6170   28.1950   47.3410 O   0  0  0  0  0  0  0  0  0  0  0  0
   37.7910   31.8130   49.6220 C   0  0  0  0  0  0  0  0  0  0  0  0
   36.8070   32.3180   50.2360 O   0  0  0  0  0  0  0  0  0  0  0  0
   38.6200   32.5690   48.7200 C   0  0  0  0  0  0  0  0  0  0  0  0
   39.1340   33.7710   49.1830 C   0  0  0  0  0  0  0  0  0  0  0  0
   39.9480   34.5200   48.2950 C   0  0  0  0  0  0  0  0  0  0  0  0
   40.1730   34.0060   47.0400 N   0  0  0  0  0  0  0  0  0  0  0  0
   39.6570   32.8500   46.6450 C   0  0  0  0  0  0  0  0  0  0  0  0
   38.8810   32.1260   47.4790 N   0  0  0  0  0  0  0  0  0  0  0  0
   34.4869   28.2993   50.8174 H   0  0  0  0  0  0  0  0  0  0  0  0
   35.4604   27.4101   49.6048 H   0  0  0  0  0  0  0  0  0  0  0  0
   39.1078   30.4217   49.7969 H   0  0  0  0  0  0  0  0  0  0  0  0
   37.7077   28.6618   48.5908 H   0  0  0  0  0  0  0  0  0  0  0  0
   33.2482   30.0192   50.3708 H   0  0  0  0  0  0  0  0  0  0  0  0
   33.4199   30.9977   48.8743 H   0  0  0  0  0  0  0  0  0  0  0  0
   32.3829   29.5310   48.8743 H   0  0  0  0  0  0  0  0  0  0  0  0
   34.9139   28.1125   47.0158 H   0  0  0  0  0  0  0  0  0  0  0  0
   33.9531   27.1591   48.2108 H   0  0  0  0  0  0  0  0  0  0  0  0
   33.7167   29.9253   45.5671 H   0  0  0  0  0  0  0  0  0  0  0  0
   31.1131   30.2337   44.8203 H   0  0  0  0  0  0  0  0  0  0  0  0
   29.6997   28.6554   46.5080 H   0  0  0  0  0  0  0  0  0  0  0  0
   38.9186   34.1299   50.2002 H   0  0  0  0  0  0  0  0  0  0  0  0
   40.3854   35.4818   48.6010 H   0  0  0  0  0  0  0  0  0  0  0  0
   39.8629   32.4784   45.6303 H   0  0  0  0  0  0  0  0  0  0  0  0
  1 10  1  6
  1  9  1  0
  1  2  1  0
  2  3  1  0
  3  4  1  0
  4  5  2  0
  6  4  1  0
  7  6  1  0
  7  3  1  0
  8  1  1  0
  8  7  1  0
 11 15  1  0
 11 10  1  0
 12 11  2  0
 13 12  1  0
 13 14  2  0
 14 15  1  0
 16  6  1  0
 16 17  2  0
 18 19  2  0
 18 16  1  0
 20 19  1  0
 21 20  2  0
 22 21  1  0
 22 23  2  0
 23 18  1  0
  2 24  1  0
  2 25  1  0
  6 26  1  1
  7 27  1  6
  9 28  1  0
  9 29  1  0
  9 30  1  0
 10 31  1  0
 10 32  1  0
 12 33  1  0
 13 34  1  0
 14 35  1  0
 19 36  1  0
 20 37  1  0
 22 38  1  0
M  ISO  8  24  13  25  13  26  13  27  13  28   8  29   8  30   8  31   8
M  ISO  7  32   8  33  14  34  14  35  14  36  14  37  14  38  14
M  END
>  <minimizedAffinity>  (1) 
-4.94466686

>  <minimizedRMSD>  (1) 
0.815342009

$$$$
