
     RDKit          3D

 32 34  0  0  1  0  0  0  0  0999 V2000
   34.5460   29.1280   48.6190 C   0  0  2  0  0  0  0  0  0  0  0  0
   35.1700   28.4010   49.7610 C   0  0  0  0  0  0  0  0  0  0  0  0
   36.3110   29.1680   50.2410 N   0  0  0  0  0  0  0  0  0  0  0  0
   37.2480   29.8930   51.0490 C   0  0  0  0  0  0  0  0  0  0  0  0
   37.4560   30.0820   52.2640 O   0  0  0  0  0  0  0  0  0  0  0  0
   37.9850   30.4170   49.9030 C   0  0  1  0  0  0  0  0  0  0  0  0
   37.1800   29.4150   49.1180 C   0  0  2  0  0  0  0  0  0  0  0  0
   35.9500   30.1340   47.9850 S   0  0  0  0  0  0  0  0  0  0  0  0
   33.3390   29.9410   48.9450 C   0  0  0  0  0  0  0  0  0  0  0  0
   34.2560   28.1250   47.4920 C   0  0  0  0  0  0  0  0  0  0  0  0
   34.3170   28.8050   46.2720 O   0  0  0  0  0  0  0  0  0  0  0  0
   37.7630   31.8410   49.5900 C   0  0  0  0  0  0  0  0  0  0  0  0
   36.7660   32.3450   50.1810 O   0  0  0  0  0  0  0  0  0  0  0  0
   38.6090   32.5910   48.6960 C   0  0  0  0  0  0  0  0  0  0  0  0
   39.1350   33.7840   49.1670 C   0  0  0  0  0  0  0  0  0  0  0  0
   39.9670   34.5270   48.2930 C   0  0  0  0  0  0  0  0  0  0  0  0
   40.1960   34.0210   47.0430 N   0  0  0  0  0  0  0  0  0  0  0  0
   39.6700   32.8710   46.6320 C   0  0  0  0  0  0  0  0  0  0  0  0
   38.8740   32.1510   47.4540 N   0  0  0  0  0  0  0  0  0  0  0  0
   34.4351   28.2859   50.5714 H   0  0  0  0  0  0  0  0  0  0  0  0
   35.5019   27.4051   49.4324 H   0  0  0  0  0  0  0  0  0  0  0  0
   39.0826   30.4711   49.8554 H   0  0  0  0  0  0  0  0  0  0  0  0
   37.7895   28.6869   48.5627 H   0  0  0  0  0  0  0  0  0  0  0  0
   33.2303   30.0142   50.0372 H   0  0  0  0  0  0  0  0  0  0  0  0
   33.4500   30.9491   48.5191 H   0  0  0  0  0  0  0  0  0  0  0  0
   32.4465   29.4593   48.5191 H   0  0  0  0  0  0  0  0  0  0  0  0
   35.0066   27.3210   47.5075 H   0  0  0  0  0  0  0  0  0  0  0  0
   33.2593   27.6800   47.6282 H   0  0  0  0  0  0  0  0  0  0  0  0
   34.4042   29.7768   46.4398 H   0  0  0  0  0  0  0  0  0  0  0  0
   38.9143   34.1414   50.1836 H   0  0  0  0  0  0  0  0  0  0  0  0
   40.4146   35.4806   48.6098 H   0  0  0  0  0  0  0  0  0  0  0  0
   39.8837   32.5034   45.6175 H   0  0  0  0  0  0  0  0  0  0  0  0
  1 10  1  6
  1  9  1  0
  1  2  1  0
  2  3  1  0
  3  4  1  0
  4  5  2  0
  6  4  1  0
  7  6  1  0
  7  3  1  0
  8  1  1  0
  8  7  1  0
 11 10  1  0
 12  6  1  0
 12 13  2  0
 14 15  2  0
 14 12  1  0
 16 15  1  0
 17 16  2  0
 18 17  1  0
 18 19  2  0
 19 14  1  0
  2 20  1  0
  2 21  1  0
  6 22  1  1
  7 23  1  6
  9 24  1  0
  9 25  1  0
  9 26  1  0
 10 27  1  0
 10 28  1  0
 11 29  1  0
 15 30  1  0
 16 31  1  0
 18 32  1  0
M  ISO  8  20  13  21  13  22  13  23  13  24   8  25   8  26   8  27   8
M  ISO  5  28   8  29   3  30  14  31  14  32  14
M  END
>  <minimizedAffinity>  (1) 
-4.53866863

>  <minimizedRMSD>  (1) 
0.458472013

$$$$
