
     RDKit          3D

 42 45  0  0  1  0  0  0  0  0999 V2000
   34.5360   29.1200   48.6910 C   0  0  2  0  0  0  0  0  0  0  0  0
   35.1760   28.3800   49.8140 C   0  0  0  0  0  0  0  0  0  0  0  0
   36.3070   29.1570   50.3140 N   0  0  0  0  0  0  0  0  0  0  0  0
   37.2580   29.8920   51.1080 C   0  0  0  0  0  0  0  0  0  0  0  0
   37.4660   30.0760   52.3200 O   0  0  0  0  0  0  0  0  0  0  0  0
   37.9820   30.4160   49.9830 C   0  0  1  0  0  0  0  0  0  0  0  0
   37.1560   29.4150   49.1870 C   0  0  2  0  0  0  0  0  0  0  0  0
   35.9450   30.1270   48.0490 S   0  0  0  0  0  0  0  0  0  0  0  0
   33.3310   29.9320   49.0230 C   0  0  0  0  0  0  0  0  0  0  0  0
   34.2490   28.1150   47.5600 C   0  0  0  0  0  0  0  0  0  0  0  0
   34.2810   28.8040   46.3440 O   0  0  0  0  0  0  0  0  0  0  0  0
   37.7650   31.8360   49.6510 C   0  0  0  0  0  0  0  0  0  0  0  0
   36.7560   32.3440   50.2410 O   0  0  0  0  0  0  0  0  0  0  0  0
   38.5910   32.5910   48.7610 C   0  0  0  0  0  0  0  0  0  0  0  0
   39.1550   33.7580   49.2200 C   0  0  0  0  0  0  0  0  0  0  0  0
   39.9650   34.5000   48.3290 C   0  0  0  0  0  0  0  0  0  0  0  0
   40.1400   34.0120   47.0680 N   0  0  0  0  0  0  0  0  0  0  0  0
   39.5830   32.8800   46.6500 C   0  0  0  0  0  0  0  0  0  0  0  0
   38.8060   32.1630   47.4940 N   0  0  0  0  0  0  0  0  0  0  0  0
   39.7940   32.3890   45.2880 C   0  0  0  0  0  0  0  0  0  0  0  0
   40.4520   31.2110   45.0540 C   0  0  0  0  0  0  0  0  0  0  0  0
   40.6070   30.8210   43.7360 C   0  0  0  0  0  0  0  0  0  0  0  0
   40.1390   31.5490   42.6610 C   0  0  0  0  0  0  0  0  0  0  0  0
   39.4760   32.7390   42.9440 C   0  0  0  0  0  0  0  0  0  0  0  0
   39.3030   33.1590   44.2480 C   0  0  0  0  0  0  0  0  0  0  0  0
   34.4445   28.2320   50.6221 H   0  0  0  0  0  0  0  0  0  0  0  0
   35.5271   27.3995   49.4599 H   0  0  0  0  0  0  0  0  0  0  0  0
   39.0802   30.4703   49.9508 H   0  0  0  0  0  0  0  0  0  0  0  0
   37.7561   28.6878   48.6204 H   0  0  0  0  0  0  0  0  0  0  0  0
   33.2261   30.0027   50.1157 H   0  0  0  0  0  0  0  0  0  0  0  0
   33.4407   30.9411   48.5992 H   0  0  0  0  0  0  0  0  0  0  0  0
   32.4369   29.4515   48.5992 H   0  0  0  0  0  0  0  0  0  0  0  0
   35.0147   27.3252   47.5606 H   0  0  0  0  0  0  0  0  0  0  0  0
   33.2632   27.6495   47.7068 H   0  0  0  0  0  0  0  0  0  0  0  0
   34.3262   29.7776   46.5175 H   0  0  0  0  0  0  0  0  0  0  0  0
   38.9814   34.1042   50.2496 H   0  0  0  0  0  0  0  0  0  0  0  0
   40.4390   35.4415   48.6436 H   0  0  0  0  0  0  0  0  0  0  0  0
   40.8417   30.5994   45.8811 H   0  0  0  0  0  0  0  0  0  0  0  0
   41.1333   29.8767   43.5331 H   0  0  0  0  0  0  0  0  0  0  0  0
   40.2837   31.2038   41.6266 H   0  0  0  0  0  0  0  0  0  0  0  0
   39.0849   33.3526   42.1191 H   0  0  0  0  0  0  0  0  0  0  0  0
   38.7771   34.1017   44.4594 H   0  0  0  0  0  0  0  0  0  0  0  0
  1 10  1  6
  1  9  1  0
  1  2  1  0
  2  3  1  0
  3  4  1  0
  4  5  2  0
  6  4  1  0
  7  6  1  0
  7  3  1  0
  8  1  1  0
  8  7  1  0
 11 10  1  0
 12  6  1  0
 12 13  2  0
 14 15  2  0
 14 12  1  0
 16 15  1  0
 17 16  2  0
 18 17  1  0
 18 19  2  0
 19 14  1  0
 20 18  1  0
 21 20  2  0
 22 21  1  0
 23 24  1  0
 23 22  2  0
 24 25  2  0
 25 20  1  0
  2 26  1  0
  2 27  1  0
  6 28  1  1
  7 29  1  6
  9 30  1  0
  9 31  1  0
  9 32  1  0
 10 33  1  0
 10 34  1  0
 11 35  1  0
 15 36  1  0
 16 37  1  0
 21 38  1  0
 22 39  1  0
 23 40  1  0
 24 41  1  0
 25 42  1  0
M  ISO  8  26  13  27  13  28  13  29  13  30   8  31   8  32   8  33   8
M  ISO  8  34   8  35   3  36  14  37  14  38  14  39  14  40  14  41  14
M  ISO  1  42  14
M  END
>  <minimizedAffinity>  (1) 
-6.12896633

>  <minimizedRMSD>  (1) 
0.195140377

$$$$
