
     RDKit          3D

 44 47  0  0  1  0  0  0  0  0999 V2000
   34.5370   29.0980   48.5940 C   0  0  2  0  0  0  0  0  0  0  0  0
   35.1830   28.3350   49.7010 C   0  0  0  0  0  0  0  0  0  0  0  0
   36.3000   29.1150   50.2250 N   0  0  0  0  0  0  0  0  0  0  0  0
   37.2300   29.8390   51.0590 C   0  0  0  0  0  0  0  0  0  0  0  0
   37.4280   29.9740   52.2720 O   0  0  0  0  0  0  0  0  0  0  0  0
   37.9430   30.4250   49.9550 C   0  0  1  0  0  0  0  0  0  0  0  0
   37.1480   29.4270   49.1160 C   0  0  2  0  0  0  0  0  0  0  0  0
   35.9300   30.1520   47.9950 S   0  0  0  0  0  0  0  0  0  0  0  0
   33.3160   29.8760   48.9350 C   0  0  0  0  0  0  0  0  0  0  0  0
   34.2830   28.1200   47.4320 C   0  0  0  0  0  0  0  0  0  0  0  0
   34.3440   28.8350   46.2330 O   0  0  0  0  0  0  0  0  0  0  0  0
   37.7070   31.8420   49.6670 C   0  0  0  0  0  0  0  0  0  0  0  0
   36.6260   32.2770   50.1850 O   0  0  0  0  0  0  0  0  0  0  0  0
   38.5800   32.6730   48.8970 C   0  0  0  0  0  0  0  0  0  0  0  0
   39.0060   33.8590   49.4460 C   0  0  0  0  0  0  0  0  0  0  0  0
   39.8750   34.6740   48.6680 C   0  0  0  0  0  0  0  0  0  0  0  0
   40.2280   34.2280   47.4340 N   0  0  0  0  0  0  0  0  0  0  0  0
   39.7960   33.0650   46.9240 C   0  0  0  0  0  0  0  0  0  0  0  0
   38.9700   32.2850   47.6580 N   0  0  0  0  0  0  0  0  0  0  0  0
   40.2010   32.6520   45.6230 N   0  0  0  0  0  0  0  0  0  0  0  0
   39.9520   33.3760   44.3890 C   0  0  0  0  0  0  0  0  0  0  0  0
   39.5300   32.2410   43.4790 C   0  0  0  0  0  0  0  0  0  0  0  0
   40.1430   30.9910   44.0740 C   0  0  0  0  0  0  0  0  0  0  0  0
   40.9320   31.4420   45.2860 C   0  0  0  0  0  0  0  0  0  0  0  0
   34.4506   28.1552   50.5018 H   0  0  0  0  0  0  0  0  0  0  0  0
   35.5484   27.3686   49.3234 H   0  0  0  0  0  0  0  0  0  0  0  0
   39.0394   30.5122   49.9352 H   0  0  0  0  0  0  0  0  0  0  0  0
   37.7680   28.7319   48.5308 H   0  0  0  0  0  0  0  0  0  0  0  0
   33.2155   29.9400   50.0285 H   0  0  0  0  0  0  0  0  0  0  0  0
   33.3974   30.8891   48.5143 H   0  0  0  0  0  0  0  0  0  0  0  0
   32.4321   29.3742   48.5143 H   0  0  0  0  0  0  0  0  0  0  0  0
   35.0510   27.3325   47.4345 H   0  0  0  0  0  0  0  0  0  0  0  0
   33.2945   27.6503   47.5423 H   0  0  0  0  0  0  0  0  0  0  0  0
   34.4265   29.8019   46.4292 H   0  0  0  0  0  0  0  0  0  0  0  0
   38.6861   34.1675   50.4522 H   0  0  0  0  0  0  0  0  0  0  0  0
   40.2490   35.6341   49.0531 H   0  0  0  0  0  0  0  0  0  0  0  0
   39.1497   34.1188   44.5095 H   0  0  0  0  0  0  0  0  0  0  0  0
   40.8078   33.9618   44.0222 H   0  0  0  0  0  0  0  0  0  0  0  0
   39.9081   32.4059   42.4593 H   0  0  0  0  0  0  0  0  0  0  0  0
   38.4351   32.1626   43.4079 H   0  0  0  0  0  0  0  0  0  0  0  0
   39.3543   30.2852   44.3736 H   0  0  0  0  0  0  0  0  0  0  0  0
   40.7867   30.4752   43.3463 H   0  0  0  0  0  0  0  0  0  0  0  0
   40.8928   30.7011   46.0982 H   0  0  0  0  0  0  0  0  0  0  0  0
   42.0091   31.5829   45.1130 H   0  0  0  0  0  0  0  0  0  0  0  0
  1 10  1  6
  1  9  1  0
  1  2  1  0
  2  3  1  0
  3  4  1  0
  4  5  2  0
  6  4  1  0
  7  6  1  0
  7  3  1  0
  8  1  1  0
  8  7  1  0
 11 10  1  0
 12  6  1  0
 12 13  2  0
 14 15  2  0
 14 12  1  0
 16 15  1  0
 17 16  2  0
 18 17  1  0
 18 19  2  0
 19 14  1  0
 20 18  1  0
 21 20  1  0
 22 23  1  0
 22 21  1  0
 23 24  1  0
 24 20  1  0
  2 25  1  0
  2 26  1  0
  6 27  1  1
  7 28  1  6
  9 29  1  0
  9 30  1  0
  9 31  1  0
 10 32  1  0
 10 33  1  0
 11 34  1  0
 15 35  1  0
 16 36  1  0
 21 37  1  0
 21 38  1  0
 22 39  1  0
 22 40  1  0
 23 41  1  0
 23 42  1  0
 24 43  1  0
 24 44  1  0
M  ISO  8  25  13  26  13  27  13  28  13  29   8  30   8  31   8  32   8
M  ISO  8  33   8  34   3  35  14  36  14  37  13  38  13  39  13  40  13
M  ISO  4  41  13  42  13  43  13  44  13
M  END
>  <minimizedAffinity>  (1) 
-6.02318668

>  <minimizedRMSD>  (1) 
0.321121454

$$$$
