
     RDKit          3D

 28 29  0  0  0  0  0  0  0  0999 V2000
   37.4300   29.3670   50.7810 C   0  0  0  0  0  0  0  0  0  0  0  0
   37.9840   30.6550   50.5710 C   0  0  0  0  0  0  0  0  0  0  0  0
   37.4230   31.4310   49.5430 C   0  0  0  0  0  0  0  0  0  0  0  0
   36.3950   30.8900   48.8260 N   0  0  0  0  0  0  0  0  0  0  0  0
   35.9030   29.6690   49.0570 C   0  0  0  0  0  0  0  0  0  0  0  0
   36.4280   28.9160   50.0380 N   0  0  0  0  0  0  0  0  0  0  0  0
   34.8280   29.1780   48.2640 N   0  0  0  0  0  0  0  0  0  0  0  0
   34.2800   30.0150   47.2110 C   0  0  0  0  0  0  0  0  0  0  0  0
   33.4190   29.2030   46.2700 C   0  0  0  0  0  0  0  0  0  0  0  0
   32.3230   28.5280   47.0360 C   0  0  0  0  0  0  0  0  0  0  0  0
   32.7770   27.8260   48.2800 C   0  0  0  0  0  0  0  0  0  0  0  0
   34.2730   27.8580   48.4910 C   0  0  0  0  0  0  0  0  0  0  0  0
   37.9650   32.7860   49.2810 C   0  0  0  0  0  0  0  0  0  0  0  0
   39.1590   32.8470   49.9660 F   0  0  0  0  0  0  0  0  0  0  0  0
   38.2310   33.0040   47.9410 F   0  0  0  0  0  0  0  0  0  0  0  0
   37.1290   33.7880   49.7580 F   0  0  0  0  0  0  0  0  0  0  0  0
   37.8398   28.7280   51.5771 H   0  0  0  0  0  0  0  0  0  0  0  0
   38.8158   31.0299   51.1854 H   0  0  0  0  0  0  0  0  0  0  0  0
   33.6685   30.8094   47.6638 H   0  0  0  0  0  0  0  0  0  0  0  0
   35.1125   30.4503   46.6387 H   0  0  0  0  0  0  0  0  0  0  0  0
   34.0389   28.4421   45.7733 H   0  0  0  0  0  0  0  0  0  0  0  0
   32.9760   29.8712   45.5169 H   0  0  0  0  0  0  0  0  0  0  0  0
   31.5834   29.2904   47.3219 H   0  0  0  0  0  0  0  0  0  0  0  0
   31.9080   27.7543   46.3733 H   0  0  0  0  0  0  0  0  0  0  0  0
   32.2952   28.3067   49.1442 H   0  0  0  0  0  0  0  0  0  0  0  0
   32.4929   26.7689   48.1713 H   0  0  0  0  0  0  0  0  0  0  0  0
   34.7447   27.1502   47.7935 H   0  0  0  0  0  0  0  0  0  0  0  0
   34.4734   27.5817   49.5367 H   0  0  0  0  0  0  0  0  0  0  0  0
  2  1  2  0
  3  2  1  0
  4  5  1  0
  4  3  2  0
  5  6  2  0
  6  1  1  0
  7 12  1  0
  7  5  1  0
  8  7  1  0
  9 10  1  0
  9  8  1  0
 10 11  1  0
 11 12  1  0
 13  3  1  0
 13 16  1  0
 13 14  1  0
 15 13  1  0
  1 17  1  0
  2 18  1  0
  8 19  1  0
  8 20  1  0
  9 21  1  0
  9 22  1  0
 10 23  1  0
 10 24  1  0
 11 25  1  0
 11 26  1  0
 12 27  1  0
 12 28  1  0
M  ISO  8  17  14  18  14  19  13  20  13  21  13  22  13  23  13  24  13
M  ISO  4  25  13  26  13  27  13  28  13
M  END
>  <minimizedAffinity>  (1) 
-5.68783808

>  <minimizedRMSD>  (1) 
1.35285902

$$$$
