
     RDKit          3D

 39 42  0  0  1  0  0  0  0  0999 V2000
   34.5050   29.0800   48.7460 C   0  0  2  0  0  0  0  0  0  0  0  0
   35.1330   28.3550   49.8870 C   0  0  0  0  0  0  0  0  0  0  0  0
   36.2640   29.1340   50.3820 N   0  0  0  0  0  0  0  0  0  0  0  0
   37.2050   29.8740   51.1880 C   0  0  0  0  0  0  0  0  0  0  0  0
   37.4040   30.0590   52.3940 O   0  0  0  0  0  0  0  0  0  0  0  0
   37.9300   30.3990   50.0650 C   0  0  1  0  0  0  0  0  0  0  0  0
   37.1210   29.3790   49.2630 C   0  0  2  0  0  0  0  0  0  0  0  0
   35.9210   30.0780   48.1070 S   0  0  0  0  0  0  0  0  0  0  0  0
   33.2990   29.9000   49.0520 C   0  0  0  0  0  0  0  0  0  0  0  0
   34.2320   28.0600   47.6250 C   0  0  0  0  0  0  0  0  0  0  0  0
   34.2430   28.7360   46.4020 O   0  0  0  0  0  0  0  0  0  0  0  0
   37.7290   31.8040   49.7100 C   0  0  0  0  0  0  0  0  0  0  0  0
   36.7200   32.3170   50.2960 O   0  0  0  0  0  0  0  0  0  0  0  0
   38.5570   32.5490   48.8140 C   0  0  0  0  0  0  0  0  0  0  0  0
   39.0650   33.7510   49.2400 C   0  0  0  0  0  0  0  0  0  0  0  0
   39.8870   34.4780   48.3390 C   0  0  0  0  0  0  0  0  0  0  0  0
   40.1210   33.9420   47.1130 N   0  0  0  0  0  0  0  0  0  0  0  0
   39.6110   32.7630   46.7230 C   0  0  0  0  0  0  0  0  0  0  0  0
   38.8280   32.0700   47.5790 N   0  0  0  0  0  0  0  0  0  0  0  0
   39.9030   32.2470   45.3900 C   0  0  0  0  0  0  0  0  0  0  0  0
   40.6460   31.1050   45.1660 C   0  0  0  0  0  0  0  0  0  0  0  0
   40.7720   30.8440   43.8560 N   0  0  0  0  0  0  0  0  0  0  0  0
   40.0920   31.8430   43.2260 C   0  0  0  0  0  0  0  0  0  0  0  0
   39.5780   32.6760   44.1600 N   0  0  0  0  0  0  0  0  0  0  0  0
   34.3948   28.2246   50.6920 H   0  0  0  0  0  0  0  0  0  0  0  0
   35.4812   27.3668   49.5522 H   0  0  0  0  0  0  0  0  0  0  0  0
   39.0278   30.4668   50.0511 H   0  0  0  0  0  0  0  0  0  0  0  0
   37.7292   28.6477   48.7105 H   0  0  0  0  0  0  0  0  0  0  0  0
   33.1784   29.9820   50.1423 H   0  0  0  0  0  0  0  0  0  0  0  0
   33.4192   30.9044   48.6198 H   0  0  0  0  0  0  0  0  0  0  0  0
   32.4092   29.4189   48.6198 H   0  0  0  0  0  0  0  0  0  0  0  0
   35.0134   27.2858   47.6287 H   0  0  0  0  0  0  0  0  0  0  0  0
   33.2558   27.5779   47.7819 H   0  0  0  0  0  0  0  0  0  0  0  0
   34.2589   29.7124   46.5648 H   0  0  0  0  0  0  0  0  0  0  0  0
   38.8428   34.1379   50.2454 H   0  0  0  0  0  0  0  0  0  0  0  0
   40.3217   35.4470   48.6254 H   0  0  0  0  0  0  0  0  0  0  0  0
   41.0813   30.4852   45.9637 H   0  0  0  0  0  0  0  0  0  0  0  0
   41.2746   30.0577   43.4202 H   0  0  0  0  0  0  0  0  0  0  0  0
   39.9796   31.9538   42.1374 H   0  0  0  0  0  0  0  0  0  0  0  0
  1 10  1  6
  1  9  1  0
  1  2  1  0
  2  3  1  0
  3  4  1  0
  4  5  2  0
  6  4  1  0
  7  6  1  0
  7  3  1  0
  8  1  1  0
  8  7  1  0
 11 10  1  0
 12  6  1  0
 12 13  2  0
 14 15  2  0
 14 12  1  0
 16 15  1  0
 17 16  2  0
 18 17  1  0
 18 19  2  0
 19 14  1  0
 20 18  1  0
 21 20  2  0
 22 21  1  0
 23 22  1  0
 23 24  2  0
 24 20  1  0
  2 25  1  0
  2 26  1  0
  6 27  1  1
  7 28  1  6
  9 29  1  0
  9 30  1  0
  9 31  1  0
 10 32  1  0
 10 33  1  0
 11 34  1  0
 15 35  1  0
 16 36  1  0
 21 37  1  0
 22 38  1  0
 23 39  1  0
M  ISO  8  25  13  26  13  27  13  28  13  29   8  30   8  31   8  32   8
M  ISO  7  33   8  34   3  35  14  36  14  37  14  38   9  39  14
M  END
>  <minimizedAffinity>  (1) 
-5.70269871

>  <minimizedRMSD>  (1) 
0.296841204

$$$$
