
     RDKit          3D

 34 36  0  0  1  0  0  0  0  0999 V2000
   34.5550   29.1550   48.6020 C   0  0  2  0  0  0  0  0  0  0  0  0
   35.1840   28.4100   49.7290 C   0  0  0  0  0  0  0  0  0  0  0  0
   36.3190   29.1770   50.2400 N   0  0  0  0  0  0  0  0  0  0  0  0
   37.2680   29.8970   51.0440 C   0  0  0  0  0  0  0  0  0  0  0  0
   37.4740   30.0640   52.2590 O   0  0  0  0  0  0  0  0  0  0  0  0
   37.9970   30.4320   49.9280 C   0  0  1  0  0  0  0  0  0  0  0  0
   37.1700   29.4410   49.1200 C   0  0  2  0  0  0  0  0  0  0  0  0
   35.9670   30.1670   47.9820 S   0  0  0  0  0  0  0  0  0  0  0  0
   33.3480   29.9620   48.9310 C   0  0  0  0  0  0  0  0  0  0  0  0
   34.2800   28.1580   47.4590 C   0  0  0  0  0  0  0  0  0  0  0  0
   34.3570   28.8410   46.2480 O   0  0  0  0  0  0  0  0  0  0  0  0
   37.7790   31.8620   49.6090 C   0  0  0  0  0  0  0  0  0  0  0  0
   36.7520   32.3520   50.1820 O   0  0  0  0  0  0  0  0  0  0  0  0
   38.6280   32.6280   48.7500 C   0  0  0  0  0  0  0  0  0  0  0  0
   39.1240   33.8230   49.2230 C   0  0  0  0  0  0  0  0  0  0  0  0
   39.9630   34.5750   48.3650 C   0  0  0  0  0  0  0  0  0  0  0  0
   40.2320   34.0690   47.1130 N   0  0  0  0  0  0  0  0  0  0  0  0
   39.7330   32.9130   46.6980 C   0  0  0  0  0  0  0  0  0  0  0  0
   38.9310   32.1860   47.5070 N   0  0  0  0  0  0  0  0  0  0  0  0
   40.0930   32.5180   45.3900 N   0  0  0  0  0  0  0  0  0  0  0  0
   34.4461   28.2662   50.5320 H   0  0  0  0  0  0  0  0  0  0  0  0
   35.5317   27.4286   49.3741 H   0  0  0  0  0  0  0  0  0  0  0  0
   39.0954   30.4851   49.8996 H   0  0  0  0  0  0  0  0  0  0  0  0
   37.7687   28.7162   48.5489 H   0  0  0  0  0  0  0  0  0  0  0  0
   33.2413   30.0334   50.0235 H   0  0  0  0  0  0  0  0  0  0  0  0
   33.4547   30.9711   48.5063 H   0  0  0  0  0  0  0  0  0  0  0  0
   32.4563   29.4778   48.5063 H   0  0  0  0  0  0  0  0  0  0  0  0
   35.0303   27.3539   47.4797 H   0  0  0  0  0  0  0  0  0  0  0  0
   33.2804   27.7146   47.5784 H   0  0  0  0  0  0  0  0  0  0  0  0
   34.4662   29.8095   46.4217 H   0  0  0  0  0  0  0  0  0  0  0  0
   38.8767   34.1811   50.2332 H   0  0  0  0  0  0  0  0  0  0  0  0
   40.3878   35.5363   48.6896 H   0  0  0  0  0  0  0  0  0  0  0  0
   39.7402   31.6304   45.0046 H   0  0  0  0  0  0  0  0  0  0  0  0
   40.7082   33.1177   44.8219 H   0  0  0  0  0  0  0  0  0  0  0  0
  1 10  1  6
  1  9  1  0
  1  2  1  0
  2  3  1  0
  3  4  1  0
  4  5  2  0
  6  4  1  0
  7  6  1  0
  7  3  1  0
  8  1  1  0
  8  7  1  0
 11 10  1  0
 12  6  1  0
 12 13  2  0
 14 15  2  0
 14 12  1  0
 16 15  1  0
 17 16  2  0
 18 17  1  0
 18 19  2  0
 19 14  1  0
 20 18  1  0
  2 21  1  0
  2 22  1  0
  6 23  1  1
  7 24  1  6
  9 25  1  0
  9 26  1  0
  9 27  1  0
 10 28  1  0
 10 29  1  0
 11 30  1  0
 15 31  1  0
 16 32  1  0
 20 33  1  0
 20 34  1  0
M  ISO  8  21  13  22  13  23  13  24  13  25   8  26   8  27   8  28   8
M  ISO  4  29   8  30   3  31  14  32  14
M  END
>  <minimizedAffinity>  (1) 
-4.83399343

>  <minimizedRMSD>  (1) 
0.0612322874

$$$$
