
     RDKit          3D

 27 28  0  0  0  0  0  0  0  0999 V2000
   38.1130   31.1670   49.1370 C   0  0  0  0  0  0  0  0  0  0  0  0
   37.1930   30.4110   48.3790 C   0  0  0  0  0  0  0  0  0  0  0  0
   36.4050   29.4970   49.0630 C   0  0  0  0  0  0  0  0  0  0  0  0
   36.5330   29.3570   50.4100 N   0  0  0  0  0  0  0  0  0  0  0  0
   37.4280   30.1020   51.1020 C   0  0  0  0  0  0  0  0  0  0  0  0
   38.2170   31.0020   50.4860 N   0  0  0  0  0  0  0  0  0  0  0  0
   37.1350   30.6400   46.9370 C   0  0  0  0  0  0  0  0  0  0  0  0
   36.0850   30.3210   46.3860 O   0  0  0  0  0  0  0  0  0  0  0  0
   38.1730   31.1900   46.1430 N   0  0  0  0  0  0  0  0  0  0  0  0
   38.5940   30.2670   45.1160 C   0  0  0  0  0  0  0  0  0  0  0  0
   39.4700   30.9200   44.0780 C   0  0  0  0  0  0  0  0  0  0  0  0
   40.6500   31.5920   44.7350 C   0  0  0  0  0  0  0  0  0  0  0  0
   40.2870   32.4280   45.9270 C   0  0  0  0  0  0  0  0  0  0  0  0
   38.8170   32.4540   46.2210 C   0  0  0  0  0  0  0  0  0  0  0  0
   38.7566   31.9014   48.6307 H   0  0  0  0  0  0  0  0  0  0  0  0
   35.6747   28.8838   48.5147 H   0  0  0  0  0  0  0  0  0  0  0  0
   37.5118   29.9687   52.1907 H   0  0  0  0  0  0  0  0  0  0  0  0
   39.1562   29.4473   45.5871 H   0  0  0  0  0  0  0  0  0  0  0  0
   37.6912   29.8978   44.6075 H   0  0  0  0  0  0  0  0  0  0  0  0
   38.8836   31.6718   43.5295 H   0  0  0  0  0  0  0  0  0  0  0  0
   39.8380   30.1492   43.3848 H   0  0  0  0  0  0  0  0  0  0  0  0
   41.3555   30.8131   45.0600 H   0  0  0  0  0  0  0  0  0  0  0  0
   41.0866   32.2721   43.9888 H   0  0  0  0  0  0  0  0  0  0  0  0
   40.8098   32.0240   46.8065 H   0  0  0  0  0  0  0  0  0  0  0  0
   40.5869   33.4612   45.6978 H   0  0  0  0  0  0  0  0  0  0  0  0
   38.3351   33.1291   45.4985 H   0  0  0  0  0  0  0  0  0  0  0  0
   38.7148   32.7907   47.2632 H   0  0  0  0  0  0  0  0  0  0  0  0
  1  6  2  0
  2  3  2  0
  2  1  1  0
  3  4  1  0
  4  5  2  0
  6  5  1  0
  7  2  1  0
  8  7  2  0
  9 14  1  0
  9  7  1  0
 10  9  1  0
 11 12  1  0
 11 10  1  0
 12 13  1  0
 13 14  1  0
  1 15  1  0
  3 16  1  0
  5 17  1  0
 10 18  1  0
 10 19  1  0
 11 20  1  0
 11 21  1  0
 12 22  1  0
 12 23  1  0
 13 24  1  0
 13 25  1  0
 14 26  1  0
 14 27  1  0
M  ISO  8  15  14  16  14  17  14  18  13  19  13  20  13  21  13  22  13
M  ISO  5  23  13  24  13  25  13  26  13  27  13
M  END
>  <minimizedAffinity>  (1) 
-4.77174568

>  <minimizedRMSD>  (1) 
5.16494513

$$$$
