
     RDKit          3D

 26 27  0  0  0  0  0  0  0  0999 V2000
   37.7640   29.7230   50.3020 C   0  0  0  0  0  0  0  0  0  0  0  0
   38.3790   31.0080   50.2530 C   0  0  0  0  0  0  0  0  0  0  0  0
   38.0000   31.8660   49.2230 C   0  0  0  0  0  0  0  0  0  0  0  0
   37.0710   31.4310   48.3330 N   0  0  0  0  0  0  0  0  0  0  0  0
   36.5040   30.2230   48.3950 C   0  0  0  0  0  0  0  0  0  0  0  0
   36.8560   29.3890   49.3730 N   0  0  0  0  0  0  0  0  0  0  0  0
   34.3380   29.2270   47.6280 C   0  0  0  0  0  0  0  0  0  0  0  0
   35.5210   29.8890   47.3710 C   0  0  0  0  0  0  0  0  0  0  0  0
   35.7790   30.2500   46.0660 C   0  0  0  0  0  0  0  0  0  0  0  0
   34.8860   29.9630   45.0390 C   0  0  0  0  0  0  0  0  0  0  0  0
   33.7010   29.3030   45.2870 C   0  0  0  0  0  0  0  0  0  0  0  0
   33.4490   28.9400   46.6120 C   0  0  0  0  0  0  0  0  0  0  0  0
   33.9770   28.7520   49.2730 S   0  0  0  0  0  0  0  0  0  0  0  0
   33.8080   29.9960   50.1360 O   0  0  0  0  0  0  0  0  0  0  0  0
   32.6490   28.0550   49.3060 O   0  0  0  0  0  0  0  0  0  0  0  0
   38.6290   33.2200   49.1460 C   0  0  0  0  0  0  0  0  0  0  0  0
   39.4340   33.3140   50.2460 F   0  0  0  0  0  0  0  0  0  0  0  0
   39.4220   33.3750   48.0270 F   0  0  0  0  0  0  0  0  0  0  0  0
   37.6960   34.2390   49.1840 F   0  0  0  0  0  0  0  0  0  0  0  0
   38.0321   29.0104   51.0960 H   0  0  0  0  0  0  0  0  0  0  0  0
   39.1259   31.3112   51.0015 H   0  0  0  0  0  0  0  0  0  0  0  0
   36.7147   30.7784   45.8309 H   0  0  0  0  0  0  0  0  0  0  0  0
   35.1294   30.2680   44.0105 H   0  0  0  0  0  0  0  0  0  0  0  0
   32.9889   29.0736   44.4807 H   0  0  0  0  0  0  0  0  0  0  0  0
   32.5154   28.4103   46.8526 H   0  0  0  0  0  0  0  0  0  0  0  0
   34.9922   27.9507   49.7249 H   0  0  0  0  0  0  0  0  0  0  0  0
  2  1  2  0
  3  2  1  0
  4  5  1  0
  4  3  2  0
  5  6  2  0
  6  1  1  0
  7 13  1  0
  8  7  2  0
  8  5  1  0
  9  8  1  0
 10 11  1  0
 10  9  2  0
 11 12  2  0
 12  7  1  0
 13 15  2  0
 13 14  2  0
 16 19  1  0
 16  3  1  0
 16 17  1  0
 18 16  1  0
  1 20  1  0
  2 21  1  0
  9 22  1  0
 10 23  1  0
 11 24  1  0
 12 25  1  0
 13 26  1  0
M  ISO  7  20  14  21  14  22  14  23  14  24  14  25  14  26  11
M  END
>  <minimizedAffinity>  (1) 
-5.50560236

>  <minimizedRMSD>  (1) 
2.3907752

$$$$
