
     RDKit          3D

 19 20  0  0  0  0  0  0  0  0999 V2000
   38.0630   31.1140   48.0180 C   0  0  0  0  0  0  0  0  0  0  0  0
   38.2260   30.4670   46.9830 O   0  0  0  0  0  0  0  0  0  0  0  0
   37.7080   29.8110   50.1220 C   0  0  0  0  0  0  0  0  0  0  0  0
   37.1520   30.5140   49.0100 C   0  0  0  0  0  0  0  0  0  0  0  0
   35.7590   30.6030   48.9130 C   0  0  0  0  0  0  0  0  0  0  0  0
   34.9930   30.0230   49.8700 N   0  0  0  0  0  0  0  0  0  0  0  0
   35.5620   29.3630   50.9110 C   0  0  0  0  0  0  0  0  0  0  0  0
   36.8840   29.2520   51.0460 N   0  0  0  0  0  0  0  0  0  0  0  0
   38.7300   32.3920   48.2450 C   0  0  0  0  0  0  0  0  0  0  0  0
   38.5910   33.0680   49.4390 C   0  0  0  0  0  0  0  0  0  0  0  0
   39.3630   34.2160   49.2700 C   0  0  0  0  0  0  0  0  0  0  0  0
   39.9170   34.1690   48.0000 C   0  0  0  0  0  0  0  0  0  0  0  0
   39.5030   33.0630   47.4460 O   0  0  0  0  0  0  0  0  0  0  0  0
   38.7991   29.7226   50.2298 H   0  0  0  0  0  0  0  0  0  0  0  0
   35.2916   31.1361   48.0720 H   0  0  0  0  0  0  0  0  0  0  0  0
   34.9102   28.9041   51.6690 H   0  0  0  0  0  0  0  0  0  0  0  0
   38.0057   32.7698   50.3214 H   0  0  0  0  0  0  0  0  0  0  0  0
   39.5069   35.0159   50.0113 H   0  0  0  0  0  0  0  0  0  0  0  0
   40.5793   34.9209   47.5461 H   0  0  0  0  0  0  0  0  0  0  0  0
  1  9  1  0
  1  4  1  0
  2  1  2  0
  3  8  2  0
  4  3  1  0
  5  4  2  0
  5  6  1  0
  6  7  2  0
  7  8  1  0
  9 10  2  0
 11 10  1  0
 12 11  2  0
 13 12  1  0
 13  9  1  0
  3 14  1  0
  5 15  1  0
  7 16  1  0
 10 17  1  0
 11 18  1  0
 12 19  1  0
M  ISO  6  14  14  15  14  16  14  17  14  18  14  19  14
M  END
>  <minimizedAffinity>  (1) 
-4.59999561

>  <minimizedRMSD>  (1) 
2.5576489

$$$$
