
     RDKit          3D

 14 14  0  0  0  0  0  0  0  0999 V2000
   38.2520   31.2010   50.2620 C   0  0  0  0  0  0  0  0  0  0  0  0
   38.0240   31.1640   48.8760 C   0  0  0  0  0  0  0  0  0  0  0  0
   37.1620   30.1940   48.3940 C   0  0  0  0  0  0  0  0  0  0  0  0
   36.5790   29.3300   49.2650 N   0  0  0  0  0  0  0  0  0  0  0  0
   36.8140   29.3830   50.5980 C   0  0  0  0  0  0  0  0  0  0  0  0
   37.6460   30.3130   51.1070 N   0  0  0  0  0  0  0  0  0  0  0  0
   38.7110   32.1510   48.0440 C   0  0  0  0  0  0  0  0  0  0  0  0
   39.3250   31.7190   47.0740 O   0  0  0  0  0  0  0  0  0  0  0  0
   38.5070   33.4560   48.5690 N   0  0  0  0  0  0  0  0  0  0  0  0
   38.9321   31.9601   50.6759 H   0  0  0  0  0  0  0  0  0  0  0  0
   36.9513   30.1236   47.3167 H   0  0  0  0  0  0  0  0  0  0  0  0
   36.3229   28.6628   51.2689 H   0  0  0  0  0  0  0  0  0  0  0  0
   38.9257   34.2714   48.0992 H   0  0  0  0  0  0  0  0  0  0  0  0
   37.9405   33.5863   49.4193 H   0  0  0  0  0  0  0  0  0  0  0  0
  1  6  2  0
  2  1  1  0
  3  2  2  0
  3  4  1  0
  4  5  2  0
  5  6  1  0
  7  9  1  0
  7  2  1  0
  8  7  2  0
  1 10  1  0
  3 11  1  0
  5 12  1  0
  9 13  1  0
  9 14  1  0
M  ISO  3  10  14  11  14  12  14
M  END
>  <minimizedAffinity>  (1) 
-3.801862

>  <minimizedRMSD>  (1) 
1.28306866

$$$$
