
     RDKit          3D

 21 22  0  0  0  0  0  0  0  0999 V2000
   37.9300   30.9780   47.8150 C   0  0  0  0  0  0  0  0  0  0  0  0
   37.9570   30.3290   46.7710 O   0  0  0  0  0  0  0  0  0  0  0  0
   37.7380   29.7880   49.9820 C   0  0  0  0  0  0  0  0  0  0  0  0
   37.1120   30.4410   48.9030 C   0  0  0  0  0  0  0  0  0  0  0  0
   35.7320   30.5470   48.9240 C   0  0  0  0  0  0  0  0  0  0  0  0
   35.0350   30.0220   49.9760 N   0  0  0  0  0  0  0  0  0  0  0  0
   35.6740   29.3990   51.0010 C   0  0  0  0  0  0  0  0  0  0  0  0
   36.9970   29.2850   51.0020 N   0  0  0  0  0  0  0  0  0  0  0  0
   38.6830   32.2230   47.9520 C   0  0  0  0  0  0  0  0  0  0  0  0
   38.5850   32.8830   49.1610 C   0  0  0  0  0  0  0  0  0  0  0  0
   39.2680   34.0680   49.3670 C   0  0  0  0  0  0  0  0  0  0  0  0
   40.0330   34.5170   48.2880 C   0  0  0  0  0  0  0  0  0  0  0  0
   40.1220   33.8470   47.0840 C   0  0  0  0  0  0  0  0  0  0  0  0
   39.4360   32.6820   46.9160 N   0  0  0  0  0  0  0  0  0  0  0  0
   38.8330   29.6850   49.9984 H   0  0  0  0  0  0  0  0  0  0  0  0
   35.2012   31.0491   48.1017 H   0  0  0  0  0  0  0  0  0  0  0  0
   35.0904   28.9857   51.8368 H   0  0  0  0  0  0  0  0  0  0  0  0
   37.9607   32.4643   49.9641 H   0  0  0  0  0  0  0  0  0  0  0  0
   39.2124   34.6199   50.3169 H   0  0  0  0  0  0  0  0  0  0  0  0
   40.5951   35.4554   48.4038 H   0  0  0  0  0  0  0  0  0  0  0  0
   40.7407   34.2499   46.2685 H   0  0  0  0  0  0  0  0  0  0  0  0
  1  9  1  0
  1  4  1  0
  2  1  2  0
  3  8  2  0
  4  5  2  0
  4  3  1  0
  5  6  1  0
  6  7  2  0
  7  8  1  0
  9 10  2  0
 10 11  1  0
 12 11  2  0
 13 12  1  0
 14 13  2  0
 14  9  1  0
  3 15  1  0
  5 16  1  0
  7 17  1  0
 10 18  1  0
 11 19  1  0
 12 20  1  0
 13 21  1  0
M  ISO  7  15  14  16  14  17  14  18  14  19  14  20  14  21  14
M  END
>  <minimizedAffinity>  (1) 
-4.74884224

>  <minimizedRMSD>  (1) 
3.0149579

$$$$
