
     RDKit          3D

 31 33  0  0  0  0  0  0  0  0999 V2000
   38.4040   31.4140   46.1890 C   0  0  0  0  0  0  0  0  0  0  0  0
   39.0050   32.4840   46.8010 C   0  0  0  0  0  0  0  0  0  0  0  0
   40.0780   33.0960   46.1870 C   0  0  0  0  0  0  0  0  0  0  0  0
   40.4700   32.5550   44.9580 C   0  0  0  0  0  0  0  0  0  0  0  0
   39.8520   31.4840   44.3690 C   0  0  0  0  0  0  0  0  0  0  0  0
   38.8030   30.9100   45.0010 N   0  0  0  0  0  0  0  0  0  0  0  0
   39.1590   32.6820   41.9790 F   0  0  0  0  0  0  0  0  0  0  0  0
   39.9220   31.5570   41.9050 C   0  0  0  0  0  0  0  0  0  0  0  0
   40.2810   30.9410   43.0860 C   0  0  0  0  0  0  0  0  0  0  0  0
   41.0510   29.8100   42.9280 C   0  0  0  0  0  0  0  0  0  0  0  0
   41.4380   29.3250   41.6970 C   0  0  0  0  0  0  0  0  0  0  0  0
   41.0510   29.9820   40.5420 C   0  0  0  0  0  0  0  0  0  0  0  0
   40.2780   31.1190   40.6440 C   0  0  0  0  0  0  0  0  0  0  0  0
   37.2650   30.7970   46.8850 C   0  0  0  0  0  0  0  0  0  0  0  0
   36.2260   30.4860   46.3040 O   0  0  0  0  0  0  0  0  0  0  0  0
   38.1920   31.2380   49.1550 C   0  0  0  0  0  0  0  0  0  0  0  0
   37.3120   30.5180   48.3260 C   0  0  0  0  0  0  0  0  0  0  0  0
   36.5160   29.5580   48.9300 C   0  0  0  0  0  0  0  0  0  0  0  0
   36.6170   29.3560   50.2790 N   0  0  0  0  0  0  0  0  0  0  0  0
   37.4760   30.0700   51.0330 C   0  0  0  0  0  0  0  0  0  0  0  0
   38.2490   30.9930   50.4850 N   0  0  0  0  0  0  0  0  0  0  0  0
   38.6357   32.8500   47.7703 H   0  0  0  0  0  0  0  0  0  0  0  0
   40.5941   33.9572   46.6365 H   0  0  0  0  0  0  0  0  0  0  0  0
   41.3217   33.0152   44.4357 H   0  0  0  0  0  0  0  0  0  0  0  0
   41.3731   29.2668   43.8287 H   0  0  0  0  0  0  0  0  0  0  0  0
   42.0542   28.4161   41.6327 H   0  0  0  0  0  0  0  0  0  0  0  0
   41.3561   29.6021   39.5558 H   0  0  0  0  0  0  0  0  0  0  0  0
   39.9532   31.6632   39.7449 H   0  0  0  0  0  0  0  0  0  0  0  0
   38.8418   32.0097   48.7167 H   0  0  0  0  0  0  0  0  0  0  0  0
   35.8100   28.9644   48.3307 H   0  0  0  0  0  0  0  0  0  0  0  0
   37.5349   29.8833   52.1154 H   0  0  0  0  0  0  0  0  0  0  0  0
  1  2  2  0
  1 14  1  0
  3  2  1  0
  4  3  2  0
  5  4  1  0
  5  6  2  0
  6  1  1  0
  8  7  1  0
  8  9  2  0
  9  5  1  0
 10  9  1  0
 11 10  2  0
 12 13  2  0
 12 11  1  0
 13  8  1  0
 14 17  1  0
 15 14  2  0
 16 21  2  0
 17 18  2  0
 17 16  1  0
 18 19  1  0
 19 20  2  0
 21 20  1  0
  2 22  1  0
  3 23  1  0
  4 24  1  0
 10 25  1  0
 11 26  1  0
 12 27  1  0
 13 28  1  0
 16 29  1  0
 18 30  1  0
 20 31  1  0
M  ISO  8  22  14  23  14  24  14  25  14  26  14  27  14  28  14  29  14
M  ISO  2  30  14  31  14
M  END
>  <minimizedAffinity>  (1) 
-5.96724701

>  <minimizedRMSD>  (1) 
3.70615029

$$$$
