
     RDKit          3D

 25 26  0  0  0  0  0  0  0  0999 V2000
   38.1300   31.1150   46.7640 C   0  0  0  0  0  0  0  0  0  0  0  0
   38.5970   32.3690   47.1390 C   0  0  0  0  0  0  0  0  0  0  0  0
   39.7070   32.9270   46.5250 C   0  0  0  0  0  0  0  0  0  0  0  0
   40.2880   32.1450   45.5380 C   0  0  0  0  0  0  0  0  0  0  0  0
   39.8150   30.8890   45.1670 C   0  0  0  0  0  0  0  0  0  0  0  0
   38.7280   30.3860   45.7950 N   0  0  0  0  0  0  0  0  0  0  0  0
   40.5790   30.6440   42.8190 C   0  0  0  0  0  0  0  0  0  0  0  0
   40.0720   31.7930   42.6300 O   0  0  0  0  0  0  0  0  0  0  0  0
   40.4600   30.1400   44.1450 N   0  0  0  0  0  0  0  0  0  0  0  0
   36.9580   30.6270   47.4750 C   0  0  0  0  0  0  0  0  0  0  0  0
   35.8980   30.4470   46.8740 O   0  0  0  0  0  0  0  0  0  0  0  0
   38.0330   30.7920   49.7070 C   0  0  0  0  0  0  0  0  0  0  0  0
   36.9670   30.3290   48.9060 C   0  0  0  0  0  0  0  0  0  0  0  0
   35.9720   29.6090   49.5210 C   0  0  0  0  0  0  0  0  0  0  0  0
   36.0440   29.3660   50.8690 N   0  0  0  0  0  0  0  0  0  0  0  0
   37.0790   29.8250   51.6020 C   0  0  0  0  0  0  0  0  0  0  0  0
   38.0490   30.5200   51.0360 N   0  0  0  0  0  0  0  0  0  0  0  0
   38.0788   32.9259   47.9336 H   0  0  0  0  0  0  0  0  0  0  0  0
   40.0985   33.9174   46.8003 H   0  0  0  0  0  0  0  0  0  0  0  0
   41.1735   32.5397   45.0183 H   0  0  0  0  0  0  0  0  0  0  0  0
   41.0745   30.0789   42.0158 H   0  0  0  0  0  0  0  0  0  0  0  0
   40.8494   29.2131   44.3688 H   0  0  0  0  0  0  0  0  0  0  0  0
   38.8500   31.3728   49.2541 H   0  0  0  0  0  0  0  0  0  0  0  0
   35.1218   29.2292   48.9355 H   0  0  0  0  0  0  0  0  0  0  0  0
   37.1156   29.6185   52.6818 H   0  0  0  0  0  0  0  0  0  0  0  0
  1  2  2  0
  1 10  1  0
  3  2  1  0
  4  3  2  0
  5  4  1  0
  5  6  2  0
  6  1  1  0
  7  9  1  0
  8  7  2  0
  9  5  1  0
 10 13  1  0
 11 10  2  0
 12 17  2  0
 13 14  2  0
 13 12  1  0
 14 15  1  0
 15 16  2  0
 17 16  1  0
  2 18  1  0
  3 19  1  0
  4 20  1  0
  7 21  1  0
  9 22  1  0
 12 23  1  0
 14 24  1  0
 16 25  1  0
M  ISO  7  18  14  19  14  20  14  21   6  23  14  24  14  25  14
M  END
>  <minimizedAffinity>  (1) 
-5.72110176

>  <minimizedRMSD>  (1) 
2.96910763

$$$$
