
     RDKit          3D

 24 25  0  0  0  0  0  0  0  0999 V2000
   37.7850   31.7130   47.4100 C   0  0  0  0  0  0  0  0  0  0  0  0
   37.9970   32.4490   48.5580 C   0  0  0  0  0  0  0  0  0  0  0  0
   39.0300   33.3660   48.6100 C   0  0  0  0  0  0  0  0  0  0  0  0
   39.8010   33.4680   47.4410 C   0  0  0  0  0  0  0  0  0  0  0  0
   39.5740   32.7260   46.3100 C   0  0  0  0  0  0  0  0  0  0  0  0
   38.5510   31.8370   46.2960 N   0  0  0  0  0  0  0  0  0  0  0  0
   40.4050   32.8580   45.0960 C   0  0  0  0  0  0  0  0  0  0  0  0
   40.0560   31.9190   44.1710 F   0  0  0  0  0  0  0  0  0  0  0  0
   40.3020   34.1200   44.5410 F   0  0  0  0  0  0  0  0  0  0  0  0
   41.7350   32.6370   45.4610 F   0  0  0  0  0  0  0  0  0  0  0  0
   36.6700   30.7540   47.4180 C   0  0  0  0  0  0  0  0  0  0  0  0
   36.1440   30.3580   46.3920 O   0  0  0  0  0  0  0  0  0  0  0  0
   36.9920   29.5830   49.5870 C   0  0  0  0  0  0  0  0  0  0  0  0
   36.1390   30.2270   48.6780 C   0  0  0  0  0  0  0  0  0  0  0  0
   34.7970   30.3310   49.0370 C   0  0  0  0  0  0  0  0  0  0  0  0
   34.3760   29.8170   50.2250 N   0  0  0  0  0  0  0  0  0  0  0  0
   35.2320   29.2050   51.0700 C   0  0  0  0  0  0  0  0  0  0  0  0
   36.5070   29.0930   50.7540 N   0  0  0  0  0  0  0  0  0  0  0  0
   37.3440   32.3059   49.4316 H   0  0  0  0  0  0  0  0  0  0  0  0
   39.2337   33.9732   49.5044 H   0  0  0  0  0  0  0  0  0  0  0  0
   40.6355   34.1846   47.4317 H   0  0  0  0  0  0  0  0  0  0  0  0
   38.0610   29.4751   49.3511 H   0  0  0  0  0  0  0  0  0  0  0  0
   34.0814   30.8259   48.3640 H   0  0  0  0  0  0  0  0  0  0  0  0
   34.8652   28.7989   52.0242 H   0  0  0  0  0  0  0  0  0  0  0  0
  1 11  1  0
  1  2  2  0
  2  3  1  0
  4  3  2  0
  5  4  1  0
  6  5  2  0
  6  1  1  0
  7 10  1  0
  7  5  1  0
  8  7  1  0
  9  7  1  0
 11 14  1  0
 12 11  2  0
 13 18  2  0
 14 15  2  0
 14 13  1  0
 15 16  1  0
 16 17  2  0
 18 17  1  0
  2 19  1  0
  3 20  1  0
  4 21  1  0
 13 22  1  0
 15 23  1  0
 17 24  1  0
M  ISO  6  19  14  20  14  21  14  22  14  23  14  24  14
M  END
>  <minimizedAffinity>  (1) 
-5.56627798

>  <minimizedRMSD>  (1) 
1.35307133

$$$$
