
     RDKit          3D

 36 38  0  0  1  0  0  0  0  0999 V2000
   37.5910   31.2300   47.0950 C   0  0  0  0  0  0  0  0  0  0  0  0
   37.9080   32.2440   48.0000 C   0  0  0  0  0  0  0  0  0  0  0  0
   39.0550   33.0150   47.8150 C   0  0  0  0  0  0  0  0  0  0  0  0
   39.8160   32.6980   46.7020 C   0  0  0  0  0  0  0  0  0  0  0  0
   39.4810   31.6970   45.8290 C   0  0  0  0  0  0  0  0  0  0  0  0
   38.3650   30.9560   46.0220 N   0  0  0  0  0  0  0  0  0  0  0  0
   36.3800   30.4920   47.3800 C   0  0  0  0  0  0  0  0  0  0  0  0
   35.6020   30.1930   46.4590 O   0  0  0  0  0  0  0  0  0  0  0  0
   37.0020   29.6070   49.5880 C   0  0  0  0  0  0  0  0  0  0  0  0
   36.0010   30.0620   48.7080 C   0  0  0  0  0  0  0  0  0  0  0  0
   34.6900   30.0680   49.1810 C   0  0  0  0  0  0  0  0  0  0  0  0
   34.4300   29.6460   50.4480 N   0  0  0  0  0  0  0  0  0  0  0  0
   35.4260   29.2140   51.2650 C   0  0  0  0  0  0  0  0  0  0  0  0
   36.6720   29.1990   50.8380 N   0  0  0  0  0  0  0  0  0  0  0  0
   40.4820   31.3010   44.3870 S   0  0  0  0  0  0  0  0  0  0  0  0
   40.0100   31.5350   41.7970 N   0  0  0  0  0  0  0  0  0  0  0  0
   39.7960   32.2670   43.0240 C   0  0  1  0  0  0  0  0  0  0  0  0
   38.3630   32.6430   43.2110 C   0  0  0  0  0  0  0  0  0  0  0  0
   37.4220   31.5770   43.0680 N   0  0  0  0  0  0  0  0  0  0  0  0
   37.6600   30.9290   41.8010 C   0  0  0  0  0  0  0  0  0  0  0  0
   39.0960   30.4340   41.7350 C   0  0  0  0  0  0  0  0  0  0  0  0
   37.2513   32.4355   48.8615 H   0  0  0  0  0  0  0  0  0  0  0  0
   39.3369   33.8219   48.5074 H   0  0  0  0  0  0  0  0  0  0  0  0
   40.7316   33.2767   46.5103 H   0  0  0  0  0  0  0  0  0  0  0  0
   38.0520   29.5827   49.2610 H   0  0  0  0  0  0  0  0  0  0  0  0
   33.8700   30.4120   48.5335 H   0  0  0  0  0  0  0  0  0  0  0  0
   35.1913   28.8761   52.2852 H   0  0  0  0  0  0  0  0  0  0  0  0
   39.8520   32.1587   40.9926 H   0  0  0  0  0  0  0  0  0  0  0  0
   40.3233   33.2317   42.9866 H   0  0  0  0  0  0  0  0  0  0  0  0
   38.2515   33.0596   44.2230 H   0  0  0  0  0  0  0  0  0  0  0  0
   38.1320   33.3585   42.4081 H   0  0  0  0  0  0  0  0  0  0  0  0
   37.5443   30.8994   43.8341 H   0  0  0  0  0  0  0  0  0  0  0  0
   36.9746   30.0754   41.6934 H   0  0  0  0  0  0  0  0  0  0  0  0
   37.4873   31.6492   40.9877 H   0  0  0  0  0  0  0  0  0  0  0  0
   39.2482   29.8900   40.7911 H   0  0  0  0  0  0  0  0  0  0  0  0
   39.2824   29.7686   42.5909 H   0  0  0  0  0  0  0  0  0  0  0  0
  1  7  1  0
  1  2  2  0
  3  2  1  0
  4  3  2  0
  5  6  2  0
  5  4  1  0
  6  1  1  0
  7 10  1  0
  8  7  2  0
  9 14  2  0
 10 11  2  0
 10  9  1  0
 11 12  1  0
 12 13  2  0
 14 13  1  0
 15  5  1  0
 16 17  1  0
 17 18  1  0
 17 15  1  0
 19 18  1  0
 20 19  1  0
 21 16  1  0
 21 20  1  0
  2 22  1  0
  3 23  1  0
  4 24  1  0
  9 25  1  0
 11 26  1  0
 13 27  1  0
 16 28  1  0
 17 29  1  6
 18 30  1  0
 18 31  1  0
 19 32  1  0
 20 33  1  0
 20 34  1  0
 21 35  1  0
 21 36  1  0
M  ISO  8  22  14  23  14  24  14  25  14  26  14  27  14  28   5  29  13
M  ISO  7  30  13  31  13  32   5  33  13  34  13  35  13  36  13
M  END
>  <minimizedAffinity>  (1) 
-5.17238045

>  <minimizedRMSD>  (1) 
1.16499221

$$$$
