
     RDKit          3D

 39 41  0  0  0  0  0  0  0  0999 V2000
   37.7050   31.7200   47.6780 C   0  0  0  0  0  0  0  0  0  0  0  0
   37.8830   32.4850   48.8490 C   0  0  0  0  0  0  0  0  0  0  0  0
   38.8890   33.4240   48.9280 C   0  0  0  0  0  0  0  0  0  0  0  0
   39.6860   33.5620   47.8220 C   0  0  0  0  0  0  0  0  0  0  0  0
   39.5090   32.8220   46.6980 C   0  0  0  0  0  0  0  0  0  0  0  0
   38.5110   31.8860   46.6090 N   0  0  0  0  0  0  0  0  0  0  0  0
   36.6310   30.7600   47.6710 C   0  0  0  0  0  0  0  0  0  0  0  0
   36.1440   30.3590   46.6100 O   0  0  0  0  0  0  0  0  0  0  0  0
   36.9280   29.6010   49.8320 C   0  0  0  0  0  0  0  0  0  0  0  0
   36.0650   30.2100   48.9130 C   0  0  0  0  0  0  0  0  0  0  0  0
   34.7030   30.2720   49.2090 C   0  0  0  0  0  0  0  0  0  0  0  0
   34.2660   29.7360   50.3840 N   0  0  0  0  0  0  0  0  0  0  0  0
   35.1260   29.1520   51.2560 C   0  0  0  0  0  0  0  0  0  0  0  0
   36.4190   29.0900   50.9820 N   0  0  0  0  0  0  0  0  0  0  0  0
   40.5530   32.9900   45.2230 S   0  0  0  0  0  0  0  0  0  0  0  0
   39.4440   32.7600   43.8120 C   0  0  0  0  0  0  0  0  0  0  0  0
   40.0360   31.9710   42.7580 N   0  0  0  0  0  0  0  0  0  0  0  0
   39.1750   31.7590   41.6460 C   0  0  0  0  0  0  0  0  0  0  0  0
   38.6070   30.3570   41.6690 C   0  0  0  0  0  0  0  0  0  0  0  0
   39.7120   29.4510   41.4170 N   0  0  0  0  0  0  0  0  0  0  0  0
   40.7390   29.6300   42.4010 C   0  0  0  0  0  0  0  0  0  0  0  0
   40.5170   30.7470   43.3630 C   0  0  0  0  0  0  0  0  0  0  0  0
   37.2128   32.3310   49.7075 H   0  0  0  0  0  0  0  0  0  0  0  0
   39.0440   34.0311   49.8321 H   0  0  0  0  0  0  0  0  0  0  0  0
   40.5006   34.3009   47.8459 H   0  0  0  0  0  0  0  0  0  0  0  0
   38.0064   29.5373   49.6245 H   0  0  0  0  0  0  0  0  0  0  0  0
   33.9969   30.7432   48.5094 H   0  0  0  0  0  0  0  0  0  0  0  0
   34.7458   28.7273   52.1968 H   0  0  0  0  0  0  0  0  0  0  0  0
   38.5321   32.2531   44.1606 H   0  0  0  0  0  0  0  0  0  0  0  0
   39.2246   33.7550   43.3975 H   0  0  0  0  0  0  0  0  0  0  0  0
   39.7444   31.9027   40.7159 H   0  0  0  0  0  0  0  0  0  0  0  0
   38.3443   32.4780   41.6999 H   0  0  0  0  0  0  0  0  0  0  0  0
   38.1610   30.1455   42.6520 H   0  0  0  0  0  0  0  0  0  0  0  0
   37.8195   30.2385   40.9102 H   0  0  0  0  0  0  0  0  0  0  0  0
   39.3704   28.4801   41.4556 H   0  0  0  0  0  0  0  0  0  0  0  0
   40.8222   28.6971   42.9779 H   0  0  0  0  0  0  0  0  0  0  0  0
   41.6510   29.8883   41.8428 H   0  0  0  0  0  0  0  0  0  0  0  0
   41.4715   30.9634   43.8650 H   0  0  0  0  0  0  0  0  0  0  0  0
   39.7332   30.4114   44.0580 H   0  0  0  0  0  0  0  0  0  0  0  0
  1  2  2  0
  2  3  1  0
  4  3  2  0
  5  4  1  0
  6  5  2  0
  6  1  1  0
  7  1  1  0
  7 10  1  0
  8  7  2  0
  9 14  2  0
 10 11  2  0
 10  9  1  0
 11 12  1  0
 12 13  2  0
 14 13  1  0
 15  5  1  0
 16 15  1  0
 17 22  1  0
 17 16  1  0
 18 19  1  0
 18 17  1  0
 20 19  1  0
 20 21  1  0
 21 22  1  0
  2 23  1  0
  3 24  1  0
  4 25  1  0
  9 26  1  0
 11 27  1  0
 13 28  1  0
 16 29  1  0
 16 30  1  0
 18 31  1  0
 18 32  1  0
 19 33  1  0
 19 34  1  0
 20 35  1  0
 21 36  1  0
 21 37  1  0
 22 38  1  0
 22 39  1  0
M  ISO  8  23  14  24  14  25  14  26  14  27  14  28  14  29   8  30   8
M  ISO  8  31  13  32  13  33  13  34  13  35   5  36  13  37  13  38  13
M  ISO  1  39  13
M  END
>  <minimizedAffinity>  (1) 
-5.33109522

>  <minimizedRMSD>  (1) 
1.21092021

$$$$
