
     RDKit          3D

 26 27  0  0  0  0  0  0  0  0999 V2000
   37.7330   31.6150   47.4710 C   0  0  0  0  0  0  0  0  0  0  0  0
   37.9550   32.4570   48.5830 C   0  0  0  0  0  0  0  0  0  0  0  0
   38.9910   33.3520   48.5940 C   0  0  0  0  0  0  0  0  0  0  0  0
   39.7820   33.3730   47.4720 C   0  0  0  0  0  0  0  0  0  0  0  0
   39.5670   32.5640   46.4080 C   0  0  0  0  0  0  0  0  0  0  0  0
   38.5430   31.6790   46.3940 N   0  0  0  0  0  0  0  0  0  0  0  0
   36.6280   30.7110   47.5380 C   0  0  0  0  0  0  0  0  0  0  0  0
   36.0560   30.3310   46.5020 O   0  0  0  0  0  0  0  0  0  0  0  0
   37.0210   29.6340   49.7220 C   0  0  0  0  0  0  0  0  0  0  0  0
   36.1150   30.1850   48.8160 C   0  0  0  0  0  0  0  0  0  0  0  0
   34.7410   30.2310   49.1400 C   0  0  0  0  0  0  0  0  0  0  0  0
   34.3560   29.7240   50.3450 N   0  0  0  0  0  0  0  0  0  0  0  0
   35.2710   29.1900   51.2110 C   0  0  0  0  0  0  0  0  0  0  0  0
   36.5540   29.1520   50.9020 N   0  0  0  0  0  0  0  0  0  0  0  0
   40.6320   32.6300   44.9480 S   0  0  0  0  0  0  0  0  0  0  0  0
   39.5110   32.9800   43.5510 C   0  0  0  0  0  0  0  0  0  0  0  0
   39.6980   31.7430   42.2240 S   0  0  0  0  0  0  0  0  0  0  0  0
   37.2854   32.3927   49.4534 H   0  0  0  0  0  0  0  0  0  0  0  0
   39.1786   34.0152   49.4513 H   0  0  0  0  0  0  0  0  0  0  0  0
   40.6264   34.0771   47.4361 H   0  0  0  0  0  0  0  0  0  0  0  0
   38.0942   29.5908   49.4847 H   0  0  0  0  0  0  0  0  0  0  0  0
   34.0066   30.6615   48.4433 H   0  0  0  0  0  0  0  0  0  0  0  0
   34.9332   28.7871   52.1772 H   0  0  0  0  0  0  0  0  0  0  0  0
   38.4722   32.9633   43.9125 H   0  0  0  0  0  0  0  0  0  0  0  0
   39.7652   33.9689   43.1417 H   0  0  0  0  0  0  0  0  0  0  0  0
   39.8853   30.5040   42.7778 H   0  0  0  0  0  0  0  0  0  0  0  0
  1  7  1  0
  1  2  2  0
  2  3  1  0
  4  3  2  0
  5  4  1  0
  6  5  2  0
  6  1  1  0
  7 10  1  0
  8  7  2  0
  9 14  2  0
 10 11  2  0
 10  9  1  0
 11 12  1  0
 12 13  2  0
 14 13  1  0
 15  5  1  0
 16 15  1  0
 17 16  1  0
  2 18  1  0
  3 19  1  0
  4 20  1  0
  9 21  1  0
 11 22  1  0
 13 23  1  0
 16 24  1  0
 16 25  1  0
 17 26  1  0
M  ISO  8  18  14  19  14  20  14  21  14  22  14  23  14  24   8  25   8
M  ISO  1  26  11
M  END
>  <minimizedAffinity>  (1) 
-4.76988792

>  <minimizedRMSD>  (1) 
0.403247237

$$$$
