
     RDKit          3D

 26 27  0  0  0  0  0  0  0  0999 V2000
   37.7460   31.6290   47.4420 C   0  0  0  0  0  0  0  0  0  0  0  0
   37.9340   32.4580   48.5660 C   0  0  0  0  0  0  0  0  0  0  0  0
   38.9720   33.3610   48.6160 C   0  0  0  0  0  0  0  0  0  0  0  0
   39.7920   33.3840   47.5000 C   0  0  0  0  0  0  0  0  0  0  0  0
   39.5960   32.5750   46.4230 C   0  0  0  0  0  0  0  0  0  0  0  0
   38.5740   31.6890   46.3780 N   0  0  0  0  0  0  0  0  0  0  0  0
   36.6300   30.7170   47.4840 C   0  0  0  0  0  0  0  0  0  0  0  0
   36.0810   30.3430   46.4360 O   0  0  0  0  0  0  0  0  0  0  0  0
   36.9640   29.5820   49.6470 C   0  0  0  0  0  0  0  0  0  0  0  0
   36.0940   30.1910   48.7370 C   0  0  0  0  0  0  0  0  0  0  0  0
   34.7310   30.2740   49.0660 C   0  0  0  0  0  0  0  0  0  0  0  0
   34.3190   29.7540   50.2620 N   0  0  0  0  0  0  0  0  0  0  0  0
   35.1890   29.1720   51.1170 C   0  0  0  0  0  0  0  0  0  0  0  0
   36.4850   29.0900   50.8140 N   0  0  0  0  0  0  0  0  0  0  0  0
   40.6980   32.6520   45.0020 S   0  0  0  0  0  0  0  0  0  0  0  0
   39.6010   32.5060   43.5410 C   0  0  0  0  0  0  0  0  0  0  0  0
   40.1330   31.6250   42.6200 O   0  0  0  0  0  0  0  0  0  0  0  0
   37.2406   32.3824   49.4166 H   0  0  0  0  0  0  0  0  0  0  0  0
   39.1385   34.0185   49.4820 H   0  0  0  0  0  0  0  0  0  0  0  0
   40.6383   34.0865   47.4833 H   0  0  0  0  0  0  0  0  0  0  0  0
   38.0363   29.5028   49.4149 H   0  0  0  0  0  0  0  0  0  0  0  0
   34.0129   30.7454   48.3789 H   0  0  0  0  0  0  0  0  0  0  0  0
   34.8249   28.7625   52.0708 H   0  0  0  0  0  0  0  0  0  0  0  0
   38.6154   32.1398   43.8641 H   0  0  0  0  0  0  0  0  0  0  0  0
   39.5036   33.4954   43.0702 H   0  0  0  0  0  0  0  0  0  0  0  0
   40.5819   30.8817   43.0955 H   0  0  0  0  0  0  0  0  0  0  0  0
  1  7  1  0
  1  2  2  0
  2  3  1  0
  4  3  2  0
  5  4  1  0
  6  5  2  0
  6  1  1  0
  7 10  1  0
  8  7  2  0
  9 14  2  0
 10 11  2  0
 10  9  1  0
 11 12  1  0
 12 13  2  0
 14 13  1  0
 15  5  1  0
 16 15  1  0
 17 16  1  0
  2 18  1  0
  3 19  1  0
  4 20  1  0
  9 21  1  0
 11 22  1  0
 13 23  1  0
 16 24  1  0
 16 25  1  0
 17 26  1  0
M  ISO  8  18  14  19  14  20  14  21  14  22  14  23  14  24   8  25   8
M  ISO  1  26   3
M  END
>  <minimizedAffinity>  (1) 
-4.71623373

>  <minimizedRMSD>  (1) 
0.370984584

$$$$
