
     RDKit          3D

 40 42  0  0  1  0  0  0  0  0999 V2000
   37.7590   31.7700   47.6750 C   0  0  0  0  0  0  0  0  0  0  0  0
   37.9420   32.5270   48.8530 C   0  0  0  0  0  0  0  0  0  0  0  0
   38.9340   33.4750   48.9280 C   0  0  0  0  0  0  0  0  0  0  0  0
   39.7260   33.6460   47.8170 C   0  0  0  0  0  0  0  0  0  0  0  0
   39.5310   32.9040   46.6930 C   0  0  0  0  0  0  0  0  0  0  0  0
   38.5600   31.9640   46.5960 N   0  0  0  0  0  0  0  0  0  0  0  0
   36.7040   30.7950   47.6610 C   0  0  0  0  0  0  0  0  0  0  0  0
   36.2250   30.3990   46.6000 O   0  0  0  0  0  0  0  0  0  0  0  0
   37.0310   29.6310   49.8170 C   0  0  0  0  0  0  0  0  0  0  0  0
   36.1520   30.2290   48.9130 C   0  0  0  0  0  0  0  0  0  0  0  0
   34.7800   30.2810   49.1980 C   0  0  0  0  0  0  0  0  0  0  0  0
   34.3420   29.7360   50.3750 N   0  0  0  0  0  0  0  0  0  0  0  0
   35.2100   29.1650   51.2320 C   0  0  0  0  0  0  0  0  0  0  0  0
   36.5210   29.1130   50.9580 N   0  0  0  0  0  0  0  0  0  0  0  0
   40.5800   33.1310   45.2250 S   0  0  0  0  0  0  0  0  0  0  0  0
   39.4490   33.0230   43.8010 C   0  0  0  0  0  0  0  0  0  0  0  0
   38.7970   29.7380   42.6700 C   0  0  1  0  0  0  0  0  0  0  0  0
   38.6470   31.1930   42.3180 C   0  0  0  0  0  0  0  0  0  0  0  0
   39.8480   31.7870   43.0090 C   0  0  2  0  0  0  0  0  0  0  0  0
   40.4260   30.8240   43.7900 O   0  0  0  0  0  0  0  0  0  0  0  0
   39.4760   29.8320   44.0290 C   0  0  0  0  0  0  0  0  0  0  0  0
   37.5770   29.0940   42.7560 O   0  0  0  0  0  0  0  0  0  0  0  0
   37.5650   27.8200   42.2660 C   0  0  0  0  0  0  0  0  0  0  0  0
   36.2300   27.5300   41.9570 F   0  0  0  0  0  0  0  0  0  0  0  0
   38.0980   26.9080   43.1420 F   0  0  0  0  0  0  0  0  0  0  0  0
   38.2510   27.8160   41.0480 F   0  0  0  0  0  0  0  0  0  0  0  0
   37.2846   32.3563   49.7183 H   0  0  0  0  0  0  0  0  0  0  0  0
   39.0881   34.0722   49.8388 H   0  0  0  0  0  0  0  0  0  0  0  0
   40.5310   34.3954   47.8371 H   0  0  0  0  0  0  0  0  0  0  0  0
   38.1097   29.5821   49.6074 H   0  0  0  0  0  0  0  0  0  0  0  0
   34.0745   30.7473   48.4946 H   0  0  0  0  0  0  0  0  0  0  0  0
   34.8367   28.7340   52.1727 H   0  0  0  0  0  0  0  0  0  0  0  0
   38.4101   32.9290   44.1500 H   0  0  0  0  0  0  0  0  0  0  0  0
   39.5151   33.9269   43.1777 H   0  0  0  0  0  0  0  0  0  0  0  0
   39.3533   29.1540   41.9220 H   0  0  0  0  0  0  0  0  0  0  0  0
   38.6888   31.3509   41.2302 H   0  0  0  0  0  0  0  0  0  0  0  0
   37.6867   31.6345   42.6228 H   0  0  0  0  0  0  0  0  0  0  0  0
   40.5911   32.1203   42.2697 H   0  0  0  0  0  0  0  0  0  0  0  0
   38.7668   30.1339   44.8138 H   0  0  0  0  0  0  0  0  0  0  0  0
   39.8969   28.8819   44.3897 H   0  0  0  0  0  0  0  0  0  0  0  0
  1  2  2  0
  2  3  1  0
  4  3  2  0
  5  4  1  0
  6  5  2  0
  6  1  1  0
  7  1  1  0
  7 10  1  0
  8  7  2  0
  9 14  2  0
 10 11  2  0
 10  9  1  0
 11 12  1  0
 12 13  2  0
 14 13  1  0
 15  5  1  0
 16 15  1  0
 17 22  1  0
 17 21  1  0
 18 17  1  0
 18 19  1  0
 19 20  1  0
 19 16  1  0
 20 21  1  0
 23 22  1  0
 23 25  1  0
 24 23  1  0
 26 23  1  0
  2 27  1  0
  3 28  1  0
  4 29  1  0
  9 30  1  0
 11 31  1  0
 13 32  1  0
 16 33  1  0
 16 34  1  0
 17 35  1  6
 18 36  1  0
 18 37  1  0
 19 38  1  6
 21 39  1  0
 21 40  1  0
M  ISO  8  27  14  28  14  29  14  30  14  31  14  32  14  33   8  34   8
M  ISO  6  35  13  36  13  37  13  38  13  39  13  40  13
M  END
>  <minimizedAffinity>  (1) 
-5.14822483

>  <minimizedRMSD>  (1) 
0.481335372

$$$$
