
     RDKit          3D

 29 31  0  0  0  0  0  0  0  0999 V2000
   36.6580   32.0310   49.9140 O   0  0  0  0  0  0  0  0  0  0  0  0
   37.8320   31.2020   49.4230 P   0  0  1  0  0  0  0  0  0  0  0  0
   38.7610   30.7690   50.7870 O   0  0  0  0  0  0  0  0  0  0  0  0
   37.2030   29.7540   48.8200 O   0  0  0  0  0  0  0  0  0  0  0  0
   35.2050   28.5590   49.3840 C   0  0  0  0  0  0  0  0  0  0  0  0
   35.8900   29.4680   48.5480 C   0  0  0  0  0  0  0  0  0  0  0  0
   35.1700   30.0250   47.4820 C   0  0  0  0  0  0  0  0  0  0  0  0
   33.8700   29.6570   47.3230 N   0  0  0  0  0  0  0  0  0  0  0  0
   33.2490   28.7900   48.1370 C   0  0  0  0  0  0  0  0  0  0  0  0
   33.9260   28.2380   49.1750 N   0  0  0  0  0  0  0  0  0  0  0  0
   38.6920   32.1130   48.3380 O   0  0  0  0  0  0  0  0  0  0  0  0
   38.7670   30.6040   46.5690 C   0  0  0  0  0  0  0  0  0  0  0  0
   38.8770   31.9130   46.9990 C   0  0  0  0  0  0  0  0  0  0  0  0
   39.1620   32.8770   46.0260 C   0  0  0  0  0  0  0  0  0  0  0  0
   39.3190   32.4820   44.6930 C   0  0  0  0  0  0  0  0  0  0  0  0
   39.5930   33.2600   43.6290 N   0  0  0  0  0  0  0  0  0  0  0  0
   39.6400   32.4000   42.5940 C   0  0  0  0  0  0  0  0  0  0  0  0
   39.4080   31.1250   42.9600 N   0  0  0  0  0  0  0  0  0  0  0  0
   39.2030   31.1610   44.2920 C   0  0  0  0  0  0  0  0  0  0  0  0
   38.9250   30.2150   45.2360 C   0  0  0  0  0  0  0  0  0  0  0  0
   38.2643   31.0005   51.6115 H   0  0  0  0  0  0  0  0  0  0  0  0
   35.7397   28.1031   50.2303 H   0  0  0  0  0  0  0  0  0  0  0  0
   35.6432   30.7400   46.7929 H   0  0  0  0  0  0  0  0  0  0  0  0
   32.1949   28.5277   47.9634 H   0  0  0  0  0  0  0  0  0  0  0  0
   38.5433   29.8275   47.3153 H   0  0  0  0  0  0  0  0  0  0  0  0
   39.2618   33.9360   46.3064 H   0  0  0  0  0  0  0  0  0  0  0  0
   39.7344   34.2801   43.6108 H   0  0  0  0  0  0  0  0  0  0  0  0
   39.8463   32.7068   41.5580 H   0  0  0  0  0  0  0  0  0  0  0  0
   38.8263   29.1573   44.9504 H   0  0  0  0  0  0  0  0  0  0  0  0
  2  1  2  0
  2  3  1  0
  4  2  1  0
  6  4  1  0
  6  5  2  0
  7  6  1  0
  8  7  2  0
  8  9  1  0
  9 10  2  0
 10  5  1  0
 11  2  1  0
 12 13  2  0
 13 11  1  0
 14 13  1  0
 15 14  2  0
 16 15  1  0
 17 18  2  0
 17 16  1  0
 18 19  1  0
 19 15  1  0
 19 20  2  0
 20 12  1  0
  3 21  1  0
  5 22  1  0
  7 23  1  0
  9 24  1  0
 12 25  1  0
 14 26  1  0
 16 27  1  0
 17 28  1  0
 20 29  1  0
M  ISO  8  21   3  22  14  23  14  24  14  25  14  26  14  27   9  28  14
M  ISO  1  29  14
M  END
>  <minimizedAffinity>  (1) 
-5.44220495

>  <minimizedRMSD>  (1) 
2.79585719

$$$$
