
     RDKit          3D

 19 19  0  0  0  0  0  0  0  0999 V2000
   37.2440   29.3470   50.8880 C   0  0  0  0  0  0  0  0  0  0  0  0
   37.8190   30.6280   50.6710 C   0  0  0  0  0  0  0  0  0  0  0  0
   37.3400   31.3640   49.5740 C   0  0  0  0  0  0  0  0  0  0  0  0
   36.3670   30.8130   48.7980 N   0  0  0  0  0  0  0  0  0  0  0  0
   35.8480   29.5920   49.0400 C   0  0  0  0  0  0  0  0  0  0  0  0
   36.2940   28.8770   50.0800 N   0  0  0  0  0  0  0  0  0  0  0  0
   37.9130   32.7090   49.3110 C   0  0  0  0  0  0  0  0  0  0  0  0
   39.1110   32.7480   49.9880 F   0  0  0  0  0  0  0  0  0  0  0  0
   38.1520   32.9490   47.9870 F   0  0  0  0  0  0  0  0  0  0  0  0
   37.0940   33.7230   49.8150 F   0  0  0  0  0  0  0  0  0  0  0  0
   34.7980   29.2000   48.0580 C   0  0  0  0  0  0  0  0  0  0  0  0
   34.0980   27.9220   48.4280 C   0  0  0  0  0  0  0  0  0  0  0  0
   37.5877   28.7346   51.7347 H   0  0  0  0  0  0  0  0  0  0  0  0
   38.6035   31.0255   51.3317 H   0  0  0  0  0  0  0  0  0  0  0  0
   35.2700   29.0691   47.0731 H   0  0  0  0  0  0  0  0  0  0  0  0
   34.0420   29.9989   48.0470 H   0  0  0  0  0  0  0  0  0  0  0  0
   34.0499   27.8342   49.5234 H   0  0  0  0  0  0  0  0  0  0  0  0
   33.0782   27.9298   48.0156 H   0  0  0  0  0  0  0  0  0  0  0  0
   34.6537   27.0669   48.0156 H   0  0  0  0  0  0  0  0  0  0  0  0
  2  1  2  0
  3  2  1  0
  4  5  1  0
  4  3  2  0
  5  6  2  0
  6  1  1  0
  7  3  1  0
  7 10  1  0
  7  8  1  0
  9  7  1  0
 11 12  1  0
 11  5  1  0
  1 13  1  0
  2 14  1  0
 11 15  1  0
 11 16  1  0
 12 17  1  0
 12 18  1  0
 12 19  1  0
M  ISO  7  13  14  14  14  15   8  16   8  17   8  18   8  19   8
M  END
>  <minimizedAffinity>  (1) 
-4.72814703

>  <minimizedRMSD>  (1) 
1.1635139

$$$$
