
     RDKit          3D

 20 20  0  0  0  0  0  0  0  0999 V2000
   38.6860   31.3300   49.2270 O   0  0  0  0  0  0  0  0  0  0  0  0
   37.3190   30.4410   50.9950 C   0  0  0  0  0  0  0  0  0  0  0  0
   37.6530   30.5360   49.6220 C   0  0  0  0  0  0  0  0  0  0  0  0
   36.8750   29.7840   48.7400 C   0  0  0  0  0  0  0  0  0  0  0  0
   35.8590   29.0160   49.2290 N   0  0  0  0  0  0  0  0  0  0  0  0
   35.5880   28.9650   50.5420 C   0  0  0  0  0  0  0  0  0  0  0  0
   36.3140   29.6760   51.4420 N   0  0  0  0  0  0  0  0  0  0  0  0
   37.4270   32.2720   47.1630 O   0  0  0  0  0  0  0  0  0  0  0  0
   38.8110   32.2430   47.8230 P   0  0  1  0  0  0  0  0  0  0  0  0
   39.1920   33.8330   48.2860 O   0  0  0  0  0  0  0  0  0  0  0  0
   39.8810   31.6280   46.6930 O   0  0  0  0  0  0  0  0  0  0  0  0
   40.1930   32.2590   45.4960 C   0  0  0  0  0  0  0  0  0  0  0  0
   40.8920   31.7260   44.6030 O   0  0  0  0  0  0  0  0  0  0  0  0
   39.6960   33.5770   45.2650 N   0  0  0  0  0  0  0  0  0  0  0  0
   37.9079   31.0180   51.7231 H   0  0  0  0  0  0  0  0  0  0  0  0
   37.0795   29.8105   47.6595 H   0  0  0  0  0  0  0  0  0  0  0  0
   34.7600   28.3337   50.8967 H   0  0  0  0  0  0  0  0  0  0  0  0
   39.2067   33.8945   49.2740 H   0  0  0  0  0  0  0  0  0  0  0  0
   39.9156   34.0631   44.3839 H   0  0  0  0  0  0  0  0  0  0  0  0
   39.1178   34.0419   45.9794 H   0  0  0  0  0  0  0  0  0  0  0  0
  1  3  1  0
  2  7  2  0
  3  2  1  0
  4  5  1  0
  4  3  2  0
  5  6  2  0
  6  7  1  0
  9  8  2  0
  9 10  1  0
  9  1  1  0
 11  9  1  0
 12 11  1  0
 13 12  2  0
 14 12  1  0
  2 15  1  0
  4 16  1  0
  6 17  1  0
 10 18  1  0
 14 19  1  0
 14 20  1  0
M  ISO  4  15  14  16  14  17  14  18   3
M  END
>  <minimizedAffinity>  (1) 
-4.20774698

>  <minimizedRMSD>  (1) 
1.95160651

$$$$
