
     RDKit          3D

 15 15  0  0  0  0  0  0  0  0999 V2000
   36.7080   29.5080   51.4600 C   0  0  0  0  0  0  0  0  0  0  0  0
   37.4790   30.5770   50.9630 C   0  0  0  0  0  0  0  0  0  0  0  0
   36.9780   31.3380   49.9040 C   0  0  0  0  0  0  0  0  0  0  0  0
   35.7520   30.9850   49.4160 N   0  0  0  0  0  0  0  0  0  0  0  0
   35.0270   29.9630   49.8990 C   0  0  0  0  0  0  0  0  0  0  0  0
   35.5260   29.2370   50.9240 N   0  0  0  0  0  0  0  0  0  0  0  0
   33.7710   29.7430   49.2630 N   0  0  0  0  0  0  0  0  0  0  0  0
   37.7780   32.4730   49.3720 C   0  0  0  0  0  0  0  0  0  0  0  0
   39.0050   32.3690   49.9570 F   0  0  0  0  0  0  0  0  0  0  0  0
   37.8960   32.4430   48.0110 F   0  0  0  0  0  0  0  0  0  0  0  0
   37.2190   33.7010   49.7500 F   0  0  0  0  0  0  0  0  0  0  0  0
   37.0867   28.8978   52.2932 H   0  0  0  0  0  0  0  0  0  0  0  0
   38.4605   30.8090   51.4020 H   0  0  0  0  0  0  0  0  0  0  0  0
   33.1604   28.9766   49.5802 H   0  0  0  0  0  0  0  0  0  0  0  0
   33.4737   30.3504   48.4861 H   0  0  0  0  0  0  0  0  0  0  0  0
  2  1  2  0
  3  2  1  0
  4  5  1  0
  4  3  2  0
  5  6  2  0
  6  1  1  0
  7  5  1  0
  8 11  1  0
  8  3  1  0
  8  9  1  0
 10  8  1  0
  1 12  1  0
  2 13  1  0
  7 14  1  0
  7 15  1  0
M  ISO  2  12  14  13  14
M  END
>  <minimizedAffinity>  (1) 
-4.66435194

>  <minimizedRMSD>  (1) 
0.0392989255

$$$$
