
     RDKit          3D

 20 21  0  0  0  0  0  0  0  0999 V2000
   37.5690   30.6660   50.8000 C   0  0  0  0  0  0  0  0  0  0  0  0
   36.8940   31.3040   49.7450 C   0  0  0  0  0  0  0  0  0  0  0  0
   35.6210   30.8550   49.4340 C   0  0  0  0  0  0  0  0  0  0  0  0
   35.0980   29.8330   50.1540 N   0  0  0  0  0  0  0  0  0  0  0  0
   35.7650   29.2460   51.1520 C   0  0  0  0  0  0  0  0  0  0  0  0
   37.0170   29.6510   51.4950 N   0  0  0  0  0  0  0  0  0  0  0  0
   37.6080   32.3170   49.1480 O   0  0  0  0  0  0  0  0  0  0  0  0
   38.3150   31.9780   47.9780 C   0  0  0  0  0  0  0  0  0  0  0  0
   38.2640   30.8200   47.2530 C   0  0  0  0  0  0  0  0  0  0  0  0
   39.0350   30.6840   46.1360 C   0  0  0  0  0  0  0  0  0  0  0  0
   39.8530   31.7300   45.7680 C   0  0  0  0  0  0  0  0  0  0  0  0
   39.8990   32.8970   46.5060 C   0  0  0  0  0  0  0  0  0  0  0  0
   39.1140   32.9780   47.6040 N   0  0  0  0  0  0  0  0  0  0  0  0
   38.5805   31.0058   51.0673 H   0  0  0  0  0  0  0  0  0  0  0  0
   35.0461   31.3188   48.6189 H   0  0  0  0  0  0  0  0  0  0  0  0
   35.2932   28.4209   51.7057 H   0  0  0  0  0  0  0  0  0  0  0  0
   37.6028   29.9999   47.5697 H   0  0  0  0  0  0  0  0  0  0  0  0
   39.0044   29.7589   45.5416 H   0  0  0  0  0  0  0  0  0  0  0  0
   40.4810   31.6341   44.8700 H   0  0  0  0  0  0  0  0  0  0  0  0
   40.5518   33.7316   46.2105 H   0  0  0  0  0  0  0  0  0  0  0  0
  1  6  2  0
  2  1  1  0
  3  2  2  0
  3  4  1  0
  4  5  2  0
  5  6  1  0
  7  2  1  0
  8  7  1  0
  9  8  2  0
 10  9  1  0
 11 10  2  0
 11 12  1  0
 12 13  2  0
 13  8  1  0
  1 14  1  0
  3 15  1  0
  5 16  1  0
  9 17  1  0
 10 18  1  0
 11 19  1  0
 12 20  1  0
M  ISO  7  14  14  15  14  16  14  17  14  18  14  19  14  20  14
M  END
>  <minimizedAffinity>  (1) 
-4.51780844

>  <minimizedRMSD>  (1) 
3.29529762

$$$$
