
     RDKit          3D

 18 18  0  0  0  0  0  0  0  0999 V2000
   37.4480   30.5740   51.0050 C   0  0  0  0  0  0  0  0  0  0  0  0
   37.1370   31.3380   49.8690 C   0  0  0  0  0  0  0  0  0  0  0  0
   35.9740   31.0210   49.1680 C   0  0  0  0  0  0  0  0  0  0  0  0
   35.2110   30.0050   49.6100 N   0  0  0  0  0  0  0  0  0  0  0  0
   35.5310   29.2830   50.7090 C   0  0  0  0  0  0  0  0  0  0  0  0
   36.6560   29.5520   51.4300 N   0  0  0  0  0  0  0  0  0  0  0  0
   38.0650   32.3180   49.6150 O   0  0  0  0  0  0  0  0  0  0  0  0
   38.6610   32.5410   48.3830 C   0  0  0  0  0  0  0  0  0  0  0  0
   39.0350   31.9370   47.2670 C   0  0  0  0  0  0  0  0  0  0  0  0
   39.6890   32.7020   46.1550 C   0  0  0  0  0  0  0  0  0  0  0  0
   38.3619   30.8091   51.5702 H   0  0  0  0  0  0  0  0  0  0  0  0
   35.6863   31.5902   48.2717 H   0  0  0  0  0  0  0  0  0  0  0  0
   34.8702   28.4630   51.0266 H   0  0  0  0  0  0  0  0  0  0  0  0
   38.9153   33.6084   48.3054 H   0  0  0  0  0  0  0  0  0  0  0  0
   38.8636   30.8565   47.1528 H   0  0  0  0  0  0  0  0  0  0  0  0
   40.3485   33.4735   46.5791 H   0  0  0  0  0  0  0  0  0  0  0  0
   40.2817   32.0132   45.5352 H   0  0  0  0  0  0  0  0  0  0  0  0
   38.9164   33.1804   45.5352 H   0  0  0  0  0  0  0  0  0  0  0  0
  1  6  2  0
  2  1  1  0
  3  4  1  0
  3  2  2  0
  4  5  2  0
  5  6  1  0
  7  2  1  0
  8  7  1  0
  9  8  2  0
 10  9  1  0
  1 11  1  0
  3 12  1  0
  5 13  1  0
  8 14  1  0
  9 15  1  0
 10 16  1  0
 10 17  1  0
 10 18  1  0
M  ISO  6  11  14  12  14  13  14  16   8  17   8  18   8
M  END
>  <minimizedAffinity>  (1) 
-3.66659141

>  <minimizedRMSD>  (1) 
1.53806198

$$$$
