
     RDKit          3D

 23 24  0  0  0  0  0  0  0  0999 V2000
   37.5970   31.7350   47.7440 C   0  0  0  0  0  0  0  0  0  0  0  0
   37.1340   30.7770   46.9000 C   0  0  0  0  0  0  0  0  0  0  0  0
   37.7050   30.6180   45.6680 C   0  0  0  0  0  0  0  0  0  0  0  0
   38.7440   31.4440   45.3160 C   0  0  0  0  0  0  0  0  0  0  0  0
   39.2120   32.4210   46.1820 C   0  0  0  0  0  0  0  0  0  0  0  0
   38.5990   32.5250   47.3900 N   0  0  0  0  0  0  0  0  0  0  0  0
   40.3470   33.3090   45.7740 C   0  0  0  0  0  0  0  0  0  0  0  0
   40.0080   34.0800   44.6790 F   0  0  0  0  0  0  0  0  0  0  0  0
   41.4350   32.5240   45.5220 F   0  0  0  0  0  0  0  0  0  0  0  0
   40.5680   34.1740   46.8220 F   0  0  0  0  0  0  0  0  0  0  0  0
   37.1450   32.0450   49.0290 O   0  0  0  0  0  0  0  0  0  0  0  0
   37.1510   30.4490   50.7170 C   0  0  0  0  0  0  0  0  0  0  0  0
   36.4380   31.0770   49.6940 C   0  0  0  0  0  0  0  0  0  0  0  0
   35.1290   30.6580   49.4760 C   0  0  0  0  0  0  0  0  0  0  0  0
   34.6170   29.6800   50.2490 N   0  0  0  0  0  0  0  0  0  0  0  0
   35.3180   29.0970   51.2170 C   0  0  0  0  0  0  0  0  0  0  0  0
   36.6100   29.4710   51.4750 N   0  0  0  0  0  0  0  0  0  0  0  0
   36.2999   30.1292   47.2075 H   0  0  0  0  0  0  0  0  0  0  0  0
   37.3404   29.8459   44.9745 H   0  0  0  0  0  0  0  0  0  0  0  0
   39.2141   31.3286   44.3282 H   0  0  0  0  0  0  0  0  0  0  0  0
   38.1876   30.7611   50.9120 H   0  0  0  0  0  0  0  0  0  0  0  0
   34.5207   31.1187   48.6837 H   0  0  0  0  0  0  0  0  0  0  0  0
   34.8533   28.3026   51.8194 H   0  0  0  0  0  0  0  0  0  0  0  0
  1 11  1  0
  2  1  2  0
  3  2  1  0
  4  3  2  0
  4  5  1  0
  5  6  2  0
  6  1  1  0
  7  5  1  0
  7 10  1  0
  8  7  1  0
  9  7  1  0
 11 13  1  0
 12 17  2  0
 13 12  1  0
 14 13  2  0
 14 15  1  0
 15 16  2  0
 16 17  1  0
  2 18  1  0
  3 19  1  0
  4 20  1  0
 12 21  1  0
 14 22  1  0
 16 23  1  0
M  ISO  6  18  14  19  14  20  14  21  14  22  14  23  14
M  END
>  <minimizedAffinity>  (1) 
-5.37411165

>  <minimizedRMSD>  (1) 
0.968969166

$$$$
