
     RDKit          3D

 33 35  0  0  1  0  0  0  0  0999 V2000
   37.2650   31.0180   46.7510 C   0  0  0  0  0  0  0  0  0  0  0  0
   36.0810   30.5750   46.2000 C   0  0  0  0  0  0  0  0  0  0  0  0
   36.0750   30.0290   44.9620 C   0  0  0  0  0  0  0  0  0  0  0  0
   37.2540   29.9190   44.2690 C   0  0  0  0  0  0  0  0  0  0  0  0
   38.4320   30.3600   44.8180 C   0  0  0  0  0  0  0  0  0  0  0  0
   38.3970   30.9050   46.0660 N   0  0  0  0  0  0  0  0  0  0  0  0
   39.5620   29.4380   42.8220 C   0  0  1  0  0  0  0  0  0  0  0  0
   39.7230   30.2440   44.0650 C   0  0  1  0  0  0  0  0  0  0  0  0
   40.2780   31.4720   43.7510 O   0  0  0  0  0  0  0  0  0  0  0  0
   40.0260   31.6980   42.4010 C   0  0  0  0  0  0  0  0  0  0  0  0
   40.0080   30.3620   41.7080 C   0  0  1  0  0  0  0  0  0  0  0  0
   40.2930   28.2570   42.8430 O   0  0  0  0  0  0  0  0  0  0  0  0
   41.2930   29.9460   41.3370 O   0  0  0  0  0  0  0  0  0  0  0  0
   37.4590   31.6010   48.0010 O   0  0  0  0  0  0  0  0  0  0  0  0
   37.9660   30.8350   50.1510 C   0  0  0  0  0  0  0  0  0  0  0  0
   37.0420   30.8970   49.1010 C   0  0  0  0  0  0  0  0  0  0  0  0
   35.8210   30.2590   49.2640 C   0  0  0  0  0  0  0  0  0  0  0  0
   35.5810   29.6040   50.4340 N   0  0  0  0  0  0  0  0  0  0  0  0
   36.4880   29.5660   51.4150 C   0  0  0  0  0  0  0  0  0  0  0  0
   37.6880   30.1750   51.2960 N   0  0  0  0  0  0  0  0  0  0  0  0
   35.1424   30.6654   46.7664 H   0  0  0  0  0  0  0  0  0  0  0  0
   35.1336   29.6766   44.5153 H   0  0  0  0  0  0  0  0  0  0  0  0
   37.2551   29.4730   43.2635 H   0  0  0  0  0  0  0  0  0  0  0  0
   38.5225   29.1014   42.6948 H   0  0  0  0  0  0  0  0  0  0  0  0
   40.4154   29.7273   44.7459 H   0  0  0  0  0  0  0  0  0  0  0  0
   39.0526   32.1958   42.2800 H   0  0  0  0  0  0  0  0  0  0  0  0
   40.8022   32.3459   41.9678 H   0  0  0  0  0  0  0  0  0  0  0  0
   39.3884   30.3810   40.7993 H   0  0  0  0  0  0  0  0  0  0  0  0
   40.4592   27.9884   43.7813 H   0  0  0  0  0  0  0  0  0  0  0  0
   41.8309   29.7718   42.1496 H   0  0  0  0  0  0  0  0  0  0  0  0
   38.9397   31.3348   50.0410 H   0  0  0  0  0  0  0  0  0  0  0  0
   35.0637   30.2815   48.4665 H   0  0  0  0  0  0  0  0  0  0  0  0
   36.2513   29.0250   52.3430 H   0  0  0  0  0  0  0  0  0  0  0  0
  1 14  1  0
  2  1  2  0
  3  2  1  0
  4  5  1  0
  4  3  2  0
  5  6  2  0
  6  1  1  0
  7 12  1  0
  7  8  1  0
  8  5  1  0
  9  8  1  0
 10  9  1  0
 11 13  1  0
 11 10  1  0
 11  7  1  0
 14 16  1  0
 15 20  2  0
 16 17  2  0
 16 15  1  0
 17 18  1  0
 18 19  2  0
 20 19  1  0
  2 21  1  0
  3 22  1  0
  4 23  1  0
  7 24  1  6
  8 25  1  1
 10 26  1  0
 10 27  1  0
 11 28  1  6
 12 29  1  0
 13 30  1  0
 15 31  1  0
 17 32  1  0
 19 33  1  0
M  ISO  8  21  14  22  14  23  14  24  13  25  13  26  13  27  13  28  13
M  ISO  5  29   3  30   3  31  14  32  14  33  14
M  END
>  <minimizedAffinity>  (1) 
-4.95409012

>  <minimizedRMSD>  (1) 
3.48639441

$$$$
