
     RDKit          3D

 29 30  0  0  0  0  0  0  0  0999 V2000
   39.3570   32.2980   45.8490 C   0  0  0  0  0  0  0  0  0  0  0  0
   40.4420   31.5050   45.6030 C   0  0  0  0  0  0  0  0  0  0  0  0
   40.7490   31.1430   44.3300 C   0  0  0  0  0  0  0  0  0  0  0  0
   39.9380   31.5990   43.3070 C   0  0  0  0  0  0  0  0  0  0  0  0
   38.8370   32.4030   43.5630 C   0  0  0  0  0  0  0  0  0  0  0  0
   38.5850   32.7290   44.8540 N   0  0  0  0  0  0  0  0  0  0  0  0
   37.9950   32.8680   42.4260 C   0  0  0  0  0  0  0  0  0  0  0  0
   38.8910   32.7690   47.0880 O   0  0  0  0  0  0  0  0  0  0  0  0
   38.6830   32.1030   49.3030 C   0  0  0  0  0  0  0  0  0  0  0  0
   38.3760   31.8470   47.9460 C   0  0  0  0  0  0  0  0  0  0  0  0
   37.6180   30.7360   47.6700 C   0  0  0  0  0  0  0  0  0  0  0  0
   37.2120   29.9560   48.6940 N   0  0  0  0  0  0  0  0  0  0  0  0
   37.5150   30.2190   49.9500 C   0  0  0  0  0  0  0  0  0  0  0  0
   38.2590   31.2990   50.3050 N   0  0  0  0  0  0  0  0  0  0  0  0
   37.0310   29.3110   51.0400 C   0  0  0  0  0  0  0  0  0  0  0  0
   35.5150   29.2570   50.9840 C   0  0  0  0  0  0  0  0  0  0  0  0
   41.0688   31.1586   46.4380 H   0  0  0  0  0  0  0  0  0  0  0  0
   41.6193   30.5043   44.1188 H   0  0  0  0  0  0  0  0  0  0  0  0
   40.1707   31.3185   42.2691 H   0  0  0  0  0  0  0  0  0  0  0  0
   37.0946   33.3653   42.8159 H   0  0  0  0  0  0  0  0  0  0  0  0
   38.5684   33.5773   41.8112 H   0  0  0  0  0  0  0  0  0  0  0  0
   37.7001   32.0049   41.8112 H   0  0  0  0  0  0  0  0  0  0  0  0
   39.2880   32.9872   49.5523 H   0  0  0  0  0  0  0  0  0  0  0  0
   37.3466   30.4862   46.6337 H   0  0  0  0  0  0  0  0  0  0  0  0
   37.4439   28.3021   50.8932 H   0  0  0  0  0  0  0  0  0  0  0  0
   37.3588   29.6897   52.0194 H   0  0  0  0  0  0  0  0  0  0  0  0
   35.1106   29.2426   52.0069 H   0  0  0  0  0  0  0  0  0  0  0  0
   35.1360   30.1422   50.4523 H   0  0  0  0  0  0  0  0  0  0  0  0
   35.1999   28.3471   50.4523 H   0  0  0  0  0  0  0  0  0  0  0  0
  1  8  1  0
  2  1  2  0
  3  2  1  0
  4  5  1  0
  4  3  2  0
  5  6  2  0
  6  1  1  0
  7  5  1  0
  8 10  1  0
  9 14  2  0
 10  9  1  0
 11 10  2  0
 11 12  1  0
 12 13  2  0
 13 14  1  0
 13 15  1  0
 16 15  1  0
  2 17  1  0
  3 18  1  0
  4 19  1  0
  7 20  1  0
  7 21  1  0
  7 22  1  0
  9 23  1  0
 11 24  1  0
 15 25  1  0
 15 26  1  0
 16 27  1  0
 16 28  1  0
 16 29  1  0
M  ISO  8  17  14  18  14  19  14  20   8  21   8  22   8  23  14  24  14
M  ISO  5  25   8  26   8  27   8  28   8  29   8
M  END
>  <minimizedAffinity>  (1) 
-5.21155787

>  <minimizedRMSD>  (1) 
2.80698657

$$$$
