
     RDKit          3D

 38 40  0  0  0  0  0  0  0  0999 V2000
   38.0850   32.4310   45.2520 C   0  0  0  0  0  0  0  0  0  0  0  0
   38.8330   31.8350   46.2860 C   0  0  0  0  0  0  0  0  0  0  0  0
   39.9110   31.0270   45.9250 C   0  0  0  0  0  0  0  0  0  0  0  0
   40.1480   30.8850   44.5980 N   0  0  0  0  0  0  0  0  0  0  0  0
   39.4230   31.4630   43.6650 C   0  0  0  0  0  0  0  0  0  0  0  0
   38.3430   32.2740   43.9580 N   0  0  0  0  0  0  0  0  0  0  0  0
   38.4230   32.1090   47.5520 O   0  0  0  0  0  0  0  0  0  0  0  0
   37.5550   31.1990   48.1790 C   0  0  0  0  0  0  0  0  0  0  0  0
   36.5050   30.5050   47.5890 C   0  0  0  0  0  0  0  0  0  0  0  0
   35.7710   29.6660   48.3520 C   0  0  0  0  0  0  0  0  0  0  0  0
   36.0900   29.5290   49.6910 C   0  0  0  0  0  0  0  0  0  0  0  0
   37.1440   30.2340   50.2600 C   0  0  0  0  0  0  0  0  0  0  0  0
   37.8530   31.0610   49.4690 N   0  0  0  0  0  0  0  0  0  0  0  0
   37.4420   30.0470   51.7170 C   0  0  0  0  0  0  0  0  0  0  0  0
   40.0900   31.0110   42.0270 S   0  0  0  0  0  0  0  0  0  0  0  0
   41.2180   29.6100   42.3820 C   0  0  0  0  0  0  0  0  0  0  0  0
   40.7650   27.8530   40.7920 C   0  0  0  0  0  0  0  0  0  0  0  0
   40.4630   28.3740   42.0450 C   0  0  0  0  0  0  0  0  0  0  0  0
   39.5310   27.7170   42.8160 C   0  0  0  0  0  0  0  0  0  0  0  0
   38.9250   26.5740   42.3370 C   0  0  0  0  0  0  0  0  0  0  0  0
   39.2230   26.0570   41.0960 C   0  0  0  0  0  0  0  0  0  0  0  0
   40.1630   26.6960   40.2880 C   0  0  0  0  0  0  0  0  0  0  0  0
   42.4970   28.9340   39.1910 N   0  0  0  0  0  0  0  0  0  0  0  0
   41.7300   28.4670   39.9040 C   0  0  0  0  0  0  0  0  0  0  0  0
   37.2329   33.0670   45.5337 H   0  0  0  0  0  0  0  0  0  0  0  0
   40.5378   30.5296   46.6798 H   0  0  0  0  0  0  0  0  0  0  0  0
   36.2761   30.6365   46.5211 H   0  0  0  0  0  0  0  0  0  0  0  0
   34.9338   29.1013   47.9159 H   0  0  0  0  0  0  0  0  0  0  0  0
   35.4969   28.8477   50.3187 H   0  0  0  0  0  0  0  0  0  0  0  0
   36.6610   30.5371   52.3168 H   0  0  0  0  0  0  0  0  0  0  0  0
   37.4645   28.9726   51.9517 H   0  0  0  0  0  0  0  0  0  0  0  0
   38.4192   30.4941   51.9517 H   0  0  0  0  0  0  0  0  0  0  0  0
   42.1244   29.6839   41.7631 H   0  0  0  0  0  0  0  0  0  0  0  0
   41.5382   29.6098   43.4344 H   0  0  0  0  0  0  0  0  0  0  0  0
   39.2698   28.1027   43.8125 H   0  0  0  0  0  0  0  0  0  0  0  0
   38.1819   26.0605   42.9648 H   0  0  0  0  0  0  0  0  0  0  0  0
   38.7216   25.1436   40.7434 H   0  0  0  0  0  0  0  0  0  0  0  0
   40.4209   26.3050   39.2927 H   0  0  0  0  0  0  0  0  0  0  0  0
  1  2  2  0
  2  7  1  0
  3  2  1  0
  4  3  2  0
  5  6  2  0
  5  4  1  0
  6  1  1  0
  7  8  1  0
  8 13  1  0
  9  8  2  0
  9 10  1  0
 10 11  2  0
 11 12  1  0
 12 14  1  0
 13 12  2  0
 15 16  1  0
 15  5  1  0
 17 18  2  0
 18 16  1  0
 18 19  1  0
 20 19  2  0
 21 20  1  0
 22 17  1  0
 22 21  2  0
 23 24  3  0
 24 17  1  0
  1 25  1  0
  3 26  1  0
  9 27  1  0
 10 28  1  0
 11 29  1  0
 14 30  1  0
 14 31  1  0
 14 32  1  0
 16 33  1  0
 16 34  1  0
 19 35  1  0
 20 36  1  0
 21 37  1  0
 22 38  1  0
M  ISO  8  25  14  26  14  27  14  28  14  29  14  30   8  31   8  32   8
M  ISO  6  33   8  34   8  35  14  36  14  37  14  38  14
M  END
>  <minimizedAffinity>  (1) 
-5.70886183

>  <minimizedRMSD>  (1) 
8.92570877

$$$$
