
     RDKit          3D

 31 32  0  0  0  0  0  0  0  0999 V2000
   37.6990   32.5210   49.2780 C   0  0  0  0  0  0  0  0  0  0  0  0
   38.3120   31.9330   48.1620 C   0  0  0  0  0  0  0  0  0  0  0  0
   38.0220   30.5970   47.8980 C   0  0  0  0  0  0  0  0  0  0  0  0
   37.1640   29.9490   48.7330 N   0  0  0  0  0  0  0  0  0  0  0  0
   36.6190   30.5610   49.7690 C   0  0  0  0  0  0  0  0  0  0  0  0
   36.8570   31.8720   50.0930 N   0  0  0  0  0  0  0  0  0  0  0  0
   39.1400   32.7360   47.4410 O   0  0  0  0  0  0  0  0  0  0  0  0
   39.3860   32.4010   46.0990 C   0  0  0  0  0  0  0  0  0  0  0  0
   40.5550   31.9110   45.5640 C   0  0  0  0  0  0  0  0  0  0  0  0
   40.6180   31.6430   44.2430 C   0  0  0  0  0  0  0  0  0  0  0  0
   39.5040   31.8680   43.4670 C   0  0  0  0  0  0  0  0  0  0  0  0
   38.3390   32.3600   44.0210 C   0  0  0  0  0  0  0  0  0  0  0  0
   38.3290   32.6100   45.3410 N   0  0  0  0  0  0  0  0  0  0  0  0
   37.1370   32.5960   43.1280 C   0  0  0  0  0  0  0  0  0  0  0  0
   35.5310   29.4090   50.6620 S   0  0  0  0  0  0  0  0  0  0  0  0
   34.1820   29.0410   49.4910 C   0  0  0  0  0  0  0  0  0  0  0  0
   33.9880   30.0110   47.2110 C   0  0  0  0  0  0  0  0  0  0  0  0
   34.3120   28.8370   46.8340 O   0  0  0  0  0  0  0  0  0  0  0  0
   33.9050   30.1730   48.6350 N   0  0  0  0  0  0  0  0  0  0  0  0
   37.9225   33.5756   49.4966 H   0  0  0  0  0  0  0  0  0  0  0  0
   38.4736   30.0796   47.0387 H   0  0  0  0  0  0  0  0  0  0  0  0
   41.4305   31.7392   46.2074 H   0  0  0  0  0  0  0  0  0  0  0  0
   41.5431   31.2518   43.7945 H   0  0  0  0  0  0  0  0  0  0  0  0
   39.5423   31.6526   42.3890 H   0  0  0  0  0  0  0  0  0  0  0  0
   36.2468   32.7708   43.7500 H   0  0  0  0  0  0  0  0  0  0  0  0
   37.3190   33.4756   42.4930 H   0  0  0  0  0  0  0  0  0  0  0  0
   36.9730   31.7129   42.4930 H   0  0  0  0  0  0  0  0  0  0  0  0
   34.4732   28.1830   48.8672 H   0  0  0  0  0  0  0  0  0  0  0  0
   33.2741   28.8124   50.0685 H   0  0  0  0  0  0  0  0  0  0  0  0
   33.7889   30.8306   46.5048 H   0  0  0  0  0  0  0  0  0  0  0  0
   33.6512   31.0845   49.0420 H   0  0  0  0  0  0  0  0  0  0  0  0
  1  6  2  0
  2  1  1  0
  3  2  2  0
  3  4  1  0
  4  5  2  0
  5  6  1  0
  5 15  1  0
  7  2  1  0
  8  7  1  0
  9  8  2  0
 10  9  1  0
 11 12  1  0
 11 10  2  0
 12 13  2  0
 13  8  1  0
 14 12  1  0
 16 15  1  0
 17 19  1  0
 18 17  2  0
 19 16  1  0
  1 20  1  0
  3 21  1  0
  9 22  1  0
 10 23  1  0
 11 24  1  0
 14 25  1  0
 14 26  1  0
 14 27  1  0
 16 28  1  0
 16 29  1  0
 17 30  1  0
 19 31  1  0
M  ISO  8  20  14  21  14  22  14  23  14  24  14  25   8  26   8  27   8
M  ISO  3  28   8  29   8  30   6
M  END
>  <minimizedAffinity>  (1) 
-5.25646591

>  <minimizedRMSD>  (1) 
1.99217284

$$$$
