
     RDKit          3D

 34 37  0  0  0  0  0  0  0  0999 V2000
   38.0320   31.9660   49.1240 C   0  0  0  0  0  0  0  0  0  0  0  0
   38.5540   33.1070   49.7090 C   0  0  0  0  0  0  0  0  0  0  0  0
   39.3730   33.9960   49.0290 C   0  0  0  0  0  0  0  0  0  0  0  0
   39.6930   33.7530   47.7140 C   0  0  0  0  0  0  0  0  0  0  0  0
   39.1610   32.6160   47.1630 C   0  0  0  0  0  0  0  0  0  0  0  0
   38.3660   31.7570   47.8330 N   0  0  0  0  0  0  0  0  0  0  0  0
   39.4350   32.2600   45.7750 C   0  0  0  0  0  0  0  0  0  0  0  0
   40.4120   31.3230   45.4730 C   0  0  0  0  0  0  0  0  0  0  0  0
   40.7530   30.9100   44.1940 C   0  0  0  0  0  0  0  0  0  0  0  0
   40.0790   31.4670   43.1400 C   0  0  0  0  0  0  0  0  0  0  0  0
   40.3720   31.1020   41.8940 N   0  0  0  0  0  0  0  0  0  0  0  0
   39.7060   31.6510   40.8560 C   0  0  0  0  0  0  0  0  0  0  0  0
   38.7180   32.5880   41.0180 C   0  0  0  0  0  0  0  0  0  0  0  0
   38.4140   32.9670   42.3150 C   0  0  0  0  0  0  0  0  0  0  0  0
   39.1010   32.4010   43.3840 C   0  0  0  0  0  0  0  0  0  0  0  0
   38.7910   32.7840   44.6720 C   0  0  0  0  0  0  0  0  0  0  0  0
   37.5110   30.4000   51.0330 C   0  0  0  0  0  0  0  0  0  0  0  0
   37.1740   31.0460   49.8490 C   0  0  0  0  0  0  0  0  0  0  0  0
   35.9050   30.7900   49.3140 C   0  0  0  0  0  0  0  0  0  0  0  0
   35.0860   29.9230   49.9920 N   0  0  0  0  0  0  0  0  0  0  0  0
   35.4630   29.3270   51.1300 C   0  0  0  0  0  0  0  0  0  0  0  0
   36.6850   29.5590   51.6660 N   0  0  0  0  0  0  0  0  0  0  0  0
   38.3082   33.3179   50.7602 H   0  0  0  0  0  0  0  0  0  0  0  0
   39.7639   34.8893   49.5381 H   0  0  0  0  0  0  0  0  0  0  0  0
   40.3386   34.4318   47.1374 H   0  0  0  0  0  0  0  0  0  0  0  0
   40.9592   30.8722   46.3140 H   0  0  0  0  0  0  0  0  0  0  0  0
   41.5399   30.1588   44.0311 H   0  0  0  0  0  0  0  0  0  0  0  0
   39.9672   31.3329   39.8359 H   0  0  0  0  0  0  0  0  0  0  0  0
   38.1898   33.0199   40.1552 H   0  0  0  0  0  0  0  0  0  0  0  0
   37.6294   33.7155   42.4998 H   0  0  0  0  0  0  0  0  0  0  0  0
   38.0017   33.5345   44.8262 H   0  0  0  0  0  0  0  0  0  0  0  0
   38.5027   30.5890   51.4697 H   0  0  0  0  0  0  0  0  0  0  0  0
   35.5757   31.2688   48.3801 H   0  0  0  0  0  0  0  0  0  0  0  0
   34.7704   28.6390   51.6369 H   0  0  0  0  0  0  0  0  0  0  0  0
  1  2  2  0
  1 18  1  0
  3  2  1  0
  4  3  2  0
  5  4  1  0
  5  6  2  0
  6  1  1  0
  7  5  1  0
  8  7  2  0
  9  8  1  0
 10 15  1  0
 10  9  2  0
 11 10  1  0
 12 13  1  0
 12 11  2  0
 13 14  2  0
 14 15  1  0
 15 16  2  0
 16  7  1  0
 17 22  2  0
 18 17  1  0
 19 18  2  0
 19 20  1  0
 20 21  2  0
 21 22  1  0
  2 23  1  0
  3 24  1  0
  4 25  1  0
  8 26  1  0
  9 27  1  0
 12 28  1  0
 13 29  1  0
 14 30  1  0
 16 31  1  0
 17 32  1  0
 19 33  1  0
 21 34  1  0
M  ISO  8  23  14  24  14  25  14  26  14  27  14  28  14  29  14  30  14
M  ISO  4  31  14  32  14  33  14  34  14
M  END
>  <minimizedAffinity>  (1) 
-7.00336552

>  <minimizedRMSD>  (1) 
0.492352426

$$$$
