
     RDKit          3D

 34 36  0  0  0  0  0  0  0  0999 V2000
   38.0060   32.0140   49.0990 C   0  0  0  0  0  0  0  0  0  0  0  0
   38.5790   33.1030   49.7170 C   0  0  0  0  0  0  0  0  0  0  0  0
   39.4060   34.0190   49.1070 C   0  0  0  0  0  0  0  0  0  0  0  0
   39.6980   33.8480   47.7600 C   0  0  0  0  0  0  0  0  0  0  0  0
   39.1240   32.7560   47.1420 C   0  0  0  0  0  0  0  0  0  0  0  0
   38.3260   31.9020   47.7980 N   0  0  0  0  0  0  0  0  0  0  0  0
   39.3910   32.5320   45.7580 N   0  0  0  0  0  0  0  0  0  0  0  0
   38.2490   32.5250   44.8640 C   0  0  0  0  0  0  0  0  0  0  0  0
   38.6170   32.2760   43.4420 C   0  0  0  0  0  0  0  0  0  0  0  0
   39.7350   31.3240   43.2130 C   0  0  0  0  0  0  0  0  0  0  0  0
   40.7450   31.1990   44.2880 C   0  0  0  0  0  0  0  0  0  0  0  0
   40.7460   32.3230   45.2890 C   0  0  0  0  0  0  0  0  0  0  0  0
   37.4730   30.4180   50.9660 C   0  0  0  0  0  0  0  0  0  0  0  0
   37.1430   31.0740   49.7700 C   0  0  0  0  0  0  0  0  0  0  0  0
   35.9110   30.7990   49.2050 C   0  0  0  0  0  0  0  0  0  0  0  0
   35.0770   29.9110   49.8270 N   0  0  0  0  0  0  0  0  0  0  0  0
   35.4420   29.3030   50.9800 C   0  0  0  0  0  0  0  0  0  0  0  0
   36.6240   29.5480   51.5500 N   0  0  0  0  0  0  0  0  0  0  0  0
   38.3581   33.2531   50.7841 H   0  0  0  0  0  0  0  0  0  0  0  0
   39.8249   34.8648   49.6720 H   0  0  0  0  0  0  0  0  0  0  0  0
   40.3515   34.5454   47.2153 H   0  0  0  0  0  0  0  0  0  0  0  0
   37.5557   31.7352   45.1889 H   0  0  0  0  0  0  0  0  0  0  0  0
   37.7905   33.5237   44.9124 H   0  0  0  0  0  0  0  0  0  0  0  0
   37.7280   31.8800   42.9292 H   0  0  0  0  0  0  0  0  0  0  0  0
   38.9686   33.2434   43.0541 H   0  0  0  0  0  0  0  0  0  0  0  0
   39.2952   30.3284   43.0541 H   0  0  0  0  0  0  0  0  0  0  0  0
   40.2847   31.7323   42.3521 H   0  0  0  0  0  0  0  0  0  0  0  0
   40.5547   30.2600   44.8285 H   0  0  0  0  0  0  0  0  0  0  0  0
   41.7273   31.2247   43.7936 H   0  0  0  0  0  0  0  0  0  0  0  0
   41.3948   32.0614   46.1379 H   0  0  0  0  0  0  0  0  0  0  0  0
   41.1245   33.2423   44.8182 H   0  0  0  0  0  0  0  0  0  0  0  0
   38.4463   30.6180   51.4378 H   0  0  0  0  0  0  0  0  0  0  0  0
   35.6059   31.2878   48.2680 H   0  0  0  0  0  0  0  0  0  0  0  0
   34.7506   28.5927   51.4569 H   0  0  0  0  0  0  0  0  0  0  0  0
  1  2  2  0
  1 14  1  0
  3  2  1  0
  4  3  2  0
  5  4  1  0
  5  6  2  0
  6  1  1  0
  7  5  1  0
  8  7  1  0
  9  8  1  0
 10  9  1  0
 10 11  1  0
 11 12  1  0
 12  7  1  0
 13 18  2  0
 14 13  1  0
 15 14  2  0
 15 16  1  0
 16 17  2  0
 17 18  1  0
  2 19  1  0
  3 20  1  0
  4 21  1  0
  8 22  1  0
  8 23  1  0
  9 24  1  0
  9 25  1  0
 10 26  1  0
 10 27  1  0
 11 28  1  0
 11 29  1  0
 12 30  1  0
 12 31  1  0
 13 32  1  0
 15 33  1  0
 17 34  1  0
M  ISO  8  19  14  20  14  21  14  22  13  23  13  24  13  25  13  26  13
M  ISO  8  27  13  28  13  29  13  30  13  31  13  32  14  33  14  34  14
M  END
>  <minimizedAffinity>  (1) 
-6.52902699

>  <minimizedRMSD>  (1) 
0.377096534

$$$$
