
     RDKit          3D

 31 33  0  0  0  0  0  0  0  0999 V2000
   38.1330   32.0620   49.0450 C   0  0  0  0  0  0  0  0  0  0  0  0
   38.6010   33.2150   49.6100 C   0  0  0  0  0  0  0  0  0  0  0  0
   39.4360   34.1170   48.9900 C   0  0  0  0  0  0  0  0  0  0  0  0
   39.8530   33.8670   47.6890 C   0  0  0  0  0  0  0  0  0  0  0  0
   39.3740   32.7000   47.1290 C   0  0  0  0  0  0  0  0  0  0  0  0
   38.5580   31.8450   47.7710 N   0  0  0  0  0  0  0  0  0  0  0  0
   39.7820   32.3980   45.7750 N   0  0  0  0  0  0  0  0  0  0  0  0
   39.0180   32.8490   44.6060 C   0  0  0  0  0  0  0  0  0  0  0  0
   39.7350   32.2000   43.4590 C   0  0  0  0  0  0  0  0  0  0  0  0
   40.5930   31.0980   44.0350 C   0  0  0  0  0  0  0  0  0  0  0  0
   40.9740   31.6290   45.4130 C   0  0  0  0  0  0  0  0  0  0  0  0
   37.5800   30.4640   50.9040 C   0  0  0  0  0  0  0  0  0  0  0  0
   37.2570   31.1300   49.7200 C   0  0  0  0  0  0  0  0  0  0  0  0
   36.0210   30.8730   49.1580 C   0  0  0  0  0  0  0  0  0  0  0  0
   35.1840   29.9890   49.7840 N   0  0  0  0  0  0  0  0  0  0  0  0
   35.5380   29.3730   50.9200 C   0  0  0  0  0  0  0  0  0  0  0  0
   36.7430   29.6030   51.4970 N   0  0  0  0  0  0  0  0  0  0  0  0
   38.2862   33.4397   50.6398 H   0  0  0  0  0  0  0  0  0  0  0  0
   39.7683   35.0232   49.5177 H   0  0  0  0  0  0  0  0  0  0  0  0
   40.5187   34.5515   47.1429 H   0  0  0  0  0  0  0  0  0  0  0  0
   37.9734   32.5088   44.6619 H   0  0  0  0  0  0  0  0  0  0  0  0
   38.9670   33.9444   44.5195 H   0  0  0  0  0  0  0  0  0  0  0  0
   40.3662   32.9383   42.9427 H   0  0  0  0  0  0  0  0  0  0  0  0
   39.0184   31.7959   42.7288 H   0  0  0  0  0  0  0  0  0  0  0  0
   40.0249   30.1598   44.1182 H   0  0  0  0  0  0  0  0  0  0  0  0
   41.4666   30.8629   43.4092 H   0  0  0  0  0  0  0  0  0  0  0  0
   41.1528   30.8085   46.1235 H   0  0  0  0  0  0  0  0  0  0  0  0
   41.9042   32.2160   45.4237 H   0  0  0  0  0  0  0  0  0  0  0  0
   38.5594   30.6538   51.3674 H   0  0  0  0  0  0  0  0  0  0  0  0
   35.7155   31.3694   48.2252 H   0  0  0  0  0  0  0  0  0  0  0  0
   34.8384   28.6681   51.3929 H   0  0  0  0  0  0  0  0  0  0  0  0
  1  2  2  0
  1 13  1  0
  3  2  1  0
  4  3  2  0
  5  4  1  0
  5  6  2  0
  6  1  1  0
  7  5  1  0
  8  7  1  0
  9 10  1  0
  9  8  1  0
 10 11  1  0
 11  7  1  0
 12 17  2  0
 13 12  1  0
 14 13  2  0
 14 15  1  0
 15 16  2  0
 16 17  1  0
  2 18  1  0
  3 19  1  0
  4 20  1  0
  8 21  1  0
  8 22  1  0
  9 23  1  0
  9 24  1  0
 10 25  1  0
 10 26  1  0
 11 27  1  0
 11 28  1  0
 12 29  1  0
 14 30  1  0
 16 31  1  0
M  ISO  8  18  14  19  14  20  14  21  13  22  13  23  13  24  13  25  13
M  ISO  6  26  13  27  13  28  13  29  14  30  14  31  14
M  END
>  <minimizedAffinity>  (1) 
-6.42073774

>  <minimizedRMSD>  (1) 
0.126050636

$$$$
