
     RDKit          3D

 22 23  0  0  0  0  0  0  0  0999 V2000
   38.3420   32.2040   48.8490 C   0  0  0  0  0  0  0  0  0  0  0  0
   38.7830   33.3290   49.5040 C   0  0  0  0  0  0  0  0  0  0  0  0
   39.6070   34.3000   48.9860 C   0  0  0  0  0  0  0  0  0  0  0  0
   40.0420   34.1420   47.6760 C   0  0  0  0  0  0  0  0  0  0  0  0
   39.5940   33.0030   47.0190 C   0  0  0  0  0  0  0  0  0  0  0  0
   38.7920   32.1010   47.5890 N   0  0  0  0  0  0  0  0  0  0  0  0
   37.7050   30.6130   50.7050 C   0  0  0  0  0  0  0  0  0  0  0  0
   37.4720   31.2180   49.4570 C   0  0  0  0  0  0  0  0  0  0  0  0
   36.3280   30.8580   48.7310 C   0  0  0  0  0  0  0  0  0  0  0  0
   35.4930   29.9210   49.2990 N   0  0  0  0  0  0  0  0  0  0  0  0
   35.7470   29.3660   50.4900 C   0  0  0  0  0  0  0  0  0  0  0  0
   36.8330   29.7050   51.1850 N   0  0  0  0  0  0  0  0  0  0  0  0
   40.0230   32.7650   45.5990 C   0  0  0  0  0  0  0  0  0  0  0  0
   40.0480   34.0160   44.9830 F   0  0  0  0  0  0  0  0  0  0  0  0
   39.1670   31.9320   44.9270 F   0  0  0  0  0  0  0  0  0  0  0  0
   41.3070   32.2790   45.6060 F   0  0  0  0  0  0  0  0  0  0  0  0
   38.4444   33.4655   50.5416 H   0  0  0  0  0  0  0  0  0  0  0  0
   39.9107   35.1700   49.5867 H   0  0  0  0  0  0  0  0  0  0  0  0
   40.7016   34.8749   47.1883 H   0  0  0  0  0  0  0  0  0  0  0  0
   38.5981   30.8808   51.2886 H   0  0  0  0  0  0  0  0  0  0  0  0
   36.1067   31.3044   47.7503 H   0  0  0  0  0  0  0  0  0  0  0  0
   35.0505   28.6203   50.9009 H   0  0  0  0  0  0  0  0  0  0  0  0
  1  8  1  0
  1  2  2  0
  3  2  1  0
  4  3  2  0
  5  6  2  0
  5  4  1  0
  6  1  1  0
  7 12  2  0
  8  7  1  0
  9 10  1  0
  9  8  2  0
 10 11  2  0
 11 12  1  0
 13 16  1  0
 13  5  1  0
 14 13  1  0
 15 13  1  0
  2 17  1  0
  3 18  1  0
  4 19  1  0
  7 20  1  0
  9 21  1  0
 11 22  1  0
M  ISO  6  17  14  18  14  19  14  20  14  21  14  22  14
M  END
>  <minimizedAffinity>  (1) 
-5.79434347

>  <minimizedRMSD>  (1) 
0.51786083

$$$$
