
     RDKit          3D

 23 24  0  0  0  0  0  0  0  0999 V2000
   38.3510   32.1400   48.6340 C   0  0  0  0  0  0  0  0  0  0  0  0
   38.7010   33.1000   49.5440 C   0  0  0  0  0  0  0  0  0  0  0  0
   39.5010   34.1930   49.2890 C   0  0  0  0  0  0  0  0  0  0  0  0
   40.0010   34.3600   48.0240 C   0  0  0  0  0  0  0  0  0  0  0  0
   39.6470   33.3920   47.1100 C   0  0  0  0  0  0  0  0  0  0  0  0
   38.8620   32.3310   47.3880 N   0  0  0  0  0  0  0  0  0  0  0  0
   40.5390   32.1550   45.1980 C   0  0  0  0  0  0  0  0  0  0  0  0
   40.5960   31.0800   45.8360 O   0  0  0  0  0  0  0  0  0  0  0  0
   40.0760   33.3960   45.7340 N   0  0  0  0  0  0  0  0  0  0  0  0
   37.7590   30.1100   49.9950 C   0  0  0  0  0  0  0  0  0  0  0  0
   37.5080   30.9930   48.9230 C   0  0  0  0  0  0  0  0  0  0  0  0
   36.4140   30.7630   48.1080 C   0  0  0  0  0  0  0  0  0  0  0  0
   35.6160   29.6840   48.3730 N   0  0  0  0  0  0  0  0  0  0  0  0
   35.8780   28.8570   49.4000 C   0  0  0  0  0  0  0  0  0  0  0  0
   36.9260   29.0570   50.2020 N   0  0  0  0  0  0  0  0  0  0  0  0
   38.3105   32.9901   50.5665 H   0  0  0  0  0  0  0  0  0  0  0  0
   39.7334   34.9164   50.0845 H   0  0  0  0  0  0  0  0  0  0  0  0
   40.6433   35.2118   47.7559 H   0  0  0  0  0  0  0  0  0  0  0  0
   40.8692   32.1438   44.1488 H   0  0  0  0  0  0  0  0  0  0  0  0
   40.0500   34.2533   45.1637 H   0  0  0  0  0  0  0  0  0  0  0  0
   38.6219   30.2731   50.6574 H   0  0  0  0  0  0  0  0  0  0  0  0
   36.1906   31.4334   47.2650 H   0  0  0  0  0  0  0  0  0  0  0  0
   35.2154   27.9983   49.5830 H   0  0  0  0  0  0  0  0  0  0  0  0
  1 11  1  0
  1  2  2  0
  3  2  1  0
  4  3  2  0
  5  6  2  0
  5  4  1  0
  6  1  1  0
  7  9  1  0
  7  8  2  0
  9  5  1  0
 10 15  2  0
 11 10  1  0
 12 13  1  0
 12 11  2  0
 13 14  2  0
 14 15  1  0
  2 16  1  0
  3 17  1  0
  4 18  1  0
  7 19  1  0
  9 20  1  0
 10 21  1  0
 12 22  1  0
 14 23  1  0
M  ISO  7  16  14  17  14  18  14  19   6  21  14  22  14  23  14
M  END
>  <minimizedAffinity>  (1) 
-5.74214172

>  <minimizedRMSD>  (1) 
1.12792277

$$$$
