
     RDKit          3D

 25 26  0  0  0  0  0  0  0  0999 V2000
   38.1860   32.0550   48.9990 C   0  0  0  0  0  0  0  0  0  0  0  0
   38.5950   33.2520   49.5520 C   0  0  0  0  0  0  0  0  0  0  0  0
   39.4260   34.1530   48.9190 C   0  0  0  0  0  0  0  0  0  0  0  0
   39.8900   33.8510   47.6450 C   0  0  0  0  0  0  0  0  0  0  0  0
   39.4670   32.6570   47.1220 C   0  0  0  0  0  0  0  0  0  0  0  0
   38.6560   31.7990   47.7630 N   0  0  0  0  0  0  0  0  0  0  0  0
   37.6230   30.4820   50.8930 C   0  0  0  0  0  0  0  0  0  0  0  0
   37.3100   31.1300   49.6930 C   0  0  0  0  0  0  0  0  0  0  0  0
   36.0610   30.8680   49.1210 C   0  0  0  0  0  0  0  0  0  0  0  0
   35.2180   30.0000   49.7570 N   0  0  0  0  0  0  0  0  0  0  0  0
   35.5740   29.3980   50.9210 C   0  0  0  0  0  0  0  0  0  0  0  0
   36.7620   29.6350   51.4850 N   0  0  0  0  0  0  0  0  0  0  0  0
   39.9690   32.3390   45.7520 C   0  0  0  0  0  0  0  0  0  0  0  0
   40.0450   33.5920   44.8890 C   0  0  0  0  0  0  0  0  0  0  0  0
   38.2356   33.5031   50.5609 H   0  0  0  0  0  0  0  0  0  0  0  0
   39.7155   35.0921   49.4134 H   0  0  0  0  0  0  0  0  0  0  0  0
   40.5558   34.5284   47.0902 H   0  0  0  0  0  0  0  0  0  0  0  0
   38.5988   30.6702   51.3646 H   0  0  0  0  0  0  0  0  0  0  0  0
   35.7630   31.3506   48.1785 H   0  0  0  0  0  0  0  0  0  0  0  0
   34.8730   28.7039   51.4076 H   0  0  0  0  0  0  0  0  0  0  0  0
   40.9729   31.8965   45.8314 H   0  0  0  0  0  0  0  0  0  0  0  0
   39.2702   31.6326   45.2800 H   0  0  0  0  0  0  0  0  0  0  0  0
   40.0989   34.4800   45.5359 H   0  0  0  0  0  0  0  0  0  0  0  0
   40.9420   33.5460   44.2540 H   0  0  0  0  0  0  0  0  0  0  0  0
   39.1490   33.6547   44.2540 H   0  0  0  0  0  0  0  0  0  0  0  0
  1  2  2  0
  1  8  1  0
  3  2  1  0
  4  3  2  0
  5  4  1  0
  5  6  2  0
  6  1  1  0
  7 12  2  0
  8  7  1  0
  9  8  2  0
  9 10  1  0
 10 11  2  0
 11 12  1  0
 13  5  1  0
 14 13  1  0
  2 15  1  0
  3 16  1  0
  4 17  1  0
  7 18  1  0
  9 19  1  0
 11 20  1  0
 13 21  1  0
 13 22  1  0
 14 23  1  0
 14 24  1  0
 14 25  1  0
M  ISO  8  15  14  16  14  17  14  18  14  19  14  20  14  21   8  22   8
M  ISO  3  23   8  24   8  25   8
M  END
>  <minimizedAffinity>  (1) 
-5.30353498

>  <minimizedRMSD>  (1) 
0.236564979

$$$$
