
     RDKit          3D

 21 22  0  0  0  0  0  0  0  0999 V2000
   38.1420   32.0970   49.0630 C   0  0  0  0  0  0  0  0  0  0  0  0
   38.6080   33.2450   49.6670 C   0  0  0  0  0  0  0  0  0  0  0  0
   39.4480   34.1600   49.0650 C   0  0  0  0  0  0  0  0  0  0  0  0
   39.8670   33.9410   47.7680 C   0  0  0  0  0  0  0  0  0  0  0  0
   39.3950   32.7950   47.1770 C   0  0  0  0  0  0  0  0  0  0  0  0
   38.5770   31.9290   47.8020 N   0  0  0  0  0  0  0  0  0  0  0  0
   39.7040   32.3750   45.8380 N   0  0  0  0  0  0  0  0  0  0  0  0
   37.5790   30.4910   50.9090 C   0  0  0  0  0  0  0  0  0  0  0  0
   37.2570   31.1430   49.7120 C   0  0  0  0  0  0  0  0  0  0  0  0
   36.0400   30.8760   49.1060 C   0  0  0  0  0  0  0  0  0  0  0  0
   35.2000   29.9840   49.7010 N   0  0  0  0  0  0  0  0  0  0  0  0
   35.5320   29.3680   50.8560 C   0  0  0  0  0  0  0  0  0  0  0  0
   36.7090   29.6130   51.4610 N   0  0  0  0  0  0  0  0  0  0  0  0
   38.2884   33.4459   50.7002 H   0  0  0  0  0  0  0  0  0  0  0  0
   39.7800   35.0542   49.6129 H   0  0  0  0  0  0  0  0  0  0  0  0
   40.5353   34.6389   47.2424 H   0  0  0  0  0  0  0  0  0  0  0  0
   39.3078   31.4989   45.4687 H   0  0  0  0  0  0  0  0  0  0  0  0
   40.3217   32.9500   45.2475 H   0  0  0  0  0  0  0  0  0  0  0  0
   38.5414   30.6929   51.4019 H   0  0  0  0  0  0  0  0  0  0  0  0
   35.7586   31.3730   48.1659 H   0  0  0  0  0  0  0  0  0  0  0  0
   34.8288   28.6542   51.3098 H   0  0  0  0  0  0  0  0  0  0  0  0
  1  2  2  0
  1  9  1  0
  3  2  1  0
  4  3  2  0
  5  4  1  0
  5  6  2  0
  6  1  1  0
  7  5  1  0
  8 13  2  0
  9  8  1  0
 10 11  1  0
 10  9  2  0
 11 12  2  0
 12 13  1  0
  2 14  1  0
  3 15  1  0
  4 16  1  0
  7 17  1  0
  7 18  1  0
  8 19  1  0
 10 20  1  0
 12 21  1  0
M  ISO  6  14  14  15  14  16  14  19  14  20  14  21  14
M  END
>  <minimizedAffinity>  (1) 
-4.95129824

>  <minimizedRMSD>  (1) 
0.169113427

$$$$
