
     RDKit          3D

 16 16  0  0  0  0  0  0  0  0999 V2000
   36.6730   29.8570   50.7700 C   0  0  0  0  0  0  0  0  0  0  0  0
   37.5430   30.6510   49.9970 C   0  0  0  0  0  0  0  0  0  0  0  0
   37.1030   31.0730   48.7330 C   0  0  0  0  0  0  0  0  0  0  0  0
   35.8600   30.6870   48.3370 N   0  0  0  0  0  0  0  0  0  0  0  0
   35.0480   29.9250   49.1000 C   0  0  0  0  0  0  0  0  0  0  0  0
   35.4820   29.5220   50.3210 N   0  0  0  0  0  0  0  0  0  0  0  0
   33.7810   29.6140   48.5280 N   0  0  0  0  0  0  0  0  0  0  0  0
   37.9980   31.9100   47.8950 C   0  0  0  0  0  0  0  0  0  0  0  0
   39.2000   31.2470   47.8410 F   0  0  0  0  0  0  0  0  0  0  0  0
   37.5200   32.0990   46.6380 F   0  0  0  0  0  0  0  0  0  0  0  0
   38.2230   33.1620   48.4990 F   0  0  0  0  0  0  0  0  0  0  0  0
   38.7980   30.9950   50.4890 O   0  0  0  0  0  0  0  0  0  0  0  0
   36.9940   29.5118   51.7639 H   0  0  0  0  0  0  0  0  0  0  0  0
   33.1075   29.0365   49.0513 H   0  0  0  0  0  0  0  0  0  0  0  0
   33.5384   29.9666   47.5911 H   0  0  0  0  0  0  0  0  0  0  0  0
   39.4075   31.5531   49.9438 H   0  0  0  0  0  0  0  0  0  0  0  0
  2 12  1  0
  2  1  2  0
  3  2  1  0
  4  3  2  0
  4  5  1  0
  5  6  2  0
  6  1  1  0
  7  5  1  0
  8 11  1  0
  8  3  1  0
  9  8  1  0
 10  8  1  0
  1 13  1  0
  7 14  1  0
  7 15  1  0
 12 16  1  0
M  ISO  2  13  14  16   3
M  END
>  <minimizedAffinity>  (1) 
-4.60342598

>  <minimizedRMSD>  (1) 
1.30234635

$$$$
