
     RDKit          3D

 46 49  0  0  1  0  0  0  0  0999 V2000
   38.5830   30.3120   43.0920 C   0  0  0  0  0  0  0  0  0  0  0  0
   39.7200   30.5740   43.8570 C   0  0  0  0  0  0  0  0  0  0  0  0
   40.9270   30.0960   43.4240 C   0  0  0  0  0  0  0  0  0  0  0  0
   41.1100   29.3620   42.2710 C   0  0  0  0  0  0  0  0  0  0  0  0
   40.0170   29.0850   41.4950 C   0  0  0  0  0  0  0  0  0  0  0  0
   38.8030   29.5640   41.9290 C   0  0  0  0  0  0  0  0  0  0  0  0
   38.7530   31.5040   47.3100 C   0  0  0  0  0  0  0  0  0  0  0  0
   39.2660   32.7630   47.3180 C   0  0  0  0  0  0  0  0  0  0  0  0
   39.9220   33.3370   46.2590 C   0  0  0  0  0  0  0  0  0  0  0  0
   40.0920   32.6220   45.0880 C   0  0  0  0  0  0  0  0  0  0  0  0
   39.5680   31.3460   45.0850 C   0  0  0  0  0  0  0  0  0  0  0  0
   38.9410   30.8610   46.1650 N   0  0  0  0  0  0  0  0  0  0  0  0
   38.3710   31.1780   49.7840 C   0  0  0  0  0  0  0  0  0  0  0  0
   38.0630   30.9060   48.4360 C   0  0  0  0  0  0  0  0  0  0  0  0
   37.0190   29.9950   48.1650 C   0  0  0  0  0  0  0  0  0  0  0  0
   36.3700   29.4290   49.2270 N   0  0  0  0  0  0  0  0  0  0  0  0
   36.7140   29.7320   50.5120 C   0  0  0  0  0  0  0  0  0  0  0  0
   37.7090   30.6020   50.7920 N   0  0  0  0  0  0  0  0  0  0  0  0
   36.9780   30.7870   43.5090 S   0  0  0  0  0  0  0  0  0  0  0  0
   36.0710   30.1590   42.4390 O   0  0  0  0  0  0  0  0  0  0  0  0
   36.5500   30.1730   44.7960 O   0  0  0  0  0  0  0  0  0  0  0  0
   37.6430   33.2670   42.9110 N   0  0  0  0  0  0  0  0  0  0  0  0
   36.5330   32.4660   43.2660 C   0  0  1  0  0  0  0  0  0  0  0  0
   35.5550   32.4860   42.1030 C   0  0  0  0  0  0  0  0  0  0  0  0
   36.1630   31.9570   40.9050 N   0  0  0  0  0  0  0  0  0  0  0  0
   37.3410   32.6870   40.5190 C   0  0  0  0  0  0  0  0  0  0  0  0
   38.2280   33.1030   41.6400 C   0  0  0  0  0  0  0  0  0  0  0  0
   41.8132   30.3124   44.0387 H   0  0  0  0  0  0  0  0  0  0  0  0
   42.1104   29.0076   41.9818 H   0  0  0  0  0  0  0  0  0  0  0  0
   40.1057   28.5046   40.5648 H   0  0  0  0  0  0  0  0  0  0  0  0
   37.9250   29.3390   41.3057 H   0  0  0  0  0  0  0  0  0  0  0  0
   39.1472   33.3605   48.2339 H   0  0  0  0  0  0  0  0  0  0  0  0
   40.3114   34.3625   46.3411 H   0  0  0  0  0  0  0  0  0  0  0  0
   40.6117   33.0435   44.2149 H   0  0  0  0  0  0  0  0  0  0  0  0
   39.1810   31.8860   50.0135 H   0  0  0  0  0  0  0  0  0  0  0  0
   36.7364   29.7481   47.1310 H   0  0  0  0  0  0  0  0  0  0  0  0
   36.1680   29.2565   51.3401 H   0  0  0  0  0  0  0  0  0  0  0  0
   37.3399   34.2491   42.9787 H   0  0  0  0  0  0  0  0  0  0  0  0
   36.1127   32.8678   44.1998 H   0  0  0  0  0  0  0  0  0  0  0  0
   34.6774   31.8749   42.3607 H   0  0  0  0  0  0  0  0  0  0  0  0
   35.2576   33.5280   41.9137 H   0  0  0  0  0  0  0  0  0  0  0  0
   36.4228   30.9744   41.0722 H   0  0  0  0  0  0  0  0  0  0  0  0
   37.9275   32.0509   39.8397 H   0  0  0  0  0  0  0  0  0  0  0  0
   36.9832   33.6171   40.0532 H   0  0  0  0  0  0  0  0  0  0  0  0
   39.0152   32.3408   41.7364 H   0  0  0  0  0  0  0  0  0  0  0  0
   38.5752   34.1090   41.3616 H   0  0  0  0  0  0  0  0  0  0  0  0
  1 19  1  0
  1  2  1  0
  2 11  1  0
  3  2  2  0
  4  3  1  0
  5  6  1  0
  5  4  2  0
  6  1  2  0
  7  8  2  0
  7 14  1  0
  9  8  1  0
 10  9  2  0
 11 10  1  0
 11 12  2  0
 12  7  1  0
 13 18  2  0
 14 13  1  0
 15 14  2  0
 15 16  1  0
 16 17  2  0
 17 18  1  0
 19 21  2  0
 20 19  2  0
 22 23  1  0
 23 19  1  0
 24 23  1  0
 25 24  1  0
 26 25  1  0
 26 27  1  0
 27 22  1  0
  3 28  1  0
  4 29  1  0
  5 30  1  0
  6 31  1  0
  8 32  1  0
  9 33  1  0
 10 34  1  0
 13 35  1  0
 15 36  1  0
 17 37  1  0
 22 38  1  0
 23 39  1  1
 24 40  1  0
 24 41  1  0
 25 42  1  0
 26 43  1  0
 26 44  1  0
 27 45  1  0
 27 46  1  0
M  ISO  8  28  14  29  14  30  14  31  14  32  14  33  14  34  14  35  14
M  ISO  8  36  14  37  14  38   5  39  13  40  13  41  13  42   5  43  13
M  ISO  3  44  13  45  13  46  13
M  END
>  <minimizedAffinity>  (1) 
-5.71733427

>  <minimizedRMSD>  (1) 
1.24698627

$$$$
