
     RDKit          3D

 28 30  0  0  0  0  0  0  0  0999 V2000
   38.5100   31.4170   48.0080 C   0  0  0  0  0  0  0  0  0  0  0  0
   38.9430   32.7050   48.1010 C   0  0  0  0  0  0  0  0  0  0  0  0
   39.6170   33.3460   47.0780 C   0  0  0  0  0  0  0  0  0  0  0  0
   39.8840   32.6950   45.9060 C   0  0  0  0  0  0  0  0  0  0  0  0
   39.4430   31.4010   45.8310 C   0  0  0  0  0  0  0  0  0  0  0  0
   38.7980   30.8230   46.8350 N   0  0  0  0  0  0  0  0  0  0  0  0
   37.2810   30.1920   51.3520 C   0  0  0  0  0  0  0  0  0  0  0  0
   38.0360   30.9220   50.4340 C   0  0  0  0  0  0  0  0  0  0  0  0
   37.8000   30.7240   49.0650 C   0  0  0  0  0  0  0  0  0  0  0  0
   36.8410   29.8240   48.6960 N   0  0  0  0  0  0  0  0  0  0  0  0
   36.1230   29.1300   49.6230 C   0  0  0  0  0  0  0  0  0  0  0  0
   36.3470   29.3170   50.9400 N   0  0  0  0  0  0  0  0  0  0  0  0
   39.6580   30.5850   44.6400 C   0  0  0  0  0  0  0  0  0  0  0  0
   38.9340   29.4810   44.3240 C   0  0  0  0  0  0  0  0  0  0  0  0
   39.1070   28.6890   43.2140 C   0  0  0  0  0  0  0  0  0  0  0  0
   40.1130   29.0380   42.3190 C   0  0  0  0  0  0  0  0  0  0  0  0
   40.8510   30.1560   42.6290 C   0  0  0  0  0  0  0  0  0  0  0  0
   40.6230   30.8660   43.7190 N   0  0  0  0  0  0  0  0  0  0  0  0
   38.7479   33.2596   49.0307 H   0  0  0  0  0  0  0  0  0  0  0  0
   39.9412   34.3890   47.2084 H   0  0  0  0  0  0  0  0  0  0  0  0
   40.4190   33.1798   45.0761 H   0  0  0  0  0  0  0  0  0  0  0  0
   37.4523   30.3343   52.4292 H   0  0  0  0  0  0  0  0  0  0  0  0
   38.7992   31.6368   50.7755 H   0  0  0  0  0  0  0  0  0  0  0  0
   35.3560   28.4128   49.2954 H   0  0  0  0  0  0  0  0  0  0  0  0
   38.1338   29.1932   45.0217 H   0  0  0  0  0  0  0  0  0  0  0  0
   38.4711   27.8086   43.0393 H   0  0  0  0  0  0  0  0  0  0  0  0
   40.3081   28.4499   41.4101 H   0  0  0  0  0  0  0  0  0  0  0  0
   41.6563   30.4687   41.9480 H   0  0  0  0  0  0  0  0  0  0  0  0
  1  2  2  0
  1  9  1  0
  3  2  1  0
  4  3  2  0
  5  4  1  0
  5  6  2  0
  6  1  1  0
  8  7  2  0
  9  8  1  0
 10  9  2  0
 10 11  1  0
 11 12  2  0
 12  7  1  0
 13  5  1  0
 14 13  2  0
 15 14  1  0
 16 17  1  0
 16 15  2  0
 17 18  2  0
 18 13  1  0
  2 19  1  0
  3 20  1  0
  4 21  1  0
  7 22  1  0
  8 23  1  0
 11 24  1  0
 14 25  1  0
 15 26  1  0
 16 27  1  0
 17 28  1  0
M  ISO  8  19  14  20  14  21  14  22  14  23  14  24  14  25  14  26  14
M  ISO  2  27  14  28  14
M  END
>  <minimizedAffinity>  (1) 
-5.99375916

>  <minimizedRMSD>  (1) 
0.620739639

$$$$
