
     RDKit          3D

 26 28  0  0  0  0  0  0  0  0999 V2000
   38.4330   31.4490   48.1970 C   0  0  0  0  0  0  0  0  0  0  0  0
   38.8590   32.7530   48.3020 C   0  0  0  0  0  0  0  0  0  0  0  0
   39.5470   33.4300   47.3250 C   0  0  0  0  0  0  0  0  0  0  0  0
   39.8480   32.7930   46.1470 C   0  0  0  0  0  0  0  0  0  0  0  0
   39.4140   31.4950   46.0660 C   0  0  0  0  0  0  0  0  0  0  0  0
   38.7420   30.8300   47.0160 N   0  0  0  0  0  0  0  0  0  0  0  0
   37.2160   30.1100   51.4880 C   0  0  0  0  0  0  0  0  0  0  0  0
   38.0150   30.8520   50.6030 C   0  0  0  0  0  0  0  0  0  0  0  0
   37.7070   30.7480   49.2430 C   0  0  0  0  0  0  0  0  0  0  0  0
   36.6730   29.9520   48.8690 N   0  0  0  0  0  0  0  0  0  0  0  0
   35.9260   29.2510   49.7600 C   0  0  0  0  0  0  0  0  0  0  0  0
   36.2080   29.3390   51.0580 N   0  0  0  0  0  0  0  0  0  0  0  0
   39.7150   30.7690   44.8120 C   0  0  0  0  0  0  0  0  0  0  0  0
   39.1350   29.5840   44.3640 C   0  0  0  0  0  0  0  0  0  0  0  0
   39.7500   29.3320   43.1710 N   0  0  0  0  0  0  0  0  0  0  0  0
   40.6550   30.2810   42.8780 C   0  0  0  0  0  0  0  0  0  0  0  0
   40.6230   31.1580   43.8970 N   0  0  0  0  0  0  0  0  0  0  0  0
   38.6326   33.2913   49.2342 H   0  0  0  0  0  0  0  0  0  0  0  0
   39.8543   34.4740   47.4852 H   0  0  0  0  0  0  0  0  0  0  0  0
   40.3956   33.2862   45.3304 H   0  0  0  0  0  0  0  0  0  0  0  0
   37.4240   30.1634   52.5668 H   0  0  0  0  0  0  0  0  0  0  0  0
   38.8415   31.4832   50.9616 H   0  0  0  0  0  0  0  0  0  0  0  0
   35.0966   28.6171   49.4130 H   0  0  0  0  0  0  0  0  0  0  0  0
   38.3565   28.9857   44.8599 H   0  0  0  0  0  0  0  0  0  0  0  0
   39.5463   28.5188   42.5726 H   0  0  0  0  0  0  0  0  0  0  0  0
   41.2939   30.3306   41.9839 H   0  0  0  0  0  0  0  0  0  0  0  0
  1  2  2  0
  1  9  1  0
  3  2  1  0
  4  3  2  0
  5  4  1  0
  5  6  2  0
  6  1  1  0
  8  7  2  0
  9  8  1  0
 10  9  2  0
 10 11  1  0
 11 12  2  0
 12  7  1  0
 13  5  1  0
 14 13  2  0
 15 14  1  0
 16 15  1  0
 16 17  2  0
 17 13  1  0
  2 18  1  0
  3 19  1  0
  4 20  1  0
  7 21  1  0
  8 22  1  0
 11 23  1  0
 14 24  1  0
 15 25  1  0
 16 26  1  0
M  ISO  8  18  14  19  14  20  14  21  14  22  14  23  14  24  14  25   9
M  ISO  1  26  14
M  END
>  <minimizedAffinity>  (1) 
-5.72151852

>  <minimizedRMSD>  (1) 
0.824329615

$$$$
