
     RDKit          3D

 40 44  0  0  0  0  0  0  0  0999 V2000
   38.7790   31.5150   47.3450 C   0  0  0  0  0  0  0  0  0  0  0  0
   39.3320   32.7570   47.2880 C   0  0  0  0  0  0  0  0  0  0  0  0
   40.0550   33.2110   46.2150 C   0  0  0  0  0  0  0  0  0  0  0  0
   40.2490   32.3960   45.1270 C   0  0  0  0  0  0  0  0  0  0  0  0
   39.6770   31.1420   45.2130 C   0  0  0  0  0  0  0  0  0  0  0  0
   38.9820   30.7240   46.2600 N   0  0  0  0  0  0  0  0  0  0  0  0
   39.0470   29.1370   43.8480 C   0  0  0  0  0  0  0  0  0  0  0  0
   39.8420   30.2320   44.0960 C   0  0  0  0  0  0  0  0  0  0  0  0
   40.8320   30.3820   43.1510 C   0  0  0  0  0  0  0  0  0  0  0  0
   41.0490   29.5640   42.0630 C   0  0  0  0  0  0  0  0  0  0  0  0
   41.9540   29.5730   41.0640 N   0  0  0  0  0  0  0  0  0  0  0  0
   41.7000   28.5290   40.2640 C   0  0  0  0  0  0  0  0  0  0  0  0
   40.6070   27.8210   40.7500 C   0  0  0  0  0  0  0  0  0  0  0  0
   40.2150   28.4980   41.8890 C   0  0  0  0  0  0  0  0  0  0  0  0
   39.2090   28.2800   42.7810 C   0  0  0  0  0  0  0  0  0  0  0  0
   37.5400   30.7710   50.8240 C   0  0  0  0  0  0  0  0  0  0  0  0
   38.3530   31.3090   49.8140 C   0  0  0  0  0  0  0  0  0  0  0  0
   38.0060   31.0100   48.4810 C   0  0  0  0  0  0  0  0  0  0  0  0
   36.9370   30.2410   48.2640 N   0  0  0  0  0  0  0  0  0  0  0  0
   36.1620   29.7300   49.2520 C   0  0  0  0  0  0  0  0  0  0  0  0
   36.4750   30.0020   50.5220 N   0  0  0  0  0  0  0  0  0  0  0  0
   35.0410   28.9150   48.7820 C   0  0  0  0  0  0  0  0  0  0  0  0
   34.3100   27.8340   49.2350 C   0  0  0  0  0  0  0  0  0  0  0  0
   33.3670   27.5840   48.2370 C   0  0  0  0  0  0  0  0  0  0  0  0
   33.5870   28.5260   47.2480 C   0  0  0  0  0  0  0  0  0  0  0  0
   34.5810   29.2980   47.5970 O   0  0  0  0  0  0  0  0  0  0  0  0
   39.1920   33.4309   48.1461 H   0  0  0  0  0  0  0  0  0  0  0  0
   40.4788   34.2260   46.2258 H   0  0  0  0  0  0  0  0  0  0  0  0
   40.8218   32.7204   44.2457 H   0  0  0  0  0  0  0  0  0  0  0  0
   38.2253   28.9313   44.5498 H   0  0  0  0  0  0  0  0  0  0  0  0
   41.5145   31.2356   43.2761 H   0  0  0  0  0  0  0  0  0  0  0  0
   42.7089   30.2622   40.9378 H   0  0  0  0  0  0  0  0  0  0  0  0
   42.2701   28.2710   39.3593 H   0  0  0  0  0  0  0  0  0  0  0  0
   40.1520   26.9164   40.3203 H   0  0  0  0  0  0  0  0  0  0  0  0
   38.5297   27.4247   42.6504 H   0  0  0  0  0  0  0  0  0  0  0  0
   37.7756   30.9802   51.8779 H   0  0  0  0  0  0  0  0  0  0  0  0
   39.2238   31.9372   50.0527 H   0  0  0  0  0  0  0  0  0  0  0  0
   34.4427   27.2872   50.1802 H   0  0  0  0  0  0  0  0  0  0  0  0
   32.6009   26.7946   48.2368 H   0  0  0  0  0  0  0  0  0  0  0  0
   33.0139   28.6115   46.3130 H   0  0  0  0  0  0  0  0  0  0  0  0
  1 18  1  0
  2  1  2  0
  3  2  1  0
  4  5  1  0
  4  3  2  0
  5  6  2  0
  6  1  1  0
  7  8  2  0
  8  5  1  0
  9  8  1  0
 10  9  2  0
 11 10  1  0
 12 13  2  0
 12 11  1  0
 13 14  1  0
 14 10  1  0
 14 15  2  0
 15  7  1  0
 17 16  2  0
 18 17  1  0
 19 18  2  0
 19 20  1  0
 20 21  2  0
 21 16  1  0
 22 23  2  0
 22 20  1  0
 24 23  1  0
 25 26  1  0
 25 24  2  0
 26 22  1  0
  2 27  1  0
  3 28  1  0
  4 29  1  0
  7 30  1  0
  9 31  1  0
 11 32  1  0
 12 33  1  0
 13 34  1  0
 15 35  1  0
 16 36  1  0
 17 37  1  0
 23 38  1  0
 24 39  1  0
 25 40  1  0
M  ISO  8  27  14  28  14  29  14  30  14  31  14  32   9  33  14  34  14
M  ISO  6  35  14  36  14  37  14  38  14  39  14  40  14
M  END
>  <minimizedAffinity>  (1) 
-7.50034285

>  <minimizedRMSD>  (1) 
0.537418365

$$$$
