
     RDKit          3D

 39 42  0  0  0  0  0  0  0  0999 V2000
   38.6240   31.3800   47.6100 C   0  0  0  0  0  0  0  0  0  0  0  0
   39.1020   32.6480   47.5670 C   0  0  0  0  0  0  0  0  0  0  0  0
   39.7790   33.1640   46.4880 C   0  0  0  0  0  0  0  0  0  0  0  0
   40.0010   32.3930   45.3880 C   0  0  0  0  0  0  0  0  0  0  0  0
   39.5080   31.1050   45.4490 C   0  0  0  0  0  0  0  0  0  0  0  0
   38.8540   30.6160   46.4970 N   0  0  0  0  0  0  0  0  0  0  0  0
   38.8870   29.1540   44.0010 C   0  0  0  0  0  0  0  0  0  0  0  0
   39.7020   30.2360   44.3080 C   0  0  0  0  0  0  0  0  0  0  0  0
   40.7370   30.4150   43.3970 C   0  0  0  0  0  0  0  0  0  0  0  0
   40.9490   29.6060   42.2960 C   0  0  0  0  0  0  0  0  0  0  0  0
   41.8830   29.6310   41.3260 N   0  0  0  0  0  0  0  0  0  0  0  0
   41.6410   28.6190   40.4860 C   0  0  0  0  0  0  0  0  0  0  0  0
   40.5390   27.9230   40.9060 C   0  0  0  0  0  0  0  0  0  0  0  0
   40.1090   28.5570   42.0530 C   0  0  0  0  0  0  0  0  0  0  0  0
   39.0720   28.3300   42.9110 C   0  0  0  0  0  0  0  0  0  0  0  0
   37.4960   30.5110   51.0950 C   0  0  0  0  0  0  0  0  0  0  0  0
   38.2430   31.1270   50.0770 C   0  0  0  0  0  0  0  0  0  0  0  0
   37.9080   30.8000   48.7470 C   0  0  0  0  0  0  0  0  0  0  0  0
   36.9140   29.9360   48.5350 N   0  0  0  0  0  0  0  0  0  0  0  0
   36.2040   29.3520   49.5320 C   0  0  0  0  0  0  0  0  0  0  0  0
   36.5050   29.6480   50.7900 N   0  0  0  0  0  0  0  0  0  0  0  0
   35.1370   28.4190   49.0630 C   0  0  0  0  0  0  0  0  0  0  0  0
   33.7900   28.8070   49.5990 C   0  0  0  0  0  0  0  0  0  0  0  0
   38.9397   33.2969   48.4403 H   0  0  0  0  0  0  0  0  0  0  0  0
   40.1422   34.2020   46.5132 H   0  0  0  0  0  0  0  0  0  0  0  0
   40.5390   32.7723   44.5067 H   0  0  0  0  0  0  0  0  0  0  0  0
   38.0402   28.9409   44.6699 H   0  0  0  0  0  0  0  0  0  0  0  0
   41.4305   31.2526   43.5626 H   0  0  0  0  0  0  0  0  0  0  0  0
   42.6513   30.3122   41.2451 H   0  0  0  0  0  0  0  0  0  0  0  0
   42.2371   28.3815   39.5926 H   0  0  0  0  0  0  0  0  0  0  0  0
   40.0895   27.0404   40.4274 H   0  0  0  0  0  0  0  0  0  0  0  0
   38.3842   27.4902   42.7330 H   0  0  0  0  0  0  0  0  0  0  0  0
   37.7208   30.7340   52.1484 H   0  0  0  0  0  0  0  0  0  0  0  0
   39.0539   31.8336   50.3075 H   0  0  0  0  0  0  0  0  0  0  0  0
   35.1031   28.4389   47.9637 H   0  0  0  0  0  0  0  0  0  0  0  0
   35.3761   27.4100   49.4302 H   0  0  0  0  0  0  0  0  0  0  0  0
   33.8168   28.7993   50.6986 H   0  0  0  0  0  0  0  0  0  0  0  0
   33.5315   29.8161   49.2456 H   0  0  0  0  0  0  0  0  0  0  0  0
   33.0343   28.0900   49.2456 H   0  0  0  0  0  0  0  0  0  0  0  0
  1 18  1  0
  2  1  2  0
  3  2  1  0
  4  5  1  0
  4  3  2  0
  5  6  2  0
  6  1  1  0
  7  8  2  0
  8  5  1  0
  9  8  1  0
 10  9  2  0
 11 10  1  0
 12 13  2  0
 12 11  1  0
 13 14  1  0
 14 10  1  0
 14 15  2  0
 15  7  1  0
 17 16  2  0
 18 17  1  0
 19 18  2  0
 19 20  1  0
 20 21  2  0
 21 16  1  0
 22 20  1  0
 22 23  1  0
  2 24  1  0
  3 25  1  0
  4 26  1  0
  7 27  1  0
  9 28  1  0
 11 29  1  0
 12 30  1  0
 13 31  1  0
 15 32  1  0
 16 33  1  0
 17 34  1  0
 22 35  1  0
 22 36  1  0
 23 37  1  0
 23 38  1  0
 23 39  1  0
M  ISO  8  24  14  25  14  26  14  27  14  28  14  29   9  30  14  31  14
M  ISO  8  32  14  33  14  34  14  35   8  36   8  37   8  38   8  39   8
M  END
>  <minimizedAffinity>  (1) 
-6.99931955

>  <minimizedRMSD>  (1) 
0.159934238

$$$$
