
     RDKit          3D

 33 35  0  0  1  0  0  0  0  0999 V2000
   36.5130   31.2480   46.4900 C   0  0  1  0  0  0  0  0  0  0  0  0
   35.7860   29.9830   46.5410 C   0  0  0  0  0  0  0  0  0  0  0  0
   36.1400   30.6730   47.8240 C   0  0  1  0  0  0  0  0  0  0  0  0
   38.4980   30.2400   45.3040 C   0  0  0  0  0  0  0  0  0  0  0  0
   37.9300   31.2950   46.0880 C   0  0  0  0  0  0  0  0  0  0  0  0
   38.7590   32.3700   46.4580 C   0  0  0  0  0  0  0  0  0  0  0  0
   40.0620   32.3610   46.0560 N   0  0  0  0  0  0  0  0  0  0  0  0
   40.5680   31.3340   45.3080 C   0  0  0  0  0  0  0  0  0  0  0  0
   39.7870   30.2880   44.9390 N   0  0  0  0  0  0  0  0  0  0  0  0
   37.1130   30.0210   48.7360 C   0  0  0  0  0  0  0  0  0  0  0  0
   37.7590   30.9830   49.6510 C   0  0  0  0  0  0  0  0  0  0  0  0
   38.0090   30.4770   51.0430 C   0  0  0  0  0  0  0  0  0  0  0  0
   36.8410   29.7670   51.6570 C   0  0  0  0  0  0  0  0  0  0  0  0
   35.7590   29.4190   50.6760 C   0  0  0  0  0  0  0  0  0  0  0  0
   36.3800   28.8950   49.4320 C   0  0  0  0  0  0  0  0  0  0  0  0
   36.3439   32.2064   45.9773 H   0  0  0  0  0  0  0  0  0  0  0  0
   34.7368   29.9409   46.2134 H   0  0  0  0  0  0  0  0  0  0  0  0
   35.9577   28.9763   46.1323 H   0  0  0  0  0  0  0  0  0  0  0  0
   35.6193   31.0753   48.7055 H   0  0  0  0  0  0  0  0  0  0  0  0
   37.8741   29.3866   45.0000 H   0  0  0  0  0  0  0  0  0  0  0  0
   38.3637   33.2015   47.0599 H   0  0  0  0  0  0  0  0  0  0  0  0
   41.6240   31.3565   45.0010 H   0  0  0  0  0  0  0  0  0  0  0  0
   37.9610   29.6025   48.1742 H   0  0  0  0  0  0  0  0  0  0  0  0
   38.7273   31.2693   49.2146 H   0  0  0  0  0  0  0  0  0  0  0  0
   37.0563   31.8229   49.7545 H   0  0  0  0  0  0  0  0  0  0  0  0
   38.8583   29.7787   51.0090 H   0  0  0  0  0  0  0  0  0  0  0  0
   38.2077   31.3592   51.6693 H   0  0  0  0  0  0  0  0  0  0  0  0
   37.2040   28.8363   52.1175 H   0  0  0  0  0  0  0  0  0  0  0  0
   36.3979   30.4555   52.3916 H   0  0  0  0  0  0  0  0  0  0  0  0
   35.1009   28.6521   51.1104 H   0  0  0  0  0  0  0  0  0  0  0  0
   35.1664   30.3163   50.4445 H   0  0  0  0  0  0  0  0  0  0  0  0
   35.5979   28.4980   48.7681 H   0  0  0  0  0  0  0  0  0  0  0  0
   37.0861   28.0888   49.6799 H   0  0  0  0  0  0  0  0  0  0  0  0
  1  2  1  0
  1  3  1  0
  2  3  1  0
  3 10  1  0
  4  5  2  0
  5  6  1  0
  5  1  1  0
  7  6  2  0
  8  7  1  0
  9  4  1  0
  9  8  2  0
 10 15  1  0
 10 11  1  0
 11 12  1  0
 12 13  1  0
 14 13  1  0
 15 14  1  0
  1 16  1  6
  2 17  1  0
  2 18  1  0
  3 19  1  1
  4 20  1  0
  6 21  1  0
  8 22  1  0
 10 23  1  0
 11 24  1  0
 11 25  1  0
 12 26  1  0
 12 27  1  0
 13 28  1  0
 13 29  1  0
 14 30  1  0
 14 31  1  0
 15 32  1  0
 15 33  1  0
M  ISO  8  16  13  17  13  18  13  19  13  20  14  21  14  22  14  23  13
M  ISO  8  24  13  25  13  26  13  27  13  28  13  29  13  30  13  31  13
M  ISO  2  32  13  33  13
M  END
>  <minimizedAffinity>  (1) 
-4.7636857

>  <minimizedRMSD>  (1) 
3.48973513

$$$$
