
     RDKit          3D

 29 31  0  0  1  0  0  0  0  0999 V2000
   37.5380   31.4250   47.1910 C   0  0  1  0  0  0  0  0  0  0  0  0
   36.3950   30.5310   47.0140 C   0  0  0  0  0  0  0  0  0  0  0  0
   37.3850   30.2200   48.0950 C   0  0  2  0  0  0  0  0  0  0  0  0
   38.7050   30.4860   45.1670 C   0  0  0  0  0  0  0  0  0  0  0  0
   38.6470   31.4310   46.2130 C   0  0  0  0  0  0  0  0  0  0  0  0
   39.6800   32.3620   46.2880 C   0  0  0  0  0  0  0  0  0  0  0  0
   40.6880   32.3340   45.3710 N   0  0  0  0  0  0  0  0  0  0  0  0
   40.7060   31.4020   44.3710 C   0  0  0  0  0  0  0  0  0  0  0  0
   39.7100   30.4830   44.2790 N   0  0  0  0  0  0  0  0  0  0  0  0
   36.9730   30.4930   49.4470 N   0  0  0  0  0  0  0  0  0  0  0  0
   35.7830   29.7570   49.8330 C   0  0  0  0  0  0  0  0  0  0  0  0
   35.9180   29.4570   51.3060 C   0  0  0  0  0  0  0  0  0  0  0  0
   37.2520   30.0240   51.7380 C   0  0  0  0  0  0  0  0  0  0  0  0
   37.9980   30.0850   50.4020 C   0  0  0  0  0  0  0  0  0  0  0  0
   37.6408   32.5107   47.3345 H   0  0  0  0  0  0  0  0  0  0  0  0
   35.3854   30.8764   47.2814 H   0  0  0  0  0  0  0  0  0  0  0  0
   35.9837   29.9682   46.1631 H   0  0  0  0  0  0  0  0  0  0  0  0
   38.0008   29.3514   48.3711 H   0  0  0  0  0  0  0  0  0  0  0  0
   37.9072   29.7340   45.0777 H   0  0  0  0  0  0  0  0  0  0  0  0
   39.6824   33.1189   47.0862 H   0  0  0  0  0  0  0  0  0  0  0  0
   41.5280   31.3963   43.6400 H   0  0  0  0  0  0  0  0  0  0  0  0
   34.8850   30.3655   49.6507 H   0  0  0  0  0  0  0  0  0  0  0  0
   35.6831   28.8309   49.2479 H   0  0  0  0  0  0  0  0  0  0  0  0
   35.1019   29.9349   51.8677 H   0  0  0  0  0  0  0  0  0  0  0  0
   35.8637   28.3754   51.4988 H   0  0  0  0  0  0  0  0  0  0  0  0
   37.1397   31.0238   52.1827 H   0  0  0  0  0  0  0  0  0  0  0  0
   37.7629   29.4339   52.5131 H   0  0  0  0  0  0  0  0  0  0  0  0
   38.4092   29.0995   50.1378 H   0  0  0  0  0  0  0  0  0  0  0  0
   38.8550   30.7742   50.4253 H   0  0  0  0  0  0  0  0  0  0  0  0
  1  3  1  0
  2  1  1  0
  2  3  1  0
  3 10  1  0
  4  5  2  0
  5  6  1  0
  5  1  1  0
  7  6  2  0
  8  7  1  0
  9  8  2  0
  9  4  1  0
 10 11  1  0
 10 14  1  0
 11 12  1  0
 12 13  1  0
 14 13  1  0
  1 15  1  1
  2 16  1  0
  2 17  1  0
  3 18  1  1
  4 19  1  0
  6 20  1  0
  8 21  1  0
 11 22  1  0
 11 23  1  0
 12 24  1  0
 12 25  1  0
 13 26  1  0
 13 27  1  0
 14 28  1  0
 14 29  1  0
M  ISO  8  15  13  16  13  17  13  18  13  19  14  20  14  21  14  22  13
M  ISO  7  23  13  24  13  25  13  26  13  27  13  28  13  29  13
M  END
>  <minimizedAffinity>  (1) 
-4.74561834

>  <minimizedRMSD>  (1) 
3.57511973

$$$$
