
     RDKit          3D

 23 24  0  0  1  0  0  0  0  0999 V2000
   35.6460   30.5020   49.2820 C   0  0  1  0  0  0  0  0  0  0  0  0
   35.4830   29.0960   48.9000 C   0  0  0  0  0  0  0  0  0  0  0  0
   35.8680   29.4130   50.2960 C   0  0  1  0  0  0  0  0  0  0  0  0
   37.4880   30.8750   47.5600 C   0  0  0  0  0  0  0  0  0  0  0  0
   36.8250   31.2640   48.7670 C   0  0  0  0  0  0  0  0  0  0  0  0
   37.3080   32.3730   49.4820 C   0  0  0  0  0  0  0  0  0  0  0  0
   38.4070   33.0330   48.9790 N   0  0  0  0  0  0  0  0  0  0  0  0
   39.0090   32.6320   47.8270 C   0  0  0  0  0  0  0  0  0  0  0  0
   38.5380   31.5600   47.1410 N   0  0  0  0  0  0  0  0  0  0  0  0
   37.1660   29.1300   50.9270 C   0  0  0  0  0  0  0  0  0  0  0  0
   37.5040   29.7990   52.2010 C   0  0  0  0  0  0  0  0  0  0  0  0
   35.0141   31.4008   49.2291 H   0  0  0  0  0  0  0  0  0  0  0  0
   34.4788   28.7008   48.6867 H   0  0  0  0  0  0  0  0  0  0  0  0
   35.9075   28.4587   48.1103 H   0  0  0  0  0  0  0  0  0  0  0  0
   35.4711   29.1478   51.2870 H   0  0  0  0  0  0  0  0  0  0  0  0
   37.1258   30.0107   46.9840 H   0  0  0  0  0  0  0  0  0  0  0  0
   36.8241   32.7032   50.4130 H   0  0  0  0  0  0  0  0  0  0  0  0
   39.8841   33.1807   47.4487 H   0  0  0  0  0  0  0  0  0  0  0  0
   37.2053   28.0463   51.1115 H   0  0  0  0  0  0  0  0  0  0  0  0
   37.8998   29.5338   50.2140 H   0  0  0  0  0  0  0  0  0  0  0  0
   37.1848   29.1671   53.0429 H   0  0  0  0  0  0  0  0  0  0  0  0
   38.5910   29.9588   52.2541 H   0  0  0  0  0  0  0  0  0  0  0  0
   36.9877   30.7689   52.2541 H   0  0  0  0  0  0  0  0  0  0  0  0
  1  3  1  0
  2  1  1  0
  2  3  1  0
  3 10  1  0
  4  5  2  0
  5  1  1  0
  5  6  1  0
  7  6  2  0
  8  7  1  0
  9  4  1  0
  9  8  2  0
 10 11  1  0
  1 12  1  1
  2 13  1  0
  2 14  1  0
  3 15  1  1
  4 16  1  0
  6 17  1  0
  8 18  1  0
 10 19  1  0
 10 20  1  0
 11 21  1  0
 11 22  1  0
 11 23  1  0
M  ISO  8  12  13  13  13  14  13  15  13  16  14  17  14  18  14  19   8
M  ISO  4  20   8  21   8  22   8  23   8
M  END
>  <minimizedAffinity>  (1) 
-4.41617489

>  <minimizedRMSD>  (1) 
1.61629438

$$$$
