
     RDKit          3D

 31 33  0  0  0  0  0  0  0  0999 V2000
   37.3110   30.9140   45.4330 C   0  0  0  0  0  0  0  0  0  0  0  0
   37.5160   31.3350   46.7850 C   0  0  0  0  0  0  0  0  0  0  0  0
   38.4570   32.3050   46.9970 C   0  0  0  0  0  0  0  0  0  0  0  0
   39.1210   32.7890   45.9000 N   0  0  0  0  0  0  0  0  0  0  0  0
   38.9220   32.3910   44.6460 C   0  0  0  0  0  0  0  0  0  0  0  0
   38.0050   31.4430   44.4310 N   0  0  0  0  0  0  0  0  0  0  0  0
   39.6940   33.0230   43.6590 N   0  0  0  0  0  0  0  0  0  0  0  0
   36.6140   30.6210   47.6750 C   0  0  0  0  0  0  0  0  0  0  0  0
   35.3050   30.3240   47.2580 C   0  0  0  0  0  0  0  0  0  0  0  0
   34.3540   29.6920   47.9780 C   0  0  0  0  0  0  0  0  0  0  0  0
   34.6170   29.2780   49.2280 C   0  0  0  0  0  0  0  0  0  0  0  0
   35.8800   29.5550   49.6500 C   0  0  0  0  0  0  0  0  0  0  0  0
   36.7620   30.1750   48.8980 N   0  0  0  0  0  0  0  0  0  0  0  0
   36.3070   29.1340   51.0590 C   0  0  0  0  0  0  0  0  0  0  0  0
   37.7410   28.8450   51.2880 C   0  0  0  0  0  0  0  0  0  0  0  0
   37.2610   30.1720   51.7310 C   0  0  0  0  0  0  0  0  0  0  0  0
   38.7110   32.7770   48.3610 C   0  0  0  0  0  0  0  0  0  0  0  0
   39.1280   31.7620   49.0980 F   0  0  0  0  0  0  0  0  0  0  0  0
   39.6230   33.8140   48.4400 F   0  0  0  0  0  0  0  0  0  0  0  0
   37.5230   33.2820   48.9530 F   0  0  0  0  0  0  0  0  0  0  0  0
   36.5633   30.1362   45.2186 H   0  0  0  0  0  0  0  0  0  0  0  0
   39.5839   32.7568   42.6701 H   0  0  0  0  0  0  0  0  0  0  0  0
   40.3707   33.7531   43.9235 H   0  0  0  0  0  0  0  0  0  0  0  0
   35.0272   30.6387   46.2412 H   0  0  0  0  0  0  0  0  0  0  0  0
   33.3607   29.5156   47.5395 H   0  0  0  0  0  0  0  0  0  0  0  0
   33.8763   28.7605   49.8554 H   0  0  0  0  0  0  0  0  0  0  0  0
   35.3753   28.6007   51.2991 H   0  0  0  0  0  0  0  0  0  0  0  0
   38.0268   28.0957   52.0409 H   0  0  0  0  0  0  0  0  0  0  0  0
   38.5603   28.5189   50.6304 H   0  0  0  0  0  0  0  0  0  0  0  0
   37.5626   31.0805   51.1891 H   0  0  0  0  0  0  0  0  0  0  0  0
   37.2703   30.7393   52.6734 H   0  0  0  0  0  0  0  0  0  0  0  0
  1  2  2  0
  2  3  1  0
  2  8  1  0
  3 17  1  0
  4  3  2  0
  5  4  1  0
  6  5  2  0
  6  1  1  0
  7  5  1  0
  8 13  1  0
  9  8  2  0
  9 10  1  0
 10 11  2  0
 11 12  1  0
 12 14  1  0
 13 12  2  0
 14 15  1  0
 14 16  1  0
 15 16  1  0
 17 19  1  0
 17 20  1  0
 17 18  1  0
  1 21  1  0
  7 22  1  0
  7 23  1  0
  9 24  1  0
 10 25  1  0
 11 26  1  0
 14 27  1  0
 15 28  1  0
 15 29  1  0
 16 30  1  0
 16 31  1  0
M  ISO  8  21  14  24  14  25  14  26  14  27  13  28  13  29  13  30  13
M  ISO  1  31  13
M  END
>  <minimizedAffinity>  (1) 
-6.31358957

>  <minimizedRMSD>  (1) 
3.73795676

$$$$
