
     RDKit          3D

 30 32  0  0  1  0  0  0  0  0999 V2000
   37.7860   31.4850   45.9730 C   0  0  1  0  0  0  0  0  0  0  0  0
   36.3410   31.1930   45.9460 C   0  0  0  0  0  0  0  0  0  0  0  0
   37.1690   30.1850   46.5740 C   0  0  2  0  0  0  0  0  0  0  0  0
   34.8050   28.6640   47.9430 Cl  0  0  0  0  0  0  0  0  0  0  0  0
   36.0860   29.4610   48.8240 C   0  0  0  0  0  0  0  0  0  0  0  0
   37.0830   30.0060   48.0220 C   0  0  0  0  0  0  0  0  0  0  0  0
   38.1360   30.5700   48.6780 C   0  0  0  0  0  0  0  0  0  0  0  0
   38.2180   30.6040   50.0760 C   0  0  0  0  0  0  0  0  0  0  0  0
   37.1900   30.0430   50.8470 C   0  0  0  0  0  0  0  0  0  0  0  0
   37.1860   30.0110   52.6040 Cl  0  0  0  0  0  0  0  0  0  0  0  0
   36.1230   29.4710   50.1820 C   0  0  0  0  0  0  0  0  0  0  0  0
   37.9300   31.4580   43.4200 C   0  0  0  0  0  0  0  0  0  0  0  0
   38.5690   31.3220   44.7090 C   0  0  0  0  0  0  0  0  0  0  0  0
   39.9180   31.0070   44.7290 C   0  0  0  0  0  0  0  0  0  0  0  0
   40.5770   30.8390   43.5340 N   0  0  0  0  0  0  0  0  0  0  0  0
   39.9450   30.9740   42.3440 C   0  0  0  0  0  0  0  0  0  0  0  0
   38.6370   31.2800   42.2980 N   0  0  0  0  0  0  0  0  0  0  0  0
   40.7280   30.7780   41.0960 C   0  0  0  0  0  0  0  0  0  0  0  0
   38.4102   32.3204   46.3231 H   0  0  0  0  0  0  0  0  0  0  0  0
   35.6601   31.7927   46.5680 H   0  0  0  0  0  0  0  0  0  0  0  0
   35.5980   31.1556   45.1357 H   0  0  0  0  0  0  0  0  0  0  0  0
   37.3489   29.1078   46.4427 H   0  0  0  0  0  0  0  0  0  0  0  0
   38.9512   31.0147   48.0883 H   0  0  0  0  0  0  0  0  0  0  0  0
   39.0855   31.0690   50.5670 H   0  0  0  0  0  0  0  0  0  0  0  0
   35.2988   29.0212   50.7550 H   0  0  0  0  0  0  0  0  0  0  0  0
   36.8605   31.7083   43.3611 H   0  0  0  0  0  0  0  0  0  0  0  0
   40.4523   30.8933   45.6838 H   0  0  0  0  0  0  0  0  0  0  0  0
   41.7659   30.5182   41.3513 H   0  0  0  0  0  0  0  0  0  0  0  0
   40.2807   29.9641   40.5065 H   0  0  0  0  0  0  0  0  0  0  0  0
   40.7169   31.7066   40.5065 H   0  0  0  0  0  0  0  0  0  0  0  0
  1  3  1  0
  2  1  1  0
  2  3  1  0
  3  6  1  0
  4  5  1  0
  5 11  2  0
  6  7  2  0
  6  5  1  0
  7  8  1  0
  8  9  2  0
  9 10  1  0
 11  9  1  0
 12 13  2  0
 13 14  1  0
 13  1  1  0
 15 14  2  0
 16 15  1  0
 17 16  2  0
 17 12  1  0
 18 16  1  0
  1 19  1  1
  2 20  1  0
  2 21  1  0
  3 22  1  6
  7 23  1  0
  8 24  1  0
 11 25  1  0
 12 26  1  0
 14 27  1  0
 18 28  1  0
 18 29  1  0
 18 30  1  0
M  ISO  8  19  13  20  13  21  13  22  13  23  14  24  14  25  14  26  14
M  ISO  4  27  14  28   8  29   8  30   8
M  END
>  <minimizedAffinity>  (1) 
-4.330585

>  <minimizedRMSD>  (1) 
1.33974433

$$$$
