
     RDKit          3D

 38 41  0  0  1  0  0  0  0  0999 V2000
   35.3230   30.4500   46.0720 C   0  0  1  0  0  0  0  0  0  0  0  0
   34.0390   30.1500   46.6570 C   0  0  0  0  0  0  0  0  0  0  0  0
   35.1820   29.2220   47.0200 C   0  0  2  0  0  0  0  0  0  0  0  0
   33.3760   28.4220   49.4040 Cl  0  0  0  0  0  0  0  0  0  0  0  0
   34.9990   29.0360   49.5890 C   0  0  0  0  0  0  0  0  0  0  0  0
   35.6160   29.3850   48.4100 C   0  0  0  0  0  0  0  0  0  0  0  0
   36.8920   29.9040   48.5280 C   0  0  0  0  0  0  0  0  0  0  0  0
   37.5090   30.0620   49.7650 C   0  0  0  0  0  0  0  0  0  0  0  0
   36.8310   29.6900   50.9430 C   0  0  0  0  0  0  0  0  0  0  0  0
   37.4860   29.8720   52.5570 Cl  0  0  0  0  0  0  0  0  0  0  0  0
   35.5420   29.1630   50.8260 C   0  0  0  0  0  0  0  0  0  0  0  0
   34.5860   29.5410   43.7650 C   0  0  0  0  0  0  0  0  0  0  0  0
   35.5750   30.1240   44.6330 C   0  0  0  0  0  0  0  0  0  0  0  0
   36.7850   30.4480   44.1180 C   0  0  0  0  0  0  0  0  0  0  0  0
   36.9970   30.1900   42.7710 N   0  0  0  0  0  0  0  0  0  0  0  0
   36.0530   29.6450   41.9890 C   0  0  0  0  0  0  0  0  0  0  0  0
   34.8560   29.3250   42.4850 N   0  0  0  0  0  0  0  0  0  0  0  0
   36.2840   29.4110   40.5990 N   0  0  0  0  0  0  0  0  0  0  0  0
   37.9890   31.0370   44.6360 C   0  0  0  0  0  0  0  0  0  0  0  0
   38.9770   30.4800   45.4130 C   0  0  0  0  0  0  0  0  0  0  0  0
   40.1290   31.0750   45.8670 C   0  0  0  0  0  0  0  0  0  0  0  0
   40.3080   32.3860   45.4960 C   0  0  0  0  0  0  0  0  0  0  0  0
   39.3480   32.9940   44.7170 C   0  0  0  0  0  0  0  0  0  0  0  0
   38.2530   32.3220   44.3240 N   0  0  0  0  0  0  0  0  0  0  0  0
   35.9343   31.3637   46.0323 H   0  0  0  0  0  0  0  0  0  0  0  0
   33.6244   30.8216   47.4232 H   0  0  0  0  0  0  0  0  0  0  0  0
   33.0356   29.9864   46.2369 H   0  0  0  0  0  0  0  0  0  0  0  0
   35.4410   28.1553   46.9490 H   0  0  0  0  0  0  0  0  0  0  0  0
   37.4347   30.2004   47.6183 H   0  0  0  0  0  0  0  0  0  0  0  0
   38.5259   30.4773   49.8234 H   0  0  0  0  0  0  0  0  0  0  0  0
   34.9783   28.8570   51.7197 H   0  0  0  0  0  0  0  0  0  0  0  0
   33.5979   29.2724   44.1669 H   0  0  0  0  0  0  0  0  0  0  0  0
   37.1960   29.6458   40.1818 H   0  0  0  0  0  0  0  0  0  0  0  0
   35.5386   29.0074   40.0138 H   0  0  0  0  0  0  0  0  0  0  0  0
   38.8269   29.4306   45.7068 H   0  0  0  0  0  0  0  0  0  0  0  0
   40.8608   30.5368   46.4874 H   0  0  0  0  0  0  0  0  0  0  0  0
   41.2026   32.9406   45.8156 H   0  0  0  0  0  0  0  0  0  0  0  0
   39.4797   34.0429   44.4129 H   0  0  0  0  0  0  0  0  0  0  0  0
  1  2  1  0
  1  3  1  0
  2  3  1  0
  3  6  1  0
  4  5  1  0
  5 11  2  0
  6  7  2  0
  6  5  1  0
  7  8  1  0
  8  9  2  0
  9 10  1  0
 11  9  1  0
 12 13  2  0
 13  1  1  0
 14 13  1  0
 14 19  1  0
 15 14  2  0
 16 17  2  0
 16 15  1  0
 17 12  1  0
 18 16  1  0
 19 20  2  0
 20 21  1  0
 22 21  2  0
 23 22  1  0
 24 19  1  0
 24 23  2  0
  1 25  1  1
  2 26  1  0
  2 27  1  0
  3 28  1  6
  7 29  1  0
  8 30  1  0
 11 31  1  0
 12 32  1  0
 18 33  1  0
 18 34  1  0
 20 35  1  0
 21 36  1  0
 22 37  1  0
 23 38  1  0
M  ISO  8  25  13  26  13  27  13  28  13  29  14  30  14  31  14  32  14
M  ISO  4  35  14  36  14  37  14  38  14
M  END
>  <minimizedAffinity>  (1) 
-5.89840746

>  <minimizedRMSD>  (1) 
3.01764536

$$$$
