
     RDKit          3D

 44 47  0  0  1  0  0  0  0  0999 V2000
   35.7060   30.3350   45.7670 C   0  0  1  0  0  0  0  0  0  0  0  0
   34.3840   30.4390   46.3040 C   0  0  0  0  0  0  0  0  0  0  0  0
   35.2090   29.2680   46.8000 C   0  0  2  0  0  0  0  0  0  0  0  0
   34.8360   29.1930   43.6110 C   0  0  0  0  0  0  0  0  0  0  0  0
   35.9170   29.7990   44.3780 C   0  0  0  0  0  0  0  0  0  0  0  0
   37.1330   29.9430   43.7860 C   0  0  0  0  0  0  0  0  0  0  0  0
   37.2540   29.5010   42.5080 N   0  0  0  0  0  0  0  0  0  0  0  0
   36.2590   28.9410   41.8010 C   0  0  0  0  0  0  0  0  0  0  0  0
   35.0550   28.7940   42.3660 N   0  0  0  0  0  0  0  0  0  0  0  0
   36.4580   28.4690   40.4870 N   0  0  0  0  0  0  0  0  0  0  0  0
   38.3380   30.4500   44.3050 N   0  0  0  0  0  0  0  0  0  0  0  0
   39.2760   31.3230   43.5730 C   0  0  0  0  0  0  0  0  0  0  0  0
   39.0040   32.7360   44.1050 C   0  0  0  0  0  0  0  0  0  0  0  0
   38.9460   32.7070   45.6160 C   0  0  0  0  0  0  0  0  0  0  0  0
   39.5960   31.4580   46.1480 C   0  0  0  0  0  0  0  0  0  0  0  0
   38.8620   30.2010   45.6590 C   0  0  0  0  0  0  0  0  0  0  0  0
   33.4590   28.3140   49.1710 Cl  0  0  0  0  0  0  0  0  0  0  0  0
   35.0330   29.0240   49.3650 C   0  0  0  0  0  0  0  0  0  0  0  0
   35.6340   29.4350   48.1940 C   0  0  0  0  0  0  0  0  0  0  0  0
   36.8860   30.0230   48.3230 C   0  0  0  0  0  0  0  0  0  0  0  0
   37.4920   30.1860   49.5680 C   0  0  0  0  0  0  0  0  0  0  0  0
   36.8300   29.7490   50.7370 C   0  0  0  0  0  0  0  0  0  0  0  0
   37.4890   29.9320   52.3480 Cl  0  0  0  0  0  0  0  0  0  0  0  0
   35.5710   29.1570   50.5990 C   0  0  0  0  0  0  0  0  0  0  0  0
   36.5308   31.0580   45.6837 H   0  0  0  0  0  0  0  0  0  0  0  0
   34.1470   31.2614   46.9950 H   0  0  0  0  0  0  0  0  0  0  0  0
   33.3883   30.5165   45.8430 H   0  0  0  0  0  0  0  0  0  0  0  0
   35.1650   28.1692   46.8256 H   0  0  0  0  0  0  0  0  0  0  0  0
   33.8415   29.0671   44.0638 H   0  0  0  0  0  0  0  0  0  0  0  0
   37.3781   28.5735   40.0360 H   0  0  0  0  0  0  0  0  0  0  0  0
   35.6832   28.0197   39.9783 H   0  0  0  0  0  0  0  0  0  0  0  0
   39.0846   31.2742   42.4909 H   0  0  0  0  0  0  0  0  0  0  0  0
   40.3230   31.0205   43.7225 H   0  0  0  0  0  0  0  0  0  0  0  0
   39.8111   33.4102   43.7825 H   0  0  0  0  0  0  0  0  0  0  0  0
   38.0429   33.0964   43.7095 H   0  0  0  0  0  0  0  0  0  0  0  0
   39.4728   33.5865   46.0148 H   0  0  0  0  0  0  0  0  0  0  0  0
   37.8920   32.7193   45.9304 H   0  0  0  0  0  0  0  0  0  0  0  0
   40.6399   31.4214   45.8030 H   0  0  0  0  0  0  0  0  0  0  0  0
   39.5524   31.4826   47.2469 H   0  0  0  0  0  0  0  0  0  0  0  0
   38.0297   29.9710   46.3404 H   0  0  0  0  0  0  0  0  0  0  0  0
   39.5567   29.3484   45.6385 H   0  0  0  0  0  0  0  0  0  0  0  0
   37.4121   30.3684   47.4208 H   0  0  0  0  0  0  0  0  0  0  0  0
   38.4847   30.6544   49.6400 H   0  0  0  0  0  0  0  0  0  0  0  0
   35.0234   28.8029   51.4849 H   0  0  0  0  0  0  0  0  0  0  0  0
  1  2  1  0
  1  3  1  0
  2  3  1  0
  3 19  1  0
  4  5  2  0
  5  1  1  0
  6 11  1  0
  6  5  1  0
  7  6  2  0
  8  9  2  0
  8  7  1  0
  9  4  1  0
 10  8  1  0
 11 16  1  0
 12 13  1  0
 12 11  1  0
 13 14  1  0
 14 15  1  0
 16 15  1  0
 17 18  1  0
 18 24  2  0
 19 20  2  0
 19 18  1  0
 20 21  1  0
 21 22  2  0
 22 23  1  0
 24 22  1  0
  1 25  1  1
  2 26  1  0
  2 27  1  0
  3 28  1  6
  4 29  1  0
 10 30  1  0
 10 31  1  0
 12 32  1  0
 12 33  1  0
 13 34  1  0
 13 35  1  0
 14 36  1  0
 14 37  1  0
 15 38  1  0
 15 39  1  0
 16 40  1  0
 16 41  1  0
 20 42  1  0
 21 43  1  0
 24 44  1  0
M  ISO  8  25  13  26  13  27  13  28  13  29  14  32  13  33  13  34  13
M  ISO  8  35  13  36  13  37  13  38  13  39  13  40  13  41  13  42  14
M  ISO  2  43  14  44  14
M  END
>  <minimizedAffinity>  (1) 
-5.59750366

>  <minimizedRMSD>  (1) 
2.86986852

$$$$
