
     RDKit          3D

 35 37  0  0  1  0  0  0  0  0999 V2000
   37.2260   31.6730   44.2250 C   0  0  1  0  0  0  0  0  0  0  0  0
   35.9130   31.0930   44.2850 C   0  0  0  0  0  0  0  0  0  0  0  0
   37.0060   30.3650   45.0500 C   0  0  2  0  0  0  0  0  0  0  0  0
   34.2980   29.8570   46.4750 Cl  0  0  0  0  0  0  0  0  0  0  0  0
   35.7720   30.2550   47.3210 C   0  0  0  0  0  0  0  0  0  0  0  0
   36.8490   30.4980   46.5020 C   0  0  0  0  0  0  0  0  0  0  0  0
   38.0340   30.8510   47.1460 C   0  0  0  0  0  0  0  0  0  0  0  0
   38.1030   30.9490   48.5280 C   0  0  0  0  0  0  0  0  0  0  0  0
   36.9690   30.6940   49.3210 C   0  0  0  0  0  0  0  0  0  0  0  0
   36.9280   30.8290   51.0650 Cl  0  0  0  0  0  0  0  0  0  0  0  0
   35.7820   30.3370   48.6750 C   0  0  0  0  0  0  0  0  0  0  0  0
   37.5210   31.0200   41.7410 C   0  0  0  0  0  0  0  0  0  0  0  0
   38.0840   31.5030   42.9980 C   0  0  0  0  0  0  0  0  0  0  0  0
   39.3970   31.8680   43.0530 C   0  0  0  0  0  0  0  0  0  0  0  0
   40.1160   31.7460   41.8780 N   0  0  0  0  0  0  0  0  0  0  0  0
   39.5760   31.2980   40.7360 C   0  0  0  0  0  0  0  0  0  0  0  0
   38.2940   30.9390   40.6620 N   0  0  0  0  0  0  0  0  0  0  0  0
   40.3850   31.2020   39.5580 N   0  0  0  0  0  0  0  0  0  0  0  0
   40.1660   32.4110   44.1570 C   0  0  0  0  0  0  0  0  0  0  0  0
   40.8700   31.3910   44.9730 C   0  0  0  0  0  0  0  0  0  0  0  0
   37.5920   32.6938   44.4092 H   0  0  0  0  0  0  0  0  0  0  0  0
   35.1189   31.6121   44.8418 H   0  0  0  0  0  0  0  0  0  0  0  0
   35.1904   30.7785   43.5176 H   0  0  0  0  0  0  0  0  0  0  0  0
   37.4875   29.3764   45.0791 H   0  0  0  0  0  0  0  0  0  0  0  0
   38.9328   31.0560   46.5459 H   0  0  0  0  0  0  0  0  0  0  0  0
   39.0524   31.2285   49.0081 H   0  0  0  0  0  0  0  0  0  0  0  0
   34.8713   30.1261   49.2548 H   0  0  0  0  0  0  0  0  0  0  0  0
   36.4628   30.7245   41.6865 H   0  0  0  0  0  0  0  0  0  0  0  0
   39.9746   30.8583   38.6780 H   0  0  0  0  0  0  0  0  0  0  0  0
   41.3772   31.4766   39.5908 H   0  0  0  0  0  0  0  0  0  0  0  0
   40.9172   33.1016   43.7463 H   0  0  0  0  0  0  0  0  0  0  0  0
   39.4478   32.9076   44.8260 H   0  0  0  0  0  0  0  0  0  0  0  0
   40.7200   31.6083   46.0408 H   0  0  0  0  0  0  0  0  0  0  0  0
   40.4668   30.3941   44.7415 H   0  0  0  0  0  0  0  0  0  0  0  0
   41.9451   31.4144   44.7415 H   0  0  0  0  0  0  0  0  0  0  0  0
  1  2  1  0
  1  3  1  0
  2  3  1  0
  3  6  1  0
  4  5  1  0
  5 11  2  0
  6  7  2  0
  6  5  1  0
  7  8  1  0
  8  9  2  0
  9 10  1  0
 11  9  1  0
 12 13  2  0
 13 14  1  0
 13  1  1  0
 14 19  1  0
 15 14  2  0
 16 15  1  0
 17 16  2  0
 17 12  1  0
 18 16  1  0
 19 20  1  0
  1 21  1  1
  2 22  1  0
  2 23  1  0
  3 24  1  1
  7 25  1  0
  8 26  1  0
 11 27  1  0
 12 28  1  0
 18 29  1  0
 18 30  1  0
 19 31  1  0
 19 32  1  0
 20 33  1  0
 20 34  1  0
 20 35  1  0
M  ISO  8  21  13  22  13  23  13  24  13  25  14  26  14  27  14  28  14
M  ISO  5  31   8  32   8  33   8  34   8  35   8
M  END
>  <minimizedAffinity>  (1) 
-4.88998938

>  <minimizedRMSD>  (1) 
1.80621898

$$$$
