
     RDKit          3D

 27 29  0  0  0  0  0  0  0  0999 V2000
   36.4260   30.3550   48.7840 C   0  0  0  0  0  0  0  0  0  0  0  0
   36.2680   29.5490   49.8430 C   0  0  0  0  0  0  0  0  0  0  0  0
   35.2890   28.5820   49.8180 C   0  0  0  0  0  0  0  0  0  0  0  0
   34.5340   28.5200   48.6800 C   0  0  0  0  0  0  0  0  0  0  0  0
   35.2260   29.8470   47.6480 S   0  0  0  0  0  0  0  0  0  0  0  0
   38.3470   33.3910   49.3720 C   0  0  0  0  0  0  0  0  0  0  0  0
   39.1910   33.4590   48.2410 C   0  0  0  0  0  0  0  0  0  0  0  0
   39.0800   32.4440   47.2780 C   0  0  0  0  0  0  0  0  0  0  0  0
   38.1710   31.4400   47.4700 N   0  0  0  0  0  0  0  0  0  0  0  0
   37.3920   31.4360   48.5820 C   0  0  0  0  0  0  0  0  0  0  0  0
   37.4720   32.3820   49.5120 N   0  0  0  0  0  0  0  0  0  0  0  0
   33.4370   27.6200   48.3520 C   0  0  0  0  0  0  0  0  0  0  0  0
   32.1560   27.8900   48.7900 C   0  0  0  0  0  0  0  0  0  0  0  0
   31.1810   26.9830   48.4320 C   0  0  0  0  0  0  0  0  0  0  0  0
   31.4970   25.8580   47.6670 C   0  0  0  0  0  0  0  0  0  0  0  0
   32.7880   25.6170   47.2450 C   0  0  0  0  0  0  0  0  0  0  0  0
   33.7810   26.5050   47.5860 C   0  0  0  0  0  0  0  0  0  0  0  0
   36.9157   29.6595   50.7252 H   0  0  0  0  0  0  0  0  0  0  0  0
   35.1237   27.8989   50.6642 H   0  0  0  0  0  0  0  0  0  0  0  0
   38.4072   34.1715   50.1448 H   0  0  0  0  0  0  0  0  0  0  0  0
   39.9118   34.2809   48.1191 H   0  0  0  0  0  0  0  0  0  0  0  0
   39.7158   32.4557   46.3804 H   0  0  0  0  0  0  0  0  0  0  0  0
   31.9254   28.7810   49.3924 H   0  0  0  0  0  0  0  0  0  0  0  0
   30.1418   27.1475   48.7528 H   0  0  0  0  0  0  0  0  0  0  0  0
   30.7003   25.1498   47.3955 H   0  0  0  0  0  0  0  0  0  0  0  0
   33.0202   24.7258   46.6434 H   0  0  0  0  0  0  0  0  0  0  0  0
   34.8197   26.3409   47.2634 H   0  0  0  0  0  0  0  0  0  0  0  0
  1  2  2  0
  3  2  1  0
  4  3  2  0
  5  4  1  0
  5  1  1  0
  6 11  2  0
  7  6  1  0
  8  9  1  0
  8  7  2  0
  9 10  2  0
 10  1  1  0
 10 11  1  0
 12  4  1  0
 12 13  2  0
 14 13  1  0
 15 14  2  0
 16 17  2  0
 16 15  1  0
 17 12  1  0
  2 18  1  0
  3 19  1  0
  6 20  1  0
  7 21  1  0
  8 22  1  0
 13 23  1  0
 14 24  1  0
 15 25  1  0
 16 26  1  0
 17 27  1  0
M  ISO  8  18  14  19  14  20  14  21  14  22  14  23  14  24  14  25  14
M  ISO  2  26  14  27  14
M  END
>  <minimizedAffinity>  (1) 
-5.55464125

>  <minimizedRMSD>  (1) 
0.842583299

$$$$
