
     RDKit          3D

 23 24  0  0  0  0  0  0  0  0999 V2000
   36.1570   30.2720   48.7530 C   0  0  0  0  0  0  0  0  0  0  0  0
   36.0580   29.2950   49.6610 C   0  0  0  0  0  0  0  0  0  0  0  0
   35.0160   28.4050   49.6020 C   0  0  0  0  0  0  0  0  0  0  0  0
   34.1230   28.5890   48.5820 C   0  0  0  0  0  0  0  0  0  0  0  0
   34.7930   30.0470   47.7120 S   0  0  0  0  0  0  0  0  0  0  0  0
   38.1140   33.2580   49.4700 C   0  0  0  0  0  0  0  0  0  0  0  0
   39.0410   33.2890   48.4010 C   0  0  0  0  0  0  0  0  0  0  0  0
   38.9800   32.2690   47.4340 C   0  0  0  0  0  0  0  0  0  0  0  0
   38.0300   31.3030   47.5760 N   0  0  0  0  0  0  0  0  0  0  0  0
   37.1700   31.3230   48.6160 C   0  0  0  0  0  0  0  0  0  0  0  0
   37.2020   32.2700   49.5460 N   0  0  0  0  0  0  0  0  0  0  0  0
   32.9040   27.8130   48.2410 C   0  0  0  0  0  0  0  0  0  0  0  0
   33.3230   26.5240   47.6140 C   0  0  0  0  0  0  0  0  0  0  0  0
   36.8130   29.2051   50.4559 H   0  0  0  0  0  0  0  0  0  0  0  0
   34.9048   27.5903   50.3327 H   0  0  0  0  0  0  0  0  0  0  0  0
   38.1385   34.0427   50.2405 H   0  0  0  0  0  0  0  0  0  0  0  0
   39.7906   34.0907   48.3280 H   0  0  0  0  0  0  0  0  0  0  0  0
   39.6805   32.2519   46.5861 H   0  0  0  0  0  0  0  0  0  0  0  0
   32.3254   27.6106   49.1544 H   0  0  0  0  0  0  0  0  0  0  0  0
   32.2759   28.3853   47.5425 H   0  0  0  0  0  0  0  0  0  0  0  0
   33.5605   25.7934   48.4013 H   0  0  0  0  0  0  0  0  0  0  0  0
   32.5044   26.1369   46.9894 H   0  0  0  0  0  0  0  0  0  0  0  0
   34.2127   26.6922   46.9894 H   0  0  0  0  0  0  0  0  0  0  0  0
  1  2  2  0
  3  2  1  0
  4  3  2  0
  5  4  1  0
  5  1  1  0
  6 11  2  0
  7  6  1  0
  8  9  1  0
  8  7  2  0
  9 10  2  0
 10  1  1  0
 10 11  1  0
 12  4  1  0
 13 12  1  0
  2 14  1  0
  3 15  1  0
  6 16  1  0
  7 17  1  0
  8 18  1  0
 12 19  1  0
 12 20  1  0
 13 21  1  0
 13 22  1  0
 13 23  1  0
M  ISO  8  14  14  15  14  16  14  17  14  18  14  19   8  20   8  21   8
M  ISO  2  22   8  23   8
M  END
>  <minimizedAffinity>  (1) 
-4.66653013

>  <minimizedRMSD>  (1) 
0.209983498

$$$$
