
     RDKit          3D

 18 19  0  0  0  0  0  0  0  0999 V2000
   38.0290   33.1210   49.4220 C   0  0  0  0  0  0  0  0  0  0  0  0
   38.9950   33.0780   48.3830 C   0  0  0  0  0  0  0  0  0  0  0  0
   38.9360   32.0310   47.4650 C   0  0  0  0  0  0  0  0  0  0  0  0
   37.9530   31.1050   47.6190 N   0  0  0  0  0  0  0  0  0  0  0  0
   37.0590   31.1780   48.6120 C   0  0  0  0  0  0  0  0  0  0  0  0
   37.0780   32.1630   49.5140 N   0  0  0  0  0  0  0  0  0  0  0  0
   36.0100   30.1640   48.7540 C   0  0  0  0  0  0  0  0  0  0  0  0
   35.9420   29.1040   49.5620 C   0  0  0  0  0  0  0  0  0  0  0  0
   34.8550   28.2780   49.5280 C   0  0  0  0  0  0  0  0  0  0  0  0
   33.8740   28.6080   48.6330 C   0  0  0  0  0  0  0  0  0  0  0  0
   34.5350   30.1200   47.8410 S   0  0  0  0  0  0  0  0  0  0  0  0
   32.6630   27.9830   48.3590 O   0  0  0  0  0  0  0  0  0  0  0  0
   38.0537   33.9387   50.1574 H   0  0  0  0  0  0  0  0  0  0  0  0
   39.7719   33.8527   48.3042 H   0  0  0  0  0  0  0  0  0  0  0  0
   39.6619   31.9564   46.6419 H   0  0  0  0  0  0  0  0  0  0  0  0
   36.7664   28.8944   50.2595 H   0  0  0  0  0  0  0  0  0  0  0  0
   34.7728   27.3978   50.1826 H   0  0  0  0  0  0  0  0  0  0  0  0
   32.0579   28.3565   47.6702 H   0  0  0  0  0  0  0  0  0  0  0  0
  1  6  2  0
  2  1  1  0
  3  4  1  0
  3  2  2  0
  4  5  2  0
  5  7  1  0
  5  6  1  0
  7  8  2  0
  9  8  1  0
 10  9  2  0
 11 10  1  0
 11  7  1  0
 12 10  1  0
  1 13  1  0
  2 14  1  0
  3 15  1  0
  8 16  1  0
  9 17  1  0
 12 18  1  0
M  ISO  6  13  14  14  14  15  14  16  14  17  14  18   3
M  END
>  <minimizedAffinity>  (1) 
-4.52122355

>  <minimizedRMSD>  (1) 
0.146338746

$$$$
