
     RDKit          3D

 41 43  0  0  1  0  0  0  0  0999 V2000
   34.5410   29.9770   47.7380 C   0  0  0  0  0  0  0  0  0  0  0  0
   33.8990   28.9880   48.4840 C   0  0  0  0  0  0  0  0  0  0  0  0
   34.1410   28.6650   49.7740 C   0  0  0  0  0  0  0  0  0  0  0  0
   35.0870   29.3320   50.4580 C   0  0  0  0  0  0  0  0  0  0  0  0
   35.7260   30.2920   49.7660 C   0  0  0  0  0  0  0  0  0  0  0  0
   35.4330   30.5470   48.5100 N   0  0  0  0  0  0  0  0  0  0  0  0
   32.7210   30.3710   46.2760 C   0  0  0  0  0  0  0  0  0  0  0  0
   34.1420   30.2300   46.3630 C   0  0  0  0  0  0  0  0  0  0  0  0
   34.8480   30.3750   45.2000 C   0  0  0  0  0  0  0  0  0  0  0  0
   34.1390   30.6430   44.0540 N   0  0  0  0  0  0  0  0  0  0  0  0
   32.8130   30.7710   43.9940 C   0  0  0  0  0  0  0  0  0  0  0  0
   32.1160   30.6290   45.1300 N   0  0  0  0  0  0  0  0  0  0  0  0
   32.2670   31.0640   42.7360 N   0  0  0  0  0  0  0  0  0  0  0  0
   36.3060   30.2410   45.2230 C   0  0  0  0  0  0  0  0  0  0  0  0
   36.6430   29.4660   46.2520 F   0  0  0  0  0  0  0  0  0  0  0  0
   36.8420   29.7070   44.0620 F   0  0  0  0  0  0  0  0  0  0  0  0
   36.9290   31.5080   45.3930 F   0  0  0  0  0  0  0  0  0  0  0  0
   38.1550   30.9330   49.6600 C   0  0  2  0  0  0  0  0  0  0  0  0
   36.8220   31.2270   50.2480 C   0  0  1  0  0  0  0  0  0  0  0  0
   36.3640   32.5110   50.0790 O   0  0  0  0  0  0  0  0  0  0  0  0
   37.3850   33.3920   49.8200 C   0  0  0  0  0  0  0  0  0  0  0  0
   37.9880   33.0580   48.4780 C   0  0  2  0  0  0  0  0  0  0  0  0
   38.2170   31.5760   48.2870 C   0  0  1  0  0  0  0  0  0  0  0  0
   38.5640   29.6270   49.6970 O   0  0  0  0  0  0  0  0  0  0  0  0
   39.1520   33.7830   48.3430 O   0  0  0  0  0  0  0  0  0  0  0  0
   39.5440   31.4290   47.8250 O   0  0  0  0  0  0  0  0  0  0  0  0
   33.1156   28.4121   47.9696 H   0  0  0  0  0  0  0  0  0  0  0  0
   33.5680   27.8621   50.2608 H   0  0  0  0  0  0  0  0  0  0  0  0
   35.3217   29.1084   51.5091 H   0  0  0  0  0  0  0  0  0  0  0  0
   32.1156   30.2617   47.1879 H   0  0  0  0  0  0  0  0  0  0  0  0
   31.2484   31.1741   42.6296 H   0  0  0  0  0  0  0  0  0  0  0  0
   32.8845   31.1691   41.9184 H   0  0  0  0  0  0  0  0  0  0  0  0
   38.9132   31.3853   50.3161 H   0  0  0  0  0  0  0  0  0  0  0  0
   37.0243   31.0716   51.3180 H   0  0  0  0  0  0  0  0  0  0  0  0
   36.9915   34.4190   49.8030 H   0  0  0  0  0  0  0  0  0  0  0  0
   38.1528   33.3146   50.6039 H   0  0  0  0  0  0  0  0  0  0  0  0
   37.2773   33.3354   47.6855 H   0  0  0  0  0  0  0  0  0  0  0  0
   37.4846   31.1323   47.5965 H   0  0  0  0  0  0  0  0  0  0  0  0
   38.6550   29.3363   50.6390 H   0  0  0  0  0  0  0  0  0  0  0  0
   39.5084   34.0050   49.2396 H   0  0  0  0  0  0  0  0  0  0  0  0
   40.1573   31.3611   48.5992 H   0  0  0  0  0  0  0  0  0  0  0  0
  1  2  2  0
  1  6  1  0
  2  3  1  0
  3  4  2  0
  5  4  1  0
  6  5  2  0
  7  8  2  0
  8  1  1  0
  9 14  1  0
  9  8  1  0
 10  9  2  0
 11 10  1  0
 11 12  2  0
 12  7  1  0
 13 11  1  0
 14 17  1  0
 14 15  1  0
 16 14  1  0
 18 24  1  0
 18 19  1  0
 19  5  1  0
 20 19  1  0
 21 20  1  0
 22 25  1  0
 22 21  1  0
 23 26  1  0
 23 22  1  0
 23 18  1  0
  2 27  1  0
  3 28  1  0
  4 29  1  0
  7 30  1  0
 13 31  1  0
 13 32  1  0
 18 33  1  1
 19 34  1  1
 21 35  1  0
 21 36  1  0
 22 37  1  6
 23 38  1  6
 24 39  1  0
 25 40  1  0
 26 41  1  0
M  ISO  8  27  14  28  14  29  14  30  14  33  13  34  13  35  13  36  13
M  ISO  5  37  13  38  13  39   3  40   3  41   3
M  END
>  <minimizedAffinity>  (1) 
-5.52601528

>  <minimizedRMSD>  (1) 
2.33992791

$$$$
