
     RDKit          3D

 33 36  0  0  0  0  0  0  0  0999 V2000
   36.1230   30.1870   48.8800 C   0  0  0  0  0  0  0  0  0  0  0  0
   36.0420   29.2640   49.8370 C   0  0  0  0  0  0  0  0  0  0  0  0
   34.9980   28.3640   49.8140 C   0  0  0  0  0  0  0  0  0  0  0  0
   34.1110   28.4970   48.7880 C   0  0  0  0  0  0  0  0  0  0  0  0
   34.7720   29.9150   47.8530 S   0  0  0  0  0  0  0  0  0  0  0  0
   38.0860   33.2110   49.4130 C   0  0  0  0  0  0  0  0  0  0  0  0
   39.0230   33.1880   48.3760 C   0  0  0  0  0  0  0  0  0  0  0  0
   38.9740   32.1070   47.4750 C   0  0  0  0  0  0  0  0  0  0  0  0
   38.0210   31.1430   47.6590 N   0  0  0  0  0  0  0  0  0  0  0  0
   37.1390   31.2380   48.7000 C   0  0  0  0  0  0  0  0  0  0  0  0
   37.1500   32.2370   49.5690 N   0  0  0  0  0  0  0  0  0  0  0  0
   32.9120   27.7080   48.4940 C   0  0  0  0  0  0  0  0  0  0  0  0
   32.9650   26.7060   47.5980 C   0  0  0  0  0  0  0  0  0  0  0  0
   31.7980   26.0030   47.3710 C   0  0  0  0  0  0  0  0  0  0  0  0
   30.6450   26.2990   48.0130 N   0  0  0  0  0  0  0  0  0  0  0  0
   30.6910   27.3390   48.9080 C   0  0  0  0  0  0  0  0  0  0  0  0
   31.7910   28.0630   49.1760 N   0  0  0  0  0  0  0  0  0  0  0  0
   29.4690   27.6930   49.6230 C   0  0  0  0  0  0  0  0  0  0  0  0
   29.0280   26.9170   50.7010 C   0  0  0  0  0  0  0  0  0  0  0  0
   27.8590   27.2880   51.3560 C   0  0  0  0  0  0  0  0  0  0  0  0
   27.1600   28.3650   50.9700 N   0  0  0  0  0  0  0  0  0  0  0  0
   27.5860   29.1230   49.9170 C   0  0  0  0  0  0  0  0  0  0  0  0
   28.7180   28.7380   49.3080 N   0  0  0  0  0  0  0  0  0  0  0  0
   36.7980   29.2205   50.6349 H   0  0  0  0  0  0  0  0  0  0  0  0
   34.8872   27.5828   50.5804 H   0  0  0  0  0  0  0  0  0  0  0  0
   38.1065   34.0465   50.1282 H   0  0  0  0  0  0  0  0  0  0  0  0
   39.7722   33.9861   48.2676 H   0  0  0  0  0  0  0  0  0  0  0  0
   39.6873   32.0391   46.6404 H   0  0  0  0  0  0  0  0  0  0  0  0
   33.8970   26.4574   47.0693 H   0  0  0  0  0  0  0  0  0  0  0  0
   31.8066   25.1764   46.6453 H   0  0  0  0  0  0  0  0  0  0  0  0
   29.5949   26.0313   51.0236 H   0  0  0  0  0  0  0  0  0  0  0  0
   27.5015   26.6875   52.2055 H   0  0  0  0  0  0  0  0  0  0  0  0
   27.0264   30.0092   49.5831 H   0  0  0  0  0  0  0  0  0  0  0  0
  1  2  2  0
  3  2  1  0
  4  3  2  0
  5  4  1  0
  5  1  1  0
  6 11  2  0
  7  6  1  0
  8  9  1  0
  8  7  2  0
  9 10  2  0
 10  1  1  0
 10 11  1  0
 12  4  1  0
 12 17  1  0
 13 12  2  0
 14 13  1  0
 14 15  2  0
 15 16  1  0
 16 17  2  0
 16 18  1  0
 18 19  2  0
 19 20  1  0
 21 20  2  0
 22 21  1  0
 23 18  1  0
 23 22  2  0
  2 24  1  0
  3 25  1  0
  6 26  1  0
  7 27  1  0
  8 28  1  0
 13 29  1  0
 14 30  1  0
 19 31  1  0
 20 32  1  0
 22 33  1  0
M  ISO  8  24  14  25  14  26  14  27  14  28  14  29  14  30  14  31  14
M  ISO  2  32  14  33  14
M  END
>  <minimizedAffinity>  (1) 
-7.12618065

>  <minimizedRMSD>  (1) 
0.603606284

$$$$
