
     RDKit          3D

 32 35  0  0  0  0  0  0  0  0999 V2000
   36.0980   30.2080   48.7790 C   0  0  0  0  0  0  0  0  0  0  0  0
   36.0920   29.1590   49.5990 C   0  0  0  0  0  0  0  0  0  0  0  0
   35.0250   28.2880   49.5710 C   0  0  0  0  0  0  0  0  0  0  0  0
   34.0350   28.5810   48.6810 C   0  0  0  0  0  0  0  0  0  0  0  0
   34.6350   30.1070   47.8830 S   0  0  0  0  0  0  0  0  0  0  0  0
   38.0800   33.1980   49.4510 C   0  0  0  0  0  0  0  0  0  0  0  0
   38.9930   33.2280   48.3990 C   0  0  0  0  0  0  0  0  0  0  0  0
   38.9260   32.2060   47.4430 C   0  0  0  0  0  0  0  0  0  0  0  0
   37.9740   31.2260   47.5800 N   0  0  0  0  0  0  0  0  0  0  0  0
   37.1190   31.2610   48.6300 C   0  0  0  0  0  0  0  0  0  0  0  0
   37.1510   32.2110   49.5530 N   0  0  0  0  0  0  0  0  0  0  0  0
   32.7880   27.8590   48.4170 C   0  0  0  0  0  0  0  0  0  0  0  0
   32.7090   27.0010   47.3840 C   0  0  0  0  0  0  0  0  0  0  0  0
   31.5200   26.3460   47.1740 C   0  0  0  0  0  0  0  0  0  0  0  0
   30.4540   26.5460   47.9750 N   0  0  0  0  0  0  0  0  0  0  0  0
   30.6240   27.4370   49.0060 C   0  0  0  0  0  0  0  0  0  0  0  0
   31.7590   28.1140   49.2690 N   0  0  0  0  0  0  0  0  0  0  0  0
   29.4640   27.6570   49.8810 C   0  0  0  0  0  0  0  0  0  0  0  0
   28.6490   28.7710   49.9040 C   0  0  0  0  0  0  0  0  0  0  0  0
   27.7130   28.5610   50.8480 N   0  0  0  0  0  0  0  0  0  0  0  0
   27.8940   27.3590   51.4290 C   0  0  0  0  0  0  0  0  0  0  0  0
   28.9700   26.8290   50.8200 N   0  0  0  0  0  0  0  0  0  0  0  0
   36.9299   28.9897   50.2913 H   0  0  0  0  0  0  0  0  0  0  0  0
   34.9749   27.4075   50.2285 H   0  0  0  0  0  0  0  0  0  0  0  0
   38.1116   33.9892   50.2146 H   0  0  0  0  0  0  0  0  0  0  0  0
   39.7429   34.0290   48.3214 H   0  0  0  0  0  0  0  0  0  0  0  0
   39.6261   32.1889   46.5947 H   0  0  0  0  0  0  0  0  0  0  0  0
   33.5730   26.8286   46.7254 H   0  0  0  0  0  0  0  0  0  0  0  0
   31.4356   25.6421   46.3330 H   0  0  0  0  0  0  0  0  0  0  0  0
   28.7465   29.6639   49.2691 H   0  0  0  0  0  0  0  0  0  0  0  0
   26.9644   29.2251   51.0917 H   0  0  0  0  0  0  0  0  0  0  0  0
   27.2907   26.9074   52.2303 H   0  0  0  0  0  0  0  0  0  0  0  0
  1  2  2  0
  3  2  1  0
  4  3  2  0
  5  4  1  0
  5  1  1  0
  6 11  2  0
  7  6  1  0
  8  9  1  0
  8  7  2  0
  9 10  2  0
 10  1  1  0
 10 11  1  0
 12  4  1  0
 12 17  1  0
 13 12  2  0
 14 13  1  0
 14 15  2  0
 15 16  1  0
 16 17  2  0
 16 18  1  0
 18 19  2  0
 18 22  1  0
 19 20  1  0
 20 21  1  0
 22 21  2  0
  2 23  1  0
  3 24  1  0
  6 25  1  0
  7 26  1  0
  8 27  1  0
 13 28  1  0
 14 29  1  0
 19 30  1  0
 20 31  1  0
 21 32  1  0
M  ISO  8  23  14  24  14  25  14  26  14  27  14  28  14  29  14  30  14
M  ISO  2  31   9  32  14
M  END
>  <minimizedAffinity>  (1) 
-6.83675861

>  <minimizedRMSD>  (1) 
0.850371182

$$$$
