
     RDKit          3D

 27 29  0  0  0  0  0  0  0  0999 V2000
   36.0960   30.1770   48.8410 C   0  0  0  0  0  0  0  0  0  0  0  0
   36.0230   29.2200   49.7630 C   0  0  0  0  0  0  0  0  0  0  0  0
   34.9620   28.3420   49.7350 C   0  0  0  0  0  0  0  0  0  0  0  0
   34.0480   28.5270   48.7420 C   0  0  0  0  0  0  0  0  0  0  0  0
   34.7200   29.9600   47.8520 S   0  0  0  0  0  0  0  0  0  0  0  0
   38.0840   33.1820   49.3930 C   0  0  0  0  0  0  0  0  0  0  0  0
   39.0170   33.1510   48.3630 C   0  0  0  0  0  0  0  0  0  0  0  0
   38.9700   32.0820   47.4600 C   0  0  0  0  0  0  0  0  0  0  0  0
   38.0090   31.1210   47.6300 N   0  0  0  0  0  0  0  0  0  0  0  0
   37.1250   31.2190   48.6660 C   0  0  0  0  0  0  0  0  0  0  0  0
   37.1340   32.2110   49.5440 N   0  0  0  0  0  0  0  0  0  0  0  0
   32.8290   27.7680   48.4510 C   0  0  0  0  0  0  0  0  0  0  0  0
   32.8150   26.8720   47.4480 C   0  0  0  0  0  0  0  0  0  0  0  0
   31.6380   26.1880   47.2250 C   0  0  0  0  0  0  0  0  0  0  0  0
   30.5300   26.4010   47.9800 N   0  0  0  0  0  0  0  0  0  0  0  0
   30.6500   27.3220   48.9630 C   0  0  0  0  0  0  0  0  0  0  0  0
   31.7660   28.0210   49.2300 N   0  0  0  0  0  0  0  0  0  0  0  0
   29.4860   27.5890   49.8040 C   0  0  0  0  0  0  0  0  0  0  0  0
   29.1280   26.8590   50.7610 O   0  0  0  0  0  0  0  0  0  0  0  0
   36.7995   29.1314   50.5370 H   0  0  0  0  0  0  0  0  0  0  0  0
   34.8583   27.5347   50.4749 H   0  0  0  0  0  0  0  0  0  0  0  0
   38.1112   34.0156   50.1102 H   0  0  0  0  0  0  0  0  0  0  0  0
   39.7717   33.9447   48.2602 H   0  0  0  0  0  0  0  0  0  0  0  0
   39.6901   32.0153   46.6311 H   0  0  0  0  0  0  0  0  0  0  0  0
   33.7069   26.6918   46.8299 H   0  0  0  0  0  0  0  0  0  0  0  0
   31.5960   25.4485   46.4118 H   0  0  0  0  0  0  0  0  0  0  0  0
   28.8860   28.4847   49.5856 H   0  0  0  0  0  0  0  0  0  0  0  0
  1  2  2  0
  3  2  1  0
  4  3  2  0
  5  4  1  0
  5  1  1  0
  6 11  2  0
  7  6  1  0
  8  9  1  0
  8  7  2  0
  9 10  2  0
 10  1  1  0
 10 11  1  0
 12  4  1  0
 12 17  1  0
 13 12  2  0
 14 13  1  0
 14 15  2  0
 15 16  1  0
 16 17  2  0
 16 18  1  0
 18 19  2  0
  2 20  1  0
  3 21  1  0
  6 22  1  0
  7 23  1  0
  8 24  1  0
 13 25  1  0
 14 26  1  0
 18 27  1  0
M  ISO  8  20  14  21  14  22  14  23  14  24  14  25  14  26  14  27   6
M  END
>  <minimizedAffinity>  (1) 
-5.70871687

>  <minimizedRMSD>  (1) 
0.643990934

$$$$
