
     RDKit          3D

 37 39  0  0  0  0  0  0  0  0999 V2000
   36.0670   30.4900   48.2330 C   0  0  0  0  0  0  0  0  0  0  0  0
   36.3430   30.5690   46.8330 C   0  0  0  0  0  0  0  0  0  0  0  0
   35.4370   29.9860   45.9890 C   0  0  0  0  0  0  0  0  0  0  0  0
   34.3440   29.3800   46.5530 N   0  0  0  0  0  0  0  0  0  0  0  0
   34.0970   29.3150   47.8650 C   0  0  0  0  0  0  0  0  0  0  0  0
   34.9740   29.8770   48.6910 N   0  0  0  0  0  0  0  0  0  0  0  0
   32.9120   28.6520   48.2500 N   0  0  0  0  0  0  0  0  0  0  0  0
   37.5750   31.3010   46.6050 C   0  0  0  0  0  0  0  0  0  0  0  0
   38.1230   32.0780   47.6320 C   0  0  0  0  0  0  0  0  0  0  0  0
   39.2400   32.8420   47.5710 C   0  0  0  0  0  0  0  0  0  0  0  0
   39.9430   32.8910   46.4050 C   0  0  0  0  0  0  0  0  0  0  0  0
   39.4210   32.1360   45.3930 C   0  0  0  0  0  0  0  0  0  0  0  0
   38.3270   31.4240   45.5430 N   0  0  0  0  0  0  0  0  0  0  0  0
   40.1710   32.1610   44.0790 C   0  0  0  0  0  0  0  0  0  0  0  0
   39.4830   32.9120   43.0160 C   0  0  0  0  0  0  0  0  0  0  0  0
   39.1750   31.8810   41.9740 C   0  0  0  0  0  0  0  0  0  0  0  0
   40.3670   30.9510   42.0860 C   0  0  0  0  0  0  0  0  0  0  0  0
   40.4170   30.7500   43.5950 C   0  0  0  0  0  0  0  0  0  0  0  0
   35.6630   30.0350   44.5450 C   0  0  0  0  0  0  0  0  0  0  0  0
   36.7880   29.4110   44.2670 F   0  0  0  0  0  0  0  0  0  0  0  0
   34.6330   29.5070   43.7880 F   0  0  0  0  0  0  0  0  0  0  0  0
   35.7900   31.3790   44.0910 F   0  0  0  0  0  0  0  0  0  0  0  0
   36.7698   30.9437   48.9473 H   0  0  0  0  0  0  0  0  0  0  0  0
   32.6684   28.5703   49.2474 H   0  0  0  0  0  0  0  0  0  0  0  0
   32.2908   28.2499   47.5335 H   0  0  0  0  0  0  0  0  0  0  0  0
   37.5885   32.0671   48.5934 H   0  0  0  0  0  0  0  0  0  0  0  0
   39.5742   33.4139   48.4492 H   0  0  0  0  0  0  0  0  0  0  0  0
   40.8578   33.4905   46.2877 H   0  0  0  0  0  0  0  0  0  0  0  0
   41.1181   32.6813   44.2847 H   0  0  0  0  0  0  0  0  0  0  0  0
   38.5579   33.3686   43.3977 H   0  0  0  0  0  0  0  0  0  0  0  0
   40.0937   33.7379   42.6223 H   0  0  0  0  0  0  0  0  0  0  0  0
   39.1128   32.3316   40.9725 H   0  0  0  0  0  0  0  0  0  0  0  0
   38.2069   31.3795   42.1199 H   0  0  0  0  0  0  0  0  0  0  0  0
   40.1946   30.0032   41.5550 H   0  0  0  0  0  0  0  0  0  0  0  0
   41.2960   31.3390   41.6429 H   0  0  0  0  0  0  0  0  0  0  0  0
   39.6302   30.0619   43.9377 H   0  0  0  0  0  0  0  0  0  0  0  0
   41.3505   30.2993   43.9630 H   0  0  0  0  0  0  0  0  0  0  0  0
  1  6  2  0
  2  1  1  0
  3  4  1  0
  3  2  2  0
  4  5  2  0
  5  7  1  0
  5  6  1  0
  8  2  1  0
  8  9  2  0
 10  9  1  0
 11 10  2  0
 12 13  2  0
 12 11  1  0
 13  8  1  0
 14 12  1  0
 15 14  1  0
 16 17  1  0
 16 15  1  0
 17 18  1  0
 18 14  1  0
 19  3  1  0
 20 19  1  0
 21 19  1  0
 22 19  1  0
  1 23  1  0
  7 24  1  0
  7 25  1  0
  9 26  1  0
 10 27  1  0
 11 28  1  0
 14 29  1  0
 15 30  1  0
 15 31  1  0
 16 32  1  0
 16 33  1  0
 17 34  1  0
 17 35  1  0
 18 36  1  0
 18 37  1  0
M  ISO  8  23  14  26  14  27  14  28  14  29  13  30  13  31  13  32  13
M  ISO  5  33  13  34  13  35  13  36  13  37  13
M  END
>  <minimizedAffinity>  (1) 
-5.32838297

>  <minimizedRMSD>  (1) 
5.2232213

$$$$
