
     RDKit          3D

 20 21  0  0  0  0  0  0  0  0999 V2000
   38.0480   33.2970   49.5590 Cl  0  0  0  0  0  0  0  0  0  0  0  0
   38.4780   32.3900   48.1330 C   0  0  0  0  0  0  0  0  0  0  0  0
   38.0310   31.0950   47.9610 C   0  0  0  0  0  0  0  0  0  0  0  0
   38.4110   30.4410   46.8080 C   0  0  0  0  0  0  0  0  0  0  0  0
   39.2040   31.0300   45.8470 C   0  0  0  0  0  0  0  0  0  0  0  0
   39.6340   32.3440   46.0650 C   0  0  0  0  0  0  0  0  0  0  0  0
   40.6400   33.0540   44.8210 Cl  0  0  0  0  0  0  0  0  0  0  0  0
   39.2780   33.0370   47.2030 C   0  0  0  0  0  0  0  0  0  0  0  0
   36.9220   29.3910   51.1530 C   0  0  0  0  0  0  0  0  0  0  0  0
   37.7380   29.9330   50.1490 C   0  0  0  0  0  0  0  0  0  0  0  0
   37.1920   30.5270   49.0130 C   0  0  0  0  0  0  0  0  0  0  0  0
   35.8360   30.5470   48.9400 N   0  0  0  0  0  0  0  0  0  0  0  0
   35.0640   30.0250   49.9070 C   0  0  0  0  0  0  0  0  0  0  0  0
   35.5940   29.4570   50.9950 N   0  0  0  0  0  0  0  0  0  0  0  0
   38.0675   29.4082   46.6490 H   0  0  0  0  0  0  0  0  0  0  0  0
   39.4904   30.4839   44.9361 H   0  0  0  0  0  0  0  0  0  0  0  0
   39.6178   34.0701   47.3678 H   0  0  0  0  0  0  0  0  0  0  0  0
   37.3615   28.9240   52.0467 H   0  0  0  0  0  0  0  0  0  0  0  0
   38.8314   29.8882   50.2608 H   0  0  0  0  0  0  0  0  0  0  0  0
   33.9698   30.0658   49.8014 H   0  0  0  0  0  0  0  0  0  0  0  0
  2  1  1  0
  3  2  2  0
  3 11  1  0
  4  3  1  0
  5  6  1  0
  5  4  2  0
  6  8  2  0
  7  6  1  0
  8  2  1  0
 10  9  2  0
 11 10  1  0
 12 11  2  0
 12 13  1  0
 13 14  2  0
 14  9  1  0
  4 15  1  0
  5 16  1  0
  8 17  1  0
  9 18  1  0
 10 19  1  0
 13 20  1  0
M  ISO  6  15  14  16  14  17  14  18  14  19  14  20  14
M  END
>  <minimizedAffinity>  (1) 
-5.43041658

>  <minimizedRMSD>  (1) 
1.06116366

$$$$
