
     RDKit          3D

 33 35  0  0  0  0  0  0  0  0999 V2000
   35.4610   29.1520   51.0420 C   0  0  0  0  0  0  0  0  0  0  0  0
   36.3940   29.8880   50.3030 C   0  0  0  0  0  0  0  0  0  0  0  0
   36.3690   29.9390   48.9150 C   0  0  0  0  0  0  0  0  0  0  0  0
   35.3830   29.2290   48.3230 N   0  0  0  0  0  0  0  0  0  0  0  0
   34.4820   28.5190   49.0180 C   0  0  0  0  0  0  0  0  0  0  0  0
   34.5240   28.4840   50.3640 N   0  0  0  0  0  0  0  0  0  0  0  0
   33.4480   27.7770   48.3520 N   0  0  0  0  0  0  0  0  0  0  0  0
   32.0460   28.0600   48.5970 C   0  0  0  0  0  0  0  0  0  0  0  0
   31.1780   26.8400   48.4810 C   0  0  0  0  0  0  0  0  0  0  0  0
   31.8670   25.6980   48.1500 O   0  0  0  0  0  0  0  0  0  0  0  0
   32.6890   25.8670   47.0380 C   0  0  0  0  0  0  0  0  0  0  0  0
   33.8380   26.7330   47.4240 C   0  0  0  0  0  0  0  0  0  0  0  0
   36.9830   32.5710   50.1010 Cl  0  0  0  0  0  0  0  0  0  0  0  0
   37.6910   31.9560   48.6250 C   0  0  0  0  0  0  0  0  0  0  0  0
   37.3350   30.7010   48.1480 C   0  0  0  0  0  0  0  0  0  0  0  0
   37.9360   30.2840   46.9760 C   0  0  0  0  0  0  0  0  0  0  0  0
   38.8480   31.0530   46.2920 C   0  0  0  0  0  0  0  0  0  0  0  0
   39.1720   32.3080   46.8140 C   0  0  0  0  0  0  0  0  0  0  0  0
   40.3370   33.2720   45.9270 Cl  0  0  0  0  0  0  0  0  0  0  0  0
   38.6060   32.7770   47.9760 C   0  0  0  0  0  0  0  0  0  0  0  0
   35.4980   29.1246   52.1410 H   0  0  0  0  0  0  0  0  0  0  0  0
   37.1750   30.4460   50.8403 H   0  0  0  0  0  0  0  0  0  0  0  0
   31.9423   28.4701   49.6124 H   0  0  0  0  0  0  0  0  0  0  0  0
   31.7139   28.7772   47.8319 H   0  0  0  0  0  0  0  0  0  0  0  0
   30.6793   26.6761   49.4477 H   0  0  0  0  0  0  0  0  0  0  0  0
   30.4645   27.0310   47.6659 H   0  0  0  0  0  0  0  0  0  0  0  0
   32.1209   26.3450   46.2263 H   0  0  0  0  0  0  0  0  0  0  0  0
   33.0551   24.8901   46.6891 H   0  0  0  0  0  0  0  0  0  0  0  0
   34.6096   26.1080   47.8974 H   0  0  0  0  0  0  0  0  0  0  0  0
   34.2189   27.2160   46.5121 H   0  0  0  0  0  0  0  0  0  0  0  0
   37.6738   29.2947   46.5728 H   0  0  0  0  0  0  0  0  0  0  0  0
   39.3089   30.6908   45.3612 H   0  0  0  0  0  0  0  0  0  0  0  0
   38.8680   33.7669   48.3779 H   0  0  0  0  0  0  0  0  0  0  0  0
  2  1  2  0
  3  2  1  0
  4  3  2  0
  4  5  1  0
  5  6  2  0
  6  1  1  0
  7  8  1  0
  7  5  1  0
  9  8  1  0
 10  9  1  0
 11 12  1  0
 11 10  1  0
 12  7  1  0
 14 13  1  0
 15 14  2  0
 15  3  1  0
 16 15  1  0
 17 18  1  0
 17 16  2  0
 18 20  2  0
 19 18  1  0
 20 14  1  0
  1 21  1  0
  2 22  1  0
  8 23  1  0
  8 24  1  0
  9 25  1  0
  9 26  1  0
 11 27  1  0
 11 28  1  0
 12 29  1  0
 12 30  1  0
 16 31  1  0
 17 32  1  0
 20 33  1  0
M  ISO  8  21  14  22  14  23  13  24  13  25  13  26  13  27  13  28  13
M  ISO  5  29  13  30  13  31  14  32  14  33  14
M  END
>  <minimizedAffinity>  (1) 
-6.10916471

>  <minimizedRMSD>  (1) 
2.22980118

$$$$
