
     RDKit          3D

 21 22  0  0  0  0  0  0  0  0999 V2000
   38.3130   33.3300   49.4390 Cl  0  0  0  0  0  0  0  0  0  0  0  0
   38.6540   32.4080   47.9900 C   0  0  0  0  0  0  0  0  0  0  0  0
   38.1480   31.1230   47.8420 C   0  0  0  0  0  0  0  0  0  0  0  0
   38.4590   30.4630   46.6820 C   0  0  0  0  0  0  0  0  0  0  0  0
   39.2340   31.0270   45.6940 C   0  0  0  0  0  0  0  0  0  0  0  0
   39.7220   32.3320   45.8950 C   0  0  0  0  0  0  0  0  0  0  0  0
   40.6960   32.9650   44.5870 Cl  0  0  0  0  0  0  0  0  0  0  0  0
   39.4380   33.0290   47.0380 C   0  0  0  0  0  0  0  0  0  0  0  0
   37.0880   29.4560   51.0670 C   0  0  0  0  0  0  0  0  0  0  0  0
   37.8890   29.9570   50.0300 C   0  0  0  0  0  0  0  0  0  0  0  0
   37.3320   30.5930   48.9350 C   0  0  0  0  0  0  0  0  0  0  0  0
   35.9690   30.7090   48.9170 N   0  0  0  0  0  0  0  0  0  0  0  0
   35.2130   30.2250   49.9160 C   0  0  0  0  0  0  0  0  0  0  0  0
   35.7520   29.6110   50.9730 N   0  0  0  0  0  0  0  0  0  0  0  0
   33.8600   30.4530   49.6900 O   0  0  0  0  0  0  0  0  0  0  0  0
   38.0744   29.4430   46.5347 H   0  0  0  0  0  0  0  0  0  0  0  0
   39.4657   30.4730   44.7724 H   0  0  0  0  0  0  0  0  0  0  0  0
   39.8210   34.0485   47.1929 H   0  0  0  0  0  0  0  0  0  0  0  0
   37.5380   28.9501   51.9339 H   0  0  0  0  0  0  0  0  0  0  0  0
   38.9814   29.8419   50.0887 H   0  0  0  0  0  0  0  0  0  0  0  0
   33.1893   30.1463   50.3504 H   0  0  0  0  0  0  0  0  0  0  0  0
  2  1  1  0
  3  2  2  0
  3 11  1  0
  4  3  1  0
  5  6  1  0
  5  4  2  0
  6  8  2  0
  7  6  1  0
  8  2  1  0
 10  9  2  0
 11 10  1  0
 12 11  2  0
 12 13  1  0
 13 14  2  0
 14  9  1  0
 15 13  1  0
  4 16  1  0
  5 17  1  0
  8 18  1  0
  9 19  1  0
 10 20  1  0
 15 21  1  0
M  ISO  6  16  14  17  14  18  14  19  14  20  14  21   3
M  END
>  <minimizedAffinity>  (1) 
-5.91593266

>  <minimizedRMSD>  (1) 
0.220215991

$$$$
