
     RDKit          3D

 23 24  0  0  0  0  0  0  0  0999 V2000
   38.2330   33.4070   49.5800 Cl  0  0  0  0  0  0  0  0  0  0  0  0
   38.5880   32.4750   48.1470 C   0  0  0  0  0  0  0  0  0  0  0  0
   38.1860   31.1510   48.0470 C   0  0  0  0  0  0  0  0  0  0  0  0
   38.5070   30.4780   46.8850 C   0  0  0  0  0  0  0  0  0  0  0  0
   39.2010   31.0910   45.8570 C   0  0  0  0  0  0  0  0  0  0  0  0
   39.5890   32.4190   45.9910 C   0  0  0  0  0  0  0  0  0  0  0  0
   40.4580   33.1280   44.6620 Cl  0  0  0  0  0  0  0  0  0  0  0  0
   39.2870   33.1150   47.1290 C   0  0  0  0  0  0  0  0  0  0  0  0
   37.3550   29.8460   51.4910 C   0  0  0  0  0  0  0  0  0  0  0  0
   38.0550   30.3880   50.4080 C   0  0  0  0  0  0  0  0  0  0  0  0
   37.4600   30.5870   49.1750 C   0  0  0  0  0  0  0  0  0  0  0  0
   36.1460   30.2270   49.0700 N   0  0  0  0  0  0  0  0  0  0  0  0
   35.4890   29.7070   50.1240 C   0  0  0  0  0  0  0  0  0  0  0  0
   36.0680   29.5190   51.3050 N   0  0  0  0  0  0  0  0  0  0  0  0
   34.0450   29.3380   49.9240 C   0  0  0  0  0  0  0  0  0  0  0  0
   38.2030   29.4267   46.7736 H   0  0  0  0  0  0  0  0  0  0  0  0
   39.4437   30.5321   44.9412 H   0  0  0  0  0  0  0  0  0  0  0  0
   39.5926   34.1661   47.2376 H   0  0  0  0  0  0  0  0  0  0  0  0
   37.8446   29.6929   52.4640 H   0  0  0  0  0  0  0  0  0  0  0  0
   39.1113   30.6646   50.5408 H   0  0  0  0  0  0  0  0  0  0  0  0
   33.5593   29.2139   50.9031 H   0  0  0  0  0  0  0  0  0  0  0  0
   33.5374   30.1353   49.3613 H   0  0  0  0  0  0  0  0  0  0  0  0
   33.9821   28.3949   49.3613 H   0  0  0  0  0  0  0  0  0  0  0  0
  2  1  1  0
  3  2  2  0
  3 11  1  0
  4  3  1  0
  5  6  1  0
  5  4  2  0
  6  8  2  0
  7  6  1  0
  8  2  1  0
 10  9  2  0
 11 10  1  0
 12 11  2  0
 12 13  1  0
 13 14  2  0
 14  9  1  0
 15 13  1  0
  4 16  1  0
  5 17  1  0
  8 18  1  0
  9 19  1  0
 10 20  1  0
 15 21  1  0
 15 22  1  0
 15 23  1  0
M  ISO  8  16  14  17  14  18  14  19  14  20  14  21   8  22   8  23   8
M  END
>  <minimizedAffinity>  (1) 
-5.91414785

>  <minimizedRMSD>  (1) 
0.44183144

$$$$
