
     RDKit          3D

 30 31  0  0  0  0  0  0  0  0999 V2000
   37.2050   29.4460   51.3010 C   0  0  0  0  0  0  0  0  0  0  0  0
   37.9190   29.9970   50.2330 C   0  0  0  0  0  0  0  0  0  0  0  0
   37.2770   30.4370   49.0740 C   0  0  0  0  0  0  0  0  0  0  0  0
   35.9310   30.2890   49.0690 N   0  0  0  0  0  0  0  0  0  0  0  0
   35.2700   29.7630   50.0950 C   0  0  0  0  0  0  0  0  0  0  0  0
   35.8780   29.3470   51.1920 N   0  0  0  0  0  0  0  0  0  0  0  0
   33.4920   28.4990   49.1560 C   0  0  0  0  0  0  0  0  0  0  0  0
   34.2320   27.5140   48.8480 O   0  0  0  0  0  0  0  0  0  0  0  0
   33.8480   29.7310   49.8010 N   0  0  0  0  0  0  0  0  0  0  0  0
   38.6880   32.9280   49.7640 Cl  0  0  0  0  0  0  0  0  0  0  0  0
   38.7050   32.1920   48.1950 C   0  0  0  0  0  0  0  0  0  0  0  0
   38.0140   31.0160   47.9520 C   0  0  0  0  0  0  0  0  0  0  0  0
   38.0620   30.4700   46.6830 C   0  0  0  0  0  0  0  0  0  0  0  0
   38.7870   31.0790   45.6660 C   0  0  0  0  0  0  0  0  0  0  0  0
   39.4670   32.2520   45.9370 C   0  0  0  0  0  0  0  0  0  0  0  0
   40.3500   32.9630   44.6180 Cl  0  0  0  0  0  0  0  0  0  0  0  0
   39.4320   32.8120   47.1910 C   0  0  0  0  0  0  0  0  0  0  0  0
   40.1700   34.0770   47.4600 C   0  0  0  0  0  0  0  0  0  0  0  0
   39.7570   34.7090   48.7790 C   0  0  0  0  0  0  0  0  0  0  0  0
   37.7234   29.1026   52.2084 H   0  0  0  0  0  0  0  0  0  0  0  0
   39.0129   30.0860   50.3076 H   0  0  0  0  0  0  0  0  0  0  0  0
   32.4295   28.3933   48.8915 H   0  0  0  0  0  0  0  0  0  0  0  0
   33.1862   30.4880   50.0245 H   0  0  0  0  0  0  0  0  0  0  0  0
   37.5170   29.5375   46.4747 H   0  0  0  0  0  0  0  0  0  0  0  0
   38.8195   30.6345   44.6603 H   0  0  0  0  0  0  0  0  0  0  0  0
   41.2477   33.8590   47.4929 H   0  0  0  0  0  0  0  0  0  0  0  0
   39.9314   34.7869   46.6543 H   0  0  0  0  0  0  0  0  0  0  0  0
   40.1497   34.1080   49.6124 H   0  0  0  0  0  0  0  0  0  0  0  0
   40.1630   35.7295   48.8396 H   0  0  0  0  0  0  0  0  0  0  0  0
   38.6593   34.7469   48.8396 H   0  0  0  0  0  0  0  0  0  0  0  0
  2  1  2  0
  3  2  1  0
  4  3  2  0
  4  5  1  0
  5  6  2  0
  6  1  1  0
  7  9  1  0
  8  7  2  0
  9  5  1  0
 11 10  1  0
 12 11  2  0
 12  3  1  0
 13 12  1  0
 14 15  1  0
 14 13  2  0
 15 17  2  0
 16 15  1  0
 17 18  1  0
 17 11  1  0
 18 19  1  0
  1 20  1  0
  2 21  1  0
  7 22  1  0
  9 23  1  0
 13 24  1  0
 14 25  1  0
 18 26  1  0
 18 27  1  0
 19 28  1  0
 19 29  1  0
 19 30  1  0
M  ISO  8  20  14  21  14  22   6  24  14  25  14  26   8  27   8  28   8
M  ISO  2  29   8  30   8
M  END
>  <minimizedAffinity>  (1) 
-6.53535795

>  <minimizedRMSD>  (1) 
0.371571034

$$$$
