
     RDKit          3D

 29 31  0  0  1  0  0  0  0  0999 V2000
   36.3280   30.4820   49.3270 C   0  0  0  0  0  0  0  0  0  0  0  0
   36.1730   29.9550   50.5830 C   0  0  0  0  0  0  0  0  0  0  0  0
   35.1180   29.0950   50.5990 C   0  0  0  0  0  0  0  0  0  0  0  0
   34.6250   29.0980   49.3380 N   0  0  0  0  0  0  0  0  0  0  0  0
   35.3640   29.9390   48.5810 N   0  0  0  0  0  0  0  0  0  0  0  0
   38.4760   33.4550   49.1270 C   0  0  0  0  0  0  0  0  0  0  0  0
   39.2480   33.1820   47.9740 C   0  0  0  0  0  0  0  0  0  0  0  0
   39.0120   31.9820   47.2890 C   0  0  0  0  0  0  0  0  0  0  0  0
   38.0560   31.1340   47.7620 N   0  0  0  0  0  0  0  0  0  0  0  0
   37.3320   31.4380   48.8840 C   0  0  0  0  0  0  0  0  0  0  0  0
   37.5600   32.5750   49.5250 N   0  0  0  0  0  0  0  0  0  0  0  0
   32.6730   29.0030   47.9110 N   0  0  0  0  0  0  0  0  0  0  0  0
   31.8060   27.9250   47.4410 C   0  0  0  0  0  0  0  0  0  0  0  0
   32.6510   26.6700   47.4230 C   0  0  0  0  0  0  0  0  0  0  0  0
   33.9340   27.1010   48.0940 C   0  0  0  0  0  0  0  0  0  0  0  0
   33.4790   28.3100   48.8990 C   0  0  1  0  0  0  0  0  0  0  0  0
   36.8074   30.1921   51.4498 H   0  0  0  0  0  0  0  0  0  0  0  0
   34.7439   28.5179   51.4575 H   0  0  0  0  0  0  0  0  0  0  0  0
   38.6312   34.3870   49.6903 H   0  0  0  0  0  0  0  0  0  0  0  0
   40.0124   33.8916   47.6244 H   0  0  0  0  0  0  0  0  0  0  0  0
   39.5878   31.7296   46.3864 H   0  0  0  0  0  0  0  0  0  0  0  0
   32.1283   29.7663   48.3371 H   0  0  0  0  0  0  0  0  0  0  0  0
   30.9528   27.7987   48.1237 H   0  0  0  0  0  0  0  0  0  0  0  0
   31.4021   28.1466   46.4421 H   0  0  0  0  0  0  0  0  0  0  0  0
   32.1649   25.8602   47.9869 H   0  0  0  0  0  0  0  0  0  0  0  0
   32.8092   26.2737   46.4091 H   0  0  0  0  0  0  0  0  0  0  0  0
   34.3279   26.3099   48.7490 H   0  0  0  0  0  0  0  0  0  0  0  0
   34.7512   27.3184   47.3905 H   0  0  0  0  0  0  0  0  0  0  0  0
   32.9374   28.0813   49.8287 H   0  0  0  0  0  0  0  0  0  0  0  0
  1  2  1  0
  2  3  2  0
  4  3  1  0
  5  1  2  0
  5  4  1  0
  6 11  2  0
  7  6  1  0
  8  9  1  0
  8  7  2  0
  9 10  2  0
 10  1  1  0
 10 11  1  0
 12 16  1  0
 13 12  1  0
 14 13  1  0
 14 15  1  0
 16 15  1  0
 16  4  1  0
  2 17  1  0
  3 18  1  0
  6 19  1  0
  7 20  1  0
  8 21  1  0
 12 22  1  0
 13 23  1  0
 13 24  1  0
 14 25  1  0
 14 26  1  0
 15 27  1  0
 15 28  1  0
 16 29  1  1
M  ISO  8  17  14  18  14  19  14  20  14  21  14  22   5  23  13  24  13
M  ISO  5  25  13  26  13  27  13  28  13  29  13
M  END
>  <minimizedAffinity>  (1) 
-5.06377125

>  <minimizedRMSD>  (1) 
1.82539892

$$$$
