
     RDKit          3D

 20 21  0  0  0  0  0  0  0  0999 V2000
   36.3230   30.4210   49.3160 C   0  0  0  0  0  0  0  0  0  0  0  0
   36.1180   29.9540   50.5980 C   0  0  0  0  0  0  0  0  0  0  0  0
   35.1090   29.0520   50.6030 C   0  0  0  0  0  0  0  0  0  0  0  0
   34.6850   28.9600   49.3020 N   0  0  0  0  0  0  0  0  0  0  0  0
   35.4340   29.7970   48.5490 N   0  0  0  0  0  0  0  0  0  0  0  0
   38.4060   33.4340   49.1670 C   0  0  0  0  0  0  0  0  0  0  0  0
   39.2070   33.1910   48.0230 C   0  0  0  0  0  0  0  0  0  0  0  0
   39.0150   31.9880   47.3180 C   0  0  0  0  0  0  0  0  0  0  0  0
   38.0690   31.1270   47.7800 N   0  0  0  0  0  0  0  0  0  0  0  0
   37.3130   31.4000   48.8930 C   0  0  0  0  0  0  0  0  0  0  0  0
   37.5000   32.5350   49.5510 N   0  0  0  0  0  0  0  0  0  0  0  0
   33.6550   28.1830   48.6570 C   0  0  0  0  0  0  0  0  0  0  0  0
   32.5400   28.1960   49.4720 F   0  0  0  0  0  0  0  0  0  0  0  0
   34.0920   26.9160   48.3660 F   0  0  0  0  0  0  0  0  0  0  0  0
   33.2590   28.7560   47.4510 F   0  0  0  0  0  0  0  0  0  0  0  0
   36.6894   30.2680   51.4839 H   0  0  0  0  0  0  0  0  0  0  0  0
   34.7113   28.5057   51.4710 H   0  0  0  0  0  0  0  0  0  0  0  0
   38.5323   34.3654   49.7384 H   0  0  0  0  0  0  0  0  0  0  0  0
   39.9591   33.9236   47.6948 H   0  0  0  0  0  0  0  0  0  0  0  0
   39.6101   31.7521   46.4234 H   0  0  0  0  0  0  0  0  0  0  0  0
  1  2  1  0
  2  3  2  0
  4  3  1  0
  5  4  1  0
  5  1  2  0
  6 11  2  0
  7  6  1  0
  8  9  1  0
  8  7  2  0
  9 10  2  0
 10  1  1  0
 10 11  1  0
 12  4  1  0
 12 13  1  0
 14 12  1  0
 15 12  1  0
  2 16  1  0
  3 17  1  0
  6 18  1  0
  7 19  1  0
  8 20  1  0
M  ISO  5  16  14  17  14  18  14  19  14  20  14
M  END
>  <minimizedAffinity>  (1) 
-4.81185198

>  <minimizedRMSD>  (1) 
1.76284575

$$$$
