
     RDKit          3D

 45 49  0  0  0  0  0  0  0  0999 V2000
   34.7580   29.0370   48.2360 C   0  0  0  0  0  0  0  0  0  0  0  0
   34.5580   28.4900   46.9650 C   0  0  0  0  0  0  0  0  0  0  0  0
   33.2790   27.9930   46.9130 C   0  0  0  0  0  0  0  0  0  0  0  0
   32.7200   28.2450   48.1480 N   0  0  0  0  0  0  0  0  0  0  0  0
   33.6320   28.8590   48.8820 N   0  0  0  0  0  0  0  0  0  0  0  0
   30.4390   27.5490   47.5300 N   0  0  0  0  0  0  0  0  0  0  0  0
   31.3880   27.8600   48.4490 C   0  0  0  0  0  0  0  0  0  0  0  0
   30.7980   27.7260   49.6590 N   0  0  0  0  0  0  0  0  0  0  0  0
   29.5190   27.3430   49.5300 C   0  0  0  0  0  0  0  0  0  0  0  0
   28.4560   27.0540   50.3410 C   0  0  0  0  0  0  0  0  0  0  0  0
   27.2750   26.6860   49.7950 N   0  0  0  0  0  0  0  0  0  0  0  0
   27.1030   26.5910   48.4700 C   0  0  0  0  0  0  0  0  0  0  0  0
   28.1160   26.8640   47.6370 N   0  0  0  0  0  0  0  0  0  0  0  0
   29.2920   27.2300   48.1720 C   0  0  0  0  0  0  0  0  0  0  0  0
   37.4280   30.2650   50.4130 C   0  0  0  0  0  0  0  0  0  0  0  0
   38.3280   30.8610   49.4860 C   0  0  0  0  0  0  0  0  0  0  0  0
   37.9960   30.8280   48.1230 C   0  0  0  0  0  0  0  0  0  0  0  0
   36.8310   30.2240   47.7950 N   0  0  0  0  0  0  0  0  0  0  0  0
   35.9890   29.6650   48.6880 C   0  0  0  0  0  0  0  0  0  0  0  0
   36.3010   29.6940   49.9760 N   0  0  0  0  0  0  0  0  0  0  0  0
   38.8240   31.3930   47.1180 N   0  0  0  0  0  0  0  0  0  0  0  0
   39.3490   30.5450   46.0700 C   0  0  0  0  0  0  0  0  0  0  0  0
   39.8380   31.3090   44.8720 C   0  0  0  0  0  0  0  0  0  0  0  0
   40.8340   32.3360   45.4260 C   0  0  0  0  0  0  0  0  0  0  0  0
   40.0200   33.3400   46.1750 C   0  0  0  0  0  0  0  0  0  0  0  0
   39.0970   32.7880   47.2010 C   0  0  0  0  0  0  0  0  0  0  0  0
   28.6670   27.1630   51.7390 N   0  0  0  0  0  0  0  0  0  0  0  0
   35.2958   28.4626   46.1496 H   0  0  0  0  0  0  0  0  0  0  0  0
   32.7976   27.4945   46.0587 H   0  0  0  0  0  0  0  0  0  0  0  0
   30.5709   27.5549   46.5085 H   0  0  0  0  0  0  0  0  0  0  0  0
   26.1265   26.2877   48.0645 H   0  0  0  0  0  0  0  0  0  0  0  0
   37.6594   30.2741   51.4884 H   0  0  0  0  0  0  0  0  0  0  0  0
   39.2595   31.3351   49.8288 H   0  0  0  0  0  0  0  0  0  0  0  0
   40.1886   29.9641   46.4795 H   0  0  0  0  0  0  0  0  0  0  0  0
   38.5244   29.9014   45.7299 H   0  0  0  0  0  0  0  0  0  0  0  0
   39.0007   31.8161   44.3703 H   0  0  0  0  0  0  0  0  0  0  0  0
   40.3029   30.6480   44.1257 H   0  0  0  0  0  0  0  0  0  0  0  0
   41.5516   31.8464   46.1007 H   0  0  0  0  0  0  0  0  0  0  0  0
   41.4135   32.8093   44.6197 H   0  0  0  0  0  0  0  0  0  0  0  0
   40.7139   34.0279   46.6803 H   0  0  0  0  0  0  0  0  0  0  0  0
   39.3778   33.8240   45.4245 H   0  0  0  0  0  0  0  0  0  0  0  0
   38.1397   33.3228   47.1132 H   0  0  0  0  0  0  0  0  0  0  0  0
   39.6096   32.9300   48.1638 H   0  0  0  0  0  0  0  0  0  0  0  0
   27.8989   26.9564   52.3934 H   0  0  0  0  0  0  0  0  0  0  0  0
   29.5884   27.4487   52.1000 H   0  0  0  0  0  0  0  0  0  0  0  0
  1 19  1  0
  1  5  2  0
  2  1  1  0
  3  2  2  0
  3  4  1  0
  4  7  1  0
  4  5  1  0
  6 14  1  0
  6  7  1  0
  7  8  2  0
  9  8  1  0
  9 10  2  0
 10 27  1  0
 11 10  1  0
 12 11  2  0
 13 14  2  0
 13 12  1  0
 14  9  1  0
 16 15  2  0
 17 16  1  0
 18 17  2  0
 18 19  1  0
 19 20  2  0
 20 15  1  0
 21 26  1  0
 21 17  1  0
 22 21  1  0
 23 24  1  0
 23 22  1  0
 24 25  1  0
 25 26  1  0
  2 28  1  0
  3 29  1  0
  6 30  1  0
 12 31  1  0
 15 32  1  0
 16 33  1  0
 22 34  1  0
 22 35  1  0
 23 36  1  0
 23 37  1  0
 24 38  1  0
 24 39  1  0
 25 40  1  0
 25 41  1  0
 26 42  1  0
 26 43  1  0
 27 44  1  0
 27 45  1  0
M  ISO  8  28  14  29  14  30   9  31  14  32  14  33  14  34  13  35  13
M  ISO  8  36  13  37  13  38  13  39  13  40  13  41  13  42  13  43  13
M  END
>  <minimizedAffinity>  (1) 
-8.02005768

>  <minimizedRMSD>  (1) 
1.51417232

$$$$
