
     RDKit          3D

 32 35  0  0  0  0  0  0  0  0999 V2000
   34.7960   29.1510   48.4090 C   0  0  0  0  0  0  0  0  0  0  0  0
   34.6530   28.5950   47.1340 C   0  0  0  0  0  0  0  0  0  0  0  0
   33.3920   28.0650   47.0470 C   0  0  0  0  0  0  0  0  0  0  0  0
   32.7780   28.2930   48.2440 N   0  0  0  0  0  0  0  0  0  0  0  0
   33.6560   28.9430   49.0210 N   0  0  0  0  0  0  0  0  0  0  0  0
   30.5420   27.5350   47.5780 N   0  0  0  0  0  0  0  0  0  0  0  0
   31.4490   27.8860   48.5410 C   0  0  0  0  0  0  0  0  0  0  0  0
   30.8130   27.7590   49.7230 N   0  0  0  0  0  0  0  0  0  0  0  0
   29.5480   27.3430   49.5260 C   0  0  0  0  0  0  0  0  0  0  0  0
   28.4670   27.0480   50.3120 C   0  0  0  0  0  0  0  0  0  0  0  0
   27.3210   26.6470   49.7350 N   0  0  0  0  0  0  0  0  0  0  0  0
   27.2010   26.5230   48.3960 C   0  0  0  0  0  0  0  0  0  0  0  0
   28.2410   26.8030   47.5980 N   0  0  0  0  0  0  0  0  0  0  0  0
   29.3800   27.2020   48.1660 C   0  0  0  0  0  0  0  0  0  0  0  0
   37.6880   29.9770   50.4940 C   0  0  0  0  0  0  0  0  0  0  0  0
   38.2530   31.0980   49.7850 C   0  0  0  0  0  0  0  0  0  0  0  0
   37.6200   31.5170   48.6290 C   0  0  0  0  0  0  0  0  0  0  0  0
   36.5090   30.8700   48.2140 N   0  0  0  0  0  0  0  0  0  0  0  0
   35.9920   29.8140   48.8980 C   0  0  0  0  0  0  0  0  0  0  0  0
   36.5830   29.3970   50.0060 N   0  0  0  0  0  0  0  0  0  0  0  0
   38.0680   32.5980   47.8430 N   0  0  0  0  0  0  0  0  0  0  0  0
   28.6120   27.1840   51.7150 N   0  0  0  0  0  0  0  0  0  0  0  0
   35.4164   28.5848   46.3421 H   0  0  0  0  0  0  0  0  0  0  0  0
   32.9570   27.5525   46.1763 H   0  0  0  0  0  0  0  0  0  0  0  0
   30.7213   27.5272   46.5638 H   0  0  0  0  0  0  0  0  0  0  0  0
   26.2476   26.1914   47.9589 H   0  0  0  0  0  0  0  0  0  0  0  0
   38.1551   29.6050   51.4178 H   0  0  0  0  0  0  0  0  0  0  0  0
   39.1584   31.6037   50.1517 H   0  0  0  0  0  0  0  0  0  0  0  0
   37.5535   32.8633   46.9910 H   0  0  0  0  0  0  0  0  0  0  0  0
   38.9098   33.1226   48.1206 H   0  0  0  0  0  0  0  0  0  0  0  0
   27.8197   26.9708   52.3377 H   0  0  0  0  0  0  0  0  0  0  0  0
   29.5097   27.4961   52.1121 H   0  0  0  0  0  0  0  0  0  0  0  0
  1 19  1  0
  1  5  2  0
  2  1  1  0
  3  2  2  0
  3  4  1  0
  4  7  1  0
  4  5  1  0
  6 14  1  0
  6  7  1  0
  7  8  2  0
  9  8  1  0
  9 10  2  0
 10 22  1  0
 11 10  1  0
 12 11  2  0
 13 14  2  0
 13 12  1  0
 14  9  1  0
 16 15  2  0
 17 16  1  0
 18 17  2  0
 18 19  1  0
 19 20  2  0
 20 15  1  0
 21 17  1  0
  2 23  1  0
  3 24  1  0
  6 25  1  0
 12 26  1  0
 15 27  1  0
 16 28  1  0
 21 29  1  0
 21 30  1  0
 22 31  1  0
 22 32  1  0
M  ISO  6  23  14  24  14  25   9  26  14  27  14  28  14
M  END
>  <minimizedAffinity>  (1) 
-6.56031179

>  <minimizedRMSD>  (1) 
0.235218555

$$$$
