
     RDKit          3D

 33 35  0  0  0  0  0  0  0  0999 V2000
   35.9590   30.2830   48.6270 C   0  0  0  0  0  0  0  0  0  0  0  0
   35.8540   29.3980   49.6360 C   0  0  0  0  0  0  0  0  0  0  0  0
   34.8560   28.4620   49.6120 C   0  0  0  0  0  0  0  0  0  0  0  0
   33.9800   28.4290   48.5750 N   0  0  0  0  0  0  0  0  0  0  0  0
   34.1140   29.3240   47.5880 C   0  0  0  0  0  0  0  0  0  0  0  0
   35.0850   30.2560   47.5830 N   0  0  0  0  0  0  0  0  0  0  0  0
   33.1760   29.2370   46.5430 N   0  0  0  0  0  0  0  0  0  0  0  0
   32.7810   30.4170   45.8080 C   0  0  0  0  0  0  0  0  0  0  0  0
   31.2950   30.4700   45.5590 C   0  0  0  0  0  0  0  0  0  0  0  0
   30.5090   29.4310   46.2730 C   0  0  0  0  0  0  0  0  0  0  0  0
   31.0610   28.0570   46.2250 C   0  0  0  0  0  0  0  0  0  0  0  0
   32.5550   27.9720   46.1440 C   0  0  0  0  0  0  0  0  0  0  0  0
   38.1200   33.1140   49.5370 C   0  0  0  0  0  0  0  0  0  0  0  0
   38.9910   33.2180   48.4460 C   0  0  0  0  0  0  0  0  0  0  0  0
   38.8170   32.2920   47.3930 C   0  0  0  0  0  0  0  0  0  0  0  0
   37.8230   31.3840   47.5280 N   0  0  0  0  0  0  0  0  0  0  0  0
   36.9990   31.3060   48.5890 C   0  0  0  0  0  0  0  0  0  0  0  0
   37.1560   32.1900   49.6050 N   0  0  0  0  0  0  0  0  0  0  0  0
   36.5657   29.4271   50.4742 H   0  0  0  0  0  0  0  0  0  0  0  0
   34.7634   27.7360   50.4332 H   0  0  0  0  0  0  0  0  0  0  0  0
   33.0743   31.3067   46.3846 H   0  0  0  0  0  0  0  0  0  0  0  0
   33.2835   30.3860   44.8300 H   0  0  0  0  0  0  0  0  0  0  0  0
   30.9289   31.4568   45.8788 H   0  0  0  0  0  0  0  0  0  0  0  0
   31.1530   30.2835   44.4843 H   0  0  0  0  0  0  0  0  0  0  0  0
   30.4373   29.7290   47.3294 H   0  0  0  0  0  0  0  0  0  0  0  0
   29.5400   29.3814   45.7547 H   0  0  0  0  0  0  0  0  0  0  0  0
   30.7389   27.5289   47.1346 H   0  0  0  0  0  0  0  0  0  0  0  0
   30.6789   27.6068   45.2969 H   0  0  0  0  0  0  0  0  0  0  0  0
   32.9064   27.1723   46.8126 H   0  0  0  0  0  0  0  0  0  0  0  0
   32.8374   27.7564   45.1030 H   0  0  0  0  0  0  0  0  0  0  0  0
   38.2333   33.8210   50.3720 H   0  0  0  0  0  0  0  0  0  0  0  0
   39.7766   33.9871   48.4100 H   0  0  0  0  0  0  0  0  0  0  0  0
   39.4618   32.3086   46.5020 H   0  0  0  0  0  0  0  0  0  0  0  0
  1  2  2  0
  3  2  1  0
  4  3  2  0
  5  4  1  0
  6  5  2  0
  6  1  1  0
  7  5  1  0
  8  7  1  0
  9  8  1  0
  9 10  1  0
 11 10  1  0
 12 11  1  0
 12  7  1  0
 13 18  2  0
 14 13  1  0
 15 16  1  0
 15 14  2  0
 16 17  2  0
 17  1  1  0
 17 18  1  0
  2 19  1  0
  3 20  1  0
  8 21  1  0
  8 22  1  0
  9 23  1  0
  9 24  1  0
 10 25  1  0
 10 26  1  0
 11 27  1  0
 11 28  1  0
 12 29  1  0
 12 30  1  0
 13 31  1  0
 14 32  1  0
 15 33  1  0
M  ISO  8  19  14  20  14  21  13  22  13  23  13  24  13  25  13  26  13
M  ISO  7  27  13  28  13  29  13  30  13  31  14  32  14  33  14
M  END
>  <minimizedAffinity>  (1) 
-5.32138491

>  <minimizedRMSD>  (1) 
0.291920036

$$$$
