
     RDKit          3D

 25 27  0  0  0  0  0  0  0  0999 V2000
   35.9970   30.2820   48.6510 C   0  0  0  0  0  0  0  0  0  0  0  0
   35.9040   29.3910   49.6640 C   0  0  0  0  0  0  0  0  0  0  0  0
   34.9190   28.4460   49.6580 C   0  0  0  0  0  0  0  0  0  0  0  0
   34.0320   28.4130   48.6160 N   0  0  0  0  0  0  0  0  0  0  0  0
   34.1490   29.3050   47.6300 C   0  0  0  0  0  0  0  0  0  0  0  0
   35.1240   30.2440   47.6320 N   0  0  0  0  0  0  0  0  0  0  0  0
   38.1140   33.1700   49.5110 C   0  0  0  0  0  0  0  0  0  0  0  0
   39.0200   33.2200   48.4500 C   0  0  0  0  0  0  0  0  0  0  0  0
   38.8910   32.2520   47.4430 C   0  0  0  0  0  0  0  0  0  0  0  0
   37.9050   31.3360   47.5600 N   0  0  0  0  0  0  0  0  0  0  0  0
   37.0370   31.3150   48.6100 C   0  0  0  0  0  0  0  0  0  0  0  0
   37.1440   32.2400   49.5910 N   0  0  0  0  0  0  0  0  0  0  0  0
   33.2010   29.3150   46.4610 C   0  0  0  0  0  0  0  0  0  0  0  0
   32.6290   30.6550   46.0590 C   0  0  0  0  0  0  0  0  0  0  0  0
   33.6420   29.9170   45.1920 C   0  0  0  0  0  0  0  0  0  0  0  0
   36.6239   29.4278   50.4949 H   0  0  0  0  0  0  0  0  0  0  0  0
   34.8390   27.7199   50.4804 H   0  0  0  0  0  0  0  0  0  0  0  0
   38.1959   33.9192   50.3123 H   0  0  0  0  0  0  0  0  0  0  0  0
   39.8051   33.9892   48.4054 H   0  0  0  0  0  0  0  0  0  0  0  0
   39.5744   32.2391   46.5811 H   0  0  0  0  0  0  0  0  0  0  0  0
   32.7816   28.3339   46.7284 H   0  0  0  0  0  0  0  0  0  0  0  0
   31.5798   30.7376   45.7391 H   0  0  0  0  0  0  0  0  0  0  0  0
   32.5602   31.6530   46.5164 H   0  0  0  0  0  0  0  0  0  0  0  0
   33.3262   29.4741   44.2359 H   0  0  0  0  0  0  0  0  0  0  0  0
   34.6181   30.1723   44.7538 H   0  0  0  0  0  0  0  0  0  0  0  0
  1  2  2  0
  3  2  1  0
  4  3  2  0
  5  6  2  0
  5  4  1  0
  6  1  1  0
  7 12  2  0
  8  7  1  0
  9 10  1  0
  9  8  2  0
 10 11  2  0
 11  1  1  0
 11 12  1  0
 13  5  1  0
 14 13  1  0
 15 14  1  0
 15 13  1  0
  2 16  1  0
  3 17  1  0
  7 18  1  0
  8 19  1  0
  9 20  1  0
 13 21  1  0
 14 22  1  0
 14 23  1  0
 15 24  1  0
 15 25  1  0
M  ISO  8  16  14  17  14  18  14  19  14  20  14  21  13  22  13  23  13
M  ISO  2  24  13  25  13
M  END
>  <minimizedAffinity>  (1) 
-4.6989975

>  <minimizedRMSD>  (1) 
0.486792445

$$$$
