
     RDKit          3D

 24 25  0  0  0  0  0  0  0  0999 V2000
   35.9320   30.1940   48.6560 C   0  0  0  0  0  0  0  0  0  0  0  0
   35.8420   29.3300   49.6930 C   0  0  0  0  0  0  0  0  0  0  0  0
   34.8450   28.3960   49.6970 C   0  0  0  0  0  0  0  0  0  0  0  0
   33.9510   28.3420   48.6610 N   0  0  0  0  0  0  0  0  0  0  0  0
   34.0680   29.2090   47.6540 C   0  0  0  0  0  0  0  0  0  0  0  0
   35.0470   30.1390   47.6340 N   0  0  0  0  0  0  0  0  0  0  0  0
   38.0800   33.0700   49.4540 C   0  0  0  0  0  0  0  0  0  0  0  0
   38.9480   33.1280   48.3650 C   0  0  0  0  0  0  0  0  0  0  0  0
   38.7840   32.1640   47.3520 C   0  0  0  0  0  0  0  0  0  0  0  0
   37.7930   31.2410   47.5020 N   0  0  0  0  0  0  0  0  0  0  0  0
   36.9730   31.2250   48.5790 C   0  0  0  0  0  0  0  0  0  0  0  0
   37.1220   32.1430   49.5520 N   0  0  0  0  0  0  0  0  0  0  0  0
   33.1430   29.2250   46.4880 C   0  0  0  0  0  0  0  0  0  0  0  0
   32.7270   30.6330   46.1250 C   0  0  0  0  0  0  0  0  0  0  0  0
   36.5626   29.3789   50.5227 H   0  0  0  0  0  0  0  0  0  0  0  0
   34.7602   27.6865   50.5333 H   0  0  0  0  0  0  0  0  0  0  0  0
   38.1869   33.8116   50.2594 H   0  0  0  0  0  0  0  0  0  0  0  0
   39.7313   33.8975   48.2995 H   0  0  0  0  0  0  0  0  0  0  0  0
   39.4362   32.1562   46.4662 H   0  0  0  0  0  0  0  0  0  0  0  0
   33.6494   28.7689   45.6246 H   0  0  0  0  0  0  0  0  0  0  0  0
   32.2395   28.6588   46.7585 H   0  0  0  0  0  0  0  0  0  0  0  0
   32.5556   31.2131   47.0438 H   0  0  0  0  0  0  0  0  0  0  0  0
   33.5227   31.1095   45.5336 H   0  0  0  0  0  0  0  0  0  0  0  0
   31.8001   30.6005   45.5336 H   0  0  0  0  0  0  0  0  0  0  0  0
  1  2  2  0
  2  3  1  0
  4  3  2  0
  5  4  1  0
  6  5  2  0
  6  1  1  0
  7 12  2  0
  8  7  1  0
  9 10  1  0
  9  8  2  0
 10 11  2  0
 11  1  1  0
 11 12  1  0
 13  5  1  0
 14 13  1  0
  2 15  1  0
  3 16  1  0
  7 17  1  0
  8 18  1  0
  9 19  1  0
 13 20  1  0
 13 21  1  0
 14 22  1  0
 14 23  1  0
 14 24  1  0
M  ISO  8  15  14  16  14  17  14  18  14  19  14  20   8  21   8  22   8
M  ISO  2  23   8  24   8
M  END
>  <minimizedAffinity>  (1) 
-4.52271795

>  <minimizedRMSD>  (1) 
0.203086361

$$$$
