
     RDKit          3D

 23 25  0  0  0  0  0  0  0  0999 V2000
   37.4640   30.2040   50.6950 C   0  0  0  0  0  0  0  0  0  0  0  0
   38.0760   31.2880   49.9970 C   0  0  0  0  0  0  0  0  0  0  0  0
   37.4750   31.6330   48.7720 C   0  0  0  0  0  0  0  0  0  0  0  0
   36.3970   30.9460   48.3410 N   0  0  0  0  0  0  0  0  0  0  0  0
   35.8580   29.9290   49.0400 C   0  0  0  0  0  0  0  0  0  0  0  0
   36.3970   29.5690   50.2080 N   0  0  0  0  0  0  0  0  0  0  0  0
   34.7200   29.1930   48.6000 N   0  0  0  0  0  0  0  0  0  0  0  0
   34.4480   28.0070   49.1720 C   0  0  0  0  0  0  0  0  0  0  0  0
   33.3310   27.5290   48.5770 N   0  0  0  0  0  0  0  0  0  0  0  0
   32.9220   28.4210   47.6420 C   0  0  0  0  0  0  0  0  0  0  0  0
   31.8700   28.5030   46.7220 C   0  0  0  0  0  0  0  0  0  0  0  0
   31.7700   29.5760   45.9170 N   0  0  0  0  0  0  0  0  0  0  0  0
   32.6680   30.5750   45.9840 C   0  0  0  0  0  0  0  0  0  0  0  0
   33.7180   30.5610   46.8560 N   0  0  0  0  0  0  0  0  0  0  0  0
   33.8140   29.4860   47.6570 C   0  0  0  0  0  0  0  0  0  0  0  0
   37.9860   29.7540   51.9630 N   0  0  0  0  0  0  0  0  0  0  0  0
   38.9568   31.8174   50.3894 H   0  0  0  0  0  0  0  0  0  0  0  0
   37.8821   32.4583   48.1693 H   0  0  0  0  0  0  0  0  0  0  0  0
   35.0241   27.5184   49.9716 H   0  0  0  0  0  0  0  0  0  0  0  0
   31.1282   27.6933   46.6577 H   0  0  0  0  0  0  0  0  0  0  0  0
   32.5518   31.4366   45.3101 H   0  0  0  0  0  0  0  0  0  0  0  0
   37.5351   28.9705   52.4567 H   0  0  0  0  0  0  0  0  0  0  0  0
   38.8094   30.2163   52.3742 H   0  0  0  0  0  0  0  0  0  0  0  0
  1 16  1  0
  2  1  2  0
  3  2  1  0
  4  3  2  0
  4  5  1  0
  5  6  2  0
  6  1  1  0
  7  5  1  0
  7  8  1  0
  9  8  2  0
 10 15  2  0
 10  9  1  0
 11 10  1  0
 12 13  1  0
 12 11  2  0
 13 14  2  0
 14 15  1  0
 15  7  1  0
  2 17  1  0
  3 18  1  0
  8 19  1  0
 11 20  1  0
 13 21  1  0
 16 22  1  0
 16 23  1  0
M  ISO  5  17  14  18  14  19  14  20  14  21  14
M  END
>  <minimizedAffinity>  (1) 
-5.28873634

>  <minimizedRMSD>  (1) 
1.04743612

$$$$
