
     RDKit          3D

 22 23  0  0  0  0  0  0  0  0999 V2000
   37.5720   30.2110   50.7910 C   0  0  0  0  0  0  0  0  0  0  0  0
   38.2720   31.2670   50.1540 C   0  0  0  0  0  0  0  0  0  0  0  0
   37.7820   31.6630   48.9090 C   0  0  0  0  0  0  0  0  0  0  0  0
   36.6880   31.0300   48.3900 N   0  0  0  0  0  0  0  0  0  0  0  0
   36.0590   30.0370   49.0280 C   0  0  0  0  0  0  0  0  0  0  0  0
   36.5040   29.6340   50.2220 N   0  0  0  0  0  0  0  0  0  0  0  0
   34.8940   29.4000   48.4190 C   0  0  0  0  0  0  0  0  0  0  0  0
   34.2430   29.9940   47.3620 C   0  0  0  0  0  0  0  0  0  0  0  0
   33.1370   29.3690   46.8000 C   0  0  0  0  0  0  0  0  0  0  0  0
   32.6570   28.1610   47.2630 C   0  0  0  0  0  0  0  0  0  0  0  0
   33.3300   27.5890   48.3250 C   0  0  0  0  0  0  0  0  0  0  0  0
   34.4170   28.1780   48.8970 C   0  0  0  0  0  0  0  0  0  0  0  0
   37.9840   29.7200   52.0720 N   0  0  0  0  0  0  0  0  0  0  0  0
   39.1492   31.7455   50.6140 H   0  0  0  0  0  0  0  0  0  0  0  0
   38.2709   32.4756   48.3517 H   0  0  0  0  0  0  0  0  0  0  0  0
   34.5960   30.9571   46.9649 H   0  0  0  0  0  0  0  0  0  0  0  0
   32.6256   29.8544   45.9557 H   0  0  0  0  0  0  0  0  0  0  0  0
   31.7803   27.6767   46.8081 H   0  0  0  0  0  0  0  0  0  0  0  0
   32.9765   26.6260   48.7220 H   0  0  0  0  0  0  0  0  0  0  0  0
   34.9226   27.6872   49.7417 H   0  0  0  0  0  0  0  0  0  0  0  0
   37.4643   28.9522   52.5207 H   0  0  0  0  0  0  0  0  0  0  0  0
   38.8000   30.1347   52.5444 H   0  0  0  0  0  0  0  0  0  0  0  0
  1 13  1  0
  2  1  2  0
  3  2  1  0
  4  3  2  0
  4  5  1  0
  5  6  2  0
  6  1  1  0
  7 12  1  0
  7  5  1  0
  8  7  2  0
  9 10  2  0
  9  8  1  0
 10 11  1  0
 11 12  2  0
  2 14  1  0
  3 15  1  0
  8 16  1  0
  9 17  1  0
 10 18  1  0
 11 19  1  0
 12 20  1  0
 13 21  1  0
 13 22  1  0
M  ISO  7  14  14  15  14  16  14  17  14  18  14  19  14  20  14
M  END
>  <minimizedAffinity>  (1) 
-5.0013833

>  <minimizedRMSD>  (1) 
1.06778514

$$$$
