
     RDKit          3D

 22 23  0  0  0  0  0  0  0  0999 V2000
   37.5030   30.1760   50.8380 C   0  0  0  0  0  0  0  0  0  0  0  0
   38.1040   31.3210   50.2390 C   0  0  0  0  0  0  0  0  0  0  0  0
   37.5560   31.7720   49.0340 C   0  0  0  0  0  0  0  0  0  0  0  0
   36.4990   31.0960   48.5220 N   0  0  0  0  0  0  0  0  0  0  0  0
   35.9480   30.0240   49.0990 C   0  0  0  0  0  0  0  0  0  0  0  0
   36.4640   29.5780   50.2580 N   0  0  0  0  0  0  0  0  0  0  0  0
   35.8490   30.2280   46.1670 Cl  0  0  0  0  0  0  0  0  0  0  0  0
   34.6710   29.3570   47.1270 C   0  0  0  0  0  0  0  0  0  0  0  0
   34.8030   29.3170   48.5160 C   0  0  0  0  0  0  0  0  0  0  0  0
   33.9040   28.6460   49.3230 C   0  0  0  0  0  0  0  0  0  0  0  0
   32.8150   27.9760   48.7530 C   0  0  0  0  0  0  0  0  0  0  0  0
   32.7270   28.0430   47.3780 C   0  0  0  0  0  0  0  0  0  0  0  0
   33.5950   28.6970   46.5410 C   0  0  0  0  0  0  0  0  0  0  0  0
   37.9910   29.6360   52.0710 N   0  0  0  0  0  0  0  0  0  0  0  0
   38.9620   31.8282   50.7044 H   0  0  0  0  0  0  0  0  0  0  0  0
   37.9708   32.6498   48.5169 H   0  0  0  0  0  0  0  0  0  0  0  0
   34.0442   28.6383   50.4140 H   0  0  0  0  0  0  0  0  0  0  0  0
   32.0778   27.4318   49.3616 H   0  0  0  0  0  0  0  0  0  0  0  0
   31.8798   27.5222   46.9078 H   0  0  0  0  0  0  0  0  0  0  0  0
   33.4466   28.6997   45.4511 H   0  0  0  0  0  0  0  0  0  0  0  0
   37.5401   28.8075   52.4847 H   0  0  0  0  0  0  0  0  0  0  0  0
   38.7930   30.0761   52.5443 H   0  0  0  0  0  0  0  0  0  0  0  0
  1 14  1  0
  2  1  2  0
  3  2  1  0
  4  3  2  0
  4  5  1  0
  5  6  2  0
  6  1  1  0
  7  8  1  0
  8  9  2  0
  9  5  1  0
  9 10  1  0
 11 10  2  0
 12 11  1  0
 13  8  1  0
 13 12  2  0
  2 15  1  0
  3 16  1  0
 10 17  1  0
 11 18  1  0
 12 19  1  0
 13 20  1  0
 14 21  1  0
 14 22  1  0
M  ISO  6  15  14  16  14  17  14  18  14  19  14  20  14
M  END
>  <minimizedAffinity>  (1) 
-4.99528503

>  <minimizedRMSD>  (1) 
1.04813945

$$$$
