
     RDKit          3D

 20 21  0  0  0  0  0  0  0  0999 V2000
   37.4950   30.2730   50.7650 C   0  0  0  0  0  0  0  0  0  0  0  0
   38.2760   31.2540   50.1050 C   0  0  0  0  0  0  0  0  0  0  0  0
   37.8370   31.6530   48.8430 C   0  0  0  0  0  0  0  0  0  0  0  0
   36.7120   31.0920   48.3310 N   0  0  0  0  0  0  0  0  0  0  0  0
   35.9970   30.1670   48.9830 C   0  0  0  0  0  0  0  0  0  0  0  0
   36.3940   29.7670   50.1900 N   0  0  0  0  0  0  0  0  0  0  0  0
   34.7990   29.5990   48.3870 C   0  0  0  0  0  0  0  0  0  0  0  0
   34.1930   28.4940   48.9470 C   0  0  0  0  0  0  0  0  0  0  0  0
   33.0550   27.9540   48.3810 C   0  0  0  0  0  0  0  0  0  0  0  0
   32.5100   28.4950   47.2700 N   0  0  0  0  0  0  0  0  0  0  0  0
   33.1250   29.5850   46.7360 C   0  0  0  0  0  0  0  0  0  0  0  0
   34.2380   30.1200   47.2810 N   0  0  0  0  0  0  0  0  0  0  0  0
   37.8390   29.7770   52.0700 N   0  0  0  0  0  0  0  0  0  0  0  0
   39.1810   31.6785   50.5640 H   0  0  0  0  0  0  0  0  0  0  0  0
   38.3936   32.4104   48.2715 H   0  0  0  0  0  0  0  0  0  0  0  0
   34.6200   28.0386   49.8527 H   0  0  0  0  0  0  0  0  0  0  0  0
   32.5862   27.0716   48.8411 H   0  0  0  0  0  0  0  0  0  0  0  0
   32.7015   30.0450   45.8310 H   0  0  0  0  0  0  0  0  0  0  0  0
   37.2493   29.0634   52.5217 H   0  0  0  0  0  0  0  0  0  0  0  0
   38.6751   30.1352   52.5532 H   0  0  0  0  0  0  0  0  0  0  0  0
  1 13  1  0
  2  1  2  0
  3  2  1  0
  4  3  2  0
  4  5  1  0
  5  6  2  0
  6  1  1  0
  7  8  2  0
  7  5  1  0
  9  8  1  0
 10  9  2  0
 11 10  1  0
 11 12  2  0
 12  7  1  0
  2 14  1  0
  3 15  1  0
  8 16  1  0
  9 17  1  0
 11 18  1  0
 13 19  1  0
 13 20  1  0
M  ISO  5  14  14  15  14  16  14  17  14  18  14
M  END
>  <minimizedAffinity>  (1) 
-4.64427996

>  <minimizedRMSD>  (1) 
1.32661259

$$$$
