
     RDKit          3D

 19 20  0  0  0  0  0  0  0  0999 V2000
   37.5670   30.1450   50.7880 C   0  0  0  0  0  0  0  0  0  0  0  0
   38.2240   31.1720   50.0770 C   0  0  0  0  0  0  0  0  0  0  0  0
   37.7500   31.5130   48.8120 C   0  0  0  0  0  0  0  0  0  0  0  0
   36.6770   30.8320   48.3380 N   0  0  0  0  0  0  0  0  0  0  0  0
   36.0690   29.8620   49.0280 C   0  0  0  0  0  0  0  0  0  0  0  0
   36.5030   29.5190   50.2390 N   0  0  0  0  0  0  0  0  0  0  0  0
   34.9130   29.1540   48.4770 C   0  0  0  0  0  0  0  0  0  0  0  0
   34.3520   28.0150   48.8770 C   0  0  0  0  0  0  0  0  0  0  0  0
   33.2580   27.5070   48.2190 C   0  0  0  0  0  0  0  0  0  0  0  0
   32.8130   28.2740   47.1340 C   0  0  0  0  0  0  0  0  0  0  0  0
   33.9850   29.6910   47.1040 S   0  0  0  0  0  0  0  0  0  0  0  0
   37.9880   29.7320   52.0930 N   0  0  0  0  0  0  0  0  0  0  0  0
   39.0907   31.6915   50.5117 H   0  0  0  0  0  0  0  0  0  0  0  0
   38.2288   32.3061   48.2189 H   0  0  0  0  0  0  0  0  0  0  0  0
   34.7676   27.4762   49.7413 H   0  0  0  0  0  0  0  0  0  0  0  0
   32.7686   26.5693   48.5210 H   0  0  0  0  0  0  0  0  0  0  0  0
   31.9655   28.0760   46.4612 H   0  0  0  0  0  0  0  0  0  0  0  0
   37.4842   28.9785   52.5822 H   0  0  0  0  0  0  0  0  0  0  0  0
   38.7946   30.1884   52.5424 H   0  0  0  0  0  0  0  0  0  0  0  0
  1 12  1  0
  2  1  2  0
  3  2  1  0
  4  3  2  0
  4  5  1  0
  5  6  2  0
  6  1  1  0
  7  8  2  0
  7  5  1  0
  9  8  1  0
 10  9  2  0
 11 10  1  0
 11  7  1  0
  2 13  1  0
  3 14  1  0
  8 15  1  0
  9 16  1  0
 10 17  1  0
 12 18  1  0
 12 19  1  0
M  ISO  5  13  14  14  14  15  14  16  14  17  14
M  END
>  <minimizedAffinity>  (1) 
-4.52410412

>  <minimizedRMSD>  (1) 
0.953116

$$$$
