
     RDKit          3D

 19 20  0  0  0  0  0  0  0  0999 V2000
   37.4850   30.1670   50.9710 C   0  0  0  0  0  0  0  0  0  0  0  0
   38.2000   31.1120   50.1860 C   0  0  0  0  0  0  0  0  0  0  0  0
   37.6040   31.5330   49.0010 C   0  0  0  0  0  0  0  0  0  0  0  0
   36.3900   31.0200   48.6710 N   0  0  0  0  0  0  0  0  0  0  0  0
   35.7380   30.1300   49.4310 C   0  0  0  0  0  0  0  0  0  0  0  0
   36.2920   29.7150   50.5680 N   0  0  0  0  0  0  0  0  0  0  0  0
   38.0070   29.6620   52.2170 N   0  0  0  0  0  0  0  0  0  0  0  0
   34.4000   29.5970   49.0210 C   0  0  0  0  0  0  0  0  0  0  0  0
   34.1110   28.1610   49.0330 C   0  0  0  0  0  0  0  0  0  0  0  0
   34.4080   28.8550   47.6920 C   0  0  0  0  0  0  0  0  0  0  0  0
   39.1821   31.4941   50.5016 H   0  0  0  0  0  0  0  0  0  0  0  0
   38.1036   32.2633   48.3475 H   0  0  0  0  0  0  0  0  0  0  0  0
   37.4645   28.9776   52.7630 H   0  0  0  0  0  0  0  0  0  0  0  0
   38.9223   29.9858   52.5609 H   0  0  0  0  0  0  0  0  0  0  0  0
   33.8647   30.4455   49.4721 H   0  0  0  0  0  0  0  0  0  0  0  0
   34.8421   27.4588   49.4600 H   0  0  0  0  0  0  0  0  0  0  0  0
   33.2870   27.5417   49.4169 H   0  0  0  0  0  0  0  0  0  0  0  0
   33.6049   29.0170   46.9580 H   0  0  0  0  0  0  0  0  0  0  0  0
   35.1202   28.7140   46.8656 H   0  0  0  0  0  0  0  0  0  0  0  0
  1  7  1  0
  2  1  2  0
  3  2  1  0
  4  3  2  0
  4  5  1  0
  5  6  2  0
  6  1  1  0
  8  9  1  0
  8  5  1  0
 10  8  1  0
 10  9  1  0
  2 11  1  0
  3 12  1  0
  7 13  1  0
  7 14  1  0
  8 15  1  0
  9 16  1  0
  9 17  1  0
 10 18  1  0
 10 19  1  0
M  ISO  7  11  14  12  14  15  13  16  13  17  13  18  13  19  13
M  END
>  <minimizedAffinity>  (1) 
-4.17428541

>  <minimizedRMSD>  (1) 
1.06574345

$$$$
