
     RDKit          3D

 13 13  0  0  0  0  0  0  0  0999 V2000
   37.3470   30.0140   50.8210 C   0  0  0  0  0  0  0  0  0  0  0  0
   37.7350   31.1780   50.0970 C   0  0  0  0  0  0  0  0  0  0  0  0
   37.0530   31.4020   48.8900 C   0  0  0  0  0  0  0  0  0  0  0  0
   36.1000   30.5340   48.4970 N   0  0  0  0  0  0  0  0  0  0  0  0
   35.7600   29.4500   49.2010 C   0  0  0  0  0  0  0  0  0  0  0  0
   36.3950   29.2040   50.3640 N   0  0  0  0  0  0  0  0  0  0  0  0
   37.9660   29.6670   52.0710 N   0  0  0  0  0  0  0  0  0  0  0  0
   34.4950   28.3050   48.6700 S   0  0  0  0  0  0  0  0  0  0  0  0
   38.5193   31.8583   50.4605 H   0  0  0  0  0  0  0  0  0  0  0  0
   37.2946   32.2784   48.2707 H   0  0  0  0  0  0  0  0  0  0  0  0
   37.6679   28.8200   52.5757 H   0  0  0  0  0  0  0  0  0  0  0  0
   38.7076   30.2653   52.4620 H   0  0  0  0  0  0  0  0  0  0  0  0
   33.8872   27.7548   49.7676 H   0  0  0  0  0  0  0  0  0  0  0  0
  1  7  1  0
  2  1  2  0
  3  2  1  0
  4  3  2  0
  4  5  1  0
  5  6  2  0
  6  1  1  0
  8  5  1  0
  2  9  1  0
  3 10  1  0
  7 11  1  0
  7 12  1  0
  8 13  1  0
M  ISO  3   9  14  10  14  13  11
M  END
>  <minimizedAffinity>  (1) 
-3.4677434

>  <minimizedRMSD>  (1) 
0.253011167

$$$$
