
     RDKit          3D

 35 38  0  0  0  0  0  0  0  0999 V2000
   34.7570   29.1850   48.3320 C   0  0  0  0  0  0  0  0  0  0  0  0
   34.4980   27.9100   48.7230 C   0  0  0  0  0  0  0  0  0  0  0  0
   33.4060   27.3460   48.1110 C   0  0  0  0  0  0  0  0  0  0  0  0
   32.6280   27.9920   47.1860 C   0  0  0  0  0  0  0  0  0  0  0  0
   32.9590   29.3070   46.8340 C   0  0  0  0  0  0  0  0  0  0  0  0
   34.0170   29.8400   47.4320 N   0  0  0  0  0  0  0  0  0  0  0  0
   32.0570   29.8780   45.8460 C   0  0  0  0  0  0  0  0  0  0  0  0
   32.5050   30.5350   44.7640 N   0  0  0  0  0  0  0  0  0  0  0  0
   31.7210   31.0780   43.8280 C   0  0  0  0  0  0  0  0  0  0  0  0
   30.3880   31.0190   43.8780 N   0  0  0  0  0  0  0  0  0  0  0  0
   29.8430   30.3770   44.9330 C   0  0  0  0  0  0  0  0  0  0  0  0
   28.4740   30.2970   45.0190 C   0  0  0  0  0  0  0  0  0  0  0  0
   27.8600   29.6510   46.0780 C   0  0  0  0  0  0  0  0  0  0  0  0
   28.7040   29.0930   47.0420 C   0  0  0  0  0  0  0  0  0  0  0  0
   30.0510   29.2020   46.9070 C   0  0  0  0  0  0  0  0  0  0  0  0
   30.6850   29.8320   45.8750 C   0  0  0  0  0  0  0  0  0  0  0  0
   37.3530   30.2590   50.6940 C   0  0  0  0  0  0  0  0  0  0  0  0
   37.9730   31.3350   50.0120 C   0  0  0  0  0  0  0  0  0  0  0  0
   37.4860   31.6690   48.7510 C   0  0  0  0  0  0  0  0  0  0  0  0
   36.4590   30.9520   48.2570 N   0  0  0  0  0  0  0  0  0  0  0  0
   35.8780   29.9420   48.8960 C   0  0  0  0  0  0  0  0  0  0  0  0
   36.3470   29.6070   50.1310 N   0  0  0  0  0  0  0  0  0  0  0  0
   37.7890   29.8580   51.9820 N   0  0  0  0  0  0  0  0  0  0  0  0
   35.1097   27.3761   49.4651 H   0  0  0  0  0  0  0  0  0  0  0  0
   33.1394   26.3131   48.3794 H   0  0  0  0  0  0  0  0  0  0  0  0
   31.7626   27.4890   46.7299 H   0  0  0  0  0  0  0  0  0  0  0  0
   32.1938   31.5956   42.9803 H   0  0  0  0  0  0  0  0  0  0  0  0
   27.8554   30.7542   44.2327 H   0  0  0  0  0  0  0  0  0  0  0  0
   26.7651   29.5805   46.1567 H   0  0  0  0  0  0  0  0  0  0  0  0
   28.2780   28.5664   47.9087 H   0  0  0  0  0  0  0  0  0  0  0  0
   30.6786   28.7484   47.6882 H   0  0  0  0  0  0  0  0  0  0  0  0
   38.8103   31.8876   50.4632 H   0  0  0  0  0  0  0  0  0  0  0  0
   37.9278   32.4953   48.1747 H   0  0  0  0  0  0  0  0  0  0  0  0
   37.3252   29.0732   52.4615 H   0  0  0  0  0  0  0  0  0  0  0  0
   38.5695   30.3515   52.4383 H   0  0  0  0  0  0  0  0  0  0  0  0
  1  2  2  0
  1 21  1  0
  3  2  1  0
  4  3  2  0
  5  4  1  0
  5  6  2  0
  6  1  1  0
  7 16  1  0
  7  5  1  0
  8  7  2  0
  9 10  2  0
  9  8  1  0
 10 11  1  0
 11 12  1  0
 11 16  2  0
 12 13  2  0
 13 14  1  0
 15 14  2  0
 16 15  1  0
 17 23  1  0
 18 17  2  0
 19 18  1  0
 20 19  2  0
 20 21  1  0
 21 22  2  0
 22 17  1  0
  2 24  1  0
  3 25  1  0
  4 26  1  0
  9 27  1  0
 12 28  1  0
 13 29  1  0
 14 30  1  0
 15 31  1  0
 18 32  1  0
 19 33  1  0
 23 34  1  0
 23 35  1  0
M  ISO  8  24  14  25  14  26  14  27  14  28  14  29  14  30  14  31  14
M  ISO  2  32  14  33  14
M  END
>  <minimizedAffinity>  (1) 
-5.88085127

>  <minimizedRMSD>  (1) 
0.940800488

$$$$
