
     RDKit          3D

 31 33  0  0  0  0  0  0  0  0999 V2000
   34.7330   29.2060   48.3400 C   0  0  0  0  0  0  0  0  0  0  0  0
   34.4890   27.9210   48.7390 C   0  0  0  0  0  0  0  0  0  0  0  0
   33.4130   27.3370   48.1100 C   0  0  0  0  0  0  0  0  0  0  0  0
   32.6420   27.9890   47.1560 C   0  0  0  0  0  0  0  0  0  0  0  0
   32.9720   29.2860   46.8240 C   0  0  0  0  0  0  0  0  0  0  0  0
   34.0070   29.8770   47.4160 N   0  0  0  0  0  0  0  0  0  0  0  0
   29.9300   29.0780   47.0310 Cl  0  0  0  0  0  0  0  0  0  0  0  0
   30.8210   29.9930   45.8420 C   0  0  0  0  0  0  0  0  0  0  0  0
   32.2010   30.0250   45.8280 C   0  0  0  0  0  0  0  0  0  0  0  0
   32.7530   30.7940   44.8270 C   0  0  0  0  0  0  0  0  0  0  0  0
   32.0300   31.4890   43.8900 C   0  0  0  0  0  0  0  0  0  0  0  0
   30.6530   31.4300   43.9370 C   0  0  0  0  0  0  0  0  0  0  0  0
   30.0520   30.6760   44.9210 C   0  0  0  0  0  0  0  0  0  0  0  0
   28.3020   30.6300   44.9430 Cl  0  0  0  0  0  0  0  0  0  0  0  0
   37.3510   30.2740   50.6950 C   0  0  0  0  0  0  0  0  0  0  0  0
   37.9690   31.3340   50.0130 C   0  0  0  0  0  0  0  0  0  0  0  0
   37.4660   31.6670   48.7400 C   0  0  0  0  0  0  0  0  0  0  0  0
   36.4270   30.9430   48.2650 N   0  0  0  0  0  0  0  0  0  0  0  0
   35.8550   29.9390   48.9320 C   0  0  0  0  0  0  0  0  0  0  0  0
   36.3310   29.6160   50.1510 N   0  0  0  0  0  0  0  0  0  0  0  0
   37.7960   29.8760   51.9840 N   0  0  0  0  0  0  0  0  0  0  0  0
   35.0973   27.4014   49.4939 H   0  0  0  0  0  0  0  0  0  0  0  0
   33.1505   26.3024   48.3760 H   0  0  0  0  0  0  0  0  0  0  0  0
   31.7901   27.4836   46.6777 H   0  0  0  0  0  0  0  0  0  0  0  0
   33.8501   30.8553   44.7751 H   0  0  0  0  0  0  0  0  0  0  0  0
   32.5393   32.0820   43.1161 H   0  0  0  0  0  0  0  0  0  0  0  0
   30.0446   31.9760   43.2010 H   0  0  0  0  0  0  0  0  0  0  0  0
   38.8132   31.8832   50.4554 H   0  0  0  0  0  0  0  0  0  0  0  0
   37.9032   32.4877   48.1524 H   0  0  0  0  0  0  0  0  0  0  0  0
   37.3317   29.0962   52.4711 H   0  0  0  0  0  0  0  0  0  0  0  0
   38.5829   30.3672   52.4316 H   0  0  0  0  0  0  0  0  0  0  0  0
  1  2  2  0
  1 19  1  0
  3  2  1  0
  4  3  2  0
  5  4  1  0
  5  6  2  0
  6  1  1  0
  8  7  1  0
  9  8  2  0
  9  5  1  0
 10  9  1  0
 11 12  1  0
 11 10  2  0
 12 13  2  0
 13 14  1  0
 13  8  1  0
 15 21  1  0
 16 15  2  0
 17 16  1  0
 18 17  2  0
 18 19  1  0
 19 20  2  0
 20 15  1  0
  2 22  1  0
  3 23  1  0
  4 24  1  0
 10 25  1  0
 11 26  1  0
 12 27  1  0
 16 28  1  0
 17 29  1  0
 21 30  1  0
 21 31  1  0
M  ISO  8  22  14  23  14  24  14  25  14  26  14  27  14  28  14  29  14
M  END
>  <minimizedAffinity>  (1) 
-5.64390564

>  <minimizedRMSD>  (1) 
0.838117599

$$$$
