
     RDKit          3D

 31 33  0  0  0  0  0  0  0  0999 V2000
   34.8060   29.2110   48.4320 C   0  0  0  0  0  0  0  0  0  0  0  0
   34.4740   27.9920   48.9300 C   0  0  0  0  0  0  0  0  0  0  0  0
   33.3760   27.4150   48.3220 C   0  0  0  0  0  0  0  0  0  0  0  0
   32.6730   28.0150   47.3000 C   0  0  0  0  0  0  0  0  0  0  0  0
   33.0770   29.2520   46.8540 C   0  0  0  0  0  0  0  0  0  0  0  0
   34.1430   29.8230   47.4370 N   0  0  0  0  0  0  0  0  0  0  0  0
   30.2600   29.8270   46.5300 F   0  0  0  0  0  0  0  0  0  0  0  0
   31.1180   30.2970   45.6310 C   0  0  0  0  0  0  0  0  0  0  0  0
   32.4510   30.0200   45.7910 C   0  0  0  0  0  0  0  0  0  0  0  0
   33.2440   30.5590   44.7980 C   0  0  0  0  0  0  0  0  0  0  0  0
   32.7520   31.3030   43.7460 C   0  0  0  0  0  0  0  0  0  0  0  0
   31.4030   31.5510   43.6350 C   0  0  0  0  0  0  0  0  0  0  0  0
   30.5730   31.0310   44.6050 C   0  0  0  0  0  0  0  0  0  0  0  0
   37.5100   30.2360   50.7020 C   0  0  0  0  0  0  0  0  0  0  0  0
   38.1040   31.3040   50.0240 C   0  0  0  0  0  0  0  0  0  0  0  0
   37.5700   31.6620   48.7930 C   0  0  0  0  0  0  0  0  0  0  0  0
   36.5140   30.9640   48.3200 N   0  0  0  0  0  0  0  0  0  0  0  0
   35.9540   29.9360   48.9900 C   0  0  0  0  0  0  0  0  0  0  0  0
   36.4690   29.5830   50.1890 N   0  0  0  0  0  0  0  0  0  0  0  0
   37.9830   29.7850   51.9810 N   0  0  0  0  0  0  0  0  0  0  0  0
   35.0303   27.5069   49.7456 H   0  0  0  0  0  0  0  0  0  0  0  0
   33.0459   26.4257   48.6717 H   0  0  0  0  0  0  0  0  0  0  0  0
   31.8041   27.5137   46.8487 H   0  0  0  0  0  0  0  0  0  0  0  0
   34.3290   30.3854   44.8485 H   0  0  0  0  0  0  0  0  0  0  0  0
   33.4438   31.7015   42.9893 H   0  0  0  0  0  0  0  0  0  0  0  0
   31.0006   32.1441   42.8005 H   0  0  0  0  0  0  0  0  0  0  0  0
   29.4873   31.2016   44.5583 H   0  0  0  0  0  0  0  0  0  0  0  0
   38.9637   31.8418   50.4501 H   0  0  0  0  0  0  0  0  0  0  0  0
   37.9972   32.4953   48.2158 H   0  0  0  0  0  0  0  0  0  0  0  0
   37.5203   28.9942   52.4516 H   0  0  0  0  0  0  0  0  0  0  0  0
   38.7849   30.2524   52.4276 H   0  0  0  0  0  0  0  0  0  0  0  0
  1  2  2  0
  1 18  1  0
  3  2  1  0
  4  3  2  0
  5  4  1  0
  5  6  2  0
  6  1  1  0
  8  9  2  0
  8  7  1  0
  9  5  1  0
 10  9  1  0
 11 10  2  0
 12 11  1  0
 12 13  2  0
 13  8  1  0
 14 20  1  0
 15 14  2  0
 16 15  1  0
 17 16  2  0
 17 18  1  0
 18 19  2  0
 19 14  1  0
  2 21  1  0
  3 22  1  0
  4 23  1  0
 10 24  1  0
 11 25  1  0
 12 26  1  0
 13 27  1  0
 15 28  1  0
 16 29  1  0
 20 30  1  0
 20 31  1  0
M  ISO  8  21  14  22  14  23  14  24  14  25  14  26  14  27  14  28  14
M  ISO  1  29  14
M  END
>  <minimizedAffinity>  (1) 
-5.58117914

>  <minimizedRMSD>  (1) 
0.223977685

$$$$
