
     RDKit          3D

 44 47  0  0  0  0  0  0  0  0999 V2000
   32.7050   30.4530   45.3880 C   0  0  0  0  0  0  0  0  0  0  0  0
   32.0980   29.1850   45.5440 C   0  0  0  0  0  0  0  0  0  0  0  0
   32.5720   28.1790   46.3200 C   0  0  0  0  0  0  0  0  0  0  0  0
   33.7010   28.3280   47.0230 C   0  0  0  0  0  0  0  0  0  0  0  0
   34.2930   29.5420   46.8790 C   0  0  0  0  0  0  0  0  0  0  0  0
   33.8010   30.5000   46.1150 N   0  0  0  0  0  0  0  0  0  0  0  0
   30.8810   31.9330   45.1490 C   0  0  0  0  0  0  0  0  0  0  0  0
   32.0840   31.4520   44.5340 C   0  0  0  0  0  0  0  0  0  0  0  0
   32.4190   31.9950   43.3290 C   0  0  0  0  0  0  0  0  0  0  0  0
   31.5870   32.9500   42.8030 N   0  0  0  0  0  0  0  0  0  0  0  0
   30.4720   33.3930   43.3790 C   0  0  0  0  0  0  0  0  0  0  0  0
   30.1290   32.8660   44.5670 N   0  0  0  0  0  0  0  0  0  0  0  0
   29.7540   34.3780   42.6930 N   0  0  0  0  0  0  0  0  0  0  0  0
   33.6270   31.5450   42.6580 C   0  0  0  0  0  0  0  0  0  0  0  0
   33.6260   30.2300   42.5810 F   0  0  0  0  0  0  0  0  0  0  0  0
   33.8200   32.0750   41.3940 F   0  0  0  0  0  0  0  0  0  0  0  0
   34.7940   31.9160   43.3870 F   0  0  0  0  0  0  0  0  0  0  0  0
   36.4380   30.7630   45.6220 F   0  0  0  0  0  0  0  0  0  0  0  0
   36.6100   30.4650   46.9570 C   0  0  0  0  0  0  0  0  0  0  0  0
   35.5470   29.8560   47.5970 C   0  0  0  0  0  0  0  0  0  0  0  0
   35.7660   29.5800   48.9230 C   0  0  0  0  0  0  0  0  0  0  0  0
   36.9460   29.8840   49.5600 C   0  0  0  0  0  0  0  0  0  0  0  0
   37.9650   30.4900   48.8650 C   0  0  0  0  0  0  0  0  0  0  0  0
   37.8080   30.7900   47.5450 C   0  0  0  0  0  0  0  0  0  0  0  0
   38.8800   31.4370   46.7770 C   0  0  0  0  0  0  0  0  0  0  0  0
   39.5710   30.6460   45.8620 C   0  0  0  0  0  0  0  0  0  0  0  0
   40.5940   31.1670   45.0950 C   0  0  0  0  0  0  0  0  0  0  0  0
   40.8900   32.5030   45.2860 C   0  0  0  0  0  0  0  0  0  0  0  0
   40.2290   33.3170   46.1820 C   0  0  0  0  0  0  0  0  0  0  0  0
   39.2030   32.7870   46.9490 C   0  0  0  0  0  0  0  0  0  0  0  0
   31.1655   28.9998   44.9908 H   0  0  0  0  0  0  0  0  0  0  0  0
   32.0214   27.2282   46.3723 H   0  0  0  0  0  0  0  0  0  0  0  0
   34.1144   27.5347   47.6631 H   0  0  0  0  0  0  0  0  0  0  0  0
   30.5727   31.5228   46.1220 H   0  0  0  0  0  0  0  0  0  0  0  0
   28.8839   34.7551   43.0951 H   0  0  0  0  0  0  0  0  0  0  0  0
   30.0954   34.7263   41.7858 H   0  0  0  0  0  0  0  0  0  0  0  0
   34.9646   29.0956   49.5002 H   0  0  0  0  0  0  0  0  0  0  0  0
   37.0743   29.6423   50.6254 H   0  0  0  0  0  0  0  0  0  0  0  0
   38.9088   30.7333   49.3750 H   0  0  0  0  0  0  0  0  0  0  0  0
   39.2966   29.5868   45.7484 H   0  0  0  0  0  0  0  0  0  0  0  0
   41.1448   30.5504   44.3695 H   0  0  0  0  0  0  0  0  0  0  0  0
   41.7012   32.9437   44.6878 H   0  0  0  0  0  0  0  0  0  0  0  0
   40.5127   34.3746   46.2868 H   0  0  0  0  0  0  0  0  0  0  0  0
   38.6580   33.4108   47.6728 H   0  0  0  0  0  0  0  0  0  0  0  0
  1  2  2  0
  1  6  1  0
  2  3  1  0
  3  4  2  0
  5  4  1  0
  5 20  1  0
  6  5  2  0
  8  7  2  0
  8  1  1  0
  9  8  1  0
 10  9  2  0
 10 11  1  0
 11 12  2  0
 12  7  1  0
 13 11  1  0
 14  9  1  0
 14 17  1  0
 15 14  1  0
 16 14  1  0
 18 19  1  0
 19 24  2  0
 19 20  1  0
 20 21  2  0
 21 22  1  0
 23 22  2  0
 24 23  1  0
 25 30  1  0
 25 24  1  0
 26 25  2  0
 27 28  2  0
 27 26  1  0
 28 29  1  0
 29 30  2  0
  2 31  1  0
  3 32  1  0
  4 33  1  0
  7 34  1  0
 13 35  1  0
 13 36  1  0
 21 37  1  0
 22 38  1  0
 23 39  1  0
 26 40  1  0
 27 41  1  0
 28 42  1  0
 29 43  1  0
 30 44  1  0
M  ISO  8  31  14  32  14  33  14  34  14  37  14  38  14  39  14  40  14
M  ISO  4  41  14  42  14  43  14  44  14
M  END
>  <minimizedAffinity>  (1) 
-6.76097536

>  <minimizedRMSD>  (1) 
4.26317024

$$$$
