
     RDKit          3D

 30 32  0  0  0  0  0  0  0  0999 V2000
   34.8720   29.2620   48.4560 C   0  0  0  0  0  0  0  0  0  0  0  0
   34.4730   28.0580   48.9530 C   0  0  0  0  0  0  0  0  0  0  0  0
   33.3620   27.5220   48.3390 C   0  0  0  0  0  0  0  0  0  0  0  0
   32.7050   28.1400   47.3110 C   0  0  0  0  0  0  0  0  0  0  0  0
   33.1740   29.3570   46.8650 C   0  0  0  0  0  0  0  0  0  0  0  0
   34.2650   29.9160   47.4460 N   0  0  0  0  0  0  0  0  0  0  0  0
   37.5740   30.1810   50.7800 C   0  0  0  0  0  0  0  0  0  0  0  0
   38.2460   31.2110   50.0860 C   0  0  0  0  0  0  0  0  0  0  0  0
   37.7540   31.5690   48.8280 C   0  0  0  0  0  0  0  0  0  0  0  0
   36.6790   30.9180   48.3540 N   0  0  0  0  0  0  0  0  0  0  0  0
   36.0460   29.9360   49.0290 C   0  0  0  0  0  0  0  0  0  0  0  0
   36.5110   29.5780   50.2500 N   0  0  0  0  0  0  0  0  0  0  0  0
   37.9850   29.7310   52.0730 N   0  0  0  0  0  0  0  0  0  0  0  0
   32.5570   30.1080   45.7790 C   0  0  0  0  0  0  0  0  0  0  0  0
   33.2530   30.5940   44.6960 C   0  0  0  0  0  0  0  0  0  0  0  0
   32.7080   31.3080   43.6490 C   0  0  0  0  0  0  0  0  0  0  0  0
   31.3550   31.5670   43.6690 C   0  0  0  0  0  0  0  0  0  0  0  0
   30.6520   31.0830   44.7510 C   0  0  0  0  0  0  0  0  0  0  0  0
   31.2370   30.3930   45.7450 N   0  0  0  0  0  0  0  0  0  0  0  0
   34.9962   27.5538   49.7789 H   0  0  0  0  0  0  0  0  0  0  0  0
   32.9856   26.5508   48.6925 H   0  0  0  0  0  0  0  0  0  0  0  0
   31.8209   27.6756   46.8498 H   0  0  0  0  0  0  0  0  0  0  0  0
   39.1238   31.7127   50.5194 H   0  0  0  0  0  0  0  0  0  0  0  0
   38.2354   32.3645   48.2403 H   0  0  0  0  0  0  0  0  0  0  0  0
   37.4663   28.9763   52.5446 H   0  0  0  0  0  0  0  0  0  0  0  0
   38.7998   30.1614   52.5331 H   0  0  0  0  0  0  0  0  0  0  0  0
   34.3346   30.3966   44.6623 H   0  0  0  0  0  0  0  0  0  0  0  0
   33.3377   31.6616   42.8193 H   0  0  0  0  0  0  0  0  0  0  0  0
   30.8617   32.1306   42.8634 H   0  0  0  0  0  0  0  0  0  0  0  0
   29.5691   31.2688   44.8032 H   0  0  0  0  0  0  0  0  0  0  0  0
  1  2  2  0
  1 11  1  0
  3  2  1  0
  4  3  2  0
  5  4  1  0
  5  6  2  0
  6  1  1  0
  7 13  1  0
  8  7  2  0
  9  8  1  0
 10  9  2  0
 10 11  1  0
 11 12  2  0
 12  7  1  0
 14  5  1  0
 15 14  2  0
 16 17  2  0
 16 15  1  0
 17 18  1  0
 18 19  2  0
 19 14  1  0
  2 20  1  0
  3 21  1  0
  4 22  1  0
  8 23  1  0
  9 24  1  0
 13 25  1  0
 13 26  1  0
 15 27  1  0
 16 28  1  0
 17 29  1  0
 18 30  1  0
M  ISO  8  20  14  21  14  22  14  23  14  24  14  27  14  28  14  29  14
M  ISO  1  30  14
M  END
>  <minimizedAffinity>  (1) 
-5.39430571

>  <minimizedRMSD>  (1) 
0.107480697

$$$$
