
     RDKit          3D

 25 26  0  0  0  0  0  0  0  0999 V2000
   34.8730   29.3700   48.4800 C   0  0  0  0  0  0  0  0  0  0  0  0
   34.5920   28.0670   48.8140 C   0  0  0  0  0  0  0  0  0  0  0  0
   33.4660   27.5590   48.2090 C   0  0  0  0  0  0  0  0  0  0  0  0
   32.6730   28.2780   47.3360 C   0  0  0  0  0  0  0  0  0  0  0  0
   33.0460   29.5930   47.0620 C   0  0  0  0  0  0  0  0  0  0  0  0
   34.1420   30.1440   47.6290 N   0  0  0  0  0  0  0  0  0  0  0  0
   30.9460   30.0070   45.7810 C   0  0  0  0  0  0  0  0  0  0  0  0
   30.5220   28.9240   46.2790 O   0  0  0  0  0  0  0  0  0  0  0  0
   32.2740   30.3910   46.1710 N   0  0  0  0  0  0  0  0  0  0  0  0
   37.5770   30.2050   50.8210 C   0  0  0  0  0  0  0  0  0  0  0  0
   38.2620   31.2440   50.1470 C   0  0  0  0  0  0  0  0  0  0  0  0
   37.7750   31.6380   48.8900 C   0  0  0  0  0  0  0  0  0  0  0  0
   36.6830   30.9970   48.4100 N   0  0  0  0  0  0  0  0  0  0  0  0
   36.0490   30.0160   49.0650 C   0  0  0  0  0  0  0  0  0  0  0  0
   36.5150   29.6350   50.2730 N   0  0  0  0  0  0  0  0  0  0  0  0
   38.0000   29.7410   52.1010 N   0  0  0  0  0  0  0  0  0  0  0  0
   35.2143   27.4805   49.5059 H   0  0  0  0  0  0  0  0  0  0  0  0
   33.1807   26.5206   48.4333 H   0  0  0  0  0  0  0  0  0  0  0  0
   31.7808   27.8299   46.8744 H   0  0  0  0  0  0  0  0  0  0  0  0
   30.3378   30.6144   45.0946 H   0  0  0  0  0  0  0  0  0  0  0  0
   32.6765   31.2626   45.7979 H   0  0  0  0  0  0  0  0  0  0  0  0
   39.1449   31.7261   50.5921 H   0  0  0  0  0  0  0  0  0  0  0  0
   38.2634   32.4390   48.3157 H   0  0  0  0  0  0  0  0  0  0  0  0
   37.4840   28.9832   52.5705 H   0  0  0  0  0  0  0  0  0  0  0  0
   38.8216   30.1635   52.5563 H   0  0  0  0  0  0  0  0  0  0  0  0
  1  2  2  0
  1 14  1  0
  3  2  1  0
  4  3  2  0
  5  4  1  0
  5  6  2  0
  6  1  1  0
  7  9  1  0
  7  8  2  0
  9  5  1  0
 10 16  1  0
 11 10  2  0
 12 11  1  0
 13 12  2  0
 13 14  1  0
 14 15  2  0
 15 10  1  0
  2 17  1  0
  3 18  1  0
  4 19  1  0
  7 20  1  0
  9 21  1  0
 11 22  1  0
 12 23  1  0
 16 24  1  0
 16 25  1  0
M  ISO  6  17  14  18  14  19  14  20   6  22  14  23  14
M  END
>  <minimizedAffinity>  (1) 
-5.38428879

>  <minimizedRMSD>  (1) 
0.289965391

$$$$
