
     RDKit          3D

 23 24  0  0  0  0  0  0  0  0999 V2000
   34.8700   29.3900   48.3950 C   0  0  0  0  0  0  0  0  0  0  0  0
   34.4590   28.1720   48.8720 C   0  0  0  0  0  0  0  0  0  0  0  0
   33.3530   27.6760   48.2260 C   0  0  0  0  0  0  0  0  0  0  0  0
   32.6900   28.2960   47.2040 C   0  0  0  0  0  0  0  0  0  0  0  0
   33.1830   29.5190   46.7960 C   0  0  0  0  0  0  0  0  0  0  0  0
   34.2680   30.0600   47.3900 N   0  0  0  0  0  0  0  0  0  0  0  0
   37.5580   30.2130   50.7570 C   0  0  0  0  0  0  0  0  0  0  0  0
   38.2360   31.2490   50.1070 C   0  0  0  0  0  0  0  0  0  0  0  0
   37.7570   31.6550   48.8570 C   0  0  0  0  0  0  0  0  0  0  0  0
   36.6790   31.0250   48.3590 N   0  0  0  0  0  0  0  0  0  0  0  0
   36.0390   30.0330   48.9940 C   0  0  0  0  0  0  0  0  0  0  0  0
   36.5040   29.6470   50.1980 N   0  0  0  0  0  0  0  0  0  0  0  0
   37.9870   29.7490   52.0320 N   0  0  0  0  0  0  0  0  0  0  0  0
   32.5150   30.2350   45.7010 C   0  0  0  0  0  0  0  0  0  0  0  0
   32.1590   31.4320   45.8540 O   0  0  0  0  0  0  0  0  0  0  0  0
   34.9660   27.6432   49.6926 H   0  0  0  0  0  0  0  0  0  0  0  0
   32.9694   26.7000   48.5582 H   0  0  0  0  0  0  0  0  0  0  0  0
   31.8070   27.8426   46.7300 H   0  0  0  0  0  0  0  0  0  0  0  0
   39.1152   31.7279   50.5627 H   0  0  0  0  0  0  0  0  0  0  0  0
   38.2478   32.4655   48.2983 H   0  0  0  0  0  0  0  0  0  0  0  0
   37.4786   28.9851   52.4999 H   0  0  0  0  0  0  0  0  0  0  0  0
   38.8059   30.1770   52.4870 H   0  0  0  0  0  0  0  0  0  0  0  0
   32.3257   29.7237   44.7456 H   0  0  0  0  0  0  0  0  0  0  0  0
  1  2  2  0
  1 11  1  0
  3  2  1  0
  4  3  2  0
  5  4  1  0
  5  6  2  0
  6  1  1  0
  7 13  1  0
  8  7  2  0
  9  8  1  0
 10  9  2  0
 10 11  1  0
 11 12  2  0
 12  7  1  0
 14 15  2  0
 14  5  1  0
  2 16  1  0
  3 17  1  0
  4 18  1  0
  8 19  1  0
  9 20  1  0
 13 21  1  0
 13 22  1  0
 14 23  1  0
M  ISO  6  16  14  17  14  18  14  19  14  20  14  23   6
M  END
>  <minimizedAffinity>  (1) 
-4.94410801

>  <minimizedRMSD>  (1) 
0.218880728

$$$$
