
     RDKit          3D

 35 37  0  0  0  0  0  0  0  0999 V2000
   34.9050   29.2930   48.4140 C   0  0  0  0  0  0  0  0  0  0  0  0
   34.5340   28.0450   48.8810 C   0  0  0  0  0  0  0  0  0  0  0  0
   33.4750   27.4850   48.2040 C   0  0  0  0  0  0  0  0  0  0  0  0
   32.8340   28.1070   47.1530 C   0  0  0  0  0  0  0  0  0  0  0  0
   33.2760   29.3430   46.7650 C   0  0  0  0  0  0  0  0  0  0  0  0
   34.3120   29.9300   47.4000 N   0  0  0  0  0  0  0  0  0  0  0  0
   37.5250   30.1940   50.8220 C   0  0  0  0  0  0  0  0  0  0  0  0
   38.1340   31.3010   50.2330 C   0  0  0  0  0  0  0  0  0  0  0  0
   37.6390   31.7280   49.0160 C   0  0  0  0  0  0  0  0  0  0  0  0
   36.6010   31.0420   48.4830 N   0  0  0  0  0  0  0  0  0  0  0  0
   36.0240   29.9790   49.0590 C   0  0  0  0  0  0  0  0  0  0  0  0
   36.5110   29.5750   50.2380 N   0  0  0  0  0  0  0  0  0  0  0  0
   39.0830   33.8950   48.7650 C   0  0  0  0  0  0  0  0  0  0  0  0
   39.5800   34.0580   49.9160 O   0  0  0  0  0  0  0  0  0  0  0  0
   38.2100   32.8510   48.3550 N   0  0  0  0  0  0  0  0  0  0  0  0
   37.9670   29.6620   52.1020 N   0  0  0  0  0  0  0  0  0  0  0  0
   30.2550   29.3620   46.7160 Cl  0  0  0  0  0  0  0  0  0  0  0  0
   31.2720   30.1250   45.5490 C   0  0  0  0  0  0  0  0  0  0  0  0
   32.6440   30.0550   45.6660 C   0  0  0  0  0  0  0  0  0  0  0  0
   33.3310   30.7160   44.6560 C   0  0  0  0  0  0  0  0  0  0  0  0
   32.7460   31.3890   43.6190 C   0  0  0  0  0  0  0  0  0  0  0  0
   31.3620   31.4300   43.5480 C   0  0  0  0  0  0  0  0  0  0  0  0
   30.5960   32.2860   42.2340 Cl  0  0  0  0  0  0  0  0  0  0  0  0
   30.6330   30.7900   44.5250 C   0  0  0  0  0  0  0  0  0  0  0  0
   35.0407   27.5445   49.7193 H   0  0  0  0  0  0  0  0  0  0  0  0
   33.1219   26.4913   48.5167 H   0  0  0  0  0  0  0  0  0  0  0  0
   31.9900   27.6226   46.6402 H   0  0  0  0  0  0  0  0  0  0  0  0
   38.9766   31.8149   50.7187 H   0  0  0  0  0  0  0  0  0  0  0  0
   39.3545   34.6386   48.0013 H   0  0  0  0  0  0  0  0  0  0  0  0
   37.9305   32.9230   47.3663 H   0  0  0  0  0  0  0  0  0  0  0  0
   37.4950   28.8423   52.5097 H   0  0  0  0  0  0  0  0  0  0  0  0
   38.7519   30.1051   52.6005 H   0  0  0  0  0  0  0  0  0  0  0  0
   34.4302   30.6967   44.6930 H   0  0  0  0  0  0  0  0  0  0  0  0
   33.3616   31.8881   42.8561 H   0  0  0  0  0  0  0  0  0  0  0  0
   29.5338   30.8096   44.4880 H   0  0  0  0  0  0  0  0  0  0  0  0
  1  2  2  0
  1 11  1  0
  3  2  1  0
  4  3  2  0
  5  4  1  0
  5  6  2  0
  6  1  1  0
  7 16  1  0
  8  7  2  0
  9  8  1  0
 10  9  2  0
 10 11  1  0
 11 12  2  0
 12  7  1  0
 13 14  2  0
 15 13  1  0
 15  9  1  0
 18 19  2  0
 18 17  1  0
 19  5  1  0
 20 19  1  0
 21 20  2  0
 22 21  1  0
 22 24  2  0
 23 22  1  0
 24 18  1  0
  2 25  1  0
  3 26  1  0
  4 27  1  0
  8 28  1  0
 13 29  1  0
 15 30  1  0
 16 31  1  0
 16 32  1  0
 20 33  1  0
 21 34  1  0
 24 35  1  0
M  ISO  8  25  14  26  14  27  14  28  14  29   6  33  14  34  14  35  14
M  END
>  <minimizedAffinity>  (1) 
-6.72806597

>  <minimizedRMSD>  (1) 
0.452958494

$$$$
