
     RDKit          3D

 38 40  0  0  0  0  0  0  0  0999 V2000
   34.7970   29.1810   48.3530 C   0  0  0  0  0  0  0  0  0  0  0  0
   34.4700   27.9180   48.8090 C   0  0  0  0  0  0  0  0  0  0  0  0
   33.3710   27.3710   48.2030 C   0  0  0  0  0  0  0  0  0  0  0  0
   32.6460   28.0140   47.2240 C   0  0  0  0  0  0  0  0  0  0  0  0
   33.0440   29.2640   46.8360 C   0  0  0  0  0  0  0  0  0  0  0  0
   34.1210   29.8400   47.4060 N   0  0  0  0  0  0  0  0  0  0  0  0
   30.0290   29.1520   46.9490 Cl  0  0  0  0  0  0  0  0  0  0  0  0
   30.9510   30.0170   45.7650 C   0  0  0  0  0  0  0  0  0  0  0  0
   32.3210   29.9990   45.8100 C   0  0  0  0  0  0  0  0  0  0  0  0
   32.9220   30.7400   44.7990 C   0  0  0  0  0  0  0  0  0  0  0  0
   32.2670   31.4370   43.8290 C   0  0  0  0  0  0  0  0  0  0  0  0
   30.8770   31.4230   43.8290 C   0  0  0  0  0  0  0  0  0  0  0  0
   29.9860   32.2980   42.6110 Cl  0  0  0  0  0  0  0  0  0  0  0  0
   30.2320   30.7040   44.8100 C   0  0  0  0  0  0  0  0  0  0  0  0
   37.4250   30.2310   50.6950 C   0  0  0  0  0  0  0  0  0  0  0  0
   38.1580   31.1700   49.9610 C   0  0  0  0  0  0  0  0  0  0  0  0
   37.7350   31.4300   48.6660 C   0  0  0  0  0  0  0  0  0  0  0  0
   36.6530   30.7630   48.2100 N   0  0  0  0  0  0  0  0  0  0  0  0
   35.9610   29.8670   48.9240 C   0  0  0  0  0  0  0  0  0  0  0  0
   36.3630   29.6090   50.1790 N   0  0  0  0  0  0  0  0  0  0  0  0
   37.7740   29.8800   52.0540 N   0  0  0  0  0  0  0  0  0  0  0  0
   38.4430   32.3910   47.8410 C   0  0  0  0  0  0  0  0  0  0  0  0
   39.2430   32.0020   46.8630 C   0  0  0  0  0  0  0  0  0  0  0  0
   39.9700   33.0110   46.0150 C   0  0  0  0  0  0  0  0  0  0  0  0
   35.0428   27.3976   49.5907 H   0  0  0  0  0  0  0  0  0  0  0  0
   33.0503   26.3658   48.5140 H   0  0  0  0  0  0  0  0  0  0  0  0
   31.7687   27.5342   46.7655 H   0  0  0  0  0  0  0  0  0  0  0  0
   34.0215   30.7658   44.7807 H   0  0  0  0  0  0  0  0  0  0  0  0
   32.8246   31.9974   43.0641 H   0  0  0  0  0  0  0  0  0  0  0  0
   29.1325   30.6774   44.8321 H   0  0  0  0  0  0  0  0  0  0  0  0
   39.0320   31.6800   50.3924 H   0  0  0  0  0  0  0  0  0  0  0  0
   37.2132   29.1845   52.5665 H   0  0  0  0  0  0  0  0  0  0  0  0
   38.5834   30.3255   52.5093 H   0  0  0  0  0  0  0  0  0  0  0  0
   38.3113   33.4660   48.0334 H   0  0  0  0  0  0  0  0  0  0  0  0
   39.3790   30.9282   46.6666 H   0  0  0  0  0  0  0  0  0  0  0  0
   40.4886   33.7308   46.6653 H   0  0  0  0  0  0  0  0  0  0  0  0
   40.7050   32.4947   45.3800 H   0  0  0  0  0  0  0  0  0  0  0  0
   39.2476   33.5448   45.3800 H   0  0  0  0  0  0  0  0  0  0  0  0
  1  2  2  0
  1 19  1  0
  3  2  1  0
  4  3  2  0
  5  4  1  0
  5  6  2  0
  6  1  1  0
  8  9  2  0
  8  7  1  0
  9  5  1  0
 10  9  1  0
 11 10  2  0
 12 11  1  0
 12 14  2  0
 13 12  1  0
 14  8  1  0
 15 21  1  0
 16 15  2  0
 17 16  1  0
 18 17  2  0
 18 19  1  0
 19 20  2  0
 20 15  1  0
 22 17  1  0
 23 22  2  0
 24 23  1  0
  2 25  1  0
  3 26  1  0
  4 27  1  0
 10 28  1  0
 11 29  1  0
 14 30  1  0
 16 31  1  0
 21 32  1  0
 21 33  1  0
 22 34  1  0
 23 35  1  0
 24 36  1  0
 24 37  1  0
 24 38  1  0
M  ISO  8  25  14  26  14  27  14  28  14  29  14  30  14  31  14  36   8
M  ISO  2  37   8  38   8
M  END
>  <minimizedAffinity>  (1) 
-6.61462879

>  <minimizedRMSD>  (1) 
0.323875606

$$$$
