
     RDKit          3D

 37 39  0  0  0  0  0  0  0  0999 V2000
   34.8660   29.1910   48.4330 C   0  0  0  0  0  0  0  0  0  0  0  0
   34.5390   27.9200   48.8670 C   0  0  0  0  0  0  0  0  0  0  0  0
   33.4590   27.3720   48.2260 C   0  0  0  0  0  0  0  0  0  0  0  0
   32.7610   28.0220   47.2380 C   0  0  0  0  0  0  0  0  0  0  0  0
   33.1610   29.2920   46.8690 C   0  0  0  0  0  0  0  0  0  0  0  0
   34.2100   29.8530   47.4760 N   0  0  0  0  0  0  0  0  0  0  0  0
   30.1410   29.1730   46.9170 Cl  0  0  0  0  0  0  0  0  0  0  0  0
   31.0950   30.0330   45.7530 C   0  0  0  0  0  0  0  0  0  0  0  0
   32.4550   30.0170   45.8320 C   0  0  0  0  0  0  0  0  0  0  0  0
   33.0820   30.7550   44.8370 C   0  0  0  0  0  0  0  0  0  0  0  0
   32.4530   31.4480   43.8480 C   0  0  0  0  0  0  0  0  0  0  0  0
   31.0810   31.4340   43.8110 C   0  0  0  0  0  0  0  0  0  0  0  0
   30.1850   32.2950   42.5740 Cl  0  0  0  0  0  0  0  0  0  0  0  0
   30.4000   30.7190   44.7750 C   0  0  0  0  0  0  0  0  0  0  0  0
   37.4780   30.1570   50.8270 C   0  0  0  0  0  0  0  0  0  0  0  0
   38.1660   31.1660   50.1540 C   0  0  0  0  0  0  0  0  0  0  0  0
   37.7270   31.5030   48.8910 C   0  0  0  0  0  0  0  0  0  0  0  0
   36.6580   30.8340   48.3880 N   0  0  0  0  0  0  0  0  0  0  0  0
   36.0090   29.8670   49.0490 C   0  0  0  0  0  0  0  0  0  0  0  0
   36.4430   29.5460   50.2770 N   0  0  0  0  0  0  0  0  0  0  0  0
   37.8540   29.7160   52.1640 N   0  0  0  0  0  0  0  0  0  0  0  0
   38.4540   32.5780   48.1670 C   0  0  0  0  0  0  0  0  0  0  0  0
   38.9760   33.6350   49.1180 C   0  0  0  0  0  0  0  0  0  0  0  0
   35.0963   27.3951   49.6568 H   0  0  0  0  0  0  0  0  0  0  0  0
   33.1352   26.3618   48.5171 H   0  0  0  0  0  0  0  0  0  0  0  0
   31.9004   27.5411   46.7500 H   0  0  0  0  0  0  0  0  0  0  0  0
   34.1816   30.7822   44.8487 H   0  0  0  0  0  0  0  0  0  0  0  0
   33.0308   32.0059   43.0964 H   0  0  0  0  0  0  0  0  0  0  0  0
   29.3003   30.6950   44.7650 H   0  0  0  0  0  0  0  0  0  0  0  0
   39.0267   31.6741   50.6134 H   0  0  0  0  0  0  0  0  0  0  0  0
   37.3206   28.9672   52.6283 H   0  0  0  0  0  0  0  0  0  0  0  0
   38.6532   30.1531   52.6447 H   0  0  0  0  0  0  0  0  0  0  0  0
   39.3026   32.1336   47.6263 H   0  0  0  0  0  0  0  0  0  0  0  0
   37.7525   33.0586   47.4693 H   0  0  0  0  0  0  0  0  0  0  0  0
   38.8140   33.3070   50.1554 H   0  0  0  0  0  0  0  0  0  0  0  0
   40.0518   33.7851   48.9446 H   0  0  0  0  0  0  0  0  0  0  0  0
   38.4412   34.5805   48.9446 H   0  0  0  0  0  0  0  0  0  0  0  0
  1  2  2  0
  1 19  1  0
  3  2  1  0
  4  3  2  0
  5  4  1  0
  5  6  2  0
  6  1  1  0
  8  9  2  0
  8  7  1  0
  9  5  1  0
 10  9  1  0
 11 10  2  0
 12 11  1  0
 12 14  2  0
 13 12  1  0
 14  8  1  0
 15 21  1  0
 16 15  2  0
 17 16  1  0
 18 17  2  0
 18 19  1  0
 19 20  2  0
 20 15  1  0
 22 17  1  0
 22 23  1  0
  2 24  1  0
  3 25  1  0
  4 26  1  0
 10 27  1  0
 11 28  1  0
 14 29  1  0
 16 30  1  0
 21 31  1  0
 21 32  1  0
 22 33  1  0
 22 34  1  0
 23 35  1  0
 23 36  1  0
 23 37  1  0
M  ISO  8  24  14  25  14  26  14  27  14  28  14  29  14  30  14  33   8
M  ISO  4  34   8  35   8  36   8  37   8
M  END
>  <minimizedAffinity>  (1) 
-6.41505766

>  <minimizedRMSD>  (1) 
0.29927364

$$$$
