
     RDKit          3D

 38 40  0  0  1  0  0  0  0  0999 V2000
   39.7580   32.7980   45.8840 C   0  0  0  0  0  0  0  0  0  0  0  0
   40.7070   31.9310   45.3270 C   0  0  0  0  0  0  0  0  0  0  0  0
   40.2970   30.6390   44.9930 C   0  0  0  0  0  0  0  0  0  0  0  0
   39.0030   30.2630   45.2160 N   0  0  0  0  0  0  0  0  0  0  0  0
   38.1270   31.1430   45.7580 C   0  0  0  0  0  0  0  0  0  0  0  0
   38.4690   32.4070   46.0990 N   0  0  0  0  0  0  0  0  0  0  0  0
   36.7710   30.6930   45.9730 N   0  0  0  0  0  0  0  0  0  0  0  0
   35.9090   30.2570   44.8950 C   0  0  0  0  0  0  0  0  0  0  0  0
   34.7090   29.6880   45.5430 C   0  0  0  0  0  0  0  0  0  0  0  0
   35.0560   29.5780   47.0170 C   0  0  0  0  0  0  0  0  0  0  0  0
   36.0930   30.6120   47.2450 C   0  0  1  0  0  0  0  0  0  0  0  0
   36.9900   30.3170   48.4110 C   0  0  0  0  0  0  0  0  0  0  0  0
   37.1060   31.6060   49.2110 C   0  0  0  0  0  0  0  0  0  0  0  0
   36.7930   31.4350   50.6670 C   0  0  0  0  0  0  0  0  0  0  0  0
   37.4390   30.2600   51.3250 C   0  0  0  0  0  0  0  0  0  0  0  0
   37.5470   29.0560   50.3810 C   0  0  0  0  0  0  0  0  0  0  0  0
   36.4300   29.2970   49.3730 C   0  0  0  0  0  0  0  0  0  0  0  0
   40.0601   33.8204   46.1550 H   0  0  0  0  0  0  0  0  0  0  0  0
   41.7435   32.2582   45.1580 H   0  0  0  0  0  0  0  0  0  0  0  0
   41.0118   29.9281   44.5529 H   0  0  0  0  0  0  0  0  0  0  0  0
   36.4141   29.4927   44.2861 H   0  0  0  0  0  0  0  0  0  0  0  0
   35.6500   31.0883   44.2228 H   0  0  0  0  0  0  0  0  0  0  0  0
   33.8439   30.3523   45.4005 H   0  0  0  0  0  0  0  0  0  0  0  0
   34.4383   28.7119   45.1141 H   0  0  0  0  0  0  0  0  0  0  0  0
   34.1701   29.7752   47.6385 H   0  0  0  0  0  0  0  0  0  0  0  0
   35.4103   28.5715   47.2841 H   0  0  0  0  0  0  0  0  0  0  0  0
   35.6676   31.5816   47.5432 H   0  0  0  0  0  0  0  0  0  0  0  0
   37.9343   29.9274   48.0028 H   0  0  0  0  0  0  0  0  0  0  0  0
   38.1354   31.9824   49.1178 H   0  0  0  0  0  0  0  0  0  0  0  0
   36.3664   32.3095   48.8010 H   0  0  0  0  0  0  0  0  0  0  0  0
   37.1216   32.3428   51.1941 H   0  0  0  0  0  0  0  0  0  0  0  0
   35.7088   31.2589   50.7264 H   0  0  0  0  0  0  0  0  0  0  0  0
   38.4498   30.5472   51.6503 H   0  0  0  0  0  0  0  0  0  0  0  0
   36.8130   29.9645   52.1799 H   0  0  0  0  0  0  0  0  0  0  0  0
   38.5278   29.0324   49.8836 H   0  0  0  0  0  0  0  0  0  0  0  0
   37.4547   28.0917   50.9022 H   0  0  0  0  0  0  0  0  0  0  0  0
   35.5334   29.6896   49.8750 H   0  0  0  0  0  0  0  0  0  0  0  0
   36.1241   28.3711   48.8639 H   0  0  0  0  0  0  0  0  0  0  0  0
  1  6  2  0
  2  1  1  0
  3  4  1  0
  3  2  2  0
  4  5  2  0
  5  7  1  0
  5  6  1  0
  7 11  1  0
  8  9  1  0
  8  7  1  0
  9 10  1  0
 10 11  1  0
 11 12  1  0
 12 13  1  0
 12 17  1  0
 13 14  1  0
 14 15  1  0
 16 15  1  0
 17 16  1  0
  1 18  1  0
  2 19  1  0
  3 20  1  0
  8 21  1  0
  8 22  1  0
  9 23  1  0
  9 24  1  0
 10 25  1  0
 10 26  1  0
 11 27  1  1
 12 28  1  0
 13 29  1  0
 13 30  1  0
 14 31  1  0
 14 32  1  0
 15 33  1  0
 15 34  1  0
 16 35  1  0
 16 36  1  0
 17 37  1  0
 17 38  1  0
M  ISO  8  18  14  19  14  20  14  21  13  22  13  23  13  24  13  25  13
M  ISO  8  26  13  27  13  28  13  29  13  30  13  31  13  32  13  33  13
M  ISO  5  34  13  35  13  36  13  37  13  38  13
M  END
>  <minimizedAffinity>  (1) 
-5.87908792

>  <minimizedRMSD>  (1) 
3.03948021

$$$$
