
     RDKit          3D

 40 43  0  0  1  0  0  0  0  0999 V2000
   39.4630   33.0180   44.5700 C   0  0  0  0  0  0  0  0  0  0  0  0
   40.4880   32.2130   44.0860 C   0  0  0  0  0  0  0  0  0  0  0  0
   40.2240   30.8690   43.8620 C   0  0  0  0  0  0  0  0  0  0  0  0
   38.9810   30.3930   44.1240 N   0  0  0  0  0  0  0  0  0  0  0  0
   38.0140   31.1430   44.5780 C   0  0  0  0  0  0  0  0  0  0  0  0
   38.3230   32.3980   44.7670 N   0  0  0  0  0  0  0  0  0  0  0  0
   36.7350   30.6100   44.8290 N   0  0  0  0  0  0  0  0  0  0  0  0
   35.9320   29.9610   43.7880 C   0  0  0  0  0  0  0  0  0  0  0  0
   34.7500   29.4350   44.4800 C   0  0  0  0  0  0  0  0  0  0  0  0
   35.1190   29.4750   45.9630 C   0  0  0  0  0  0  0  0  0  0  0  0
   35.9710   30.6450   46.0840 C   0  0  1  0  0  0  0  0  0  0  0  0
   36.5930   30.0170   48.4540 C   0  0  0  0  0  0  0  0  0  0  0  0
   36.7090   30.8160   47.3030 C   0  0  0  0  0  0  0  0  0  0  0  0
   37.7210   31.7560   47.4350 C   0  0  0  0  0  0  0  0  0  0  0  0
   38.5350   31.9070   48.5430 C   0  0  0  0  0  0  0  0  0  0  0  0
   38.3460   31.0580   49.6510 C   0  0  0  0  0  0  0  0  0  0  0  0
   37.3550   30.0940   49.6050 C   0  0  0  0  0  0  0  0  0  0  0  0
   37.1470   29.1950   50.7620 C   0  0  0  0  0  0  0  0  0  0  0  0
   37.3760   29.8460   52.1460 C   0  0  0  0  0  0  0  0  0  0  0  0
   36.0220   29.4000   51.6970 C   0  0  0  0  0  0  0  0  0  0  0  0
   34.6500   28.3350   48.5570 N   0  0  0  0  0  0  0  0  0  0  0  0
   35.5030   29.0710   48.5010 C   0  0  0  0  0  0  0  0  0  0  0  0
   39.5970   34.0909   44.7721 H   0  0  0  0  0  0  0  0  0  0  0  0
   41.4852   32.6316   43.8852 H   0  0  0  0  0  0  0  0  0  0  0  0
   41.0094   30.2011   43.4785 H   0  0  0  0  0  0  0  0  0  0  0  0
   36.4987   29.1435   43.3183 H   0  0  0  0  0  0  0  0  0  0  0  0
   35.6585   30.6618   42.9855 H   0  0  0  0  0  0  0  0  0  0  0  0
   33.8714   30.0664   44.2817 H   0  0  0  0  0  0  0  0  0  0  0  0
   34.4875   28.4212   44.1436 H   0  0  0  0  0  0  0  0  0  0  0  0
   34.2191   29.5809   46.5867 H   0  0  0  0  0  0  0  0  0  0  0  0
   35.6166   28.5535   46.2995 H   0  0  0  0  0  0  0  0  0  0  0  0
   35.3879   31.5707   46.1985 H   0  0  0  0  0  0  0  0  0  0  0  0
   37.8899   32.4376   46.5883 H   0  0  0  0  0  0  0  0  0  0  0  0
   39.3186   32.6789   48.5587 H   0  0  0  0  0  0  0  0  0  0  0  0
   38.9801   31.1606   50.5439 H   0  0  0  0  0  0  0  0  0  0  0  0
   37.5024   28.3179   50.2013 H   0  0  0  0  0  0  0  0  0  0  0  0
   37.9076   29.2966   52.9369 H   0  0  0  0  0  0  0  0  0  0  0  0
   37.8157   30.7851   52.5130 H   0  0  0  0  0  0  0  0  0  0  0  0
   35.2532   30.1514   51.4639 H   0  0  0  0  0  0  0  0  0  0  0  0
   35.2580   28.7353   52.1265 H   0  0  0  0  0  0  0  0  0  0  0  0
  1  6  2  0
  2  1  1  0
  3  2  2  0
  3  4  1  0
  4  5  2  0
  5  6  1  0
  5  7  1  0
  7 11  1  0
  8  9  1  0
  8  7  1  0
  9 10  1  0
 10 11  1  0
 11 13  1  0
 12 22  1  0
 12 17  2  0
 13 14  2  0
 13 12  1  0
 14 15  1  0
 15 16  2  0
 17 16  1  0
 17 18  1  0
 18 20  1  0
 18 19  1  0
 20 19  1  0
 22 21  3  0
  1 23  1  0
  2 24  1  0
  3 25  1  0
  8 26  1  0
  8 27  1  0
  9 28  1  0
  9 29  1  0
 10 30  1  0
 10 31  1  0
 11 32  1  6
 14 33  1  0
 15 34  1  0
 16 35  1  0
 18 36  1  0
 19 37  1  0
 19 38  1  0
 20 39  1  0
 20 40  1  0
M  ISO  8  23  14  24  14  25  14  26  13  27  13  28  13  29  13  30  13
M  ISO  8  31  13  32  13  33  14  34  14  35  14  36  13  37  13  38  13
M  ISO  2  39  13  40  13
M  END
>  <minimizedAffinity>  (1) 
-6.20733309

>  <minimizedRMSD>  (1) 
1.41063452

$$$$
