
     RDKit          3D

 27 28  0  0  1  0  0  0  0  0999 V2000
   38.8700   32.7540   48.1190 C   0  0  0  0  0  0  0  0  0  0  0  0
   39.3600   32.2480   46.9090 C   0  0  0  0  0  0  0  0  0  0  0  0
   38.6890   31.1590   46.3260 C   0  0  0  0  0  0  0  0  0  0  0  0
   37.5910   30.6380   46.9610 N   0  0  0  0  0  0  0  0  0  0  0  0
   37.1560   31.1580   48.1230 C   0  0  0  0  0  0  0  0  0  0  0  0
   37.7950   32.2100   48.6970 N   0  0  0  0  0  0  0  0  0  0  0  0
   36.0070   30.6130   48.7860 N   0  0  0  0  0  0  0  0  0  0  0  0
   36.0270   30.3500   50.2220 C   0  0  0  0  0  0  0  0  0  0  0  0
   35.1760   29.1810   50.6280 C   0  0  0  0  0  0  0  0  0  0  0  0
   34.9590   28.3200   49.4010 C   0  0  0  0  0  0  0  0  0  0  0  0
   34.0760   29.1110   48.4590 C   0  0  0  0  0  0  0  0  0  0  0  0
   34.8220   30.3280   48.0080 C   0  0  2  0  0  0  0  0  0  0  0  0
   35.1110   30.3480   46.6000 N   0  0  0  0  0  0  0  0  0  0  0  0
   39.3741   33.6064   48.5978 H   0  0  0  0  0  0  0  0  0  0  0  0
   40.2450   32.6901   46.4281 H   0  0  0  0  0  0  0  0  0  0  0  0
   39.0394   30.7314   45.3750 H   0  0  0  0  0  0  0  0  0  0  0  0
   37.0649   30.1470   50.5245 H   0  0  0  0  0  0  0  0  0  0  0  0
   35.6142   31.2397   50.7200 H   0  0  0  0  0  0  0  0  0  0  0  0
   35.6875   28.5986   51.4085 H   0  0  0  0  0  0  0  0  0  0  0  0
   34.2126   29.5276   51.0303 H   0  0  0  0  0  0  0  0  0  0  0  0
   35.9227   28.0982   48.9193 H   0  0  0  0  0  0  0  0  0  0  0  0
   34.4892   27.3624   49.6701 H   0  0  0  0  0  0  0  0  0  0  0  0
   33.8168   28.4919   47.5875 H   0  0  0  0  0  0  0  0  0  0  0  0
   33.1510   29.4087   48.9745 H   0  0  0  0  0  0  0  0  0  0  0  0
   34.1120   31.1463   48.1985 H   0  0  0  0  0  0  0  0  0  0  0  0
   36.1289   30.4184   46.4594 H   0  0  0  0  0  0  0  0  0  0  0  0
   34.7636   29.4810   46.1659 H   0  0  0  0  0  0  0  0  0  0  0  0
  1  6  2  0
  2  1  1  0
  3  2  2  0
  3  4  1  0
  4  5  2  0
  5  6  1  0
  5  7  1  0
  7  8  1  0
  8  9  1  0
 10  9  1  0
 11 10  1  0
 12 11  1  0
 12  7  1  0
 13 12  1  0
  1 14  1  0
  2 15  1  0
  3 16  1  0
  8 17  1  0
  8 18  1  0
  9 19  1  0
  9 20  1  0
 10 21  1  0
 10 22  1  0
 11 23  1  0
 11 24  1  0
 12 25  1  6
 13 26  1  0
 13 27  1  0
M  ISO  8  14  14  15  14  16  14  17  13  18  13  19  13  20  13  21  13
M  ISO  6  22  13  23  13  24  13  25  13  26   5  27   5
M  END
>  <minimizedAffinity>  (1) 
-5.07744312

>  <minimizedRMSD>  (1) 
0.0430598743

$$$$
