
     RDKit          3D

 28 29  0  0  1  0  0  0  0  0999 V2000
   39.0480   32.8860   46.4120 C   0  0  0  0  0  0  0  0  0  0  0  0
   39.5480   31.9460   45.4800 C   0  0  0  0  0  0  0  0  0  0  0  0
   39.3080   30.5820   45.7100 C   0  0  0  0  0  0  0  0  0  0  0  0
   38.6010   30.2590   46.8300 N   0  0  0  0  0  0  0  0  0  0  0  0
   38.1380   31.1690   47.6970 C   0  0  0  0  0  0  0  0  0  0  0  0
   38.3610   32.4730   47.4890 N   0  0  0  0  0  0  0  0  0  0  0  0
   37.4020   30.7370   48.8510 N   0  0  0  0  0  0  0  0  0  0  0  0
   37.6700   31.3470   50.1490 C   0  0  0  0  0  0  0  0  0  0  0  0
   37.4510   30.4050   51.3070 C   0  0  0  0  0  0  0  0  0  0  0  0
   37.4990   28.9860   50.7680 C   0  0  0  0  0  0  0  0  0  0  0  0
   36.2410   28.8490   49.9220 C   0  0  0  0  0  0  0  0  0  0  0  0
   36.4090   29.7090   48.7150 C   0  0  1  0  0  0  0  0  0  0  0  0
   35.1100   30.1760   48.1270 C   0  0  0  0  0  0  0  0  0  0  0  0
   35.3210   30.7390   46.8840 F   0  0  0  0  0  0  0  0  0  0  0  0
   34.4310   31.0780   48.9160 F   0  0  0  0  0  0  0  0  0  0  0  0
   34.3300   29.0570   47.9020 F   0  0  0  0  0  0  0  0  0  0  0  0
   39.2230   33.9603   46.2533 H   0  0  0  0  0  0  0  0  0  0  0  0
   40.1120   32.2765   44.5953 H   0  0  0  0  0  0  0  0  0  0  0  0
   39.6738   29.8091   45.0180 H   0  0  0  0  0  0  0  0  0  0  0  0
   38.7167   31.6848   50.1667 H   0  0  0  0  0  0  0  0  0  0  0  0
   36.9634   32.1814   50.2693 H   0  0  0  0  0  0  0  0  0  0  0  0
   38.2414   30.5464   52.0588 H   0  0  0  0  0  0  0  0  0  0  0  0
   36.4793   30.6019   51.7834 H   0  0  0  0  0  0  0  0  0  0  0  0
   38.3982   28.8354   50.1526 H   0  0  0  0  0  0  0  0  0  0  0  0
   37.5420   28.2373   51.5727 H   0  0  0  0  0  0  0  0  0  0  0  0
   36.1061   27.8003   49.6187 H   0  0  0  0  0  0  0  0  0  0  0  0
   35.3556   29.1600   50.4959 H   0  0  0  0  0  0  0  0  0  0  0  0
   36.8353   29.0391   47.9538 H   0  0  0  0  0  0  0  0  0  0  0  0
  1  6  2  0
  2  3  2  0
  2  1  1  0
  3  4  1  0
  4  5  2  0
  5  7  1  0
  6  5  1  0
  7  8  1  0
  8  9  1  0
 10  9  1  0
 11 10  1  0
 12  7  1  0
 12 11  1  0
 13 12  1  0
 13 15  1  0
 14 13  1  0
 16 13  1  0
  1 17  1  0
  2 18  1  0
  3 19  1  0
  8 20  1  0
  8 21  1  0
  9 22  1  0
  9 23  1  0
 10 24  1  0
 10 25  1  0
 11 26  1  0
 11 27  1  0
 12 28  1  6
M  ISO  8  17  14  18  14  19  14  20  13  21  13  22  13  23  13  24  13
M  ISO  4  25  13  26  13  27  13  28  13
M  END
>  <minimizedAffinity>  (1) 
-5.03178644

>  <minimizedRMSD>  (1) 
1.93330026

$$$$
