
     RDKit          3D

 28 29  0  0  1  0  0  0  0  0999 V2000
   38.8740   32.7070   48.0640 C   0  0  0  0  0  0  0  0  0  0  0  0
   39.4410   32.1010   46.9230 C   0  0  0  0  0  0  0  0  0  0  0  0
   38.8180   30.9630   46.3820 C   0  0  0  0  0  0  0  0  0  0  0  0
   37.6980   30.5190   47.0040 N   0  0  0  0  0  0  0  0  0  0  0  0
   37.1760   31.1140   48.0920 C   0  0  0  0  0  0  0  0  0  0  0  0
   37.7500   32.1980   48.6270 N   0  0  0  0  0  0  0  0  0  0  0  0
   35.9750   30.5790   48.7020 N   0  0  0  0  0  0  0  0  0  0  0  0
   35.9020   30.4220   50.1480 C   0  0  0  0  0  0  0  0  0  0  0  0
   35.0940   29.2340   50.5790 C   0  0  0  0  0  0  0  0  0  0  0  0
   34.9550   28.2900   49.4050 C   0  0  0  0  0  0  0  0  0  0  0  0
   34.1090   29.0130   48.3780 C   0  0  0  0  0  0  0  0  0  0  0  0
   34.8580   30.2050   47.8840 C   0  0  2  0  0  0  0  0  0  0  0  0
   35.1950   30.0600   46.4390 C   0  0  0  0  0  0  0  0  0  0  0  0
   39.3472   33.5991   48.5003 H   0  0  0  0  0  0  0  0  0  0  0  0
   40.3533   32.5113   46.4655 H   0  0  0  0  0  0  0  0  0  0  0  0
   39.2212   30.4552   45.4934 H   0  0  0  0  0  0  0  0  0  0  0  0
   36.9241   30.3084   50.5383 H   0  0  0  0  0  0  0  0  0  0  0  0
   35.4013   31.3167   50.5465 H   0  0  0  0  0  0  0  0  0  0  0  0
   35.6034   28.7210   51.4081 H   0  0  0  0  0  0  0  0  0  0  0  0
   34.0994   29.5601   50.9174 H   0  0  0  0  0  0  0  0  0  0  0  0
   35.9445   28.0545   48.9861 H   0  0  0  0  0  0  0  0  0  0  0  0
   34.4915   27.3396   49.7081 H   0  0  0  0  0  0  0  0  0  0  0  0
   33.8935   28.3381   47.5366 H   0  0  0  0  0  0  0  0  0  0  0  0
   33.1614   29.3330   48.8359 H   0  0  0  0  0  0  0  0  0  0  0  0
   34.1777   31.0646   47.9756 H   0  0  0  0  0  0  0  0  0  0  0  0
   36.2012   29.6270   46.3388 H   0  0  0  0  0  0  0  0  0  0  0  0
   34.4612   29.3980   45.9560 H   0  0  0  0  0  0  0  0  0  0  0  0
   35.1712   31.0480   45.9560 H   0  0  0  0  0  0  0  0  0  0  0  0
  1  6  2  0
  2  1  1  0
  3  2  2  0
  3  4  1  0
  4  5  2  0
  5  6  1  0
  5  7  1  0
  7  8  1  0
  8  9  1  0
 10  9  1  0
 11 10  1  0
 12 11  1  0
 12  7  1  0
 13 12  1  0
  1 14  1  0
  2 15  1  0
  3 16  1  0
  8 17  1  0
  8 18  1  0
  9 19  1  0
  9 20  1  0
 10 21  1  0
 10 22  1  0
 11 23  1  0
 11 24  1  0
 12 25  1  6
 13 26  1  0
 13 27  1  0
 13 28  1  0
M  ISO  8  14  14  15  14  16  14  17  13  18  13  19  13  20  13  21  13
M  ISO  7  22  13  23  13  24  13  25  13  26   8  27   8  28   8
M  END
>  <minimizedAffinity>  (1) 
-4.92797661

>  <minimizedRMSD>  (1) 
0.12424545

$$$$
