
     RDKit          3D

 42 45  0  0  1  0  0  0  0  0999 V2000
   39.6520   33.1150   44.6810 C   0  0  0  0  0  0  0  0  0  0  0  0
   40.5510   32.1260   44.2960 C   0  0  0  0  0  0  0  0  0  0  0  0
   40.6350   30.9940   45.0780 C   0  0  0  0  0  0  0  0  0  0  0  0
   39.8340   30.9140   46.1760 N   0  0  0  0  0  0  0  0  0  0  0  0
   38.9680   31.8920   46.5270 C   0  0  0  0  0  0  0  0  0  0  0  0
   38.8800   32.9850   45.7810 N   0  0  0  0  0  0  0  0  0  0  0  0
   38.1570   31.7200   47.7120 N   0  0  0  0  0  0  0  0  0  0  0  0
   38.0050   32.8160   48.6310 C   0  0  0  0  0  0  0  0  0  0  0  0
   37.7970   32.3630   50.0550 C   0  0  0  0  0  0  0  0  0  0  0  0
   38.3210   30.9600   50.1840 C   0  0  0  0  0  0  0  0  0  0  0  0
   37.3990   30.0750   49.3830 C   0  0  0  0  0  0  0  0  0  0  0  0
   37.5100   30.4260   47.9460 C   0  0  1  0  0  0  0  0  0  0  0  0
   36.2450   30.3150   47.2110 C   0  0  0  0  0  0  0  0  0  0  0  0
   34.9590   30.1930   47.7320 C   0  0  0  0  0  0  0  0  0  0  0  0
   33.8880   30.1090   46.8930 C   0  0  0  0  0  0  0  0  0  0  0  0
   34.1760   30.1540   45.4840 C   0  0  0  0  0  0  0  0  0  0  0  0
   36.0560   30.3230   45.4960 S   0  0  0  0  0  0  0  0  0  0  0  0
   31.8980   32.1480   45.2130 Cl  0  0  0  0  0  0  0  0  0  0  0  0
   32.4090   30.9370   44.0560 C   0  0  0  0  0  0  0  0  0  0  0  0
   33.4450   30.1060   44.3000 C   0  0  0  0  0  0  0  0  0  0  0  0
   33.8610   29.1510   43.4070 C   0  0  0  0  0  0  0  0  0  0  0  0
   33.2150   28.9910   42.1750 C   0  0  0  0  0  0  0  0  0  0  0  0
   32.1380   29.8420   41.9020 C   0  0  0  0  0  0  0  0  0  0  0  0
   31.2960   29.6760   40.3640 Cl  0  0  0  0  0  0  0  0  0  0  0  0
   31.7460   30.7970   42.8310 C   0  0  0  0  0  0  0  0  0  0  0  0
   39.5677   34.0277   44.0729 H   0  0  0  0  0  0  0  0  0  0  0  0
   41.1743   32.2433   43.3973 H   0  0  0  0  0  0  0  0  0  0  0  0
   41.3287   30.1794   44.8225 H   0  0  0  0  0  0  0  0  0  0  0  0
   38.9116   33.4375   48.5892 H   0  0  0  0  0  0  0  0  0  0  0  0
   37.1091   33.3784   48.3291 H   0  0  0  0  0  0  0  0  0  0  0  0
   38.3421   33.0284   50.7406 H   0  0  0  0  0  0  0  0  0  0  0  0
   36.7276   32.3937   50.3106 H   0  0  0  0  0  0  0  0  0  0  0  0
   39.3445   30.8999   49.7854 H   0  0  0  0  0  0  0  0  0  0  0  0
   38.3527   30.6459   51.2377 H   0  0  0  0  0  0  0  0  0  0  0  0
   37.6829   29.0221   49.5272 H   0  0  0  0  0  0  0  0  0  0  0  0
   36.3621   30.2219   49.7196 H   0  0  0  0  0  0  0  0  0  0  0  0
   38.1778   29.6569   47.5308 H   0  0  0  0  0  0  0  0  0  0  0  0
   34.8076   30.1644   48.8212 H   0  0  0  0  0  0  0  0  0  0  0  0
   32.8600   30.0121   47.2723 H   0  0  0  0  0  0  0  0  0  0  0  0
   34.7125   28.5030   43.6620 H   0  0  0  0  0  0  0  0  0  0  0  0
   33.5404   28.2284   41.4521 H   0  0  0  0  0  0  0  0  0  0  0  0
   30.8970   31.4570   42.5995 H   0  0  0  0  0  0  0  0  0  0  0  0
  1  6  2  0
  2  1  1  0
  2  3  2  0
  3  4  1  0
  4  5  2  0
  5  7  1  0
  6  5  1  0
  7 12  1  0
  7  8  1  0
  8  9  1  0
  9 10  1  0
 11 10  1  0
 12 11  1  0
 13 14  2  0
 13 12  1  0
 15 14  1  0
 16 17  1  0
 16 15  2  0
 17 13  1  0
 19 20  2  0
 19 18  1  0
 20 16  1  0
 21 20  1  0
 22 21  2  0
 23 22  1  0
 23 25  2  0
 24 23  1  0
 25 19  1  0
  1 26  1  0
  2 27  1  0
  3 28  1  0
  8 29  1  0
  8 30  1  0
  9 31  1  0
  9 32  1  0
 10 33  1  0
 10 34  1  0
 11 35  1  0
 11 36  1  0
 12 37  1  6
 14 38  1  0
 15 39  1  0
 21 40  1  0
 22 41  1  0
 25 42  1  0
M  ISO  8  26  14  27  14  28  14  29  13  30  13  31  13  32  13  33  13
M  ISO  8  34  13  35  13  36  13  37  13  38  14  39  14  40  14  41  14
M  ISO  1  42  14
M  END
>  <minimizedAffinity>  (1) 
-5.73076916

>  <minimizedRMSD>  (1) 
0.312405318

$$$$
