
     RDKit          3D

 42 45  0  0  1  0  0  0  0  0999 V2000
   39.6360   33.1040   44.6530 C   0  0  0  0  0  0  0  0  0  0  0  0
   40.5330   32.1110   44.2710 C   0  0  0  0  0  0  0  0  0  0  0  0
   40.6190   30.9800   45.0570 C   0  0  0  0  0  0  0  0  0  0  0  0
   39.8200   30.9050   46.1580 N   0  0  0  0  0  0  0  0  0  0  0  0
   38.9600   31.8840   46.5020 C   0  0  0  0  0  0  0  0  0  0  0  0
   38.8670   32.9750   45.7570 N   0  0  0  0  0  0  0  0  0  0  0  0
   38.1500   31.7210   47.6920 N   0  0  0  0  0  0  0  0  0  0  0  0
   37.9980   32.8170   48.6110 C   0  0  0  0  0  0  0  0  0  0  0  0
   37.7890   32.3680   50.0370 C   0  0  0  0  0  0  0  0  0  0  0  0
   38.3220   30.9650   50.1670 C   0  0  0  0  0  0  0  0  0  0  0  0
   37.3950   30.0770   49.3720 C   0  0  0  0  0  0  0  0  0  0  0  0
   37.5020   30.4280   47.9320 C   0  0  1  0  0  0  0  0  0  0  0  0
   36.2360   30.3170   47.1970 C   0  0  0  0  0  0  0  0  0  0  0  0
   34.9540   30.1970   47.7310 C   0  0  0  0  0  0  0  0  0  0  0  0
   33.8800   30.1030   46.8940 C   0  0  0  0  0  0  0  0  0  0  0  0
   34.1610   30.1370   45.4850 C   0  0  0  0  0  0  0  0  0  0  0  0
   36.0450   30.3100   45.4850 S   0  0  0  0  0  0  0  0  0  0  0  0
   31.8990   32.1690   45.2170 Cl  0  0  0  0  0  0  0  0  0  0  0  0
   32.3810   30.9450   44.0610 C   0  0  0  0  0  0  0  0  0  0  0  0
   33.4150   30.0760   44.2730 C   0  0  0  0  0  0  0  0  0  0  0  0
   33.8480   29.0950   43.4160 C   0  0  0  0  0  0  0  0  0  0  0  0
   33.1700   28.9620   42.1980 C   0  0  0  0  0  0  0  0  0  0  0  0
   32.1020   29.8160   41.9130 C   0  0  0  0  0  0  0  0  0  0  0  0
   31.7200   30.7920   42.8360 C   0  0  0  0  0  0  0  0  0  0  0  0
   39.5508   34.0150   44.0423 H   0  0  0  0  0  0  0  0  0  0  0  0
   41.1543   32.2241   43.3703 H   0  0  0  0  0  0  0  0  0  0  0  0
   41.3114   30.1641   44.8024 H   0  0  0  0  0  0  0  0  0  0  0  0
   38.9049   33.4380   48.5686 H   0  0  0  0  0  0  0  0  0  0  0  0
   37.1012   33.3775   48.3083 H   0  0  0  0  0  0  0  0  0  0  0  0
   38.3297   33.0376   50.7221 H   0  0  0  0  0  0  0  0  0  0  0  0
   36.7196   32.3954   50.2931 H   0  0  0  0  0  0  0  0  0  0  0  0
   39.3430   30.9076   49.7617 H   0  0  0  0  0  0  0  0  0  0  0  0
   38.3645   30.6524   51.2208 H   0  0  0  0  0  0  0  0  0  0  0  0
   37.6793   29.0243   49.5167 H   0  0  0  0  0  0  0  0  0  0  0  0
   36.3594   30.2225   49.7130 H   0  0  0  0  0  0  0  0  0  0  0  0
   38.1685   29.6562   47.5196 H   0  0  0  0  0  0  0  0  0  0  0  0
   34.8087   30.1782   48.8212 H   0  0  0  0  0  0  0  0  0  0  0  0
   32.8536   30.0063   47.2776 H   0  0  0  0  0  0  0  0  0  0  0  0
   34.6929   28.4402   43.6754 H   0  0  0  0  0  0  0  0  0  0  0  0
   33.4753   28.1930   41.4732 H   0  0  0  0  0  0  0  0  0  0  0  0
   31.5610   29.7196   40.9601 H   0  0  0  0  0  0  0  0  0  0  0  0
   30.8782   31.4577   42.5945 H   0  0  0  0  0  0  0  0  0  0  0  0
  1  6  2  0
  2  1  1  0
  2  3  2  0
  3  4  1  0
  4  5  2  0
  5  7  1  0
  6  5  1  0
  7 12  1  0
  7  8  1  0
  8  9  1  0
  9 10  1  0
 11 10  1  0
 12 11  1  0
 13 14  2  0
 13 12  1  0
 15 14  1  0
 16 15  2  0
 17 16  1  0
 17 13  1  0
 19 20  2  0
 19 18  1  0
 20 16  1  0
 21 20  1  0
 22 21  2  0
 23 22  1  0
 23 24  2  0
 24 19  1  0
  1 25  1  0
  2 26  1  0
  3 27  1  0
  8 28  1  0
  8 29  1  0
  9 30  1  0
  9 31  1  0
 10 32  1  0
 10 33  1  0
 11 34  1  0
 11 35  1  0
 12 36  1  6
 14 37  1  0
 15 38  1  0
 21 39  1  0
 22 40  1  0
 23 41  1  0
 24 42  1  0
M  ISO  8  25  14  26  14  27  14  28  13  29  13  30  13  31  13  32  13
M  ISO  8  33  13  34  13  35  13  36  13  37  14  38  14  39  14  40  14
M  ISO  2  41  14  42  14
M  END
>  <minimizedAffinity>  (1) 
-5.72374487

>  <minimizedRMSD>  (1) 
0.313807458

$$$$
