
     RDKit          3D

 39 42  0  0  1  0  0  0  0  0999 V2000
   39.5870   33.0390   44.5730 C   0  0  0  0  0  0  0  0  0  0  0  0
   40.4560   32.0310   44.1700 C   0  0  0  0  0  0  0  0  0  0  0  0
   40.5310   30.8940   44.9440 C   0  0  0  0  0  0  0  0  0  0  0  0
   39.7490   30.8320   46.0560 N   0  0  0  0  0  0  0  0  0  0  0  0
   38.9090   31.8300   46.4290 C   0  0  0  0  0  0  0  0  0  0  0  0
   38.8330   32.9250   45.6890 N   0  0  0  0  0  0  0  0  0  0  0  0
   38.1220   31.6690   47.6300 N   0  0  0  0  0  0  0  0  0  0  0  0
   38.0150   32.7620   48.5590 C   0  0  0  0  0  0  0  0  0  0  0  0
   37.8200   32.3070   49.9830 C   0  0  0  0  0  0  0  0  0  0  0  0
   38.3200   30.8910   50.0960 C   0  0  0  0  0  0  0  0  0  0  0  0
   37.3580   30.0320   49.3100 C   0  0  0  0  0  0  0  0  0  0  0  0
   37.4530   30.3870   47.8720 C   0  0  1  0  0  0  0  0  0  0  0  0
   36.1720   30.3070   47.1600 C   0  0  0  0  0  0  0  0  0  0  0  0
   34.8950   30.2340   47.7150 C   0  0  0  0  0  0  0  0  0  0  0  0
   33.8000   30.1730   46.8930 C   0  0  0  0  0  0  0  0  0  0  0  0
   34.0700   30.1900   45.4780 C   0  0  0  0  0  0  0  0  0  0  0  0
   35.9460   30.2970   45.4500 S   0  0  0  0  0  0  0  0  0  0  0  0
   33.3190   30.1520   44.3410 C   0  0  0  0  0  0  0  0  0  0  0  0
   32.4660   29.2260   43.8430 C   0  0  0  0  0  0  0  0  0  0  0  0
   31.8730   29.5190   42.6540 C   0  0  0  0  0  0  0  0  0  0  0  0
   32.1160   30.7160   41.9610 C   0  0  0  0  0  0  0  0  0  0  0  0
   33.3620   31.4970   43.2020 S   0  0  0  0  0  0  0  0  0  0  0  0
   39.5111   33.9540   43.9671 H   0  0  0  0  0  0  0  0  0  0  0  0
   41.0652   32.1384   43.2604 H   0  0  0  0  0  0  0  0  0  0  0  0
   41.2003   30.0643   44.6725 H   0  0  0  0  0  0  0  0  0  0  0  0
   38.9369   33.3596   48.5050 H   0  0  0  0  0  0  0  0  0  0  0  0
   37.1285   33.3488   48.2764 H   0  0  0  0  0  0  0  0  0  0  0  0
   38.3884   32.9582   50.6633 H   0  0  0  0  0  0  0  0  0  0  0  0
   36.7557   32.3576   50.2562 H   0  0  0  0  0  0  0  0  0  0  0  0
   39.3327   30.8109   49.6741 H   0  0  0  0  0  0  0  0  0  0  0  0
   38.3719   30.5703   51.1469 H   0  0  0  0  0  0  0  0  0  0  0  0
   37.6163   28.9714   49.4454 H   0  0  0  0  0  0  0  0  0  0  0  0
   36.3317   30.2034   49.6669 H   0  0  0  0  0  0  0  0  0  0  0  0
   38.0989   29.6064   47.4436 H   0  0  0  0  0  0  0  0  0  0  0  0
   34.7670   30.2254   48.8075 H   0  0  0  0  0  0  0  0  0  0  0  0
   32.7758   30.1145   47.2901 H   0  0  0  0  0  0  0  0  0  0  0  0
   32.2626   28.2839   44.3732 H   0  0  0  0  0  0  0  0  0  0  0  0
   31.1752   28.7889   42.2180 H   0  0  0  0  0  0  0  0  0  0  0  0
   31.7181   31.0904   41.0063 H   0  0  0  0  0  0  0  0  0  0  0  0
  1  6  2  0
  2  1  1  0
  2  3  2  0
  3  4  1  0
  4  5  2  0
  5  7  1  0
  6  5  1  0
  7 12  1  0
  7  8  1  0
  8  9  1  0
  9 10  1  0
 11 10  1  0
 12 11  1  0
 13 14  2  0
 13 12  1  0
 15 14  1  0
 16 15  2  0
 17 16  1  0
 17 13  1  0
 18 16  1  0
 19 18  2  0
 20 19  1  0
 21 20  2  0
 21 22  1  0
 22 18  1  0
  1 23  1  0
  2 24  1  0
  3 25  1  0
  8 26  1  0
  8 27  1  0
  9 28  1  0
  9 29  1  0
 10 30  1  0
 10 31  1  0
 11 32  1  0
 11 33  1  0
 12 34  1  6
 14 35  1  0
 15 36  1  0
 19 37  1  0
 20 38  1  0
 21 39  1  0
M  ISO  8  23  14  24  14  25  14  26  13  27  13  28  13  29  13  30  13
M  ISO  8  31  13  32  13  33  13  34  13  35  14  36  14  37  14  38  14
M  ISO  1  39  14
M  END
>  <minimizedAffinity>  (1) 
-5.51017666

>  <minimizedRMSD>  (1) 
0.15084514

$$$$
