
     RDKit          3D

 33 35  0  0  1  0  0  0  0  0999 V2000
   39.5820   33.0330   44.5370 C   0  0  0  0  0  0  0  0  0  0  0  0
   40.4750   32.0310   44.1580 C   0  0  0  0  0  0  0  0  0  0  0  0
   40.5630   30.9110   44.9570 C   0  0  0  0  0  0  0  0  0  0  0  0
   39.7750   30.8600   46.0620 N   0  0  0  0  0  0  0  0  0  0  0  0
   38.9190   31.8410   46.4110 C   0  0  0  0  0  0  0  0  0  0  0  0
   38.8250   32.9220   45.6490 N   0  0  0  0  0  0  0  0  0  0  0  0
   38.1190   31.6910   47.6090 N   0  0  0  0  0  0  0  0  0  0  0  0
   37.9800   32.8030   48.5120 C   0  0  0  0  0  0  0  0  0  0  0  0
   37.8000   32.3650   49.9460 C   0  0  0  0  0  0  0  0  0  0  0  0
   38.3240   30.9620   50.0890 C   0  0  0  0  0  0  0  0  0  0  0  0
   37.3630   30.0890   49.3190 C   0  0  0  0  0  0  0  0  0  0  0  0
   37.4760   30.3990   47.8690 C   0  0  1  0  0  0  0  0  0  0  0  0
   36.1880   30.2830   47.1430 C   0  0  0  0  0  0  0  0  0  0  0  0
   34.9080   30.2370   47.6950 C   0  0  0  0  0  0  0  0  0  0  0  0
   33.8540   30.1390   46.8640 C   0  0  0  0  0  0  0  0  0  0  0  0
   34.1000   30.0870   45.4500 C   0  0  0  0  0  0  0  0  0  0  0  0
   36.0010   30.1940   45.4380 S   0  0  0  0  0  0  0  0  0  0  0  0
   33.0290   29.9550   43.9130 S   0  0  0  0  0  0  0  0  0  0  0  0
   39.4924   33.9356   43.9147 H   0  0  0  0  0  0  0  0  0  0  0  0
   41.0892   32.1311   43.2510 H   0  0  0  0  0  0  0  0  0  0  0  0
   41.2479   30.0870   44.7081 H   0  0  0  0  0  0  0  0  0  0  0  0
   38.8833   33.4271   48.4446 H   0  0  0  0  0  0  0  0  0  0  0  0
   37.0793   33.3617   48.2178 H   0  0  0  0  0  0  0  0  0  0  0  0
   38.3587   33.0389   50.6122 H   0  0  0  0  0  0  0  0  0  0  0  0
   36.7346   32.3977   50.2179 H   0  0  0  0  0  0  0  0  0  0  0  0
   39.3362   30.8852   49.6654 H   0  0  0  0  0  0  0  0  0  0  0  0
   38.3930   30.6590   51.1442 H   0  0  0  0  0  0  0  0  0  0  0  0
   37.6098   29.0307   49.4894 H   0  0  0  0  0  0  0  0  0  0  0  0
   36.3348   30.2814   49.6592 H   0  0  0  0  0  0  0  0  0  0  0  0
   38.1392   29.6199   47.4650 H   0  0  0  0  0  0  0  0  0  0  0  0
   34.7633   30.2798   48.7846 H   0  0  0  0  0  0  0  0  0  0  0  0
   32.8280   30.0996   47.2586 H   0  0  0  0  0  0  0  0  0  0  0  0
   31.7194   29.7936   44.2814 H   0  0  0  0  0  0  0  0  0  0  0  0
  1  6  2  0
  2  1  1  0
  2  3  2  0
  3  4  1  0
  4  5  2  0
  5  7  1  0
  6  5  1  0
  7 12  1  0
  7  8  1  0
  8  9  1  0
  9 10  1  0
 11 10  1  0
 12 11  1  0
 13 14  2  0
 13 12  1  0
 15 14  1  0
 16 15  2  0
 17 16  1  0
 17 13  1  0
 18 16  1  0
  1 19  1  0
  2 20  1  0
  3 21  1  0
  8 22  1  0
  8 23  1  0
  9 24  1  0
  9 25  1  0
 10 26  1  0
 10 27  1  0
 11 28  1  0
 11 29  1  0
 12 30  1  6
 14 31  1  0
 15 32  1  0
 18 33  1  0
M  ISO  8  19  14  20  14  21  14  22  13  23  13  24  13  25  13  26  13
M  ISO  7  27  13  28  13  29  13  30  13  31  14  32  14  33  11
M  END
>  <minimizedAffinity>  (1) 
-5.43357563

>  <minimizedRMSD>  (1) 
0.0230405536

$$$$
