
     RDKit          3D

 36 38  0  0  1  0  0  0  0  0999 V2000
   39.4480   32.9520   44.3790 C   0  0  0  0  0  0  0  0  0  0  0  0
   40.3320   31.9470   44.0040 C   0  0  0  0  0  0  0  0  0  0  0  0
   40.4610   30.8630   44.8460 C   0  0  0  0  0  0  0  0  0  0  0  0
   39.7260   30.8350   45.9860 N   0  0  0  0  0  0  0  0  0  0  0  0
   38.8660   31.8370   46.3270 C   0  0  0  0  0  0  0  0  0  0  0  0
   38.7350   32.8830   45.5240 N   0  0  0  0  0  0  0  0  0  0  0  0
   38.1180   31.7330   47.5600 N   0  0  0  0  0  0  0  0  0  0  0  0
   38.0050   32.8820   48.4200 C   0  0  0  0  0  0  0  0  0  0  0  0
   37.8820   32.5070   49.8770 C   0  0  0  0  0  0  0  0  0  0  0  0
   38.4300   31.1110   50.0540 C   0  0  0  0  0  0  0  0  0  0  0  0
   37.4510   30.1920   49.3620 C   0  0  0  0  0  0  0  0  0  0  0  0
   37.5000   30.4470   47.8990 C   0  0  1  0  0  0  0  0  0  0  0  0
   36.1830   30.2930   47.2350 C   0  0  0  0  0  0  0  0  0  0  0  0
   34.9240   30.2230   47.8420 C   0  0  0  0  0  0  0  0  0  0  0  0
   33.8410   30.0940   47.0490 C   0  0  0  0  0  0  0  0  0  0  0  0
   34.0240   30.0340   45.6190 C   0  0  0  0  0  0  0  0  0  0  0  0
   35.9240   30.1840   45.5370 S   0  0  0  0  0  0  0  0  0  0  0  0
   32.3480   30.8970   44.0740 C   0  0  0  0  0  0  0  0  0  0  0  0
   32.1480   31.9380   44.7480 O   0  0  0  0  0  0  0  0  0  0  0  0
   33.2670   29.9120   44.4520 N   0  0  0  0  0  0  0  0  0  0  0  0
   39.3257   33.8280   43.7250 H   0  0  0  0  0  0  0  0  0  0  0  0
   40.9078   32.0142   43.0692 H   0  0  0  0  0  0  0  0  0  0  0  0
   41.1455   30.0382   44.5987 H   0  0  0  0  0  0  0  0  0  0  0  0
   38.9007   33.5075   48.2917 H   0  0  0  0  0  0  0  0  0  0  0  0
   37.0892   33.4214   48.1365 H   0  0  0  0  0  0  0  0  0  0  0  0
   38.4575   33.2136   50.4930 H   0  0  0  0  0  0  0  0  0  0  0  0
   36.8283   32.5436   50.1906 H   0  0  0  0  0  0  0  0  0  0  0  0
   39.4247   31.0288   49.5915 H   0  0  0  0  0  0  0  0  0  0  0  0
   38.5440   30.8533   51.1173 H   0  0  0  0  0  0  0  0  0  0  0  0
   37.7223   29.1451   49.5633 H   0  0  0  0  0  0  0  0  0  0  0  0
   36.4347   30.3801   49.7384 H   0  0  0  0  0  0  0  0  0  0  0  0
   38.1547   29.6590   47.4985 H   0  0  0  0  0  0  0  0  0  0  0  0
   34.8207   30.2719   48.9360 H   0  0  0  0  0  0  0  0  0  0  0  0
   32.8331   30.0354   47.4857 H   0  0  0  0  0  0  0  0  0  0  0  0
   31.7754   30.7535   43.1458 H   0  0  0  0  0  0  0  0  0  0  0  0
   33.3876   29.0798   43.8572 H   0  0  0  0  0  0  0  0  0  0  0  0
  1  6  2  0
  2  1  1  0
  2  3  2  0
  3  4  1  0
  4  5  2  0
  5  7  1  0
  6  5  1  0
  7 12  1  0
  7  8  1  0
  8  9  1  0
  9 10  1  0
 11 10  1  0
 12 11  1  0
 13 14  2  0
 13 12  1  0
 15 14  1  0
 16 15  2  0
 17 16  1  0
 17 13  1  0
 18 20  1  0
 18 19  2  0
 20 16  1  0
  1 21  1  0
  2 22  1  0
  3 23  1  0
  8 24  1  0
  8 25  1  0
  9 26  1  0
  9 27  1  0
 10 28  1  0
 10 29  1  0
 11 30  1  0
 11 31  1  0
 12 32  1  6
 14 33  1  0
 15 34  1  0
 18 35  1  0
 20 36  1  0
M  ISO  8  21  14  22  14  23  14  24  13  25  13  26  13  27  13  28  13
M  ISO  7  29  13  30  13  31  13  32  13  33  14  34  14  35   6
M  END
>  <minimizedAffinity>  (1) 
-5.41859198

>  <minimizedRMSD>  (1) 
0.57280755

$$$$
