
     RDKit          3D

 38 40  0  0  1  0  0  0  0  0999 V2000
   39.6200   33.0930   44.6340 C   0  0  0  0  0  0  0  0  0  0  0  0
   40.5220   32.1040   44.2560 C   0  0  0  0  0  0  0  0  0  0  0  0
   40.6130   30.9760   45.0430 C   0  0  0  0  0  0  0  0  0  0  0  0
   39.8170   30.8950   46.1440 N   0  0  0  0  0  0  0  0  0  0  0  0
   38.9430   31.8780   46.4900 C   0  0  0  0  0  0  0  0  0  0  0  0
   38.8510   32.9640   45.7380 N   0  0  0  0  0  0  0  0  0  0  0  0
   38.1340   31.7090   47.6800 N   0  0  0  0  0  0  0  0  0  0  0  0
   37.9880   32.8150   48.5880 C   0  0  0  0  0  0  0  0  0  0  0  0
   37.7900   32.3650   50.0200 C   0  0  0  0  0  0  0  0  0  0  0  0
   38.3390   30.9600   50.1450 C   0  0  0  0  0  0  0  0  0  0  0  0
   37.3820   30.0880   49.3650 C   0  0  0  0  0  0  0  0  0  0  0  0
   37.4940   30.4100   47.9180 C   0  0  1  0  0  0  0  0  0  0  0  0
   36.2210   30.2940   47.1890 C   0  0  0  0  0  0  0  0  0  0  0  0
   34.9260   30.2250   47.7400 C   0  0  0  0  0  0  0  0  0  0  0  0
   33.8820   30.1350   46.8860 C   0  0  0  0  0  0  0  0  0  0  0  0
   34.1510   30.1160   45.4640 C   0  0  0  0  0  0  0  0  0  0  0  0
   36.0450   30.2380   45.4740 S   0  0  0  0  0  0  0  0  0  0  0  0
   33.4120   30.0400   44.2500 C   0  0  0  0  0  0  0  0  0  0  0  0
   32.6740   31.3090   43.8990 C   0  0  0  0  0  0  0  0  0  0  0  0
   39.5304   34.0014   44.0201 H   0  0  0  0  0  0  0  0  0  0  0  0
   41.1441   32.2186   43.3560 H   0  0  0  0  0  0  0  0  0  0  0  0
   41.3097   30.1638   44.7882 H   0  0  0  0  0  0  0  0  0  0  0  0
   38.8937   33.4370   48.5354 H   0  0  0  0  0  0  0  0  0  0  0  0
   37.0929   33.3793   48.2874 H   0  0  0  0  0  0  0  0  0  0  0  0
   38.3291   33.0392   50.7018 H   0  0  0  0  0  0  0  0  0  0  0  0
   36.7224   32.3847   50.2842 H   0  0  0  0  0  0  0  0  0  0  0  0
   39.3503   30.9018   49.7162 H   0  0  0  0  0  0  0  0  0  0  0  0
   38.4202   30.6430   51.1952 H   0  0  0  0  0  0  0  0  0  0  0  0
   37.6339   29.0295   49.5267 H   0  0  0  0  0  0  0  0  0  0  0  0
   36.3526   30.2733   49.7057 H   0  0  0  0  0  0  0  0  0  0  0  0
   38.1562   29.6357   47.5034 H   0  0  0  0  0  0  0  0  0  0  0  0
   34.7698   30.2437   48.8287 H   0  0  0  0  0  0  0  0  0  0  0  0
   32.8504   30.0775   47.2636 H   0  0  0  0  0  0  0  0  0  0  0  0
   34.1118   29.8098   43.4331 H   0  0  0  0  0  0  0  0  0  0  0  0
   32.6511   29.2580   44.3895 H   0  0  0  0  0  0  0  0  0  0  0  0
   32.3735   31.8258   44.8224 H   0  0  0  0  0  0  0  0  0  0  0  0
   33.3317   31.9646   43.3094 H   0  0  0  0  0  0  0  0  0  0  0  0
   31.7789   31.0615   43.3094 H   0  0  0  0  0  0  0  0  0  0  0  0
  1  6  2  0
  2  1  1  0
  2  3  2  0
  3  4  1  0
  4  5  2  0
  5  7  1  0
  6  5  1  0
  7 12  1  0
  7  8  1  0
  8  9  1  0
  9 10  1  0
 11 10  1  0
 12 11  1  0
 13 14  2  0
 13 12  1  0
 15 14  1  0
 16 17  1  0
 16 15  2  0
 17 13  1  0
 18 16  1  0
 19 18  1  0
  1 20  1  0
  2 21  1  0
  3 22  1  0
  8 23  1  0
  8 24  1  0
  9 25  1  0
  9 26  1  0
 10 27  1  0
 10 28  1  0
 11 29  1  0
 11 30  1  0
 12 31  1  6
 14 32  1  0
 15 33  1  0
 18 34  1  0
 18 35  1  0
 19 36  1  0
 19 37  1  0
 19 38  1  0
M  ISO  8  20  14  21  14  22  14  23  13  24  13  25  13  26  13  27  13
M  ISO  8  28  13  29  13  30  13  31  13  32  14  33  14  34   8  35   8
M  ISO  3  36   8  37   8  38   8
M  END
>  <minimizedAffinity>  (1) 
-5.29875088

>  <minimizedRMSD>  (1) 
0.130511478

$$$$
