
     RDKit          3D

 22 23  0  0  0  0  0  0  0  0999 V2000
   37.8850   33.0340   49.7550 C   0  0  0  0  0  0  0  0  0  0  0  0
   38.7530   33.3250   48.6720 C   0  0  0  0  0  0  0  0  0  0  0  0
   38.6650   32.5080   47.5490 C   0  0  0  0  0  0  0  0  0  0  0  0
   37.7740   31.4900   47.5390 N   0  0  0  0  0  0  0  0  0  0  0  0
   36.9650   31.2340   48.5750 C   0  0  0  0  0  0  0  0  0  0  0  0
   37.0310   32.0130   49.6770 N   0  0  0  0  0  0  0  0  0  0  0  0
   39.5350   32.8130   46.4800 N   0  0  0  0  0  0  0  0  0  0  0  0
   35.3990   30.5720   46.3000 F   0  0  0  0  0  0  0  0  0  0  0  0
   35.2650   29.8550   47.4290 C   0  0  0  0  0  0  0  0  0  0  0  0
   36.0040   30.1360   48.5620 C   0  0  0  0  0  0  0  0  0  0  0  0
   35.7970   29.3440   49.6710 C   0  0  0  0  0  0  0  0  0  0  0  0
   34.9030   28.2940   49.7200 C   0  0  0  0  0  0  0  0  0  0  0  0
   34.1650   28.0170   48.5770 C   0  0  0  0  0  0  0  0  0  0  0  0
   34.3650   28.8110   47.4470 C   0  0  0  0  0  0  0  0  0  0  0  0
   37.9164   33.6534   50.6635 H   0  0  0  0  0  0  0  0  0  0  0  0
   39.4659   34.1614   48.7177 H   0  0  0  0  0  0  0  0  0  0  0  0
   39.5160   32.2435   45.6220 H   0  0  0  0  0  0  0  0  0  0  0  0
   40.1888   33.6050   46.5580 H   0  0  0  0  0  0  0  0  0  0  0  0
   36.3826   29.5633   50.5759 H   0  0  0  0  0  0  0  0  0  0  0  0
   34.7791   27.6959   50.6348 H   0  0  0  0  0  0  0  0  0  0  0  0
   33.4392   27.1905   48.5625 H   0  0  0  0  0  0  0  0  0  0  0  0
   33.7837   28.5961   46.5382 H   0  0  0  0  0  0  0  0  0  0  0  0
  2  1  2  0
  3  2  1  0
  4  3  2  0
  4  5  1  0
  5  6  2  0
  6  1  1  0
  7  3  1  0
  8  9  1  0
  9 14  2  0
  9 10  1  0
 10  5  1  0
 10 11  2  0
 11 12  1  0
 13 12  2  0
 14 13  1  0
  1 15  1  0
  2 16  1  0
  7 17  1  0
  7 18  1  0
 11 19  1  0
 12 20  1  0
 13 21  1  0
 14 22  1  0
M  ISO  6  15  14  16  14  19  14  20  14  21  14  22  14
M  END
>  <minimizedAffinity>  (1) 
-5.38217068

>  <minimizedRMSD>  (1) 
3.13333607

$$$$
