
     RDKit          3D

 29 32  0  0  0  0  0  0  0  0999 V2000
   36.0840   29.6230   50.6780 C   0  0  0  0  0  0  0  0  0  0  0  0
   36.8180   30.3390   49.7380 C   0  0  0  0  0  0  0  0  0  0  0  0
   36.5040   30.2240   48.3870 C   0  0  0  0  0  0  0  0  0  0  0  0
   35.4870   29.4130   48.0480 N   0  0  0  0  0  0  0  0  0  0  0  0
   34.7740   28.7160   48.9740 C   0  0  0  0  0  0  0  0  0  0  0  0
   35.0780   28.8280   50.2780 N   0  0  0  0  0  0  0  0  0  0  0  0
   36.8260   30.6560   46.0260 C   0  0  0  0  0  0  0  0  0  0  0  0
   37.2100   30.9290   47.3280 C   0  0  0  0  0  0  0  0  0  0  0  0
   38.2140   31.8310   47.5590 C   0  0  0  0  0  0  0  0  0  0  0  0
   38.8240   32.4500   46.4810 C   0  0  0  0  0  0  0  0  0  0  0  0
   39.8310   33.3670   46.4850 N   0  0  0  0  0  0  0  0  0  0  0  0
   40.0780   33.6670   45.1890 C   0  0  0  0  0  0  0  0  0  0  0  0
   39.2600   32.9710   44.3750 N   0  0  0  0  0  0  0  0  0  0  0  0
   38.4680   32.2030   45.1510 C   0  0  0  0  0  0  0  0  0  0  0  0
   37.4460   31.2840   44.9410 C   0  0  0  0  0  0  0  0  0  0  0  0
   33.6570   27.8280   48.5720 C   0  0  0  0  0  0  0  0  0  0  0  0
   33.7410   26.6480   47.7090 C   0  0  0  0  0  0  0  0  0  0  0  0
   32.0580   26.1010   47.6670 S   0  0  0  0  0  0  0  0  0  0  0  0
   31.4590   27.5020   48.7950 C   0  0  0  0  0  0  0  0  0  0  0  0
   32.4830   28.1790   49.0670 N   0  0  0  0  0  0  0  0  0  0  0  0
   36.3271   29.7078   51.7474 H   0  0  0  0  0  0  0  0  0  0  0  0
   37.6420   30.9924   50.0606 H   0  0  0  0  0  0  0  0  0  0  0  0
   36.0186   29.9320   45.8417 H   0  0  0  0  0  0  0  0  0  0  0  0
   38.5316   32.0607   48.5868 H   0  0  0  0  0  0  0  0  0  0  0  0
   40.3094   33.7550   47.3105 H   0  0  0  0  0  0  0  0  0  0  0  0
   40.8416   34.3810   44.8468 H   0  0  0  0  0  0  0  0  0  0  0  0
   37.1233   31.0496   43.9159 H   0  0  0  0  0  0  0  0  0  0  0  0
   34.6224   26.2136   47.2145 H   0  0  0  0  0  0  0  0  0  0  0  0
   30.4304   27.6845   49.1396 H   0  0  0  0  0  0  0  0  0  0  0  0
  2  1  2  0
  3  2  1  0
  4  3  2  0
  4  5  1  0
  5  6  2  0
  6  1  1  0
  7  8  2  0
  8  9  1  0
  8  3  1  0
 10 11  1  0
 10  9  2  0
 12 11  1  0
 13 14  1  0
 13 12  2  0
 14 10  1  0
 15 14  2  0
 15  7  1  0
 16  5  1  0
 16 20  1  0
 17 16  2  0
 18 17  1  0
 18 19  1  0
 19 20  2  0
  1 21  1  0
  2 22  1  0
  7 23  1  0
  9 24  1  0
 11 25  1  0
 12 26  1  0
 15 27  1  0
 17 28  1  0
 19 29  1  0
M  ISO  8  21  14  22  14  23  14  24  14  25   9  26  14  27  14  28  14
M  ISO  1  29  14
M  END
>  <minimizedAffinity>  (1) 
-6.06413364

>  <minimizedRMSD>  (1) 
1.41971385

$$$$
