
     RDKit          3D

 25 27  0  0  0  0  0  0  0  0999 V2000
   37.1650   30.7920   46.5780 C   0  0  0  0  0  0  0  0  0  0  0  0
   37.7860   31.2100   47.7510 C   0  0  0  0  0  0  0  0  0  0  0  0
   38.8100   32.1470   47.7170 C   0  0  0  0  0  0  0  0  0  0  0  0
   39.1820   32.6430   46.4790 C   0  0  0  0  0  0  0  0  0  0  0  0
   40.1360   33.5530   46.1710 N   0  0  0  0  0  0  0  0  0  0  0  0
   40.1270   33.7140   44.8400 C   0  0  0  0  0  0  0  0  0  0  0  0
   39.1960   32.9350   44.2880 N   0  0  0  0  0  0  0  0  0  0  0  0
   38.5830   32.2510   45.2790 C   0  0  0  0  0  0  0  0  0  0  0  0
   37.5590   31.3080   45.3410 C   0  0  0  0  0  0  0  0  0  0  0  0
   37.3910   30.1800   51.3490 C   0  0  0  0  0  0  0  0  0  0  0  0
   37.9460   30.7930   50.2280 C   0  0  0  0  0  0  0  0  0  0  0  0
   37.3110   30.6220   49.0000 C   0  0  0  0  0  0  0  0  0  0  0  0
   36.1750   29.8660   48.9340 N   0  0  0  0  0  0  0  0  0  0  0  0
   35.6620   29.2840   50.0440 C   0  0  0  0  0  0  0  0  0  0  0  0
   36.2660   29.4400   51.2410 N   0  0  0  0  0  0  0  0  0  0  0  0
   34.4470   28.4810   49.9470 C   0  0  0  0  0  0  0  0  0  0  0  0
   34.2830   27.6990   48.9750 O   0  0  0  0  0  0  0  0  0  0  0  0
   36.3561   30.0481   46.6252 H   0  0  0  0  0  0  0  0  0  0  0  0
   39.3071   32.4827   48.6391 H   0  0  0  0  0  0  0  0  0  0  0  0
   40.7560   34.0342   46.8380 H   0  0  0  0  0  0  0  0  0  0  0  0
   40.7918   34.3911   44.2835 H   0  0  0  0  0  0  0  0  0  0  0  0
   37.0625   30.9710   44.4191 H   0  0  0  0  0  0  0  0  0  0  0  0
   37.8729   30.2995   52.3306 H   0  0  0  0  0  0  0  0  0  0  0  0
   38.8620   31.3965   50.3104 H   0  0  0  0  0  0  0  0  0  0  0  0
   33.6734   28.5596   50.7250 H   0  0  0  0  0  0  0  0  0  0  0  0
  1  2  2  0
  2 12  1  0
  3  2  1  0
  4  3  2  0
  5  4  1  0
  6  5  1  0
  7  6  2  0
  7  8  1  0
  8  9  2  0
  8  4  1  0
  9  1  1  0
 11 10  2  0
 12 11  1  0
 13 12  2  0
 13 14  1  0
 14 15  2  0
 15 10  1  0
 16 14  1  0
 17 16  2  0
  1 18  1  0
  3 19  1  0
  5 20  1  0
  6 21  1  0
  9 22  1  0
 10 23  1  0
 11 24  1  0
 16 25  1  0
M  ISO  8  18  14  19  14  20   9  21  14  22  14  23  14  24  14  25   6
M  END
>  <minimizedAffinity>  (1) 
-6.11673689

>  <minimizedRMSD>  (1) 
0.508775771

$$$$
