
     RDKit          3D

 27 29  0  0  0  0  0  0  0  0999 V2000
   37.1580   30.8220   46.5810 C   0  0  0  0  0  0  0  0  0  0  0  0
   37.7470   31.2500   47.7600 C   0  0  0  0  0  0  0  0  0  0  0  0
   38.7610   32.1830   47.7030 C   0  0  0  0  0  0  0  0  0  0  0  0
   39.1520   32.6580   46.4690 C   0  0  0  0  0  0  0  0  0  0  0  0
   40.1230   33.5720   46.1850 N   0  0  0  0  0  0  0  0  0  0  0  0
   40.1380   33.7120   44.8450 C   0  0  0  0  0  0  0  0  0  0  0  0
   39.2130   32.9180   44.2840 N   0  0  0  0  0  0  0  0  0  0  0  0
   38.5800   32.2470   45.2650 C   0  0  0  0  0  0  0  0  0  0  0  0
   37.5630   31.3100   45.3350 C   0  0  0  0  0  0  0  0  0  0  0  0
   37.4070   30.0650   51.3030 C   0  0  0  0  0  0  0  0  0  0  0  0
   37.9860   30.6390   50.1820 C   0  0  0  0  0  0  0  0  0  0  0  0
   37.2470   30.6770   48.9950 C   0  0  0  0  0  0  0  0  0  0  0  0
   35.9770   30.1480   48.9760 N   0  0  0  0  0  0  0  0  0  0  0  0
   35.4590   29.6010   50.0940 C   0  0  0  0  0  0  0  0  0  0  0  0
   36.1480   29.5540   51.2410 N   0  0  0  0  0  0  0  0  0  0  0  0
   34.1150   29.0500   50.0450 C   0  0  0  0  0  0  0  0  0  0  0  0
   33.8360   28.0560   49.3410 O   0  0  0  0  0  0  0  0  0  0  0  0
   33.0720   29.6470   50.8140 N   0  0  0  0  0  0  0  0  0  0  0  0
   36.3494   30.0777   46.6267 H   0  0  0  0  0  0  0  0  0  0  0  0
   39.2475   32.5406   48.6224 H   0  0  0  0  0  0  0  0  0  0  0  0
   40.7267   34.0598   46.8621 H   0  0  0  0  0  0  0  0  0  0  0  0
   40.8120   34.3813   44.2903 H   0  0  0  0  0  0  0  0  0  0  0  0
   37.0766   30.9517   44.4158 H   0  0  0  0  0  0  0  0  0  0  0  0
   37.9687   30.0225   52.2478 H   0  0  0  0  0  0  0  0  0  0  0  0
   39.0034   31.0551   50.2249 H   0  0  0  0  0  0  0  0  0  0  0  0
   32.1192   29.2572   50.7799 H   0  0  0  0  0  0  0  0  0  0  0  0
   33.2718   30.4678   51.4033 H   0  0  0  0  0  0  0  0  0  0  0  0
  1  2  2  0
  2 12  1  0
  3  2  1  0
  4  3  2  0
  5  4  1  0
  6  5  1  0
  7  6  2  0
  7  8  1  0
  8  9  2  0
  8  4  1  0
  9  1  1  0
 11 10  2  0
 12 11  1  0
 13 12  2  0
 13 14  1  0
 14 15  2  0
 15 10  1  0
 16 14  1  0
 16 18  1  0
 17 16  2  0
  1 19  1  0
  3 20  1  0
  5 21  1  0
  6 22  1  0
  9 23  1  0
 10 24  1  0
 11 25  1  0
 18 26  1  0
 18 27  1  0
M  ISO  7  19  14  20  14  21   9  22  14  23  14  24  14  25  14
M  END
>  <minimizedAffinity>  (1) 
-6.53443718

>  <minimizedRMSD>  (1) 
0.391170621

$$$$
