
     RDKit          3D

 36 39  0  0  1  0  0  0  0  0999 V2000
   36.1030   29.1420   49.7560 C   0  0  0  0  0  0  0  0  0  0  0  0
   36.9670   29.8780   48.9470 C   0  0  0  0  0  0  0  0  0  0  0  0
   36.5280   30.2590   47.6700 C   0  0  0  0  0  0  0  0  0  0  0  0
   35.2660   29.8900   47.2710 N   0  0  0  0  0  0  0  0  0  0  0  0
   34.4690   29.1790   48.0900 C   0  0  0  0  0  0  0  0  0  0  0  0
   34.8810   28.8110   49.3120 N   0  0  0  0  0  0  0  0  0  0  0  0
   37.1030   30.8090   45.3880 C   0  0  0  0  0  0  0  0  0  0  0  0
   37.3350   31.0260   46.7410 C   0  0  0  0  0  0  0  0  0  0  0  0
   38.2930   31.9340   47.1400 C   0  0  0  0  0  0  0  0  0  0  0  0
   39.0010   32.6090   46.1690 C   0  0  0  0  0  0  0  0  0  0  0  0
   39.9800   33.5390   46.3140 N   0  0  0  0  0  0  0  0  0  0  0  0
   40.3630   33.9060   45.0840 C   0  0  0  0  0  0  0  0  0  0  0  0
   39.6610   33.2410   44.1610 N   0  0  0  0  0  0  0  0  0  0  0  0
   38.8010   32.4220   44.8080 C   0  0  0  0  0  0  0  0  0  0  0  0
   37.8310   31.5020   44.4130 C   0  0  0  0  0  0  0  0  0  0  0  0
   33.1430   28.8240   47.6000 C   0  0  0  0  0  0  0  0  0  0  0  0
   32.6290   29.3940   46.6130 O   0  0  0  0  0  0  0  0  0  0  0  0
   32.4850   27.7380   48.3830 C   0  0  1  0  0  0  0  0  0  0  0  0
   30.9660   27.8610   48.3350 C   0  0  0  0  0  0  0  0  0  0  0  0
   30.6340   26.4220   48.7580 C   0  0  0  0  0  0  0  0  0  0  0  0
   31.5500   25.6230   48.0940 O   0  0  0  0  0  0  0  0  0  0  0  0
   32.6340   26.3910   47.7350 C   0  0  0  0  0  0  0  0  0  0  0  0
   36.4239   28.8317   50.7613 H   0  0  0  0  0  0  0  0  0  0  0  0
   37.9709   30.1541   49.3019 H   0  0  0  0  0  0  0  0  0  0  0  0
   36.3369   30.0828   45.0787 H   0  0  0  0  0  0  0  0  0  0  0  0
   38.4875   32.1152   48.2074 H   0  0  0  0  0  0  0  0  0  0  0  0
   40.3575   33.8955   47.2036 H   0  0  0  0  0  0  0  0  0  0  0  0
   41.1440   34.6489   44.8647 H   0  0  0  0  0  0  0  0  0  0  0  0
   37.6392   31.3220   43.3449 H   0  0  0  0  0  0  0  0  0  0  0  0
   32.9445   27.8267   49.3785 H   0  0  0  0  0  0  0  0  0  0  0  0
   30.5836   28.6058   49.0484 H   0  0  0  0  0  0  0  0  0  0  0  0
   30.5345   28.2005   47.3818 H   0  0  0  0  0  0  0  0  0  0  0  0
   30.7406   26.3066   49.8467 H   0  0  0  0  0  0  0  0  0  0  0  0
   29.5977   26.1509   48.5081 H   0  0  0  0  0  0  0  0  0  0  0  0
   33.5618   25.9114   48.0803 H   0  0  0  0  0  0  0  0  0  0  0  0
   32.6813   26.4968   46.6411 H   0  0  0  0  0  0  0  0  0  0  0  0
  2  1  2  0
  3  2  1  0
  4  3  2  0
  4  5  1  0
  5  6  2  0
  6  1  1  0
  7  8  2  0
  8  9  1  0
  8  3  1  0
 10 11  1  0
 10  9  2  0
 12 11  1  0
 13 14  1  0
 13 12  2  0
 14 10  1  0
 15 14  2  0
 15  7  1  0
 16  5  1  0
 17 16  2  0
 18 16  1  0
 19 18  1  0
 19 20  1  0
 21 20  1  0
 22 21  1  0
 22 18  1  0
  1 23  1  0
  2 24  1  0
  7 25  1  0
  9 26  1  0
 11 27  1  0
 12 28  1  0
 15 29  1  0
 18 30  1  1
 19 31  1  0
 19 32  1  0
 20 33  1  0
 20 34  1  0
 22 35  1  0
 22 36  1  0
M  ISO  8  23  14  24  14  25  14  26  14  27   9  28  14  29  14  30  13
M  ISO  6  31  13  32  13  33  13  34  13  35  13  36  13
M  END
>  <minimizedAffinity>  (1) 
-5.66774082

>  <minimizedRMSD>  (1) 
2.50712013

$$$$
