
     RDKit          3D

 42 46  0  0  1  0  0  0  0  0999 V2000
   35.8180   29.4800   50.7100 C   0  0  0  0  0  0  0  0  0  0  0  0
   36.5680   30.2020   49.8060 C   0  0  0  0  0  0  0  0  0  0  0  0
   36.2830   30.0930   48.4460 C   0  0  0  0  0  0  0  0  0  0  0  0
   35.2550   29.2620   48.0590 N   0  0  0  0  0  0  0  0  0  0  0  0
   34.5480   28.5740   48.9880 C   0  0  0  0  0  0  0  0  0  0  0  0
   34.8100   28.6690   50.2860 N   0  0  0  0  0  0  0  0  0  0  0  0
   36.6230   30.5510   46.0930 C   0  0  0  0  0  0  0  0  0  0  0  0
   37.0020   30.8000   47.4120 C   0  0  0  0  0  0  0  0  0  0  0  0
   38.0240   31.6880   47.6590 C   0  0  0  0  0  0  0  0  0  0  0  0
   38.6460   32.3080   46.6040 C   0  0  0  0  0  0  0  0  0  0  0  0
   39.6610   33.2030   46.6130 N   0  0  0  0  0  0  0  0  0  0  0  0
   39.9270   33.5200   45.3470 C   0  0  0  0  0  0  0  0  0  0  0  0
   39.1160   32.8560   44.5280 N   0  0  0  0  0  0  0  0  0  0  0  0
   38.2960   32.0850   45.2770 C   0  0  0  0  0  0  0  0  0  0  0  0
   37.2710   31.1930   45.0380 C   0  0  0  0  0  0  0  0  0  0  0  0
   33.4720   27.7180   48.5180 C   0  0  0  0  0  0  0  0  0  0  0  0
   33.6690   26.5680   48.0480 O   0  0  0  0  0  0  0  0  0  0  0  0
   32.0480   28.2350   48.5940 C   0  0  1  0  0  0  0  0  0  0  0  0
   31.2280   28.0510   47.3020 C   0  0  0  0  0  0  0  0  0  0  0  0
   30.9360   27.2810   48.5260 C   0  0  2  0  0  0  0  0  0  0  0  0
   29.7390   27.5990   49.3520 C   0  0  0  0  0  0  0  0  0  0  0  0
   28.9340   28.6510   48.9800 C   0  0  0  0  0  0  0  0  0  0  0  0
   27.8000   28.9960   49.7140 C   0  0  0  0  0  0  0  0  0  0  0  0
   27.4810   28.2650   50.8400 C   0  0  0  0  0  0  0  0  0  0  0  0
   28.2740   27.1900   51.2510 C   0  0  0  0  0  0  0  0  0  0  0  0
   29.3770   26.9000   50.4850 C   0  0  0  0  0  0  0  0  0  0  0  0
   36.0364   29.5601   51.7851 H   0  0  0  0  0  0  0  0  0  0  0  0
   37.3812   30.8560   50.1538 H   0  0  0  0  0  0  0  0  0  0  0  0
   35.8073   29.8433   45.8834 H   0  0  0  0  0  0  0  0  0  0  0  0
   38.3393   31.8988   48.6915 H   0  0  0  0  0  0  0  0  0  0  0  0
   40.1404   33.5718   47.4467 H   0  0  0  0  0  0  0  0  0  0  0  0
   40.7047   34.2283   45.0253 H   0  0  0  0  0  0  0  0  0  0  0  0
   36.9612   30.9857   44.0031 H   0  0  0  0  0  0  0  0  0  0  0  0
   32.3068   29.0530   49.2824 H   0  0  0  0  0  0  0  0  0  0  0  0
   31.6741   27.5550   46.4274 H   0  0  0  0  0  0  0  0  0  0  0  0
   30.6580   28.7088   46.6293 H   0  0  0  0  0  0  0  0  0  0  0  0
   30.8176   26.2020   48.7039 H   0  0  0  0  0  0  0  0  0  0  0  0
   29.1911   29.2332   48.0828 H   0  0  0  0  0  0  0  0  0  0  0  0
   27.1680   29.8397   49.3997 H   0  0  0  0  0  0  0  0  0  0  0  0
   26.5879   28.5327   51.4237 H   0  0  0  0  0  0  0  0  0  0  0  0
   28.0262   26.6026   52.1474 H   0  0  0  0  0  0  0  0  0  0  0  0
   30.0119   26.0568   50.7948 H   0  0  0  0  0  0  0  0  0  0  0  0
  2  1  2  0
  3  2  1  0
  4  3  2  0
  4  5  1  0
  5  6  2  0
  6  1  1  0
  7  8  2  0
  8  9  1  0
  8  3  1  0
 10 11  1  0
 10  9  2  0
 12 11  1  0
 13 14  1  0
 13 12  2  0
 14 10  1  0
 15 14  2  0
 15  7  1  0
 16 18  1  0
 16  5  1  0
 17 16  2  0
 19 20  1  0
 19 18  1  0
 20 18  1  0
 20 21  1  0
 21 26  1  0
 22 21  2  0
 22 23  1  0
 23 24  2  0
 24 25  1  0
 26 25  2  0
  1 27  1  0
  2 28  1  0
  7 29  1  0
  9 30  1  0
 11 31  1  0
 12 32  1  0
 15 33  1  0
 18 34  1  1
 19 35  1  0
 19 36  1  0
 20 37  1  6
 22 38  1  0
 23 39  1  0
 24 40  1  0
 25 41  1  0
 26 42  1  0
M  ISO  8  27  14  28  14  29  14  30  14  31   9  32  14  33  14  34  13
M  ISO  8  35  13  36  13  37  13  38  14  39  14  40  14  41  14  42  14
M  END
>  <minimizedAffinity>  (1) 
-7.44950533

>  <minimizedRMSD>  (1) 
0.719644547

$$$$
