
     RDKit          3D

 44 48  0  0  1  0  0  0  0  0999 V2000
   35.6930   29.5030   50.6620 C   0  0  0  0  0  0  0  0  0  0  0  0
   36.4620   30.2390   49.7720 C   0  0  0  0  0  0  0  0  0  0  0  0
   36.2290   30.0730   48.4090 C   0  0  0  0  0  0  0  0  0  0  0  0
   35.2520   29.1950   47.9940 N   0  0  0  0  0  0  0  0  0  0  0  0
   34.5390   28.5110   48.9100 C   0  0  0  0  0  0  0  0  0  0  0  0
   34.7420   28.6500   50.2150 N   0  0  0  0  0  0  0  0  0  0  0  0
   36.5990   30.5440   46.0570 C   0  0  0  0  0  0  0  0  0  0  0  0
   36.9740   30.7930   47.3910 C   0  0  0  0  0  0  0  0  0  0  0  0
   37.9900   31.6740   47.6390 C   0  0  0  0  0  0  0  0  0  0  0  0
   38.6260   32.2990   46.5990 C   0  0  0  0  0  0  0  0  0  0  0  0
   39.6370   33.1900   46.6250 N   0  0  0  0  0  0  0  0  0  0  0  0
   39.9130   33.5110   45.3510 C   0  0  0  0  0  0  0  0  0  0  0  0
   39.1150   32.8590   44.5250 N   0  0  0  0  0  0  0  0  0  0  0  0
   38.2940   32.0880   45.2730 C   0  0  0  0  0  0  0  0  0  0  0  0
   37.2610   31.1910   45.0120 C   0  0  0  0  0  0  0  0  0  0  0  0
   33.5060   27.5990   48.4230 C   0  0  0  0  0  0  0  0  0  0  0  0
   33.7820   26.5160   47.8460 O   0  0  0  0  0  0  0  0  0  0  0  0
   32.0500   27.9800   48.6250 C   0  0  1  0  0  0  0  0  0  0  0  0
   31.2670   28.2160   47.3220 C   0  0  0  0  0  0  0  0  0  0  0  0
   31.0160   27.0400   48.1750 C   0  0  2  0  0  0  0  0  0  0  0  0
   29.4530   28.0390   49.7920 C   0  0  2  0  0  0  0  0  0  0  0  0
   29.7310   26.8300   48.9330 C   0  0  1  0  0  0  0  0  0  0  0  0
   28.5020   26.8540   48.0520 C   0  0  0  0  0  0  0  0  0  0  0  0
   28.3840   28.1820   47.7300 O   0  0  0  0  0  0  0  0  0  0  0  0
   28.6760   28.9210   48.8520 C   0  0  0  0  0  0  0  0  0  0  0  0
   30.6160   28.6400   50.2510 O   0  0  0  0  0  0  0  0  0  0  0  0
   35.8582   29.6141   51.7438 H   0  0  0  0  0  0  0  0  0  0  0  0
   37.2342   30.9343   50.1329 H   0  0  0  0  0  0  0  0  0  0  0  0
   35.7836   29.8390   45.8379 H   0  0  0  0  0  0  0  0  0  0  0  0
   38.2970   31.8811   48.6748 H   0  0  0  0  0  0  0  0  0  0  0  0
   40.1090   33.5557   47.4643 H   0  0  0  0  0  0  0  0  0  0  0  0
   40.6950   34.2187   45.0386 H   0  0  0  0  0  0  0  0  0  0  0  0
   36.9638   30.9904   43.9721 H   0  0  0  0  0  0  0  0  0  0  0  0
   32.2360   28.5193   49.5655 H   0  0  0  0  0  0  0  0  0  0  0  0
   31.7635   28.0986   46.3475 H   0  0  0  0  0  0  0  0  0  0  0  0
   30.6577   29.0318   46.9058 H   0  0  0  0  0  0  0  0  0  0  0  0
   30.9979   25.9572   47.9823 H   0  0  0  0  0  0  0  0  0  0  0  0
   28.9091   27.8048   50.7190 H   0  0  0  0  0  0  0  0  0  0  0  0
   29.8754   25.8704   49.4510 H   0  0  0  0  0  0  0  0  0  0  0  0
   28.6482   26.2395   47.1514 H   0  0  0  0  0  0  0  0  0  0  0  0
   27.6069   26.4439   48.5425 H   0  0  0  0  0  0  0  0  0  0  0  0
   29.2798   29.7981   48.5761 H   0  0  0  0  0  0  0  0  0  0  0  0
   27.7514   29.2746   49.3316 H   0  0  0  0  0  0  0  0  0  0  0  0
   30.6183   28.6412   51.2410 H   0  0  0  0  0  0  0  0  0  0  0  0
  2  1  2  0
  3  2  1  0
  4  3  2  0
  4  5  1  0
  5  6  2  0
  6  1  1  0
  7  8  2  0
  8  9  1  0
  8  3  1  0
 10 11  1  0
 10  9  2  0
 12 11  1  0
 13 14  1  0
 13 12  2  0
 14 10  1  0
 15 14  2  0
 15  7  1  0
 16 18  1  0
 16  5  1  0
 17 16  2  0
 19 20  1  0
 19 18  1  0
 20 18  1  0
 20 22  1  0
 21 26  1  0
 22 23  1  0
 22 21  1  0
 24 23  1  0
 24 25  1  0
 25 21  1  0
  1 27  1  0
  2 28  1  0
  7 29  1  0
  9 30  1  0
 11 31  1  0
 12 32  1  0
 15 33  1  0
 18 34  1  1
 19 35  1  0
 19 36  1  0
 20 37  1  6
 21 38  1  1
 22 39  1  1
 23 40  1  0
 23 41  1  0
 25 42  1  0
 25 43  1  0
 26 44  1  0
M  ISO  8  27  14  28  14  29  14  30  14  31   9  32  14  33  14  34  13
M  ISO  8  35  13  36  13  37  13  38  13  39  13  40  13  41  13  42  13
M  ISO  2  43  13  44   3
M  END
>  <minimizedAffinity>  (1) 
-7.1297884

>  <minimizedRMSD>  (1) 
0.527943254

$$$$
