
     RDKit          3D

 23 24  0  0  0  0  0  0  0  0999 V2000
   37.1160   30.5440   50.8580 C   0  0  0  0  0  0  0  0  0  0  0  0
   38.1750   30.9640   50.0170 C   0  0  0  0  0  0  0  0  0  0  0  0
   38.0230   30.7470   48.6570 C   0  0  0  0  0  0  0  0  0  0  0  0
   36.8940   30.1570   48.2020 N   0  0  0  0  0  0  0  0  0  0  0  0
   35.9010   29.7660   49.0180 C   0  0  0  0  0  0  0  0  0  0  0  0
   36.0180   29.9620   50.3400 N   0  0  0  0  0  0  0  0  0  0  0  0
   39.0990   31.1760   47.8170 N   0  0  0  0  0  0  0  0  0  0  0  0
   34.4500   29.2260   47.0900 C   0  0  0  0  0  0  0  0  0  0  0  0
   34.7190   29.1360   48.4380 C   0  0  0  0  0  0  0  0  0  0  0  0
   33.8840   28.4460   49.3110 C   0  0  0  0  0  0  0  0  0  0  0  0
   32.7470   27.8360   48.7760 C   0  0  0  0  0  0  0  0  0  0  0  0
   32.5100   27.9470   47.4200 C   0  0  0  0  0  0  0  0  0  0  0  0
   33.3290   28.6280   46.5430 C   0  0  0  0  0  0  0  0  0  0  0  0
   36.0640   30.5320   45.5230 N   0  0  0  0  0  0  0  0  0  0  0  0
   35.3410   29.9480   46.2390 C   0  0  0  0  0  0  0  0  0  0  0  0
   37.1912   30.6947   51.9450 H   0  0  0  0  0  0  0  0  0  0  0  0
   39.0781   31.4413   50.4252 H   0  0  0  0  0  0  0  0  0  0  0  0
   39.0419   31.0407   46.7975 H   0  0  0  0  0  0  0  0  0  0  0  0
   39.9306   31.6201   48.2318 H   0  0  0  0  0  0  0  0  0  0  0  0
   34.1113   28.3830   50.3854 H   0  0  0  0  0  0  0  0  0  0  0  0
   32.0537   27.2779   49.4224 H   0  0  0  0  0  0  0  0  0  0  0  0
   31.6108   27.4614   47.0131 H   0  0  0  0  0  0  0  0  0  0  0  0
   33.1030   28.6919   45.4684 H   0  0  0  0  0  0  0  0  0  0  0  0
  2  1  2  0
  3  2  1  0
  4  3  2  0
  4  5  1  0
  5  6  2  0
  6  1  1  0
  7  3  1  0
  8  9  2  0
  9  5  1  0
  9 10  1  0
 11 10  2  0
 12 11  1  0
 13  8  1  0
 13 12  2  0
 14 15  3  0
 15  8  1  0
  1 16  1  0
  2 17  1  0
  7 18  1  0
  7 19  1  0
 10 20  1  0
 11 21  1  0
 12 22  1  0
 13 23  1  0
M  ISO  6  16  14  17  14  20  14  21  14  22  14  23  14
M  END
>  <minimizedAffinity>  (1) 
-4.81639051

>  <minimizedRMSD>  (1) 
2.16561198

$$$$
