
     RDKit          3D

 46 50  0  0  1  0  0  0  0  0999 V2000
   35.1330   28.9150   50.1940 C   0  0  0  0  0  0  0  0  0  0  0  0
   36.0470   29.6380   49.4540 C   0  0  0  0  0  0  0  0  0  0  0  0
   35.7610   29.9170   48.1150 C   0  0  0  0  0  0  0  0  0  0  0  0
   34.5730   29.4560   47.5860 N   0  0  0  0  0  0  0  0  0  0  0  0
   33.7150   28.7520   48.3640 C   0  0  0  0  0  0  0  0  0  0  0  0
   33.9750   28.4800   49.6360 N   0  0  0  0  0  0  0  0  0  0  0  0
   36.4500   30.5050   45.8730 C   0  0  0  0  0  0  0  0  0  0  0  0
   36.6440   30.6650   47.2500 C   0  0  0  0  0  0  0  0  0  0  0  0
   37.6360   31.5020   47.6880 C   0  0  0  0  0  0  0  0  0  0  0  0
   38.4180   32.1660   46.7750 C   0  0  0  0  0  0  0  0  0  0  0  0
   39.4390   33.0280   46.9990 N   0  0  0  0  0  0  0  0  0  0  0  0
   39.8900   33.4110   45.7890 C   0  0  0  0  0  0  0  0  0  0  0  0
   39.1890   32.8230   44.8240 N   0  0  0  0  0  0  0  0  0  0  0  0
   38.2610   32.0360   45.4120 C   0  0  0  0  0  0  0  0  0  0  0  0
   37.2620   31.1930   44.9680 C   0  0  0  0  0  0  0  0  0  0  0  0
   32.4690   28.3010   47.7600 C   0  0  0  0  0  0  0  0  0  0  0  0
   32.0370   28.7630   46.6780 O   0  0  0  0  0  0  0  0  0  0  0  0
   31.6530   27.2450   48.4480 C   0  0  1  0  0  0  0  0  0  0  0  0
   30.6530   27.7590   49.4990 C   0  0  0  0  0  0  0  0  0  0  0  0
   30.2300   27.1160   48.2400 C   0  0  1  0  0  0  0  0  0  0  0  0
   29.3690   27.9420   47.3650 C   0  0  0  0  0  0  0  0  0  0  0  0
   28.7580   29.0410   48.2160 C   0  0  0  0  0  0  0  0  0  0  0  0
   27.5590   29.6800   47.5520 C   0  0  0  0  0  0  0  0  0  0  0  0
   26.5980   28.7790   47.1740 O   0  0  0  0  0  0  0  0  0  0  0  0
   26.9320   27.5280   47.6530 C   0  0  0  0  0  0  0  0  0  0  0  0
   28.2030   27.0820   46.9160 C   0  0  0  0  0  0  0  0  0  0  0  0
   35.3460   28.6887   51.2492 H   0  0  0  0  0  0  0  0  0  0  0  0
   36.9844   29.9885   49.9106 H   0  0  0  0  0  0  0  0  0  0  0  0
   35.6579   29.8373   45.5033 H   0  0  0  0  0  0  0  0  0  0  0  0
   37.8054   31.6416   48.7659 H   0  0  0  0  0  0  0  0  0  0  0  0
   39.7996   33.3310   47.9150 H   0  0  0  0  0  0  0  0  0  0  0  0
   40.7214   34.1117   45.6225 H   0  0  0  0  0  0  0  0  0  0  0  0
   37.1033   31.0613   43.8875 H   0  0  0  0  0  0  0  0  0  0  0  0
   32.4823   26.5249   48.3868 H   0  0  0  0  0  0  0  0  0  0  0  0
   30.5352   27.2358   50.4594 H   0  0  0  0  0  0  0  0  0  0  0  0
   30.4566   28.7144   50.0076 H   0  0  0  0  0  0  0  0  0  0  0  0
   29.6664   26.2314   47.9086 H   0  0  0  0  0  0  0  0  0  0  0  0
   29.9509   28.3384   46.5198 H   0  0  0  0  0  0  0  0  0  0  0  0
   28.4422   28.6099   49.1775 H   0  0  0  0  0  0  0  0  0  0  0  0
   29.5205   29.8211   48.3573 H   0  0  0  0  0  0  0  0  0  0  0  0
   27.1089   30.3931   48.2583 H   0  0  0  0  0  0  0  0  0  0  0  0
   27.9200   30.1709   46.6362 H   0  0  0  0  0  0  0  0  0  0  0  0
   27.1221   27.5776   48.7353 H   0  0  0  0  0  0  0  0  0  0  0  0
   26.1124   26.8142   47.4834 H   0  0  0  0  0  0  0  0  0  0  0  0
   28.0583   27.1958   45.8315 H   0  0  0  0  0  0  0  0  0  0  0  0
   28.4123   26.0270   47.1464 H   0  0  0  0  0  0  0  0  0  0  0  0
  2  1  2  0
  3  2  1  0
  4  3  2  0
  4  5  1  0
  5  6  2  0
  6  1  1  0
  7  8  2  0
  8  9  1  0
  8  3  1  0
 10 11  1  0
 10  9  2  0
 12 11  1  0
 13 14  1  0
 13 12  2  0
 14 10  1  0
 15 14  2  0
 15  7  1  0
 16  5  1  0
 16 18  1  0
 17 16  2  0
 18 19  1  0
 20 18  1  0
 20 19  1  0
 21 22  1  0
 21 20  1  0
 23 22  1  0
 24 23  1  0
 24 25  1  0
 26 21  1  0
 26 25  1  0
  1 27  1  0
  2 28  1  0
  7 29  1  0
  9 30  1  0
 11 31  1  0
 12 32  1  0
 15 33  1  0
 18 34  1  1
 19 35  1  0
 19 36  1  0
 20 37  1  1
 21 38  1  0
 22 39  1  0
 22 40  1  0
 23 41  1  0
 23 42  1  0
 25 43  1  0
 25 44  1  0
 26 45  1  0
 26 46  1  0
M  ISO  8  27  14  28  14  29  14  30  14  31   9  32  14  33  14  34  13
M  ISO  8  35  13  36  13  37  13  38  13  39  13  40  13  41  13  42  13
M  ISO  4  43  13  44  13  45  13  46  13
M  END
>  <minimizedAffinity>  (1) 
-6.70757914

>  <minimizedRMSD>  (1) 
2.96950364

$$$$
