
     RDKit          3D

 38 41  0  0  1  0  0  0  0  0999 V2000
   35.8800   29.5870   50.6800 C   0  0  0  0  0  0  0  0  0  0  0  0
   36.6080   30.3290   49.7710 C   0  0  0  0  0  0  0  0  0  0  0  0
   36.3640   30.1490   48.4120 C   0  0  0  0  0  0  0  0  0  0  0  0
   35.4110   29.2440   48.0280 N   0  0  0  0  0  0  0  0  0  0  0  0
   34.7270   28.5440   48.9580 C   0  0  0  0  0  0  0  0  0  0  0  0
   34.9350   28.6920   50.2610 N   0  0  0  0  0  0  0  0  0  0  0  0
   36.6920   30.6100   46.0530 C   0  0  0  0  0  0  0  0  0  0  0  0
   37.0770   30.8670   47.3720 C   0  0  0  0  0  0  0  0  0  0  0  0
   38.0990   31.7540   47.6120 C   0  0  0  0  0  0  0  0  0  0  0  0
   38.7230   32.3690   46.5530 C   0  0  0  0  0  0  0  0  0  0  0  0
   39.7380   33.2610   46.5510 N   0  0  0  0  0  0  0  0  0  0  0  0
   39.9990   33.5670   45.2810 C   0  0  0  0  0  0  0  0  0  0  0  0
   39.1890   32.9040   44.4750 N   0  0  0  0  0  0  0  0  0  0  0  0
   38.3730   32.1420   45.2360 C   0  0  0  0  0  0  0  0  0  0  0  0
   37.3380   31.2460   44.9910 C   0  0  0  0  0  0  0  0  0  0  0  0
   33.7200   27.5950   48.4880 C   0  0  0  0  0  0  0  0  0  0  0  0
   34.0210   26.5280   47.8930 O   0  0  0  0  0  0  0  0  0  0  0  0
   32.2600   27.9160   48.7280 C   0  0  1  0  0  0  0  0  0  0  0  0
   31.4320   28.1080   47.4410 C   0  0  0  0  0  0  0  0  0  0  0  0
   31.2430   26.9380   48.3180 C   0  0  2  0  0  0  0  0  0  0  0  0
   29.9070   26.8690   49.0450 C   0  0  0  0  0  0  0  0  0  0  0  0
   29.8530   28.0440   49.9970 C   0  0  0  0  0  0  0  0  0  0  0  0
   36.0630   29.7178   51.7568 H   0  0  0  0  0  0  0  0  0  0  0  0
   37.3661   31.0485   50.1139 H   0  0  0  0  0  0  0  0  0  0  0  0
   35.8748   29.9021   45.8504 H   0  0  0  0  0  0  0  0  0  0  0  0
   38.4150   31.9700   48.6433 H   0  0  0  0  0  0  0  0  0  0  0  0
   40.2214   33.6357   47.3797 H   0  0  0  0  0  0  0  0  0  0  0  0
   40.7773   34.2707   44.9508 H   0  0  0  0  0  0  0  0  0  0  0  0
   37.0271   31.0375   43.9567 H   0  0  0  0  0  0  0  0  0  0  0  0
   32.4539   28.4677   49.6597 H   0  0  0  0  0  0  0  0  0  0  0  0
   31.9047   27.9914   46.4546 H   0  0  0  0  0  0  0  0  0  0  0  0
   30.7856   28.8976   47.0304 H   0  0  0  0  0  0  0  0  0  0  0  0
   31.2871   25.8460   48.1931 H   0  0  0  0  0  0  0  0  0  0  0  0
   29.0808   26.9321   48.3215 H   0  0  0  0  0  0  0  0  0  0  0  0
   29.8090   25.9194   49.5916 H   0  0  0  0  0  0  0  0  0  0  0  0
   29.8699   27.6769   51.0338 H   0  0  0  0  0  0  0  0  0  0  0  0
   30.7221   28.6958   49.8246 H   0  0  0  0  0  0  0  0  0  0  0  0
   28.9277   28.6134   49.8246 H   0  0  0  0  0  0  0  0  0  0  0  0
  2  1  2  0
  3  2  1  0
  4  3  2  0
  4  5  1  0
  5  6  2  0
  6  1  1  0
  7  8  2  0
  8  9  1  0
  8  3  1  0
 10  9  2  0
 11 10  1  0
 12 11  1  0
 13 14  1  0
 13 12  2  0
 14 10  1  0
 15 14  2  0
 15  7  1  0
 16 18  1  0
 16  5  1  0
 17 16  2  0
 19 20  1  0
 19 18  1  0
 20 18  1  0
 20 21  1  0
 21 22  1  0
  1 23  1  0
  2 24  1  0
  7 25  1  0
  9 26  1  0
 11 27  1  0
 12 28  1  0
 15 29  1  0
 18 30  1  1
 19 31  1  0
 19 32  1  0
 20 33  1  6
 21 34  1  0
 21 35  1  0
 22 36  1  0
 22 37  1  0
 22 38  1  0
M  ISO  8  23  14  24  14  25  14  26  14  27   9  28  14  29  14  30  13
M  ISO  8  31  13  32  13  33  13  34   8  35   8  36   8  37   8  38   8
M  END
>  <minimizedAffinity>  (1) 
-6.14672852

>  <minimizedRMSD>  (1) 
0.125963673

$$$$
