
     RDKit          3D

 34 37  0  0  1  0  0  0  0  0999 V2000
   35.8500   29.5910   50.6770 C   0  0  0  0  0  0  0  0  0  0  0  0
   36.6000   30.3220   49.7750 C   0  0  0  0  0  0  0  0  0  0  0  0
   36.3730   30.1330   48.4150 C   0  0  0  0  0  0  0  0  0  0  0  0
   35.4130   29.2270   48.0280 N   0  0  0  0  0  0  0  0  0  0  0  0
   34.7090   28.5390   48.9540 C   0  0  0  0  0  0  0  0  0  0  0  0
   34.9170   28.7110   50.2540 N   0  0  0  0  0  0  0  0  0  0  0  0
   36.6960   30.5980   46.0570 C   0  0  0  0  0  0  0  0  0  0  0  0
   37.0910   30.8460   47.3760 C   0  0  0  0  0  0  0  0  0  0  0  0
   38.1080   31.7300   47.6110 C   0  0  0  0  0  0  0  0  0  0  0  0
   38.7220   32.3570   46.5510 C   0  0  0  0  0  0  0  0  0  0  0  0
   39.7380   33.2560   46.5630 N   0  0  0  0  0  0  0  0  0  0  0  0
   39.9880   33.5750   45.2950 C   0  0  0  0  0  0  0  0  0  0  0  0
   39.1690   32.9130   44.4730 N   0  0  0  0  0  0  0  0  0  0  0  0
   38.3630   32.1390   45.2360 C   0  0  0  0  0  0  0  0  0  0  0  0
   37.3400   31.2500   45.0030 C   0  0  0  0  0  0  0  0  0  0  0  0
   33.7080   27.6040   48.4880 C   0  0  0  0  0  0  0  0  0  0  0  0
   33.9870   26.5560   47.8620 O   0  0  0  0  0  0  0  0  0  0  0  0
   32.2480   27.8990   48.7650 C   0  0  1  0  0  0  0  0  0  0  0  0
   31.3630   28.0580   47.5140 C   0  0  0  0  0  0  0  0  0  0  0  0
   31.2210   26.9090   48.4290 C   0  0  2  0  0  0  0  0  0  0  0  0
   30.0010   26.9530   49.2440 N   0  0  0  0  0  0  0  0  0  0  0  0
   36.0156   29.7281   51.7558 H   0  0  0  0  0  0  0  0  0  0  0  0
   37.3593   31.0371   50.1243 H   0  0  0  0  0  0  0  0  0  0  0  0
   35.8794   29.8905   45.8503 H   0  0  0  0  0  0  0  0  0  0  0  0
   38.4331   31.9384   48.6410 H   0  0  0  0  0  0  0  0  0  0  0  0
   40.2233   33.6219   47.3946 H   0  0  0  0  0  0  0  0  0  0  0  0
   40.7620   34.2855   44.9691 H   0  0  0  0  0  0  0  0  0  0  0  0
   37.0235   31.0490   43.9689 H   0  0  0  0  0  0  0  0  0  0  0  0
   32.4799   28.4699   49.6762 H   0  0  0  0  0  0  0  0  0  0  0  0
   31.7905   27.9188   46.5101 H   0  0  0  0  0  0  0  0  0  0  0  0
   30.6951   28.8350   47.1138 H   0  0  0  0  0  0  0  0  0  0  0  0
   31.2461   25.8160   48.3079 H   0  0  0  0  0  0  0  0  0  0  0  0
   30.2545   26.9439   50.2423 H   0  0  0  0  0  0  0  0  0  0  0  0
   29.4765   27.8135   49.0308 H   0  0  0  0  0  0  0  0  0  0  0  0
  2  1  2  0
  3  2  1  0
  4  3  2  0
  4  5  1  0
  5  6  2  0
  6  1  1  0
  7  8  2  0
  8  9  1  0
  8  3  1  0
 10 11  1  0
 10  9  2  0
 12 11  1  0
 13 14  1  0
 13 12  2  0
 14 10  1  0
 15 14  2  0
 15  7  1  0
 16 18  1  0
 16  5  1  0
 17 16  2  0
 19 20  1  0
 19 18  1  0
 20 18  1  0
 20 21  1  0
  1 22  1  0
  2 23  1  0
  7 24  1  0
  9 25  1  0
 11 26  1  0
 12 27  1  0
 15 28  1  0
 18 29  1  1
 19 30  1  0
 19 31  1  0
 20 32  1  6
 21 33  1  0
 21 34  1  0
M  ISO  8  22  14  23  14  24  14  25  14  26   9  27  14  28  14  29  13
M  ISO  5  30  13  31  13  32  13  33   5  34   5
M  END
>  <minimizedAffinity>  (1) 
-6.02349615

>  <minimizedRMSD>  (1) 
0.0554564297

$$$$
