
     RDKit          3D

 27 28  0  0  0  0  0  0  0  0999 V2000
   37.3390   30.3600   50.9120 C   0  0  0  0  0  0  0  0  0  0  0  0
   38.2730   31.0450   50.1230 C   0  0  0  0  0  0  0  0  0  0  0  0
   38.0670   31.0350   48.7400 C   0  0  0  0  0  0  0  0  0  0  0  0
   36.9940   30.3760   48.2350 N   0  0  0  0  0  0  0  0  0  0  0  0
   36.1160   29.7270   49.0310 C   0  0  0  0  0  0  0  0  0  0  0  0
   36.2850   29.7180   50.3620 N   0  0  0  0  0  0  0  0  0  0  0  0
   39.0170   31.7310   47.9530 N   0  0  0  0  0  0  0  0  0  0  0  0
   34.9930   29.0380   48.4900 N   0  0  0  0  0  0  0  0  0  0  0  0
   34.5510   29.2560   47.1260 C   0  0  0  0  0  0  0  0  0  0  0  0
   33.9880   27.9070   46.6580 C   0  0  0  0  0  0  0  0  0  0  0  0
   32.7890   27.5100   47.4750 C   0  0  0  0  0  0  0  0  0  0  0  0
   32.8340   28.0900   48.8630 C   0  0  0  0  0  0  0  0  0  0  0  0
   34.2790   28.0900   49.3520 C   0  0  0  0  0  0  0  0  0  0  0  0
   37.4670   30.3447   52.0044 H   0  0  0  0  0  0  0  0  0  0  0  0
   39.1305   31.5676   50.5720 H   0  0  0  0  0  0  0  0  0  0  0  0
   38.9163   31.7578   46.9283 H   0  0  0  0  0  0  0  0  0  0  0  0
   39.8085   32.2103   48.4054 H   0  0  0  0  0  0  0  0  0  0  0  0
   33.7706   30.0305   47.0937 H   0  0  0  0  0  0  0  0  0  0  0  0
   35.3720   29.6020   46.4809 H   0  0  0  0  0  0  0  0  0  0  0  0
   33.6925   27.9877   45.6015 H   0  0  0  0  0  0  0  0  0  0  0  0
   34.7666   27.1401   46.7832 H   0  0  0  0  0  0  0  0  0  0  0  0
   31.8804   27.8691   46.9696 H   0  0  0  0  0  0  0  0  0  0  0  0
   32.7879   26.4137   47.5653 H   0  0  0  0  0  0  0  0  0  0  0  0
   32.4503   29.1207   48.8451 H   0  0  0  0  0  0  0  0  0  0  0  0
   32.2116   27.4860   49.5396 H   0  0  0  0  0  0  0  0  0  0  0  0
   34.7149   27.0844   49.2587 H   0  0  0  0  0  0  0  0  0  0  0  0
   34.3475   28.3760   50.4120 H   0  0  0  0  0  0  0  0  0  0  0  0
  2  1  2  0
  3  2  1  0
  4  3  2  0
  4  5  1  0
  5  6  2  0
  6  1  1  0
  7  3  1  0
  8  5  1  0
  8 13  1  0
  9  8  1  0
 10  9  1  0
 10 11  1  0
 11 12  1  0
 12 13  1  0
  1 14  1  0
  2 15  1  0
  7 16  1  0
  7 17  1  0
  9 18  1  0
  9 19  1  0
 10 20  1  0
 10 21  1  0
 11 22  1  0
 11 23  1  0
 12 24  1  0
 12 25  1  0
 13 26  1  0
 13 27  1  0
M  ISO  8  14  14  15  14  18  13  19  13  20  13  21  13  22  13  23  13
M  ISO  4  24  13  25  13  26  13  27  13
M  END
>  <minimizedAffinity>  (1) 
-4.73247719

>  <minimizedRMSD>  (1) 
1.32688344

$$$$
