
     RDKit          3D

 36 39  0  0  1  0  0  0  0  0999 V2000
   35.8030   29.6300   50.6430 C   0  0  0  0  0  0  0  0  0  0  0  0
   36.5380   30.3580   49.7390 C   0  0  0  0  0  0  0  0  0  0  0  0
   36.3470   30.1590   48.3750 C   0  0  0  0  0  0  0  0  0  0  0  0
   35.4130   29.2250   47.9760 N   0  0  0  0  0  0  0  0  0  0  0  0
   34.7120   28.5330   48.9050 C   0  0  0  0  0  0  0  0  0  0  0  0
   34.8910   28.7170   50.2080 N   0  0  0  0  0  0  0  0  0  0  0  0
   36.6950   30.6130   46.0180 C   0  0  0  0  0  0  0  0  0  0  0  0
   37.0710   30.8680   47.3390 C   0  0  0  0  0  0  0  0  0  0  0  0
   38.0870   31.7490   47.5920 C   0  0  0  0  0  0  0  0  0  0  0  0
   38.7250   32.3740   46.5490 C   0  0  0  0  0  0  0  0  0  0  0  0
   39.7360   33.2650   46.5570 N   0  0  0  0  0  0  0  0  0  0  0  0
   40.0080   33.5800   45.2830 C   0  0  0  0  0  0  0  0  0  0  0  0
   39.1990   32.9140   44.4640 N   0  0  0  0  0  0  0  0  0  0  0  0
   38.3880   32.1540   45.2290 C   0  0  0  0  0  0  0  0  0  0  0  0
   37.3580   31.2600   44.9790 C   0  0  0  0  0  0  0  0  0  0  0  0
   33.7350   27.5690   48.4240 C   0  0  0  0  0  0  0  0  0  0  0  0
   34.0290   26.5600   47.7640 O   0  0  0  0  0  0  0  0  0  0  0  0
   32.2770   27.7980   48.7330 C   0  0  1  0  0  0  0  0  0  0  0  0
   31.3840   28.1580   47.5260 C   0  0  0  0  0  0  0  0  0  0  0  0
   31.2520   26.8780   48.2530 C   0  0  1  0  0  0  0  0  0  0  0  0
   30.8250   25.1350   46.5620 C   0  0  0  0  0  0  0  0  0  0  0  0
   29.8010   25.6010   45.9640 O   0  0  0  0  0  0  0  0  0  0  0  0
   31.6190   25.6300   47.6630 N   0  0  0  0  0  0  0  0  0  0  0  0
   35.9517   29.7851   51.7218 H   0  0  0  0  0  0  0  0  0  0  0  0
   37.2744   31.0951   50.0919 H   0  0  0  0  0  0  0  0  0  0  0  0
   35.8809   29.9060   45.8004 H   0  0  0  0  0  0  0  0  0  0  0  0
   38.3919   31.9560   48.6284 H   0  0  0  0  0  0  0  0  0  0  0  0
   40.2131   33.6365   47.3908 H   0  0  0  0  0  0  0  0  0  0  0  0
   40.7872   34.2867   44.9615 H   0  0  0  0  0  0  0  0  0  0  0  0
   37.0591   31.0582   43.9398 H   0  0  0  0  0  0  0  0  0  0  0  0
   32.5137   28.2120   49.7243 H   0  0  0  0  0  0  0  0  0  0  0  0
   31.8045   28.1798   46.5098 H   0  0  0  0  0  0  0  0  0  0  0  0
   30.7140   28.9880   47.2570 H   0  0  0  0  0  0  0  0  0  0  0  0
   30.3967   26.3700   48.7225 H   0  0  0  0  0  0  0  0  0  0  0  0
   31.1713   24.1700   46.1633 H   0  0  0  0  0  0  0  0  0  0  0  0
   32.4280   25.0972   48.0131 H   0  0  0  0  0  0  0  0  0  0  0  0
  2  1  2  0
  3  2  1  0
  4  3  2  0
  4  5  1  0
  5  6  2  0
  6  1  1  0
  7  8  2  0
  8  9  1  0
  8  3  1  0
 10 11  1  0
 10  9  2  0
 12 11  1  0
 13 14  1  0
 13 12  2  0
 14 10  1  0
 15 14  2  0
 15  7  1  0
 16 18  1  0
 16  5  1  0
 17 16  2  0
 19 20  1  0
 19 18  1  0
 20 18  1  0
 21 23  1  0
 22 21  2  0
 23 20  1  0
  1 24  1  0
  2 25  1  0
  7 26  1  0
  9 27  1  0
 11 28  1  0
 12 29  1  0
 15 30  1  0
 18 31  1  1
 19 32  1  0
 19 33  1  0
 20 34  1  1
 21 35  1  0
 23 36  1  0
M  ISO  8  24  14  25  14  26  14  27  14  28   9  29  14  30  14  31  13
M  ISO  4  32  13  33  13  34  13  35   6
M  END
>  <minimizedAffinity>  (1) 
-5.80701685

>  <minimizedRMSD>  (1) 
0.184400409

$$$$
