
     RDKit          3D

 36 38  0  0  1  0  0  0  0  0999 V2000
   35.2930   30.2570   49.6510 C   0  0  2  0  0  0  0  0  0  0  0  0
   36.1560   31.0820   48.7250 C   0  0  0  0  0  0  0  0  0  0  0  0
   37.5810   30.6160   48.7100 C   0  0  2  0  0  0  0  0  0  0  0  0
   38.1740   30.6260   50.0980 C   0  0  0  0  0  0  0  0  0  0  0  0
   37.3280   29.8920   51.0770 C   0  0  0  0  0  0  0  0  0  0  0  0
   36.0570   29.3150   50.5090 C   0  0  0  0  0  0  0  0  0  0  0  0
   38.3650   31.3250   47.7670 N   0  0  0  0  0  0  0  0  0  0  0  0
   38.7830   30.7580   46.5980 C   0  0  0  0  0  0  0  0  0  0  0  0
   39.5490   31.4000   45.6420 C   0  0  0  0  0  0  0  0  0  0  0  0
   39.9110   32.7090   45.8980 C   0  0  0  0  0  0  0  0  0  0  0  0
   40.5980   33.2780   45.0340 O   0  0  0  0  0  0  0  0  0  0  0  0
   39.5130   33.3020   47.0490 N   0  0  0  0  0  0  0  0  0  0  0  0
   38.7640   32.5940   47.9260 C   0  0  0  0  0  0  0  0  0  0  0  0
   38.4440   33.2270   48.9620 O   0  0  0  0  0  0  0  0  0  0  0  0
   34.3240   29.4550   48.8480 C   0  0  0  0  0  0  0  0  0  0  0  0
   34.1480   29.8500   47.5080 C   0  0  0  0  0  0  0  0  0  0  0  0
   33.2290   29.1020   46.7530 C   0  0  0  0  0  0  0  0  0  0  0  0
   32.5630   28.0500   47.3480 N   0  0  0  0  0  0  0  0  0  0  0  0
   32.7680   27.7120   48.6430 C   0  0  0  0  0  0  0  0  0  0  0  0
   33.6390   28.4120   49.3710 N   0  0  0  0  0  0  0  0  0  0  0  0
   34.7902   30.9781   50.3122 H   0  0  0  0  0  0  0  0  0  0  0  0
   35.7496   31.0105   47.7053 H   0  0  0  0  0  0  0  0  0  0  0  0
   36.1449   32.1197   49.0899 H   0  0  0  0  0  0  0  0  0  0  0  0
   37.5862   29.5691   48.3723 H   0  0  0  0  0  0  0  0  0  0  0  0
   39.1662   30.1525   50.0625 H   0  0  0  0  0  0  0  0  0  0  0  0
   38.2410   31.6730   50.4285 H   0  0  0  0  0  0  0  0  0  0  0  0
   37.9236   29.0651   51.4912 H   0  0  0  0  0  0  0  0  0  0  0  0
   37.0214   30.6290   51.8339 H   0  0  0  0  0  0  0  0  0  0  0  0
   35.4120   29.0097   51.3461 H   0  0  0  0  0  0  0  0  0  0  0  0
   36.3508   28.4702   49.8687 H   0  0  0  0  0  0  0  0  0  0  0  0
   38.4897   29.7161   46.4022 H   0  0  0  0  0  0  0  0  0  0  0  0
   39.8570   30.8904   44.7171 H   0  0  0  0  0  0  0  0  0  0  0  0
   39.7763   34.2765   47.2535 H   0  0  0  0  0  0  0  0  0  0  0  0
   34.6998   30.6978   47.0759 H   0  0  0  0  0  0  0  0  0  0  0  0
   33.0423   29.3524   45.6983 H   0  0  0  0  0  0  0  0  0  0  0  0
   32.2216   26.8685   49.0901 H   0  0  0  0  0  0  0  0  0  0  0  0
  1  6  1  0
  2  1  1  0
  3  2  1  0
  3  4  1  0
  4  5  1  0
  6  5  1  0
  7 13  1  0
  7  3  1  0
  8  7  1  0
  9 10  1  0
  9  8  2  0
 10 12  1  0
 11 10  2  0
 12 13  1  0
 13 14  2  0
 15 20  1  0
 15  1  1  0
 16 15  2  0
 17 18  2  0
 17 16  1  0
 18 19  1  0
 19 20  2  0
  1 21  1  1
  2 22  1  0
  2 23  1  0
  3 24  1  6
  4 25  1  0
  4 26  1  0
  5 27  1  0
  5 28  1  0
  6 29  1  0
  6 30  1  0
  8 31  1  0
  9 32  1  0
 12 33  1  0
 16 34  1  0
 17 35  1  0
 19 36  1  0
M  ISO  8  21  13  22  13  23  13  24  13  25  13  26  13  27  13  28  13
M  ISO  8  29  13  30  13  31  14  32  14  33   9  34  14  35  14  36  14
M  END
>  <minimizedAffinity>  (1) 
-7.03667212

>  <minimizedRMSD>  (1) 
0.847507775

$$$$
