
     RDKit          3D

 38 40  0  0  1  0  0  0  0  0999 V2000
   35.1850   30.2830   49.8240 C   0  0  2  0  0  0  0  0  0  0  0  0
   36.2540   31.0020   49.0290 C   0  0  0  0  0  0  0  0  0  0  0  0
   37.6150   30.3970   49.2050 C   0  0  2  0  0  0  0  0  0  0  0  0
   38.0070   30.3330   50.6600 C   0  0  0  0  0  0  0  0  0  0  0  0
   36.9420   29.7550   51.5350 C   0  0  0  0  0  0  0  0  0  0  0  0
   35.7300   29.2710   50.7740 C   0  0  0  0  0  0  0  0  0  0  0  0
   34.2580   29.5630   48.8970 C   0  0  0  0  0  0  0  0  0  0  0  0
   34.1490   30.1040   47.6010 C   0  0  0  0  0  0  0  0  0  0  0  0
   33.2780   29.4500   46.7200 C   0  0  0  0  0  0  0  0  0  0  0  0
   32.5910   28.3370   47.1650 N   0  0  0  0  0  0  0  0  0  0  0  0
   32.7340   27.8600   48.4230 C   0  0  0  0  0  0  0  0  0  0  0  0
   33.5560   28.4680   49.2710 N   0  0  0  0  0  0  0  0  0  0  0  0
   38.5500   31.1850   47.0220 C   0  0  2  0  0  0  0  0  0  0  0  0
   38.6520   31.2340   48.5410 C   0  0  1  0  0  0  0  0  0  0  0  0
   38.5720   32.7030   48.7970 C   0  0  0  0  0  0  0  0  0  0  0  0
   39.0350   33.3780   47.6890 O   0  0  0  0  0  0  0  0  0  0  0  0
   39.3150   32.4720   46.6970 C   0  0  0  0  0  0  0  0  0  0  0  0
   37.2140   31.2980   46.6060 O   0  0  0  0  0  0  0  0  0  0  0  0
   34.6700   31.0638   50.4028 H   0  0  0  0  0  0  0  0  0  0  0  0
   36.2906   32.0511   49.3578 H   0  0  0  0  0  0  0  0  0  0  0  0
   35.9888   30.9168   47.9648 H   0  0  0  0  0  0  0  0  0  0  0  0
   37.5616   29.3894   48.7669 H   0  0  0  0  0  0  0  0  0  0  0  0
   38.9095   29.7108   50.7513 H   0  0  0  0  0  0  0  0  0  0  0  0
   38.1796   31.3660   50.9964 H   0  0  0  0  0  0  0  0  0  0  0  0
   37.3688   28.9043   52.0864 H   0  0  0  0  0  0  0  0  0  0  0  0
   36.6025   30.5595   52.2039 H   0  0  0  0  0  0  0  0  0  0  0  0
   34.9433   29.0133   51.4984 H   0  0  0  0  0  0  0  0  0  0  0  0
   36.0462   28.4025   50.1776 H   0  0  0  0  0  0  0  0  0  0  0  0
   34.7186   30.9944   47.2963 H   0  0  0  0  0  0  0  0  0  0  0  0
   33.1434   29.8163   45.6916 H   0  0  0  0  0  0  0  0  0  0  0  0
   32.1709   26.9708   48.7428 H   0  0  0  0  0  0  0  0  0  0  0  0
   38.9225   30.2641   46.5496 H   0  0  0  0  0  0  0  0  0  0  0  0
   39.5676   30.7976   48.9667 H   0  0  0  0  0  0  0  0  0  0  0  0
   37.5273   32.9869   48.9917 H   0  0  0  0  0  0  0  0  0  0  0  0
   39.1859   32.9613   49.6725 H   0  0  0  0  0  0  0  0  0  0  0  0
   40.3958   32.2695   46.6670 H   0  0  0  0  0  0  0  0  0  0  0  0
   39.0131   32.8657   45.7152 H   0  0  0  0  0  0  0  0  0  0  0  0
   36.6243   31.3479   47.3997 H   0  0  0  0  0  0  0  0  0  0  0  0
  1  6  1  0
  2  3  1  0
  2  1  1  0
  3  4  1  0
  4  5  1  0
  6  5  1  0
  7 12  1  0
  7  1  1  0
  8  7  2  0
  9 10  2  0
  9  8  1  0
 10 11  1  0
 11 12  2  0
 13 18  1  0
 13 14  1  0
 14 15  1  0
 14  3  1  0
 16 15  1  0
 17 13  1  0
 17 16  1  0
  1 19  1  1
  2 20  1  0
  2 21  1  0
  3 22  1  6
  4 23  1  0
  4 24  1  0
  5 25  1  0
  5 26  1  0
  6 27  1  0
  6 28  1  0
  8 29  1  0
  9 30  1  0
 11 31  1  0
 13 32  1  6
 14 33  1  6
 15 34  1  0
 15 35  1  0
 17 36  1  0
 17 37  1  0
 18 38  1  0
M  ISO  8  19  13  20  13  21  13  22  13  23  13  24  13  25  13  26  13
M  ISO  8  27  13  28  13  29  14  30  14  31  14  32  13  33  13  34  13
M  ISO  4  35  13  36  13  37  13  38   3
M  END
>  <minimizedAffinity>  (1) 
-6.24323702

>  <minimizedRMSD>  (1) 
0.647747159

$$$$
