
     RDKit          3D

 29 30  0  0  1  0  0  0  0  0999 V2000
   35.3790   29.9230   49.9440 C   0  0  2  0  0  0  0  0  0  0  0  0
   35.9830   31.2680   49.5860 C   0  0  0  0  0  0  0  0  0  0  0  0
   37.4820   31.2280   49.5230 C   0  0  2  0  0  0  0  0  0  0  0  0
   38.0570   30.7430   50.8320 C   0  0  0  0  0  0  0  0  0  0  0  0
   37.4270   29.4740   51.3120 C   0  0  0  0  0  0  0  0  0  0  0  0
   36.3970   28.9130   50.3570 C   0  0  0  0  0  0  0  0  0  0  0  0
   34.6570   29.3680   48.7570 C   0  0  0  0  0  0  0  0  0  0  0  0
   34.3990   30.2760   47.7130 C   0  0  0  0  0  0  0  0  0  0  0  0
   33.7190   29.7750   46.5990 C   0  0  0  0  0  0  0  0  0  0  0  0
   33.3390   28.4470   46.5720 N   0  0  0  0  0  0  0  0  0  0  0  0
   33.6170   27.6100   47.6180 C   0  0  0  0  0  0  0  0  0  0  0  0
   34.2650   28.0750   48.6840 N   0  0  0  0  0  0  0  0  0  0  0  0
   37.9970   32.6170   49.2750 C   0  0  0  0  0  0  0  0  0  0  0  0
   38.1020   32.8700   47.9320 F   0  0  0  0  0  0  0  0  0  0  0  0
   37.0410   33.4780   49.8270 F   0  0  0  0  0  0  0  0  0  0  0  0
   39.1850   32.8380   49.9370 F   0  0  0  0  0  0  0  0  0  0  0  0
   34.7044   30.1051   50.7935 H   0  0  0  0  0  0  0  0  0  0  0  0
   35.5970   31.5774   48.6035 H   0  0  0  0  0  0  0  0  0  0  0  0
   35.7012   31.9809   50.3749 H   0  0  0  0  0  0  0  0  0  0  0  0
   37.7807   30.5437   48.7152 H   0  0  0  0  0  0  0  0  0  0  0  0
   39.1352   30.5707   50.6989 H   0  0  0  0  0  0  0  0  0  0  0  0
   37.8553   31.5170   51.5872 H   0  0  0  0  0  0  0  0  0  0  0  0
   38.2187   28.7230   51.4507 H   0  0  0  0  0  0  0  0  0  0  0  0
   36.9042   29.7074   52.2512 H   0  0  0  0  0  0  0  0  0  0  0  0
   35.8811   28.0753   50.8492 H   0  0  0  0  0  0  0  0  0  0  0  0
   36.9286   28.5894   49.4500 H   0  0  0  0  0  0  0  0  0  0  0  0
   34.7166   31.3276   47.7707 H   0  0  0  0  0  0  0  0  0  0  0  0
   33.4879   30.4341   45.7492 H   0  0  0  0  0  0  0  0  0  0  0  0
   33.3059   26.5556   47.5783 H   0  0  0  0  0  0  0  0  0  0  0  0
  1  6  1  0
  2  1  1  0
  3  2  1  0
  3  4  1  0
  4  5  1  0
  6  5  1  0
  7  1  1  0
  8  7  2  0
  9  8  1  0
 10  9  2  0
 10 11  1  0
 11 12  2  0
 12  7  1  0
 13  3  1  0
 13 15  1  0
 13 16  1  0
 14 13  1  0
  1 17  1  1
  2 18  1  0
  2 19  1  0
  3 20  1  6
  4 21  1  0
  4 22  1  0
  5 23  1  0
  5 24  1  0
  6 25  1  0
  6 26  1  0
  8 27  1  0
  9 28  1  0
 11 29  1  0
M  ISO  8  17  13  18  13  19  13  20  13  21  13  22  13  23  13  24  13
M  ISO  5  25  13  26  13  27  14  28  14  29  14
M  END
>  <minimizedAffinity>  (1) 
-5.99550343

>  <minimizedRMSD>  (1) 
0.979387581

$$$$
