
     RDKit          3D

 37 39  0  0  1  0  0  0  0  0999 V2000
   35.2800   30.3420   49.7340 C   0  0  2  0  0  0  0  0  0  0  0  0
   36.2570   31.0640   48.8270 C   0  0  0  0  0  0  0  0  0  0  0  0
   37.6640   30.5390   48.9650 C   0  0  2  0  0  0  0  0  0  0  0  0
   38.1540   30.6310   50.3810 C   0  0  0  0  0  0  0  0  0  0  0  0
   37.1470   30.0850   51.3670 C   0  0  0  0  0  0  0  0  0  0  0  0
   35.9650   29.4300   50.6930 C   0  0  0  0  0  0  0  0  0  0  0  0
   34.3590   29.5100   48.8980 C   0  0  0  0  0  0  0  0  0  0  0  0
   34.3370   29.7820   47.5180 C   0  0  0  0  0  0  0  0  0  0  0  0
   33.4790   29.0190   46.7380 C   0  0  0  0  0  0  0  0  0  0  0  0
   32.6970   28.0480   47.3310 N   0  0  0  0  0  0  0  0  0  0  0  0
   32.7530   27.8220   48.6780 C   0  0  0  0  0  0  0  0  0  0  0  0
   33.5750   28.5490   49.4380 N   0  0  0  0  0  0  0  0  0  0  0  0
   38.5830   31.0540   47.9470 C   0  0  2  0  0  0  0  0  0  0  0  0
   38.7420   32.5600   47.9130 C   0  0  0  0  0  0  0  0  0  0  0  0
   39.5220   32.6490   46.5900 C   0  0  0  0  0  0  0  0  0  0  0  0
   38.9280   31.7230   45.7500 O   0  0  0  0  0  0  0  0  0  0  0  0
   38.2330   30.7960   46.5170 C   0  0  0  0  0  0  0  0  0  0  0  0
   34.7373   31.1103   50.3042 H   0  0  0  0  0  0  0  0  0  0  0  0
   36.2523   32.1338   49.0828 H   0  0  0  0  0  0  0  0  0  0  0  0
   35.9368   30.8970   47.7880 H   0  0  0  0  0  0  0  0  0  0  0  0
   37.6346   29.4620   48.7430 H   0  0  0  0  0  0  0  0  0  0  0  0
   39.0872   30.0557   50.4716 H   0  0  0  0  0  0  0  0  0  0  0  0
   38.3162   31.6935   50.6153 H   0  0  0  0  0  0  0  0  0  0  0  0
   37.6465   29.3395   52.0033 H   0  0  0  0  0  0  0  0  0  0  0  0
   36.7655   30.9328   51.9550 H   0  0  0  0  0  0  0  0  0  0  0  0
   35.2439   29.1229   51.4648 H   0  0  0  0  0  0  0  0  0  0  0  0
   36.3397   28.5661   50.1245 H   0  0  0  0  0  0  0  0  0  0  0  0
   34.9716   30.5646   47.0766 H   0  0  0  0  0  0  0  0  0  0  0  0
   33.4224   29.1872   45.6524 H   0  0  0  0  0  0  0  0  0  0  0  0
   32.1231   27.0440   49.1339 H   0  0  0  0  0  0  0  0  0  0  0  0
   39.4731   30.5009   48.2815 H   0  0  0  0  0  0  0  0  0  0  0  0
   37.7751   33.0823   47.8651 H   0  0  0  0  0  0  0  0  0  0  0  0
   39.2176   33.0203   48.7916 H   0  0  0  0  0  0  0  0  0  0  0  0
   39.4439   33.6604   46.1645 H   0  0  0  0  0  0  0  0  0  0  0  0
   40.5934   32.4442   46.7322 H   0  0  0  0  0  0  0  0  0  0  0  0
   38.5297   29.7751   46.2347 H   0  0  0  0  0  0  0  0  0  0  0  0
   37.1489   30.8914   46.3571 H   0  0  0  0  0  0  0  0  0  0  0  0
  1  6  1  0
  2  3  1  0
  2  1  1  0
  3  4  1  0
  4  5  1  0
  6  5  1  0
  7 12  1  0
  7  1  1  0
  8  7  2  0
  9 10  2  0
  9  8  1  0
 10 11  1  0
 11 12  2  0
 13 17  1  0
 13  3  1  0
 14 13  1  0
 15 14  1  0
 16 17  1  0
 16 15  1  0
  1 18  1  1
  2 19  1  0
  2 20  1  0
  3 21  1  6
  4 22  1  0
  4 23  1  0
  5 24  1  0
  5 25  1  0
  6 26  1  0
  6 27  1  0
  8 28  1  0
  9 29  1  0
 11 30  1  0
 13 31  1  1
 14 32  1  0
 14 33  1  0
 15 34  1  0
 15 35  1  0
 17 36  1  0
 17 37  1  0
M  ISO  8  18  13  19  13  20  13  21  13  22  13  23  13  24  13  25  13
M  ISO  8  26  13  27  13  28  14  29  14  30  14  31  13  32  13  33  13
M  ISO  4  34  13  35  13  36  13  37  13
M  END
>  <minimizedAffinity>  (1) 
-6.11078024

>  <minimizedRMSD>  (1) 
0.763134956

$$$$
