
     RDKit          3D

 16 16  0  0  0  0  0  0  0  0999 V2000
   37.3170   30.2560   51.4630 C   0  0  0  0  0  0  0  0  0  0  0  0
   38.1320   30.7670   50.4440 C   0  0  0  0  0  0  0  0  0  0  0  0
   37.8390   30.4290   49.1270 C   0  0  0  0  0  0  0  0  0  0  0  0
   36.7700   29.6150   48.8840 N   0  0  0  0  0  0  0  0  0  0  0  0
   36.0120   29.1460   49.8990 C   0  0  0  0  0  0  0  0  0  0  0  0
   36.2840   29.4630   51.1630 N   0  0  0  0  0  0  0  0  0  0  0  0
   38.6830   30.9630   48.1290 N   0  0  0  0  0  0  0  0  0  0  0  0
   34.1230   29.0550   48.4820 C   0  0  0  0  0  0  0  0  0  0  0  0
   34.2490   30.2850   48.1630 O   0  0  0  0  0  0  0  0  0  0  0  0
   34.9650   28.3230   49.3740 N   0  0  0  0  0  0  0  0  0  0  0  0
   37.5281   30.5083   52.5127 H   0  0  0  0  0  0  0  0  0  0  0  0
   38.9844   31.4208   50.6804 H   0  0  0  0  0  0  0  0  0  0  0  0
   38.5105   30.7442   47.1374 H   0  0  0  0  0  0  0  0  0  0  0  0
   39.4712   31.5714   48.3925 H   0  0  0  0  0  0  0  0  0  0  0  0
   33.2856   28.5064   48.0261 H   0  0  0  0  0  0  0  0  0  0  0  0
   34.8352   27.3288   49.6096 H   0  0  0  0  0  0  0  0  0  0  0  0
  2  1  2  0
  3  2  1  0
  4  3  2  0
  4  5  1  0
  5  6  2  0
  6  1  1  0
  7  3  1  0
  8 10  1  0
  9  8  2  0
 10  5  1  0
  1 11  1  0
  2 12  1  0
  7 13  1  0
  7 14  1  0
  8 15  1  0
 10 16  1  0
M  ISO  3  11  14  12  14  15   6
M  END
>  <minimizedAffinity>  (1) 
-4.37242174

>  <minimizedRMSD>  (1) 
0.0483848527

$$$$
