
     RDKit          3D

 25 26  0  0  1  0  0  0  0  0999 V2000
   37.5240   30.1800   51.1410 C   0  0  0  0  0  0  0  0  0  0  0  0
   38.3650   30.9420   50.3160 C   0  0  0  0  0  0  0  0  0  0  0  0
   37.8390   31.5270   49.1540 C   0  0  0  0  0  0  0  0  0  0  0  0
   36.5080   31.3090   48.8960 N   0  0  0  0  0  0  0  0  0  0  0  0
   35.7170   30.5760   49.6950 C   0  0  0  0  0  0  0  0  0  0  0  0
   36.2250   30.0140   50.8150 N   0  0  0  0  0  0  0  0  0  0  0  0
   38.6420   32.3050   48.2890 N   0  0  0  0  0  0  0  0  0  0  0  0
   39.0610   31.6910   47.0630 C   0  0  0  0  0  0  0  0  0  0  0  0
   39.8110   32.5650   46.1360 C   0  0  0  0  0  0  0  0  0  0  0  0
   39.9950   33.9010   46.4990 N   0  0  0  0  0  0  0  0  0  0  0  0
   40.0950   34.2340   47.8700 C   0  0  0  0  0  0  0  0  0  0  0  0
   38.9820   33.6410   48.6860 C   0  0  2  0  0  0  0  0  0  0  0  0
   39.2050   33.7490   50.0450 O   0  0  0  0  0  0  0  0  0  0  0  0
   37.9242   29.7171   52.0551 H   0  0  0  0  0  0  0  0  0  0  0  0
   39.4247   31.0793   50.5771 H   0  0  0  0  0  0  0  0  0  0  0  0
   34.6568   30.4326   49.4390 H   0  0  0  0  0  0  0  0  0  0  0  0
   39.7035   30.8345   47.3154 H   0  0  0  0  0  0  0  0  0  0  0  0
   38.1375   31.4127   46.5342 H   0  0  0  0  0  0  0  0  0  0  0  0
   39.2761   32.5579   45.1748 H   0  0  0  0  0  0  0  0  0  0  0  0
   40.8263   32.1421   46.1205 H   0  0  0  0  0  0  0  0  0  0  0  0
   40.8645   34.2189   46.0475 H   0  0  0  0  0  0  0  0  0  0  0  0
   41.0544   33.8587   48.2556 H   0  0  0  0  0  0  0  0  0  0  0  0
   40.0268   35.3286   47.9551 H   0  0  0  0  0  0  0  0  0  0  0  0
   38.0942   34.2525   48.4674 H   0  0  0  0  0  0  0  0  0  0  0  0
   38.4318   33.3746   50.5371 H   0  0  0  0  0  0  0  0  0  0  0  0
  2  1  2  0
  3  2  1  0
  4  3  2  0
  4  5  1  0
  5  6  2  0
  6  1  1  0
  7 12  1  0
  7  3  1  0
  8  7  1  0
  9 10  1  0
  9  8  1  0
 10 11  1  0
 11 12  1  0
 12 13  1  0
  1 14  1  0
  2 15  1  0
  5 16  1  0
  8 17  1  0
  8 18  1  0
  9 19  1  0
  9 20  1  0
 10 21  1  0
 11 22  1  0
 11 23  1  0
 12 24  1  1
 13 25  1  0
M  ISO  8  14  14  15  14  16  14  17  13  18  13  19  13  20  13  21   5
M  ISO  4  22  13  23  13  24  13  25   3
M  END
>  <minimizedAffinity>  (1) 
-4.97858191

>  <minimizedRMSD>  (1) 
0.482606173

$$$$
