
     RDKit          3D

 26 27  0  0  1  0  0  0  0  0999 V2000
   37.1860   30.2430   50.7260 C   0  0  0  0  0  0  0  0  0  0  0  0
   38.0350   30.7430   49.7360 C   0  0  0  0  0  0  0  0  0  0  0  0
   37.5460   30.9610   48.4470 C   0  0  0  0  0  0  0  0  0  0  0  0
   36.2420   30.6680   48.2230 N   0  0  0  0  0  0  0  0  0  0  0  0
   35.4220   30.1850   49.1780 C   0  0  0  0  0  0  0  0  0  0  0  0
   35.8900   29.9720   50.4300 N   0  0  0  0  0  0  0  0  0  0  0  0
   38.4040   31.4710   47.4310 N   0  0  0  0  0  0  0  0  0  0  0  0
   38.8680   30.5100   46.4600 C   0  0  0  0  0  0  0  0  0  0  0  0
   39.6250   31.1010   45.3260 C   0  0  0  0  0  0  0  0  0  0  0  0
   39.8080   32.4760   45.2850 N   0  0  0  0  0  0  0  0  0  0  0  0
   39.8470   33.2120   46.4810 C   0  0  0  0  0  0  0  0  0  0  0  0
   38.7380   32.8600   47.4430 C   0  0  2  0  0  0  0  0  0  0  0  0
   39.0840   33.3740   48.7890 C   0  0  0  0  0  0  0  0  0  0  0  0
   39.4010   33.9040   49.8410 O   0  0  0  0  0  0  0  0  0  0  0  0
   37.5672   30.0694   51.7431 H   0  0  0  0  0  0  0  0  0  0  0  0
   39.0864   30.9644   49.9716 H   0  0  0  0  0  0  0  0  0  0  0  0
   34.3712   29.9637   48.9393 H   0  0  0  0  0  0  0  0  0  0  0  0
   39.5230   29.7907   46.9734 H   0  0  0  0  0  0  0  0  0  0  0  0
   37.9714   30.0408   46.0288 H   0  0  0  0  0  0  0  0  0  0  0  0
   40.6249   30.6425   45.3317 H   0  0  0  0  0  0  0  0  0  0  0  0
   38.9943   30.8918   44.4493 H   0  0  0  0  0  0  0  0  0  0  0  0
   40.7026   32.6434   44.8027 H   0  0  0  0  0  0  0  0  0  0  0  0
   40.8106   33.0207   46.9759 H   0  0  0  0  0  0  0  0  0  0  0  0
   39.7177   34.2709   46.2128 H   0  0  0  0  0  0  0  0  0  0  0  0
   37.8127   33.3542   47.1119 H   0  0  0  0  0  0  0  0  0  0  0  0
   38.8008   32.4329   49.2832 H   0  0  0  0  0  0  0  0  0  0  0  0
  2  1  2  0
  3  2  1  0
  4  3  2  0
  4  5  1  0
  5  6  2  0
  6  1  1  0
  7 12  1  0
  7  3  1  0
  8  7  1  0
  9  8  1  0
 10  9  1  0
 10 11  1  0
 11 12  1  0
 12 13  1  0
 13 14  2  0
  1 15  1  0
  2 16  1  0
  5 17  1  0
  8 18  1  0
  8 19  1  0
  9 20  1  0
  9 21  1  0
 10 22  1  0
 11 23  1  0
 11 24  1  0
 12 25  1  6
 13 26  1  0
M  ISO  8  15  14  16  14  17  14  18  13  19  13  20  13  21  13  22   5
M  ISO  4  23  13  24  13  25  13  26   6
M  END
>  <minimizedAffinity>  (1) 
-4.50787783

>  <minimizedRMSD>  (1) 
1.54767907

$$$$
