
     RDKit          3D

 14 14  0  0  0  0  0  0  0  0999 V2000
   37.2660   30.1920   51.4320 C   0  0  0  0  0  0  0  0  0  0  0  0
   38.1040   30.7230   50.4380 C   0  0  0  0  0  0  0  0  0  0  0  0
   37.7970   30.4240   49.1160 C   0  0  0  0  0  0  0  0  0  0  0  0
   36.7230   29.6460   48.8490 N   0  0  0  0  0  0  0  0  0  0  0  0
   35.9390   29.1490   49.8200 C   0  0  0  0  0  0  0  0  0  0  0  0
   36.2070   29.4190   51.1070 N   0  0  0  0  0  0  0  0  0  0  0  0
   38.6530   30.9700   48.1250 N   0  0  0  0  0  0  0  0  0  0  0  0
   34.7940   28.3150   49.4700 C   0  0  0  0  0  0  0  0  0  0  0  0
   33.6020   28.6770   49.5350 O   0  0  0  0  0  0  0  0  0  0  0  0
   37.4749   30.4086   52.4900 H   0  0  0  0  0  0  0  0  0  0  0  0
   38.9695   31.3510   50.6957 H   0  0  0  0  0  0  0  0  0  0  0  0
   38.4733   30.7813   47.1285 H   0  0  0  0  0  0  0  0  0  0  0  0
   39.4541   31.5551   48.4021 H   0  0  0  0  0  0  0  0  0  0  0  0
   34.9970   27.2911   49.1231 H   0  0  0  0  0  0  0  0  0  0  0  0
  2  1  2  0
  3  2  1  0
  4  3  2  0
  4  5  1  0
  5  6  2  0
  6  1  1  0
  7  3  1  0
  8  9  2  0
  8  5  1  0
  1 10  1  0
  2 11  1  0
  7 12  1  0
  7 13  1  0
  8 14  1  0
M  ISO  3  10  14  11  14  14   6
M  END
>  <minimizedAffinity>  (1) 
-3.89631772

>  <minimizedRMSD>  (1) 
0.143183723

$$$$
