
     RDKit          3D

 23 24  0  0  0  0  0  0  0  0999 V2000
   38.1220   33.2640   49.6080 Cl  0  0  0  0  0  0  0  0  0  0  0  0
   38.4850   32.3790   48.1380 C   0  0  0  0  0  0  0  0  0  0  0  0
   38.0090   31.1040   47.9670 C   0  0  0  0  0  0  0  0  0  0  0  0
   38.3430   30.4580   46.7840 C   0  0  0  0  0  0  0  0  0  0  0  0
   39.1160   31.0460   45.8110 C   0  0  0  0  0  0  0  0  0  0  0  0
   39.5740   32.3410   46.0330 C   0  0  0  0  0  0  0  0  0  0  0  0
   40.5530   33.0680   44.7830 Cl  0  0  0  0  0  0  0  0  0  0  0  0
   39.2690   33.0180   47.1870 C   0  0  0  0  0  0  0  0  0  0  0  0
   36.9540   29.3920   51.1570 C   0  0  0  0  0  0  0  0  0  0  0  0
   37.7530   29.9400   50.1420 C   0  0  0  0  0  0  0  0  0  0  0  0
   37.1920   30.5330   49.0260 C   0  0  0  0  0  0  0  0  0  0  0  0
   35.8270   30.5500   48.9790 N   0  0  0  0  0  0  0  0  0  0  0  0
   35.0760   30.0210   49.9590 C   0  0  0  0  0  0  0  0  0  0  0  0
   35.6220   29.4500   51.0340 N   0  0  0  0  0  0  0  0  0  0  0  0
   39.4170   30.2640   44.5810 C   0  0  0  0  0  0  0  0  0  0  0  0
   37.9743   29.4349   46.6188 H   0  0  0  0  0  0  0  0  0  0  0  0
   39.6364   34.0412   47.3543 H   0  0  0  0  0  0  0  0  0  0  0  0
   37.4142   28.9226   52.0390 H   0  0  0  0  0  0  0  0  0  0  0  0
   38.8481   29.8969   50.2361 H   0  0  0  0  0  0  0  0  0  0  0  0
   33.9801   30.0597   49.8728 H   0  0  0  0  0  0  0  0  0  0  0  0
   39.7990   29.2714   44.8619 H   0  0  0  0  0  0  0  0  0  0  0  0
   38.4990   30.1487   43.9860 H   0  0  0  0  0  0  0  0  0  0  0  0
   40.1754   30.7939   43.9860 H   0  0  0  0  0  0  0  0  0  0  0  0
  2  1  1  0
  3  2  2  0
  3 11  1  0
  4  3  1  0
  5  6  1  0
  5  4  2  0
  6  8  2  0
  7  6  1  0
  8  2  1  0
 10  9  2  0
 11 10  1  0
 12 11  2  0
 12 13  1  0
 13 14  2  0
 14  9  1  0
 15  5  1  0
  4 16  1  0
  8 17  1  0
  9 18  1  0
 10 19  1  0
 13 20  1  0
 15 21  1  0
 15 22  1  0
 15 23  1  0
M  ISO  8  16  14  17  14  18  14  19  14  20  14  21   8  22   8  23   8
M  END
>  <minimizedAffinity>  (1) 
-5.75272703

>  <minimizedRMSD>  (1) 
0.0732362494

$$$$
