
     RDKit          3D

 42 44  0  0  0  0  0  0  0  0999 V2000
   38.6272   32.9674   49.6911 Cl  0  0  0  0  0  0  0  0  0  0  0  0
   38.6052   32.2956   48.0829 C   0  0  0  0  0  0  0  0  0  0  0  0
   37.8667   31.1576   47.8079 C   0  0  0  0  0  0  0  0  0  0  0  0
   37.9004   30.6909   46.5164 C   0  0  0  0  0  0  0  0  0  0  0  0
   38.6115   31.2841   45.5180 C   0  0  0  0  0  0  0  0  0  0  0  0
   39.3449   32.4278   45.8260 C   0  0  0  0  0  0  0  0  0  0  0  0
   40.2445   33.1678   44.5320 Cl  0  0  0  0  0  0  0  0  0  0  0  0
   39.3465   32.9424   47.1139 C   0  0  0  0  0  0  0  0  0  0  0  0
   37.0276   29.3312   51.0087 C   0  0  0  0  0  0  0  0  0  0  0  0
   37.7646   29.8937   49.9668 C   0  0  0  0  0  0  0  0  0  0  0  0
   37.1200   30.5591   48.9140 C   0  0  0  0  0  0  0  0  0  0  0  0
   35.7475   30.6223   48.9695 N   0  0  0  0  0  0  0  0  0  0  0  0
   35.0797   30.0637   49.9961 C   0  0  0  0  0  0  0  0  0  0  0  0
   35.7026   29.4326   50.9933 N   0  0  0  0  0  0  0  0  0  0  0  0
   36.7824   32.5076   43.4242 Cl  0  0  0  0  0  0  0  0  0  0  0  0
   37.7806   31.0922   43.1253 C   0  0  0  0  0  0  0  0  0  0  0  0
   38.5498   30.6705   44.1904 C   0  0  0  0  0  0  0  0  0  0  0  0
   39.3702   29.5518   44.0499 C   0  0  0  0  0  0  0  0  0  0  0  0
   39.4202   28.8548   42.8414 C   0  0  0  0  0  0  0  0  0  0  0  0
   38.6354   29.3106   41.8030 C   0  0  0  0  0  0  0  0  0  0  0  0
   37.8075   30.4312   41.9283 C   0  0  0  0  0  0  0  0  0  0  0  0
   37.3022   29.7928   46.3508 H   0  0  0  0  0  0  0  0  0  0  0  0
   39.9303   33.8322   47.3051 H   0  0  0  0  0  0  0  0  0  0  0  0
   37.5266   28.8212   51.8166 H   0  0  0  0  0  0  0  0  0  0  0  0
   38.8450   29.8151   49.9723 H   0  0  0  0  0  0  0  0  0  0  0  0
   34.0126   30.2257   49.8468 H   0  0  0  0  0  0  0  0  0  0  0  0
   39.9928   29.1763   44.8469 H   0  0  0  0  0  0  0  0  0  0  0  0
   40.0479   27.9838   42.7066 H   0  0  0  0  0  0  0  0  0  0  0  0
   38.6678   28.7756   40.8607 H   0  0  0  0  0  0  0  0  0  0  0  0
   36.9955   30.8864   40.7944 C   0  0  0  0  0  0  0  0  0  0  0  0
   37.0460   32.2812   40.5029 N   0  0  0  0  0  4  0  0  0  0  0  0
   35.7796   32.9453   40.7132 C   0  0  0  0  0  0  0  0  0  0  0  0
   34.9476   32.2112   40.9032 H   0  0  0  0  0  0  0  0  0  0  0  0
   38.0637   33.0158   41.2222 C   0  0  0  0  0  0  0  0  0  0  0  0
   39.0480   32.5341   41.0240 H   0  0  0  0  0  0  0  0  0  0  0  0
   37.3341   30.3259   39.8774 H   0  0  0  0  0  0  0  0  0  0  0  0
   35.9168   30.5798   40.8897 H   0  0  0  0  0  0  0  0  0  0  0  0
   37.2801   32.4533   39.4740 H   0  0  0  0  0  0  0  0  0  0  0  0
   35.4287   33.5278   39.8275 H   0  0  0  0  0  0  0  0  0  0  0  0
   35.8060   33.6993   41.5416 H   0  0  0  0  0  0  0  0  0  0  0  0
   37.8495   33.2113   42.2697 H   0  0  0  0  0  0  0  0  0  0  0  0
   38.1298   34.0140   40.7089 H   0  0  0  0  0  0  0  0  0  0  0  0
  2  1  1  0
  3  2  2  0
  3 11  1  0
  4  3  1  0
  5  6  1  0
  5  4  2  0
  6  8  2  0
  7  6  1  0
  8  2  1  0
 10  9  2  0
 11 12  2  0
 11 10  1  0
 12 13  1  0
 13 14  2  0
 14  9  1  0
 16 15  1  0
 16 17  2  0
 17  5  1  0
 18 17  1  0
 19 18  2  0
 20 21  2  0
 20 19  1  0
 21 16  1  0
  4 22  1  0
  8 23  1  0
  9 24  1  0
 10 25  1  0
 13 26  1  0
 18 27  1  0
 19 28  1  0
 20 29  1  0
 30 31  1  0
 31 32  1  0
 32 33  1  0
 31 34  1  0
 34 35  1  0
 30 36  1  0
 30 37  1  0
 31 38  1  0
 32 39  1  0
 32 40  1  0
 34 41  1  0
 34 42  1  0
 21 30  1  0
M  CHG  1  31   1
M  END
>  <DihAtoms>  (1) 
19,20,29,30

>  <DihDeg>  (1) 
-102.29479489873044

$$$$
