
     RDKit          3D

 42 45  0  0  1  0  0  0  0  0999 V2000
   35.7630   29.8960   48.8700 N   0  0  0  0  0  0  0  0  0  0  0  0
   35.2690   30.9480   49.6770 C   0  0  0  0  0  0  0  0  0  0  0  0
   36.3590   31.7600   50.2830 C   0  0  0  0  0  0  0  0  0  0  0  0
   37.3490   30.7850   50.9190 C   0  0  0  0  0  0  0  0  0  0  0  0
   38.0780   30.1600   49.7610 C   0  0  0  0  0  0  0  0  0  0  0  0
   37.1710   29.9230   48.6310 C   0  0  2  0  0  0  0  0  0  0  0  0
   36.9700   30.5690   46.1450 C   0  0  0  0  0  0  0  0  0  0  0  0
   37.5400   30.6510   47.3910 C   0  0  0  0  0  0  0  0  0  0  0  0
   38.5930   31.5740   47.4160 C   0  0  0  0  0  0  0  0  0  0  0  0
   39.0480   32.3330   46.3600 C   0  0  0  0  0  0  0  0  0  0  0  0
   40.0250   33.2330   46.2510 N   0  0  0  0  0  0  0  0  0  0  0  0
   40.0170   33.6590   44.9710 C   0  0  0  0  0  0  0  0  0  0  0  0
   39.0230   33.0200   44.2600 C   0  0  0  0  0  0  0  0  0  0  0  0
   38.4030   32.1710   45.1530 C   0  0  0  0  0  0  0  0  0  0  0  0
   37.3670   31.2880   45.0550 C   0  0  0  0  0  0  0  0  0  0  0  0
   35.2150   28.6020   49.1090 C   0  0  0  0  0  0  0  0  0  0  0  0
   34.1770   28.2720   48.1100 C   0  0  0  0  0  0  0  0  0  0  0  0
   33.7450   29.2870   47.2390 C   0  0  0  0  0  0  0  0  0  0  0  0
   32.7640   28.9830   46.2910 C   0  0  0  0  0  0  0  0  0  0  0  0
   32.2810   27.7010   46.2700 N   0  0  0  0  0  0  0  0  0  0  0  0
   32.7030   26.7490   47.1070 C   0  0  0  0  0  0  0  0  0  0  0  0
   33.6410   27.0270   48.0190 N   0  0  0  0  0  0  0  0  0  0  0  0
   34.6428   31.6053   49.0558 H   0  0  0  0  0  0  0  0  0  0  0  0
   34.6914   30.4975   50.4976 H   0  0  0  0  0  0  0  0  0  0  0  0
   36.8621   32.3549   49.5064 H   0  0  0  0  0  0  0  0  0  0  0  0
   35.9566   32.4541   51.0355 H   0  0  0  0  0  0  0  0  0  0  0  0
   38.0516   31.3201   51.5748 H   0  0  0  0  0  0  0  0  0  0  0  0
   36.8450   30.0333   51.5443 H   0  0  0  0  0  0  0  0  0  0  0  0
   38.8851   30.8343   49.4385 H   0  0  0  0  0  0  0  0  0  0  0  0
   38.4890   29.1934   50.0877 H   0  0  0  0  0  0  0  0  0  0  0  0
   37.3724   28.8553   48.4595 H   0  0  0  0  0  0  0  0  0  0  0  0
   36.1298   29.8710   46.0152 H   0  0  0  0  0  0  0  0  0  0  0  0
   39.1101   31.7066   48.3778 H   0  0  0  0  0  0  0  0  0  0  0  0
   40.6621   33.5430   46.9986 H   0  0  0  0  0  0  0  0  0  0  0  0
   40.7051   34.4090   44.5539 H   0  0  0  0  0  0  0  0  0  0  0  0
   38.7751   33.1590   43.1974 H   0  0  0  0  0  0  0  0  0  0  0  0
   36.8497   31.1552   44.0933 H   0  0  0  0  0  0  0  0  0  0  0  0
   36.0199   27.8545   49.0513 H   0  0  0  0  0  0  0  0  0  0  0  0
   34.7537   28.5965   50.1076 H   0  0  0  0  0  0  0  0  0  0  0  0
   34.1701   30.2996   47.3021 H   0  0  0  0  0  0  0  0  0  0  0  0
   32.3938   29.7441   45.5884 H   0  0  0  0  0  0  0  0  0  0  0  0
   32.2787   25.7359   47.0460 H   0  0  0  0  0  0  0  0  0  0  0  0
  1 16  1  0
  1  2  1  0
  2  3  1  0
  3  4  1  0
  5  4  1  0
  6  1  1  0
  6  5  1  0
  7  8  2  0
  8  9  1  0
  8  6  1  0
 10  9  2  0
 11 10  1  0
 12 11  1  0
 13 12  2  0
 13 14  1  0
 14 10  1  0
 15 14  2  0
 15  7  1  0
 17 16  1  0
 18 17  2  0
 19 18  1  0
 20 19  2  0
 20 21  1  0
 21 22  2  0
 22 17  1  0
  2 23  1  0
  2 24  1  0
  3 25  1  0
  3 26  1  0
  4 27  1  0
  4 28  1  0
  5 29  1  0
  5 30  1  0
  6 31  1  6
  7 32  1  0
  9 33  1  0
 11 34  1  0
 12 35  1  0
 13 36  1  0
 15 37  1  0
 16 38  1  0
 16 39  1  0
 18 40  1  0
 19 41  1  0
 21 42  1  0
M  ISO  8  23  13  24  13  25  13  26  13  27  13  28  13  29  13  30  13
M  ISO  8  31  13  32  14  33  14  34   9  35  14  36  14  37  14  38   8
M  ISO  4  39   8  40  14  41  14  42  14
M  END
>  <minimizedAffinity>  (1) 
-6.26499176

>  <minimizedRMSD>  (1) 
1.35565639

$$$$
