
     RDKit          3D

 41 44  0  0  1  0  0  0  0  0999 V2000
   35.7340   29.9270   48.8240 N   0  0  0  0  0  0  0  0  0  0  0  0
   35.2370   30.9120   49.7090 C   0  0  0  0  0  0  0  0  0  0  0  0
   36.3280   31.6550   50.3980 C   0  0  0  0  0  0  0  0  0  0  0  0
   37.2780   30.6080   50.9780 C   0  0  0  0  0  0  0  0  0  0  0  0
   38.0320   30.0830   49.7890 C   0  0  0  0  0  0  0  0  0  0  0  0
   37.1460   29.9380   48.6230 C   0  0  2  0  0  0  0  0  0  0  0  0
   36.9550   30.6380   46.1640 C   0  0  0  0  0  0  0  0  0  0  0  0
   37.5430   30.7040   47.4090 C   0  0  0  0  0  0  0  0  0  0  0  0
   38.6100   31.6130   47.4680 C   0  0  0  0  0  0  0  0  0  0  0  0
   39.0400   32.3700   46.3990 C   0  0  0  0  0  0  0  0  0  0  0  0
   38.3970   32.2430   45.1860 C   0  0  0  0  0  0  0  0  0  0  0  0
   37.3420   31.3660   45.0690 C   0  0  0  0  0  0  0  0  0  0  0  0
   38.9850   33.0860   44.2600 O   0  0  0  0  0  0  0  0  0  0  0  0
   40.1960   33.5530   44.8020 C   0  0  0  0  0  0  0  0  0  0  0  0
   40.0420   33.3090   46.2090 O   0  0  0  0  0  0  0  0  0  0  0  0
   35.1590   28.6290   48.9250 C   0  0  0  0  0  0  0  0  0  0  0  0
   34.2420   28.3610   47.7870 C   0  0  0  0  0  0  0  0  0  0  0  0
   33.6890   29.4630   47.1140 C   0  0  0  0  0  0  0  0  0  0  0  0
   32.8230   29.2290   46.0390 C   0  0  0  0  0  0  0  0  0  0  0  0
   32.5620   27.9330   45.7040 N   0  0  0  0  0  0  0  0  0  0  0  0
   33.1070   26.8890   46.3680 C   0  0  0  0  0  0  0  0  0  0  0  0
   33.9390   27.1020   47.4020 N   0  0  0  0  0  0  0  0  0  0  0  0
   34.6286   31.6275   49.1363 H   0  0  0  0  0  0  0  0  0  0  0  0
   34.6391   30.4019   50.4786 H   0  0  0  0  0  0  0  0  0  0  0  0
   36.8623   32.2947   49.6802 H   0  0  0  0  0  0  0  0  0  0  0  0
   35.9247   32.3035   51.1898 H   0  0  0  0  0  0  0  0  0  0  0  0
   37.9663   31.0669   51.7030 H   0  0  0  0  0  0  0  0  0  0  0  0
   36.7438   29.8127   51.5185 H   0  0  0  0  0  0  0  0  0  0  0  0
   38.8427   30.7834   49.5396 H   0  0  0  0  0  0  0  0  0  0  0  0
   38.4408   29.0939   50.0429 H   0  0  0  0  0  0  0  0  0  0  0  0
   37.3584   28.8787   48.4162 H   0  0  0  0  0  0  0  0  0  0  0  0
   36.1085   29.9466   46.0394 H   0  0  0  0  0  0  0  0  0  0  0  0
   39.1363   31.7289   48.4269 H   0  0  0  0  0  0  0  0  0  0  0  0
   36.8167   31.2511   44.1094 H   0  0  0  0  0  0  0  0  0  0  0  0
   41.0516   32.9934   44.3960 H   0  0  0  0  0  0  0  0  0  0  0  0
   40.3949   34.6090   44.5667 H   0  0  0  0  0  0  0  0  0  0  0  0
   35.9632   27.8785   48.9230 H   0  0  0  0  0  0  0  0  0  0  0  0
   34.5817   28.5740   49.8597 H   0  0  0  0  0  0  0  0  0  0  0  0
   33.9316   30.4897   47.4255 H   0  0  0  0  0  0  0  0  0  0  0  0
   32.3684   30.0624   45.4833 H   0  0  0  0  0  0  0  0  0  0  0  0
   32.8684   25.8602   46.0605 H   0  0  0  0  0  0  0  0  0  0  0  0
  1 16  1  0
  1  2  1  0
  2  3  1  0
  3  4  1  0
  5  4  1  0
  6  1  1  0
  6  5  1  0
  7  8  2  0
  8  9  1  0
  8  6  1  0
 10  9  2  0
 11 10  1  0
 12 11  2  0
 12  7  1  0
 13 14  1  0
 13 11  1  0
 14 15  1  0
 15 10  1  0
 17 16  1  0
 18 17  2  0
 19 18  1  0
 20 19  2  0
 20 21  1  0
 21 22  2  0
 22 17  1  0
  2 23  1  0
  2 24  1  0
  3 25  1  0
  3 26  1  0
  4 27  1  0
  4 28  1  0
  5 29  1  0
  5 30  1  0
  6 31  1  6
  7 32  1  0
  9 33  1  0
 12 34  1  0
 14 35  1  0
 14 36  1  0
 16 37  1  0
 16 38  1  0
 18 39  1  0
 19 40  1  0
 21 41  1  0
M  ISO  8  23  13  24  13  25  13  26  13  27  13  28  13  29  13  30  13
M  ISO  8  31  13  32  14  33  14  34  14  35  13  36  13  37   8  38   8
M  ISO  3  39  14  40  14  41  14
M  END
>  <minimizedAffinity>  (1) 
-6.13403749

>  <minimizedRMSD>  (1) 
0.988842964

$$$$
