
     RDKit          3D

 38 40  0  0  1  0  0  0  0  0999 V2000
   35.2440   30.3800   47.8460 N   0  0  0  0  0  0  0  0  0  0  0  0
   34.2050   30.5310   48.7940 C   0  0  0  0  0  0  0  0  0  0  0  0
   34.6610   30.2210   50.1780 C   0  0  0  0  0  0  0  0  0  0  0  0
   35.3170   28.8350   50.1040 C   0  0  0  0  0  0  0  0  0  0  0  0
   36.6500   29.0990   49.4600 C   0  0  0  0  0  0  0  0  0  0  0  0
   36.5440   30.0990   48.3800 C   0  0  2  0  0  0  0  0  0  0  0  0
   38.4710   30.5360   46.1830 Cl  0  0  0  0  0  0  0  0  0  0  0  0
   38.3570   31.6390   47.5650 C   0  0  0  0  0  0  0  0  0  0  0  0
   37.4030   31.3070   48.5400 C   0  0  0  0  0  0  0  0  0  0  0  0
   37.3850   32.2170   49.5740 C   0  0  0  0  0  0  0  0  0  0  0  0
   38.1990   33.3110   49.6410 C   0  0  0  0  0  0  0  0  0  0  0  0
   39.1000   33.5690   48.6600 C   0  0  0  0  0  0  0  0  0  0  0  0
   39.2010   32.7250   47.5830 C   0  0  0  0  0  0  0  0  0  0  0  0
   34.9170   29.6560   46.6670 C   0  0  0  0  0  0  0  0  0  0  0  0
   33.4460   29.5150   46.5300 C   0  0  0  0  0  0  0  0  0  0  0  0
   32.7400   30.5100   45.8450 C   0  0  0  0  0  0  0  0  0  0  0  0
   31.3530   30.3830   45.7100 C   0  0  0  0  0  0  0  0  0  0  0  0
   30.7570   29.2810   46.2620 N   0  0  0  0  0  0  0  0  0  0  0  0
   31.4500   28.3440   46.9110 C   0  0  0  0  0  0  0  0  0  0  0  0
   32.7810   28.4510   47.0480 N   0  0  0  0  0  0  0  0  0  0  0  0
   33.8449   31.5699   48.7634 H   0  0  0  0  0  0  0  0  0  0  0  0
   33.4037   29.8235   48.5345 H   0  0  0  0  0  0  0  0  0  0  0  0
   35.3897   30.9716   50.5180 H   0  0  0  0  0  0  0  0  0  0  0  0
   33.8240   30.2342   50.8916 H   0  0  0  0  0  0  0  0  0  0  0  0
   35.4460   28.4090   51.1099 H   0  0  0  0  0  0  0  0  0  0  0  0
   34.7112   28.1087   49.5423 H   0  0  0  0  0  0  0  0  0  0  0  0
   37.3479   29.4718   50.2242 H   0  0  0  0  0  0  0  0  0  0  0  0
   37.0126   28.1573   49.0221 H   0  0  0  0  0  0  0  0  0  0  0  0
   36.9986   29.5222   47.5611 H   0  0  0  0  0  0  0  0  0  0  0  0
   36.6718   32.0523   50.3951 H   0  0  0  0  0  0  0  0  0  0  0  0
   38.1234   33.9921   50.5015 H   0  0  0  0  0  0  0  0  0  0  0  0
   39.7492   34.4544   48.7281 H   0  0  0  0  0  0  0  0  0  0  0  0
   39.9222   32.9080   46.7729 H   0  0  0  0  0  0  0  0  0  0  0  0
   35.3114   30.1934   45.7920 H   0  0  0  0  0  0  0  0  0  0  0  0
   35.3642   28.6531   46.7319 H   0  0  0  0  0  0  0  0  0  0  0  0
   33.2663   31.3773   45.4198 H   0  0  0  0  0  0  0  0  0  0  0  0
   30.7615   31.1429   45.1783 H   0  0  0  0  0  0  0  0  0  0  0  0
   30.9261   27.4760   47.3377 H   0  0  0  0  0  0  0  0  0  0  0  0
  1  6  1  0
  1  2  1  0
  2  3  1  0
  4  3  1  0
  5  4  1  0
  6  9  1  0
  6  5  1  0
  7  8  1  0
  8 13  2  0
  8  9  1  0
  9 10  2  0
 10 11  1  0
 12 11  2  0
 13 12  1  0
 14  1  1  0
 15 14  1  0
 15 20  1  0
 16 15  2  0
 17 16  1  0
 17 18  2  0
 18 19  1  0
 19 20  2  0
  2 21  1  0
  2 22  1  0
  3 23  1  0
  3 24  1  0
  4 25  1  0
  4 26  1  0
  5 27  1  0
  5 28  1  0
  6 29  1  6
 10 30  1  0
 11 31  1  0
 12 32  1  0
 13 33  1  0
 14 34  1  0
 14 35  1  0
 16 36  1  0
 17 37  1  0
 19 38  1  0
M  ISO  8  21  13  22  13  23  13  24  13  25  13  26  13  27  13  28  13
M  ISO  8  29  13  30  14  31  14  32  14  33  14  34   8  35   8  36  14
M  ISO  2  37  14  38  14
M  END
>  <minimizedAffinity>  (1) 
-5.80842018

>  <minimizedRMSD>  (1) 
2.79048896

$$$$
