
     RDKit          3D

 34 35  0  0  1  0  0  0  0  0999 V2000
   35.7390   30.0220   48.7160 N   0  0  0  0  0  0  0  0  0  0  0  0
   35.2360   30.8260   49.7870 C   0  0  0  0  0  0  0  0  0  0  0  0
   36.3210   31.6530   50.4010 C   0  0  0  0  0  0  0  0  0  0  0  0
   37.4420   30.6740   50.7510 C   0  0  0  0  0  0  0  0  0  0  0  0
   38.0930   30.2760   49.4690 C   0  0  0  0  0  0  0  0  0  0  0  0
   37.0840   30.2750   48.3640 C   0  0  2  0  0  0  0  0  0  0  0  0
   35.2990   28.6740   48.7160 C   0  0  0  0  0  0  0  0  0  0  0  0
   33.9410   28.5380   48.1760 C   0  0  0  0  0  0  0  0  0  0  0  0
   33.6550   29.1310   46.9500 C   0  0  0  0  0  0  0  0  0  0  0  0
   32.3780   29.0280   46.3980 C   0  0  0  0  0  0  0  0  0  0  0  0
   31.4550   28.3360   47.1060 N   0  0  0  0  0  0  0  0  0  0  0  0
   31.7280   27.7640   48.2880 C   0  0  0  0  0  0  0  0  0  0  0  0
   32.9660   27.8700   48.8110 N   0  0  0  0  0  0  0  0  0  0  0  0
   37.1740   31.5060   47.6770 O   0  0  0  0  0  0  0  0  0  0  0  0
   37.4100   30.2580   45.4060 O   0  0  0  0  0  0  0  0  0  0  0  0
   38.0250   31.3550   46.2470 P   0  0  0  0  0  0  0  0  0  0  0  0
   37.9000   32.7990   45.3460 O   0  0  0  0  0  0  0  0  0  0  0  0
   39.6760   31.0660   46.5240 O   0  0  0  0  0  0  0  0  0  0  0  0
   34.4535   31.4936   49.3971 H   0  0  0  0  0  0  0  0  0  0  0  0
   34.8279   30.1587   50.5604 H   0  0  0  0  0  0  0  0  0  0  0  0
   36.6802   32.4067   49.6849 H   0  0  0  0  0  0  0  0  0  0  0  0
   35.9641   32.1949   51.2893 H   0  0  0  0  0  0  0  0  0  0  0  0
   38.1751   31.1603   51.4114 H   0  0  0  0  0  0  0  0  0  0  0  0
   37.0433   29.7942   51.2773 H   0  0  0  0  0  0  0  0  0  0  0  0
   38.8948   30.9901   49.2301 H   0  0  0  0  0  0  0  0  0  0  0  0
   38.5144   29.2655   49.5754 H   0  0  0  0  0  0  0  0  0  0  0  0
   37.3507   29.4103   47.7386 H   0  0  0  0  0  0  0  0  0  0  0  0
   35.9872   28.0759   48.1006 H   0  0  0  0  0  0  0  0  0  0  0  0
   35.2869   28.3209   49.7577 H   0  0  0  0  0  0  0  0  0  0  0  0
   34.4400   29.6839   46.4133 H   0  0  0  0  0  0  0  0  0  0  0  0
   32.1320   29.4889   45.4300 H   0  0  0  0  0  0  0  0  0  0  0  0
   30.9454   27.2110   48.8281 H   0  0  0  0  0  0  0  0  0  0  0  0
   37.8333   33.5692   45.9645 H   0  0  0  0  0  0  0  0  0  0  0  0
   39.8468   31.0361   47.4987 H   0  0  0  0  0  0  0  0  0  0  0  0
  1  2  1  0
  2  3  1  0
  3  4  1  0
  5  4  1  0
  6  1  1  0
  6  5  1  0
  7  1  1  0
  8  7  1  0
  8 13  1  0
  9  8  2  0
 10  9  1  0
 10 11  2  0
 11 12  1  0
 12 13  2  0
 14  6  1  0
 15 16  2  0
 16 18  1  0
 16 14  1  0
 17 16  1  0
  2 19  1  0
  2 20  1  0
  3 21  1  0
  3 22  1  0
  4 23  1  0
  4 24  1  0
  5 25  1  0
  5 26  1  0
  6 27  1  6
  7 28  1  0
  7 29  1  0
  9 30  1  0
 10 31  1  0
 12 32  1  0
 17 33  1  0
 18 34  1  0
M  ISO  8  19  13  20  13  21  13  22  13  23  13  24  13  25  13  26  13
M  ISO  8  27  13  28   8  29   8  30  14  31  14  32  14  33   3  34   3
M  END
>  <minimizedAffinity>  (1) 
-4.89427662

>  <minimizedRMSD>  (1) 
0.944574177

$$$$
