
     RDKit          3D

 34 35  0  0  1  0  0  0  0  0999 V2000
   36.0350   30.3950   49.1160 N   0  0  0  0  0  0  0  0  0  0  0  0
   35.3320   29.4740   49.9530 C   0  0  0  0  0  0  0  0  0  0  0  0
   35.8650   29.5030   51.3570 C   0  0  0  0  0  0  0  0  0  0  0  0
   37.3790   29.3680   51.2420 C   0  0  0  0  0  0  0  0  0  0  0  0
   37.8940   30.6780   50.7050 C   0  0  0  0  0  0  0  0  0  0  0  0
   36.8700   31.3000   49.8300 C   0  0  1  0  0  0  0  0  0  0  0  0
   36.4280   29.9290   47.8570 C   0  0  0  0  0  0  0  0  0  0  0  0
   35.3570   30.0920   46.8450 C   0  0  0  0  0  0  0  0  0  0  0  0
   34.0520   30.2770   47.2750 C   0  0  0  0  0  0  0  0  0  0  0  0
   33.0350   30.4330   46.3190 C   0  0  0  0  0  0  0  0  0  0  0  0
   33.3860   30.3920   45.0160 N   0  0  0  0  0  0  0  0  0  0  0  0
   34.6500   30.2130   44.6120 C   0  0  0  0  0  0  0  0  0  0  0  0
   35.6320   30.0640   45.5140 N   0  0  0  0  0  0  0  0  0  0  0  0
   37.4370   32.3260   48.8880 C   0  0  0  0  0  0  0  0  0  0  0  0
   38.6590   32.9500   49.5310 C   0  0  0  0  0  0  0  0  0  0  0  0
   34.2658   29.7441   49.9680 H   0  0  0  0  0  0  0  0  0  0  0  0
   35.4687   28.4602   49.5485 H   0  0  0  0  0  0  0  0  0  0  0  0
   35.6032   30.4538   51.8444 H   0  0  0  0  0  0  0  0  0  0  0  0
   35.4361   28.6925   51.9646 H   0  0  0  0  0  0  0  0  0  0  0  0
   37.8172   29.1656   52.2304 H   0  0  0  0  0  0  0  0  0  0  0  0
   37.6513   28.5349   50.5773 H   0  0  0  0  0  0  0  0  0  0  0  0
   38.1171   31.3540   51.5436 H   0  0  0  0  0  0  0  0  0  0  0  0
   38.8087   30.4968   50.1215 H   0  0  0  0  0  0  0  0  0  0  0  0
   36.2191   31.8049   50.5590 H   0  0  0  0  0  0  0  0  0  0  0  0
   37.3141   30.4931   47.5303 H   0  0  0  0  0  0  0  0  0  0  0  0
   36.6503   28.8554   47.9464 H   0  0  0  0  0  0  0  0  0  0  0  0
   33.8166   30.3012   48.3492 H   0  0  0  0  0  0  0  0  0  0  0  0
   31.9882   30.5835   46.6216 H   0  0  0  0  0  0  0  0  0  0  0  0
   34.8840   30.1880   43.5375 H   0  0  0  0  0  0  0  0  0  0  0  0
   36.6844   33.1036   48.6904 H   0  0  0  0  0  0  0  0  0  0  0  0
   37.7152   31.8493   47.9365 H   0  0  0  0  0  0  0  0  0  0  0  0
   38.5628   32.9009   50.6257 H   0  0  0  0  0  0  0  0  0  0  0  0
   39.5591   32.4012   49.2170 H   0  0  0  0  0  0  0  0  0  0  0  0
   38.7422   34.0010   49.2170 H   0  0  0  0  0  0  0  0  0  0  0  0
  1  6  1  0
  1  2  1  0
  2  3  1  0
  4  3  1  0
  5  4  1  0
  6  5  1  0
  7  1  1  0
  8  9  2  0
  8  7  1  0
 10  9  1  0
 11 10  2  0
 12 11  1  0
 12 13  2  0
 13  8  1  0
 14 15  1  0
 14  6  1  0
  2 16  1  0
  2 17  1  0
  3 18  1  0
  3 19  1  0
  4 20  1  0
  4 21  1  0
  5 22  1  0
  5 23  1  0
  6 24  1  1
  7 25  1  0
  7 26  1  0
  9 27  1  0
 10 28  1  0
 12 29  1  0
 14 30  1  0
 14 31  1  0
 15 32  1  0
 15 33  1  0
 15 34  1  0
M  ISO  8  16  13  17  13  18  13  19  13  20  13  21  13  22  13  23  13
M  ISO  8  24  13  25   8  26   8  27  14  28  14  29  14  30   8  31   8
M  ISO  3  32   8  33   8  34   8
M  END
>  <minimizedAffinity>  (1) 
-4.54128218

>  <minimizedRMSD>  (1) 
3.03386045

$$$$
