
     RDKit          3D

 30 31  0  0  1  0  0  0  0  0999 V2000
   35.6780   29.9010   48.8670 N   0  0  0  0  0  0  0  0  0  0  0  0
   35.2830   30.9150   49.8030 C   0  0  0  0  0  0  0  0  0  0  0  0
   36.4510   31.7860   50.1500 C   0  0  0  0  0  0  0  0  0  0  0  0
   37.5540   30.8440   50.6060 C   0  0  0  0  0  0  0  0  0  0  0  0
   38.0860   30.1920   49.3680 C   0  0  0  0  0  0  0  0  0  0  0  0
   37.0020   29.9800   48.3810 C   0  0  2  0  0  0  0  0  0  0  0  0
   35.1760   28.6100   49.1570 C   0  0  0  0  0  0  0  0  0  0  0  0
   34.1980   28.1470   48.1470 C   0  0  0  0  0  0  0  0  0  0  0  0
   33.5750   29.1060   47.3600 C   0  0  0  0  0  0  0  0  0  0  0  0
   32.6470   28.7100   46.3990 C   0  0  0  0  0  0  0  0  0  0  0  0
   32.4000   27.3760   46.2820 N   0  0  0  0  0  0  0  0  0  0  0  0
   33.0100   26.4520   47.0500 C   0  0  0  0  0  0  0  0  0  0  0  0
   33.9030   26.8520   47.9750 N   0  0  0  0  0  0  0  0  0  0  0  0
   37.0490   30.9400   47.2190 C   0  0  0  0  0  0  0  0  0  0  0  0
   37.9350   31.7880   47.0380 O   0  0  0  0  0  0  0  0  0  0  0  0
   34.4901   31.5325   49.3558 H   0  0  0  0  0  0  0  0  0  0  0  0
   34.9128   30.4315   50.7191 H   0  0  0  0  0  0  0  0  0  0  0  0
   36.7767   32.3579   49.2686 H   0  0  0  0  0  0  0  0  0  0  0  0
   36.1928   32.5138   50.9333 H   0  0  0  0  0  0  0  0  0  0  0  0
   38.3513   31.4076   51.1127 H   0  0  0  0  0  0  0  0  0  0  0  0
   37.1740   30.0982   51.3197 H   0  0  0  0  0  0  0  0  0  0  0  0
   38.8581   30.8371   48.9234 H   0  0  0  0  0  0  0  0  0  0  0  0
   38.5141   29.2155   49.6385 H   0  0  0  0  0  0  0  0  0  0  0  0
   37.2471   28.9621   48.0437 H   0  0  0  0  0  0  0  0  0  0  0  0
   36.0171   27.9017   49.1855 H   0  0  0  0  0  0  0  0  0  0  0  0
   34.6595   28.6601   50.1269 H   0  0  0  0  0  0  0  0  0  0  0  0
   33.8124   30.1717   47.4942 H   0  0  0  0  0  0  0  0  0  0  0  0
   32.1348   29.4451   45.7608 H   0  0  0  0  0  0  0  0  0  0  0  0
   32.7812   25.3836   46.9228 H   0  0  0  0  0  0  0  0  0  0  0  0
   36.2380   30.8837   46.4780 H   0  0  0  0  0  0  0  0  0  0  0  0
  1  7  1  0
  1  2  1  0
  2  3  1  0
  3  4  1  0
  5  4  1  0
  6  1  1  0
  6  5  1  0
  8  7  1  0
  9  8  2  0
 10  9  1  0
 11 10  2  0
 11 12  1  0
 12 13  2  0
 13  8  1  0
 14  6  1  0
 15 14  2  0
  2 16  1  0
  2 17  1  0
  3 18  1  0
  3 19  1  0
  4 20  1  0
  4 21  1  0
  5 22  1  0
  5 23  1  0
  6 24  1  6
  7 25  1  0
  7 26  1  0
  9 27  1  0
 10 28  1  0
 12 29  1  0
 14 30  1  0
M  ISO  8  16  13  17  13  18  13  19  13  20  13  21  13  22  13  23  13
M  ISO  7  24  13  25   8  26   8  27  14  28  14  29  14  30   6
M  END
>  <minimizedAffinity>  (1) 
-3.90822005

>  <minimizedRMSD>  (1) 
0.0690904409

$$$$
