
     RDKit          3D

 36 38  0  0  1  0  0  0  0  0999 V2000
   37.1660   30.1630   46.8510 C   0  0  1  0  0  0  0  0  0  0  0  0
   36.0770   30.5750   45.9500 C   0  0  0  0  0  0  0  0  0  0  0  0
   36.3760   30.1040   44.5560 C   0  0  0  0  0  0  0  0  0  0  0  0
   37.8150   30.2240   44.2340 C   0  0  0  0  0  0  0  0  0  0  0  0
   38.6430   31.1190   45.0880 C   0  0  0  0  0  0  0  0  0  0  0  0
   38.4210   30.9100   46.5630 C   0  0  1  0  0  0  0  0  0  0  0  0
   37.5790   29.6740   50.4950 C   0  0  0  0  0  0  0  0  0  0  0  0
   37.8200   29.6440   49.1160 C   0  0  0  0  0  0  0  0  0  0  0  0
   36.8740   30.2210   48.2730 C   0  0  0  0  0  0  0  0  0  0  0  0
   35.7470   30.7950   48.8170 N   0  0  0  0  0  0  0  0  0  0  0  0
   35.5440   30.8070   50.1550 C   0  0  0  0  0  0  0  0  0  0  0  0
   36.4560   30.2490   50.9930 N   0  0  0  0  0  0  0  0  0  0  0  0
   40.7260   32.6750   45.5570 Cl  0  0  0  0  0  0  0  0  0  0  0  0
   39.7900   32.9690   47.0380 C   0  0  0  0  0  0  0  0  0  0  0  0
   38.7390   32.0950   47.3680 C   0  0  0  0  0  0  0  0  0  0  0  0
   38.1180   32.5070   48.5250 C   0  0  0  0  0  0  0  0  0  0  0  0
   38.4350   33.6070   49.2900 C   0  0  0  0  0  0  0  0  0  0  0  0
   39.4840   34.3970   48.8770 C   0  0  0  0  0  0  0  0  0  0  0  0
   40.1690   34.0860   47.7490 C   0  0  0  0  0  0  0  0  0  0  0  0
   37.2930   29.0939   46.6255 H   0  0  0  0  0  0  0  0  0  0  0  0
   35.1304   30.1312   46.2919 H   0  0  0  0  0  0  0  0  0  0  0  0
   35.9909   31.6716   45.9561 H   0  0  0  0  0  0  0  0  0  0  0  0
   36.0771   29.0494   44.4644 H   0  0  0  0  0  0  0  0  0  0  0  0
   35.8137   30.7360   43.8528 H   0  0  0  0  0  0  0  0  0  0  0  0
   38.2506   29.2158   44.2957 H   0  0  0  0  0  0  0  0  0  0  0  0
   37.8390   30.6900   43.2379 H   0  0  0  0  0  0  0  0  0  0  0  0
   39.7036   30.9311   44.8647 H   0  0  0  0  0  0  0  0  0  0  0  0
   38.3471   32.1532   44.8579 H   0  0  0  0  0  0  0  0  0  0  0  0
   39.1789   30.2067   46.9384 H   0  0  0  0  0  0  0  0  0  0  0  0
   38.3101   29.2253   51.1836 H   0  0  0  0  0  0  0  0  0  0  0  0
   38.7302   29.1781   48.7105 H   0  0  0  0  0  0  0  0  0  0  0  0
   34.6355   31.2712   50.5662 H   0  0  0  0  0  0  0  0  0  0  0  0
   37.2774   31.8908   48.8767 H   0  0  0  0  0  0  0  0  0  0  0  0
   37.8683   33.8468   50.2018 H   0  0  0  0  0  0  0  0  0  0  0  0
   39.7673   35.2832   49.4639 H   0  0  0  0  0  0  0  0  0  0  0  0
   41.0079   34.7113   47.4096 H   0  0  0  0  0  0  0  0  0  0  0  0
  1  9  1  0
  2  1  1  0
  3  2  1  0
  4  3  1  0
  4  5  1  0
  5  6  1  0
  6  1  1  0
  6 15  1  0
  7 12  2  0
  8  7  1  0
  9 10  1  0
  9  8  2  0
 10 11  2  0
 11 12  1  0
 13 14  1  0
 14 15  2  0
 14 19  1  0
 15 16  1  0
 16 17  2  0
 18 17  1  0
 19 18  2  0
  1 20  1  6
  2 21  1  0
  2 22  1  0
  3 23  1  0
  3 24  1  0
  4 25  1  0
  4 26  1  0
  5 27  1  0
  5 28  1  0
  6 29  1  1
  7 30  1  0
  8 31  1  0
 11 32  1  0
 16 33  1  0
 17 34  1  0
 18 35  1  0
 19 36  1  0
M  ISO  8  20  13  21  13  22  13  23  13  24  13  25  13  26  13  27  13
M  ISO  8  28  13  29  13  30  14  31  14  32  14  33  14  34  14  35  14
M  ISO  1  36  14
M  END
>  <minimizedAffinity>  (1) 
-5.22362614

>  <minimizedRMSD>  (1) 
2.38747597

$$$$
