
     RDKit          3D

 28 29  0  0  1  0  0  0  0  0999 V2000
   37.9140   30.5120   47.8510 C   0  0  1  0  0  0  0  0  0  0  0  0
   37.1460   30.8090   46.6290 C   0  0  0  0  0  0  0  0  0  0  0  0
   38.0810   30.7170   45.4540 C   0  0  0  0  0  0  0  0  0  0  0  0
   39.4190   31.2710   45.7670 C   0  0  0  0  0  0  0  0  0  0  0  0
   39.4740   32.2300   46.9250 C   0  0  0  0  0  0  0  0  0  0  0  0
   38.7650   31.7400   48.1640 C   0  0  1  0  0  0  0  0  0  0  0  0
   37.1520   29.5620   51.3700 C   0  0  0  0  0  0  0  0  0  0  0  0
   37.8970   29.9500   50.2300 C   0  0  0  0  0  0  0  0  0  0  0  0
   37.1890   30.1460   49.0480 C   0  0  0  0  0  0  0  0  0  0  0  0
   35.8280   29.9570   49.0460 N   0  0  0  0  0  0  0  0  0  0  0  0
   35.1590   29.5910   50.1380 C   0  0  0  0  0  0  0  0  0  0  0  0
   35.8090   29.3910   51.3040 N   0  0  0  0  0  0  0  0  0  0  0  0
   37.9760   32.8720   48.7050 C   0  0  0  0  0  0  0  0  0  0  0  0
   38.4660   33.7140   49.4740 O   0  0  0  0  0  0  0  0  0  0  0  0
   38.4772   29.5998   47.6048 H   0  0  0  0  0  0  0  0  0  0  0  0
   36.3309   30.0793   46.5146 H   0  0  0  0  0  0  0  0  0  0  0  0
   36.7090   31.8166   46.6896 H   0  0  0  0  0  0  0  0  0  0  0  0
   37.6510   31.2802   44.6126 H   0  0  0  0  0  0  0  0  0  0  0  0
   38.2037   29.6541   45.1988 H   0  0  0  0  0  0  0  0  0  0  0  0
   40.0889   30.4285   45.9939 H   0  0  0  0  0  0  0  0  0  0  0  0
   39.7170   31.8524   44.8821 H   0  0  0  0  0  0  0  0  0  0  0  0
   40.5299   32.4062   47.1779 H   0  0  0  0  0  0  0  0  0  0  0  0
   38.9560   33.1457   46.6039 H   0  0  0  0  0  0  0  0  0  0  0  0
   39.4832   31.4111   48.9295 H   0  0  0  0  0  0  0  0  0  0  0  0
   37.6719   29.3966   52.3252 H   0  0  0  0  0  0  0  0  0  0  0  0
   38.9870   30.0903   50.2766 H   0  0  0  0  0  0  0  0  0  0  0  0
   34.0691   29.4507   50.0893 H   0  0  0  0  0  0  0  0  0  0  0  0
   36.9194   32.9693   48.4149 H   0  0  0  0  0  0  0  0  0  0  0  0
  1  6  1  0
  1  9  1  0
  2  1  1  0
  3  4  1  0
  3  2  1  0
  4  5  1  0
  5  6  1  0
  6 13  1  0
  8  7  2  0
  9  8  1  0
 10  9  2  0
 10 11  1  0
 11 12  2  0
 12  7  1  0
 13 14  2  0
  1 15  1  6
  2 16  1  0
  2 17  1  0
  3 18  1  0
  3 19  1  0
  4 20  1  0
  4 21  1  0
  5 22  1  0
  5 23  1  0
  6 24  1  1
  7 25  1  0
  8 26  1  0
 11 27  1  0
 13 28  1  0
M  ISO  8  15  13  16  13  17  13  18  13  19  13  20  13  21  13  22  13
M  ISO  6  23  13  24  13  25  14  26  14  27  14  28   6
M  END
>  <minimizedAffinity>  (1) 
-5.10635614

>  <minimizedRMSD>  (1) 
0.793008685

$$$$
