
     RDKit          3D

 39 41  0  0  1  0  0  0  0  0999 V2000
   37.8440   30.4300   47.3880 C   0  0  1  0  0  0  0  0  0  0  0  0
   37.3060   30.7830   46.0730 C   0  0  0  0  0  0  0  0  0  0  0  0
   38.3810   30.4810   45.0440 C   0  0  0  0  0  0  0  0  0  0  0  0
   39.7160   30.8910   45.5250 C   0  0  0  0  0  0  0  0  0  0  0  0
   39.7760   31.8160   46.6850 C   0  0  0  0  0  0  0  0  0  0  0  0
   38.8070   31.5310   47.8060 C   0  0  1  0  0  0  0  0  0  0  0  0
   36.4820   29.3190   50.6440 C   0  0  0  0  0  0  0  0  0  0  0  0
   37.3840   29.5380   49.5870 C   0  0  0  0  0  0  0  0  0  0  0  0
   36.8940   30.2170   48.4770 C   0  0  0  0  0  0  0  0  0  0  0  0
   35.5880   30.6440   48.4340 N   0  0  0  0  0  0  0  0  0  0  0  0
   34.7550   30.4090   49.4760 C   0  0  0  0  0  0  0  0  0  0  0  0
   35.2020   29.7480   50.5790 N   0  0  0  0  0  0  0  0  0  0  0  0
   38.2640   32.6820   48.5160 C   0  0  0  0  0  0  0  0  0  0  0  0
   38.6640   32.6670   50.0120 C   0  0  0  0  0  0  0  0  0  0  0  0
   39.6640   33.7560   50.1730 C   0  0  0  0  0  0  0  0  0  0  0  0
   39.7520   34.4870   48.8590 C   0  0  0  0  0  0  0  0  0  0  0  0
   38.5130   34.0680   48.1590 C   0  0  0  0  0  0  0  0  0  0  0  0
   38.3076   29.4433   47.2410 H   0  0  0  0  0  0  0  0  0  0  0  0
   36.4064   30.1859   45.8626 H   0  0  0  0  0  0  0  0  0  0  0  0
   37.0272   31.8466   46.0413 H   0  0  0  0  0  0  0  0  0  0  0  0
   38.1518   31.0256   44.1162 H   0  0  0  0  0  0  0  0  0  0  0  0
   38.3950   29.3957   44.8654 H   0  0  0  0  0  0  0  0  0  0  0  0
   40.2597   29.9767   45.8050 H   0  0  0  0  0  0  0  0  0  0  0  0
   40.1497   31.4618   44.6907 H   0  0  0  0  0  0  0  0  0  0  0  0
   40.7938   31.7709   47.0997 H   0  0  0  0  0  0  0  0  0  0  0  0
   39.4947   32.8043   46.2925 H   0  0  0  0  0  0  0  0  0  0  0  0
   39.3849   31.1256   48.6496 H   0  0  0  0  0  0  0  0  0  0  0  0
   36.8260   28.7869   51.5432 H   0  0  0  0  0  0  0  0  0  0  0  0
   38.4260   29.1891   49.6362 H   0  0  0  0  0  0  0  0  0  0  0  0
   33.7115   30.7542   49.4307 H   0  0  0  0  0  0  0  0  0  0  0  0
   37.2253   32.4819   48.2142 H   0  0  0  0  0  0  0  0  0  0  0  0
   37.7852   32.8567   50.6458 H   0  0  0  0  0  0  0  0  0  0  0  0
   39.0745   31.6917   50.3124 H   0  0  0  0  0  0  0  0  0  0  0  0
   39.3427   34.4468   50.9664 H   0  0  0  0  0  0  0  0  0  0  0  0
   40.6444   33.3436   50.4536 H   0  0  0  0  0  0  0  0  0  0  0  0
   39.7698   35.5760   49.0131 H   0  0  0  0  0  0  0  0  0  0  0  0
   40.6675   34.2551   48.2950 H   0  0  0  0  0  0  0  0  0  0  0  0
   38.6462   34.1585   47.0709 H   0  0  0  0  0  0  0  0  0  0  0  0
   37.6652   34.7045   48.4524 H   0  0  0  0  0  0  0  0  0  0  0  0
  1  6  1  0
  1  9  1  0
  2  1  1  0
  3  4  1  0
  3  2  1  0
  4  5  1  0
  5  6  1  0
  6 13  1  0
  8  7  2  0
  9  8  1  0
 10  9  2  0
 10 11  1  0
 11 12  2  0
 12  7  1  0
 13 14  1  0
 14 15  1  0
 16 15  1  0
 17 13  1  0
 17 16  1  0
  1 18  1  6
  2 19  1  0
  2 20  1  0
  3 21  1  0
  3 22  1  0
  4 23  1  0
  4 24  1  0
  5 25  1  0
  5 26  1  0
  6 27  1  1
  7 28  1  0
  8 29  1  0
 11 30  1  0
 13 31  1  0
 14 32  1  0
 14 33  1  0
 15 34  1  0
 15 35  1  0
 16 36  1  0
 16 37  1  0
 17 38  1  0
 17 39  1  0
M  ISO  8  18  13  19  13  20  13  21  13  22  13  23  13  24  13  25  13
M  ISO  8  26  13  27  13  28  14  29  14  30  14  31  13  32  13  33  13
M  ISO  6  34  13  35  13  36  13  37  13  38  13  39  13
M  END
>  <minimizedAffinity>  (1) 
-4.47039604

>  <minimizedRMSD>  (1) 
1.12482619

$$$$
