
     RDKit          3D

 31 33  0  0  1  0  0  0  0  0999 V2000
   34.1160   30.2190   47.9990 C   0  0  1  0  0  0  0  0  0  0  0  0
   33.9120   30.4620   46.7860 N   0  0  0  0  0  0  0  0  0  0  0  0
   32.9820   30.9010   46.0720 C   0  0  0  0  0  0  0  0  0  0  0  0
   32.6950   29.6900   45.5850 N   0  0  0  0  0  0  0  0  0  0  0  0
   33.1130   28.6290   46.3400 C   0  0  0  0  0  0  0  0  0  0  0  0
   32.7640   27.3570   45.8100 C   0  0  0  0  0  0  0  0  0  0  0  0
   33.1510   26.2680   46.5130 C   0  0  0  0  0  0  0  0  0  0  0  0
   33.8460   26.2910   47.6840 C   0  0  0  0  0  0  0  0  0  0  0  0
   34.1280   27.5840   48.0980 C   0  0  0  0  0  0  0  0  0  0  0  0
   33.8350   28.8490   47.5470 C   0  0  0  0  0  0  0  0  0  0  0  0
   35.7560   29.3770   51.2410 C   0  0  0  0  0  0  0  0  0  0  0  0
   37.0270   29.8020   50.8840 C   0  0  0  0  0  0  0  0  0  0  0  0
   37.1330   30.2900   49.6060 C   0  0  0  0  0  0  0  0  0  0  0  0
   36.0260   30.3150   48.8280 N   0  0  0  0  0  0  0  0  0  0  0  0
   34.8120   29.8960   49.2030 C   0  0  0  0  0  0  0  0  0  0  0  0
   34.7580   29.4440   50.4150 N   0  0  0  0  0  0  0  0  0  0  0  0
   38.4340   30.7380   49.1870 N   0  0  0  0  0  0  0  0  0  0  0  0
   38.0550   29.7080   51.8030 O   0  0  0  0  0  0  0  0  0  0  0  0
   33.9780   31.2151   48.4448 H   0  0  0  0  0  0  0  0  0  0  0  0
   34.6772   31.1158   46.5669 H   0  0  0  0  0  0  0  0  0  0  0  0
   32.1591   31.3467   46.6502 H   0  0  0  0  0  0  0  0  0  0  0  0
   33.1935   31.7199   45.3686 H   0  0  0  0  0  0  0  0  0  0  0  0
   32.1903   29.5636   44.6961 H   0  0  0  0  0  0  0  0  0  0  0  0
   32.2032   27.2623   44.8684 H   0  0  0  0  0  0  0  0  0  0  0  0
   32.8821   25.2824   46.1051 H   0  0  0  0  0  0  0  0  0  0  0  0
   34.1483   25.3893   48.2368 H   0  0  0  0  0  0  0  0  0  0  0  0
   34.6909   27.6328   49.0418 H   0  0  0  0  0  0  0  0  0  0  0  0
   35.5899   28.9727   52.2505 H   0  0  0  0  0  0  0  0  0  0  0  0
   38.5683   31.1133   48.2372 H   0  0  0  0  0  0  0  0  0  0  0  0
   39.2314   30.6835   49.8367 H   0  0  0  0  0  0  0  0  0  0  0  0
   38.9662   30.0084   51.5589 H   0  0  0  0  0  0  0  0  0  0  0  0
  1 15  1  0
  2  1  1  0
  3  2  1  0
  4  3  1  0
  4  5  1  0
  5 10  2  0
  6  5  1  0
  6  7  2  0
  7  8  1  0
  8  9  2  0
 10  1  1  0
 10  9  1  0
 12 11  2  0
 12 18  1  0
 13 12  1  0
 14 15  1  0
 14 13  2  0
 15 16  2  0
 16 11  1  0
 17 13  1  0
  1 19  1  1
  2 20  1  0
  3 21  1  0
  3 22  1  0
  4 23  1  0
  6 24  1  0
  7 25  1  0
  8 26  1  0
  9 27  1  0
 11 28  1  0
 17 29  1  0
 17 30  1  0
 18 31  1  0
M  ISO  8  19  13  20   5  21  13  22  13  24  14  25  14  26  14  27  14
M  ISO  2  28  14  31   3
M  END
>  <minimizedAffinity>  (1) 
-5.45928192

>  <minimizedRMSD>  (1) 
0.695970654

$$$$
