
     RDKit          3D

 32 34  0  0  1  0  0  0  0  0999 V2000
   34.1450   30.1760   47.9120 C   0  0  1  0  0  0  0  0  0  0  0  0
   33.9860   30.4030   46.6870 N   0  0  0  0  0  0  0  0  0  0  0  0
   33.0900   30.8380   45.9260 C   0  0  0  0  0  0  0  0  0  0  0  0
   32.8100   29.6250   45.4480 N   0  0  0  0  0  0  0  0  0  0  0  0
   33.1650   28.5760   46.2450 C   0  0  0  0  0  0  0  0  0  0  0  0
   32.7980   27.2970   45.7310 C   0  0  0  0  0  0  0  0  0  0  0  0
   33.1390   26.2110   46.4620 C   0  0  0  0  0  0  0  0  0  0  0  0
   33.8050   26.2540   47.6520 C   0  0  0  0  0  0  0  0  0  0  0  0
   34.1090   27.5440   48.0520 C   0  0  0  0  0  0  0  0  0  0  0  0
   33.8610   28.8050   47.4700 C   0  0  0  0  0  0  0  0  0  0  0  0
   35.6440   29.3640   51.2290 C   0  0  0  0  0  0  0  0  0  0  0  0
   36.9300   29.7570   50.9080 C   0  0  0  0  0  0  0  0  0  0  0  0
   37.0930   30.2160   49.6260 C   0  0  0  0  0  0  0  0  0  0  0  0
   36.0190   30.2480   48.8080 N   0  0  0  0  0  0  0  0  0  0  0  0
   34.7840   29.8610   49.1490 C   0  0  0  0  0  0  0  0  0  0  0  0
   34.6750   29.4360   50.3620 N   0  0  0  0  0  0  0  0  0  0  0  0
   38.4200   30.6270   49.2490 N   0  0  0  0  0  0  0  0  0  0  0  0
   37.9460   29.6610   51.8820 N   0  0  0  0  0  0  0  0  0  0  0  0
   34.0131   31.1825   48.3357 H   0  0  0  0  0  0  0  0  0  0  0  0
   34.7648   31.0470   46.4877 H   0  0  0  0  0  0  0  0  0  0  0  0
   32.2486   31.3018   46.4616 H   0  0  0  0  0  0  0  0  0  0  0  0
   33.3403   31.6417   45.2179 H   0  0  0  0  0  0  0  0  0  0  0  0
   32.3543   29.4885   44.5344 H   0  0  0  0  0  0  0  0  0  0  0  0
   32.2587   27.1976   44.7774 H   0  0  0  0  0  0  0  0  0  0  0  0
   32.8593   25.2225   46.0688 H   0  0  0  0  0  0  0  0  0  0  0  0
   34.0721   25.3584   48.2322 H   0  0  0  0  0  0  0  0  0  0  0  0
   34.6485   27.5959   49.0092 H   0  0  0  0  0  0  0  0  0  0  0  0
   35.4347   28.9820   52.2391 H   0  0  0  0  0  0  0  0  0  0  0  0
   38.5992   30.9800   48.2981 H   0  0  0  0  0  0  0  0  0  0  0  0
   39.1904   30.5681   49.9301 H   0  0  0  0  0  0  0  0  0  0  0  0
   38.9075   29.9510   51.6535 H   0  0  0  0  0  0  0  0  0  0  0  0
   37.7263   29.3009   52.8216 H   0  0  0  0  0  0  0  0  0  0  0  0
  1 15  1  0
  2  1  1  0
  3  2  1  0
  4  3  1  0
  4  5  1  0
  5 10  2  0
  6  5  1  0
  6  7  2  0
  7  8  1  0
  8  9  2  0
 10  1  1  0
 10  9  1  0
 12 11  2  0
 12 18  1  0
 13 12  1  0
 14 15  1  0
 14 13  2  0
 15 16  2  0
 16 11  1  0
 17 13  1  0
  1 19  1  1
  2 20  1  0
  3 21  1  0
  3 22  1  0
  4 23  1  0
  6 24  1  0
  7 25  1  0
  8 26  1  0
  9 27  1  0
 11 28  1  0
 17 29  1  0
 17 30  1  0
 18 31  1  0
 18 32  1  0
M  ISO  8  19  13  20   5  21  13  22  13  24  14  25  14  26  14  27  14
M  ISO  1  28  14
M  END
>  <minimizedAffinity>  (1) 
-5.45031548

>  <minimizedRMSD>  (1) 
0.754545927

$$$$
