
     RDKit          3D

 23 24  0  0  0  0  0  0  0  0999 V2000
   37.6900   33.1400   49.6690 C   0  0  0  0  0  0  0  0  0  0  0  0
   38.7860   33.2500   48.7830 C   0  0  0  0  0  0  0  0  0  0  0  0
   38.9040   32.2640   47.8100 C   0  0  0  0  0  0  0  0  0  0  0  0
   37.9750   31.2700   47.7700 N   0  0  0  0  0  0  0  0  0  0  0  0
   36.9400   31.1950   48.6330 C   0  0  0  0  0  0  0  0  0  0  0  0
   36.8090   32.1380   49.5790 N   0  0  0  0  0  0  0  0  0  0  0  0
   37.0640   29.2630   51.0980 Br  0  0  0  0  0  0  0  0  0  0  0  0
   35.8800   29.1850   49.6020 C   0  0  0  0  0  0  0  0  0  0  0  0
   35.9550   30.1300   48.5800 C   0  0  0  0  0  0  0  0  0  0  0  0
   35.0670   29.9990   47.5440 C   0  0  0  0  0  0  0  0  0  0  0  0
   34.1170   28.9970   47.4600 C   0  0  0  0  0  0  0  0  0  0  0  0
   34.0770   28.0860   48.4910 C   0  0  0  0  0  0  0  0  0  0  0  0
   34.9550   28.1880   49.5460 C   0  0  0  0  0  0  0  0  0  0  0  0
   39.7280   34.3620   48.9160 C   0  0  0  0  0  0  0  0  0  0  0  0
   40.3190   34.2460   50.1750 F   0  0  0  0  0  0  0  0  0  0  0  0
   38.9960   35.5330   48.8970 F   0  0  0  0  0  0  0  0  0  0  0  0
   40.6930   34.3820   47.9310 F   0  0  0  0  0  0  0  0  0  0  0  0
   37.5582   33.8993   50.4539 H   0  0  0  0  0  0  0  0  0  0  0  0
   39.7322   32.2867   47.0864 H   0  0  0  0  0  0  0  0  0  0  0  0
   35.1127   30.7363   46.7290 H   0  0  0  0  0  0  0  0  0  0  0  0
   33.4247   28.9312   46.6077 H   0  0  0  0  0  0  0  0  0  0  0  0
   33.3384   27.2710   48.4717 H   0  0  0  0  0  0  0  0  0  0  0  0
   34.9083   27.4494   50.3598 H   0  0  0  0  0  0  0  0  0  0  0  0
  2 14  1  0
  2  1  2  0
  3  2  1  0
  4  3  2  0
  4  5  1  0
  5  6  2  0
  6  1  1  0
  8  7  1  0
  9  5  1  0
  9  8  2  0
 10  9  1  0
 11 10  2  0
 11 12  1  0
 12 13  2  0
 13  8  1  0
 14 15  1  0
 16 14  1  0
 17 14  1  0
  1 18  1  0
  3 19  1  0
 10 20  1  0
 11 21  1  0
 12 22  1  0
 13 23  1  0
M  ISO  6  18  14  19  14  20  14  21  14  22  14  23  14
M  END
>  <minimizedAffinity>  (1) 
-6.11124325

>  <minimizedRMSD>  (1) 
0.394694924

$$$$
