
     RDKit          3D

 26 27  0  0  0  0  0  0  0  0999 V2000
   37.6370   33.0310   49.6220 C   0  0  0  0  0  0  0  0  0  0  0  0
   38.7400   33.1320   48.7250 C   0  0  0  0  0  0  0  0  0  0  0  0
   38.8610   32.1550   47.7510 C   0  0  0  0  0  0  0  0  0  0  0  0
   37.9360   31.1580   47.6920 N   0  0  0  0  0  0  0  0  0  0  0  0
   36.8900   31.0980   48.5740 C   0  0  0  0  0  0  0  0  0  0  0  0
   36.7410   32.0340   49.5370 N   0  0  0  0  0  0  0  0  0  0  0  0
   36.8940   29.2320   51.0940 Br  0  0  0  0  0  0  0  0  0  0  0  0
   35.7710   29.1190   49.5430 C   0  0  0  0  0  0  0  0  0  0  0  0
   35.9000   30.0310   48.5110 C   0  0  0  0  0  0  0  0  0  0  0  0
   35.0480   29.8780   47.4250 C   0  0  0  0  0  0  0  0  0  0  0  0
   34.0990   28.8780   47.3360 C   0  0  0  0  0  0  0  0  0  0  0  0
   34.0070   27.9930   48.3860 C   0  0  0  0  0  0  0  0  0  0  0  0
   34.8420   28.1250   49.4730 C   0  0  0  0  0  0  0  0  0  0  0  0
   39.6640   34.2810   48.9200 C   0  0  0  0  0  0  0  0  0  0  0  0
   40.0540   34.4880   50.3530 C   0  0  0  0  0  0  0  0  0  0  0  0
   37.5160   33.7920   50.4070 H   0  0  0  0  0  0  0  0  0  0  0  0
   39.6945   32.1842   47.0337 H   0  0  0  0  0  0  0  0  0  0  0  0
   35.1333   30.5908   46.5916 H   0  0  0  0  0  0  0  0  0  0  0  0
   33.4413   28.7923   46.4585 H   0  0  0  0  0  0  0  0  0  0  0  0
   33.2664   27.1802   48.3569 H   0  0  0  0  0  0  0  0  0  0  0  0
   34.7568   27.4105   50.3050 H   0  0  0  0  0  0  0  0  0  0  0  0
   40.5759   34.1001   48.3320 H   0  0  0  0  0  0  0  0  0  0  0  0
   39.1336   35.1868   48.5912 H   0  0  0  0  0  0  0  0  0  0  0  0
   39.2739   34.0740   51.0088 H   0  0  0  0  0  0  0  0  0  0  0  0
   41.0082   33.9776   50.5507 H   0  0  0  0  0  0  0  0  0  0  0  0
   40.1660   35.5643   50.5507 H   0  0  0  0  0  0  0  0  0  0  0  0
  2 14  1  0
  2  1  2  0
  3  2  1  0
  4  3  2  0
  4  5  1  0
  5  6  2  0
  6  1  1  0
  8  7  1  0
  9  5  1  0
  9  8  2  0
 10  9  1  0
 11 10  2  0
 11 12  1  0
 12 13  2  0
 13  8  1  0
 14 15  1  0
  1 16  1  0
  3 17  1  0
 10 18  1  0
 11 19  1  0
 12 20  1  0
 13 21  1  0
 14 22  1  0
 14 23  1  0
 15 24  1  0
 15 25  1  0
 15 26  1  0
M  ISO  8  16  14  17  14  18  14  19  14  20  14  21  14  22   8  23   8
M  ISO  3  24   8  25   8  26   8
M  END
>  <minimizedAffinity>  (1) 
-5.43533325

>  <minimizedRMSD>  (1) 
0.382909924

$$$$
