
     RDKit          3D

 28 30  0  0  0  0  0  0  0  0999 V2000
   34.3520   28.8310   49.5680 C   0  0  0  0  0  0  0  0  0  0  0  0
   35.1020   29.6220   48.6760 C   0  0  0  0  0  0  0  0  0  0  0  0
   34.6730   29.7100   47.3620 C   0  0  0  0  0  0  0  0  0  0  0  0
   33.5460   29.0270   46.9970 N   0  0  0  0  0  0  0  0  0  0  0  0
   32.8450   28.2740   47.8780 C   0  0  0  0  0  0  0  0  0  0  0  0
   33.2570   28.1830   49.1610 N   0  0  0  0  0  0  0  0  0  0  0  0
   33.4010   25.3060   47.0240 Br  0  0  0  0  0  0  0  0  0  0  0  0
   31.7230   26.2230   47.0770 C   0  0  0  0  0  0  0  0  0  0  0  0
   31.6390   27.5450   47.4800 C   0  0  0  0  0  0  0  0  0  0  0  0
   30.3980   28.1310   47.4900 C   0  0  0  0  0  0  0  0  0  0  0  0
   29.2360   27.4770   47.1230 C   0  0  0  0  0  0  0  0  0  0  0  0
   29.3510   26.1640   46.7270 C   0  0  0  0  0  0  0  0  0  0  0  0
   30.5970   25.5440   46.7060 C   0  0  0  0  0  0  0  0  0  0  0  0
   36.3010   30.3510   49.0550 C   0  0  0  0  0  0  0  0  0  0  0  0
   36.9530   30.1780   50.2570 C   0  0  0  0  0  0  0  0  0  0  0  0
   38.0900   30.8600   50.6340 C   0  0  0  0  0  0  0  0  0  0  0  0
   38.6130   31.7690   49.7660 N   0  0  0  0  0  0  0  0  0  0  0  0
   37.9730   31.9450   48.5730 C   0  0  0  0  0  0  0  0  0  0  0  0
   36.8640   31.2640   48.2340 N   0  0  0  0  0  0  0  0  0  0  0  0
   34.6731   28.7455   50.6166 H   0  0  0  0  0  0  0  0  0  0  0  0
   35.2262   30.3154   46.6289 H   0  0  0  0  0  0  0  0  0  0  0  0
   30.3233   29.1813   47.8082 H   0  0  0  0  0  0  0  0  0  0  0  0
   28.2606   27.9850   47.1466 H   0  0  0  0  0  0  0  0  0  0  0  0
   28.4545   25.6022   46.4258 H   0  0  0  0  0  0  0  0  0  0  0  0
   30.6761   24.4943   46.3867 H   0  0  0  0  0  0  0  0  0  0  0  0
   36.5373   29.4451   50.9642 H   0  0  0  0  0  0  0  0  0  0  0  0
   38.5621   30.6747   51.6101 H   0  0  0  0  0  0  0  0  0  0  0  0
   38.3818   32.6748   47.8587 H   0  0  0  0  0  0  0  0  0  0  0  0
  2 14  1  0
  2  1  2  0
  3  2  1  0
  4  3  2  0
  4  5  1  0
  5  6  2  0
  6  1  1  0
  7  8  1  0
  8  9  2  0
  9 10  1  0
  9  5  1  0
 11 10  2  0
 12 11  1  0
 13 12  2  0
 13  8  1  0
 14 15  2  0
 15 16  1  0
 17 16  2  0
 18 17  1  0
 19 18  2  0
 19 14  1  0
  1 20  1  0
  3 21  1  0
 10 22  1  0
 11 23  1  0
 12 24  1  0
 13 25  1  0
 15 26  1  0
 16 27  1  0
 18 28  1  0
M  ISO  8  20  14  21  14  22  14  23  14  24  14  25  14  26  14  27  14
M  ISO  1  28  14
M  END
>  <minimizedAffinity>  (1) 
-4.89724588

>  <minimizedRMSD>  (1) 
5.53516626

$$$$
