
     RDKit          3D

 36 39  0  0  0  0  0  0  0  0999 V2000
   36.2460   29.4180   49.3150 C   0  0  0  0  0  0  0  0  0  0  0  0
   36.2610   30.4310   48.3400 C   0  0  0  0  0  0  0  0  0  0  0  0
   35.3730   30.3090   47.2880 C   0  0  0  0  0  0  0  0  0  0  0  0
   34.5510   29.2170   47.2720 N   0  0  0  0  0  0  0  0  0  0  0  0
   34.5510   28.2710   48.1990 C   0  0  0  0  0  0  0  0  0  0  0  0
   35.3970   28.3760   49.2130 N   0  0  0  0  0  0  0  0  0  0  0  0
   37.1910   31.5020   48.4980 N   0  0  0  0  0  0  0  0  0  0  0  0
   37.2230   32.2560   49.6010 C   0  0  0  0  0  0  0  0  0  0  0  0
   38.1540   33.2890   49.6980 C   0  0  0  0  0  0  0  0  0  0  0  0
   38.9730   33.4270   48.6060 C   0  0  0  0  0  0  0  0  0  0  0  0
   39.8280   34.3740   48.6930 O   0  0  0  0  0  0  0  0  0  0  0  0
   38.9710   32.6840   47.4730 N   0  0  0  0  0  0  0  0  0  0  0  0
   38.0400   31.7050   47.4560 C   0  0  0  0  0  0  0  0  0  0  0  0
   38.0200   30.9930   46.4020 O   0  0  0  0  0  0  0  0  0  0  0  0
   33.5600   27.2470   47.8890 C   0  0  0  0  0  0  0  0  0  0  0  0
   33.8150   26.1870   47.0630 C   0  0  0  0  0  0  0  0  0  0  0  0
   32.9180   25.1940   46.7380 C   0  0  0  0  0  0  0  0  0  0  0  0
   31.6480   25.2270   47.2630 C   0  0  0  0  0  0  0  0  0  0  0  0
   31.3240   26.2670   48.1030 C   0  0  0  0  0  0  0  0  0  0  0  0
   30.0450   26.2740   48.6130 C   0  0  0  0  0  0  0  0  0  0  0  0
   29.6460   27.2840   49.4630 C   0  0  0  0  0  0  0  0  0  0  0  0
   30.5760   28.2580   49.7610 C   0  0  0  0  0  0  0  0  0  0  0  0
   31.8440   28.2100   49.2270 C   0  0  0  0  0  0  0  0  0  0  0  0
   32.2750   27.2200   48.3790 C   0  0  0  0  0  0  0  0  0  0  0  0
   36.9348   29.4765   50.1706 H   0  0  0  0  0  0  0  0  0  0  0  0
   35.3292   31.0653   46.4904 H   0  0  0  0  0  0  0  0  0  0  0  0
   36.5206   32.0631   50.4253 H   0  0  0  0  0  0  0  0  0  0  0  0
   38.2263   33.9419   50.5803 H   0  0  0  0  0  0  0  0  0  0  0  0
   39.6224   32.8509   46.6928 H   0  0  0  0  0  0  0  0  0  0  0  0
   34.8204   26.1224   46.6215 H   0  0  0  0  0  0  0  0  0  0  0  0
   33.2161   24.3790   46.0621 H   0  0  0  0  0  0  0  0  0  0  0  0
   30.9133   24.4456   47.0188 H   0  0  0  0  0  0  0  0  0  0  0  0
   29.3410   25.4734   48.3422 H   0  0  0  0  0  0  0  0  0  0  0  0
   28.6305   27.3116   49.8849 H   0  0  0  0  0  0  0  0  0  0  0  0
   30.3011   29.0836   50.4339 H   0  0  0  0  0  0  0  0  0  0  0  0
   32.5510   29.0091   49.4946 H   0  0  0  0  0  0  0  0  0  0  0  0
  2  7  1  0
  2  1  2  0
  3  2  1  0
  4  3  2  0
  4  5  1  0
  5  6  2  0
  6  1  1  0
  7  8  1  0
  8  9  2  0
 10 11  2  0
 10  9  1  0
 12 10  1  0
 13 12  1  0
 13  7  1  0
 14 13  2  0
 15  5  1  0
 15 24  1  0
 16 15  2  0
 17 16  1  0
 17 18  2  0
 18 19  1  0
 19 24  2  0
 19 20  1  0
 20 21  2  0
 21 22  1  0
 23 22  2  0
 24 23  1  0
  1 25  1  0
  3 26  1  0
  8 27  1  0
  9 28  1  0
 12 29  1  0
 16 30  1  0
 17 31  1  0
 18 32  1  0
 20 33  1  0
 21 34  1  0
 22 35  1  0
 23 36  1  0
M  ISO  8  25  14  26  14  27  14  28  14  29   9  30  14  31  14  32  14
M  ISO  4  33  14  34  14  35  14  36  14
M  END
>  <minimizedAffinity>  (1) 
-6.23407078

>  <minimizedRMSD>  (1) 
1.76272643

$$$$
