
     RDKit          3D

 36 38  0  0  0  0  0  0  0  0999 V2000
   36.7790   29.6710   49.4210 C   0  0  0  0  0  0  0  0  0  0  0  0
   36.6300   30.6660   48.4330 C   0  0  0  0  0  0  0  0  0  0  0  0
   35.5650   30.5370   47.5350 C   0  0  0  0  0  0  0  0  0  0  0  0
   34.7340   29.4690   47.6590 N   0  0  0  0  0  0  0  0  0  0  0  0
   34.8970   28.5400   48.6040 C   0  0  0  0  0  0  0  0  0  0  0  0
   35.9220   28.6270   49.5000 N   0  0  0  0  0  0  0  0  0  0  0  0
   37.5680   31.7280   48.4140 N   0  0  0  0  0  0  0  0  0  0  0  0
   37.7080   32.5790   49.4450 C   0  0  0  0  0  0  0  0  0  0  0  0
   38.6390   33.6100   49.3910 C   0  0  0  0  0  0  0  0  0  0  0  0
   39.3590   33.6510   48.2250 C   0  0  0  0  0  0  0  0  0  0  0  0
   40.2220   34.5870   48.1470 O   0  0  0  0  0  0  0  0  0  0  0  0
   39.2540   32.8190   47.1680 N   0  0  0  0  0  0  0  0  0  0  0  0
   38.3290   31.8470   47.2970 C   0  0  0  0  0  0  0  0  0  0  0  0
   38.2080   31.0490   46.3150 O   0  0  0  0  0  0  0  0  0  0  0  0
   33.8840   27.4500   48.5760 C   0  0  0  0  0  0  0  0  0  0  0  0
   32.5590   28.0410   48.9140 C   0  0  0  0  0  0  0  0  0  0  0  0
   31.3990   27.2980   48.2970 C   0  0  0  0  0  0  0  0  0  0  0  0
   31.7550   25.8710   47.9520 C   0  0  0  0  0  0  0  0  0  0  0  0
   32.8660   25.8150   46.9470 C   0  0  0  0  0  0  0  0  0  0  0  0
   33.9400   26.8420   47.1990 C   0  0  0  0  0  0  0  0  0  0  0  0
   37.6074   29.7450   50.1409 H   0  0  0  0  0  0  0  0  0  0  0  0
   35.4036   31.2849   46.7447 H   0  0  0  0  0  0  0  0  0  0  0  0
   37.0799   32.4585   50.3400 H   0  0  0  0  0  0  0  0  0  0  0  0
   38.7850   34.3288   50.2107 H   0  0  0  0  0  0  0  0  0  0  0  0
   39.8374   32.9191   46.3251 H   0  0  0  0  0  0  0  0  0  0  0  0
   34.0726   26.6530   49.3103 H   0  0  0  0  0  0  0  0  0  0  0  0
   32.4398   28.0284   50.0074 H   0  0  0  0  0  0  0  0  0  0  0  0
   32.5447   29.0629   48.5072 H   0  0  0  0  0  0  0  0  0  0  0  0
   30.5621   27.2918   49.0109 H   0  0  0  0  0  0  0  0  0  0  0  0
   31.1253   27.8131   47.3644 H   0  0  0  0  0  0  0  0  0  0  0  0
   32.0728   25.3496   48.8670 H   0  0  0  0  0  0  0  0  0  0  0  0
   30.8681   25.3872   47.5168 H   0  0  0  0  0  0  0  0  0  0  0  0
   32.4428   25.9885   45.9466 H   0  0  0  0  0  0  0  0  0  0  0  0
   33.3338   24.8228   47.0284 H   0  0  0  0  0  0  0  0  0  0  0  0
   34.9198   26.3583   47.0723 H   0  0  0  0  0  0  0  0  0  0  0  0
   33.7795   27.6587   46.4798 H   0  0  0  0  0  0  0  0  0  0  0  0
  1  6  2  0
  2  1  1  0
  3  4  1  0
  3  2  2  0
  4  5  2  0
  5  6  1  0
  7  2  1  0
  7  8  1  0
  9  8  2  0
 10  9  1  0
 11 10  2  0
 12 13  1  0
 12 10  1  0
 13  7  1  0
 14 13  2  0
 15  5  1  0
 15 16  1  0
 17 16  1  0
 18 17  1  0
 19 20  1  0
 19 18  1  0
 20 15  1  0
  1 21  1  0
  3 22  1  0
  8 23  1  0
  9 24  1  0
 12 25  1  0
 15 26  1  0
 16 27  1  0
 16 28  1  0
 17 29  1  0
 17 30  1  0
 18 31  1  0
 18 32  1  0
 19 33  1  0
 19 34  1  0
 20 35  1  0
 20 36  1  0
M  ISO  8  21  14  22  14  23  14  24  14  25   9  26  13  27  13  28  13
M  ISO  8  29  13  30  13  31  13  32  13  33  13  34  13  35  13  36  13
M  END
>  <minimizedAffinity>  (1) 
-6.02790356

>  <minimizedRMSD>  (1) 
0.74850148

$$$$
