
     RDKit          3D

 27 29  0  0  0  0  0  0  0  0999 V2000
   36.1380   29.2520   49.2830 C   0  0  0  0  0  0  0  0  0  0  0  0
   35.9890   30.4070   48.4740 C   0  0  0  0  0  0  0  0  0  0  0  0
   34.8650   30.4700   47.6430 C   0  0  0  0  0  0  0  0  0  0  0  0
   33.9910   29.4250   47.6630 N   0  0  0  0  0  0  0  0  0  0  0  0
   34.1620   28.3500   48.4380 C   0  0  0  0  0  0  0  0  0  0  0  0
   35.2400   28.2490   49.2610 N   0  0  0  0  0  0  0  0  0  0  0  0
   36.9830   31.4190   48.5580 N   0  0  0  0  0  0  0  0  0  0  0  0
   37.1590   32.1540   49.6660 C   0  0  0  0  0  0  0  0  0  0  0  0
   38.1460   33.1370   49.7070 C   0  0  0  0  0  0  0  0  0  0  0  0
   38.8660   33.2450   48.5350 C   0  0  0  0  0  0  0  0  0  0  0  0
   39.7820   34.1390   48.5330 O   0  0  0  0  0  0  0  0  0  0  0  0
   38.7200   32.5340   47.4130 N   0  0  0  0  0  0  0  0  0  0  0  0
   37.7430   31.5980   47.4490 C   0  0  0  0  0  0  0  0  0  0  0  0
   37.5920   30.9140   46.3910 O   0  0  0  0  0  0  0  0  0  0  0  0
   33.0760   27.3950   48.2550 C   0  0  0  0  0  0  0  0  0  0  0  0
   32.9260   26.1710   47.6350 C   0  0  0  0  0  0  0  0  0  0  0  0
   31.6030   25.8230   47.8580 C   0  0  0  0  0  0  0  0  0  0  0  0
   31.0230   26.8410   48.5920 C   0  0  0  0  0  0  0  0  0  0  0  0
   31.9380   27.7730   48.8160 O   0  0  0  0  0  0  0  0  0  0  0  0
   37.0115   29.1733   49.9470 H   0  0  0  0  0  0  0  0  0  0  0  0
   34.6918   31.3393   46.9915 H   0  0  0  0  0  0  0  0  0  0  0  0
   36.5219   31.9803   50.5457 H   0  0  0  0  0  0  0  0  0  0  0  0
   38.3331   33.7666   50.5894 H   0  0  0  0  0  0  0  0  0  0  0  0
   39.3081   32.6871   46.5814 H   0  0  0  0  0  0  0  0  0  0  0  0
   33.6878   25.5985   47.0855 H   0  0  0  0  0  0  0  0  0  0  0  0
   31.1053   24.9044   47.5138 H   0  0  0  0  0  0  0  0  0  0  0  0
   29.9776   26.8721   48.9328 H   0  0  0  0  0  0  0  0  0  0  0  0
  2  7  1  0
  2  1  2  0
  3  4  2  0
  3  2  1  0
  4  5  1  0
  5  6  2  0
  6  1  1  0
  7  8  1  0
  8  9  2  0
 10  9  1  0
 11 10  2  0
 12 13  1  0
 12 10  1  0
 13  7  1  0
 14 13  2  0
 15  5  1  0
 15 19  1  0
 16 17  1  0
 16 15  2  0
 17 18  2  0
 18 19  1  0
  1 20  1  0
  3 21  1  0
  8 22  1  0
  9 23  1  0
 12 24  1  0
 16 25  1  0
 17 26  1  0
 18 27  1  0
M  ISO  8  20  14  21  14  22  14  23  14  24   9  25  14  26  14  27  14
M  END
>  <minimizedAffinity>  (1) 
-5.63338804

>  <minimizedRMSD>  (1) 
0.437281489

$$$$
