
     RDKit          3D

 24 25  0  0  0  0  0  0  0  0999 V2000
   36.1640   29.2760   49.3150 C   0  0  0  0  0  0  0  0  0  0  0  0
   36.0950   30.3370   48.3650 C   0  0  0  0  0  0  0  0  0  0  0  0
   35.1260   30.2750   47.3750 C   0  0  0  0  0  0  0  0  0  0  0  0
   34.2830   29.2080   47.3530 N   0  0  0  0  0  0  0  0  0  0  0  0
   34.3550   28.2180   48.2460 C   0  0  0  0  0  0  0  0  0  0  0  0
   35.2940   28.2390   49.2370 N   0  0  0  0  0  0  0  0  0  0  0  0
   32.2040   27.4150   47.6990 C   0  0  0  0  0  0  0  0  0  0  0  0
   31.7280   28.5130   47.2470 O   0  0  0  0  0  0  0  0  0  0  0  0
   33.4760   27.0970   48.2280 N   0  0  0  0  0  0  0  0  0  0  0  0
   37.0490   31.4020   48.5050 N   0  0  0  0  0  0  0  0  0  0  0  0
   37.1180   32.1450   49.6270 C   0  0  0  0  0  0  0  0  0  0  0  0
   38.0600   33.1640   49.7170 C   0  0  0  0  0  0  0  0  0  0  0  0
   38.8450   33.3000   48.6020 C   0  0  0  0  0  0  0  0  0  0  0  0
   39.7250   34.2240   48.6420 O   0  0  0  0  0  0  0  0  0  0  0  0
   38.8000   32.5800   47.4800 N   0  0  0  0  0  0  0  0  0  0  0  0
   37.8660   31.5960   47.4340 C   0  0  0  0  0  0  0  0  0  0  0  0
   37.7970   30.9020   46.3950 O   0  0  0  0  0  0  0  0  0  0  0  0
   36.9229   29.2988   50.1110 H   0  0  0  0  0  0  0  0  0  0  0  0
   35.0409   31.0728   46.6225 H   0  0  0  0  0  0  0  0  0  0  0  0
   31.5002   26.5701   47.6712 H   0  0  0  0  0  0  0  0  0  0  0  0
   33.7381   26.1590   48.5632 H   0  0  0  0  0  0  0  0  0  0  0  0
   36.4342   31.9470   50.4656 H   0  0  0  0  0  0  0  0  0  0  0  0
   38.1657   33.8045   50.6050 H   0  0  0  0  0  0  0  0  0  0  0  0
   39.4385   32.7606   46.6922 H   0  0  0  0  0  0  0  0  0  0  0  0
  2 10  1  0
  2  1  2  0
  3  2  1  0
  4  3  2  0
  4  5  1  0
  5  6  2  0
  6  1  1  0
  7  9  1  0
  8  7  2  0
  9  5  1  0
 10 11  1  0
 11 12  2  0
 13 14  2  0
 13 12  1  0
 15 13  1  0
 16 15  1  0
 16 10  1  0
 17 16  2  0
  1 18  1  0
  3 19  1  0
  7 20  1  0
  9 21  1  0
 11 22  1  0
 12 23  1  0
 15 24  1  0
M  ISO  6  18  14  19  14  20   6  22  14  23  14  24   9
M  END
>  <minimizedAffinity>  (1) 
-5.27828836

>  <minimizedRMSD>  (1) 
0.337869823

$$$$
