
     RDKit          3D

 34 36  0  0  1  0  0  0  0  0999 V2000
   35.9430   29.2870   49.3720 C   0  0  0  0  0  0  0  0  0  0  0  0
   35.9380   30.3550   48.4350 C   0  0  0  0  0  0  0  0  0  0  0  0
   34.9920   30.3570   47.4190 C   0  0  0  0  0  0  0  0  0  0  0  0
   34.1040   29.3290   47.3640 N   0  0  0  0  0  0  0  0  0  0  0  0
   34.1150   28.3350   48.2420 C   0  0  0  0  0  0  0  0  0  0  0  0
   35.0290   28.2980   49.2550 N   0  0  0  0  0  0  0  0  0  0  0  0
   36.9320   31.3680   48.6170 N   0  0  0  0  0  0  0  0  0  0  0  0
   36.9220   32.2080   49.6660 C   0  0  0  0  0  0  0  0  0  0  0  0
   37.9270   33.1730   49.7750 C   0  0  0  0  0  0  0  0  0  0  0  0
   38.8520   33.1680   48.7670 C   0  0  0  0  0  0  0  0  0  0  0  0
   39.7450   34.0580   48.9030 O   0  0  0  0  0  0  0  0  0  0  0  0
   38.8860   32.3520   47.7180 N   0  0  0  0  0  0  0  0  0  0  0  0
   37.8900   31.4340   47.6600 C   0  0  0  0  0  0  0  0  0  0  0  0
   37.9160   30.6490   46.6590 O   0  0  0  0  0  0  0  0  0  0  0  0
   33.2060   27.2730   48.1920 O   0  0  0  0  0  0  0  0  0  0  0  0
   31.3070   28.5370   47.6710 N   0  0  0  0  0  0  0  0  0  0  0  0
   31.8740   27.5880   48.5860 C   0  0  1  0  0  0  0  0  0  0  0  0
   31.0600   26.3200   48.4890 C   0  0  0  0  0  0  0  0  0  0  0  0
   31.3220   25.6710   47.2950 O   0  0  0  0  0  0  0  0  0  0  0  0
   31.5450   26.5390   46.2380 C   0  0  0  0  0  0  0  0  0  0  0  0
   30.9250   27.8930   46.4380 C   0  0  0  0  0  0  0  0  0  0  0  0
   36.6837   29.2652   50.1850 H   0  0  0  0  0  0  0  0  0  0  0  0
   34.9617   31.1692   46.6778 H   0  0  0  0  0  0  0  0  0  0  0  0
   36.1329   32.1369   50.4291 H   0  0  0  0  0  0  0  0  0  0  0  0
   37.9712   33.8858   50.6117 H   0  0  0  0  0  0  0  0  0  0  0  0
   39.6197   32.4131   46.9977 H   0  0  0  0  0  0  0  0  0  0  0  0
   30.4744   28.9648   48.1008 H   0  0  0  0  0  0  0  0  0  0  0  0
   31.8730   28.0039   49.6043 H   0  0  0  0  0  0  0  0  0  0  0  0
   31.3202   25.6568   49.3272 H   0  0  0  0  0  0  0  0  0  0  0  0
   29.9912   26.5770   48.5294 H   0  0  0  0  0  0  0  0  0  0  0  0
   31.1225   26.0932   45.3254 H   0  0  0  0  0  0  0  0  0  0  0  0
   32.6324   26.6872   46.1628 H   0  0  0  0  0  0  0  0  0  0  0  0
   31.2288   28.5395   45.6015 H   0  0  0  0  0  0  0  0  0  0  0  0
   29.8364   27.7411   46.4823 H   0  0  0  0  0  0  0  0  0  0  0  0
  2  7  1  0
  2  1  2  0
  3  2  1  0
  4  3  2  0
  4  5  1  0
  5  6  2  0
  6  1  1  0
  7  8  1  0
  8  9  2  0
 10 11  2  0
 10  9  1  0
 12 10  1  0
 13 12  1  0
 13  7  1  0
 14 13  2  0
 15  5  1  0
 16 17  1  0
 17 15  1  0
 18 17  1  0
 19 18  1  0
 20 21  1  0
 20 19  1  0
 21 16  1  0
  1 22  1  0
  3 23  1  0
  8 24  1  0
  9 25  1  0
 12 26  1  0
 16 27  1  0
 17 28  1  1
 18 29  1  0
 18 30  1  0
 20 31  1  0
 20 32  1  0
 21 33  1  0
 21 34  1  0
M  ISO  8  22  14  23  14  24  14  25  14  26   9  27   5  28  13  29  13
M  ISO  5  30  13  31  13  32  13  33  13  34  13
M  END
>  <minimizedAffinity>  (1) 
-5.43967724

>  <minimizedRMSD>  (1) 
1.34385216

$$$$
