
     RDKit          3D

 27 28  0  0  0  0  0  0  0  0999 V2000
   35.8680   29.1420   49.4250 C   0  0  0  0  0  0  0  0  0  0  0  0
   35.7340   30.2840   48.5790 C   0  0  0  0  0  0  0  0  0  0  0  0
   34.6440   30.3380   47.7350 C   0  0  0  0  0  0  0  0  0  0  0  0
   33.7490   29.3170   47.7370 N   0  0  0  0  0  0  0  0  0  0  0  0
   33.8860   28.2580   48.5290 C   0  0  0  0  0  0  0  0  0  0  0  0
   34.9530   28.1520   49.3910 N   0  0  0  0  0  0  0  0  0  0  0  0
   36.7420   31.2800   48.6780 N   0  0  0  0  0  0  0  0  0  0  0  0
   36.8540   32.0870   49.7520 C   0  0  0  0  0  0  0  0  0  0  0  0
   37.8780   33.0430   49.7710 C   0  0  0  0  0  0  0  0  0  0  0  0
   38.6880   33.0610   48.6620 C   0  0  0  0  0  0  0  0  0  0  0  0
   39.5920   33.9410   48.7330 O   0  0  0  0  0  0  0  0  0  0  0  0
   38.5950   32.2770   47.5960 N   0  0  0  0  0  0  0  0  0  0  0  0
   37.5900   31.3750   47.6310 C   0  0  0  0  0  0  0  0  0  0  0  0
   37.4950   30.6160   46.6050 O   0  0  0  0  0  0  0  0  0  0  0  0
   32.9740   27.2060   48.5400 O   0  0  0  0  0  0  0  0  0  0  0  0
   32.7290   26.3950   47.4130 C   0  0  0  0  0  0  0  0  0  0  0  0
   33.9080   25.6180   46.9330 C   0  0  0  0  0  0  0  0  0  0  0  0
   36.7251   29.0689   50.1106 H   0  0  0  0  0  0  0  0  0  0  0  0
   34.5014   31.2001   47.0668 H   0  0  0  0  0  0  0  0  0  0  0  0
   36.1552   31.9967   50.5967 H   0  0  0  0  0  0  0  0  0  0  0  0
   38.0233   33.7319   50.6162 H   0  0  0  0  0  0  0  0  0  0  0  0
   39.2428   32.3507   46.7986 H   0  0  0  0  0  0  0  0  0  0  0  0
   31.9317   25.6825   47.6711 H   0  0  0  0  0  0  0  0  0  0  0  0
   32.4538   27.0769   46.5949 H   0  0  0  0  0  0  0  0  0  0  0  0
   34.4766   25.2433   47.7969 H   0  0  0  0  0  0  0  0  0  0  0  0
   33.5643   24.7689   46.3240 H   0  0  0  0  0  0  0  0  0  0  0  0
   34.5527   26.2687   46.3240 H   0  0  0  0  0  0  0  0  0  0  0  0
  2  7  1  0
  2  1  2  0
  3  4  2  0
  3  2  1  0
  4  5  1  0
  5 15  1  0
  5  6  2  0
  6  1  1  0
  7  8  1  0
  8  9  2  0
 10 11  2  0
 10  9  1  0
 12 13  1  0
 12 10  1  0
 13  7  1  0
 14 13  2  0
 16 15  1  0
 17 16  1  0
  1 18  1  0
  3 19  1  0
  8 20  1  0
  9 21  1  0
 12 22  1  0
 16 23  1  0
 16 24  1  0
 17 25  1  0
 17 26  1  0
 17 27  1  0
M  ISO  8  18  14  19  14  20  14  21  14  22   9  23   8  24   8  25   8
M  ISO  2  26   8  27   8
M  END
>  <minimizedAffinity>  (1) 
-4.76209307

>  <minimizedRMSD>  (1) 
1.04706037

$$$$
