
     RDKit          3D

 41 44  0  0  0  0  0  0  0  0999 V2000
   31.0500   26.8750   47.1130 O   0  0  0  0  0  0  0  0  0  0  0  0
   29.9710   26.9820   47.9910 C   0  0  0  0  0  0  0  0  0  0  0  0
   30.3590   27.4050   49.2590 C   0  0  0  0  0  0  0  0  0  0  0  0
   29.4240   27.5700   50.2650 C   0  0  0  0  0  0  0  0  0  0  0  0
   28.0850   27.3050   49.9890 C   0  0  0  0  0  0  0  0  0  0  0  0
   27.7270   26.8870   48.7210 C   0  0  0  0  0  0  0  0  0  0  0  0
   28.6510   26.7210   47.7180 C   0  0  0  0  0  0  0  0  0  0  0  0
   28.3550   26.2840   46.3570 C   0  0  0  0  0  0  0  0  0  0  0  0
   27.8580   27.2180   45.4680 C   0  0  0  0  0  0  0  0  0  0  0  0
   27.5780   26.8100   44.1840 C   0  0  0  0  0  0  0  0  0  0  0  0
   27.7560   25.5350   43.7100 C   0  0  0  0  0  0  0  0  0  0  0  0
   28.2560   24.6020   44.6090 C   0  0  0  0  0  0  0  0  0  0  0  0
   28.5410   25.0030   45.9060 C   0  0  0  0  0  0  0  0  0  0  0  0
   34.1500   28.1200   48.4420 C   0  0  0  0  0  0  0  0  0  0  0  0
   34.2230   29.4260   47.9050 C   0  0  0  0  0  0  0  0  0  0  0  0
   33.1820   29.8440   47.0860 C   0  0  0  0  0  0  0  0  0  0  0  0
   32.1490   29.0030   46.8330 N   0  0  0  0  0  0  0  0  0  0  0  0
   32.1060   27.7620   47.3590 C   0  0  0  0  0  0  0  0  0  0  0  0
   33.1100   27.3160   48.1680 N   0  0  0  0  0  0  0  0  0  0  0  0
   35.3510   30.2170   48.2380 N   0  0  0  0  0  0  0  0  0  0  0  0
   35.5730   30.6620   49.4720 C   0  0  0  0  0  0  0  0  0  0  0  0
   36.6910   31.4360   49.7560 C   0  0  0  0  0  0  0  0  0  0  0  0
   37.5000   31.6790   48.6820 C   0  0  0  0  0  0  0  0  0  0  0  0
   38.5320   32.3810   48.9010 O   0  0  0  0  0  0  0  0  0  0  0  0
   37.3230   31.2580   47.4400 N   0  0  0  0  0  0  0  0  0  0  0  0
   36.2030   30.4980   47.2080 C   0  0  0  0  0  0  0  0  0  0  0  0
   36.0180   30.0900   46.0300 O   0  0  0  0  0  0  0  0  0  0  0  0
   31.4202   27.6102   49.4633 H   0  0  0  0  0  0  0  0  0  0  0  0
   29.7330   27.9049   51.2662 H   0  0  0  0  0  0  0  0  0  0  0  0
   27.3211   27.4269   50.7710 H   0  0  0  0  0  0  0  0  0  0  0  0
   26.6677   26.6805   48.5081 H   0  0  0  0  0  0  0  0  0  0  0  0
   27.6907   28.2599   45.7785 H   0  0  0  0  0  0  0  0  0  0  0  0
   27.1820   27.5621   43.4858 H   0  0  0  0  0  0  0  0  0  0  0  0
   27.5150   25.2655   42.6711 H   0  0  0  0  0  0  0  0  0  0  0  0
   28.4235   23.5605   44.2972 H   0  0  0  0  0  0  0  0  0  0  0  0
   28.9365   24.2547   46.6086 H   0  0  0  0  0  0  0  0  0  0  0  0
   34.9578   27.7569   49.0944 H   0  0  0  0  0  0  0  0  0  0  0  0
   33.1955   30.8517   46.6451 H   0  0  0  0  0  0  0  0  0  0  0  0
   34.8639   30.4145   50.2757 H   0  0  0  0  0  0  0  0  0  0  0  0
   36.9073   31.8217   50.7632 H   0  0  0  0  0  0  0  0  0  0  0  0
   37.9888   31.4878   46.6885 H   0  0  0  0  0  0  0  0  0  0  0  0
  1 18  1  0
  1  2  1  0
  2  3  2  0
  3  4  1  0
  5  4  2  0
  6  5  1  0
  7  2  1  0
  7  6  2  0
  8  7  1  0
  9  8  2  0
 10  9  1  0
 11 10  2  0
 11 12  1  0
 12 13  2  0
 13  8  1  0
 15 20  1  0
 15 14  2  0
 16 15  1  0
 17 16  2  0
 17 18  1  0
 18 19  2  0
 19 14  1  0
 20 21  1  0
 21 22  2  0
 23 24  2  0
 23 22  1  0
 25 23  1  0
 26 25  1  0
 26 20  1  0
 27 26  2  0
  3 28  1  0
  4 29  1  0
  5 30  1  0
  6 31  1  0
  9 32  1  0
 10 33  1  0
 11 34  1  0
 12 35  1  0
 13 36  1  0
 14 37  1  0
 16 38  1  0
 21 39  1  0
 22 40  1  0
 25 41  1  0
M  ISO  8  28  14  29  14  30  14  31  14  32  14  33  14  34  14  35  14
M  ISO  6  36  14  37  14  38  14  39  14  40  14  41   9
M  END
>  <minimizedAffinity>  (1) 
-6.22722864

>  <minimizedRMSD>  (1) 
2.38262868

$$$$
