
     RDKit          3D

 23 24  0  0  0  0  0  0  0  0999 V2000
   35.8070   29.1800   50.2890 C   0  0  0  0  0  0  0  0  0  0  0  0
   36.2070   30.2800   49.5080 C   0  0  0  0  0  0  0  0  0  0  0  0
   35.6660   30.4170   48.2290 C   0  0  0  0  0  0  0  0  0  0  0  0
   34.7730   29.4660   47.8090 N   0  0  0  0  0  0  0  0  0  0  0  0
   34.4190   28.4340   48.5820 C   0  0  0  0  0  0  0  0  0  0  0  0
   34.9240   28.2800   49.8150 N   0  0  0  0  0  0  0  0  0  0  0  0
   31.8250   28.2730   49.5480 F   0  0  0  0  0  0  0  0  0  0  0  0
   32.1810   27.3870   48.5790 C   0  0  0  0  0  0  0  0  0  0  0  0
   33.4650   27.4510   48.0860 C   0  0  0  0  0  0  0  0  0  0  0  0
   33.8060   26.5430   47.1040 C   0  0  0  0  0  0  0  0  0  0  0  0
   32.9040   25.6040   46.6270 C   0  0  0  0  0  0  0  0  0  0  0  0
   31.6140   25.5750   47.1550 C   0  0  0  0  0  0  0  0  0  0  0  0
   31.2570   26.4710   48.1330 C   0  0  0  0  0  0  0  0  0  0  0  0
   37.1970   31.2450   50.1040 C   0  0  0  0  0  0  0  0  0  0  0  0
   38.2410   31.4790   49.2030 F   0  0  0  0  0  0  0  0  0  0  0  0
   36.5400   32.4540   50.2800 F   0  0  0  0  0  0  0  0  0  0  0  0
   37.7110   30.8300   51.2980 F   0  0  0  0  0  0  0  0  0  0  0  0
   36.2210   29.0534   51.3002 H   0  0  0  0  0  0  0  0  0  0  0  0
   35.9467   31.2596   47.5800 H   0  0  0  0  0  0  0  0  0  0  0  0
   34.8238   26.5649   46.6873 H   0  0  0  0  0  0  0  0  0  0  0  0
   33.2020   24.8921   45.8432 H   0  0  0  0  0  0  0  0  0  0  0  0
   30.8846   24.8371   46.7896 H   0  0  0  0  0  0  0  0  0  0  0  0
   30.2415   26.4561   48.5556 H   0  0  0  0  0  0  0  0  0  0  0  0
  2 14  1  0
  2  1  2  0
  3  2  1  0
  4  3  2  0
  4  5  1  0
  5  6  2  0
  6  1  1  0
  8  7  1  0
  9  8  2  0
  9  5  1  0
 10  9  1  0
 11 10  2  0
 11 12  1  0
 12 13  2  0
 13  8  1  0
 14 16  1  0
 14 17  1  0
 15 14  1  0
  1 18  1  0
  3 19  1  0
 10 20  1  0
 11 21  1  0
 12 22  1  0
 13 23  1  0
M  ISO  6  18  14  19  14  20  14  21  14  22  14  23  14
M  END
>  <minimizedAffinity>  (1) 
-5.38974142

>  <minimizedRMSD>  (1) 
1.00888371

$$$$
