
     RDKit          3D

 20 21  0  0  0  0  0  0  0  0999 V2000
   35.4260   29.1550   50.2730 C   0  0  0  0  0  0  0  0  0  0  0  0
   36.2280   30.1570   49.7030 C   0  0  0  0  0  0  0  0  0  0  0  0
   36.0900   30.4240   48.3390 C   0  0  0  0  0  0  0  0  0  0  0  0
   35.1790   29.6940   47.6300 N   0  0  0  0  0  0  0  0  0  0  0  0
   34.4260   28.7410   48.2070 C   0  0  0  0  0  0  0  0  0  0  0  0
   34.5410   28.4690   49.5050 N   0  0  0  0  0  0  0  0  0  0  0  0
   37.1910   30.8920   50.5780 C   0  0  0  0  0  0  0  0  0  0  0  0
   38.5050   30.7400   50.0860 F   0  0  0  0  0  0  0  0  0  0  0  0
   36.8860   32.2310   50.5410 F   0  0  0  0  0  0  0  0  0  0  0  0
   37.1660   30.4470   51.8760 F   0  0  0  0  0  0  0  0  0  0  0  0
   33.4390   27.9590   47.4050 C   0  0  0  0  0  0  0  0  0  0  0  0
   33.7830   26.4860   47.0960 C   0  0  0  0  0  0  0  0  0  0  0  0
   32.6890   26.8420   48.0300 C   0  0  0  0  0  0  0  0  0  0  0  0
   35.5150   28.9252   51.3450 H   0  0  0  0  0  0  0  0  0  0  0  0
   36.6974   31.1998   47.8499 H   0  0  0  0  0  0  0  0  0  0  0  0
   33.1530   28.8533   46.8319 H   0  0  0  0  0  0  0  0  0  0  0  0
   33.5514   26.0586   46.1092 H   0  0  0  0  0  0  0  0  0  0  0  0
   34.6883   25.8633   47.1475 H   0  0  0  0  0  0  0  0  0  0  0  0
   32.8081   26.6436   49.1054 H   0  0  0  0  0  0  0  0  0  0  0  0
   31.6223   26.5798   48.0883 H   0  0  0  0  0  0  0  0  0  0  0  0
  2  1  2  0
  2  7  1  0
  3  2  1  0
  4  5  1  0
  4  3  2  0
  5  6  2  0
  6  1  1  0
  7 10  1  0
  8  7  1  0
  9  7  1  0
 11 13  1  0
 11  5  1  0
 12 11  1  0
 12 13  1  0
  1 14  1  0
  3 15  1  0
 11 16  1  0
 12 17  1  0
 12 18  1  0
 13 19  1  0
 13 20  1  0
M  ISO  7  14  14  15  14  16  13  17  13  18  13  19  13  20  13
M  END
>  <minimizedAffinity>  (1) 
-4.71336651

>  <minimizedRMSD>  (1) 
0.190611348

$$$$
