
     RDKit          3D

 15 15  0  0  0  0  0  0  0  0999 V2000
   35.6270   29.0120   50.1750 C   0  0  0  0  0  0  0  0  0  0  0  0
   36.2900   30.1520   49.6500 C   0  0  0  0  0  0  0  0  0  0  0  0
   36.0400   30.5160   48.3260 C   0  0  0  0  0  0  0  0  0  0  0  0
   35.1610   29.7430   47.6110 N   0  0  0  0  0  0  0  0  0  0  0  0
   34.5470   28.6620   48.1470 C   0  0  0  0  0  0  0  0  0  0  0  0
   34.7700   28.2910   49.4200 N   0  0  0  0  0  0  0  0  0  0  0  0
   33.6830   28.0240   47.2110 N   0  0  0  0  0  0  0  0  0  0  0  0
   37.2230   30.8970   50.5530 C   0  0  0  0  0  0  0  0  0  0  0  0
   38.5320   30.8000   50.0980 F   0  0  0  0  0  0  0  0  0  0  0  0
   36.8670   32.2290   50.5000 F   0  0  0  0  0  0  0  0  0  0  0  0
   37.1730   30.4670   51.8530 F   0  0  0  0  0  0  0  0  0  0  0  0
   35.8146   28.7102   51.2160 H   0  0  0  0  0  0  0  0  0  0  0  0
   36.5298   31.3904   47.8727 H   0  0  0  0  0  0  0  0  0  0  0  0
   33.1519   27.1862   47.4884 H   0  0  0  0  0  0  0  0  0  0  0  0
   33.5894   28.4005   46.2569 H   0  0  0  0  0  0  0  0  0  0  0  0
  2  1  2  0
  2  8  1  0
  3  2  1  0
  4  5  1  0
  4  3  2  0
  5  6  2  0
  6  1  1  0
  7  5  1  0
  8 11  1  0
  9  8  1  0
 10  8  1  0
  1 12  1  0
  3 13  1  0
  7 14  1  0
  7 15  1  0
M  ISO  2  12  14  13  14
M  END
>  <minimizedAffinity>  (1) 
-4.38473511

>  <minimizedRMSD>  (1) 
0.0719507486

$$$$
