
     RDKit          3D

 33 35  0  0  0  0  0  0  0  0999 V2000
   32.8310   30.9360   46.5150 Cl  0  0  0  0  0  0  0  0  0  0  0  0
   32.9320   29.2590   47.0200 C   0  0  0  0  0  0  0  0  0  0  0  0
   34.0050   28.8330   47.7740 C   0  0  0  0  0  0  0  0  0  0  0  0
   34.1100   27.4960   48.1950 C   0  0  0  0  0  0  0  0  0  0  0  0
   33.1110   26.6180   47.8320 C   0  0  0  0  0  0  0  0  0  0  0  0
   32.0250   27.0320   47.0720 C   0  0  0  0  0  0  0  0  0  0  0  0
   30.7870   25.8890   46.6320 Cl  0  0  0  0  0  0  0  0  0  0  0  0
   31.9420   28.3720   46.6640 C   0  0  0  0  0  0  0  0  0  0  0  0
   31.8630   28.4730   43.8300 F   0  0  0  0  0  0  0  0  0  0  0  0
   30.7500   28.9040   44.4870 C   0  0  0  0  0  0  0  0  0  0  0  0
   30.8140   28.8450   45.8640 C   0  0  0  0  0  0  0  0  0  0  0  0
   29.7420   29.2540   46.6490 C   0  0  0  0  0  0  0  0  0  0  0  0
   28.5880   29.7330   46.0330 C   0  0  0  0  0  0  0  0  0  0  0  0
   28.5370   29.7870   44.6540 C   0  0  0  0  0  0  0  0  0  0  0  0
   29.5990   29.3800   43.8710 C   0  0  0  0  0  0  0  0  0  0  0  0
   36.1730   31.0530   49.7540 C   0  0  0  0  0  0  0  0  0  0  0  0
   37.1310   31.4380   48.7810 C   0  0  0  0  0  0  0  0  0  0  0  0
   37.0170   30.9320   47.4720 C   0  0  0  0  0  0  0  0  0  0  0  0
   35.9740   30.0930   47.2290 N   0  0  0  0  0  0  0  0  0  0  0  0
   35.0770   29.7420   48.1690 C   0  0  0  0  0  0  0  0  0  0  0  0
   35.1690   30.2090   49.4070 N   0  0  0  0  0  0  0  0  0  0  0  0
   38.2190   32.3710   49.2130 C   0  0  0  0  0  0  0  0  0  0  0  0
   39.0790   32.6340   48.1450 F   0  0  0  0  0  0  0  0  0  0  0  0
   37.6350   33.5700   49.5620 F   0  0  0  0  0  0  0  0  0  0  0  0
   38.9510   31.9000   50.2750 F   0  0  0  0  0  0  0  0  0  0  0  0
   34.9662   27.1593   48.7979 H   0  0  0  0  0  0  0  0  0  0  0  0
   33.1755   25.5673   48.1511 H   0  0  0  0  0  0  0  0  0  0  0  0
   29.8044   29.1999   47.7459 H   0  0  0  0  0  0  0  0  0  0  0  0
   27.7297   30.0635   46.6364 H   0  0  0  0  0  0  0  0  0  0  0  0
   27.6260   30.1643   44.1664 H   0  0  0  0  0  0  0  0  0  0  0  0
   29.5347   29.4319   42.7741 H   0  0  0  0  0  0  0  0  0  0  0  0
   36.2437   31.4361   50.7827 H   0  0  0  0  0  0  0  0  0  0  0  0
   37.7360   31.2018   46.6845 H   0  0  0  0  0  0  0  0  0  0  0  0
  1  2  1  0
  2  3  2  0
  3 20  1  0
  3  4  1  0
  5  4  2  0
  6  5  1  0
  7  6  1  0
  8  2  1  0
  8  6  2  0
  9 10  1  0
 10 11  2  0
 11 12  1  0
 11  8  1  0
 13 12  2  0
 14 13  1  0
 15 10  1  0
 15 14  2  0
 17 22  1  0
 17 16  2  0
 18 17  1  0
 19 18  2  0
 19 20  1  0
 20 21  2  0
 21 16  1  0
 22 24  1  0
 22 25  1  0
 23 22  1  0
  4 26  1  0
  5 27  1  0
 12 28  1  0
 13 29  1  0
 14 30  1  0
 15 31  1  0
 16 32  1  0
 18 33  1  0
M  ISO  8  26  14  27  14  28  14  29  14  30  14  31  14  32  14  33  14
M  END
>  <minimizedAffinity>  (1) 
-5.7999053

>  <minimizedRMSD>  (1) 
1.66079366

$$$$
