
     RDKit          3D

 33 35  0  0  0  0  0  0  0  0999 V2000
   32.4950   30.4910   46.5350 Cl  0  0  0  0  0  0  0  0  0  0  0  0
   32.2640   28.7710   46.8290 C   0  0  0  0  0  0  0  0  0  0  0  0
   33.0860   28.0990   47.7170 C   0  0  0  0  0  0  0  0  0  0  0  0
   32.9270   26.7390   47.9720 C   0  0  0  0  0  0  0  0  0  0  0  0
   31.9070   26.0840   47.2950 C   0  0  0  0  0  0  0  0  0  0  0  0
   31.0750   26.7210   46.4110 C   0  0  0  0  0  0  0  0  0  0  0  0
   29.8150   25.8400   45.5960 Cl  0  0  0  0  0  0  0  0  0  0  0  0
   31.2630   28.0730   46.1830 C   0  0  0  0  0  0  0  0  0  0  0  0
   28.9150   29.1460   47.5950 Cl  0  0  0  0  0  0  0  0  0  0  0  0
   29.2970   29.3390   45.8820 C   0  0  0  0  0  0  0  0  0  0  0  0
   30.4170   28.8150   45.2550 C   0  0  0  0  0  0  0  0  0  0  0  0
   30.6080   29.0330   43.9080 C   0  0  0  0  0  0  0  0  0  0  0  0
   29.6890   29.7620   43.2050 C   0  0  0  0  0  0  0  0  0  0  0  0
   28.5740   30.2870   43.8190 C   0  0  0  0  0  0  0  0  0  0  0  0
   27.4070   31.2200   42.9050 Cl  0  0  0  0  0  0  0  0  0  0  0  0
   28.3520   30.0860   45.1780 C   0  0  0  0  0  0  0  0  0  0  0  0
   35.1200   29.5480   50.4250 C   0  0  0  0  0  0  0  0  0  0  0  0
   36.1730   30.1470   49.7070 C   0  0  0  0  0  0  0  0  0  0  0  0
   36.1700   30.0440   48.3090 C   0  0  0  0  0  0  0  0  0  0  0  0
   35.1410   29.3680   47.7320 N   0  0  0  0  0  0  0  0  0  0  0  0
   34.1530   28.8070   48.4170 C   0  0  0  0  0  0  0  0  0  0  0  0
   34.1380   28.8950   49.7570 N   0  0  0  0  0  0  0  0  0  0  0  0
   37.2440   30.8610   50.4660 C   0  0  0  0  0  0  0  0  0  0  0  0
   38.5090   30.5320   49.9320 F   0  0  0  0  0  0  0  0  0  0  0  0
   37.0620   32.2080   50.3200 F   0  0  0  0  0  0  0  0  0  0  0  0
   37.2520   30.5340   51.8020 F   0  0  0  0  0  0  0  0  0  0  0  0
   33.5809   26.2071   48.6788 H   0  0  0  0  0  0  0  0  0  0  0  0
   31.7603   25.0089   47.4755 H   0  0  0  0  0  0  0  0  0  0  0  0
   31.4942   28.6232   43.4012 H   0  0  0  0  0  0  0  0  0  0  0  0
   29.8434   29.9321   42.1293 H   0  0  0  0  0  0  0  0  0  0  0  0
   27.4646   30.5006   45.6785 H   0  0  0  0  0  0  0  0  0  0  0  0
   35.0946   29.6098   51.5230 H   0  0  0  0  0  0  0  0  0  0  0  0
   36.9698   30.4930   47.7018 H   0  0  0  0  0  0  0  0  0  0  0  0
  1  2  1  0
  2  3  2  0
  3  4  1  0
  3 21  1  0
  5  4  2  0
  6  5  1  0
  7  6  1  0
  8  6  2  0
  8  2  1  0
 10  9  1  0
 11 10  2  0
 11  8  1  0
 12 11  1  0
 13 14  1  0
 13 12  2  0
 14 16  2  0
 15 14  1  0
 16 10  1  0
 18 17  2  0
 18 23  1  0
 19 18  1  0
 20 19  2  0
 20 21  1  0
 21 22  2  0
 22 17  1  0
 23 26  1  0
 24 23  1  0
 25 23  1  0
  4 27  1  0
  5 28  1  0
 12 29  1  0
 13 30  1  0
 16 31  1  0
 17 32  1  0
 19 33  1  0
M  ISO  7  27  14  28  14  29  14  30  14  31  14  32  14  33  14
M  END
>  <minimizedAffinity>  (1) 
-5.68914652

>  <minimizedRMSD>  (1) 
0.638891578

$$$$
