
     RDKit          3D

 33 35  0  0  0  0  0  0  0  0999 V2000
   32.6740   30.3620   46.6030 Cl  0  0  0  0  0  0  0  0  0  0  0  0
   32.6090   28.6090   46.7710 C   0  0  0  0  0  0  0  0  0  0  0  0
   33.4750   27.9560   47.6290 C   0  0  0  0  0  0  0  0  0  0  0  0
   33.4480   26.5730   47.7820 C   0  0  0  0  0  0  0  0  0  0  0  0
   32.5210   25.8640   47.0460 C   0  0  0  0  0  0  0  0  0  0  0  0
   31.6400   26.4970   46.1750 C   0  0  0  0  0  0  0  0  0  0  0  0
   30.4810   25.5520   45.2610 Cl  0  0  0  0  0  0  0  0  0  0  0  0
   31.6930   27.8820   46.0440 C   0  0  0  0  0  0  0  0  0  0  0  0
   29.0590   28.8820   47.1520 Cl  0  0  0  0  0  0  0  0  0  0  0  0
   29.5590   29.0970   45.5040 C   0  0  0  0  0  0  0  0  0  0  0  0
   30.7860   28.5880   45.1430 C   0  0  0  0  0  0  0  0  0  0  0  0
   31.2780   28.7080   43.8470 C   0  0  0  0  0  0  0  0  0  0  0  0
   30.5360   29.3540   42.8680 C   0  0  0  0  0  0  0  0  0  0  0  0
   29.2970   29.8720   43.2210 C   0  0  0  0  0  0  0  0  0  0  0  0
   28.8240   29.7440   44.5100 C   0  0  0  0  0  0  0  0  0  0  0  0
   35.3570   29.3550   50.4750 C   0  0  0  0  0  0  0  0  0  0  0  0
   36.3330   30.1340   49.8090 C   0  0  0  0  0  0  0  0  0  0  0  0
   36.3300   30.1670   48.4050 C   0  0  0  0  0  0  0  0  0  0  0  0
   35.3750   29.4380   47.7580 N   0  0  0  0  0  0  0  0  0  0  0  0
   34.4590   28.7060   48.4130 C   0  0  0  0  0  0  0  0  0  0  0  0
   34.4520   28.6650   49.7410 N   0  0  0  0  0  0  0  0  0  0  0  0
   37.3270   30.8900   50.6340 C   0  0  0  0  0  0  0  0  0  0  0  0
   38.6080   30.7570   50.0930 F   0  0  0  0  0  0  0  0  0  0  0  0
   36.9990   32.2270   50.5820 F   0  0  0  0  0  0  0  0  0  0  0  0
   37.3430   30.4860   51.9410 F   0  0  0  0  0  0  0  0  0  0  0  0
   34.1419   26.0627   48.4662 H   0  0  0  0  0  0  0  0  0  0  0  0
   32.4774   24.7699   47.1506 H   0  0  0  0  0  0  0  0  0  0  0  0
   32.2630   28.2875   43.5963 H   0  0  0  0  0  0  0  0  0  0  0  0
   30.9186   29.4528   41.8414 H   0  0  0  0  0  0  0  0  0  0  0  0
   28.6872   30.3892   42.4656 H   0  0  0  0  0  0  0  0  0  0  0  0
   27.8390   30.1640   44.7618 H   0  0  0  0  0  0  0  0  0  0  0  0
   35.3338   29.3106   51.5739 H   0  0  0  0  0  0  0  0  0  0  0  0
   37.0705   30.7590   47.8472 H   0  0  0  0  0  0  0  0  0  0  0  0
  1  2  1  0
  2  3  2  0
  3  4  1  0
  3 20  1  0
  5  4  2  0
  6  5  1  0
  7  6  1  0
  8  6  2  0
  8  2  1  0
 10  9  1  0
 11 10  2  0
 11  8  1  0
 12 11  1  0
 13 14  1  0
 13 12  2  0
 14 15  2  0
 15 10  1  0
 17 16  2  0
 17 22  1  0
 18 17  1  0
 19 18  2  0
 19 20  1  0
 20 21  2  0
 21 16  1  0
 22 25  1  0
 23 22  1  0
 24 22  1  0
  4 26  1  0
  5 27  1  0
 12 28  1  0
 13 29  1  0
 14 30  1  0
 15 31  1  0
 16 32  1  0
 18 33  1  0
M  ISO  8  26  14  27  14  28  14  29  14  30  14  31  14  32  14  33  14
M  END
>  <minimizedAffinity>  (1) 
-5.49249411

>  <minimizedRMSD>  (1) 
0.172556952

$$$$
