
     RDKit          3D

 24 25  0  0  0  0  0  0  0  0999 V2000
   35.3750   29.2810   50.4450 C   0  0  0  0  0  0  0  0  0  0  0  0
   36.3120   30.1230   49.7860 C   0  0  0  0  0  0  0  0  0  0  0  0
   36.2990   30.1650   48.3850 C   0  0  0  0  0  0  0  0  0  0  0  0
   35.3880   29.3920   47.7300 N   0  0  0  0  0  0  0  0  0  0  0  0
   34.5210   28.6120   48.3590 C   0  0  0  0  0  0  0  0  0  0  0  0
   34.5010   28.5430   49.7040 N   0  0  0  0  0  0  0  0  0  0  0  0
   32.6950   30.1840   46.5360 Cl  0  0  0  0  0  0  0  0  0  0  0  0
   32.6860   28.4290   46.7100 C   0  0  0  0  0  0  0  0  0  0  0  0
   33.5720   27.8120   47.5790 C   0  0  0  0  0  0  0  0  0  0  0  0
   33.5920   26.4340   47.7390 C   0  0  0  0  0  0  0  0  0  0  0  0
   32.6840   25.6940   46.9900 C   0  0  0  0  0  0  0  0  0  0  0  0
   31.8000   26.2870   46.1260 C   0  0  0  0  0  0  0  0  0  0  0  0
   30.6950   25.2650   45.2260 Cl  0  0  0  0  0  0  0  0  0  0  0  0
   31.7920   27.6780   45.9740 C   0  0  0  0  0  0  0  0  0  0  0  0
   30.8930   28.2660   45.0960 O   0  0  0  0  0  0  0  0  0  0  0  0
   37.2540   30.9160   50.6320 C   0  0  0  0  0  0  0  0  0  0  0  0
   38.5660   30.7840   50.1140 F   0  0  0  0  0  0  0  0  0  0  0  0
   36.9060   32.2280   50.5570 F   0  0  0  0  0  0  0  0  0  0  0  0
   37.2720   30.4990   51.9480 F   0  0  0  0  0  0  0  0  0  0  0  0
   35.3556   29.2256   51.5434 H   0  0  0  0  0  0  0  0  0  0  0  0
   37.0032   30.8030   47.8309 H   0  0  0  0  0  0  0  0  0  0  0  0
   34.2966   25.9474   48.4294 H   0  0  0  0  0  0  0  0  0  0  0  0
   32.6746   24.5990   47.0938 H   0  0  0  0  0  0  0  0  0  0  0  0
   30.8821   29.2496   44.9837 H   0  0  0  0  0  0  0  0  0  0  0  0
  2  1  2  0
  2 16  1  0
  3  2  1  0
  4  5  1  0
  4  3  2  0
  5  6  2  0
  6  1  1  0
  7  8  1  0
  8  9  2  0
  9 10  1  0
  9  5  1  0
 11 10  2  0
 12 11  1  0
 13 12  1  0
 14 12  2  0
 14  8  1  0
 15 14  1  0
 16 19  1  0
 17 16  1  0
 18 16  1  0
  1 20  1  0
  3 21  1  0
 10 22  1  0
 11 23  1  0
 15 24  1  0
M  ISO  5  20  14  21  14  22  14  23  14  24   3
M  END
>  <minimizedAffinity>  (1) 
-5.23928642

>  <minimizedRMSD>  (1) 
0.102754898

$$$$
