
     RDKit          3D

 42 44  0  0  0  0  0  0  0  0999 V2000
   36.0050   31.1350   49.7490 C   0  0  0  0  0  0  0  0  0  0  0  0
   36.9750   31.5470   48.8180 C   0  0  0  0  0  0  0  0  0  0  0  0
   36.9270   31.0240   47.5350 C   0  0  0  0  0  0  0  0  0  0  0  0
   35.9500   30.1360   47.2170 N   0  0  0  0  0  0  0  0  0  0  0  0
   35.0380   29.7570   48.1170 C   0  0  0  0  0  0  0  0  0  0  0  0
   35.0480   30.2430   49.3790 N   0  0  0  0  0  0  0  0  0  0  0  0
   32.8240   30.8400   46.3600 Cl  0  0  0  0  0  0  0  0  0  0  0  0
   32.9410   29.1750   46.9070 C   0  0  0  0  0  0  0  0  0  0  0  0
   34.0050   28.7920   47.7130 C   0  0  0  0  0  0  0  0  0  0  0  0
   34.1480   27.4730   48.1780 C   0  0  0  0  0  0  0  0  0  0  0  0
   33.1660   26.5650   47.7920 C   0  0  0  0  0  0  0  0  0  0  0  0
   32.1040   26.9250   46.9940 C   0  0  0  0  0  0  0  0  0  0  0  0
   30.9310   25.7040   46.5710 Cl  0  0  0  0  0  0  0  0  0  0  0  0
   32.0080   28.2350   46.5610 C   0  0  0  0  0  0  0  0  0  0  0  0
   30.8650   28.6440   45.6980 C   0  0  0  0  0  0  0  0  0  0  0  0
   29.9430   27.6000   45.5920 F   0  0  0  0  0  0  0  0  0  0  0  0
   31.2680   29.0470   44.4520 F   0  0  0  0  0  0  0  0  0  0  0  0
   30.1870   29.7020   46.2880 F   0  0  0  0  0  0  0  0  0  0  0  0
   37.8970   31.3900   46.5150 C   0  0  0  0  0  0  0  0  0  0  0  0
   39.0800   30.4630   46.3900 C   0  0  0  0  0  0  0  0  0  0  0  0
   40.1740   31.2440   45.6460 C   0  0  0  0  0  0  0  0  0  0  0  0
   39.5120   32.1260   44.6070 C   0  0  0  0  0  0  0  0  0  0  0  0
   38.2120   31.5310   44.0890 C   0  0  0  0  0  0  0  0  0  0  0  0
   37.1730   31.3660   45.1680 C   0  0  0  0  0  0  0  0  0  0  0  0
   38.0110   32.5280   49.2330 C   0  0  0  0  0  0  0  0  0  0  0  0
   38.6350   33.1270   48.1430 F   0  0  0  0  0  0  0  0  0  0  0  0
   37.4130   33.5290   49.9820 F   0  0  0  0  0  0  0  0  0  0  0  0
   38.9920   31.9620   50.0280 F   0  0  0  0  0  0  0  0  0  0  0  0
   36.0205   31.5335   50.7742 H   0  0  0  0  0  0  0  0  0  0  0  0
   34.9934   27.1735   48.8149 H   0  0  0  0  0  0  0  0  0  0  0  0
   33.2415   25.5232   48.1369 H   0  0  0  0  0  0  0  0  0  0  0  0
   38.2938   32.3734   46.8074 H   0  0  0  0  0  0  0  0  0  0  0  0
   39.4370   30.1668   47.3874 H   0  0  0  0  0  0  0  0  0  0  0  0
   38.8090   29.5456   45.8470 H   0  0  0  0  0  0  0  0  0  0  0  0
   40.7351   31.8667   46.3583 H   0  0  0  0  0  0  0  0  0  0  0  0
   40.8710   30.5459   45.1593 H   0  0  0  0  0  0  0  0  0  0  0  0
   39.2973   33.1055   45.0593 H   0  0  0  0  0  0  0  0  0  0  0  0
   40.2022   32.2194   43.7556 H   0  0  0  0  0  0  0  0  0  0  0  0
   37.8076   32.1947   43.3106 H   0  0  0  0  0  0  0  0  0  0  0  0
   38.4407   30.5300   43.6944 H   0  0  0  0  0  0  0  0  0  0  0  0
   36.4463   32.1902   45.1181 H   0  0  0  0  0  0  0  0  0  0  0  0
   36.6290   30.4187   45.0387 H   0  0  0  0  0  0  0  0  0  0  0  0
  2 25  1  0
  2  1  2  0
  3  2  1  0
  4  3  2  0
  4  5  1  0
  5  6  2  0
  6  1  1  0
  7  8  1  0
  8  9  2  0
  9  5  1  0
  9 10  1  0
 11 10  2  0
 12 11  1  0
 13 12  1  0
 14  8  1  0
 14 12  2  0
 15 18  1  0
 15 14  1  0
 16 15  1  0
 17 15  1  0
 19  3  1  0
 20 19  1  0
 21 20  1  0
 22 21  1  0
 23 22  1  0
 23 24  1  0
 24 19  1  0
 25 27  1  0
 25 28  1  0
 26 25  1  0
  1 29  1  0
 10 30  1  0
 11 31  1  0
 19 32  1  0
 20 33  1  0
 20 34  1  0
 21 35  1  0
 21 36  1  0
 22 37  1  0
 22 38  1  0
 23 39  1  0
 23 40  1  0
 24 41  1  0
 24 42  1  0
M  ISO  8  29  14  30  14  31  14  32  13  33  13  34  13  35  13  36  13
M  ISO  6  37  13  38  13  39  13  40  13  41  13  42  13
M  END
>  <minimizedAffinity>  (1) 
-6.55157423

>  <minimizedRMSD>  (1) 
1.56976962

$$$$
