
     RDKit          3D

 32 33  0  0  0  0  0  0  0  0999 V2000
   32.6960   30.5850   46.3510 Cl  0  0  0  0  0  0  0  0  0  0  0  0
   32.3260   28.9040   46.6920 C   0  0  0  0  0  0  0  0  0  0  0  0
   33.0580   28.2050   47.6660 C   0  0  0  0  0  0  0  0  0  0  0  0
   32.7960   26.8780   47.9660 C   0  0  0  0  0  0  0  0  0  0  0  0
   31.7650   26.2660   47.2500 C   0  0  0  0  0  0  0  0  0  0  0  0
   31.0360   26.9210   46.2970 C   0  0  0  0  0  0  0  0  0  0  0  0
   29.7720   26.0470   45.4700 Cl  0  0  0  0  0  0  0  0  0  0  0  0
   31.3240   28.2500   46.0210 C   0  0  0  0  0  0  0  0  0  0  0  0
   35.1310   29.4640   50.4310 C   0  0  0  0  0  0  0  0  0  0  0  0
   36.1580   30.1450   49.7290 C   0  0  0  0  0  0  0  0  0  0  0  0
   36.1270   30.1640   48.3370 C   0  0  0  0  0  0  0  0  0  0  0  0
   35.0800   29.5060   47.7380 N   0  0  0  0  0  0  0  0  0  0  0  0
   34.1360   28.8790   48.4030 C   0  0  0  0  0  0  0  0  0  0  0  0
   34.1410   28.8460   49.7400 N   0  0  0  0  0  0  0  0  0  0  0  0
   37.2460   30.8210   50.5020 C   0  0  0  0  0  0  0  0  0  0  0  0
   38.5050   30.4370   50.0420 F   0  0  0  0  0  0  0  0  0  0  0  0
   37.1070   32.1750   50.3820 F   0  0  0  0  0  0  0  0  0  0  0  0
   37.1850   30.5060   51.8530 F   0  0  0  0  0  0  0  0  0  0  0  0
   37.1520   30.8520   47.5160 C   0  0  0  0  0  0  0  0  0  0  0  0
   36.8910   30.6840   46.0150 C   0  0  0  0  0  0  0  0  0  0  0  0
   30.5430   28.9670   44.9920 C   0  0  0  0  0  0  0  0  0  0  0  0
   29.5140   28.1590   44.5140 F   0  0  0  0  0  0  0  0  0  0  0  0
   31.3160   29.4170   43.9650 F   0  0  0  0  0  0  0  0  0  0  0  0
   29.9210   30.0720   45.5740 F   0  0  0  0  0  0  0  0  0  0  0  0
   33.3711   26.3339   48.7297 H   0  0  0  0  0  0  0  0  0  0  0  0
   31.5296   25.2126   47.4618 H   0  0  0  0  0  0  0  0  0  0  0  0
   35.1373   29.4371   51.5307 H   0  0  0  0  0  0  0  0  0  0  0  0
   37.1421   31.9244   47.7606 H   0  0  0  0  0  0  0  0  0  0  0  0
   38.1293   30.4016   47.7440 H   0  0  0  0  0  0  0  0  0  0  0  0
   35.9746   30.0941   45.8660 H   0  0  0  0  0  0  0  0  0  0  0  0
   36.7694   31.6739   45.5509 H   0  0  0  0  0  0  0  0  0  0  0  0
   37.7417   30.1634   45.5509 H   0  0  0  0  0  0  0  0  0  0  0  0
  1  2  1  0
  2  3  2  0
  3  4  1  0
  3 13  1  0
  5  4  2  0
  6  5  1  0
  7  6  1  0
  8  6  2  0
  8  2  1  0
 10  9  2  0
 10 15  1  0
 11 10  1  0
 12 11  2  0
 12 13  1  0
 13 14  2  0
 14  9  1  0
 15 18  1  0
 16 15  1  0
 17 15  1  0
 19 11  1  0
 20 19  1  0
 21 24  1  0
 21  8  1  0
 22 21  1  0
 23 21  1  0
  4 25  1  0
  5 26  1  0
  9 27  1  0
 19 28  1  0
 19 29  1  0
 20 30  1  0
 20 31  1  0
 20 32  1  0
M  ISO  8  25  14  26  14  27  14  28   8  29   8  30   8  31   8  32   8
M  END
>  <minimizedAffinity>  (1) 
-5.61201763

>  <minimizedRMSD>  (1) 
0.587772369

$$$$
