
     RDKit          3D

 28 29  0  0  0  0  0  0  0  0999 V2000
   32.6820   30.5710   46.3850 Cl  0  0  0  0  0  0  0  0  0  0  0  0
   32.3300   28.8670   46.6870 C   0  0  0  0  0  0  0  0  0  0  0  0
   33.0760   28.1680   47.6380 C   0  0  0  0  0  0  0  0  0  0  0  0
   32.8380   26.8150   47.9180 C   0  0  0  0  0  0  0  0  0  0  0  0
   31.8120   26.2160   47.1850 C   0  0  0  0  0  0  0  0  0  0  0  0
   31.0690   26.8750   46.2510 C   0  0  0  0  0  0  0  0  0  0  0  0
   29.8140   26.0080   45.4040 Cl  0  0  0  0  0  0  0  0  0  0  0  0
   31.3400   28.2140   46.0070 C   0  0  0  0  0  0  0  0  0  0  0  0
   35.1180   29.4080   50.4410 C   0  0  0  0  0  0  0  0  0  0  0  0
   36.1430   30.1040   49.7710 C   0  0  0  0  0  0  0  0  0  0  0  0
   36.1000   30.1220   48.3860 C   0  0  0  0  0  0  0  0  0  0  0  0
   35.0910   29.4820   47.7420 N   0  0  0  0  0  0  0  0  0  0  0  0
   34.1420   28.8390   48.3840 C   0  0  0  0  0  0  0  0  0  0  0  0
   34.1430   28.7950   49.7190 N   0  0  0  0  0  0  0  0  0  0  0  0
   37.2180   30.7790   50.5440 C   0  0  0  0  0  0  0  0  0  0  0  0
   38.4820   30.4180   50.0820 F   0  0  0  0  0  0  0  0  0  0  0  0
   37.0620   32.1370   50.4290 F   0  0  0  0  0  0  0  0  0  0  0  0
   37.1590   30.4600   51.8940 F   0  0  0  0  0  0  0  0  0  0  0  0
   37.0900   30.8050   47.5930 C   0  0  0  0  0  0  0  0  0  0  0  0
   38.1530   30.5530   47.0000 O   0  0  0  0  0  0  0  0  0  0  0  0
   30.5440   28.9510   44.9940 C   0  0  0  0  0  0  0  0  0  0  0  0
   29.5020   28.1520   44.5220 F   0  0  0  0  0  0  0  0  0  0  0  0
   31.3070   29.4030   43.9580 F   0  0  0  0  0  0  0  0  0  0  0  0
   29.9370   30.0510   45.5940 F   0  0  0  0  0  0  0  0  0  0  0  0
   33.4224   26.2609   48.6673 H   0  0  0  0  0  0  0  0  0  0  0  0
   31.5910   25.1546   47.3711 H   0  0  0  0  0  0  0  0  0  0  0  0
   35.1066   29.3609   51.5399 H   0  0  0  0  0  0  0  0  0  0  0  0
   36.8265   31.8667   47.4779 H   0  0  0  0  0  0  0  0  0  0  0  0
  1  2  1  0
  2  3  2  0
  3  4  1  0
  3 13  1  0
  5  4  2  0
  6  5  1  0
  7  6  1  0
  8  6  2  0
  8  2  1  0
 10  9  2  0
 10 15  1  0
 11 10  1  0
 12 13  1  0
 12 11  2  0
 13 14  2  0
 14  9  1  0
 15 18  1  0
 16 15  1  0
 17 15  1  0
 19 11  1  0
 20 19  2  0
 21 24  1  0
 21  8  1  0
 22 21  1  0
 23 21  1  0
  4 25  1  0
  5 26  1  0
  9 27  1  0
 19 28  1  0
M  ISO  4  25  14  26  14  27  14  28   6
M  END
>  <minimizedAffinity>  (1) 
-5.50269794

>  <minimizedRMSD>  (1) 
0.571671903

$$$$
