
     RDKit          3D

 48 52  0  0  1  0  0  0  0  0999 V2000
   36.2830   30.9050   49.8550 C   0  0  0  0  0  0  0  0  0  0  0  0
   37.1590   31.4290   48.8600 C   0  0  0  0  0  0  0  0  0  0  0  0
   36.9720   31.0560   47.5270 C   0  0  0  0  0  0  0  0  0  0  0  0
   35.9360   30.1990   47.2760 N   0  0  0  0  0  0  0  0  0  0  0  0
   35.1360   29.7210   48.1890 C   0  0  0  0  0  0  0  0  0  0  0  0
   35.2910   30.0600   49.4820 N   0  0  0  0  0  0  0  0  0  0  0  0
   32.9310   30.9270   46.4940 Cl  0  0  0  0  0  0  0  0  0  0  0  0
   32.9920   29.2420   47.0100 C   0  0  0  0  0  0  0  0  0  0  0  0
   34.0550   28.8000   47.7860 C   0  0  0  0  0  0  0  0  0  0  0  0
   34.1560   27.4710   48.2250 C   0  0  0  0  0  0  0  0  0  0  0  0
   33.1200   26.6260   47.8300 C   0  0  0  0  0  0  0  0  0  0  0  0
   32.0620   27.0400   47.0640 C   0  0  0  0  0  0  0  0  0  0  0  0
   30.8350   25.8690   46.6440 Cl  0  0  0  0  0  0  0  0  0  0  0  0
   32.0030   28.3650   46.6520 C   0  0  0  0  0  0  0  0  0  0  0  0
   30.8680   28.8340   45.8240 C   0  0  0  0  0  0  0  0  0  0  0  0
   29.9800   27.7730   45.5850 F   0  0  0  0  0  0  0  0  0  0  0  0
   31.2770   29.3700   44.6460 F   0  0  0  0  0  0  0  0  0  0  0  0
   30.1560   29.7880   46.5110 F   0  0  0  0  0  0  0  0  0  0  0  0
   38.2470   32.3600   49.3000 C   0  0  0  0  0  0  0  0  0  0  0  0
   39.1330   32.6210   48.2610 F   0  0  0  0  0  0  0  0  0  0  0  0
   37.6540   33.5620   49.6410 F   0  0  0  0  0  0  0  0  0  0  0  0
   38.9320   31.9050   50.3980 F   0  0  0  0  0  0  0  0  0  0  0  0
   37.8580   31.5900   46.4980 C   0  0  0  0  0  0  0  0  0  0  0  0
   38.3960   29.0950   42.0930 C   0  0  0  0  0  0  0  0  0  0  0  0
   39.5770   29.0960   42.9720 C   0  0  0  0  0  0  0  0  0  0  0  0
   39.4460   29.9810   44.0550 N   0  0  0  0  0  0  0  0  0  0  0  0
   39.7770   30.7300   45.2140 C   0  0  2  0  0  0  0  0  0  0  0  0
   40.8620   31.3110   45.5500 O   0  0  0  0  0  0  0  0  0  0  0  0
   38.3560   30.4430   45.6480 C   0  0  2  0  0  0  0  0  0  0  0  0
   38.1480   30.6250   44.1980 C   0  0  1  0  0  0  0  0  0  0  0  0
   37.0740   29.4590   43.3270 S   0  0  0  0  0  0  0  0  0  0  0  0
   38.1310   27.7710   41.4240 C   0  0  0  0  0  0  0  0  0  0  0  0
   38.4910   30.2530   41.1270 C   0  0  0  0  0  0  0  0  0  0  0  0
   36.4104   31.1828   50.9117 H   0  0  0  0  0  0  0  0  0  0  0  0
   34.9972   27.1192   48.8403 H   0  0  0  0  0  0  0  0  0  0  0  0
   33.1536   25.5739   48.1493 H   0  0  0  0  0  0  0  0  0  0  0  0
   37.3073   32.3053   45.8694 H   0  0  0  0  0  0  0  0  0  0  0  0
   38.7082   32.1080   46.9658 H   0  0  0  0  0  0  0  0  0  0  0  0
   39.7245   28.0790   43.3644 H   0  0  0  0  0  0  0  0  0  0  0  0
   40.4370   29.4294   42.3726 H   0  0  0  0  0  0  0  0  0  0  0  0
   40.9259   31.3452   46.5373 H   0  0  0  0  0  0  0  0  0  0  0  0
   37.9787   29.5805   46.2170 H   0  0  0  0  0  0  0  0  0  0  0  0
   37.9762   26.9974   42.1905 H   0  0  0  0  0  0  0  0  0  0  0  0
   37.2310   27.8508   40.7966 H   0  0  0  0  0  0  0  0  0  0  0  0
   38.9924   27.4983   40.7966 H   0  0  0  0  0  0  0  0  0  0  0  0
   38.5683   31.1948   41.6901 H   0  0  0  0  0  0  0  0  0  0  0  0
   39.3821   30.1302   40.4938 H   0  0  0  0  0  0  0  0  0  0  0  0
   37.5918   30.2770   40.4938 H   0  0  0  0  0  0  0  0  0  0  0  0
  2 19  1  0
  2  1  2  0
  3  2  1  0
  4  3  2  0
  4  5  1  0
  5  6  2  0
  6  1  1  0
  7  8  1  0
  8  9  2  0
  9  5  1  0
  9 10  1  0
 11 10  2  0
 12 11  1  0
 13 12  1  0
 14  8  1  0
 14 12  2  0
 15 18  1  0
 15 14  1  0
 16 15  1  0
 17 15  1  0
 19 21  1  0
 19 22  1  0
 20 19  1  0
 23  3  1  0
 24 25  1  0
 24 31  1  0
 26 25  1  0
 26 30  1  0
 26 27  1  0
 27 28  1  1
 27 29  1  0
 29 23  1  0
 30 31  1  1
 30 27  1  0
 30 29  1  0
 32 24  1  0
 33 24  1  0
  1 34  1  0
 10 35  1  0
 11 36  1  0
 23 37  1  0
 23 38  1  0
 25 39  1  0
 25 40  1  0
 28 41  1  0
 29 42  1  1
 32 43  1  0
 32 44  1  0
 32 45  1  0
 33 46  1  0
 33 47  1  0
 33 48  1  0
M  ISO  8  34  14  35  14  36  14  37   8  38   8  39  13  40  13  41   3
M  ISO  7  42  13  43   8  44   8  45   8  46   8  47   8  48   8
M  END
>  <minimizedAffinity>  (1) 
-7.04264975

>  <minimizedRMSD>  (1) 
2.14782953

$$$$
