
     RDKit          3D

 35 36  0  0  0  0  0  0  0  0999 V2000
   35.4580   29.1870   50.4240 C   0  0  0  0  0  0  0  0  0  0  0  0
   36.3240   30.1090   49.7630 C   0  0  0  0  0  0  0  0  0  0  0  0
   36.2370   30.2410   48.3920 C   0  0  0  0  0  0  0  0  0  0  0  0
   35.3120   29.4710   47.7260 N   0  0  0  0  0  0  0  0  0  0  0  0
   34.5160   28.6230   48.3430 C   0  0  0  0  0  0  0  0  0  0  0  0
   34.5790   28.4700   49.6940 N   0  0  0  0  0  0  0  0  0  0  0  0
   32.6480   30.1970   46.5690 Cl  0  0  0  0  0  0  0  0  0  0  0  0
   32.6430   28.4520   46.7230 C   0  0  0  0  0  0  0  0  0  0  0  0
   33.5510   27.8320   47.5720 C   0  0  0  0  0  0  0  0  0  0  0  0
   33.5890   26.4390   47.7310 C   0  0  0  0  0  0  0  0  0  0  0  0
   32.6600   25.7090   46.9880 C   0  0  0  0  0  0  0  0  0  0  0  0
   31.7610   26.2910   46.1500 C   0  0  0  0  0  0  0  0  0  0  0  0
   30.6480   25.2730   45.2710 Cl  0  0  0  0  0  0  0  0  0  0  0  0
   31.7560   27.6760   46.0200 C   0  0  0  0  0  0  0  0  0  0  0  0
   30.7860   28.3250   45.1110 C   0  0  0  0  0  0  0  0  0  0  0  0
   29.7710   27.4420   44.7520 F   0  0  0  0  0  0  0  0  0  0  0  0
   31.3890   28.8460   43.9920 F   0  0  0  0  0  0  0  0  0  0  0  0
   30.1540   29.3660   45.7620 F   0  0  0  0  0  0  0  0  0  0  0  0
   37.2800   30.8870   50.6030 C   0  0  0  0  0  0  0  0  0  0  0  0
   38.5720   30.7900   50.1060 F   0  0  0  0  0  0  0  0  0  0  0  0
   36.9230   32.2240   50.5310 F   0  0  0  0  0  0  0  0  0  0  0  0
   37.2770   30.5160   51.9280 F   0  0  0  0  0  0  0  0  0  0  0  0
   37.1200   31.1830   47.6930 C   0  0  0  0  0  0  0  0  0  0  0  0
   38.0990   30.4690   46.9610 O   0  0  0  0  0  0  0  0  0  0  0  0
   39.4640   32.7200   47.3940 O   0  0  0  0  0  0  0  0  0  0  0  0
   39.1870   31.6260   46.3770 P   0  0  0  0  0  0  0  0  0  0  0  0
   38.6320   32.3540   44.9550 O   0  0  0  0  0  0  0  0  0  0  0  0
   40.6440   30.8110   46.0610 O   0  0  0  0  0  0  0  0  0  0  0  0
   35.5068   29.0625   51.5158 H   0  0  0  0  0  0  0  0  0  0  0  0
   34.3097   25.9499   48.4028 H   0  0  0  0  0  0  0  0  0  0  0  0
   32.6548   24.6133   47.0847 H   0  0  0  0  0  0  0  0  0  0  0  0
   36.5244   31.7983   47.0026 H   0  0  0  0  0  0  0  0  0  0  0  0
   37.6177   31.8299   48.4304 H   0  0  0  0  0  0  0  0  0  0  0  0
   38.0479   33.1202   45.1828 H   0  0  0  0  0  0  0  0  0  0  0  0
   41.0785   30.5680   46.9167 H   0  0  0  0  0  0  0  0  0  0  0  0
  2  1  2  0
  2 19  1  0
  3  2  1  0
  4  5  1  0
  4  3  2  0
  5  6  2  0
  6  1  1  0
  7  8  1  0
  8  9  2  0
  9 10  1  0
  9  5  1  0
 11 10  2  0
 12 11  1  0
 13 12  1  0
 14 12  2  0
 14  8  1  0
 15 18  1  0
 15 14  1  0
 16 15  1  0
 17 15  1  0
 19 22  1  0
 20 19  1  0
 21 19  1  0
 23  3  1  0
 24 23  1  0
 26 24  1  0
 26 25  2  0
 27 26  1  0
 28 26  1  0
  1 29  1  0
 10 30  1  0
 11 31  1  0
 23 32  1  0
 23 33  1  0
 27 34  1  0
 28 35  1  0
M  ISO  7  29  14  30  14  31  14  32   8  33   8  34   3  35   3
M  END
>  <minimizedAffinity>  (1) 
-6.28741121

>  <minimizedRMSD>  (1) 
1.11664796

$$$$
