
     RDKit          3D

 46 49  0  0  1  0  0  0  0  0999 V2000
   32.2560   29.3960   46.7510 C   0  0  0  0  0  0  0  0  0  0  0  0
   33.3750   29.9250   46.1570 C   0  0  0  0  0  0  0  0  0  0  0  0
   33.1360   30.6230   44.9920 C   0  0  0  0  0  0  0  0  0  0  0  0
   31.8660   30.7300   44.5370 N   0  0  0  0  0  0  0  0  0  0  0  0
   30.8110   30.2010   45.1460 C   0  0  0  0  0  0  0  0  0  0  0  0
   31.0840   29.5530   46.2400 N   0  0  0  0  0  0  0  0  0  0  0  0
   34.2860   31.2020   44.3380 N   0  0  0  0  0  0  0  0  0  0  0  0
   29.7840   30.6500   44.2670 C   0  0  1  0  0  0  0  0  0  0  0  0
   29.3300   31.0570   43.1590 N   0  0  0  0  0  0  0  0  0  0  0  0
   28.1960   31.6010   42.8960 C   0  0  0  0  0  0  0  0  0  0  0  0
   27.8630   30.4940   42.1660 N   0  0  0  0  0  0  0  0  0  0  0  0
   28.3570   29.3390   42.6990 C   0  0  0  0  0  0  0  0  0  0  0  0
   27.8370   28.1290   42.1480 C   0  0  0  0  0  0  0  0  0  0  0  0
   28.2820   26.9610   42.6390 C   0  0  0  0  0  0  0  0  0  0  0  0
   29.2060   26.8390   43.6370 C   0  0  0  0  0  0  0  0  0  0  0  0
   29.6480   28.0480   44.1040 C   0  0  0  0  0  0  0  0  0  0  0  0
   29.3380   29.3610   43.7580 C   0  0  0  0  0  0  0  0  0  0  0  0
   34.7020   29.7330   46.7530 C   0  0  0  0  0  0  0  0  0  0  0  0
   34.6400   29.2070   48.1500 C   0  0  0  0  0  0  0  0  0  0  0  0
   35.7690   29.7130   48.9870 C   0  0  0  0  0  0  0  0  0  0  0  0
   36.1770   31.0280   48.8780 C   0  0  0  0  0  0  0  0  0  0  0  0
   37.2130   31.5450   49.6280 C   0  0  0  0  0  0  0  0  0  0  0  0
   37.8570   30.6900   50.5200 C   0  0  0  0  0  0  0  0  0  0  0  0
   37.4400   29.3670   50.6230 C   0  0  0  0  0  0  0  0  0  0  0  0
   36.4130   28.8770   49.8720 C   0  0  0  0  0  0  0  0  0  0  0  0
   32.3627   28.8248   47.6850 H   0  0  0  0  0  0  0  0  0  0  0  0
   34.1678   31.7344   43.4642 H   0  0  0  0  0  0  0  0  0  0  0  0
   35.2245   31.0826   44.7453 H   0  0  0  0  0  0  0  0  0  0  0  0
   29.7268   31.5531   44.8925 H   0  0  0  0  0  0  0  0  0  0  0  0
   30.0243   31.7462   42.8367 H   0  0  0  0  0  0  0  0  0  0  0  0
   27.5597   31.7712   43.7770 H   0  0  0  0  0  0  0  0  0  0  0  0
   28.1395   32.6075   42.4558 H   0  0  0  0  0  0  0  0  0  0  0  0
   27.2989   30.5282   41.3049 H   0  0  0  0  0  0  0  0  0  0  0  0
   27.0900   28.1528   41.3409 H   0  0  0  0  0  0  0  0  0  0  0  0
   27.8728   26.0362   42.2062 H   0  0  0  0  0  0  0  0  0  0  0  0
   29.5581   25.8717   44.0248 H   0  0  0  0  0  0  0  0  0  0  0  0
   30.3930   27.9663   44.9092 H   0  0  0  0  0  0  0  0  0  0  0  0
   35.2652   29.0194   46.1337 H   0  0  0  0  0  0  0  0  0  0  0  0
   35.1926   30.7168   46.7916 H   0  0  0  0  0  0  0  0  0  0  0  0
   33.6900   29.5218   48.6066 H   0  0  0  0  0  0  0  0  0  0  0  0
   34.7144   28.1105   48.1047 H   0  0  0  0  0  0  0  0  0  0  0  0
   35.6569   31.6871   48.1673 H   0  0  0  0  0  0  0  0  0  0  0  0
   37.5202   32.5962   49.5253 H   0  0  0  0  0  0  0  0  0  0  0  0
   38.6890   31.0585   51.1381 H   0  0  0  0  0  0  0  0  0  0  0  0
   37.9528   28.6979   51.3296 H   0  0  0  0  0  0  0  0  0  0  0  0
   36.1025   27.8265   49.9717 H   0  0  0  0  0  0  0  0  0  0  0  0
  2  1  2  0
  2 18  1  0
  3  2  1  0
  4  3  2  0
  4  5  1  0
  5  6  2  0
  6  1  1  0
  7  3  1  0
  8  5  1  0
  9  8  1  0
 10  9  1  0
 11 12  1  0
 11 10  1  0
 12 17  2  0
 13 14  2  0
 13 12  1  0
 14 15  1  0
 15 16  2  0
 17 16  1  0
 17  8  1  0
 18 19  1  0
 19 20  1  0
 20 25  1  0
 21 20  2  0
 21 22  1  0
 22 23  2  0
 23 24  1  0
 25 24  2  0
  1 26  1  0
  7 27  1  0
  7 28  1  0
  8 29  1  1
  9 30  1  0
 10 31  1  0
 10 32  1  0
 11 33  1  0
 13 34  1  0
 14 35  1  0
 15 36  1  0
 16 37  1  0
 18 38  1  0
 18 39  1  0
 19 40  1  0
 19 41  1  0
 21 42  1  0
 22 43  1  0
 23 44  1  0
 24 45  1  0
 25 46  1  0
M  ISO  8  26  14  29  13  30   5  31  13  32  13  34  14  35  14  36  14
M  ISO  8  37  14  38   8  39   8  40   8  41   8  42  14  43  14  44  14
M  ISO  2  45  14  46  14
M  END
>  <minimizedAffinity>  (1) 
-4.93834591

>  <minimizedRMSD>  (1) 
5.28046083

$$$$
