
     RDKit          3D

 31 33  0  0  0  0  0  0  0  0999 V2000
   36.9300   30.6550   50.0470 C   0  0  0  0  0  0  0  0  0  0  0  0
   37.7560   31.4300   49.0990 C   0  0  0  0  0  0  0  0  0  0  0  0
   38.2770   32.6650   49.4890 C   0  0  0  0  0  0  0  0  0  0  0  0
   38.9850   33.1800   48.4380 C   0  0  0  0  0  0  0  0  0  0  0  0
   38.8960   32.2890   47.4470 N   0  0  0  0  0  0  0  0  0  0  0  0
   38.1740   31.2710   47.8520 N   0  0  0  0  0  0  0  0  0  0  0  0
   39.3680   32.1490   46.0940 C   0  0  0  0  0  0  0  0  0  0  0  0
   40.3160   31.1940   45.7760 C   0  0  0  0  0  0  0  0  0  0  0  0
   40.7440   31.0920   44.4500 C   0  0  0  0  0  0  0  0  0  0  0  0
   40.2280   31.9240   43.5030 N   0  0  0  0  0  0  0  0  0  0  0  0
   39.2940   32.8600   43.8360 C   0  0  0  0  0  0  0  0  0  0  0  0
   38.8780   32.9610   45.1120 N   0  0  0  0  0  0  0  0  0  0  0  0
   36.5880   29.2980   49.5870 C   0  0  0  0  0  0  0  0  0  0  0  0
   35.3360   29.0640   48.9250 C   0  0  0  0  0  0  0  0  0  0  0  0
   35.0640   29.6570   47.7240 C   0  0  0  0  0  0  0  0  0  0  0  0
   33.8410   29.4350   47.0640 C   0  0  0  0  0  0  0  0  0  0  0  0
   32.9570   28.5850   47.7160 N   0  0  0  0  0  0  0  0  0  0  0  0
   33.2690   28.0150   48.9130 C   0  0  0  0  0  0  0  0  0  0  0  0
   34.4570   28.2630   49.5010 N   0  0  0  0  0  0  0  0  0  0  0  0
   37.4829   30.5682   50.9940 H   0  0  0  0  0  0  0  0  0  0  0  0
   35.9801   31.1993   50.1537 H   0  0  0  0  0  0  0  0  0  0  0  0
   38.1417   33.1414   50.4712 H   0  0  0  0  0  0  0  0  0  0  0  0
   39.5222   34.1396   48.4138 H   0  0  0  0  0  0  0  0  0  0  0  0
   40.7246   30.5286   46.5507 H   0  0  0  0  0  0  0  0  0  0  0  0
   41.4971   30.3404   44.1710 H   0  0  0  0  0  0  0  0  0  0  0  0
   38.8827   33.5290   43.0658 H   0  0  0  0  0  0  0  0  0  0  0  0
   37.3801   28.9891   48.8890 H   0  0  0  0  0  0  0  0  0  0  0  0
   36.4924   28.7278   50.5228 H   0  0  0  0  0  0  0  0  0  0  0  0
   35.8135   30.3189   47.2656 H   0  0  0  0  0  0  0  0  0  0  0  0
   33.6015   29.9028   46.0976 H   0  0  0  0  0  0  0  0  0  0  0  0
   32.5461   27.3470   49.4041 H   0  0  0  0  0  0  0  0  0  0  0  0
  2  3  1  0
  2  1  1  0
  4  3  2  0
  5  6  1  0
  5  4  1  0
  6  2  2  0
  7  5  1  0
  8  7  2  0
  9  8  1  0
 10 11  1  0
 10  9  2  0
 11 12  2  0
 12  7  1  0
 13  1  1  0
 14 19  1  0
 14 13  1  0
 15 14  2  0
 16 17  2  0
 16 15  1  0
 17 18  1  0
 18 19  2  0
  1 20  1  0
  1 21  1  0
  3 22  1  0
  4 23  1  0
  8 24  1  0
  9 25  1  0
 11 26  1  0
 13 27  1  0
 13 28  1  0
 15 29  1  0
 16 30  1  0
 18 31  1  0
M  ISO  8  20   8  21   8  22  14  23  14  24  14  25  14  26  14  27   8
M  ISO  4  28   8  29  14  30  14  31  14
M  END
>  <minimizedAffinity>  (1) 
-5.78800774

>  <minimizedRMSD>  (1) 
6.98817873

$$$$
