
     RDKit          3D

 30 32  0  0  0  0  0  0  0  0999 V2000
   36.6020   31.3870   50.2360 C   0  0  0  0  0  0  0  0  0  0  0  0
   37.5530   31.6970   49.1690 C   0  0  0  0  0  0  0  0  0  0  0  0
   38.3000   32.8520   49.2270 C   0  0  0  0  0  0  0  0  0  0  0  0
   39.0780   32.9310   48.1010 C   0  0  0  0  0  0  0  0  0  0  0  0
   38.8040   31.8440   47.3800 N   0  0  0  0  0  0  0  0  0  0  0  0
   37.8870   31.1130   48.0370 N   0  0  0  0  0  0  0  0  0  0  0  0
   39.3940   31.4890   46.0850 C   0  0  0  0  0  0  0  0  0  0  0  0
   38.9840   30.4070   45.3370 C   0  0  0  0  0  0  0  0  0  0  0  0
   39.5650   30.1310   44.1530 C   0  0  0  0  0  0  0  0  0  0  0  0
   40.6250   30.9750   43.6650 C   0  0  0  0  0  0  0  0  0  0  0  0
   40.7340   32.2510   45.0890 S   0  0  0  0  0  0  0  0  0  0  0  0
   36.1720   29.9920   50.3230 C   0  0  0  0  0  0  0  0  0  0  0  0
   35.2290   29.4850   49.3670 C   0  0  0  0  0  0  0  0  0  0  0  0
   34.6460   30.2850   48.4290 C   0  0  0  0  0  0  0  0  0  0  0  0
   33.7260   29.7900   47.4950 C   0  0  0  0  0  0  0  0  0  0  0  0
   33.4670   28.4360   47.6100 N   0  0  0  0  0  0  0  0  0  0  0  0
   34.0500   27.6530   48.5430 C   0  0  0  0  0  0  0  0  0  0  0  0
   34.9410   28.1970   49.4270 N   0  0  0  0  0  0  0  0  0  0  0  0
   35.7066   32.0066   50.0799 H   0  0  0  0  0  0  0  0  0  0  0  0
   37.1326   31.5941   51.1770 H   0  0  0  0  0  0  0  0  0  0  0  0
   38.2765   33.5899   50.0425 H   0  0  0  0  0  0  0  0  0  0  0  0
   39.7870   33.7318   47.8438 H   0  0  0  0  0  0  0  0  0  0  0  0
   38.1746   29.7623   45.7100 H   0  0  0  0  0  0  0  0  0  0  0  0
   39.2313   29.2653   43.5621 H   0  0  0  0  0  0  0  0  0  0  0  0
   41.2085   30.9061   42.7350 H   0  0  0  0  0  0  0  0  0  0  0  0
   37.0768   29.3719   50.2406 H   0  0  0  0  0  0  0  0  0  0  0  0
   35.6247   29.9479   51.2762 H   0  0  0  0  0  0  0  0  0  0  0  0
   34.9063   31.3535   48.4048 H   0  0  0  0  0  0  0  0  0  0  0  0
   33.2495   30.4252   46.7338 H   0  0  0  0  0  0  0  0  0  0  0  0
   33.8091   26.5808   48.5920 H   0  0  0  0  0  0  0  0  0  0  0  0
  1 12  1  0
  2  3  1  0
  2  1  1  0
  4  3  2  0
  5  6  1  0
  5  4  1  0
  6  2  2  0
  7  5  1  0
  8  7  2  0
  9  8  1  0
 10  9  2  0
 10 11  1  0
 11  7  1  0
 13 18  1  0
 13 12  1  0
 14 13  2  0
 15 16  2  0
 15 14  1  0
 16 17  1  0
 17 18  2  0
  1 19  1  0
  1 20  1  0
  3 21  1  0
  4 22  1  0
  8 23  1  0
  9 24  1  0
 10 25  1  0
 12 26  1  0
 12 27  1  0
 14 28  1  0
 15 29  1  0
 17 30  1  0
M  ISO  8  19   8  20   8  21  14  22  14  23  14  24  14  25  14  26   8
M  ISO  4  27   8  28  14  29  14  30  14
M  END
>  <minimizedAffinity>  (1) 
-5.44457006

>  <minimizedRMSD>  (1) 
6.83524227

$$$$
