
     RDKit          3D

 26 27  0  0  0  0  0  0  0  0999 V2000
   38.8250   32.2450   47.2820 C   0  0  0  0  0  0  0  0  0  0  0  0
   38.0750   31.3320   48.1590 C   0  0  0  0  0  0  0  0  0  0  0  0
   36.9690   30.6380   47.6650 C   0  0  0  0  0  0  0  0  0  0  0  0
   36.4520   29.8800   48.6770 C   0  0  0  0  0  0  0  0  0  0  0  0
   37.2150   30.1000   49.7510 N   0  0  0  0  0  0  0  0  0  0  0  0
   38.1590   30.9540   49.4220 N   0  0  0  0  0  0  0  0  0  0  0  0
   37.0820   29.5250   51.0920 C   0  0  0  0  0  0  0  0  0  0  0  0
   37.8560   28.3910   51.2050 F   0  0  0  0  0  0  0  0  0  0  0  0
   35.7740   29.1950   51.3790 F   0  0  0  0  0  0  0  0  0  0  0  0
   37.5260   30.4160   52.0580 F   0  0  0  0  0  0  0  0  0  0  0  0
   39.8440   31.5980   46.4410 C   0  0  0  0  0  0  0  0  0  0  0  0
   39.8090   31.7660   45.0160 C   0  0  0  0  0  0  0  0  0  0  0  0
   39.2390   32.8770   44.4580 C   0  0  0  0  0  0  0  0  0  0  0  0
   39.2000   33.0460   43.0640 C   0  0  0  0  0  0  0  0  0  0  0  0
   39.7710   32.0210   42.3230 N   0  0  0  0  0  0  0  0  0  0  0  0
   40.3250   30.9380   42.9110 C   0  0  0  0  0  0  0  0  0  0  0  0
   40.3390   30.8210   44.2600 N   0  0  0  0  0  0  0  0  0  0  0  0
   38.1063   32.7504   46.6202 H   0  0  0  0  0  0  0  0  0  0  0  0
   39.3658   32.9357   47.9457 H   0  0  0  0  0  0  0  0  0  0  0  0
   36.5806   30.6922   46.6373 H   0  0  0  0  0  0  0  0  0  0  0  0
   35.5765   29.2166   48.6187 H   0  0  0  0  0  0  0  0  0  0  0  0
   40.8210   31.9719   46.7812 H   0  0  0  0  0  0  0  0  0  0  0  0
   39.6394   30.5255   46.5748 H   0  0  0  0  0  0  0  0  0  0  0  0
   38.8049   33.6492   45.1101 H   0  0  0  0  0  0  0  0  0  0  0  0
   38.7476   33.9306   42.5919 H   0  0  0  0  0  0  0  0  0  0  0  0
   40.7678   30.1457   42.2895 H   0  0  0  0  0  0  0  0  0  0  0  0
  1  2  1  0
  2  6  2  0
  3  2  1  0
  3  4  2  0
  4  5  1  0
  5  7  1  0
  6  5  1  0
  7  8  1  0
  7  9  1  0
  7 10  1  0
 11  1  1  0
 12 11  1  0
 13 12  2  0
 14 13  1  0
 15 16  1  0
 15 14  2  0
 16 17  2  0
 17 12  1  0
  1 18  1  0
  1 19  1  0
  3 20  1  0
  4 21  1  0
 11 22  1  0
 11 23  1  0
 13 24  1  0
 14 25  1  0
 16 26  1  0
M  ISO  8  18   8  19   8  20  14  21  14  22   8  23   8  24  14  25  14
M  ISO  1  26  14
M  END
>  <minimizedAffinity>  (1) 
-5.38391399

>  <minimizedRMSD>  (1) 
2.39355993

$$$$
