
     RDKit          3D

 29 30  0  0  0  0  0  0  0  0999 V2000
   38.7370   32.4070   47.3520 C   0  0  0  0  0  0  0  0  0  0  0  0
   38.0120   31.4330   48.2010 C   0  0  0  0  0  0  0  0  0  0  0  0
   36.9540   30.6770   47.6730 C   0  0  0  0  0  0  0  0  0  0  0  0
   36.4770   29.8730   48.6670 C   0  0  0  0  0  0  0  0  0  0  0  0
   37.2070   30.1230   49.7490 N   0  0  0  0  0  0  0  0  0  0  0  0
   38.1020   31.0390   49.4590 N   0  0  0  0  0  0  0  0  0  0  0  0
   37.0950   29.5160   51.0880 C   0  0  0  0  0  0  0  0  0  0  0  0
   37.8600   28.3860   51.1600 F   0  0  0  0  0  0  0  0  0  0  0  0
   35.7850   29.1900   51.3860 F   0  0  0  0  0  0  0  0  0  0  0  0
   37.5590   30.3900   52.0650 F   0  0  0  0  0  0  0  0  0  0  0  0
   39.8430   31.8320   46.5810 C   0  0  0  0  0  0  0  0  0  0  0  0
   39.8410   31.8640   45.1530 C   0  0  0  0  0  0  0  0  0  0  0  0
   39.2900   32.9090   44.4830 C   0  0  0  0  0  0  0  0  0  0  0  0
   39.2650   32.9850   43.0880 C   0  0  0  0  0  0  0  0  0  0  0  0
   39.8510   31.9030   42.4460 N   0  0  0  0  0  0  0  0  0  0  0  0
   40.3890   30.8830   43.1310 C   0  0  0  0  0  0  0  0  0  0  0  0
   40.3800   30.8710   44.4850 N   0  0  0  0  0  0  0  0  0  0  0  0
   40.9870   29.7820   42.3270 C   0  0  0  0  0  0  0  0  0  0  0  0
   38.0189   32.8496   46.6460 H   0  0  0  0  0  0  0  0  0  0  0  0
   39.1807   33.1482   48.0330 H   0  0  0  0  0  0  0  0  0  0  0  0
   36.5763   30.7242   46.6410 H   0  0  0  0  0  0  0  0  0  0  0  0
   35.6471   29.1553   48.5879 H   0  0  0  0  0  0  0  0  0  0  0  0
   40.7546   32.3561   46.9040 H   0  0  0  0  0  0  0  0  0  0  0  0
   39.7553   30.7572   46.7982 H   0  0  0  0  0  0  0  0  0  0  0  0
   38.8445   33.7305   45.0632 H   0  0  0  0  0  0  0  0  0  0  0  0
   38.8186   33.8308   42.5446 H   0  0  0  0  0  0  0  0  0  0  0  0
   41.4016   29.0186   43.0018 H   0  0  0  0  0  0  0  0  0  0  0  0
   40.2114   29.3282   41.6926 H   0  0  0  0  0  0  0  0  0  0  0  0
   41.7899   30.1856   41.6926 H   0  0  0  0  0  0  0  0  0  0  0  0
  1  2  1  0
  2  6  2  0
  3  2  1  0
  3  4  2  0
  4  5  1  0
  5  7  1  0
  6  5  1  0
  7  8  1  0
  7  9  1  0
  7 10  1  0
 11  1  1  0
 12 11  1  0
 13 12  2  0
 14 13  1  0
 15 14  2  0
 15 16  1  0
 16 17  2  0
 17 12  1  0
 18 16  1  0
  1 19  1  0
  1 20  1  0
  3 21  1  0
  4 22  1  0
 11 23  1  0
 11 24  1  0
 13 25  1  0
 14 26  1  0
 18 27  1  0
 18 28  1  0
 18 29  1  0
M  ISO  8  19   8  20   8  21  14  22  14  23   8  24   8  25  14  26  14
M  ISO  3  27   8  28   8  29   8
M  END
>  <minimizedAffinity>  (1) 
-5.63641405

>  <minimizedRMSD>  (1) 
0.164633498

$$$$
