
     RDKit          3D

 26 27  0  0  0  0  0  0  0  0999 V2000
   36.3510   30.4940   46.3940 Cl  0  0  0  0  0  0  0  0  0  0  0  0
   36.7910   30.5470   48.0970 C   0  0  0  0  0  0  0  0  0  0  0  0
   38.0190   31.0900   48.3880 C   0  0  0  0  0  0  0  0  0  0  0  0
   38.3930   31.1440   49.7360 C   0  0  0  0  0  0  0  0  0  0  0  0
   37.5300   30.6610   50.6960 C   0  0  0  0  0  0  0  0  0  0  0  0
   36.3290   30.1370   50.3280 C   0  0  0  0  0  0  0  0  0  0  0  0
   35.9070   30.0580   49.0260 C   0  0  0  0  0  0  0  0  0  0  0  0
   40.0080   33.4080   46.3890 C   0  0  0  0  0  0  0  0  0  0  0  0
   40.5670   32.6030   45.3810 C   0  0  0  0  0  0  0  0  0  0  0  0
   40.2440   31.2480   45.4050 C   0  0  0  0  0  0  0  0  0  0  0  0
   39.4200   30.7830   46.3830 N   0  0  0  0  0  0  0  0  0  0  0  0
   38.9030   31.5920   47.3340 C   0  0  0  0  0  0  0  0  0  0  0  0
   39.2000   32.9060   47.3340 N   0  0  0  0  0  0  0  0  0  0  0  0
   34.5980   29.4870   48.6040 C   0  0  0  0  0  0  0  0  0  0  0  0
   34.4250   28.0450   49.0450 C   0  0  0  0  0  0  0  0  0  0  0  0
   39.3658   31.5676   50.0261 H   0  0  0  0  0  0  0  0  0  0  0  0
   37.8117   30.6990   51.7587 H   0  0  0  0  0  0  0  0  0  0  0  0
   35.6623   29.7572   51.1162 H   0  0  0  0  0  0  0  0  0  0  0  0
   40.2407   34.4830   46.4029 H   0  0  0  0  0  0  0  0  0  0  0  0
   41.2286   33.0234   44.6093 H   0  0  0  0  0  0  0  0  0  0  0  0
   40.6491   30.5641   44.6446 H   0  0  0  0  0  0  0  0  0  0  0  0
   33.7910   30.0903   49.0453 H   0  0  0  0  0  0  0  0  0  0  0  0
   34.5626   29.5074   47.5048 H   0  0  0  0  0  0  0  0  0  0  0  0
   34.4191   27.9958   50.1439 H   0  0  0  0  0  0  0  0  0  0  0  0
   33.4735   27.6540   48.6554 H   0  0  0  0  0  0  0  0  0  0  0  0
   35.2570   27.4401   48.6554 H   0  0  0  0  0  0  0  0  0  0  0  0
  1  2  1  0
  2  3  2  0
  2  7  1  0
  3  4  1  0
  4  5  2  0
  6  5  1  0
  7  6  2  0
  8 13  2  0
  9 10  2  0
  9  8  1  0
 10 11  1  0
 11 12  2  0
 12  3  1  0
 13 12  1  0
 14  7  1  0
 14 15  1  0
  4 16  1  0
  5 17  1  0
  6 18  1  0
  8 19  1  0
  9 20  1  0
 10 21  1  0
 14 22  1  0
 14 23  1  0
 15 24  1  0
 15 25  1  0
 15 26  1  0
M  ISO  8  16  14  17  14  18  14  19  14  20  14  21  14  22   8  23   8
M  ISO  3  24   8  25   8  26   8
M  END
>  <minimizedAffinity>  (1) 
-5.83536863

>  <minimizedRMSD>  (1) 
0.534142911

$$$$
