
     RDKit          3D

 36 38  0  0  0  0  0  0  0  0999 V2000
   36.3330   30.4920   46.3780 Cl  0  0  0  0  0  0  0  0  0  0  0  0
   36.7810   30.5940   48.0750 C   0  0  0  0  0  0  0  0  0  0  0  0
   38.0140   31.1250   48.3360 C   0  0  0  0  0  0  0  0  0  0  0  0
   38.4070   31.2220   49.6770 C   0  0  0  0  0  0  0  0  0  0  0  0
   37.5400   30.7830   50.6590 C   0  0  0  0  0  0  0  0  0  0  0  0
   36.3160   30.2610   50.3060 C   0  0  0  0  0  0  0  0  0  0  0  0
   35.8850   30.1440   49.0170 C   0  0  0  0  0  0  0  0  0  0  0  0
   40.0400   33.3160   46.2430 C   0  0  0  0  0  0  0  0  0  0  0  0
   40.5830   32.4760   45.2700 C   0  0  0  0  0  0  0  0  0  0  0  0
   40.2340   31.1260   45.3490 C   0  0  0  0  0  0  0  0  0  0  0  0
   39.4020   30.7160   46.3510 N   0  0  0  0  0  0  0  0  0  0  0  0
   38.9060   31.5810   47.2680 C   0  0  0  0  0  0  0  0  0  0  0  0
   39.2260   32.8850   47.2130 N   0  0  0  0  0  0  0  0  0  0  0  0
   34.5520   29.5730   48.6790 C   0  0  0  0  0  0  0  0  0  0  0  0
   34.1710   30.0180   47.2970 C   0  0  0  0  0  0  0  0  0  0  0  0
   32.9100   29.2510   46.9410 C   0  0  0  0  0  0  0  0  0  0  0  0
   33.4210   27.8480   46.6470 C   0  0  0  0  0  0  0  0  0  0  0  0
   34.1240   27.2370   47.8010 C   0  0  0  0  0  0  0  0  0  0  0  0
   34.4950   28.1260   48.9310 C   0  0  0  0  0  0  0  0  0  0  0  0
   39.3888   31.6404   49.9436 H   0  0  0  0  0  0  0  0  0  0  0  0
   37.8266   30.8503   51.7189 H   0  0  0  0  0  0  0  0  0  0  0  0
   35.6472   29.9186   51.1094 H   0  0  0  0  0  0  0  0  0  0  0  0
   40.2940   34.3858   46.2107 H   0  0  0  0  0  0  0  0  0  0  0  0
   41.2503   32.8568   44.4828 H   0  0  0  0  0  0  0  0  0  0  0  0
   40.6232   30.4045   44.6156 H   0  0  0  0  0  0  0  0  0  0  0  0
   33.7754   29.9654   49.3520 H   0  0  0  0  0  0  0  0  0  0  0  0
   33.9759   31.1005   47.2846 H   0  0  0  0  0  0  0  0  0  0  0  0
   34.9777   29.8229   46.5750 H   0  0  0  0  0  0  0  0  0  0  0  0
   32.2028   29.2437   47.7835 H   0  0  0  0  0  0  0  0  0  0  0  0
   32.3622   29.6941   46.0962 H   0  0  0  0  0  0  0  0  0  0  0  0
   32.5647   27.2112   46.3803 H   0  0  0  0  0  0  0  0  0  0  0  0
   34.1451   27.9261   45.8226 H   0  0  0  0  0  0  0  0  0  0  0  0
   33.4713   26.4484   48.2036 H   0  0  0  0  0  0  0  0  0  0  0  0
   35.0846   26.8918   47.3911 H   0  0  0  0  0  0  0  0  0  0  0  0
   35.4910   27.8148   49.2790 H   0  0  0  0  0  0  0  0  0  0  0  0
   33.6772   28.0049   49.6566 H   0  0  0  0  0  0  0  0  0  0  0  0
  1  2  1  0
  2  3  2  0
  2  7  1  0
  3  4  1  0
  4  5  2  0
  6  5  1  0
  7  6  2  0
  8 13  2  0
  9 10  2  0
  9  8  1  0
 10 11  1  0
 11 12  2  0
 12  3  1  0
 13 12  1  0
 14 19  1  0
 14  7  1  0
 15 14  1  0
 16 15  1  0
 17 16  1  0
 17 18  1  0
 18 19  1  0
  4 20  1  0
  5 21  1  0
  6 22  1  0
  8 23  1  0
  9 24  1  0
 10 25  1  0
 14 26  1  0
 15 27  1  0
 15 28  1  0
 16 29  1  0
 16 30  1  0
 17 31  1  0
 17 32  1  0
 18 33  1  0
 18 34  1  0
 19 35  1  0
 19 36  1  0
M  ISO  8  20  14  21  14  22  14  23  14  24  14  25  14  26  13  27  13
M  ISO  8  28  13  29  13  30  13  31  13  32  13  33  13  34  13  35  13
M  ISO  1  36  13
M  END
>  <minimizedAffinity>  (1) 
-6.79282093

>  <minimizedRMSD>  (1) 
0.881133556

$$$$
