
     RDKit          3D

 37 39  0  0  1  0  0  0  0  0999 V2000
   36.8100   30.4040   46.5990 Cl  0  0  0  0  0  0  0  0  0  0  0  0
   37.3600   31.4730   47.8620 C   0  0  0  0  0  0  0  0  0  0  0  0
   38.4720   32.2000   47.5320 C   0  0  0  0  0  0  0  0  0  0  0  0
   38.9400   33.1130   48.4710 C   0  0  0  0  0  0  0  0  0  0  0  0
   38.2620   33.2340   49.6720 C   0  0  0  0  0  0  0  0  0  0  0  0
   37.1450   32.4530   49.9120 C   0  0  0  0  0  0  0  0  0  0  0  0
   36.6530   31.5500   49.0270 C   0  0  0  0  0  0  0  0  0  0  0  0
   35.4950   30.6570   49.3000 C   0  0  1  0  0  0  0  0  0  0  0  0
   34.7930   30.3210   48.0810 C   0  0  0  0  0  0  0  0  0  0  0  0
   33.6860   29.3870   48.5930 C   0  0  0  0  0  0  0  0  0  0  0  0
   34.4420   28.0690   48.8240 C   0  0  0  0  0  0  0  0  0  0  0  0
   35.5420   28.1870   49.7830 C   0  0  0  0  0  0  0  0  0  0  0  0
   35.8950   29.5370   50.2400 C   0  0  1  0  0  0  0  0  0  0  0  0
   37.7090   29.6170   50.4390 S   0  0  0  0  0  0  0  0  0  0  0  0
   39.2090   32.6530   43.9840 C   0  0  0  0  0  0  0  0  0  0  0  0
   40.2850   31.8210   43.7280 C   0  0  0  0  0  0  0  0  0  0  0  0
   40.7700   31.0880   44.8210 C   0  0  0  0  0  0  0  0  0  0  0  0
   40.1710   31.2310   46.0440 N   0  0  0  0  0  0  0  0  0  0  0  0
   39.1300   32.0580   46.2200 C   0  0  0  0  0  0  0  0  0  0  0  0
   38.6400   32.7790   45.1860 N   0  0  0  0  0  0  0  0  0  0  0  0
   39.8297   33.7258   48.2639 H   0  0  0  0  0  0  0  0  0  0  0  0
   38.6099   33.9483   50.4327 H   0  0  0  0  0  0  0  0  0  0  0  0
   36.6266   32.5711   50.8750 H   0  0  0  0  0  0  0  0  0  0  0  0
   34.7124   31.1781   49.8709 H   0  0  0  0  0  0  0  0  0  0  0  0
   35.4537   29.8042   47.3694 H   0  0  0  0  0  0  0  0  0  0  0  0
   34.4146   31.1965   47.5330 H   0  0  0  0  0  0  0  0  0  0  0  0
   33.2495   29.7642   49.5296 H   0  0  0  0  0  0  0  0  0  0  0  0
   32.8385   29.2901   47.8985 H   0  0  0  0  0  0  0  0  0  0  0  0
   33.7297   27.3206   49.2016 H   0  0  0  0  0  0  0  0  0  0  0  0
   34.8833   27.7759   47.8600 H   0  0  0  0  0  0  0  0  0  0  0  0
   35.2705   27.5979   50.6714 H   0  0  0  0  0  0  0  0  0  0  0  0
   36.4299   27.8317   49.2395 H   0  0  0  0  0  0  0  0  0  0  0  0
   35.3386   29.6927   51.1761 H   0  0  0  0  0  0  0  0  0  0  0  0
   38.0219   29.6308   51.7727 H   0  0  0  0  0  0  0  0  0  0  0  0
   38.7995   33.2435   43.1512 H   0  0  0  0  0  0  0  0  0  0  0  0
   40.7332   31.7395   42.7268 H   0  0  0  0  0  0  0  0  0  0  0  0
   41.6232   30.4049   44.6970 H   0  0  0  0  0  0  0  0  0  0  0  0
  1  2  1  0
  2  7  2  0
  3  2  1  0
  3  4  2  0
  4  5  1  0
  5  6  2  0
  7  8  1  0
  7  6  1  0
  8 13  1  0
  9 10  1  0
  9  8  1  0
 10 11  1  0
 11 12  1  0
 12 13  1  0
 13 14  1  0
 15 20  2  0
 16 15  1  0
 16 17  2  0
 17 18  1  0
 18 19  2  0
 19  3  1  0
 20 19  1  0
  4 21  1  0
  5 22  1  0
  6 23  1  0
  8 24  1  1
  9 25  1  0
  9 26  1  0
 10 27  1  0
 10 28  1  0
 11 29  1  0
 11 30  1  0
 12 31  1  0
 12 32  1  0
 13 33  1  1
 14 34  1  0
 15 35  1  0
 16 36  1  0
 17 37  1  0
M  ISO  8  21  14  22  14  23  14  24  13  25  13  26  13  27  13  28  13
M  ISO  8  29  13  30  13  31  13  32  13  33  13  34  11  35  14  36  14
M  ISO  1  37  14
M  END
>  <minimizedAffinity>  (1) 
-6.55441713

>  <minimizedRMSD>  (1) 
1.91285729

$$$$
