
     RDKit          3D

 23 24  0  0  0  0  0  0  0  0999 V2000
   37.6760   30.7540   49.7140 C   0  0  0  0  0  0  0  0  0  0  0  0
   38.1370   32.0140   50.0890 C   0  0  0  0  0  0  0  0  0  0  0  0
   38.6190   32.8790   49.1090 C   0  0  0  0  0  0  0  0  0  0  0  0
   38.6110   32.4340   47.8240 N   0  0  0  0  0  0  0  0  0  0  0  0
   38.1580   31.2050   47.4840 C   0  0  0  0  0  0  0  0  0  0  0  0
   37.6990   30.3880   48.4350 N   0  0  0  0  0  0  0  0  0  0  0  0
   40.5680   30.7550   46.0860 F   0  0  0  0  0  0  0  0  0  0  0  0
   39.3840   30.5620   45.4610 C   0  0  0  0  0  0  0  0  0  0  0  0
   38.1660   30.7610   46.0780 C   0  0  0  0  0  0  0  0  0  0  0  0
   36.9500   30.5580   45.4140 C   0  0  0  0  0  0  0  0  0  0  0  0
   36.9920   30.1430   44.0970 C   0  0  0  0  0  0  0  0  0  0  0  0
   38.2250   29.9520   43.5070 C   0  0  0  0  0  0  0  0  0  0  0  0
   39.4380   30.1430   44.1290 C   0  0  0  0  0  0  0  0  0  0  0  0
   37.1620   29.8360   50.7810 C   0  0  0  0  0  0  0  0  0  0  0  0
   35.7740   29.8880   50.8040 F   0  0  0  0  0  0  0  0  0  0  0  0
   37.6490   28.5920   50.5370 F   0  0  0  0  0  0  0  0  0  0  0  0
   37.6070   30.3400   52.0020 F   0  0  0  0  0  0  0  0  0  0  0  0
   38.1207   32.3219   51.1449 H   0  0  0  0  0  0  0  0  0  0  0  0
   38.9912   33.8821   49.3645 H   0  0  0  0  0  0  0  0  0  0  0  0
   35.9904   30.7239   45.9255 H   0  0  0  0  0  0  0  0  0  0  0  0
   36.0645   29.9689   43.5318 H   0  0  0  0  0  0  0  0  0  0  0  0
   38.2395   29.6214   42.4580 H   0  0  0  0  0  0  0  0  0  0  0  0
   40.3926   29.9758   43.6087 H   0  0  0  0  0  0  0  0  0  0  0  0
  1  2  2  0
  1 14  1  0
  3  2  1  0
  4  3  2  0
  5  4  1  0
  5  6  2  0
  6  1  1  0
  8  9  2  0
  8  7  1  0
  9  5  1  0
 10  9  1  0
 11 10  2  0
 12 11  1  0
 12 13  2  0
 13  8  1  0
 14 15  1  0
 14 17  1  0
 16 14  1  0
  2 18  1  0
  3 19  1  0
 10 20  1  0
 11 21  1  0
 12 22  1  0
 13 23  1  0
M  ISO  6  18  14  19  14  20  14  21  14  22  14  23  14
M  END
>  <minimizedAffinity>  (1) 
-5.91983938

>  <minimizedRMSD>  (1) 
2.06411242

$$$$
