
     RDKit          3D

 20 21  0  0  0  0  0  0  0  0999 V2000
   38.1880   31.7810   49.1880 C   0  0  0  0  0  0  0  0  0  0  0  0
   38.5610   32.9580   49.8290 C   0  0  0  0  0  0  0  0  0  0  0  0
   39.2640   33.9170   49.0910 C   0  0  0  0  0  0  0  0  0  0  0  0
   39.5420   33.6310   47.7710 N   0  0  0  0  0  0  0  0  0  0  0  0
   39.1620   32.4830   47.1950 C   0  0  0  0  0  0  0  0  0  0  0  0
   38.4830   31.5580   47.9090 N   0  0  0  0  0  0  0  0  0  0  0  0
   37.4300   30.7430   49.9760 C   0  0  0  0  0  0  0  0  0  0  0  0
   37.3260   29.5800   49.2390 F   0  0  0  0  0  0  0  0  0  0  0  0
   38.0360   30.6000   51.1830 F   0  0  0  0  0  0  0  0  0  0  0  0
   36.1240   31.2250   50.1150 F   0  0  0  0  0  0  0  0  0  0  0  0
   39.4880   32.2240   45.7600 C   0  0  0  0  0  0  0  0  0  0  0  0
   39.9300   33.3340   44.8820 C   0  0  0  0  0  0  0  0  0  0  0  0
   40.9160   32.2440   45.3120 C   0  0  0  0  0  0  0  0  0  0  0  0
   38.3104   33.1300   50.8862 H   0  0  0  0  0  0  0  0  0  0  0  0
   39.5835   34.8653   49.5477 H   0  0  0  0  0  0  0  0  0  0  0  0
   38.6732   31.4870   45.7057 H   0  0  0  0  0  0  0  0  0  0  0  0
   40.0237   34.3528   45.2861 H   0  0  0  0  0  0  0  0  0  0  0  0
   39.5956   33.7486   43.9195 H   0  0  0  0  0  0  0  0  0  0  0  0
   41.2777   31.5051   44.5818 H   0  0  0  0  0  0  0  0  0  0  0  0
   41.8964   32.2234   45.8105 H   0  0  0  0  0  0  0  0  0  0  0  0
  1  2  2  0
  1  7  1  0
  3  2  1  0
  4  3  2  0
  5  4  1  0
  5  6  2  0
  6  1  1  0
  7 10  1  0
  7  9  1  0
  8  7  1  0
 11  5  1  0
 12 13  1  0
 12 11  1  0
 13 11  1  0
  2 14  1  0
  3 15  1  0
 11 16  1  0
 12 17  1  0
 12 18  1  0
 13 19  1  0
 13 20  1  0
M  ISO  7  14  14  15  14  16  13  17  13  18  13  19  13  20  13
M  END
>  <minimizedAffinity>  (1) 
-5.08735323

>  <minimizedRMSD>  (1) 
3.00362039

$$$$
