
     RDKit          3D

 20 21  0  0  0  0  0  0  0  0999 V2000
   37.4060   30.2980   50.0100 C   0  0  0  0  0  0  0  0  0  0  0  0
   38.2960   31.3670   50.1570 C   0  0  0  0  0  0  0  0  0  0  0  0
   38.5470   32.1650   49.0190 C   0  0  0  0  0  0  0  0  0  0  0  0
   37.9070   31.8360   47.8630 N   0  0  0  0  0  0  0  0  0  0  0  0
   37.0600   30.7980   47.7750 C   0  0  0  0  0  0  0  0  0  0  0  0
   36.7980   30.0160   48.8430 N   0  0  0  0  0  0  0  0  0  0  0  0
   36.3920   30.4770   46.5150 C   0  0  0  0  0  0  0  0  0  0  0  0
   36.8840   30.6300   45.2340 C   0  0  0  0  0  0  0  0  0  0  0  0
   35.9990   30.2340   44.3010 N   0  0  0  0  0  0  0  0  0  0  0  0
   34.9160   29.8170   44.9910 C   0  0  0  0  0  0  0  0  0  0  0  0
   35.1430   29.9590   46.3160 N   0  0  0  0  0  0  0  0  0  0  0  0
   37.1390   29.4490   51.2240 C   0  0  0  0  0  0  0  0  0  0  0  0
   35.7810   29.1890   51.3210 F   0  0  0  0  0  0  0  0  0  0  0  0
   37.8910   28.3110   51.1080 F   0  0  0  0  0  0  0  0  0  0  0  0
   37.4980   30.1850   52.3370 F   0  0  0  0  0  0  0  0  0  0  0  0
   38.7815   31.5780   51.1213 H   0  0  0  0  0  0  0  0  0  0  0  0
   39.2351   33.0219   49.0649 H   0  0  0  0  0  0  0  0  0  0  0  0
   37.8828   31.0290   45.0032 H   0  0  0  0  0  0  0  0  0  0  0  0
   36.1216   30.2464   43.2784 H   0  0  0  0  0  0  0  0  0  0  0  0
   33.9916   29.4226   44.5439 H   0  0  0  0  0  0  0  0  0  0  0  0
  1  2  2  0
  1 12  1  0
  3  2  1  0
  4  3  2  0
  5  4  1  0
  5  6  2  0
  6  1  1  0
  7  5  1  0
  8  7  2  0
  9 10  1  0
  9  8  1  0
 10 11  2  0
 11  7  1  0
 12 13  1  0
 12 15  1  0
 14 12  1  0
  2 16  1  0
  3 17  1  0
  8 18  1  0
  9 19  1  0
 10 20  1  0
M  ISO  5  16  14  17  14  18  14  19   9  20  14
M  END
>  <minimizedAffinity>  (1) 
-5.00071907

>  <minimizedRMSD>  (1) 
0.250879675

$$$$
