
     RDKit          3D

 28 29  0  0  0  0  0  0  0  0999 V2000
   36.7120   31.1000   49.0880 C   0  0  0  0  0  0  0  0  0  0  0  0
   37.0620   32.1630   49.9390 C   0  0  0  0  0  0  0  0  0  0  0  0
   37.9890   33.1000   49.4680 C   0  0  0  0  0  0  0  0  0  0  0  0
   38.4910   32.9160   48.2110 N   0  0  0  0  0  0  0  0  0  0  0  0
   38.1300   31.8830   47.4240 C   0  0  0  0  0  0  0  0  0  0  0  0
   37.2420   30.9810   47.8710 N   0  0  0  0  0  0  0  0  0  0  0  0
   38.7130   31.7820   46.1290 N   0  0  0  0  0  0  0  0  0  0  0  0
   39.9420   31.0410   45.9640 C   0  0  0  0  0  0  0  0  0  0  0  0
   40.8280   31.9380   45.0900 C   0  0  0  0  0  0  0  0  0  0  0  0
   40.1690   31.9050   43.7270 C   0  0  0  0  0  0  0  0  0  0  0  0
   38.8830   32.6510   43.8160 C   0  0  0  0  0  0  0  0  0  0  0  0
   38.0690   32.4130   45.0320 C   0  0  0  0  0  0  0  0  0  0  0  0
   35.7200   30.0920   49.5850 C   0  0  0  0  0  0  0  0  0  0  0  0
   34.4400   30.6480   49.5710 F   0  0  0  0  0  0  0  0  0  0  0  0
   35.8460   28.9620   48.8450 F   0  0  0  0  0  0  0  0  0  0  0  0
   36.0190   29.8500   50.9280 F   0  0  0  0  0  0  0  0  0  0  0  0
   36.6215   32.2553   50.9427 H   0  0  0  0  0  0  0  0  0  0  0  0
   38.3019   33.9534   50.0875 H   0  0  0  0  0  0  0  0  0  0  0  0
   40.4179   30.8584   46.9388 H   0  0  0  0  0  0  0  0  0  0  0  0
   39.7732   30.0543   45.5079 H   0  0  0  0  0  0  0  0  0  0  0  0
   40.8532   32.9642   45.4854 H   0  0  0  0  0  0  0  0  0  0  0  0
   41.8723   31.5937   45.0593 H   0  0  0  0  0  0  0  0  0  0  0  0
   39.9759   30.8632   43.4315 H   0  0  0  0  0  0  0  0  0  0  0  0
   40.8259   32.3667   42.9751 H   0  0  0  0  0  0  0  0  0  0  0  0
   39.1150   33.7254   43.7729 H   0  0  0  0  0  0  0  0  0  0  0  0
   38.2724   32.2845   42.9776 H   0  0  0  0  0  0  0  0  0  0  0  0
   37.7012   33.3893   45.3807 H   0  0  0  0  0  0  0  0  0  0  0  0
   37.2870   31.7065   44.7168 H   0  0  0  0  0  0  0  0  0  0  0  0
  1 13  1  0
  1  2  2  0
  3  2  1  0
  4  3  2  0
  5  6  2  0
  5  4  1  0
  6  1  1  0
  7  5  1  0
  8  7  1  0
  9  8  1  0
 10 11  1  0
 10  9  1  0
 11 12  1  0
 12  7  1  0
 13 16  1  0
 14 13  1  0
 15 13  1  0
  2 17  1  0
  3 18  1  0
  8 19  1  0
  8 20  1  0
  9 21  1  0
  9 22  1  0
 10 23  1  0
 10 24  1  0
 11 25  1  0
 11 26  1  0
 12 27  1  0
 12 28  1  0
M  ISO  8  17  14  18  14  19  13  20  13  21  13  22  13  23  13  24  13
M  ISO  4  25  13  26  13  27  13  28  13
M  END
>  <minimizedAffinity>  (1) 
-6.06172752

>  <minimizedRMSD>  (1) 
3.00129724

$$$$
