
     RDKit          3D

 41 44  0  0  1  0  0  0  0  0999 V2000
   37.2680   30.5480   49.2450 C   0  0  0  0  0  0  0  0  0  0  0  0
   37.3270   31.7470   49.9910 C   0  0  0  0  0  0  0  0  0  0  0  0
   37.9140   32.8640   49.3850 C   0  0  0  0  0  0  0  0  0  0  0  0
   38.3880   32.7110   48.1130 N   0  0  0  0  0  0  0  0  0  0  0  0
   38.3110   31.5400   47.4340 C   0  0  0  0  0  0  0  0  0  0  0  0
   37.7500   30.4740   48.0150 N   0  0  0  0  0  0  0  0  0  0  0  0
   38.8430   31.5020   46.1090 N   0  0  0  0  0  0  0  0  0  0  0  0
   40.2160   31.1340   45.9220 C   0  0  0  0  0  0  0  0  0  0  0  0
   40.7700   32.1510   44.9210 C   0  0  0  0  0  0  0  0  0  0  0  0
   40.0880   31.8040   43.6130 C   0  0  0  0  0  0  0  0  0  0  0  0
   38.6460   32.1740   43.7370 C   0  0  0  0  0  0  0  0  0  0  0  0
   37.9850   31.8350   45.0280 C   0  0  1  0  0  0  0  0  0  0  0  0
   36.9730   29.8500   43.8630 C   0  0  0  0  0  0  0  0  0  0  0  0
   36.9350   30.7940   44.8540 C   0  0  0  0  0  0  0  0  0  0  0  0
   35.8300   30.7170   45.7060 C   0  0  0  0  0  0  0  0  0  0  0  0
   34.8630   29.7490   45.5350 C   0  0  0  0  0  0  0  0  0  0  0  0
   34.9460   28.8150   44.5160 C   0  0  0  0  0  0  0  0  0  0  0  0
   36.0300   28.8800   43.6710 C   0  0  0  0  0  0  0  0  0  0  0  0
   33.8550   27.9670   44.5730 O   0  0  0  0  0  0  0  0  0  0  0  0
   32.8730   28.5920   45.3860 C   0  0  0  0  0  0  0  0  0  0  0  0
   33.6770   29.4280   46.2080 O   0  0  0  0  0  0  0  0  0  0  0  0
   36.6410   29.3580   49.8950 C   0  0  0  0  0  0  0  0  0  0  0  0
   35.8040   29.7760   50.9350 F   0  0  0  0  0  0  0  0  0  0  0  0
   36.0100   28.6280   48.9300 F   0  0  0  0  0  0  0  0  0  0  0  0
   37.6700   28.6240   50.4900 F   0  0  0  0  0  0  0  0  0  0  0  0
   36.9251   31.8006   51.0136 H   0  0  0  0  0  0  0  0  0  0  0  0
   37.9905   33.8265   49.9120 H   0  0  0  0  0  0  0  0  0  0  0  0
   40.7641   31.1915   46.8740 H   0  0  0  0  0  0  0  0  0  0  0  0
   40.3195   30.1008   45.5590 H   0  0  0  0  0  0  0  0  0  0  0  0
   40.5201   33.1767   45.2299 H   0  0  0  0  0  0  0  0  0  0  0  0
   41.8666   32.1097   44.8454 H   0  0  0  0  0  0  0  0  0  0  0  0
   40.1820   30.7258   43.4166 H   0  0  0  0  0  0  0  0  0  0  0  0
   40.5544   32.3504   42.7800 H   0  0  0  0  0  0  0  0  0  0  0  0
   38.5661   33.2619   43.5954 H   0  0  0  0  0  0  0  0  0  0  0  0
   38.1240   31.5765   42.9751 H   0  0  0  0  0  0  0  0  0  0  0  0
   37.5227   32.7871   45.3276 H   0  0  0  0  0  0  0  0  0  0  0  0
   37.8265   29.8743   43.1695 H   0  0  0  0  0  0  0  0  0  0  0  0
   35.7298   31.4415   46.5277 H   0  0  0  0  0  0  0  0  0  0  0  0
   36.1365   28.1576   42.8483 H   0  0  0  0  0  0  0  0  0  0  0  0
   32.1669   29.1811   44.7823 H   0  0  0  0  0  0  0  0  0  0  0  0
   32.2393   27.8882   45.9455 H   0  0  0  0  0  0  0  0  0  0  0  0
  1 22  1  0
  1  2  2  0
  3  2  1  0
  4  3  2  0
  5  6  2  0
  5  4  1  0
  6  1  1  0
  7  5  1  0
  8  7  1  0
  9  8  1  0
 10 11  1  0
 10  9  1  0
 11 12  1  0
 12  7  1  0
 13 14  2  0
 14 12  1  0
 14 15  1  0
 16 15  2  0
 16 21  1  0
 17 19  1  0
 17 16  1  0
 18 13  1  0
 18 17  2  0
 19 20  1  0
 20 21  1  0
 22 25  1  0
 22 23  1  0
 24 22  1  0
  2 26  1  0
  3 27  1  0
  8 28  1  0
  8 29  1  0
  9 30  1  0
  9 31  1  0
 10 32  1  0
 10 33  1  0
 11 34  1  0
 11 35  1  0
 12 36  1  1
 13 37  1  0
 15 38  1  0
 18 39  1  0
 20 40  1  0
 20 41  1  0
M  ISO  8  26  14  27  14  28  13  29  13  30  13  31  13  32  13  33  13
M  ISO  8  34  13  35  13  36  13  37  14  38  14  39  14  40  13  41  13
M  END
>  <minimizedAffinity>  (1) 
-6.71366453

>  <minimizedRMSD>  (1) 
1.20558202

$$$$
