
     RDKit          3D

 20 21  0  0  1  0  0  0  0  0999 V2000
   36.4070   30.6510   49.0130 C   0  0  1  0  0  0  0  0  0  0  0  0
   35.7210   29.3650   48.9200 C   0  0  0  0  0  0  0  0  0  0  0  0
   36.9970   29.4420   49.7150 C   0  0  2  0  0  0  0  0  0  0  0  0
   37.2460   31.1570   47.8890 C   0  0  0  0  0  0  0  0  0  0  0  0
   38.3250   31.9840   48.2460 C   0  0  0  0  0  0  0  0  0  0  0  0
   39.0960   32.4910   47.1730 C   0  0  0  0  0  0  0  0  0  0  0  0
   38.7580   32.1570   45.8870 N   0  0  0  0  0  0  0  0  0  0  0  0
   37.6920   31.3440   45.6120 C   0  0  0  0  0  0  0  0  0  0  0  0
   36.9390   30.8470   46.6330 N   0  0  0  0  0  0  0  0  0  0  0  0
   36.8770   29.5030   51.2200 C   0  0  0  0  0  0  0  0  0  0  0  0
   37.2470   30.7730   51.6360 F   0  0  0  0  0  0  0  0  0  0  0  0
   35.6240   29.2380   51.6790 F   0  0  0  0  0  0  0  0  0  0  0  0
   37.7640   28.6470   51.8430 F   0  0  0  0  0  0  0  0  0  0  0  0
   36.0454   31.6551   49.2793 H   0  0  0  0  0  0  0  0  0  0  0  0
   34.7624   29.2190   49.4394 H   0  0  0  0  0  0  0  0  0  0  0  0
   35.3715   28.7387   48.0860 H   0  0  0  0  0  0  0  0  0  0  0  0
   37.9414   28.8779   49.7112 H   0  0  0  0  0  0  0  0  0  0  0  0
   38.5559   32.2224   49.2947 H   0  0  0  0  0  0  0  0  0  0  0  0
   39.9576   33.1463   47.3688 H   0  0  0  0  0  0  0  0  0  0  0  0
   37.4439   31.0926   44.5702 H   0  0  0  0  0  0  0  0  0  0  0  0
  1  3  1  0
  2  1  1  0
  2  3  1  0
  3 10  1  0
  4  5  2  0
  4  1  1  0
  6  5  1  0
  7  6  2  0
  8  7  1  0
  8  9  2  0
  9  4  1  0
 10 11  1  0
 10 12  1  0
 10 13  1  0
  1 14  1  1
  2 15  1  0
  2 16  1  0
  3 17  1  1
  5 18  1  0
  6 19  1  0
  8 20  1  0
M  ISO  7  14  13  15  13  16  13  17  13  18  14  19  14  20  14
M  END
>  <minimizedAffinity>  (1) 
-5.0485363

>  <minimizedRMSD>  (1) 
1.79740059

$$$$
