
     RDKit          3D

 24 26  0  0  1  0  0  0  0  0999 V2000
   36.3080   31.1030   48.7300 C   0  0  1  0  0  0  0  0  0  0  0  0
   35.8340   30.1530   47.7270 C   0  0  0  0  0  0  0  0  0  0  0  0
   36.6330   29.6300   48.8930 C   0  0  2  0  0  0  0  0  0  0  0  0
   37.5200   31.9570   48.4610 C   0  0  0  0  0  0  0  0  0  0  0  0
   37.8990   32.8760   49.4520 C   0  0  0  0  0  0  0  0  0  0  0  0
   39.0010   33.6620   49.1540 C   0  0  0  0  0  0  0  0  0  0  0  0
   39.6550   33.5220   47.9570 N   0  0  0  0  0  0  0  0  0  0  0  0
   39.2450   32.6100   47.0250 C   0  0  0  0  0  0  0  0  0  0  0  0
   38.1650   31.8240   47.2860 N   0  0  0  0  0  0  0  0  0  0  0  0
   35.7790   28.9280   49.9230 C   0  0  0  0  0  0  0  0  0  0  0  0
   34.5540   28.2040   49.5240 C   0  0  0  0  0  0  0  0  0  0  0  0
   34.4330   29.5270   50.2140 C   0  0  0  0  0  0  0  0  0  0  0  0
   35.7895   31.8908   49.2961 H   0  0  0  0  0  0  0  0  0  0  0  0
   34.7602   29.9254   47.6551 H   0  0  0  0  0  0  0  0  0  0  0  0
   35.9292   30.0774   46.6337 H   0  0  0  0  0  0  0  0  0  0  0  0
   37.5472   29.0343   49.0322 H   0  0  0  0  0  0  0  0  0  0  0  0
   37.3560   32.9666   50.4044 H   0  0  0  0  0  0  0  0  0  0  0  0
   39.3541   34.4049   49.8844 H   0  0  0  0  0  0  0  0  0  0  0  0
   39.7840   32.5121   46.0711 H   0  0  0  0  0  0  0  0  0  0  0  0
   36.6681   28.6417   50.5039 H   0  0  0  0  0  0  0  0  0  0  0  0
   34.2920   28.1149   48.4594 H   0  0  0  0  0  0  0  0  0  0  0  0
   34.1561   27.1953   49.7089 H   0  0  0  0  0  0  0  0  0  0  0  0
   34.0632   29.5788   51.2487 H   0  0  0  0  0  0  0  0  0  0  0  0
   33.9368   30.4834   49.9926 H   0  0  0  0  0  0  0  0  0  0  0  0
  1  3  1  0
  2  1  1  0
  2  3  1  0
  3 10  1  0
  4  1  1  0
  4  5  2  0
  6  5  1  0
  7  6  2  0
  8  9  2  0
  8  7  1  0
  9  4  1  0
 10 12  1  0
 11 10  1  0
 11 12  1  0
  1 13  1  1
  2 14  1  0
  2 15  1  0
  3 16  1  6
  5 17  1  0
  6 18  1  0
  8 19  1  0
 10 20  1  0
 11 21  1  0
 11 22  1  0
 12 23  1  0
 12 24  1  0
M  ISO  8  13  13  14  13  15  13  16  13  17  14  18  14  19  14  20  13
M  ISO  4  21  13  22  13  23  13  24  13
M  END
>  <minimizedAffinity>  (1) 
-4.75013113

>  <minimizedRMSD>  (1) 
1.84444559

$$$$
