
     RDKit          3D

 20 21  0  0  1  0  0  0  0  0999 V2000
   36.7360   31.0770   49.1760 C   0  0  0  0  0  0  0  0  0  0  0  0
   37.0200   32.3110   49.7880 C   0  0  0  0  0  0  0  0  0  0  0  0
   38.0870   33.0180   49.2630 C   0  0  0  0  0  0  0  0  0  0  0  0
   38.7940   32.5070   48.2080 N   0  0  0  0  0  0  0  0  0  0  0  0
   38.4880   31.3070   47.6410 C   0  0  0  0  0  0  0  0  0  0  0  0
   37.4420   30.5860   48.1380 N   0  0  0  0  0  0  0  0  0  0  0  0
   35.5620   30.2950   49.7160 C   0  0  1  0  0  0  0  0  0  0  0  0
   35.5070   28.8430   49.6040 C   0  0  0  0  0  0  0  0  0  0  0  0
   35.9270   29.4380   50.9180 C   0  0  1  0  0  0  0  0  0  0  0  0
   37.3550   29.3950   51.3480 C   0  0  0  0  0  0  0  0  0  0  0  0
   36.4288   32.6915   50.6340 H   0  0  0  0  0  0  0  0  0  0  0  0
   38.3673   33.9908   49.6933 H   0  0  0  0  0  0  0  0  0  0  0  0
   39.0763   30.9245   46.7939 H   0  0  0  0  0  0  0  0  0  0  0  0
   34.8309   31.0728   49.4503 H   0  0  0  0  0  0  0  0  0  0  0  0
   34.5326   28.3394   49.5205 H   0  0  0  0  0  0  0  0  0  0  0  0
   35.9533   28.1093   48.9166 H   0  0  0  0  0  0  0  0  0  0  0  0
   35.5954   29.3329   51.9615 H   0  0  0  0  0  0  0  0  0  0  0  0
   37.4072   29.3934   52.4468 H   0  0  0  0  0  0  0  0  0  0  0  0
   37.8283   28.4822   50.9571 H   0  0  0  0  0  0  0  0  0  0  0  0
   37.8824   30.2777   50.9571 H   0  0  0  0  0  0  0  0  0  0  0  0
  1  7  1  0
  1  2  2  0
  3  2  1  0
  4  3  2  0
  5  6  2  0
  5  4  1  0
  6  1  1  0
  7  9  1  0
  8  7  1  0
  8  9  1  0
  9 10  1  0
  2 11  1  0
  3 12  1  0
  5 13  1  0
  7 14  1  1
  8 15  1  0
  8 16  1  0
  9 17  1  1
 10 18  1  0
 10 19  1  0
 10 20  1  0
M  ISO  8  11  14  12  14  13  14  14  13  15  13  16  13  17  13  18   8
M  ISO  2  19   8  20   8
M  END
>  <minimizedAffinity>  (1) 
-4.55089712

>  <minimizedRMSD>  (1) 
0.387773663

$$$$
