
     RDKit          3D

 29 30  0  0  0  0  0  0  0  0999 V2000
   34.8240   28.5420   49.1940 C   0  0  0  0  0  0  0  0  0  0  0  0
   34.1620   29.0450   48.2160 C   0  0  0  0  0  0  0  0  0  0  0  0
   37.2050   30.0720   51.4980 C   0  0  0  0  0  0  0  0  0  0  0  0
   38.1310   30.6580   50.6270 C   0  0  0  0  0  0  0  0  0  0  0  0
   37.9180   30.5150   49.2550 C   0  0  0  0  0  0  0  0  0  0  0  0
   36.8250   29.8150   48.8400 N   0  0  0  0  0  0  0  0  0  0  0  0
   35.9610   29.2680   49.7270 C   0  0  0  0  0  0  0  0  0  0  0  0
   36.1660   29.4070   51.0270 N   0  0  0  0  0  0  0  0  0  0  0  0
   32.9970   28.4530   47.5370 C   0  0  0  0  0  0  0  0  0  0  0  0
   32.4960   27.3680   48.3450 N   0  0  0  0  0  0  0  0  0  0  0  0
   32.4470   26.1020   47.6840 C   0  0  0  0  0  0  0  0  0  0  0  0
   30.9910   25.8840   47.2760 C   0  0  0  0  0  0  0  0  0  0  0  0
   30.3160   27.1650   47.7120 C   0  0  0  0  0  0  0  0  0  0  0  0
   31.1720   27.5930   48.8780 C   0  0  0  0  0  0  0  0  0  0  0  0
   34.5325   27.5719   49.6228 H   0  0  0  0  0  0  0  0  0  0  0  0
   34.5014   30.0234   47.8452 H   0  0  0  0  0  0  0  0  0  0  0  0
   37.3442   30.1664   52.5851 H   0  0  0  0  0  0  0  0  0  0  0  0
   38.9990   31.2136   51.0116 H   0  0  0  0  0  0  0  0  0  0  0  0
   38.6148   30.9562   48.5272 H   0  0  0  0  0  0  0  0  0  0  0  0
   32.2136   29.2151   47.4129 H   0  0  0  0  0  0  0  0  0  0  0  0
   33.2901   28.0787   46.5450 H   0  0  0  0  0  0  0  0  0  0  0  0
   33.0939   26.1121   46.7944 H   0  0  0  0  0  0  0  0  0  0  0  0
   32.8017   25.2949   48.3418 H   0  0  0  0  0  0  0  0  0  0  0  0
   30.9028   25.7417   46.1888 H   0  0  0  0  0  0  0  0  0  0  0  0
   30.5456   24.9855   47.7281 H   0  0  0  0  0  0  0  0  0  0  0  0
   30.3301   27.9169   46.9092 H   0  0  0  0  0  0  0  0  0  0  0  0
   29.2529   27.0406   47.9658 H   0  0  0  0  0  0  0  0  0  0  0  0
   30.9835   26.9728   49.7667 H   0  0  0  0  0  0  0  0  0  0  0  0
   30.9899   28.6223   49.2206 H   0  0  0  0  0  0  0  0  0  0  0  0
  1  7  1  0
  2  1  2  0
  4  3  2  0
  5  4  1  0
  6  5  2  0
  6  7  1  0
  7  8  2  0
  8  3  1  0
  9  2  1  0
  9 10  1  0
 10 14  1  0
 11 10  1  0
 12 11  1  0
 12 13  1  0
 13 14  1  0
  1 15  1  0
  2 16  1  0
  3 17  1  0
  4 18  1  0
  5 19  1  0
  9 20  1  0
  9 21  1  0
 11 22  1  0
 11 23  1  0
 12 24  1  0
 12 25  1  0
 13 26  1  0
 13 27  1  0
 14 28  1  0
 14 29  1  0
M  ISO  8  17  14  18  14  19  14  20   8  21   8  22  13  23  13  24  13
M  ISO  5  25  13  26  13  27  13  28  13  29  13
M  END
>  <minimizedAffinity>  (1) 
-4.2054863

>  <minimizedRMSD>  (1) 
1.07164252

$$$$
