
     RDKit          3D

 38 40  0  0  1  0  0  0  0  0999 V2000
   36.3830   31.0960   48.1050 C   0  0  1  0  0  0  0  0  0  0  0  0
   36.3330   30.1030   47.0730 C   0  0  0  0  0  0  0  0  0  0  0  0
   36.7180   29.7160   48.4710 C   0  0  2  0  0  0  0  0  0  0  0  0
   36.0370   28.8050   50.6770 C   0  0  2  0  0  0  0  0  0  0  0  0
   35.7860   28.8300   49.2330 C   0  0  1  0  0  0  0  0  0  0  0  0
   34.3990   29.3730   49.1020 C   0  0  0  0  0  0  0  0  0  0  0  0
   34.1160   30.1030   50.2600 O   0  0  0  0  0  0  0  0  0  0  0  0
   34.5900   29.2690   51.2230 C   0  0  0  0  0  0  0  0  0  0  0  0
   36.8040   29.8920   51.0790 O   0  0  0  0  0  0  0  0  0  0  0  0
   37.5360   29.8440   52.1170 C   0  0  0  0  0  0  0  0  0  0  0  0
   37.5510   32.0610   48.2510 C   0  0  0  0  0  0  0  0  0  0  0  0
   37.6750   32.7320   49.4580 C   0  0  0  0  0  0  0  0  0  0  0  0
   38.7460   33.6110   49.5490 C   0  0  0  0  0  0  0  0  0  0  0  0
   39.5840   33.7620   48.4860 N   0  0  0  0  0  0  0  0  0  0  0  0
   39.4380   33.0910   47.3150 C   0  0  0  0  0  0  0  0  0  0  0  0
   38.4050   32.2320   47.2060 N   0  0  0  0  0  0  0  0  0  0  0  0
   40.2760   33.2370   46.2440 O   0  0  0  0  0  0  0  0  0  0  0  0
   40.2660   34.3190   43.8750 O   0  0  0  0  0  0  0  0  0  0  0  0
   39.8040   33.0710   44.6250 P   0  0  0  0  0  0  0  0  0  0  0  0
   40.4830   31.7610   43.8390 O   0  0  0  0  0  0  0  0  0  0  0  0
   38.1140   33.0280   44.5600 O   0  0  0  0  0  0  0  0  0  0  0  0
   35.6472   31.8617   48.3919 H   0  0  0  0  0  0  0  0  0  0  0  0
   35.3636   29.7855   46.6614 H   0  0  0  0  0  0  0  0  0  0  0  0
   36.7917   29.9891   46.0797 H   0  0  0  0  0  0  0  0  0  0  0  0
   37.5703   29.2499   48.9871 H   0  0  0  0  0  0  0  0  0  0  0  0
   36.4889   27.8524   50.9906 H   0  0  0  0  0  0  0  0  0  0  0  0
   35.9287   27.8219   48.8167 H   0  0  0  0  0  0  0  0  0  0  0  0
   34.3353   30.0287   48.2211 H   0  0  0  0  0  0  0  0  0  0  0  0
   33.6754   28.5540   48.9770 H   0  0  0  0  0  0  0  0  0  0  0  0
   33.9250   28.4018   51.3484 H   0  0  0  0  0  0  0  0  0  0  0  0
   34.6502   29.7567   52.2071 H   0  0  0  0  0  0  0  0  0  0  0  0
   36.9020   29.8856   53.0150 H   0  0  0  0  0  0  0  0  0  0  0  0
   38.1110   28.9062   52.1172 H   0  0  0  0  0  0  0  0  0  0  0  0
   38.2285   30.6987   52.1172 H   0  0  0  0  0  0  0  0  0  0  0  0
   36.9710   32.5781   50.2891 H   0  0  0  0  0  0  0  0  0  0  0  0
   38.9166   34.1818   50.4737 H   0  0  0  0  0  0  0  0  0  0  0  0
   40.8190   31.1128   44.5076 H   0  0  0  0  0  0  0  0  0  0  0  0
   37.7485   33.0187   45.4800 H   0  0  0  0  0  0  0  0  0  0  0  0
  1 11  1  0
  1  3  1  0
  2  1  1  0
  2  3  1  0
  3  5  1  0
  4  9  1  0
  4  8  1  0
  5  4  1  0
  6  5  1  0
  6  7  1  0
  7  8  1  0
  9 10  1  0
 11 12  2  0
 12 13  1  0
 14 13  2  0
 15 14  1  0
 16 15  2  0
 16 11  1  0
 17 15  1  0
 18 19  2  0
 19 17  1  0
 20 19  1  0
 21 19  1  0
  1 22  1  1
  2 23  1  0
  2 24  1  0
  3 25  1  6
  4 26  1  1
  5 27  1  6
  6 28  1  0
  6 29  1  0
  8 30  1  0
  8 31  1  0
 10 32  1  0
 10 33  1  0
 10 34  1  0
 12 35  1  0
 13 36  1  0
 20 37  1  0
 21 38  1  0
M  ISO  8  22  13  23  13  24  13  25  13  26  13  27  13  28  13  29  13
M  ISO  8  30  13  31  13  32   8  33   8  34   8  35  14  36  14  37   3
M  ISO  1  38   3
M  END
>  <minimizedAffinity>  (1) 
-5.07463837

>  <minimizedRMSD>  (1) 
1.46631634

$$$$
