
     RDKit          3D

 45 48  0  0  1  0  0  0  0  0999 V2000
   35.9880   30.7740   47.7620 C   0  0  1  0  0  0  0  0  0  0  0  0
   35.5400   29.7730   46.8430 C   0  0  0  0  0  0  0  0  0  0  0  0
   36.2420   29.3720   48.1110 C   0  0  2  0  0  0  0  0  0  0  0  0
   36.0720   28.6340   50.4770 C   0  0  2  0  0  0  0  0  0  0  0  0
   35.4540   28.6380   49.1460 C   0  0  1  0  0  0  0  0  0  0  0  0
   34.1490   29.3330   49.3460 C   0  0  0  0  0  0  0  0  0  0  0  0
   34.2580   30.1340   50.4850 O   0  0  0  0  0  0  0  0  0  0  0  0
   34.8870   29.2920   51.3470 C   0  0  0  0  0  0  0  0  0  0  0  0
   37.0380   29.6250   50.5890 O   0  0  0  0  0  0  0  0  0  0  0  0
   37.4400   30.0250   51.7290 C   0  0  0  0  0  0  0  0  0  0  0  0
   37.2520   31.5850   47.5530 C   0  0  0  0  0  0  0  0  0  0  0  0
   37.8870   32.1020   48.6700 C   0  0  0  0  0  0  0  0  0  0  0  0
   39.0250   32.8490   48.4330 C   0  0  0  0  0  0  0  0  0  0  0  0
   39.4540   33.0360   47.1490 N   0  0  0  0  0  0  0  0  0  0  0  0
   38.8170   32.5200   46.0680 C   0  0  0  0  0  0  0  0  0  0  0  0
   37.6970   31.7830   46.2810 N   0  0  0  0  0  0  0  0  0  0  0  0
   38.4680   32.0770   43.6580 C   0  0  2  0  0  0  0  0  0  0  0  0
   39.3170   32.7480   44.6860 C   0  0  2  0  0  0  0  0  0  0  0  0
   40.5890   32.1830   44.6070 O   0  0  0  0  0  0  0  0  0  0  0  0
   40.3840   30.8590   44.1790 C   0  0  0  0  0  0  0  0  0  0  0  0
   39.4660   31.1270   42.9960 C   0  0  2  0  0  0  0  0  0  0  0  0
   37.9810   32.9530   42.6950 O   0  0  0  0  0  0  0  0  0  0  0  0
   40.1380   31.8410   42.0320 O   0  0  0  0  0  0  0  0  0  0  0  0
   35.4525   31.6389   48.1806 H   0  0  0  0  0  0  0  0  0  0  0  0
   34.4641   29.5771   46.7242 H   0  0  0  0  0  0  0  0  0  0  0  0
   35.6941   29.5748   45.7720 H   0  0  0  0  0  0  0  0  0  0  0  0
   37.1394   28.8102   48.4093 H   0  0  0  0  0  0  0  0  0  0  0  0
   36.4781   27.6433   50.7290 H   0  0  0  0  0  0  0  0  0  0  0  0
   35.3741   27.6073   48.7701 H   0  0  0  0  0  0  0  0  0  0  0  0
   33.9207   29.9582   48.4702 H   0  0  0  0  0  0  0  0  0  0  0  0
   33.3395   28.5987   49.4707 H   0  0  0  0  0  0  0  0  0  0  0  0
   34.1945   28.5177   51.7089 H   0  0  0  0  0  0  0  0  0  0  0  0
   35.2636   29.8127   52.2398 H   0  0  0  0  0  0  0  0  0  0  0  0
   36.8975   29.4852   52.5192 H   0  0  0  0  0  0  0  0  0  0  0  0
   38.5184   29.8310   51.8263 H   0  0  0  0  0  0  0  0  0  0  0  0
   37.2514   31.1043   51.8263 H   0  0  0  0  0  0  0  0  0  0  0  0
   37.5071   31.9279   49.6875 H   0  0  0  0  0  0  0  0  0  0  0  0
   39.5821   33.2904   49.2725 H   0  0  0  0  0  0  0  0  0  0  0  0
   37.5783   31.6090   44.1044 H   0  0  0  0  0  0  0  0  0  0  0  0
   39.3090   33.8301   44.4887 H   0  0  0  0  0  0  0  0  0  0  0  0
   41.3228   30.3758   43.8706 H   0  0  0  0  0  0  0  0  0  0  0  0
   39.9840   30.1736   44.9407 H   0  0  0  0  0  0  0  0  0  0  0  0
   39.0551   30.2248   42.5193 H   0  0  0  0  0  0  0  0  0  0  0  0
   37.5512   33.7262   43.1394 H   0  0  0  0  0  0  0  0  0  0  0  0
   40.7478   32.4889   42.4662 H   0  0  0  0  0  0  0  0  0  0  0  0
  1  3  1  0
  2  1  1  0
  2  3  1  0
  3  5  1  0
  4  9  1  0
  4  8  1  0
  5  6  1  0
  5  4  1  0
  6  7  1  0
  7  8  1  0
  9 10  1  0
 11  1  1  0
 11 12  2  0
 13 12  1  0
 14 13  2  0
 15 16  2  0
 15 14  1  0
 16 11  1  0
 17 22  1  0
 17 18  1  0
 18 15  1  0
 19 18  1  0
 20 19  1  0
 21 23  1  0
 21 17  1  0
 21 20  1  0
  1 24  1  1
  2 25  1  0
  2 26  1  0
  3 27  1  6
  4 28  1  1
  5 29  1  6
  6 30  1  0
  6 31  1  0
  8 32  1  0
  8 33  1  0
 10 34  1  0
 10 35  1  0
 10 36  1  0
 12 37  1  0
 13 38  1  0
 17 39  1  1
 18 40  1  6
 20 41  1  0
 20 42  1  0
 21 43  1  6
 22 44  1  0
 23 45  1  0
M  ISO  8  24  13  25  13  26  13  27  13  28  13  29  13  30  13  31  13
M  ISO  8  32  13  33  13  34   8  35   8  36   8  37  14  38  14  39  13
M  ISO  6  40  13  41  13  42  13  43  13  44   3  45   3
M  END
>  <minimizedAffinity>  (1) 
-5.05378151

>  <minimizedRMSD>  (1) 
2.72666359

$$$$
