
     RDKit          3D

 34 36  0  0  1  0  0  0  0  0999 V2000
   36.6820   31.2780   47.7580 C   0  0  1  0  0  0  0  0  0  0  0  0
   36.7260   30.2520   46.7630 C   0  0  0  0  0  0  0  0  0  0  0  0
   36.9920   29.9090   48.2060 C   0  0  2  0  0  0  0  0  0  0  0  0
   36.2830   28.8390   50.3300 C   0  0  2  0  0  0  0  0  0  0  0  0
   35.9910   29.0530   48.9110 C   0  0  1  0  0  0  0  0  0  0  0  0
   34.6660   29.7400   48.9050 C   0  0  0  0  0  0  0  0  0  0  0  0
   34.4990   30.3620   50.1460 O   0  0  0  0  0  0  0  0  0  0  0  0
   34.9140   29.3830   50.9880 C   0  0  0  0  0  0  0  0  0  0  0  0
   37.1760   29.7840   50.8150 O   0  0  0  0  0  0  0  0  0  0  0  0
   37.4190   29.8930   52.0560 C   0  0  0  0  0  0  0  0  0  0  0  0
   37.8190   32.2590   47.9870 C   0  0  0  0  0  0  0  0  0  0  0  0
   37.9640   32.7840   49.2630 C   0  0  0  0  0  0  0  0  0  0  0  0
   38.9970   33.6900   49.4230 C   0  0  0  0  0  0  0  0  0  0  0  0
   39.7930   34.0080   48.3580 N   0  0  0  0  0  0  0  0  0  0  0  0
   39.6310   33.4800   47.1220 C   0  0  0  0  0  0  0  0  0  0  0  0
   38.6220   32.5860   46.9370 N   0  0  0  0  0  0  0  0  0  0  0  0
   40.4480   33.8070   46.0320 N   0  0  0  0  0  0  0  0  0  0  0  0
   35.9197   32.0490   47.9437 H   0  0  0  0  0  0  0  0  0  0  0  0
   35.7970   29.9145   46.2801 H   0  0  0  0  0  0  0  0  0  0  0  0
   37.2699   30.1095   45.8176 H   0  0  0  0  0  0  0  0  0  0  0  0
   37.7978   29.4639   48.8081 H   0  0  0  0  0  0  0  0  0  0  0  0
   36.6387   27.8149   50.5161 H   0  0  0  0  0  0  0  0  0  0  0  0
   36.0108   28.0917   48.3767 H   0  0  0  0  0  0  0  0  0  0  0  0
   34.6387   30.4925   48.1031 H   0  0  0  0  0  0  0  0  0  0  0  0
   33.8587   29.0140   48.7284 H   0  0  0  0  0  0  0  0  0  0  0  0
   34.1655   28.5792   51.0489 H   0  0  0  0  0  0  0  0  0  0  0  0
   35.0596   29.7483   52.0153 H   0  0  0  0  0  0  0  0  0  0  0  0
   36.5640   29.5095   52.6321 H   0  0  0  0  0  0  0  0  0  0  0  0
   38.3194   29.3125   52.3057 H   0  0  0  0  0  0  0  0  0  0  0  0
   37.5842   30.9515   52.3057 H   0  0  0  0  0  0  0  0  0  0  0  0
   37.3010   32.4985   50.0930 H   0  0  0  0  0  0  0  0  0  0  0  0
   39.1774   34.1532   50.4043 H   0  0  0  0  0  0  0  0  0  0  0  0
   40.2784   33.3738   45.1130 H   0  0  0  0  0  0  0  0  0  0  0  0
   41.2183   34.4806   46.1496 H   0  0  0  0  0  0  0  0  0  0  0  0
  1 11  1  0
  1  3  1  0
  2  1  1  0
  2  3  1  0
  3  5  1  0
  4  9  1  0
  4  8  1  0
  5  4  1  0
  6  5  1  0
  6  7  1  0
  7  8  1  0
  9 10  1  0
 11 12  2  0
 12 13  1  0
 14 13  2  0
 15 14  1  0
 16 15  2  0
 16 11  1  0
 17 15  1  0
  1 18  1  1
  2 19  1  0
  2 20  1  0
  3 21  1  6
  4 22  1  6
  5 23  1  6
  6 24  1  0
  6 25  1  0
  8 26  1  0
  8 27  1  0
 10 28  1  0
 10 29  1  0
 10 30  1  0
 12 31  1  0
 13 32  1  0
 17 33  1  0
 17 34  1  0
M  ISO  8  18  13  19  13  20  13  21  13  22  13  23  13  24  13  25  13
M  ISO  7  26  13  27  13  28   8  29   8  30   8  31  14  32  14
M  END
>  <minimizedAffinity>  (1) 
-4.29621267

>  <minimizedRMSD>  (1) 
0.776550829

$$$$
