
     RDKit          3D

 19 19  0  0  0  0  0  0  0  0999 V2000
   37.3280   30.2130   51.4270 C   0  0  0  0  0  0  0  0  0  0  0  0
   38.0980   30.7310   50.3620 C   0  0  0  0  0  0  0  0  0  0  0  0
   37.7320   30.4150   49.0310 C   0  0  0  0  0  0  0  0  0  0  0  0
   36.6330   29.6120   48.8600 N   0  0  0  0  0  0  0  0  0  0  0  0
   35.9390   29.1490   49.9050 C   0  0  0  0  0  0  0  0  0  0  0  0
   36.2720   29.4370   51.1600 N   0  0  0  0  0  0  0  0  0  0  0  0
   34.7840   28.3010   49.6170 C   0  0  0  0  0  0  0  0  0  0  0  0
   34.0720   28.5850   48.5500 C   0  0  0  0  0  0  0  0  0  0  0  0
   32.8770   27.8200   48.1270 C   0  0  0  0  0  0  0  0  0  0  0  0
   31.8180   28.1480   49.0980 N   0  0  0  0  0  0  0  0  0  0  0  0
   37.5950   30.4462   52.4683 H   0  0  0  0  0  0  0  0  0  0  0  0
   38.9697   31.3709   50.5637 H   0  0  0  0  0  0  0  0  0  0  0  0
   38.3037   30.7966   48.1722 H   0  0  0  0  0  0  0  0  0  0  0  0
   34.5204   27.4558   50.2698 H   0  0  0  0  0  0  0  0  0  0  0  0
   34.3821   29.4421   47.9343 H   0  0  0  0  0  0  0  0  0  0  0  0
   32.5715   28.1185   47.1133 H   0  0  0  0  0  0  0  0  0  0  0  0
   33.0794   26.7391   48.1024 H   0  0  0  0  0  0  0  0  0  0  0  0
   32.1825   28.0351   50.0547 H   0  0  0  0  0  0  0  0  0  0  0  0
   31.5145   29.1224   48.9590 H   0  0  0  0  0  0  0  0  0  0  0  0
  2  1  2  0
  3  2  1  0
  4  3  2  0
  4  5  1  0
  5  6  2  0
  6  1  1  0
  7  5  1  0
  8  7  2  0
  9  8  1  0
  9 10  1  0
  1 11  1  0
  2 12  1  0
  3 13  1  0
  7 14  1  0
  8 15  1  0
  9 16  1  0
  9 17  1  0
 10 18  1  0
 10 19  1  0
M  ISO  7  11  14  12  14  13  14  16   8  17   8  18   5  19   5
M  END
>  <minimizedAffinity>  (1) 
-4.0801506

>  <minimizedRMSD>  (1) 
0.73087126

$$$$
