
     RDKit          3D

 32 34  0  0  1  0  0  0  0  0999 V2000
   38.4010   32.2470   48.0810 C   0  0  0  0  0  0  0  0  0  0  0  0
   39.2520   31.7690   47.0610 C   0  0  0  0  0  0  0  0  0  0  0  0
   38.7660   30.7680   46.2120 C   0  0  0  0  0  0  0  0  0  0  0  0
   37.5050   30.3200   46.4210 N   0  0  0  0  0  0  0  0  0  0  0  0
   36.7180   30.7920   47.3980 C   0  0  0  0  0  0  0  0  0  0  0  0
   37.1660   31.7490   48.2210 N   0  0  0  0  0  0  0  0  0  0  0  0
   35.3810   30.2750   47.5730 N   0  0  0  0  0  0  0  0  0  0  0  0
   34.8770   29.9760   48.9160 C   0  0  1  0  0  0  0  0  0  0  0  0
   33.9570   28.7940   48.9470 C   0  0  0  0  0  0  0  0  0  0  0  0
   34.1270   28.0000   47.6710 C   0  0  0  0  0  0  0  0  0  0  0  0
   33.6440   28.8760   46.5440 C   0  0  0  0  0  0  0  0  0  0  0  0
   34.5510   30.0550   46.4160 C   0  0  0  0  0  0  0  0  0  0  0  0
   36.0260   29.8140   49.8750 C   0  0  0  0  0  0  0  0  0  0  0  0
   36.3710   30.6810   50.8990 C   0  0  0  0  0  0  0  0  0  0  0  0
   37.4810   30.1780   51.5480 C   0  0  0  0  0  0  0  0  0  0  0  0
   37.7680   28.9920   50.8680 C   0  0  0  0  0  0  0  0  0  0  0  0
   36.8890   28.8380   49.9100 O   0  0  0  0  0  0  0  0  0  0  0  0
   38.7545   33.0330   48.7646 H   0  0  0  0  0  0  0  0  0  0  0  0
   40.2681   32.1718   46.9370 H   0  0  0  0  0  0  0  0  0  0  0  0
   39.3875   30.3587   45.4019 H   0  0  0  0  0  0  0  0  0  0  0  0
   34.2666   30.8332   49.2363 H   0  0  0  0  0  0  0  0  0  0  0  0
   34.2022   28.1591   49.8112 H   0  0  0  0  0  0  0  0  0  0  0  0
   32.9156   29.1375   49.0334 H   0  0  0  0  0  0  0  0  0  0  0  0
   35.1864   27.7431   47.5234 H   0  0  0  0  0  0  0  0  0  0  0  0
   33.5564   27.0605   47.7124 H   0  0  0  0  0  0  0  0  0  0  0  0
   33.6496   28.3037   45.6046 H   0  0  0  0  0  0  0  0  0  0  0  0
   32.6200   29.2183   46.7545 H   0  0  0  0  0  0  0  0  0  0  0  0
   35.2040   29.8979   45.5448 H   0  0  0  0  0  0  0  0  0  0  0  0
   33.9109   30.9428   46.3058 H   0  0  0  0  0  0  0  0  0  0  0  0
   35.8477   31.6147   51.1528 H   0  0  0  0  0  0  0  0  0  0  0  0
   38.0170   30.6121   52.4049 H   0  0  0  0  0  0  0  0  0  0  0  0
   38.5939   28.3031   51.0987 H   0  0  0  0  0  0  0  0  0  0  0  0
  1  6  2  0
  2  1  1  0
  3  4  1  0
  3  2  2  0
  4  5  2  0
  5  7  1  0
  5  6  1  0
  7  8  1  0
  8  9  1  0
  8 13  1  0
 10  9  1  0
 11 10  1  0
 12 11  1  0
 12  7  1  0
 13 17  1  0
 13 14  2  0
 14 15  1  0
 16 15  2  0
 17 16  1  0
  1 18  1  0
  2 19  1  0
  3 20  1  0
  8 21  1  1
  9 22  1  0
  9 23  1  0
 10 24  1  0
 10 25  1  0
 11 26  1  0
 11 27  1  0
 12 28  1  0
 12 29  1  0
 14 30  1  0
 15 31  1  0
 16 32  1  0
M  ISO  8  18  14  19  14  20  14  21  13  22  13  23  13  24  13  25  13
M  ISO  7  26  13  27  13  28  13  29  13  30  14  31  14  32  14
M  END
>  <minimizedAffinity>  (1) 
-5.1654439

>  <minimizedRMSD>  (1) 
1.501158

$$$$
