
     RDKit          3D

 26 27  0  0  1  0  0  0  0  0999 V2000
   39.2010   32.5440   47.2460 C   0  0  0  0  0  0  0  0  0  0  0  0
   39.3370   32.0430   45.9270 C   0  0  0  0  0  0  0  0  0  0  0  0
   38.4490   31.0610   45.4920 C   0  0  0  0  0  0  0  0  0  0  0  0
   37.4900   30.6310   46.3610 N   0  0  0  0  0  0  0  0  0  0  0  0
   37.3900   31.1280   47.6060 C   0  0  0  0  0  0  0  0  0  0  0  0
   38.2340   32.0820   48.0640 N   0  0  0  0  0  0  0  0  0  0  0  0
   36.3540   30.6340   48.4860 N   0  0  0  0  0  0  0  0  0  0  0  0
   36.7050   30.2820   49.8610 C   0  0  2  0  0  0  0  0  0  0  0  0
   35.8330   29.1940   50.4270 C   0  0  0  0  0  0  0  0  0  0  0  0
   35.2730   28.4020   49.2580 C   0  0  0  0  0  0  0  0  0  0  0  0
   34.2730   29.3300   48.5920 C   0  0  0  0  0  0  0  0  0  0  0  0
   35.0060   30.4980   47.9990 C   0  0  0  0  0  0  0  0  0  0  0  0
   36.8490   31.3620   50.6930 O   0  0  0  0  0  0  0  0  0  0  0  0
   39.8930   33.3193   47.6066 H   0  0  0  0  0  0  0  0  0  0  0  0
   40.1266   32.4212   45.2610 H   0  0  0  0  0  0  0  0  0  0  0  0
   38.5196   30.6445   44.4764 H   0  0  0  0  0  0  0  0  0  0  0  0
   37.7149   29.8501   49.8008 H   0  0  0  0  0  0  0  0  0  0  0  0
   36.4285   28.5351   51.0760 H   0  0  0  0  0  0  0  0  0  0  0  0
   35.0187   29.6242   51.0286 H   0  0  0  0  0  0  0  0  0  0  0  0
   36.0752   28.1312   48.5558 H   0  0  0  0  0  0  0  0  0  0  0  0
   34.8067   27.4608   49.5845 H   0  0  0  0  0  0  0  0  0  0  0  0
   33.7399   28.7877   47.7972 H   0  0  0  0  0  0  0  0  0  0  0  0
   33.5466   29.6877   49.3365 H   0  0  0  0  0  0  0  0  0  0  0  0
   34.4528   31.4170   48.2427 H   0  0  0  0  0  0  0  0  0  0  0  0
   35.0684   30.3256   46.9144 H   0  0  0  0  0  0  0  0  0  0  0  0
   36.8088   31.0605   51.6351 H   0  0  0  0  0  0  0  0  0  0  0  0
  1  6  2  0
  2  1  1  0
  3  2  2  0
  3  4  1  0
  4  5  2  0
  5  6  1  0
  5  7  1  0
  7  8  1  0
  8  9  1  0
  8 13  1  0
 10  9  1  0
 11 10  1  0
 12  7  1  0
 12 11  1  0
  1 14  1  0
  2 15  1  0
  3 16  1  0
  8 17  1  6
  9 18  1  0
  9 19  1  0
 10 20  1  0
 10 21  1  0
 11 22  1  0
 11 23  1  0
 12 24  1  0
 12 25  1  0
 13 26  1  0
M  ISO  8  14  14  15  14  16  14  17  13  18  13  19  13  20  13  21  13
M  ISO  5  22  13  23  13  24  13  25  13  26   3
M  END
>  <minimizedAffinity>  (1) 
-4.59234905

>  <minimizedRMSD>  (1) 
0.729190588

$$$$
