
     RDKit          3D

 24 26  0  0  0  0  0  0  0  0999 V2000
   37.0710   30.6600   47.7000 C   0  0  0  0  0  0  0  0  0  0  0  0
   36.1510   30.2660   46.7440 C   0  0  0  0  0  0  0  0  0  0  0  0
   36.5420   30.7700   45.5140 C   0  0  0  0  0  0  0  0  0  0  0  0
   37.6830   31.4590   45.7350 N   0  0  0  0  0  0  0  0  0  0  0  0
   37.9740   31.3780   47.0270 N   0  0  0  0  0  0  0  0  0  0  0  0
   38.5410   32.1900   44.8640 C   0  0  0  0  0  0  0  0  0  0  0  0
   39.5250   33.0970   45.2730 C   0  0  0  0  0  0  0  0  0  0  0  0
   40.1390   33.5960   44.1390 C   0  0  0  0  0  0  0  0  0  0  0  0
   39.5350   32.9990   43.1010 N   0  0  0  0  0  0  0  0  0  0  0  0
   38.5960   32.1730   43.5360 N   0  0  0  0  0  0  0  0  0  0  0  0
   37.9470   30.6700   50.0410 C   0  0  0  0  0  0  0  0  0  0  0  0
   36.9910   30.3220   49.0890 C   0  0  0  0  0  0  0  0  0  0  0  0
   35.8780   29.5890   49.5440 C   0  0  0  0  0  0  0  0  0  0  0  0
   35.8160   29.2740   50.8720 N   0  0  0  0  0  0  0  0  0  0  0  0
   36.7800   29.6410   51.7510 C   0  0  0  0  0  0  0  0  0  0  0  0
   37.8510   30.3420   51.3370 N   0  0  0  0  0  0  0  0  0  0  0  0
   35.2565   29.6535   46.9301 H   0  0  0  0  0  0  0  0  0  0  0  0
   36.0270   30.6361   44.5512 H   0  0  0  0  0  0  0  0  0  0  0  0
   39.7670   33.3653   46.3120 H   0  0  0  0  0  0  0  0  0  0  0  0
   40.9555   34.3319   44.0969 H   0  0  0  0  0  0  0  0  0  0  0  0
   39.7675   33.1595   42.1105 H   0  0  0  0  0  0  0  0  0  0  0  0
   38.8260   31.2436   49.7119 H   0  0  0  0  0  0  0  0  0  0  0  0
   35.0821   29.2792   48.8508 H   0  0  0  0  0  0  0  0  0  0  0  0
   36.6860   29.3635   52.8113 H   0  0  0  0  0  0  0  0  0  0  0  0
  1 12  1  0
  2  1  1  0
  3  4  1  0
  3  2  2  0
  4  5  1  0
  5  1  2  0
  6  7  1  0
  6  4  1  0
  8  7  2  0
  9 10  1  0
  9  8  1  0
 10  6  2  0
 11 16  2  0
 12 13  2  0
 12 11  1  0
 13 14  1  0
 14 15  2  0
 16 15  1  0
  2 17  1  0
  3 18  1  0
  7 19  1  0
  8 20  1  0
  9 21  1  0
 11 22  1  0
 13 23  1  0
 15 24  1  0
M  ISO  8  17  14  18  14  19  14  20  14  21   9  22  14  23  14  24  14
M  END
>  <minimizedAffinity>  (1) 
-4.84795952

>  <minimizedRMSD>  (1) 
3.75498104

$$$$
