
     RDKit          3D

 31 33  0  0  0  0  0  0  0  0999 V2000
   36.4190   30.2820   47.4900 C   0  0  0  0  0  0  0  0  0  0  0  0
   35.6240   30.0960   46.3700 C   0  0  0  0  0  0  0  0  0  0  0  0
   36.3210   30.5220   45.2510 C   0  0  0  0  0  0  0  0  0  0  0  0
   37.5190   30.9580   45.7060 N   0  0  0  0  0  0  0  0  0  0  0  0
   37.5300   30.7980   47.0160 N   0  0  0  0  0  0  0  0  0  0  0  0
   38.6370   31.5100   44.9720 C   0  0  0  0  0  0  0  0  0  0  0  0
   38.1750   32.4380   43.8810 C   0  0  0  0  0  0  0  0  0  0  0  0
   39.3720   33.1410   43.2830 C   0  0  0  0  0  0  0  0  0  0  0  0
   40.1920   33.7050   44.2320 O   0  0  0  0  0  0  0  0  0  0  0  0
   40.6790   32.7860   45.1610 C   0  0  0  0  0  0  0  0  0  0  0  0
   39.4640   32.3250   45.9710 C   0  0  0  0  0  0  0  0  0  0  0  0
   36.9010   29.7410   49.8890 C   0  0  0  0  0  0  0  0  0  0  0  0
   36.0010   29.9430   48.8230 C   0  0  0  0  0  0  0  0  0  0  0  0
   34.6450   29.7990   49.1110 C   0  0  0  0  0  0  0  0  0  0  0  0
   34.2710   29.4760   50.3880 N   0  0  0  0  0  0  0  0  0  0  0  0
   35.1680   29.2920   51.3750 C   0  0  0  0  0  0  0  0  0  0  0  0
   36.4940   29.4260   51.1220 N   0  0  0  0  0  0  0  0  0  0  0  0
   34.6063   29.6785   46.3696 H   0  0  0  0  0  0  0  0  0  0  0  0
   35.9726   30.5087   44.2077 H   0  0  0  0  0  0  0  0  0  0  0  0
   39.2113   30.6937   44.5096 H   0  0  0  0  0  0  0  0  0  0  0  0
   37.6606   31.8593   43.0997 H   0  0  0  0  0  0  0  0  0  0  0  0
   37.4816   33.1824   44.2995 H   0  0  0  0  0  0  0  0  0  0  0  0
   39.9558   32.4095   42.7050 H   0  0  0  0  0  0  0  0  0  0  0  0
   38.9928   33.9559   42.6488 H   0  0  0  0  0  0  0  0  0  0  0  0
   41.1429   31.9313   44.6469 H   0  0  0  0  0  0  0  0  0  0  0  0
   41.4490   33.2335   45.8067 H   0  0  0  0  0  0  0  0  0  0  0  0
   38.8906   33.1880   46.3405 H   0  0  0  0  0  0  0  0  0  0  0  0
   39.7457   31.7425   46.8606 H   0  0  0  0  0  0  0  0  0  0  0  0
   37.9792   29.8467   49.6985 H   0  0  0  0  0  0  0  0  0  0  0  0
   33.8881   29.9424   48.3258 H   0  0  0  0  0  0  0  0  0  0  0  0
   34.8253   29.0327   52.3876 H   0  0  0  0  0  0  0  0  0  0  0  0
  1 13  1  0
  2  1  1  0
  3  4  1  0
  3  2  2  0
  4  5  1  0
  5  1  2  0
  6  4  1  0
  6 11  1  0
  7  6  1  0
  8  7  1  0
  8  9  1  0
  9 10  1  0
 10 11  1  0
 12 17  2  0
 13 14  2  0
 13 12  1  0
 14 15  1  0
 15 16  2  0
 17 16  1  0
  2 18  1  0
  3 19  1  0
  6 20  1  0
  7 21  1  0
  7 22  1  0
  8 23  1  0
  8 24  1  0
 10 25  1  0
 10 26  1  0
 11 27  1  0
 11 28  1  0
 12 29  1  0
 14 30  1  0
 16 31  1  0
M  ISO  8  18  14  19  14  20  13  21  13  22  13  23  13  24  13  25  13
M  ISO  6  26  13  27  13  28  13  29  14  30  14  31  14
M  END
>  <minimizedAffinity>  (1) 
-4.66365623

>  <minimizedRMSD>  (1) 
3.85951495

$$$$
