
     RDKit          3D

 24 26  0  0  0  0  0  0  0  0999 V2000
   36.4610   30.4880   47.5050 C   0  0  0  0  0  0  0  0  0  0  0  0
   35.7930   30.0820   46.3440 C   0  0  0  0  0  0  0  0  0  0  0  0
   36.4180   30.6700   45.2500 C   0  0  0  0  0  0  0  0  0  0  0  0
   37.4400   31.4130   45.7610 N   0  0  0  0  0  0  0  0  0  0  0  0
   37.4360   31.2840   47.0810 N   0  0  0  0  0  0  0  0  0  0  0  0
   36.9860   29.7890   49.8460 C   0  0  0  0  0  0  0  0  0  0  0  0
   36.0810   30.0670   48.8260 C   0  0  0  0  0  0  0  0  0  0  0  0
   34.7190   29.9220   49.1260 C   0  0  0  0  0  0  0  0  0  0  0  0
   34.3700   29.5210   50.3850 N   0  0  0  0  0  0  0  0  0  0  0  0
   35.2980   29.2620   51.3480 C   0  0  0  0  0  0  0  0  0  0  0  0
   36.6190   29.4000   51.0680 N   0  0  0  0  0  0  0  0  0  0  0  0
   38.3000   32.1550   44.9620 C   0  0  0  0  0  0  0  0  0  0  0  0
   39.4320   32.8730   45.2310 C   0  0  0  0  0  0  0  0  0  0  0  0
   40.1180   33.5320   44.2500 C   0  0  0  0  0  0  0  0  0  0  0  0
   39.5150   33.3890   42.9040 C   0  0  0  0  0  0  0  0  0  0  0  0
   38.0100   32.2950   43.2620 S   0  0  0  0  0  0  0  0  0  0  0  0
   34.9217   29.4117   46.3039 H   0  0  0  0  0  0  0  0  0  0  0  0
   36.1441   30.5585   44.1905 H   0  0  0  0  0  0  0  0  0  0  0  0
   38.0600   29.8956   49.6334 H   0  0  0  0  0  0  0  0  0  0  0  0
   33.9500   30.1261   48.3664 H   0  0  0  0  0  0  0  0  0  0  0  0
   34.9775   28.9417   52.3504 H   0  0  0  0  0  0  0  0  0  0  0  0
   39.8009   32.9215   46.2662 H   0  0  0  0  0  0  0  0  0  0  0  0
   41.0317   34.1138   44.4414 H   0  0  0  0  0  0  0  0  0  0  0  0
   39.8534   33.8091   41.9454 H   0  0  0  0  0  0  0  0  0  0  0  0
  1  7  1  0
  2  1  1  0
  3  4  1  0
  3  2  2  0
  4  5  1  0
  5  1  2  0
  6 11  2  0
  7  8  2  0
  7  6  1  0
  8  9  1  0
  9 10  2  0
 11 10  1  0
 12 13  2  0
 12  4  1  0
 14 13  1  0
 15 16  1  0
 15 14  2  0
 16 12  1  0
  2 17  1  0
  3 18  1  0
  6 19  1  0
  8 20  1  0
 10 21  1  0
 13 22  1  0
 14 23  1  0
 15 24  1  0
M  ISO  8  17  14  18  14  19  14  20  14  21  14  22  14  23  14  24  14
M  END
>  <minimizedAffinity>  (1) 
-4.43609428

>  <minimizedRMSD>  (1) 
3.81771493

$$$$
