
     RDKit          3D

 20 21  0  0  0  0  0  0  0  0999 V2000
   37.3200   30.2950   50.9470 C   0  0  0  0  0  0  0  0  0  0  0  0
   37.0000   30.9010   49.7340 C   0  0  0  0  0  0  0  0  0  0  0  0
   35.7210   30.6350   49.2060 C   0  0  0  0  0  0  0  0  0  0  0  0
   34.9000   29.8090   49.9180 N   0  0  0  0  0  0  0  0  0  0  0  0
   35.2620   29.2490   51.0880 C   0  0  0  0  0  0  0  0  0  0  0  0
   36.4860   29.4900   51.6150 N   0  0  0  0  0  0  0  0  0  0  0  0
   37.8890   31.7680   49.0060 C   0  0  0  0  0  0  0  0  0  0  0  0
   38.3340   31.5000   47.7040 C   0  0  0  0  0  0  0  0  0  0  0  0
   39.1720   32.5440   47.3170 C   0  0  0  0  0  0  0  0  0  0  0  0
   39.2170   33.3990   48.3630 N   0  0  0  0  0  0  0  0  0  0  0  0
   38.4550   32.9170   49.3380 N   0  0  0  0  0  0  0  0  0  0  0  0
   39.9780   34.6410   48.4060 C   0  0  0  0  0  0  0  0  0  0  0  0
   38.3128   30.4891   51.3791 H   0  0  0  0  0  0  0  0  0  0  0  0
   35.3954   31.0776   48.2531 H   0  0  0  0  0  0  0  0  0  0  0  0
   34.5585   28.5912   51.6194 H   0  0  0  0  0  0  0  0  0  0  0  0
   38.0690   30.6223   47.0963 H   0  0  0  0  0  0  0  0  0  0  0  0
   39.6924   32.6509   46.3538 H   0  0  0  0  0  0  0  0  0  0  0  0
   40.1535   34.9274   49.4535 H   0  0  0  0  0  0  0  0  0  0  0  0
   40.9433   34.4973   47.8985 H   0  0  0  0  0  0  0  0  0  0  0  0
   39.4117   35.4358   47.8985 H   0  0  0  0  0  0  0  0  0  0  0  0
  1  6  2  0
  2  1  1  0
  3  2  2  0
  3  4  1  0
  4  5  2  0
  5  6  1  0
  7 11  2  0
  7  2  1  0
  8  7  1  0
  9  8  2  0
  9 10  1  0
 10 12  1  0
 10 11  1  0
  1 13  1  0
  3 14  1  0
  5 15  1  0
  8 16  1  0
  9 17  1  0
 12 18  1  0
 12 19  1  0
 12 20  1  0
M  ISO  8  13  14  14  14  15  14  16  14  17  14  18   8  19   8  20   8
M  END
>  <minimizedAffinity>  (1) 
-4.21981192

>  <minimizedRMSD>  (1) 
0.315036952

$$$$
