
     RDKit          3D

 31 34  0  0  1  0  0  0  0  0999 V2000
   33.4610   29.0060   47.3820 C   0  0  0  0  0  0  0  0  0  0  0  0
   34.1210   29.2380   46.1860 C   0  0  0  0  0  0  0  0  0  0  0  0
   35.2770   29.9850   46.4750 C   0  0  0  0  0  0  0  0  0  0  0  0
   35.2850   30.1830   47.7990 N   0  0  0  0  0  0  0  0  0  0  0  0
   34.2180   29.6000   48.2890 N   0  0  0  0  0  0  0  0  0  0  0  0
   32.0180   27.2530   48.4530 C   0  0  0  0  0  0  0  0  0  0  0  0
   32.2310   28.2690   47.4880 C   0  0  0  0  0  0  0  0  0  0  0  0
   31.1830   28.5350   46.6280 C   0  0  0  0  0  0  0  0  0  0  0  0
   30.0280   27.8250   46.7470 N   0  0  0  0  0  0  0  0  0  0  0  0
   29.8750   26.8690   47.6810 C   0  0  0  0  0  0  0  0  0  0  0  0
   30.8830   26.5720   48.5530 N   0  0  0  0  0  0  0  0  0  0  0  0
   36.2900   30.9050   48.5470 C   0  0  1  0  0  0  0  0  0  0  0  0
   37.4460   30.0650   49.1690 C   0  0  0  0  0  0  0  0  0  0  0  0
   37.6560   31.0190   48.0360 C   0  0  2  0  0  0  0  0  0  0  0  0
   38.4330   32.2740   48.2890 C   0  0  0  0  0  0  0  0  0  0  0  0
   39.2190   32.9240   47.3340 C   0  0  0  0  0  0  0  0  0  0  0  0
   39.7750   34.0180   47.8970 N   0  0  0  0  0  0  0  0  0  0  0  0
   39.3560   34.0680   49.1810 C   0  0  0  0  0  0  0  0  0  0  0  0
   38.5430   33.0170   49.4280 N   0  0  0  0  0  0  0  0  0  0  0  0
   33.7990   28.8991   45.1903 H   0  0  0  0  0  0  0  0  0  0  0  0
   36.0285   30.3380   45.7534 H   0  0  0  0  0  0  0  0  0  0  0  0
   32.8330   27.0173   49.1532 H   0  0  0  0  0  0  0  0  0  0  0  0
   31.2810   29.3121   45.8556 H   0  0  0  0  0  0  0  0  0  0  0  0
   28.9245   26.3188   47.7432 H   0  0  0  0  0  0  0  0  0  0  0  0
   35.5461   31.6336   48.9017 H   0  0  0  0  0  0  0  0  0  0  0  0
   37.8277   30.2997   50.1736 H   0  0  0  0  0  0  0  0  0  0  0  0
   37.6411   28.9986   49.3556 H   0  0  0  0  0  0  0  0  0  0  0  0
   38.0934   30.9226   47.0313 H   0  0  0  0  0  0  0  0  0  0  0  0
   39.3616   32.5976   46.2932 H   0  0  0  0  0  0  0  0  0  0  0  0
   40.4027   34.6904   47.4335 H   0  0  0  0  0  0  0  0  0  0  0  0
   39.6333   34.8429   49.9108 H   0  0  0  0  0  0  0  0  0  0  0  0
  1  7  1  0
  1  5  2  0
  2  3  2  0
  2  1  1  0
  3  4  1  0
  4  5  1  0
  4 12  1  0
  6 11  2  0
  7  6  1  0
  8  9  1  0
  8  7  2  0
  9 10  2  0
 10 11  1  0
 12 13  1  0
 14 15  1  0
 14 12  1  0
 14 13  1  0
 15 19  1  0
 16 17  1  0
 16 15  2  0
 17 18  1  0
 18 19  2  0
  2 20  1  0
  3 21  1  0
  6 22  1  0
  8 23  1  0
 10 24  1  0
 12 25  1  1
 13 26  1  0
 13 27  1  0
 14 28  1  6
 16 29  1  0
 17 30  1  0
 18 31  1  0
M  ISO  8  20  14  21  14  22  14  23  14  24  14  25  13  26  13  27  13
M  ISO  4  28  13  29  14  30   9  31  14
M  END
>  <minimizedAffinity>  (1) 
-5.18098259

>  <minimizedRMSD>  (1) 
4.05429506

$$$$
