
     RDKit          3D

 36 38  0  0  0  0  0  0  0  0999 V2000
   36.8646   30.7988   48.3366 C   0  0  0  0  0  0  0  0  0  0  0  0
   37.9847   30.6700   47.5247 C   0  0  0  0  0  0  0  0  0  0  0  0
   38.7724   31.8141   47.6826 C   0  0  0  0  0  0  0  0  0  0  0  0
   38.1171   32.5943   48.5736 N   0  0  0  0  0  0  0  0  0  0  0  0
   37.0064   31.9805   48.9411 N   0  0  0  0  0  0  0  0  0  0  0  0
   35.7015   28.9284   49.5309 C   0  0  0  0  0  0  0  0  0  0  0  0
   35.8342   29.8058   48.4275 C   0  0  0  0  0  0  0  0  0  0  0  0
   34.9059   29.6658   47.4103 C   0  0  0  0  0  0  0  0  0  0  0  0
   33.9385   28.7132   47.5253 N   0  0  0  0  0  0  0  0  0  0  0  0
   33.8511   27.9030   48.5904 C   0  0  0  0  0  0  0  0  0  0  0  0
   34.7466   28.0126   49.6088 N   0  0  0  0  0  0  0  0  0  0  0  0
   38.5410   33.8944   49.0625 C   0  0  1  0  0  0  0  0  0  0  0  0
   39.7125   33.8933   50.0910 C   0  0  0  0  0  0  0  0  0  0  0  0
   39.8714   34.4046   48.7177 C   0  0  2  0  0  0  0  0  0  0  0  0
   38.2486   29.8446   46.8642 H   0  0  0  0  0  0  0  0  0  0  0  0
   39.7110   32.0100   47.1816 H   0  0  0  0  0  0  0  0  0  0  0  0
   36.4017   29.0157   50.3249 H   0  0  0  0  0  0  0  0  0  0  0  0
   34.9508   30.3067   46.5358 H   0  0  0  0  0  0  0  0  0  0  0  0
   33.0315   27.1941   48.5449 H   0  0  0  0  0  0  0  0  0  0  0  0
   37.7280   34.5984   49.1965 H   0  0  0  0  0  0  0  0  0  0  0  0
   39.4575   34.4682   50.9750 H   0  0  0  0  0  0  0  0  0  0  0  0
   40.1063   32.8552   50.3227 H   0  0  0  0  0  0  0  0  0  0  0  0
   40.4657   33.7088   48.0408 H   0  0  0  0  0  0  0  0  0  0  0  0
   40.0458   35.8691   48.4146 C   0  0  0  0  0  0  0  0  0  0  0  0
   39.1562   36.7567   49.0807 N   0  0  0  0  0  4  0  0  0  0  0  0
   38.1461   37.3267   48.1753 C   0  0  0  0  0  0  0  0  0  0  0  0
   37.7870   38.2653   48.6866 H   0  0  0  0  0  0  0  0  0  0  0  0
   39.9124   37.9416   49.5359 C   0  0  0  0  0  0  0  0  0  0  0  0
   40.9877   37.6688   49.6513 H   0  0  0  0  0  0  0  0  0  0  0  0
   40.0451   36.0278   47.2950 H   0  0  0  0  0  0  0  0  0  0  0  0
   41.1042   36.1533   48.6940 H   0  0  0  0  0  0  0  0  0  0  0  0
   38.7256   36.3741   49.9330 H   0  0  0  0  0  0  0  0  0  0  0  0
   38.6784   37.5331   47.2267 H   0  0  0  0  0  0  0  0  0  0  0  0
   37.2676   36.6984   48.0508 H   0  0  0  0  0  0  0  0  0  0  0  0
   39.9038   38.7380   48.7577 H   0  0  0  0  0  0  0  0  0  0  0  0
   39.4585   38.3660   50.4411 H   0  0  0  0  0  0  0  0  0  0  0  0
  1  7  1  0
  1  5  2  0
  2  3  2  0
  2  1  1  0
  3  4  1  0
  4  5  1  0
  4 12  1  0
  6 11  2  0
  7  6  1  0
  8  9  1  0
  8  7  2  0
  9 10  2  0
 10 11  1  0
 12 13  1  0
 14 12  1  0
 14 13  1  0
  2 15  1  0
  3 16  1  0
  6 17  1  0
  8 18  1  0
 10 19  1  0
 12 20  1  1
 13 21  1  0
 13 22  1  0
 14 23  1  6
 24 25  1  0
 25 26  1  0
 26 27  1  0
 25 28  1  0
 28 29  1  0
 24 30  1  0
 24 31  1  0
 25 32  1  0
 26 33  1  0
 26 34  1  0
 28 35  1  0
 28 36  1  0
 14 24  1  0
M  CHG  1  25   1
M  END
>  <DihAtoms>  (1) 
11,13,23,24

>  <DihDeg>  (1) 
60.0972578681411

$$$$
