
     RDKit          3D

 26 28  0  0  1  0  0  0  0  0999 V2000
   34.7070   29.7890   47.8630 C   0  0  0  0  0  0  0  0  0  0  0  0
   35.6030   29.9770   46.8260 C   0  0  0  0  0  0  0  0  0  0  0  0
   36.6450   30.7870   47.3170 C   0  0  0  0  0  0  0  0  0  0  0  0
   36.3490   31.0560   48.6050 N   0  0  0  0  0  0  0  0  0  0  0  0
   35.2210   30.4640   48.8920 N   0  0  0  0  0  0  0  0  0  0  0  0
   33.0810   28.0870   48.7310 C   0  0  0  0  0  0  0  0  0  0  0  0
   33.5000   29.0080   47.7470 C   0  0  0  0  0  0  0  0  0  0  0  0
   32.6920   29.1450   46.6370 C   0  0  0  0  0  0  0  0  0  0  0  0
   31.5590   28.4040   46.5380 N   0  0  0  0  0  0  0  0  0  0  0  0
   31.1910   27.5340   47.4980 C   0  0  0  0  0  0  0  0  0  0  0  0
   31.9580   27.3730   48.6020 N   0  0  0  0  0  0  0  0  0  0  0  0
   37.1430   31.8560   49.4990 C   0  0  1  0  0  0  0  0  0  0  0  0
   38.3310   31.1760   50.2050 C   0  0  0  0  0  0  0  0  0  0  0  0
   38.5380   32.2060   49.1630 C   0  0  2  0  0  0  0  0  0  0  0  0
   38.9290   33.5960   49.5490 C   0  0  0  0  0  0  0  0  0  0  0  0
   39.6440   34.1520   48.7230 O   0  0  0  0  0  0  0  0  0  0  0  0
   35.5175   29.5697   45.8078 H   0  0  0  0  0  0  0  0  0  0  0  0
   37.5278   31.1327   46.7591 H   0  0  0  0  0  0  0  0  0  0  0  0
   33.6975   27.9525   49.6320 H   0  0  0  0  0  0  0  0  0  0  0  0
   32.9641   29.8500   45.8377 H   0  0  0  0  0  0  0  0  0  0  0  0
   30.2643   26.9524   47.3847 H   0  0  0  0  0  0  0  0  0  0  0  0
   36.2565   32.4353   49.7964 H   0  0  0  0  0  0  0  0  0  0  0  0
   38.5522   31.4015   51.2587 H   0  0  0  0  0  0  0  0  0  0  0  0
   38.6633   30.1394   50.3631 H   0  0  0  0  0  0  0  0  0  0  0  0
   39.1636   32.2083   48.2582 H   0  0  0  0  0  0  0  0  0  0  0  0
   38.6059   34.0745   50.4853 H   0  0  0  0  0  0  0  0  0  0  0  0
  1  5  2  0
  2  3  2  0
  2  1  1  0
  3  4  1  0
  4  5  1  0
  4 12  1  0
  7  1  1  0
  7  6  2  0
  8  7  1  0
  9  8  2  0
  9 10  1  0
 10 11  2  0
 11  6  1  0
 12 13  1  0
 14 12  1  0
 14 15  1  0
 14 13  1  0
 16 15  2  0
  2 17  1  0
  3 18  1  0
  6 19  1  0
  8 20  1  0
 10 21  1  0
 12 22  1  1
 13 23  1  0
 13 24  1  0
 14 25  1  6
 15 26  1  0
M  ISO  8  17  14  18  14  19  14  20  14  21  14  22  13  23  13  24  13
M  ISO  2  25  13  26   6
M  END
>  <minimizedAffinity>  (1) 
-4.73467922

>  <minimizedRMSD>  (1) 
2.62523866

$$$$
