
     RDKit          3D

 38 42  0  0  1  0  0  0  0  0999 V2000
   34.0300   29.1060   49.0750 C   0  0  1  0  0  0  0  0  0  0  0  0
   35.2300   28.5110   49.8860 C   0  0  0  0  0  0  0  0  0  0  0  0
   35.3200   28.8010   48.4320 C   0  0  2  0  0  0  0  0  0  0  0  0
   30.8530   27.4080   49.0270 C   0  0  0  0  0  0  0  0  0  0  0  0
   31.5890   26.5860   48.1740 C   0  0  0  0  0  0  0  0  0  0  0  0
   32.8870   27.1180   48.0780 C   0  0  0  0  0  0  0  0  0  0  0  0
   32.8990   28.2180   48.8560 N   0  0  0  0  0  0  0  0  0  0  0  0
   31.7070   28.3530   49.3880 N   0  0  0  0  0  0  0  0  0  0  0  0
   29.0160   27.0750   50.6940 C   0  0  0  0  0  0  0  0  0  0  0  0
   29.4770   27.1660   49.3590 C   0  0  0  0  0  0  0  0  0  0  0  0
   28.5380   27.0130   48.3460 C   0  0  0  0  0  0  0  0  0  0  0  0
   27.2370   26.7840   48.6900 N   0  0  0  0  0  0  0  0  0  0  0  0
   26.8460   26.7040   49.9840 C   0  0  0  0  0  0  0  0  0  0  0  0
   27.7470   26.8520   51.0050 N   0  0  0  0  0  0  0  0  0  0  0  0
   36.1840   29.9380   47.9750 C   0  0  0  0  0  0  0  0  0  0  0  0
   36.3280   30.3220   46.6300 C   0  0  0  0  0  0  0  0  0  0  0  0
   37.1820   31.3800   46.5910 N   0  0  0  0  0  0  0  0  0  0  0  0
   37.5580   31.6480   47.8570 C   0  0  0  0  0  0  0  0  0  0  0  0
   36.9600   30.7830   48.6900 N   0  0  0  0  0  0  0  0  0  0  0  0
   38.4770   32.7270   48.1990 C   0  0  0  0  0  0  0  0  0  0  0  0
   39.4150   33.3580   47.4090 C   0  0  0  0  0  0  0  0  0  0  0  0
   40.0490   34.2990   48.1230 N   0  0  0  0  0  0  0  0  0  0  0  0
   39.5110   34.2650   49.3750 C   0  0  0  0  0  0  0  0  0  0  0  0
   38.5600   33.3090   49.4090 N   0  0  0  0  0  0  0  0  0  0  0  0
   33.3869   29.9969   49.1264 H   0  0  0  0  0  0  0  0  0  0  0  0
   35.7737   29.1332   50.6121 H   0  0  0  0  0  0  0  0  0  0  0  0
   35.3926   27.6337   50.5294 H   0  0  0  0  0  0  0  0  0  0  0  0
   35.6031   28.1953   47.5585 H   0  0  0  0  0  0  0  0  0  0  0  0
   31.2198   25.6825   47.6667 H   0  0  0  0  0  0  0  0  0  0  0  0
   33.7237   26.7171   47.4871 H   0  0  0  0  0  0  0  0  0  0  0  0
   29.7436   27.1947   51.5102 H   0  0  0  0  0  0  0  0  0  0  0  0
   28.8368   27.0751   47.2892 H   0  0  0  0  0  0  0  0  0  0  0  0
   25.7878   26.5171   50.2190 H   0  0  0  0  0  0  0  0  0  0  0  0
   35.8381   29.8514   45.7648 H   0  0  0  0  0  0  0  0  0  0  0  0
   37.4863   31.8850   45.7465 H   0  0  0  0  0  0  0  0  0  0  0  0
   39.6130   33.1244   46.3525 H   0  0  0  0  0  0  0  0  0  0  0  0
   40.7963   34.9251   47.7906 H   0  0  0  0  0  0  0  0  0  0  0  0
   39.8035   34.9095   50.2170 H   0  0  0  0  0  0  0  0  0  0  0  0
  1  2  1  0
  3  1  1  0
  3  2  1  0
  4 10  1  0
  4  8  2  0
  5  4  1  0
  6  5  2  0
  6  7  1  0
  7  1  1  0
  7  8  1  0
  9 14  2  0
 10  9  1  0
 11 12  1  0
 11 10  2  0
 12 13  2  0
 13 14  1  0
 15  3  1  0
 15 19  1  0
 16 15  2  0
 17 16  1  0
 17 18  1  0
 18 20  1  0
 18 19  2  0
 20 24  1  0
 21 22  1  0
 21 20  2  0
 22 23  1  0
 23 24  2  0
  1 25  1  1
  2 26  1  0
  2 27  1  0
  3 28  1  6
  5 29  1  0
  6 30  1  0
  9 31  1  0
 11 32  1  0
 13 33  1  0
 16 34  1  0
 17 35  1  0
 21 36  1  0
 22 37  1  0
 23 38  1  0
M  ISO  8  25  13  26  13  27  13  28  13  29  14  30  14  31  14  32  14
M  ISO  6  33  14  34  14  35   9  36  14  37   9  38  14
M  END
>  <minimizedAffinity>  (1) 
-5.64169407

>  <minimizedRMSD>  (1) 
3.52313209

$$$$
