
     RDKit          3D

 39 41  0  0  0  0  0  0  0  0999 V2000
   29.9740   26.4810   47.9660 O   0  0  0  0  0  0  0  0  0  0  0  0
   30.8540   27.6870   48.3500 P   0  0  2  0  0  0  0  0  0  0  0  0
   30.9230   28.8290   47.1230 O   0  0  0  0  0  0  0  0  0  0  0  0
   32.4050   26.9920   48.5220 O   0  0  0  0  0  0  0  0  0  0  0  0
   33.2390   27.5290   47.5390 C   0  0  0  0  0  0  0  0  0  0  0  0
   34.6890   28.2950   49.4110 C   0  0  0  0  0  0  0  0  0  0  0  0
   34.3610   28.2880   48.1460 C   0  0  0  0  0  0  0  0  0  0  0  0
   37.1330   30.1130   51.4250 C   0  0  0  0  0  0  0  0  0  0  0  0
   37.9940   30.6540   50.4670 C   0  0  0  0  0  0  0  0  0  0  0  0
   37.7020   30.3710   49.1300 C   0  0  0  0  0  0  0  0  0  0  0  0
   36.6090   29.5940   48.8330 N   0  0  0  0  0  0  0  0  0  0  0  0
   35.8220   29.1060   49.8050 C   0  0  0  0  0  0  0  0  0  0  0  0
   36.0900   29.3690   51.0820 N   0  0  0  0  0  0  0  0  0  0  0  0
   30.3330   28.3610   49.8140 O   0  0  0  0  0  0  0  0  0  0  0  0
   29.0610   28.0390   50.2670 C   0  0  0  0  0  0  0  0  0  0  0  0
   28.8050   27.0750   51.2130 C   0  0  0  0  0  0  0  0  0  0  0  0
   27.5830   26.7170   51.6940 C   0  0  0  0  0  0  0  0  0  0  0  0
   26.4690   27.3860   51.1880 C   0  0  0  0  0  0  0  0  0  0  0  0
   26.6510   28.3660   50.2370 C   0  0  0  0  0  0  0  0  0  0  0  0
   25.5080   28.9790   49.7860 C   0  0  0  0  0  0  0  0  0  0  0  0
   25.6070   29.9620   48.8420 C   0  0  0  0  0  0  0  0  0  0  0  0
   26.8740   30.2910   48.3830 C   0  0  0  0  0  0  0  0  0  0  0  0
   28.0490   29.6820   48.8250 C   0  0  0  0  0  0  0  0  0  0  0  0
   27.9270   28.6810   49.7890 C   0  0  0  0  0  0  0  0  0  0  0  0
   30.9777   29.7351   47.5182 H   0  0  0  0  0  0  0  0  0  0  0  0
   32.6520   28.2052   46.9001 H   0  0  0  0  0  0  0  0  0  0  0  0
   33.6571   26.7023   46.9459 H   0  0  0  0  0  0  0  0  0  0  0  0
   34.1250   27.7063   50.1495 H   0  0  0  0  0  0  0  0  0  0  0  0
   34.9730   28.9013   47.4683 H   0  0  0  0  0  0  0  0  0  0  0  0
   37.3249   30.3090   52.4903 H   0  0  0  0  0  0  0  0  0  0  0  0
   38.8586   31.2719   50.7509 H   0  0  0  0  0  0  0  0  0  0  0  0
   38.3397   30.7657   48.3253 H   0  0  0  0  0  0  0  0  0  0  0  0
   29.6744   26.5395   51.6221 H   0  0  0  0  0  0  0  0  0  0  0  0
   27.4781   25.9288   52.4541 H   0  0  0  0  0  0  0  0  0  0  0  0
   25.4588   27.1347   51.5433 H   0  0  0  0  0  0  0  0  0  0  0  0
   24.5247   28.6824   50.1798 H   0  0  0  0  0  0  0  0  0  0  0  0
   24.7124   30.4750   48.4591 H   0  0  0  0  0  0  0  0  0  0  0  0
   26.9576   31.0817   47.6228 H   0  0  0  0  0  0  0  0  0  0  0  0
   29.0315   29.9791   48.4295 H   0  0  0  0  0  0  0  0  0  0  0  0
  2  1  2  0
  2  4  1  0
  2 14  1  0
  3  2  1  0
  5  7  1  0
  5  4  1  0
  6 12  1  0
  7  6  2  0
  9  8  2  0
 10  9  1  0
 11 10  2  0
 11 12  1  0
 12 13  2  0
 13  8  1  0
 14 15  1  0
 15 16  2  0
 16 17  1  0
 18 17  2  0
 19 18  1  0
 20 19  2  0
 21 20  1  0
 22 23  1  0
 22 21  2  0
 23 24  2  0
 24 19  1  0
 24 15  1  0
  3 25  1  0
  5 26  1  0
  5 27  1  0
  6 28  1  0
  7 29  1  0
  8 30  1  0
  9 31  1  0
 10 32  1  0
 16 33  1  0
 17 34  1  0
 18 35  1  0
 20 36  1  0
 21 37  1  0
 22 38  1  0
 23 39  1  0
M  ISO  8  25   3  26   8  27   8  30  14  31  14  32  14  33  14  34  14
M  ISO  5  35  14  36  14  37  14  38  14  39  14
M  END
>  <minimizedAffinity>  (1) 
-6.76566982

>  <minimizedRMSD>  (1) 
1.13810492

$$$$
