
     RDKit          3D

 46 51  0  0  1  0  0  0  0  0999 V2000
   31.0720   27.4540   49.2320 C   0  0  1  0  0  0  0  0  0  0  0  0
   31.3540   26.3120   48.1880 C   0  0  0  0  0  0  0  0  0  0  0  0
   31.5470   27.7660   47.8850 C   0  0  2  0  0  0  0  0  0  0  0  0
   27.6770   28.5910   49.5900 C   0  0  0  0  0  0  0  0  0  0  0  0
   27.6920   27.5450   50.5090 C   0  0  0  0  0  0  0  0  0  0  0  0
   28.9840   26.9720   50.4960 C   0  0  0  0  0  0  0  0  0  0  0  0
   29.6860   27.6730   49.5950 N   0  0  0  0  0  0  0  0  0  0  0  0
   28.8960   28.5910   49.1000 N   0  0  0  0  0  0  0  0  0  0  0  0
   25.1900   28.9070   49.5130 C   0  0  0  0  0  0  0  0  0  0  0  0
   26.5200   29.3980   49.3400 C   0  0  0  0  0  0  0  0  0  0  0  0
   26.6500   30.6950   48.9190 C   0  0  0  0  0  0  0  0  0  0  0  0
   25.5290   31.4380   48.6900 N   0  0  0  0  0  0  0  0  0  0  0  0
   24.2900   30.9350   48.8650 C   0  0  0  0  0  0  0  0  0  0  0  0
   24.1150   29.6580   49.2810 N   0  0  0  0  0  0  0  0  0  0  0  0
   32.9370   28.2890   47.6940 C   0  0  0  0  0  0  0  0  0  0  0  0
   33.6080   28.3520   46.4800 C   0  0  0  0  0  0  0  0  0  0  0  0
   34.8310   28.8980   46.7140 N   0  0  0  0  0  0  0  0  0  0  0  0
   34.9430   29.1750   48.0360 C   0  0  0  0  0  0  0  0  0  0  0  0
   33.7870   28.8020   48.6240 N   0  0  0  0  0  0  0  0  0  0  0  0
   36.1170   29.7870   48.7260 C   0  0  0  0  0  0  0  0  0  0  0  0
   36.5920   29.2660   49.9450 C   0  0  0  0  0  0  0  0  0  0  0  0
   38.0020   30.3830   50.3130 S   0  0  0  0  0  0  0  0  0  0  0  0
   37.6880   31.3630   48.7300 C   0  0  0  0  0  0  0  0  0  0  0  0
   36.8030   30.8190   48.3070 N   0  0  0  0  0  0  0  0  0  0  0  0
   38.6060   32.5060   48.4620 C   0  0  0  0  0  0  0  0  0  0  0  0
   38.8640   33.4820   49.3800 C   0  0  0  0  0  0  0  0  0  0  0  0
   39.7360   34.4830   48.9980 C   0  0  0  0  0  0  0  0  0  0  0  0
   40.2880   34.4430   47.7330 C   0  0  0  0  0  0  0  0  0  0  0  0
   39.9780   33.4170   46.8540 C   0  0  0  0  0  0  0  0  0  0  0  0
   39.1170   32.4310   47.2340 N   0  0  0  0  0  0  0  0  0  0  0  0
   31.4138   27.7274   50.2412 H   0  0  0  0  0  0  0  0  0  0  0  0
   32.2215   25.6465   48.3087 H   0  0  0  0  0  0  0  0  0  0  0  0
   30.7887   25.4758   47.7506 H   0  0  0  0  0  0  0  0  0  0  0  0
   31.1698   28.4298   47.0931 H   0  0  0  0  0  0  0  0  0  0  0  0
   26.8472   27.2216   51.1349 H   0  0  0  0  0  0  0  0  0  0  0  0
   29.3400   26.1250   51.1009 H   0  0  0  0  0  0  0  0  0  0  0  0
   25.0483   27.8697   49.8505 H   0  0  0  0  0  0  0  0  0  0  0  0
   27.6476   31.1328   48.7672 H   0  0  0  0  0  0  0  0  0  0  0  0
   23.4125   31.5684   48.6679 H   0  0  0  0  0  0  0  0  0  0  0  0
   33.2203   28.0203   45.5055 H   0  0  0  0  0  0  0  0  0  0  0  0
   35.5548   29.0727   46.0023 H   0  0  0  0  0  0  0  0  0  0  0  0
   36.2158   28.4112   50.5262 H   0  0  0  0  0  0  0  0  0  0  0  0
   38.3996   33.4722   50.3771 H   0  0  0  0  0  0  0  0  0  0  0  0
   39.9868   35.2996   49.6911 H   0  0  0  0  0  0  0  0  0  0  0  0
   40.9828   35.2357   47.4187 H   0  0  0  0  0  0  0  0  0  0  0  0
   40.4268   33.3985   45.8499 H   0  0  0  0  0  0  0  0  0  0  0  0
  1  7  1  0
  2  1  1  0
  3  2  1  0
  3  1  1  0
  4  5  1  0
  6  5  2  0
  7  6  1  0
  8  4  2  0
  8  7  1  0
 10  9  2  0
 10  4  1  0
 11 10  1  0
 12 13  1  0
 12 11  2  0
 13 14  2  0
 14  9  1  0
 15  3  1  0
 15 19  1  0
 16 17  1  0
 16 15  2  0
 17 18  1  0
 18 19  2  0
 18 20  1  0
 20 21  2  0
 21 22  1  0
 23 22  1  0
 24 20  1  0
 24 23  2  0
 25 23  1  0
 25 26  2  0
 27 26  1  0
 28 27  2  0
 29 30  2  0
 29 28  1  0
 30 25  1  0
  1 31  1  1
  2 32  1  0
  2 33  1  0
  3 34  1  6
  5 35  1  0
  6 36  1  0
  9 37  1  0
 11 38  1  0
 13 39  1  0
 16 40  1  0
 17 41  1  0
 21 42  1  0
 26 43  1  0
 27 44  1  0
 28 45  1  0
 29 46  1  0
M  ISO  8  31  13  32  13  33  13  34  13  35  14  36  14  37  14  38  14
M  ISO  8  39  14  40  14  41   9  42  14  43  14  44  14  45  14  46  14
M  END
>  <minimizedAffinity>  (1) 
-7.28609848

>  <minimizedRMSD>  (1) 
2.24907684

$$$$
