
     RDKit          3D

 40 44  0  0  1  0  0  0  0  0999 V2000
   31.6570   28.1520   47.2520 C   0  0  1  0  0  0  0  0  0  0  0  0
   32.4210   27.0320   46.4440 C   0  0  0  0  0  0  0  0  0  0  0  0
   32.5040   28.4900   46.1070 C   0  0  2  0  0  0  0  0  0  0  0  0
   28.1130   28.6390   47.6150 C   0  0  0  0  0  0  0  0  0  0  0  0
   28.1430   27.8520   46.4640 C   0  0  0  0  0  0  0  0  0  0  0  0
   29.4970   27.5620   46.1730 C   0  0  0  0  0  0  0  0  0  0  0  0
   30.2160   28.1670   47.1310 N   0  0  0  0  0  0  0  0  0  0  0  0
   29.3770   28.7750   47.9380 N   0  0  0  0  0  0  0  0  0  0  0  0
   25.9290   28.2600   48.7770 C   0  0  0  0  0  0  0  0  0  0  0  0
   26.8950   29.1160   48.1930 C   0  0  0  0  0  0  0  0  0  0  0  0
   26.6110   30.4690   48.2020 C   0  0  0  0  0  0  0  0  0  0  0  0
   25.4430   30.8940   48.7590 N   0  0  0  0  0  0  0  0  0  0  0  0
   24.5530   30.0420   49.3030 C   0  0  0  0  0  0  0  0  0  0  0  0
   24.7940   28.7120   49.3140 N   0  0  0  0  0  0  0  0  0  0  0  0
   33.8010   29.2110   46.3390 C   0  0  0  0  0  0  0  0  0  0  0  0
   34.5510   29.8350   45.3510 C   0  0  0  0  0  0  0  0  0  0  0  0
   35.6450   30.3890   45.9520 N   0  0  0  0  0  0  0  0  0  0  0  0
   35.5890   30.1230   47.2780 C   0  0  0  0  0  0  0  0  0  0  0  0
   34.4690   29.4090   47.4990 N   0  0  0  0  0  0  0  0  0  0  0  0
   36.5710   30.5410   48.3180 C   0  0  0  0  0  0  0  0  0  0  0  0
   36.8570   29.7400   49.4270 C   0  0  0  0  0  0  0  0  0  0  0  0
   38.0880   30.7110   50.3640 S   0  0  0  0  0  0  0  0  0  0  0  0
   38.0120   32.0970   49.0510 C   0  0  0  0  0  0  0  0  0  0  0  0
   37.2530   31.6620   48.3330 N   0  0  0  0  0  0  0  0  0  0  0  0
   38.7920   33.3770   49.0700 C   0  0  0  0  0  0  0  0  0  0  0  0
   39.5500   33.4170   50.2480 F   0  0  0  0  0  0  0  0  0  0  0  0
   37.8670   34.3780   49.1460 F   0  0  0  0  0  0  0  0  0  0  0  0
   39.6240   33.4680   47.9630 F   0  0  0  0  0  0  0  0  0  0  0  0
   31.6070   28.5057   48.2924 H   0  0  0  0  0  0  0  0  0  0  0  0
   33.2820   26.5113   46.8884 H   0  0  0  0  0  0  0  0  0  0  0  0
   32.1500   26.1064   45.9150 H   0  0  0  0  0  0  0  0  0  0  0  0
   32.3221   29.0637   45.1862 H   0  0  0  0  0  0  0  0  0  0  0  0
   27.2696   27.5165   45.8855 H   0  0  0  0  0  0  0  0  0  0  0  0
   29.8813   26.9635   45.3339 H   0  0  0  0  0  0  0  0  0  0  0  0
   26.1226   27.1772   48.7883 H   0  0  0  0  0  0  0  0  0  0  0  0
   27.3173   31.1910   47.7661 H   0  0  0  0  0  0  0  0  0  0  0  0
   23.6226   30.4316   49.7418 H   0  0  0  0  0  0  0  0  0  0  0  0
   34.3081   29.8757   44.2789 H   0  0  0  0  0  0  0  0  0  0  0  0
   36.3881   30.9202   45.4761 H   0  0  0  0  0  0  0  0  0  0  0  0
   36.4382   28.7541   49.6773 H   0  0  0  0  0  0  0  0  0  0  0  0
  2  1  1  0
  3 15  1  0
  3  2  1  0
  3  1  1  0
  4  8  2  0
  4 10  1  0
  5  4  1  0
  6  5  2  0
  6  7  1  0
  7  1  1  0
  7  8  1  0
  9 14  2  0
 10 11  2  0
 10  9  1  0
 11 12  1  0
 12 13  2  0
 13 14  1  0
 15 19  1  0
 16 17  1  0
 16 15  2  0
 17 18  1  0
 18 19  2  0
 18 20  1  0
 20 24  1  0
 20 21  2  0
 21 22  1  0
 23 25  1  0
 23 22  1  0
 24 23  2  0
 25 27  1  0
 25 26  1  0
 28 25  1  0
  1 29  1  1
  2 30  1  0
  2 31  1  0
  3 32  1  6
  5 33  1  0
  6 34  1  0
  9 35  1  0
 11 36  1  0
 13 37  1  0
 16 38  1  0
 17 39  1  0
 21 40  1  0
M  ISO  8  29  13  30  13  31  13  32  13  33  14  34  14  35  14  36  14
M  ISO  4  37  14  38  14  39   9  40  14
M  END
>  <minimizedAffinity>  (1) 
-6.77525568

>  <minimizedRMSD>  (1) 
0.817433

$$$$
