
     RDKit          3D

 40 44  0  0  1  0  0  0  0  0999 V2000
   31.7090   28.2220   47.2450 C   0  0  1  0  0  0  0  0  0  0  0  0
   32.4840   27.1170   46.4390 C   0  0  0  0  0  0  0  0  0  0  0  0
   32.5750   28.5810   46.1220 C   0  0  2  0  0  0  0  0  0  0  0  0
   28.1580   28.6910   47.5760 C   0  0  0  0  0  0  0  0  0  0  0  0
   28.2100   27.9640   46.3870 C   0  0  0  0  0  0  0  0  0  0  0  0
   29.5650   27.6880   46.1010 C   0  0  0  0  0  0  0  0  0  0  0  0
   30.2670   28.2420   47.1000 N   0  0  0  0  0  0  0  0  0  0  0  0
   29.4190   28.8110   47.9280 N   0  0  0  0  0  0  0  0  0  0  0  0
   25.9800   28.2530   48.7370 C   0  0  0  0  0  0  0  0  0  0  0  0
   26.9330   29.1420   48.1640 C   0  0  0  0  0  0  0  0  0  0  0  0
   26.6280   30.4860   48.1980 C   0  0  0  0  0  0  0  0  0  0  0  0
   25.4550   30.8860   48.7650 N   0  0  0  0  0  0  0  0  0  0  0  0
   24.5830   30.0150   49.2940 C   0  0  0  0  0  0  0  0  0  0  0  0
   24.8390   28.6680   49.2860 N   0  0  0  0  0  0  0  0  0  0  0  0
   33.8670   29.2990   46.3760 C   0  0  0  0  0  0  0  0  0  0  0  0
   34.6340   29.9300   45.4130 C   0  0  0  0  0  0  0  0  0  0  0  0
   35.7140   30.4750   46.0370 N   0  0  0  0  0  0  0  0  0  0  0  0
   35.6370   30.2010   47.3610 C   0  0  0  0  0  0  0  0  0  0  0  0
   34.5110   29.4840   47.5610 N   0  0  0  0  0  0  0  0  0  0  0  0
   36.6050   30.6120   48.4200 C   0  0  0  0  0  0  0  0  0  0  0  0
   36.8880   29.7790   49.5120 C   0  0  0  0  0  0  0  0  0  0  0  0
   38.1040   30.7540   50.4720 S   0  0  0  0  0  0  0  0  0  0  0  0
   38.0160   32.1490   49.2000 C   0  0  0  0  0  0  0  0  0  0  0  0
   37.2730   31.7420   48.4590 N   0  0  0  0  0  0  0  0  0  0  0  0
   38.7880   33.4760   49.2300 C   0  0  0  0  0  0  0  0  0  0  0  0
   31.6408   28.5580   48.2902 H   0  0  0  0  0  0  0  0  0  0  0  0
   33.3363   26.5895   46.8921 H   0  0  0  0  0  0  0  0  0  0  0  0
   32.2218   26.1990   45.8927 H   0  0  0  0  0  0  0  0  0  0  0  0
   32.4089   29.1713   45.2088 H   0  0  0  0  0  0  0  0  0  0  0  0
   27.3462   27.6588   45.7782 H   0  0  0  0  0  0  0  0  0  0  0  0
   29.9621   27.1336   45.2379 H   0  0  0  0  0  0  0  0  0  0  0  0
   26.1954   27.1744   48.7260 H   0  0  0  0  0  0  0  0  0  0  0  0
   27.3223   31.2259   47.7731 H   0  0  0  0  0  0  0  0  0  0  0  0
   23.6490   30.3866   49.7407 H   0  0  0  0  0  0  0  0  0  0  0  0
   34.4113   29.9819   44.3370 H   0  0  0  0  0  0  0  0  0  0  0  0
   36.4661   31.0081   45.5777 H   0  0  0  0  0  0  0  0  0  0  0  0
   36.4791   28.7829   49.7368 H   0  0  0  0  0  0  0  0  0  0  0  0
   38.9622   33.7754   50.2741 H   0  0  0  0  0  0  0  0  0  0  0  0
   39.7538   33.3500   48.7187 H   0  0  0  0  0  0  0  0  0  0  0  0
   38.2011   34.2533   48.7187 H   0  0  0  0  0  0  0  0  0  0  0  0
  2  1  1  0
  3 15  1  0
  3  2  1  0
  3  1  1  0
  4  8  2  0
  4 10  1  0
  5  4  1  0
  6  5  2  0
  6  7  1  0
  7  1  1  0
  7  8  1  0
  9 14  2  0
 10 11  2  0
 10  9  1  0
 11 12  1  0
 12 13  2  0
 14 13  1  0
 15 19  1  0
 16 17  1  0
 16 15  2  0
 17 18  1  0
 18 19  2  0
 18 20  1  0
 20 24  1  0
 20 21  2  0
 21 22  1  0
 23 25  1  0
 23 22  1  0
 24 23  2  0
  1 26  1  1
  2 27  1  0
  2 28  1  0
  3 29  1  6
  5 30  1  0
  6 31  1  0
  9 32  1  0
 11 33  1  0
 13 34  1  0
 16 35  1  0
 17 36  1  0
 21 37  1  0
 25 38  1  0
 25 39  1  0
 25 40  1  0
M  ISO  8  26  13  27  13  28  13  29  13  30  14  31  14  32  14  33  14
M  ISO  7  34  14  35  14  36   9  37  14  38   8  39   8  40   8
M  END
>  <minimizedAffinity>  (1) 
-6.28532171

>  <minimizedRMSD>  (1) 
0.635513902

$$$$
