
     RDKit          3D

 20 21  0  0  0  0  0  0  0  0999 V2000
   37.6830   30.5930   50.8760 C   0  0  0  0  0  0  0  0  0  0  0  0
   37.2230   31.2080   49.6800 C   0  0  0  0  0  0  0  0  0  0  0  0
   35.9560   30.8430   49.2270 C   0  0  0  0  0  0  0  0  0  0  0  0
   35.2450   29.9360   49.9410 N   0  0  0  0  0  0  0  0  0  0  0  0
   35.7050   29.3660   51.0750 C   0  0  0  0  0  0  0  0  0  0  0  0
   36.9270   29.7020   51.5360 N   0  0  0  0  0  0  0  0  0  0  0  0
   38.1320   32.1610   49.0510 C   0  0  0  0  0  0  0  0  0  0  0  0
   38.5360   31.8620   47.7650 C   0  0  0  0  0  0  0  0  0  0  0  0
   39.3920   32.6430   47.0150 C   0  0  0  0  0  0  0  0  0  0  0  0
   39.8920   33.8200   47.5850 C   0  0  0  0  0  0  0  0  0  0  0  0
   39.4820   34.1110   48.8760 C   0  0  0  0  0  0  0  0  0  0  0  0
   38.6260   33.3240   49.6160 C   0  0  0  0  0  0  0  0  0  0  0  0
   38.6775   30.8523   51.2681 H   0  0  0  0  0  0  0  0  0  0  0  0
   35.5412   31.2825   48.3079 H   0  0  0  0  0  0  0  0  0  0  0  0
   35.0888   28.6343   51.6180 H   0  0  0  0  0  0  0  0  0  0  0  0
   38.1497   30.9393   47.3074 H   0  0  0  0  0  0  0  0  0  0  0  0
   39.6746   32.3477   45.9938 H   0  0  0  0  0  0  0  0  0  0  0  0
   40.5771   34.4816   47.0346 H   0  0  0  0  0  0  0  0  0  0  0  0
   39.8651   35.0312   49.3413 H   0  0  0  0  0  0  0  0  0  0  0  0
   38.3404   33.6150   50.6376 H   0  0  0  0  0  0  0  0  0  0  0  0
  1  6  2  0
  2  1  1  0
  3  2  2  0
  3  4  1  0
  4  5  2  0
  5  6  1  0
  7 12  1  0
  7  2  1  0
  8  7  2  0
  9 10  2  0
  9  8  1  0
 10 11  1  0
 11 12  2  0
  1 13  1  0
  3 14  1  0
  5 15  1  0
  8 16  1  0
  9 17  1  0
 10 18  1  0
 11 19  1  0
 12 20  1  0
M  ISO  8  13  14  14  14  15  14  16  14  17  14  18  14  19  14  20  14
M  END
>  <minimizedAffinity>  (1) 
-5.01719856

>  <minimizedRMSD>  (1) 
2.70548916

$$$$
