
     RDKit          3D

 24 25  0  0  0  0  0  0  0  0999 V2000
   38.0880   31.2050   47.8870 C   0  0  0  0  0  0  0  0  0  0  0  0
   38.3350   30.4250   46.7630 C   0  0  0  0  0  0  0  0  0  0  0  0
   39.1580   30.8130   45.7210 C   0  0  0  0  0  0  0  0  0  0  0  0
   39.7860   32.0740   45.8020 C   0  0  0  0  0  0  0  0  0  0  0  0
   39.5270   32.8300   46.9230 C   0  0  0  0  0  0  0  0  0  0  0  0
   38.7100   32.4350   47.9470 C   0  0  0  0  0  0  0  0  0  0  0  0
   37.8400   29.9430   49.9550 C   0  0  0  0  0  0  0  0  0  0  0  0
   37.1920   30.6170   48.8700 C   0  0  0  0  0  0  0  0  0  0  0  0
   35.8080   30.6350   48.8740 C   0  0  0  0  0  0  0  0  0  0  0  0
   35.1380   30.0330   49.8760 N   0  0  0  0  0  0  0  0  0  0  0  0
   35.7570   29.4000   50.8930 C   0  0  0  0  0  0  0  0  0  0  0  0
   37.1160   29.3580   50.9290 N   0  0  0  0  0  0  0  0  0  0  0  0
   39.3440   34.2900   49.2240 C   0  0  0  0  0  0  0  0  0  0  0  0
   40.2370   34.4420   48.3400 O   0  0  0  0  0  0  0  0  0  0  0  0
   38.4330   33.2040   49.1120 N   0  0  0  0  0  0  0  0  0  0  0  0
   37.8472   29.4412   46.6984 H   0  0  0  0  0  0  0  0  0  0  0  0
   39.3185   30.1565   44.8531 H   0  0  0  0  0  0  0  0  0  0  0  0
   40.4524   32.4366   45.0055 H   0  0  0  0  0  0  0  0  0  0  0  0
   40.0083   33.8161   47.0005 H   0  0  0  0  0  0  0  0  0  0  0  0
   38.9386   29.9026   49.9934 H   0  0  0  0  0  0  0  0  0  0  0  0
   35.2586   31.1376   48.0643 H   0  0  0  0  0  0  0  0  0  0  0  0
   35.1669   28.9208   51.6881 H   0  0  0  0  0  0  0  0  0  0  0  0
   39.2735   34.9902   50.0694 H   0  0  0  0  0  0  0  0  0  0  0  0
   37.6770   33.0018   49.7816 H   0  0  0  0  0  0  0  0  0  0  0  0
  1  6  1  0
  1  8  1  0
  2  1  2  0
  3  4  2  0
  3  2  1  0
  4  5  1  0
  5  6  2  0
  6 15  1  0
  7 12  2  0
  8  9  2  0
  8  7  1  0
  9 10  1  0
 10 11  2  0
 11 12  1  0
 14 13  2  0
 15 13  1  0
  2 16  1  0
  3 17  1  0
  4 18  1  0
  5 19  1  0
  7 20  1  0
  9 21  1  0
 11 22  1  0
 13 23  1  0
 15 24  1  0
M  ISO  8  16  14  17  14  18  14  19  14  20  14  21  14  22  14  23   6
M  END
>  <minimizedAffinity>  (1) 
-5.32174921

>  <minimizedRMSD>  (1) 
1.76082385

$$$$
