
     RDKit          3D

 28 29  0  0  0  0  0  0  0  0999 V2000
   35.7060   30.0050   46.4670 C   0  0  0  0  0  0  0  0  0  0  0  0
   34.8420   29.7300   45.4260 C   0  0  0  0  0  0  0  0  0  0  0  0
   35.2430   29.8070   44.0930 C   0  0  0  0  0  0  0  0  0  0  0  0
   36.6040   30.1840   43.8160 C   0  0  0  0  0  0  0  0  0  0  0  0
   37.4160   30.4440   44.8840 C   0  0  0  0  0  0  0  0  0  0  0  0
   37.0160   30.3710   46.1630 C   0  0  0  0  0  0  0  0  0  0  0  0
   34.6250   28.5720   48.1190 C   0  0  0  0  0  0  0  0  0  0  0  0
   35.1520   29.8450   47.7900 C   0  0  0  0  0  0  0  0  0  0  0  0
   35.0750   30.8020   48.7850 C   0  0  0  0  0  0  0  0  0  0  0  0
   34.5240   30.4870   49.9730 N   0  0  0  0  0  0  0  0  0  0  0  0
   34.0330   29.2930   50.2720 C   0  0  0  0  0  0  0  0  0  0  0  0
   34.0890   28.3360   49.3320 N   0  0  0  0  0  0  0  0  0  0  0  0
   38.4080   32.0160   47.0910 C   0  0  0  0  0  0  0  0  0  0  0  0
   38.0860   32.7430   46.0710 O   0  0  0  0  0  0  0  0  0  0  0  0
   37.8610   30.6710   47.2120 N   0  0  0  0  0  0  0  0  0  0  0  0
   39.2820   32.4930   48.1010 O   0  0  0  0  0  0  0  0  0  0  0  0
   38.7310   32.8650   49.3540 C   0  0  0  0  0  0  0  0  0  0  0  0
   38.8190   31.7290   50.1620 F   0  0  0  0  0  0  0  0  0  0  0  0
   39.5320   33.8260   49.9790 F   0  0  0  0  0  0  0  0  0  0  0  0
   37.4390   33.3000   49.2740 F   0  0  0  0  0  0  0  0  0  0  0  0
   33.8056   29.4413   45.6553 H   0  0  0  0  0  0  0  0  0  0  0  0
   34.5396   29.5860   43.2767 H   0  0  0  0  0  0  0  0  0  0  0  0
   36.9765   30.2600   42.7838 H   0  0  0  0  0  0  0  0  0  0  0  0
   38.4591   30.7300   44.6835 H   0  0  0  0  0  0  0  0  0  0  0  0
   34.6539   27.7642   47.3729 H   0  0  0  0  0  0  0  0  0  0  0  0
   35.4620   31.8162   48.6071 H   0  0  0  0  0  0  0  0  0  0  0  0
   33.5931   29.0921   51.2600 H   0  0  0  0  0  0  0  0  0  0  0  0
   38.0779   30.0247   47.9841 H   0  0  0  0  0  0  0  0  0  0  0  0
  1  8  1  0
  2  1  2  0
  3  2  1  0
  4  3  2  0
  4  5  1  0
  5  6  2  0
  6  1  1  0
  6 15  1  0
  7 12  2  0
  8  7  1  0
  8  9  2  0
  9 10  1  0
 10 11  2  0
 12 11  1  0
 13 15  1  0
 13 16  1  0
 14 13  2  0
 16 17  1  0
 17 19  1  0
 17 18  1  0
 20 17  1  0
  2 21  1  0
  3 22  1  0
  4 23  1  0
  5 24  1  0
  7 25  1  0
  9 26  1  0
 11 27  1  0
 15 28  1  0
M  ISO  7  21  14  22  14  23  14  24  14  25  14  26  14  27  14
M  END
>  <minimizedAffinity>  (1) 
-5.03589296

>  <minimizedRMSD>  (1) 
2.97552991

$$$$
