
     RDKit          3D

 35 36  0  0  0  0  0  0  0  0999 V2000
   38.1580   31.8350   47.4310 C   0  0  0  0  0  0  0  0  0  0  0  0
   38.7810   32.6370   48.3450 C   0  0  0  0  0  0  0  0  0  0  0  0
   38.3720   32.6980   49.6860 C   0  0  0  0  0  0  0  0  0  0  0  0
   37.2510   31.8680   50.0800 C   0  0  0  0  0  0  0  0  0  0  0  0
   36.6780   31.0940   49.1250 C   0  0  0  0  0  0  0  0  0  0  0  0
   37.0750   31.0450   47.8400 C   0  0  0  0  0  0  0  0  0  0  0  0
   39.9240   31.1840   45.8800 C   0  0  0  0  0  0  0  0  0  0  0  0
   38.7030   31.8640   46.0970 C   0  0  0  0  0  0  0  0  0  0  0  0
   38.1800   32.4720   44.9820 C   0  0  0  0  0  0  0  0  0  0  0  0
   38.8140   32.3980   43.7970 N   0  0  0  0  0  0  0  0  0  0  0  0
   39.9470   31.7620   43.6150 C   0  0  0  0  0  0  0  0  0  0  0  0
   40.5000   31.1560   44.6540 N   0  0  0  0  0  0  0  0  0  0  0  0
   35.0120   30.1290   47.1800 C   0  0  0  0  0  0  0  0  0  0  0  0
   34.5250   30.7100   48.2310 O   0  0  0  0  0  0  0  0  0  0  0  0
   36.4310   30.2570   46.9210 N   0  0  0  0  0  0  0  0  0  0  0  0
   34.1740   29.4200   46.3570 O   0  0  0  0  0  0  0  0  0  0  0  0
   32.7880   29.5580   46.3350 C   0  0  0  0  0  0  0  0  0  0  0  0
   32.1980   30.4620   45.5840 O   0  0  0  0  0  0  0  0  0  0  0  0
   31.8090   28.8040   47.0400 N   0  0  0  0  0  0  0  0  0  0  0  0
   32.2650   27.8180   48.3780 S   0  0  0  0  0  0  0  0  0  0  0  0
   30.9720   27.2480   48.9390 O   0  0  0  0  0  0  0  0  0  0  0  0
   33.1600   26.7010   47.9500 O   0  0  0  0  0  0  0  0  0  0  0  0
   32.9400   28.7080   49.6240 O   0  0  0  0  0  0  0  0  0  0  0  0
   39.6307   33.2549   48.0191 H   0  0  0  0  0  0  0  0  0  0  0  0
   38.8823   33.3503   50.4099 H   0  0  0  0  0  0  0  0  0  0  0  0
   36.8788   31.8659   51.1151 H   0  0  0  0  0  0  0  0  0  0  0  0
   35.8285   30.4614   49.4218 H   0  0  0  0  0  0  0  0  0  0  0  0
   40.4138   30.6697   46.7200 H   0  0  0  0  0  0  0  0  0  0  0  0
   37.2325   33.0256   45.0583 H   0  0  0  0  0  0  0  0  0  0  0  0
   40.4251   31.7330   42.6247 H   0  0  0  0  0  0  0  0  0  0  0  0
   36.9073   29.8031   46.1285 H   0  0  0  0  0  0  0  0  0  0  0  0
   30.8219   28.8476   46.7491 H   0  0  0  0  0  0  0  0  0  0  0  0
   31.0065   27.2632   49.9283 H   0  0  0  0  0  0  0  0  0  0  0  0
   33.5249   26.2456   48.7497 H   0  0  0  0  0  0  0  0  0  0  0  0
   32.6531   28.3298   50.4928 H   0  0  0  0  0  0  0  0  0  0  0  0
  1  6  1  0
  1  2  2  0
  2  3  1  0
  3  4  2  0
  5  4  1  0
  6  5  2  0
  7  8  2  0
  8  1  1  0
  9  8  1  0
 10  9  2  0
 11 10  1  0
 11 12  2  0
 12  7  1  0
 13 14  2  0
 15 13  1  0
 15  6  1  0
 16 13  1  0
 17 16  1  0
 17 19  1  0
 18 17  2  0
 19 20  1  0
 20 21  1  0
 20 23  1  0
 22 20  1  0
  2 24  1  0
  3 25  1  0
  4 26  1  0
  5 27  1  0
  7 28  1  0
  9 29  1  0
 11 30  1  0
 15 31  1  0
 19 32  1  0
 21 33  1  0
 22 34  1  0
 23 35  1  0
M  ISO  8  24  14  25  14  26  14  27  14  28  14  29  14  30  14  33   3
M  ISO  2  34   3  35   3
M  END
>  <minimizedAffinity>  (1) 
-6.10419226

>  <minimizedRMSD>  (1) 
1.30731201

$$$$
