
     RDKit          3D

 30 31  0  0  0  0  0  0  0  0999 V2000
   33.6520   28.0890   47.9700 C   0  0  0  0  0  0  0  0  0  0  0  0
   35.4140   29.4730   48.9930 C   0  0  0  0  0  0  0  0  0  0  0  0
   34.6740   29.1710   47.9780 C   0  0  0  0  0  0  0  0  0  0  0  0
   37.4900   32.4180   49.6320 C   0  0  0  0  0  0  0  0  0  0  0  0
   38.2200   32.5470   48.4410 C   0  0  0  0  0  0  0  0  0  0  0  0
   37.9690   31.5960   47.4350 C   0  0  0  0  0  0  0  0  0  0  0  0
   37.0290   30.6150   47.6940 N   0  0  0  0  0  0  0  0  0  0  0  0
   36.3710   30.5570   48.8590 C   0  0  0  0  0  0  0  0  0  0  0  0
   36.6020   31.4580   49.8280 N   0  0  0  0  0  0  0  0  0  0  0  0
   32.8950   28.0790   49.1390 O   0  0  0  0  0  0  0  0  0  0  0  0
   31.2790   26.2560   48.3620 O   0  0  0  0  0  0  0  0  0  0  0  0
   31.2740   27.7400   48.7480 P   0  0  2  0  0  0  0  0  0  0  0  0
   30.8400   28.7190   47.4380 O   0  0  0  0  0  0  0  0  0  0  0  0
   30.2510   28.0000   50.0610 O   0  0  0  0  0  0  0  0  0  0  0  0
   28.9630   28.1210   49.6000 C   0  0  0  0  0  0  0  0  0  0  0  0
   27.8120   28.0870   50.5740 C   0  0  0  0  0  0  0  0  0  0  0  0
   28.1890   29.3670   49.8260 C   0  0  0  0  0  0  0  0  0  0  0  0
   32.9798   28.2414   47.1127 H   0  0  0  0  0  0  0  0  0  0  0  0
   34.1773   27.1253   47.8966 H   0  0  0  0  0  0  0  0  0  0  0  0
   35.3211   28.9203   49.9395 H   0  0  0  0  0  0  0  0  0  0  0  0
   34.8087   29.7543   47.0552 H   0  0  0  0  0  0  0  0  0  0  0  0
   37.6638   33.1468   50.4374 H   0  0  0  0  0  0  0  0  0  0  0  0
   38.9542   33.3539   48.3003 H   0  0  0  0  0  0  0  0  0  0  0  0
   38.5029   31.6315   46.4739 H   0  0  0  0  0  0  0  0  0  0  0  0
   30.4625   29.5706   47.7733 H   0  0  0  0  0  0  0  0  0  0  0  0
   29.2371   27.5449   48.7039 H   0  0  0  0  0  0  0  0  0  0  0  0
   26.8869   27.5488   50.3200 H   0  0  0  0  0  0  0  0  0  0  0  0
   27.6818   27.8013   51.6283 H   0  0  0  0  0  0  0  0  0  0  0  0
   28.6458   30.2072   50.3694 H   0  0  0  0  0  0  0  0  0  0  0  0
   27.6519   30.0768   49.1797 H   0  0  0  0  0  0  0  0  0  0  0  0
  1  3  1  0
  1 10  1  0
  3  2  2  0
  4  9  2  0
  5  4  1  0
  6  7  1  0
  6  5  2  0
  7  8  2  0
  8  2  1  0
  8  9  1  0
 12 11  2  0
 12 10  1  0
 12 14  1  0
 13 12  1  0
 15 17  1  0
 15 14  1  0
 15 16  1  0
 17 16  1  0
  1 18  1  0
  1 19  1  0
  2 20  1  0
  3 21  1  0
  4 22  1  0
  5 23  1  0
  6 24  1  0
 13 25  1  0
 15 26  1  0
 16 27  1  0
 16 28  1  0
 17 29  1  0
 17 30  1  0
M  ISO  8  18   8  19   8  22  14  23  14  24  14  25   3  26  13  27  13
M  ISO  3  28  13  29  13  30  13
M  END
>  <minimizedAffinity>  (1) 
-4.62205744

>  <minimizedRMSD>  (1) 
2.25790024

$$$$
