
     RDKit          3D

 26 26  0  0  0  0  0  0  0  0999 V2000
   34.7370   28.4060   49.3930 C   0  0  0  0  0  0  0  0  0  0  0  0
   34.0330   28.8410   48.3840 C   0  0  0  0  0  0  0  0  0  0  0  0
   37.2310   30.1330   51.4270 C   0  0  0  0  0  0  0  0  0  0  0  0
   38.0950   30.6870   50.4590 C   0  0  0  0  0  0  0  0  0  0  0  0
   37.7760   30.4370   49.1080 C   0  0  0  0  0  0  0  0  0  0  0  0
   36.6660   29.6850   48.8250 N   0  0  0  0  0  0  0  0  0  0  0  0
   35.8900   29.1900   49.8040 C   0  0  0  0  0  0  0  0  0  0  0  0
   36.1750   29.4160   51.0790 N   0  0  0  0  0  0  0  0  0  0  0  0
   32.8290   28.1790   47.8250 C   0  0  0  0  0  0  0  0  0  0  0  0
   32.2610   27.2860   48.7240 O   0  0  0  0  0  0  0  0  0  0  0  0
   30.2720   26.2990   47.4390 O   0  0  0  0  0  0  0  0  0  0  0  0
   30.5600   27.3480   48.5170 P   0  0  2  0  0  0  0  0  0  0  0  0
   30.1580   28.8880   47.9600 O   0  0  0  0  0  0  0  0  0  0  0  0
   29.7490   26.9540   49.9400 O   0  0  0  0  0  0  0  0  0  0  0  0
   28.7270   27.8040   50.2630 C   0  0  0  0  0  0  0  0  0  0  0  0
   34.4668   27.4765   49.9154 H   0  0  0  0  0  0  0  0  0  0  0  0
   34.3599   29.7773   47.9080 H   0  0  0  0  0  0  0  0  0  0  0  0
   37.4398   30.3008   52.4939 H   0  0  0  0  0  0  0  0  0  0  0  0
   38.9738   31.2842   50.7437 H   0  0  0  0  0  0  0  0  0  0  0  0
   38.4048   30.8371   48.2989 H   0  0  0  0  0  0  0  0  0  0  0  0
   32.0856   28.9493   47.5720 H   0  0  0  0  0  0  0  0  0  0  0  0
   33.1359   27.6135   46.9328 H   0  0  0  0  0  0  0  0  0  0  0  0
   30.0015   29.4877   48.7320 H   0  0  0  0  0  0  0  0  0  0  0  0
   28.6413   27.8752   51.3573 H   0  0  0  0  0  0  0  0  0  0  0  0
   28.9332   28.8007   49.8457 H   0  0  0  0  0  0  0  0  0  0  0  0
   27.7846   27.4196   49.8457 H   0  0  0  0  0  0  0  0  0  0  0  0
  1  7  1  0
  2  1  2  0
  4  3  2  0
  5  4  1  0
  6  5  2  0
  6  7  1  0
  7  8  2  0
  8  3  1  0
  9  2  1  0
  9 10  1  0
 12 11  2  0
 12 10  1  0
 12 14  1  0
 13 12  1  0
 14 15  1  0
  1 16  1  0
  2 17  1  0
  3 18  1  0
  4 19  1  0
  5 20  1  0
  9 21  1  0
  9 22  1  0
 13 23  1  0
 15 24  1  0
 15 25  1  0
 15 26  1  0
M  ISO  8  18  14  19  14  20  14  21   8  22   8  23   3  24   8  25   8
M  ISO  1  26   8
M  END
>  <minimizedAffinity>  (1) 
-4.53134155

>  <minimizedRMSD>  (1) 
0.901973128

$$$$
