
     RDKit          3D

 27 29  0  0  0  0  0  0  0  0999 V2000
   38.8140   30.4360   48.7960 F   0  0  0  0  0  0  0  0  0  0  0  0
   37.6280   30.2890   48.1570 C   0  0  0  0  0  0  0  0  0  0  0  0
   37.4020   30.7020   46.8420 C   0  0  0  0  0  0  0  0  0  0  0  0
   36.1650   30.5160   46.2680 C   0  0  0  0  0  0  0  0  0  0  0  0
   35.1240   29.9240   46.9640 C   0  0  0  0  0  0  0  0  0  0  0  0
   35.3600   29.5140   48.2780 C   0  0  0  0  0  0  0  0  0  0  0  0
   36.5910   29.6940   48.8630 C   0  0  0  0  0  0  0  0  0  0  0  0
   39.2360   33.1100   44.7920 C   0  0  0  0  0  0  0  0  0  0  0  0
   40.5360   32.5860   44.7180 C   0  0  0  0  0  0  0  0  0  0  0  0
   40.7670   31.3940   45.3850 C   0  0  0  0  0  0  0  0  0  0  0  0
   39.7500   30.8060   46.0600 N   0  0  0  0  0  0  0  0  0  0  0  0
   38.5130   31.3290   46.1150 C   0  0  0  0  0  0  0  0  0  0  0  0
   38.2540   32.4910   45.4750 N   0  0  0  0  0  0  0  0  0  0  0  0
   36.8020   29.2500   50.2500 C   0  0  0  0  0  0  0  0  0  0  0  0
   37.0190   30.3900   51.2420 C   0  0  0  0  0  0  0  0  0  0  0  0
   35.8260   29.4320   51.3240 C   0  0  0  0  0  0  0  0  0  0  0  0
   35.9991   30.8454   45.2317 H   0  0  0  0  0  0  0  0  0  0  0  0
   34.1393   29.7809   46.4951 H   0  0  0  0  0  0  0  0  0  0  0  0
   34.5501   29.0407   48.8526 H   0  0  0  0  0  0  0  0  0  0  0  0
   39.0123   34.0555   44.2762 H   0  0  0  0  0  0  0  0  0  0  0  0
   41.3327   33.0970   44.1576 H   0  0  0  0  0  0  0  0  0  0  0  0
   41.7644   30.9304   45.3668 H   0  0  0  0  0  0  0  0  0  0  0  0
   37.3197   28.3417   49.9081 H   0  0  0  0  0  0  0  0  0  0  0  0
   37.8291   30.3369   51.9843 H   0  0  0  0  0  0  0  0  0  0  0  0
   37.1604   31.4792   51.1818 H   0  0  0  0  0  0  0  0  0  0  0  0
   34.8153   29.7964   51.0880 H   0  0  0  0  0  0  0  0  0  0  0  0
   35.4134   28.7807   52.1086 H   0  0  0  0  0  0  0  0  0  0  0  0
  2  1  1  0
  2  7  2  0
  3  2  1  0
  4  3  2  0
  4  5  1  0
  5  6  2  0
  6  7  1  0
  7 14  1  0
  8 13  2  0
  9  8  1  0
  9 10  2  0
 10 11  1  0
 11 12  2  0
 12  3  1  0
 13 12  1  0
 14 15  1  0
 14 16  1  0
 15 16  1  0
  4 17  1  0
  5 18  1  0
  6 19  1  0
  8 20  1  0
  9 21  1  0
 10 22  1  0
 14 23  1  0
 15 24  1  0
 15 25  1  0
 16 26  1  0
 16 27  1  0
M  ISO  8  17  14  18  14  19  14  20  14  21  14  22  14  23  13  24  13
M  ISO  3  25  13  26  13  27  13
M  END
>  <minimizedAffinity>  (1) 
-5.75927544

>  <minimizedRMSD>  (1) 
2.93184352

$$$$
