
     RDKit          3D

 32 33  0  0  0  0  0  0  0  0999 V2000
   37.7710   30.1530   47.9370 F   0  0  0  0  0  0  0  0  0  0  0  0
   36.8430   30.1750   46.9480 C   0  0  0  0  0  0  0  0  0  0  0  0
   37.0800   30.7130   45.6850 C   0  0  0  0  0  0  0  0  0  0  0  0
   36.0770   30.6880   44.7520 C   0  0  0  0  0  0  0  0  0  0  0  0
   34.8270   30.1520   44.9910 C   0  0  0  0  0  0  0  0  0  0  0  0
   34.6030   29.6190   46.2540 C   0  0  0  0  0  0  0  0  0  0  0  0
   35.5920   29.6250   47.2280 C   0  0  0  0  0  0  0  0  0  0  0  0
   39.6250   33.2150   44.9140 C   0  0  0  0  0  0  0  0  0  0  0  0
   40.8160   32.4960   44.8950 C   0  0  0  0  0  0  0  0  0  0  0  0
   40.7460   31.1160   45.1530 C   0  0  0  0  0  0  0  0  0  0  0  0
   39.5340   30.5540   45.4060 N   0  0  0  0  0  0  0  0  0  0  0  0
   38.3950   31.2830   45.4180 C   0  0  0  0  0  0  0  0  0  0  0  0
   38.4550   32.6260   45.1680 N   0  0  0  0  0  0  0  0  0  0  0  0
   35.3490   29.0970   48.4530 O   0  0  0  0  0  0  0  0  0  0  0  0
   35.8490   29.2140   50.9790 O   0  0  0  0  0  0  0  0  0  0  0  0
   35.0050   29.8820   49.8840 P   0  0  2  0  0  0  0  0  0  0  0  0
   33.4020   29.7940   50.3960 O   0  0  0  0  0  0  0  0  0  0  0  0
   35.5020   31.5100   49.8430 O   0  0  0  0  0  0  0  0  0  0  0  0
   36.7980   31.6760   50.3190 C   0  0  0  0  0  0  0  0  0  0  0  0
   37.5330   32.8120   49.6440 C   0  0  0  0  0  0  0  0  0  0  0  0
   36.2782   31.1178   43.7596 H   0  0  0  0  0  0  0  0  0  0  0  0
   34.0451   30.1473   44.2173 H   0  0  0  0  0  0  0  0  0  0  0  0
   33.6206   29.1827   46.4874 H   0  0  0  0  0  0  0  0  0  0  0  0
   39.6485   34.2965   44.7146 H   0  0  0  0  0  0  0  0  0  0  0  0
   41.7767   32.9892   44.6858 H   0  0  0  0  0  0  0  0  0  0  0  0
   41.6575   30.5003   45.1503 H   0  0  0  0  0  0  0  0  0  0  0  0
   33.3713   29.7923   51.3855 H   0  0  0  0  0  0  0  0  0  0  0  0
   36.7516   31.8808   51.3988 H   0  0  0  0  0  0  0  0  0  0  0  0
   37.3504   30.7502   50.1007 H   0  0  0  0  0  0  0  0  0  0  0  0
   37.9627   33.4762   50.4083 H   0  0  0  0  0  0  0  0  0  0  0  0
   38.3396   32.4052   49.0163 H   0  0  0  0  0  0  0  0  0  0  0  0
   36.8314   33.3810   49.0163 H   0  0  0  0  0  0  0  0  0  0  0  0
  2  7  2  0
  2  1  1  0
  3  2  1  0
  4  5  1  0
  4  3  2  0
  5  6  2  0
  6  7  1  0
  7 14  1  0
  8 13  2  0
  9  8  1  0
  9 10  2  0
 10 11  1  0
 11 12  2  0
 12  3  1  0
 13 12  1  0
 14 16  1  0
 16 17  1  0
 16 15  2  0
 18 16  1  0
 18 19  1  0
 20 19  1  0
  4 21  1  0
  5 22  1  0
  6 23  1  0
  8 24  1  0
  9 25  1  0
 10 26  1  0
 17 27  1  0
 19 28  1  0
 19 29  1  0
 20 30  1  0
 20 31  1  0
 20 32  1  0
M  ISO  8  21  14  22  14  23  14  24  14  25  14  26  14  27   3  28   8
M  ISO  4  29   8  30   8  31   8  32   8
M  END
>  <minimizedAffinity>  (1) 
-4.75157833

>  <minimizedRMSD>  (1) 
0.388655841

$$$$
