
     RDKit          3D

 38 40  0  0  1  0  0  0  0  0999 V2000
   37.1510   30.2930   46.5550 F   0  0  0  0  0  0  0  0  0  0  0  0
   36.6980   30.3520   45.2810 C   0  0  0  0  0  0  0  0  0  0  0  0
   37.4110   30.9590   44.2610 C   0  0  0  0  0  0  0  0  0  0  0  0
   36.8760   30.9740   42.9960 C   0  0  0  0  0  0  0  0  0  0  0  0
   35.6510   30.4080   42.6840 C   0  0  0  0  0  0  0  0  0  0  0  0
   34.9550   29.8050   43.7230 C   0  0  0  0  0  0  0  0  0  0  0  0
   35.4720   29.7760   45.0150 C   0  0  0  0  0  0  0  0  0  0  0  0
   39.9620   33.5350   44.7760 C   0  0  0  0  0  0  0  0  0  0  0  0
   41.1010   32.8160   45.1280 C   0  0  0  0  0  0  0  0  0  0  0  0
   40.9850   31.4370   45.1880 C   0  0  0  0  0  0  0  0  0  0  0  0
   39.8040   30.8160   44.9120 N   0  0  0  0  0  0  0  0  0  0  0  0
   38.7110   31.5660   44.5700 C   0  0  0  0  0  0  0  0  0  0  0  0
   38.8040   32.9130   44.5070 N   0  0  0  0  0  0  0  0  0  0  0  0
   34.7710   29.1800   46.0140 O   0  0  0  0  0  0  0  0  0  0  0  0
   33.5000   28.7520   48.2250 O   0  0  0  0  0  0  0  0  0  0  0  0
   33.9170   29.8650   47.2720 P   0  0  2  0  0  0  0  0  0  0  0  0
   32.5140   30.6700   46.8190 O   0  0  0  0  0  0  0  0  0  0  0  0
   34.9040   30.9340   48.1800 O   0  0  0  0  0  0  0  0  0  0  0  0
   35.6320   29.1900   49.5620 C   0  0  2  0  0  0  0  0  0  0  0  0
   35.0160   30.5680   49.4960 C   0  0  1  0  0  0  0  0  0  0  0  0
   36.0470   31.3630   50.2540 C   0  0  0  0  0  0  0  0  0  0  0  0
   36.6360   30.5310   51.1740 O   0  0  0  0  0  0  0  0  0  0  0  0
   36.2170   29.2300   50.9660 C   0  0  0  0  0  0  0  0  0  0  0  0
   36.7110   29.0900   48.6860 O   0  0  0  0  0  0  0  0  0  0  0  0
   37.4483   31.4591   42.1916 H   0  0  0  0  0  0  0  0  0  0  0  0
   35.2483   30.4350   41.6607 H   0  0  0  0  0  0  0  0  0  0  0  0
   33.9777   29.3420   43.5216 H   0  0  0  0  0  0  0  0  0  0  0  0
   40.0123   34.6323   44.7174 H   0  0  0  0  0  0  0  0  0  0  0  0
   42.0526   33.3215   45.3491 H   0  0  0  0  0  0  0  0  0  0  0  0
   41.8618   30.8325   45.4633 H   0  0  0  0  0  0  0  0  0  0  0  0
   32.0200   30.9534   47.6288 H   0  0  0  0  0  0  0  0  0  0  0  0
   34.9281   28.3779   49.3273 H   0  0  0  0  0  0  0  0  0  0  0  0
   34.0037   30.6855   49.9102 H   0  0  0  0  0  0  0  0  0  0  0  0
   36.8074   31.7469   49.5580 H   0  0  0  0  0  0  0  0  0  0  0  0
   35.5729   32.2165   50.7608 H   0  0  0  0  0  0  0  0  0  0  0  0
   35.4514   28.9534   51.7058 H   0  0  0  0  0  0  0  0  0  0  0  0
   37.0499   28.5194   51.0729 H   0  0  0  0  0  0  0  0  0  0  0  0
   37.5508   29.0122   49.2044 H   0  0  0  0  0  0  0  0  0  0  0  0
  2  1  1  0
  3 12  1  0
  3  2  2  0
  4  3  1  0
  5  4  2  0
  5  6  1  0
  6  7  2  0
  7  2  1  0
  7 14  1  0
  8  9  2  0
  9 10  1  0
 11 10  2  0
 12 11  1  0
 13 12  2  0
 13  8  1  0
 14 16  1  0
 16 18  1  0
 16 15  2  0
 17 16  1  0
 19 24  1  0
 19 23  1  0
 20 18  1  0
 20 19  1  0
 20 21  1  0
 21 22  1  0
 23 22  1  0
  4 25  1  0
  5 26  1  0
  6 27  1  0
  8 28  1  0
  9 29  1  0
 10 30  1  0
 17 31  1  0
 19 32  1  1
 20 33  1  1
 21 34  1  0
 21 35  1  0
 23 36  1  0
 23 37  1  0
 24 38  1  0
M  ISO  8  25  14  26  14  27  14  28  14  29  14  30  14  31   3  32  13
M  ISO  6  33  13  34  13  35  13  36  13  37  13  38   3
M  END
>  <minimizedAffinity>  (1) 
-4.49911213

>  <minimizedRMSD>  (1) 
2.33534408

$$$$
