
     RDKit          3D

 34 36  0  0  1  0  0  0  0  0999 V2000
   39.1440   32.5220   47.7590 C   0  0  2  0  0  0  0  0  0  0  0  0
   37.9900   32.6530   48.7830 C   0  0  2  0  0  0  0  0  0  0  0  0
   38.6730   33.3810   49.8620 C   0  0  0  0  0  0  0  0  0  0  0  0
   39.4890   34.3190   49.2450 O   0  0  0  0  0  0  0  0  0  0  0  0
   39.7410   33.9160   47.9730 C   0  0  0  0  0  0  0  0  0  0  0  0
   37.2800   29.3320   50.4300 C   0  0  0  0  0  0  0  0  0  0  0  0
   37.8990   30.5780   50.1670 C   0  0  0  0  0  0  0  0  0  0  0  0
   37.3930   31.3820   49.1130 C   0  0  0  0  0  0  0  0  0  0  0  0
   36.3230   30.8970   48.4050 N   0  0  0  0  0  0  0  0  0  0  0  0
   35.7610   29.7160   48.6780 C   0  0  0  0  0  0  0  0  0  0  0  0
   36.2250   28.9210   49.6850 N   0  0  0  0  0  0  0  0  0  0  0  0
   38.6380   32.3990   46.4940 O   0  0  0  0  0  0  0  0  0  0  0  0
   40.1070   30.9870   45.1500 C   0  0  1  0  0  0  0  0  0  0  0  0
   39.5130   32.3070   45.4550 C   0  0  1  0  0  0  0  0  0  0  0  0
   38.9570   32.7680   44.1300 C   0  0  0  0  0  0  0  0  0  0  0  0
   39.9240   32.2990   43.2410 O   0  0  0  0  0  0  0  0  0  0  0  0
   40.0740   30.9450   43.6210 C   0  0  0  0  0  0  0  0  0  0  0  0
   41.4750   30.9230   45.4980 O   0  0  0  0  0  0  0  0  0  0  0  0
   39.8281   31.6685   47.8756 H   0  0  0  0  0  0  0  0  0  0  0  0
   37.0897   33.1851   48.4420 H   0  0  0  0  0  0  0  0  0  0  0  0
   37.9373   33.8826   50.5078 H   0  0  0  0  0  0  0  0  0  0  0  0
   39.2579   32.6985   50.4961 H   0  0  0  0  0  0  0  0  0  0  0  0
   40.8278   33.8803   47.8068 H   0  0  0  0  0  0  0  0  0  0  0  0
   39.2882   34.6248   47.2641 H   0  0  0  0  0  0  0  0  0  0  0  0
   37.6573   28.6944   51.2431 H   0  0  0  0  0  0  0  0  0  0  0  0
   38.7558   30.9162   50.7683 H   0  0  0  0  0  0  0  0  0  0  0  0
   34.9044   29.3768   48.0770 H   0  0  0  0  0  0  0  0  0  0  0  0
   39.5746   30.1863   45.6843 H   0  0  0  0  0  0  0  0  0  0  0  0
   40.2902   32.9691   45.8644 H   0  0  0  0  0  0  0  0  0  0  0  0
   37.9742   32.3170   43.9285 H   0  0  0  0  0  0  0  0  0  0  0  0
   38.7835   33.8526   44.0708 H   0  0  0  0  0  0  0  0  0  0  0  0
   39.2246   30.3434   43.2653 H   0  0  0  0  0  0  0  0  0  0  0  0
   40.9760   30.4840   43.1921 H   0  0  0  0  0  0  0  0  0  0  0  0
   41.5649   30.9188   46.4839 H   0  0  0  0  0  0  0  0  0  0  0  0
  1  5  1  0
  1  2  1  0
  2  8  1  0
  2  3  1  0
  4  3  1  0
  5  4  1  0
  7  6  2  0
  8  7  1  0
  9 10  1  0
  9  8  2  0
 10 11  2  0
 11  6  1  0
 12  1  1  0
 13 14  1  0
 13 18  1  0
 14 12  1  0
 15 14  1  0
 16 17  1  0
 16 15  1  0
 17 13  1  0
  1 19  1  1
  2 20  1  6
  3 21  1  0
  3 22  1  0
  5 23  1  0
  5 24  1  0
  6 25  1  0
  7 26  1  0
 10 27  1  0
 13 28  1  1
 14 29  1  1
 15 30  1  0
 15 31  1  0
 17 32  1  0
 17 33  1  0
 18 34  1  0
M  ISO  8  19  13  20  13  21  13  22  13  23  13  24  13  25  14  26  14
M  ISO  8  27  14  28  13  29  13  30  13  31  13  32  13  33  13  34   3
M  END
>  <minimizedAffinity>  (1) 
-5.62268591

>  <minimizedRMSD>  (1) 
3.65306425

$$$$
