
     RDKit          3D

 34 35  0  0  0  0  0  0  0  0999 V2000
   37.1566   29.8451   51.5945 C   0  0  0  0  0  0  0  0  0  0  0  0
   37.6862   30.6982   50.5885 C   0  0  0  0  0  0  0  0  0  0  0  0
   36.8970   30.9559   49.4376 C   0  0  0  0  0  0  0  0  0  0  0  0
   35.6566   30.3593   49.3643 N   0  0  0  0  0  0  0  0  0  0  0  0
   35.1958   29.5645   50.3292 C   0  0  0  0  0  0  0  0  0  0  0  0
   35.9297   29.2968   51.4486 N   0  0  0  0  0  0  0  0  0  0  0  0
   37.5124   31.0297   47.0294 C   0  0  2  0  0  0  0  0  0  0  0  0
   37.3742   31.7976   48.3649 C   0  0  2  0  0  0  0  0  0  0  0  0
   38.7445   32.3252   48.4942 C   0  0  0  0  0  0  0  0  0  0  0  0
   39.1439   32.7127   47.2190 O   0  0  0  0  0  0  0  0  0  0  0  0
   38.3397   32.0991   46.2984 C   0  0  0  0  0  0  0  0  0  0  0  0
   36.2943   30.8620   46.4145 O   0  0  0  0  0  0  0  0  0  0  0  0
   37.8361   29.7167   52.4247 H   0  0  0  0  0  0  0  0  0  0  0  0
   38.6751   31.1486   50.6901 H   0  0  0  0  0  0  0  0  0  0  0  0
   34.2109   29.1124   50.2323 H   0  0  0  0  0  0  0  0  0  0  0  0
   38.0976   30.1316   47.2101 H   0  0  0  0  0  0  0  0  0  0  0  0
   36.6532   32.6289   48.1107 H   0  0  0  0  0  0  0  0  0  0  0  0
   39.4105   31.4487   48.7433 H   0  0  0  0  0  0  0  0  0  0  0  0
   38.8869   33.1047   49.2647 H   0  0  0  0  0  0  0  0  0  0  0  0
   37.6715   32.8044   45.7501 H   0  0  0  0  0  0  0  0  0  0  0  0
   38.9718   31.5413   45.5756 H   0  0  0  0  0  0  0  0  0  0  0  0
   35.9542   29.5864   46.0650 C   0  0  0  0  0  0  0  0  0  0  0  0
   35.0972   29.6819   44.8831 N   0  0  0  0  0  4  0  0  0  0  0  0
   35.1491   28.3681   44.2427 C   0  0  0  0  0  0  0  0  0  0  0  0
   34.3486   27.7646   44.7529 H   0  0  0  0  0  0  0  0  0  0  0  0
   33.7491   30.0376   45.2081 C   0  0  0  0  0  0  0  0  0  0  0  0
   33.0790   29.4124   44.5615 H   0  0  0  0  0  0  0  0  0  0  0  0
   36.8225   28.9237   45.8685 H   0  0  0  0  0  0  0  0  0  0  0  0
   35.3439   29.1319   46.8646 H   0  0  0  0  0  0  0  0  0  0  0  0
   35.5224   30.3710   44.2459 H   0  0  0  0  0  0  0  0  0  0  0  0
   36.1243   27.9255   44.4422 H   0  0  0  0  0  0  0  0  0  0  0  0
   34.9297   28.5318   43.1689 H   0  0  0  0  0  0  0  0  0  0  0  0
   33.4639   29.8856   46.2628 H   0  0  0  0  0  0  0  0  0  0  0  0
   33.5509   31.1006   44.8888 H   0  0  0  0  0  0  0  0  0  0  0  0
  2  1  2  0
  3  2  1  0
  4  3  2  0
  4  5  1  0
  5  6  2  0
  6  1  1  0
  7 12  1  0
  7  8  1  0
  8  9  1  0
  8  3  1  0
 10  9  1  0
 11  7  1  0
 11 10  1  0
  1 13  1  0
  2 14  1  0
  5 15  1  0
  7 16  1  1
  8 17  1  6
  9 18  1  0
  9 19  1  0
 11 20  1  0
 11 21  1  0
 22 23  1  0
 23 24  1  0
 24 25  1  0
 23 26  1  0
 26 27  1  0
 22 28  1  0
 22 29  1  0
 23 30  1  0
 24 31  1  0
 24 32  1  0
 26 33  1  0
 26 34  1  0
 12 22  1  0
M  CHG  1  23   1
M  END
>  <DihAtoms>  (1) 
6,11,21,22

>  <DihDeg>  (1) 
179.83188201550072

$$$$
