
     RDKit          3D

 34 36  0  0  1  0  0  0  0  0999 V2000
   38.9640   32.3710   47.7570 C   0  0  2  0  0  0  0  0  0  0  0  0
   37.9930   32.7020   48.9260 C   0  0  2  0  0  0  0  0  0  0  0  0
   38.8470   33.5010   49.7910 C   0  0  0  0  0  0  0  0  0  0  0  0
   39.6870   34.2510   48.9840 O   0  0  0  0  0  0  0  0  0  0  0  0
   39.6290   33.7700   47.7180 C   0  0  0  0  0  0  0  0  0  0  0  0
   37.3220   29.6340   50.9990 C   0  0  0  0  0  0  0  0  0  0  0  0
   38.0000   30.7940   50.5220 C   0  0  0  0  0  0  0  0  0  0  0  0
   37.3660   31.5200   49.4690 C   0  0  0  0  0  0  0  0  0  0  0  0
   36.1570   31.0790   48.9720 N   0  0  0  0  0  0  0  0  0  0  0  0
   35.5710   29.9850   49.4590 C   0  0  0  0  0  0  0  0  0  0  0  0
   36.1360   29.2540   50.4650 N   0  0  0  0  0  0  0  0  0  0  0  0
   38.3080   32.1580   46.5910 O   0  0  0  0  0  0  0  0  0  0  0  0
   40.9860   31.3590   45.2910 Cl  0  0  0  0  0  0  0  0  0  0  0  0
   39.4110   30.7530   44.8280 C   0  0  0  0  0  0  0  0  0  0  0  0
   38.3610   31.2730   45.5740 C   0  0  0  0  0  0  0  0  0  0  0  0
   37.1140   30.7980   45.2140 C   0  0  0  0  0  0  0  0  0  0  0  0
   36.9330   29.8830   44.1970 C   0  0  0  0  0  0  0  0  0  0  0  0
   38.0230   29.4110   43.4990 C   0  0  0  0  0  0  0  0  0  0  0  0
   39.2890   29.8430   43.8070 C   0  0  0  0  0  0  0  0  0  0  0  0
   40.4670   29.4190   43.1540 N   0  0  0  0  0  0  0  0  0  0  0  0
   39.5960   31.4794   47.8819 H   0  0  0  0  0  0  0  0  0  0  0  0
   37.0840   33.2659   48.6698 H   0  0  0  0  0  0  0  0  0  0  0  0
   38.2309   34.1683   50.4116 H   0  0  0  0  0  0  0  0  0  0  0  0
   39.4342   32.8511   50.4564 H   0  0  0  0  0  0  0  0  0  0  0  0
   40.6452   33.6871   47.3051 H   0  0  0  0  0  0  0  0  0  0  0  0
   39.0432   34.4496   47.0817 H   0  0  0  0  0  0  0  0  0  0  0  0
   37.7673   29.0400   51.8107 H   0  0  0  0  0  0  0  0  0  0  0  0
   38.9640   31.1137   50.9445 H   0  0  0  0  0  0  0  0  0  0  0  0
   34.6067   29.6624   49.0394 H   0  0  0  0  0  0  0  0  0  0  0  0
   36.2314   31.1636   45.7594 H   0  0  0  0  0  0  0  0  0  0  0  0
   35.9217   29.5316   43.9444 H   0  0  0  0  0  0  0  0  0  0  0  0
   37.8776   28.6820   42.6882 H   0  0  0  0  0  0  0  0  0  0  0  0
   41.3811   29.7927   43.4467 H   0  0  0  0  0  0  0  0  0  0  0  0
   40.4122   28.7360   42.3850 H   0  0  0  0  0  0  0  0  0  0  0  0
  1  2  1  0
  2  8  1  0
  2  3  1  0
  4  3  1  0
  5  1  1  0
  5  4  1  0
  7  6  2  0
  8  7  1  0
  9 10  1  0
  9  8  2  0
 10 11  2  0
 11  6  1  0
 12  1  1  0
 14 13  1  0
 14 15  2  0
 15 12  1  0
 16 15  1  0
 17 16  2  0
 18 19  2  0
 18 17  1  0
 19 14  1  0
 20 19  1  0
  1 21  1  1
  2 22  1  6
  3 23  1  0
  3 24  1  0
  5 25  1  0
  5 26  1  0
  6 27  1  0
  7 28  1  0
 10 29  1  0
 16 30  1  0
 17 31  1  0
 18 32  1  0
 20 33  1  0
 20 34  1  0
M  ISO  8  21  13  22  13  23  13  24  13  25  13  26  13  27  14  28  14
M  ISO  4  29  14  30  14  31  14  32  14
M  END
>  <minimizedAffinity>  (1) 
-5.92132425

>  <minimizedRMSD>  (1) 
0.118167616

$$$$
