
     RDKit          3D

 23 24  0  0  1  0  0  0  0  0999 V2000
   37.1020   31.1790   50.4520 C   0  0  1  0  0  0  0  0  0  0  0  0
   36.7140   29.7720   50.4270 C   0  0  1  0  0  0  0  0  0  0  0  0
   37.8900   30.1750   51.2770 C   0  0  0  0  0  0  0  0  0  0  0  0
   37.9220   31.7620   49.3260 C   0  0  0  0  0  0  0  0  0  0  0  0
   38.4400   33.0630   49.5090 C   0  0  0  0  0  0  0  0  0  0  0  0
   39.1730   33.5560   48.4440 C   0  0  0  0  0  0  0  0  0  0  0  0
   39.3660   32.8180   47.3090 N   0  0  0  0  0  0  0  0  0  0  0  0
   38.8480   31.5770   47.1830 C   0  0  0  0  0  0  0  0  0  0  0  0
   38.1250   31.0530   48.1990 N   0  0  0  0  0  0  0  0  0  0  0  0
   35.6060   29.2840   51.0710 O   0  0  0  0  0  0  0  0  0  0  0  0
   34.4990   30.3700   48.9010 O   0  0  0  0  0  0  0  0  0  0  0  0
   34.3210   29.2730   49.9430 P   0  0  0  0  0  0  0  0  0  0  0  0
   34.1590   27.8040   49.1680 O   0  0  0  0  0  0  0  0  0  0  0  0
   32.9140   29.6650   50.8150 O   0  0  0  0  0  0  0  0  0  0  0  0
   36.5139   32.0943   50.6146 H   0  0  0  0  0  0  0  0  0  0  0  0
   36.5249   29.0784   49.5944 H   0  0  0  0  0  0  0  0  0  0  0  0
   38.9117   29.8930   50.9827 H   0  0  0  0  0  0  0  0  0  0  0  0
   38.1750   30.0699   52.3342 H   0  0  0  0  0  0  0  0  0  0  0  0
   38.2732   33.6414   50.4297 H   0  0  0  0  0  0  0  0  0  0  0  0
   39.6099   34.5632   48.5118 H   0  0  0  0  0  0  0  0  0  0  0  0
   39.0126   30.9977   46.2625 H   0  0  0  0  0  0  0  0  0  0  0  0
   34.0795   27.0826   49.8414 H   0  0  0  0  0  0  0  0  0  0  0  0
   33.1020   29.6126   51.7856 H   0  0  0  0  0  0  0  0  0  0  0  0
  1  3  1  0
  2  1  1  0
  2 10  1  0
  2  3  1  0
  4  5  2  0
  4  1  1  0
  6  5  1  0
  7  6  2  0
  8  7  1  0
  8  9  2  0
  9  4  1  0
 11 12  2  0
 12 14  1  0
 12 10  1  0
 13 12  1  0
  1 15  1  1
  2 16  1  6
  3 17  1  0
  3 18  1  0
  5 19  1  0
  6 20  1  0
  8 21  1  0
 13 22  1  0
 14 23  1  0
M  ISO  8  15  13  16  13  17  13  18  13  19  14  20  14  21  14  22   3
M  ISO  1  23   3
M  END
>  <minimizedAffinity>  (1) 
-4.97696209

>  <minimizedRMSD>  (1) 
1.37233126

$$$$
