
     RDKit          3D

 32 34  0  0  1  0  0  0  0  0999 V2000
   35.7740   30.5540   49.0740 C   0  0  1  0  0  0  0  0  0  0  0  0
   35.4680   29.4020   48.2350 C   0  0  1  0  0  0  0  0  0  0  0  0
   36.1640   29.1650   49.5460 C   0  0  0  0  0  0  0  0  0  0  0  0
   36.9670   31.4260   48.7580 C   0  0  0  0  0  0  0  0  0  0  0  0
   37.3230   32.3990   49.7170 C   0  0  0  0  0  0  0  0  0  0  0  0
   38.4090   33.1930   49.3940 C   0  0  0  0  0  0  0  0  0  0  0  0
   39.0560   33.0090   48.2200 N   0  0  0  0  0  0  0  0  0  0  0  0
   38.6930   32.0700   47.3190 C   0  0  0  0  0  0  0  0  0  0  0  0
   37.6340   31.2690   47.5960 N   0  0  0  0  0  0  0  0  0  0  0  0
   34.1660   28.9190   47.9570 N   0  0  0  0  0  0  0  0  0  0  0  0
   33.7850   27.6870   48.5600 C   0  0  0  0  0  0  0  0  0  0  0  0
   32.2540   27.7610   48.6570 C   0  0  0  0  0  0  0  0  0  0  0  0
   31.7300   27.8230   47.2610 C   0  0  0  0  0  0  0  0  0  0  0  0
   32.2620   29.0450   46.5400 C   0  0  0  0  0  0  0  0  0  0  0  0
   33.7800   29.0430   46.5790 C   0  0  0  0  0  0  0  0  0  0  0  0
   35.1533   31.3913   49.4256 H   0  0  0  0  0  0  0  0  0  0  0  0
   35.6751   29.1568   47.1829 H   0  0  0  0  0  0  0  0  0  0  0  0
   37.2210   28.8612   49.5677 H   0  0  0  0  0  0  0  0  0  0  0  0
   35.9787   28.5524   50.4407 H   0  0  0  0  0  0  0  0  0  0  0  0
   36.7717   32.5183   50.6614 H   0  0  0  0  0  0  0  0  0  0  0  0
   38.7464   33.9738   50.0915 H   0  0  0  0  0  0  0  0  0  0  0  0
   39.2475   31.9569   46.3757 H   0  0  0  0  0  0  0  0  0  0  0  0
   34.0939   26.8365   47.9345 H   0  0  0  0  0  0  0  0  0  0  0  0
   34.2587   27.5386   49.5416 H   0  0  0  0  0  0  0  0  0  0  0  0
   31.8643   26.8678   49.1673 H   0  0  0  0  0  0  0  0  0  0  0  0
   31.9397   28.6436   49.2334 H   0  0  0  0  0  0  0  0  0  0  0  0
   32.0431   26.9191   46.7179 H   0  0  0  0  0  0  0  0  0  0  0  0
   30.6325   27.8862   47.2990 H   0  0  0  0  0  0  0  0  0  0  0  0
   31.8849   29.9532   47.0330 H   0  0  0  0  0  0  0  0  0  0  0  0
   31.9249   29.0253   45.4931 H   0  0  0  0  0  0  0  0  0  0  0  0
   34.1714   28.1939   45.9995 H   0  0  0  0  0  0  0  0  0  0  0  0
   34.1845   29.9671   46.1403 H   0  0  0  0  0  0  0  0  0  0  0  0
  1  3  1  0
  2  1  1  0
  2  3  1  0
  4  1  1  0
  4  5  2  0
  6  5  1  0
  7  6  2  0
  8  9  2  0
  8  7  1  0
  9  4  1  0
 10  2  1  0
 10 11  1  0
 11 12  1  0
 13 12  1  0
 14 15  1  0
 14 13  1  0
 15 10  1  0
  1 16  1  1
  2 17  1  6
  3 18  1  0
  3 19  1  0
  5 20  1  0
  6 21  1  0
  8 22  1  0
 11 23  1  0
 11 24  1  0
 12 25  1  0
 12 26  1  0
 13 27  1  0
 13 28  1  0
 14 29  1  0
 14 30  1  0
 15 31  1  0
 15 32  1  0
M  ISO  8  16  13  17  13  18  13  19  13  20  14  21  14  22  14  23  13
M  ISO  8  24  13  25  13  26  13  27  13  28  13  29  13  30  13  31  13
M  ISO  1  32  13
M  END
>  <minimizedAffinity>  (1) 
-4.73211336

>  <minimizedRMSD>  (1) 
1.93005335

$$$$
