
     RDKit          3D

 26 27  0  0  1  0  0  0  0  0999 V2000
   36.6530   31.0980   50.1550 C   0  0  1  0  0  0  0  0  0  0  0  0
   36.4350   29.6710   50.1960 C   0  0  1  0  0  0  0  0  0  0  0  0
   37.3510   30.2710   51.2360 C   0  0  0  0  0  0  0  0  0  0  0  0
   37.6490   31.7020   49.1820 C   0  0  0  0  0  0  0  0  0  0  0  0
   38.1250   32.9730   49.5080 C   0  0  0  0  0  0  0  0  0  0  0  0
   39.0220   33.5130   48.5880 C   0  0  0  0  0  0  0  0  0  0  0  0
   39.3760   32.8210   47.4730 N   0  0  0  0  0  0  0  0  0  0  0  0
   38.8830   31.5790   47.1960 C   0  0  0  0  0  0  0  0  0  0  0  0
   38.0030   31.0210   48.0780 N   0  0  0  0  0  0  0  0  0  0  0  0
   35.0710   29.1650   50.5770 C   0  0  0  0  0  0  0  0  0  0  0  0
   34.8200   28.0880   49.7030 O   0  0  0  0  0  0  0  0  0  0  0  0
   33.7310   27.5290   47.4340 O   0  0  0  0  0  0  0  0  0  0  0  0
   33.5900   28.4590   48.6140 P   0  0  0  0  0  0  0  0  0  0  0  0
   33.8120   30.0620   48.1160 O   0  0  0  0  0  0  0  0  0  0  0  0
   32.0540   28.2370   49.2810 O   0  0  0  0  0  0  0  0  0  0  0  0
   35.9418   31.9343   50.0855 H   0  0  0  0  0  0  0  0  0  0  0  0
   36.5525   28.8463   49.4777 H   0  0  0  0  0  0  0  0  0  0  0  0
   38.4362   30.0964   51.1925 H   0  0  0  0  0  0  0  0  0  0  0  0
   37.4094   30.2828   52.3344 H   0  0  0  0  0  0  0  0  0  0  0  0
   37.8165   33.5064   50.4192 H   0  0  0  0  0  0  0  0  0  0  0  0
   39.4485   34.5111   48.7664 H   0  0  0  0  0  0  0  0  0  0  0  0
   39.1868   31.0414   46.2857 H   0  0  0  0  0  0  0  0  0  0  0  0
   35.0644   28.8232   51.6225 H   0  0  0  0  0  0  0  0  0  0  0  0
   34.3036   29.9489   50.4952 H   0  0  0  0  0  0  0  0  0  0  0  0
   33.8929   30.6463   48.9110 H   0  0  0  0  0  0  0  0  0  0  0  0
   32.1187   28.2464   50.2688 H   0  0  0  0  0  0  0  0  0  0  0  0
  1  2  1  0
  1  3  1  0
  2 10  1  0
  2  3  1  0
  4  5  2  0
  4  1  1  0
  6  5  1  0
  7  6  2  0
  8  7  1  0
  8  9  2  0
  9  4  1  0
 11 10  1  0
 12 13  2  0
 13 15  1  0
 13 11  1  0
 14 13  1  0
  1 16  1  1
  2 17  1  6
  3 18  1  0
  3 19  1  0
  5 20  1  0
  6 21  1  0
  8 22  1  0
 10 23  1  0
 10 24  1  0
 14 25  1  0
 15 26  1  0
M  ISO  8  16  13  17  13  18  13  19  13  20  14  21  14  22  14  23   8
M  ISO  3  24   8  25   3  26   3
M  END
>  <minimizedAffinity>  (1) 
-5.20777273

>  <minimizedRMSD>  (1) 
1.63250089

$$$$
