
     RDKit          3D

 45 47  0  0  0  0  0  0  0  0999 V2000
   27.6950   28.7260   48.7490 C   0  0  0  0  0  0  0  0  0  0  0  0
   28.9590   28.2500   49.1280 C   0  0  0  0  0  0  0  0  0  0  0  0
   29.1590   27.6050   50.3340 C   0  0  0  0  0  0  0  0  0  0  0  0
   28.1080   27.4150   51.1960 C   0  0  0  0  0  0  0  0  0  0  0  0
   26.8710   27.8780   50.8320 C   0  0  0  0  0  0  0  0  0  0  0  0
   26.6320   28.5250   49.6440 C   0  0  0  0  0  0  0  0  0  0  0  0
   27.3560   29.5470   47.2820 S   0  0  0  0  0  0  0  0  0  0  0  0
   28.6090   29.7620   46.4730 O   0  0  0  0  0  0  0  0  0  0  0  0
   26.3810   28.6440   46.4510 O   0  0  0  0  0  0  0  0  0  0  0  0
   26.4470   30.9980   47.3790 C   0  0  0  0  0  0  0  0  0  0  0  0
   25.5980   31.6430   48.2090 C   0  0  0  0  0  0  0  0  0  0  0  0
   24.9330   32.8170   48.0180 C   0  0  0  0  0  0  0  0  0  0  0  0
   25.1490   33.4380   46.8120 C   0  0  0  0  0  0  0  0  0  0  0  0
   25.9970   32.8320   45.9300 C   0  0  0  0  0  0  0  0  0  0  0  0
   26.6080   31.6810   46.2020 N   0  0  0  0  0  0  0  0  0  0  0  0
   29.9190   28.4990   48.1890 O   0  0  0  0  0  0  0  0  0  0  0  0
   30.4970   26.0230   47.4900 O   0  0  0  0  0  0  0  0  0  0  0  0
   31.0750   27.4340   47.5880 P   0  0  1  0  0  0  0  0  0  0  0  0
   31.6490   27.9560   46.0820 O   0  0  0  0  0  0  0  0  0  0  0  0
   32.4040   27.2830   48.6340 O   0  0  0  0  0  0  0  0  0  0  0  0
   33.5670   27.1400   47.8590 C   0  0  0  0  0  0  0  0  0  0  0  0
   34.8350   28.3220   49.6090 C   0  0  0  0  0  0  0  0  0  0  0  0
   34.6630   28.0000   48.3590 C   0  0  0  0  0  0  0  0  0  0  0  0
   37.3350   30.2600   51.4550 C   0  0  0  0  0  0  0  0  0  0  0  0
   38.1150   30.7980   50.4250 C   0  0  0  0  0  0  0  0  0  0  0  0
   37.7720   30.4880   49.1080 C   0  0  0  0  0  0  0  0  0  0  0  0
   36.6790   29.6690   48.9490 N   0  0  0  0  0  0  0  0  0  0  0  0
   35.9670   29.1800   49.9440 C   0  0  0  0  0  0  0  0  0  0  0  0
   36.3060   29.4830   51.1970 N   0  0  0  0  0  0  0  0  0  0  0  0
   30.1623   27.2433   50.6034 H   0  0  0  0  0  0  0  0  0  0  0  0
   28.2556   26.9023   52.1579 H   0  0  0  0  0  0  0  0  0  0  0  0
   26.0295   27.7244   51.5236 H   0  0  0  0  0  0  0  0  0  0  0  0
   25.6209   28.8810   49.3971 H   0  0  0  0  0  0  0  0  0  0  0  0
   25.4181   31.1506   49.1760 H   0  0  0  0  0  0  0  0  0  0  0  0
   24.2648   33.2410   48.7821 H   0  0  0  0  0  0  0  0  0  0  0  0
   24.6562   34.3900   46.5655 H   0  0  0  0  0  0  0  0  0  0  0  0
   26.1823   33.3129   44.9582 H   0  0  0  0  0  0  0  0  0  0  0  0
   32.3747   28.6159   46.2161 H   0  0  0  0  0  0  0  0  0  0  0  0
   33.3400   27.4190   46.8195 H   0  0  0  0  0  0  0  0  0  0  0  0
   33.8957   26.0921   47.9212 H   0  0  0  0  0  0  0  0  0  0  0  0
   34.1486   27.9587   50.3880 H   0  0  0  0  0  0  0  0  0  0  0  0
   35.3811   28.3939   47.6247 H   0  0  0  0  0  0  0  0  0  0  0  0
   37.5875   30.4915   52.5003 H   0  0  0  0  0  0  0  0  0  0  0  0
   38.9747   31.4473   50.6472 H   0  0  0  0  0  0  0  0  0  0  0  0
   38.3411   30.8751   48.2500 H   0  0  0  0  0  0  0  0  0  0  0  0
  1  2  1  0
  1  6  2  0
  2  3  2  0
  3  4  1  0
  5  4  2  0
  6  5  1  0
  7 10  1  0
  7  1  1  0
  8  7  2  0
  9  7  2  0
 10 11  2  0
 12 11  1  0
 13 12  2  0
 14 15  2  0
 14 13  1  0
 15 10  1  0
 16  2  1  0
 18 17  2  0
 18 16  1  0
 18 20  1  0
 19 18  1  0
 21 23  1  0
 21 20  1  0
 22 28  1  0
 23 22  2  0
 25 24  2  0
 26 25  1  0
 27 26  2  0
 27 28  1  0
 28 29  2  0
 29 24  1  0
  3 30  1  0
  4 31  1  0
  5 32  1  0
  6 33  1  0
 11 34  1  0
 12 35  1  0
 13 36  1  0
 14 37  1  0
 19 38  1  0
 21 39  1  0
 21 40  1  0
 22 41  1  0
 23 42  1  0
 24 43  1  0
 25 44  1  0
 26 45  1  0
M  ISO  8  30  14  31  14  32  14  33  14  34  14  35  14  36  14  37  14
M  ISO  6  38   3  39   8  40   8  43  14  44  14  45  14
M  END
>  <minimizedAffinity>  (1) 
-6.96923542

>  <minimizedRMSD>  (1) 
1.85720813

$$$$
