
     RDKit          3D

 27 29  0  0  1  0  0  0  0  0999 V2000
   36.7860   31.1570   50.1730 C   0  0  1  0  0  0  0  0  0  0  0  0
   36.4750   29.7470   50.1060 C   0  0  1  0  0  0  0  0  0  0  0  0
   37.4640   30.2020   51.1500 C   0  0  0  0  0  0  0  0  0  0  0  0
   37.7620   31.7870   49.2110 C   0  0  0  0  0  0  0  0  0  0  0  0
   38.2220   33.0570   49.5580 C   0  0  0  0  0  0  0  0  0  0  0  0
   39.1070   33.6400   48.6330 C   0  0  0  0  0  0  0  0  0  0  0  0
   39.4550   32.9740   47.5030 N   0  0  0  0  0  0  0  0  0  0  0  0
   38.9770   31.7290   47.2090 C   0  0  0  0  0  0  0  0  0  0  0  0
   38.1110   31.1320   48.0920 N   0  0  0  0  0  0  0  0  0  0  0  0
   35.0910   29.3040   50.5020 C   0  0  0  0  0  0  0  0  0  0  0  0
   34.2110   29.0340   49.3400 C   0  0  0  0  0  0  0  0  0  0  0  0
   34.1910   29.8470   48.2230 C   0  0  0  0  0  0  0  0  0  0  0  0
   33.3260   29.4190   47.2970 N   0  0  0  0  0  0  0  0  0  0  0  0
   32.7870   28.3080   47.8460 C   0  0  0  0  0  0  0  0  0  0  0  0
   33.3130   28.0700   49.0750 N   0  0  0  0  0  0  0  0  0  0  0  0
   36.1318   32.0407   50.2055 H   0  0  0  0  0  0  0  0  0  0  0  0
   36.5126   28.9769   49.3215 H   0  0  0  0  0  0  0  0  0  0  0  0
   38.5331   29.9644   51.0475 H   0  0  0  0  0  0  0  0  0  0  0  0
   37.5623   30.1189   52.2424 H   0  0  0  0  0  0  0  0  0  0  0  0
   37.9160   33.5644   50.4848 H   0  0  0  0  0  0  0  0  0  0  0  0
   39.5192   34.6413   48.8267 H   0  0  0  0  0  0  0  0  0  0  0  0
   39.2792   31.2152   46.2845 H   0  0  0  0  0  0  0  0  0  0  0  0
   35.1755   28.3835   51.0983 H   0  0  0  0  0  0  0  0  0  0  0  0
   34.6353   30.1256   51.0741 H   0  0  0  0  0  0  0  0  0  0  0  0
   34.8160   30.7449   48.1082 H   0  0  0  0  0  0  0  0  0  0  0  0
   33.1189   29.8384   46.3793 H   0  0  0  0  0  0  0  0  0  0  0  0
   32.0242   27.6804   47.3620 H   0  0  0  0  0  0  0  0  0  0  0  0
  1  3  1  0
  2  1  1  0
  2 10  1  0
  2  3  1  0
  4  5  2  0
  4  1  1  0
  6  5  1  0
  7  6  2  0
  8  7  1  0
  8  9  2  0
  9  4  1  0
 11 10  1  0
 12 11  2  0
 13 14  1  0
 13 12  1  0
 14 15  2  0
 15 11  1  0
  1 16  1  1
  2 17  1  6
  3 18  1  0
  3 19  1  0
  5 20  1  0
  6 21  1  0
  8 22  1  0
 10 23  1  0
 10 24  1  0
 12 25  1  0
 13 26  1  0
 14 27  1  0
M  ISO  8  16  13  17  13  18  13  19  13  20  14  21  14  22  14  23   8
M  ISO  4  24   8  25  14  26   9  27  14
M  END
>  <minimizedAffinity>  (1) 
-5.23055601

>  <minimizedRMSD>  (1) 
1.16506422

$$$$
