
     RDKit          3D

 37 40  0  0  1  0  0  0  0  0999 V2000
   35.2010   29.2570   50.7090 C   0  0  0  0  0  0  0  0  0  0  0  0
   34.3560   28.8090   49.5660 C   0  0  0  0  0  0  0  0  0  0  0  0
   34.7890   28.8370   48.2620 C   0  0  0  0  0  0  0  0  0  0  0  0
   33.8540   28.3890   47.4120 N   0  0  0  0  0  0  0  0  0  0  0  0
   32.8000   28.0710   48.2120 C   0  0  0  0  0  0  0  0  0  0  0  0
   33.1030   28.3230   49.5010 N   0  0  0  0  0  0  0  0  0  0  0  0
   31.5590   27.5460   47.7460 N   0  0  0  0  0  0  0  0  0  0  0  0
   30.5880   27.5800   48.7040 C   0  0  0  0  0  0  0  0  0  0  0  0
   29.3260   27.1180   48.4440 C   0  0  0  0  0  0  0  0  0  0  0  0
   29.0510   26.6160   47.1880 C   0  0  0  0  0  0  0  0  0  0  0  0
   27.9150   26.1800   46.8900 O   0  0  0  0  0  0  0  0  0  0  0  0
   30.0250   26.5970   46.2740 N   0  0  0  0  0  0  0  0  0  0  0  0
   31.2670   27.0510   46.5280 C   0  0  0  0  0  0  0  0  0  0  0  0
   32.2350   27.0660   45.7200 O   0  0  0  0  0  0  0  0  0  0  0  0
   36.8070   31.1500   50.2160 C   0  0  1  0  0  0  0  0  0  0  0  0
   36.5450   29.7470   50.2700 C   0  0  1  0  0  0  0  0  0  0  0  0
   37.5530   30.2860   51.2480 C   0  0  0  0  0  0  0  0  0  0  0  0
   37.7600   31.7410   49.1900 C   0  0  0  0  0  0  0  0  0  0  0  0
   38.2480   33.0020   49.4800 C   0  0  0  0  0  0  0  0  0  0  0  0
   39.1100   33.5360   48.4940 C   0  0  0  0  0  0  0  0  0  0  0  0
   39.4040   32.8370   47.3790 N   0  0  0  0  0  0  0  0  0  0  0  0
   38.8930   31.5930   47.1420 C   0  0  0  0  0  0  0  0  0  0  0  0
   38.0510   31.0330   48.0710 N   0  0  0  0  0  0  0  0  0  0  0  0
   34.6818   30.0730   51.2330 H   0  0  0  0  0  0  0  0  0  0  0  0
   35.3597   28.3902   51.3674 H   0  0  0  0  0  0  0  0  0  0  0  0
   35.7852   29.1858   47.9522 H   0  0  0  0  0  0  0  0  0  0  0  0
   33.9186   28.3047   46.3875 H   0  0  0  0  0  0  0  0  0  0  0  0
   30.8227   27.9845   49.6996 H   0  0  0  0  0  0  0  0  0  0  0  0
   28.5470   27.1462   49.2201 H   0  0  0  0  0  0  0  0  0  0  0  0
   29.8178   26.2202   45.3380 H   0  0  0  0  0  0  0  0  0  0  0  0
   36.1180   32.0071   50.1912 H   0  0  0  0  0  0  0  0  0  0  0  0
   36.5811   28.9274   49.5373 H   0  0  0  0  0  0  0  0  0  0  0  0
   38.6243   30.0675   51.1270 H   0  0  0  0  0  0  0  0  0  0  0  0
   37.6910   30.2825   52.3393 H   0  0  0  0  0  0  0  0  0  0  0  0
   37.9875   33.5445   50.4008 H   0  0  0  0  0  0  0  0  0  0  0  0
   39.5466   34.5352   48.6387 H   0  0  0  0  0  0  0  0  0  0  0  0
   39.1517   31.0484   46.2219 H   0  0  0  0  0  0  0  0  0  0  0  0
  2  1  1  0
  3  2  2  0
  4  5  1  0
  4  3  1  0
  5  6  2  0
  6  2  1  0
  7  5  1  0
  7  8  1  0
  9  8  2  0
 10  9  1  0
 11 10  2  0
 12 13  1  0
 12 10  1  0
 13  7  1  0
 14 13  2  0
 15 16  1  0
 15 17  1  0
 16  1  1  0
 16 17  1  0
 18 19  2  0
 18 15  1  0
 20 19  1  0
 21 20  2  0
 22 21  1  0
 22 23  2  0
 23 18  1  0
  1 24  1  0
  1 25  1  0
  3 26  1  0
  4 27  1  0
  8 28  1  0
  9 29  1  0
 12 30  1  0
 15 31  1  1
 16 32  1  6
 17 33  1  0
 17 34  1  0
 19 35  1  0
 20 36  1  0
 22 37  1  0
M  ISO  8  24   8  25   8  26  14  27   9  28  14  29  14  30   9  31  13
M  ISO  6  32  13  33  13  34  13  35  14  36  14  37  14
M  END
>  <minimizedAffinity>  (1) 
-6.38809586

>  <minimizedRMSD>  (1) 
0.888946533

$$$$
