
     RDKit          3D

 40 44  0  0  1  0  0  0  0  0999 V2000
   35.4280   29.2900   50.8640 C   0  0  0  0  0  0  0  0  0  0  0  0
   37.0340   31.1690   50.2920 C   0  0  1  0  0  0  0  0  0  0  0  0
   36.7420   29.7700   50.3300 C   0  0  1  0  0  0  0  0  0  0  0  0
   37.8500   30.2450   51.2190 C   0  0  0  0  0  0  0  0  0  0  0  0
   37.9020   31.7770   49.2060 C   0  0  0  0  0  0  0  0  0  0  0  0
   38.3880   33.0480   49.4600 C   0  0  0  0  0  0  0  0  0  0  0  0
   39.1710   33.5980   48.4240 C   0  0  0  0  0  0  0  0  0  0  0  0
   39.4010   32.8950   47.2850 N   0  0  0  0  0  0  0  0  0  0  0  0
   38.8960   31.6340   47.0790 C   0  0  0  0  0  0  0  0  0  0  0  0
   38.1320   31.0740   48.0700 N   0  0  0  0  0  0  0  0  0  0  0  0
   34.4330   29.0280   49.7820 C   0  0  0  0  0  0  0  0  0  0  0  0
   34.6030   29.4390   48.4830 C   0  0  0  0  0  0  0  0  0  0  0  0
   33.5610   29.0770   47.7280 N   0  0  0  0  0  0  0  0  0  0  0  0
   32.7170   28.4230   48.5710 C   0  0  0  0  0  0  0  0  0  0  0  0
   33.2470   28.3960   49.8100 N   0  0  0  0  0  0  0  0  0  0  0  0
   31.2800   27.4010   46.8690 C   0  0  0  0  0  0  0  0  0  0  0  0
   31.4350   27.8500   48.1640 C   0  0  0  0  0  0  0  0  0  0  0  0
   30.4080   27.7670   49.0820 C   0  0  0  0  0  0  0  0  0  0  0  0
   29.2020   27.2330   48.7180 C   0  0  0  0  0  0  0  0  0  0  0  0
   28.0220   27.0030   49.3260 N   0  0  0  0  0  0  0  0  0  0  0  0
   27.1350   26.4350   48.4840 C   0  0  0  0  0  0  0  0  0  0  0  0
   27.7860   26.3060   47.3090 N   0  0  0  0  0  0  0  0  0  0  0  0
   29.0370   26.7850   47.4390 C   0  0  0  0  0  0  0  0  0  0  0  0
   30.0480   26.8570   46.5050 C   0  0  0  0  0  0  0  0  0  0  0  0
   35.5940   28.3579   51.4240 H   0  0  0  0  0  0  0  0  0  0  0  0
   35.0198   30.0819   51.5092 H   0  0  0  0  0  0  0  0  0  0  0  0
   36.3685   32.0424   50.3574 H   0  0  0  0  0  0  0  0  0  0  0  0
   36.6877   28.9723   49.5745 H   0  0  0  0  0  0  0  0  0  0  0  0
   38.8976   30.0022   50.9875 H   0  0  0  0  0  0  0  0  0  0  0  0
   38.0915   30.1983   52.2912 H   0  0  0  0  0  0  0  0  0  0  0  0
   38.1798   33.5866   50.3962 H   0  0  0  0  0  0  0  0  0  0  0  0
   39.5990   34.6047   48.5394 H   0  0  0  0  0  0  0  0  0  0  0  0
   39.0990   31.0891   46.1452 H   0  0  0  0  0  0  0  0  0  0  0  0
   35.4791   29.9919   48.1132 H   0  0  0  0  0  0  0  0  0  0  0  0
   33.4259   29.2552   46.7226 H   0  0  0  0  0  0  0  0  0  0  0  0
   32.1043   27.4699   46.1439 H   0  0  0  0  0  0  0  0  0  0  0  0
   30.5593   28.1310   50.1089 H   0  0  0  0  0  0  0  0  0  0  0  0
   27.8225   27.2322   50.3102 H   0  0  0  0  0  0  0  0  0  0  0  0
   26.0994   26.1392   48.7077 H   0  0  0  0  0  0  0  0  0  0  0  0
   29.8849   26.4887   45.4814 H   0  0  0  0  0  0  0  0  0  0  0  0
  2  3  1  0
  2  4  1  0
  3  1  1  0
  3  4  1  0
  5  6  2  0
  5  2  1  0
  7  6  1  0
  8  7  2  0
  9  8  1  0
  9 10  2  0
 10  5  1  0
 11 15  1  0
 11  1  1  0
 12 11  2  0
 13 12  1  0
 13 14  1  0
 14 15  2  0
 16 17  2  0
 17 14  1  0
 17 18  1  0
 19 18  2  0
 19 20  1  0
 21 20  1  0
 22 23  1  0
 22 21  2  0
 23 19  1  0
 24 16  1  0
 24 23  2  0
  1 25  1  0
  1 26  1  0
  2 27  1  1
  3 28  1  6
  4 29  1  0
  4 30  1  0
  6 31  1  0
  7 32  1  0
  9 33  1  0
 12 34  1  0
 13 35  1  0
 16 36  1  0
 18 37  1  0
 20 38  1  0
 21 39  1  0
 24 40  1  0
M  ISO  8  25   8  26   8  27  13  28  13  29  13  30  13  31  14  32  14
M  ISO  8  33  14  34  14  35   9  36  14  37  14  38   9  39  14  40  14
M  END
>  <minimizedAffinity>  (1) 
-6.24300241

>  <minimizedRMSD>  (1) 
1.15533566

$$$$
