
     RDKit          3D

 37 40  0  0  1  0  0  0  0  0999 V2000
   34.8420   28.7890   50.2350 C   0  0  0  0  0  0  0  0  0  0  0  0
   36.7330   30.4510   49.9760 C   0  0  1  0  0  0  0  0  0  0  0  0
   36.1970   29.1560   49.7050 C   0  0  1  0  0  0  0  0  0  0  0  0
   37.4180   29.2040   50.5720 C   0  0  0  0  0  0  0  0  0  0  0  0
   37.6370   31.1690   48.9950 C   0  0  0  0  0  0  0  0  0  0  0  0
   38.0780   32.4210   49.3830 C   0  0  0  0  0  0  0  0  0  0  0  0
   38.8960   33.0810   48.4430 C   0  0  0  0  0  0  0  0  0  0  0  0
   39.1990   32.4910   47.2570 N   0  0  0  0  0  0  0  0  0  0  0  0
   38.7350   31.2410   46.9150 C   0  0  0  0  0  0  0  0  0  0  0  0
   37.9390   30.5830   47.8160 N   0  0  0  0  0  0  0  0  0  0  0  0
   33.8200   28.6620   49.1560 C   0  0  0  0  0  0  0  0  0  0  0  0
   33.8650   29.4060   47.9960 C   0  0  0  0  0  0  0  0  0  0  0  0
   32.8410   29.1120   47.1940 N   0  0  0  0  0  0  0  0  0  0  0  0
   32.1350   28.1630   47.8620 C   0  0  0  0  0  0  0  0  0  0  0  0
   32.7310   27.8990   49.0400 N   0  0  0  0  0  0  0  0  0  0  0  0
   29.8090   28.0860   49.8220 Cl  0  0  0  0  0  0  0  0  0  0  0  0
   29.7980   27.4460   48.1800 C   0  0  0  0  0  0  0  0  0  0  0  0
   30.9150   27.5320   47.3670 C   0  0  0  0  0  0  0  0  0  0  0  0
   30.8490   27.0180   46.1020 C   0  0  0  0  0  0  0  0  0  0  0  0
   29.7050   26.4310   45.6510 C   0  0  0  0  0  0  0  0  0  0  0  0
   28.6080   26.3610   46.4850 C   0  0  0  0  0  0  0  0  0  0  0  0
   28.6000   26.8630   47.7890 C   0  0  0  0  0  0  0  0  0  0  0  0
   34.9187   27.8269   50.7628 H   0  0  0  0  0  0  0  0  0  0  0  0
   34.5175   29.5960   50.9084 H   0  0  0  0  0  0  0  0  0  0  0  0
   36.2382   31.3744   50.3114 H   0  0  0  0  0  0  0  0  0  0  0  0
   35.9629   28.5901   48.7912 H   0  0  0  0  0  0  0  0  0  0  0  0
   38.3911   28.8621   50.1897 H   0  0  0  0  0  0  0  0  0  0  0  0
   37.7036   28.8489   51.5732 H   0  0  0  0  0  0  0  0  0  0  0  0
   37.8108   32.8682   50.3518 H   0  0  0  0  0  0  0  0  0  0  0  0
   39.2920   34.0815   48.6716 H   0  0  0  0  0  0  0  0  0  0  0  0
   38.9950   30.7844   45.9486 H   0  0  0  0  0  0  0  0  0  0  0  0
   34.6445   30.1461   47.7624 H   0  0  0  0  0  0  0  0  0  0  0  0
   32.6313   29.5161   46.2701 H   0  0  0  0  0  0  0  0  0  0  0  0
   31.7272   27.0788   45.4424 H   0  0  0  0  0  0  0  0  0  0  0  0
   29.6565   26.0173   44.6329 H   0  0  0  0  0  0  0  0  0  0  0  0
   27.6924   25.8854   46.1036 H   0  0  0  0  0  0  0  0  0  0  0  0
   27.7215   26.8017   48.4481 H   0  0  0  0  0  0  0  0  0  0  0  0
  2  4  1  0
  3  2  1  0
  3  1  1  0
  3  4  1  0
  5  6  2  0
  5  2  1  0
  7  6  1  0
  8  7  2  0
  9  8  1  0
  9 10  2  0
 10  5  1  0
 11  1  1  0
 12 11  2  0
 13 14  1  0
 13 12  1  0
 14 15  2  0
 15 11  1  0
 17 16  1  0
 18 14  1  0
 18 17  2  0
 19 18  1  0
 20 19  2  0
 20 21  1  0
 21 22  2  0
 22 17  1  0
  1 23  1  0
  1 24  1  0
  2 25  1  1
  3 26  1  6
  4 27  1  0
  4 28  1  0
  6 29  1  0
  7 30  1  0
  9 31  1  0
 12 32  1  0
 13 33  1  0
 19 34  1  0
 20 35  1  0
 21 36  1  0
 22 37  1  0
M  ISO  8  23   8  24   8  25  13  26  13  27  13  28  13  29  14  30  14
M  ISO  7  31  14  32  14  33   9  34  14  35  14  36  14  37  14
M  END
>  <minimizedAffinity>  (1) 
-6.09072208

>  <minimizedRMSD>  (1) 
1.14945447

$$$$
