
     RDKit          3D

 33 35  0  0  1  0  0  0  0  0999 V2000
   34.9570   29.0790   50.4780 C   0  0  0  0  0  0  0  0  0  0  0  0
   36.6890   30.8920   50.1340 C   0  0  1  0  0  0  0  0  0  0  0  0
   36.3190   29.5160   50.0470 C   0  0  1  0  0  0  0  0  0  0  0  0
   37.3990   29.8650   51.0380 C   0  0  0  0  0  0  0  0  0  0  0  0
   37.6540   31.5230   49.1430 C   0  0  0  0  0  0  0  0  0  0  0  0
   38.1170   32.7820   49.4830 C   0  0  0  0  0  0  0  0  0  0  0  0
   38.9940   33.3530   48.5260 C   0  0  0  0  0  0  0  0  0  0  0  0
   39.3180   32.6830   47.3920 N   0  0  0  0  0  0  0  0  0  0  0  0
   38.8280   31.4480   47.1160 C   0  0  0  0  0  0  0  0  0  0  0  0
   37.9760   30.8510   48.0110 N   0  0  0  0  0  0  0  0  0  0  0  0
   34.0230   28.8840   49.3320 C   0  0  0  0  0  0  0  0  0  0  0  0
   34.1800   29.5550   48.1340 C   0  0  0  0  0  0  0  0  0  0  0  0
   33.2300   29.2310   47.2440 N   0  0  0  0  0  0  0  0  0  0  0  0
   32.4550   28.3300   47.9070 C   0  0  0  0  0  0  0  0  0  0  0  0
   32.9340   28.1270   49.1500 N   0  0  0  0  0  0  0  0  0  0  0  0
   31.3250   27.6880   47.4060 O   0  0  0  0  0  0  0  0  0  0  0  0
   29.1470   29.2110   47.3940 O   0  0  0  0  0  0  0  0  0  0  0  0
   29.7610   28.0110   48.0670 P   0  0  0  0  0  0  0  0  0  0  0  0
   29.9400   28.4190   49.7150 O   0  0  0  0  0  0  0  0  0  0  0  0
   28.7960   26.6530   47.9020 O   0  0  0  0  0  0  0  0  0  0  0  0
   35.0490   28.1275   51.0222 H   0  0  0  0  0  0  0  0  0  0  0  0
   34.5398   29.8740   51.1136 H   0  0  0  0  0  0  0  0  0  0  0  0
   36.0677   31.7949   50.2278 H   0  0  0  0  0  0  0  0  0  0  0  0
   36.2668   28.7825   49.2289 H   0  0  0  0  0  0  0  0  0  0  0  0
   38.4452   29.5814   50.8509 H   0  0  0  0  0  0  0  0  0  0  0  0
   37.5715   29.7303   52.1160 H   0  0  0  0  0  0  0  0  0  0  0  0
   37.8302   33.2944   50.4131 H   0  0  0  0  0  0  0  0  0  0  0  0
   39.4171   34.3524   48.7057 H   0  0  0  0  0  0  0  0  0  0  0  0
   39.1102   30.9319   46.1865 H   0  0  0  0  0  0  0  0  0  0  0  0
   34.9901   30.2717   47.9335 H   0  0  0  0  0  0  0  0  0  0  0  0
   33.1141   29.5823   46.2827 H   0  0  0  0  0  0  0  0  0  0  0  0
   29.6126   27.6727   50.2772 H   0  0  0  0  0  0  0  0  0  0  0  0
   28.5525   26.3103   48.7983 H   0  0  0  0  0  0  0  0  0  0  0  0
  2  4  1  0
  3  2  1  0
  3  1  1  0
  3  4  1  0
  5  6  2  0
  5  2  1  0
  7  6  1  0
  8  7  2  0
  9  8  1  0
  9 10  2  0
 10  5  1  0
 11  1  1  0
 12 11  2  0
 13 14  1  0
 13 12  1  0
 14 15  2  0
 15 11  1  0
 16 14  1  0
 16 18  1  0
 17 18  2  0
 18 19  1  0
 20 18  1  0
  1 21  1  0
  1 22  1  0
  2 23  1  1
  3 24  1  6
  4 25  1  0
  4 26  1  0
  6 27  1  0
  7 28  1  0
  9 29  1  0
 12 30  1  0
 13 31  1  0
 19 32  1  0
 20 33  1  0
M  ISO  8  21   8  22   8  23  13  24  13  25  13  26  13  27  14  28  14
M  ISO  5  29  14  30  14  31   9  32   3  33   3
M  END
>  <minimizedAffinity>  (1) 
-5.81193924

>  <minimizedRMSD>  (1) 
1.04731882

$$$$
