
     RDKit          3D

 36 39  0  0  1  0  0  0  0  0999 V2000
   34.9980   29.1770   50.5550 C   0  0  0  0  0  0  0  0  0  0  0  0
   36.7570   30.9510   50.1580 C   0  0  1  0  0  0  0  0  0  0  0  0
   36.3560   29.5810   50.0790 C   0  0  1  0  0  0  0  0  0  0  0  0
   37.4790   29.9040   51.0290 C   0  0  0  0  0  0  0  0  0  0  0  0
   37.6950   31.5660   49.1330 C   0  0  0  0  0  0  0  0  0  0  0  0
   38.1840   32.8220   49.4440 C   0  0  0  0  0  0  0  0  0  0  0  0
   39.0300   33.3980   48.4930 C   0  0  0  0  0  0  0  0  0  0  0  0
   39.3210   32.7130   47.3470 N   0  0  0  0  0  0  0  0  0  0  0  0
   38.8160   31.4730   47.0800 C   0  0  0  0  0  0  0  0  0  0  0  0
   37.9820   30.8860   47.9980 N   0  0  0  0  0  0  0  0  0  0  0  0
   34.0500   28.9260   49.4360 C   0  0  0  0  0  0  0  0  0  0  0  0
   34.1980   29.4810   48.1900 C   0  0  0  0  0  0  0  0  0  0  0  0
   33.2270   29.1150   47.3510 N   0  0  0  0  0  0  0  0  0  0  0  0
   32.4360   28.2960   48.0950 C   0  0  0  0  0  0  0  0  0  0  0  0
   32.9300   28.1840   49.3430 N   0  0  0  0  0  0  0  0  0  0  0  0
   31.2190   27.6230   47.6360 C   0  0  0  0  0  0  0  0  0  0  0  0
   30.0930   27.6250   48.4660 C   0  0  0  0  0  0  0  0  0  0  0  0
   28.9260   26.9870   48.0410 C   0  0  0  0  0  0  0  0  0  0  0  0
   28.9960   26.3960   46.8040 C   0  0  0  0  0  0  0  0  0  0  0  0
   30.0750   26.3710   45.9650 C   0  0  0  0  0  0  0  0  0  0  0  0
   31.1610   27.0050   46.4400 N   0  0  0  0  0  0  0  0  0  0  0  0
   35.0927   28.2564   51.1496 H   0  0  0  0  0  0  0  0  0  0  0  0
   34.5944   30.0071   51.1533 H   0  0  0  0  0  0  0  0  0  0  0  0
   36.1592   31.8662   50.2804 H   0  0  0  0  0  0  0  0  0  0  0  0
   36.2606   28.8487   49.2638 H   0  0  0  0  0  0  0  0  0  0  0  0
   38.5114   29.6004   50.8010 H   0  0  0  0  0  0  0  0  0  0  0  0
   37.6891   29.7600   52.0991 H   0  0  0  0  0  0  0  0  0  0  0  0
   37.9231   33.3351   50.3813 H   0  0  0  0  0  0  0  0  0  0  0  0
   39.4589   34.3961   48.6656 H   0  0  0  0  0  0  0  0  0  0  0  0
   39.0732   30.9535   46.1452 H   0  0  0  0  0  0  0  0  0  0  0  0
   35.0244   30.1524   47.9136 H   0  0  0  0  0  0  0  0  0  0  0  0
   33.1046   29.3897   46.3659 H   0  0  0  0  0  0  0  0  0  0  0  0
   30.1267   28.1250   49.4452 H   0  0  0  0  0  0  0  0  0  0  0  0
   28.0137   26.9598   48.6549 H   0  0  0  0  0  0  0  0  0  0  0  0
   28.0867   25.8883   46.4500 H   0  0  0  0  0  0  0  0  0  0  0  0
   30.0561   25.8740   44.9839 H   0  0  0  0  0  0  0  0  0  0  0  0
  2  4  1  0
  3  2  1  0
  3  1  1  0
  3  4  1  0
  5  6  2  0
  5  2  1  0
  7  6  1  0
  8  7  2  0
  9  8  1  0
  9 10  2  0
 10  5  1  0
 11  1  1  0
 12 11  2  0
 13 14  1  0
 13 12  1  0
 14 15  2  0
 15 11  1  0
 16 14  1  0
 16 17  2  0
 18 17  1  0
 19 18  2  0
 20 21  2  0
 20 19  1  0
 21 16  1  0
  1 22  1  0
  1 23  1  0
  2 24  1  1
  3 25  1  6
  4 26  1  0
  4 27  1  0
  6 28  1  0
  7 29  1  0
  9 30  1  0
 12 31  1  0
 13 32  1  0
 17 33  1  0
 18 34  1  0
 19 35  1  0
 20 36  1  0
M  ISO  8  22   8  23   8  24  13  25  13  26  13  27  13  28  14  29  14
M  ISO  7  30  14  31  14  32   9  33  14  34  14  35  14  36  14
M  END
>  <minimizedAffinity>  (1) 
-5.79525709

>  <minimizedRMSD>  (1) 
0.655179739

$$$$
