
     RDKit          3D

 31 33  0  0  1  0  0  0  0  0999 V2000
   36.8340   31.1720   50.2290 C   0  0  1  0  0  0  0  0  0  0  0  0
   36.5250   29.7790   50.1960 C   0  0  1  0  0  0  0  0  0  0  0  0
   37.5650   30.2250   51.1940 C   0  0  0  0  0  0  0  0  0  0  0  0
   37.7900   31.8010   49.2330 C   0  0  0  0  0  0  0  0  0  0  0  0
   38.2480   33.0650   49.5610 C   0  0  0  0  0  0  0  0  0  0  0  0
   39.1110   33.6390   48.6070 C   0  0  0  0  0  0  0  0  0  0  0  0
   39.4370   32.9770   47.4810 N   0  0  0  0  0  0  0  0  0  0  0  0
   38.9600   31.7290   47.2020 C   0  0  0  0  0  0  0  0  0  0  0  0
   38.1160   31.1290   48.1040 N   0  0  0  0  0  0  0  0  0  0  0  0
   35.1740   29.3020   50.6210 C   0  0  0  0  0  0  0  0  0  0  0  0
   34.2660   29.0480   49.4650 C   0  0  0  0  0  0  0  0  0  0  0  0
   34.2750   29.8320   48.3310 C   0  0  0  0  0  0  0  0  0  0  0  0
   33.3770   29.4210   47.4270 N   0  0  0  0  0  0  0  0  0  0  0  0
   32.7890   28.3530   48.0070 C   0  0  0  0  0  0  0  0  0  0  0  0
   33.3160   28.1250   49.2250 N   0  0  0  0  0  0  0  0  0  0  0  0
   30.5570   27.2070   48.0270 C   0  0  0  0  0  0  0  0  0  0  0  0
   30.4270   27.5260   49.2530 O   0  0  0  0  0  0  0  0  0  0  0  0
   31.7530   27.6130   47.3550 N   0  0  0  0  0  0  0  0  0  0  0  0
   36.1715   32.0493   50.2676 H   0  0  0  0  0  0  0  0  0  0  0  0
   36.5236   29.0079   49.4115 H   0  0  0  0  0  0  0  0  0  0  0  0
   38.6272   29.9816   51.0441 H   0  0  0  0  0  0  0  0  0  0  0  0
   37.7169   30.1493   52.2808 H   0  0  0  0  0  0  0  0  0  0  0  0
   37.9617   33.5792   50.4903 H   0  0  0  0  0  0  0  0  0  0  0  0
   39.5245   34.6427   48.7847 H   0  0  0  0  0  0  0  0  0  0  0  0
   39.2459   31.2140   46.2730 H   0  0  0  0  0  0  0  0  0  0  0  0
   35.2927   28.3669   51.1880 H   0  0  0  0  0  0  0  0  0  0  0  0
   34.7189   30.0933   51.2348 H   0  0  0  0  0  0  0  0  0  0  0  0
   34.9421   30.6945   48.1859 H   0  0  0  0  0  0  0  0  0  0  0  0
   33.1799   29.8267   46.5010 H   0  0  0  0  0  0  0  0  0  0  0  0
   29.7755   26.6381   47.5020 H   0  0  0  0  0  0  0  0  0  0  0  0
   31.8727   27.3627   46.3631 H   0  0  0  0  0  0  0  0  0  0  0  0
  1  3  1  0
  2  1  1  0
  2 10  1  0
  2  3  1  0
  4  5  2  0
  4  1  1  0
  6  5  1  0
  7  6  2  0
  8  7  1  0
  8  9  2  0
  9  4  1  0
 11 10  1  0
 12 11  2  0
 13 14  1  0
 13 12  1  0
 14 15  2  0
 15 11  1  0
 16 17  2  0
 18 14  1  0
 18 16  1  0
  1 19  1  1
  2 20  1  6
  3 21  1  0
  3 22  1  0
  5 23  1  0
  6 24  1  0
  8 25  1  0
 10 26  1  0
 10 27  1  0
 12 28  1  0
 13 29  1  0
 16 30  1  0
 18 31  1  0
M  ISO  8  19  13  20  13  21  13  22  13  23  14  24  14  25  14  26   8
M  ISO  4  27   8  28  14  29   9  30   6
M  END
>  <minimizedAffinity>  (1) 
-5.78599405

>  <minimizedRMSD>  (1) 
0.147541165

$$$$
