
     RDKit          3D

 33 36  0  0  1  0  0  0  0  0999 V2000
   35.2110   29.2480   50.5980 C   0  0  0  0  0  0  0  0  0  0  0  0
   36.8170   31.1610   50.2140 C   0  0  1  0  0  0  0  0  0  0  0  0
   36.5680   29.7530   50.2140 C   0  0  1  0  0  0  0  0  0  0  0  0
   37.5490   30.2610   51.2270 C   0  0  0  0  0  0  0  0  0  0  0  0
   37.7840   31.8010   49.2340 C   0  0  0  0  0  0  0  0  0  0  0  0
   38.2350   33.0660   49.5690 C   0  0  0  0  0  0  0  0  0  0  0  0
   39.1110   33.6580   48.6470 C   0  0  0  0  0  0  0  0  0  0  0  0
   39.4600   32.9830   47.5120 N   0  0  0  0  0  0  0  0  0  0  0  0
   38.9890   31.7330   47.2240 C   0  0  0  0  0  0  0  0  0  0  0  0
   38.1310   31.1310   48.1090 N   0  0  0  0  0  0  0  0  0  0  0  0
   34.2990   29.0830   49.4360 C   0  0  0  0  0  0  0  0  0  0  0  0
   34.3650   29.9020   48.3350 C   0  0  0  0  0  0  0  0  0  0  0  0
   33.4500   29.5640   47.4180 N   0  0  0  0  0  0  0  0  0  0  0  0
   32.7920   28.5110   47.9450 C   0  0  0  0  0  0  0  0  0  0  0  0
   33.3060   28.2270   49.1570 N   0  0  0  0  0  0  0  0  0  0  0  0
   31.6800   27.8080   47.2590 C   0  0  0  0  0  0  0  0  0  0  0  0
   31.2880   26.4610   47.7490 C   0  0  0  0  0  0  0  0  0  0  0  0
   29.9500   26.0460   46.6360 S   0  0  0  0  0  0  0  0  0  0  0  0
   30.0930   27.7060   45.6790 C   0  0  0  0  0  0  0  0  0  0  0  0
   31.0220   28.3150   46.2380 N   0  0  0  0  0  0  0  0  0  0  0  0
   35.3277   28.2724   51.0925 H   0  0  0  0  0  0  0  0  0  0  0  0
   34.7594   29.9970   51.2651 H   0  0  0  0  0  0  0  0  0  0  0  0
   36.1208   32.0126   50.2049 H   0  0  0  0  0  0  0  0  0  0  0  0
   36.6305   28.9548   49.4597 H   0  0  0  0  0  0  0  0  0  0  0  0
   38.6240   30.0545   51.1188 H   0  0  0  0  0  0  0  0  0  0  0  0
   37.6654   30.2170   52.3199 H   0  0  0  0  0  0  0  0  0  0  0  0
   37.9273   33.5728   50.4955 H   0  0  0  0  0  0  0  0  0  0  0  0
   39.5157   34.6629   48.8375 H   0  0  0  0  0  0  0  0  0  0  0  0
   39.2922   31.2191   46.2999 H   0  0  0  0  0  0  0  0  0  0  0  0
   35.0793   30.7307   48.2213 H   0  0  0  0  0  0  0  0  0  0  0  0
   33.2840   30.0121   46.5055 H   0  0  0  0  0  0  0  0  0  0  0  0
   31.7096   25.8735   48.5780 H   0  0  0  0  0  0  0  0  0  0  0  0
   29.4869   28.0432   44.8252 H   0  0  0  0  0  0  0  0  0  0  0  0
  2  4  1  0
  3  2  1  0
  3  1  1  0
  3  4  1  0
  5  6  2  0
  5  2  1  0
  7  6  1  0
  8  7  2  0
  9  8  1  0
  9 10  2  0
 10  5  1  0
 11  1  1  0
 12 11  2  0
 13 14  1  0
 13 12  1  0
 14 15  2  0
 15 11  1  0
 16 17  2  0
 16 14  1  0
 18 17  1  0
 19 20  2  0
 19 18  1  0
 20 16  1  0
  1 21  1  0
  1 22  1  0
  2 23  1  1
  3 24  1  6
  4 25  1  0
  4 26  1  0
  6 27  1  0
  7 28  1  0
  9 29  1  0
 12 30  1  0
 13 31  1  0
 17 32  1  0
 19 33  1  0
M  ISO  8  21   8  22   8  23  13  24  13  25  13  26  13  27  14  28  14
M  ISO  5  29  14  30  14  31   9  32  14  33  14
M  END
>  <minimizedAffinity>  (1) 
-5.63439894

>  <minimizedRMSD>  (1) 
0.27756238

$$$$
