
     RDKit          3D

 33 35  0  0  1  0  0  0  0  0999 V2000
   36.8000   31.1750   50.2120 C   0  0  1  0  0  0  0  0  0  0  0  0
   36.5100   29.7760   50.1780 C   0  0  1  0  0  0  0  0  0  0  0  0
   37.5310   30.2350   51.1880 C   0  0  0  0  0  0  0  0  0  0  0  0
   37.7590   31.8020   49.2300 C   0  0  0  0  0  0  0  0  0  0  0  0
   38.2350   33.0630   49.5500 C   0  0  0  0  0  0  0  0  0  0  0  0
   39.1110   33.6490   48.6360 C   0  0  0  0  0  0  0  0  0  0  0  0
   39.4520   32.9720   47.4970 N   0  0  0  0  0  0  0  0  0  0  0  0
   38.9660   31.7280   47.2100 C   0  0  0  0  0  0  0  0  0  0  0  0
   38.1030   31.1390   48.1010 N   0  0  0  0  0  0  0  0  0  0  0  0
   35.1550   29.2970   50.5900 C   0  0  0  0  0  0  0  0  0  0  0  0
   34.2550   29.0530   49.4230 C   0  0  0  0  0  0  0  0  0  0  0  0
   34.2740   29.8450   48.2950 C   0  0  0  0  0  0  0  0  0  0  0  0
   33.3870   29.4430   47.3800 N   0  0  0  0  0  0  0  0  0  0  0  0
   32.7930   28.3660   47.9480 C   0  0  0  0  0  0  0  0  0  0  0  0
   33.3100   28.1270   49.1750 N   0  0  0  0  0  0  0  0  0  0  0  0
   31.7260   27.5090   47.3930 C   0  0  0  0  0  0  0  0  0  0  0  0
   30.9400   26.9100   48.5580 C   0  0  0  0  0  0  0  0  0  0  0  0
   36.1275   32.0450   50.2421 H   0  0  0  0  0  0  0  0  0  0  0  0
   36.5311   29.0009   49.3978 H   0  0  0  0  0  0  0  0  0  0  0  0
   38.5979   30.0044   51.0517 H   0  0  0  0  0  0  0  0  0  0  0  0
   37.6698   30.1615   52.2767 H   0  0  0  0  0  0  0  0  0  0  0  0
   37.9377   33.5756   50.4767 H   0  0  0  0  0  0  0  0  0  0  0  0
   39.5251   34.6495   48.8299 H   0  0  0  0  0  0  0  0  0  0  0  0
   39.2596   31.2095   46.2854 H   0  0  0  0  0  0  0  0  0  0  0  0
   35.2684   28.3573   51.1505 H   0  0  0  0  0  0  0  0  0  0  0  0
   34.6960   30.0834   51.2072 H   0  0  0  0  0  0  0  0  0  0  0  0
   34.9424   30.7086   48.1632 H   0  0  0  0  0  0  0  0  0  0  0  0
   33.1984   29.8567   46.4558 H   0  0  0  0  0  0  0  0  0  0  0  0
   31.0556   28.1109   46.7619 H   0  0  0  0  0  0  0  0  0  0  0  0
   32.1631   26.7084   46.7782 H   0  0  0  0  0  0  0  0  0  0  0  0
   31.3804   27.2456   49.5085 H   0  0  0  0  0  0  0  0  0  0  0  0
   29.8924   27.2409   48.5022 H   0  0  0  0  0  0  0  0  0  0  0  0
   30.9812   25.8122   48.5022 H   0  0  0  0  0  0  0  0  0  0  0  0
  1  3  1  0
  2  1  1  0
  2 10  1  0
  2  3  1  0
  4  5  2  0
  4  1  1  0
  6  5  1  0
  7  6  2  0
  8  7  1  0
  8  9  2  0
  9  4  1  0
 11 10  1  0
 12 11  2  0
 13 14  1  0
 13 12  1  0
 14 15  2  0
 15 11  1  0
 16 14  1  0
 16 17  1  0
  1 18  1  1
  2 19  1  6
  3 20  1  0
  3 21  1  0
  5 22  1  0
  6 23  1  0
  8 24  1  0
 10 25  1  0
 10 26  1  0
 12 27  1  0
 13 28  1  0
 16 29  1  0
 16 30  1  0
 17 31  1  0
 17 32  1  0
 17 33  1  0
M  ISO  8  18  13  19  13  20  13  21  13  22  14  23  14  24  14  25   8
M  ISO  8  26   8  27  14  28   9  29   8  30   8  31   8  32   8  33   8
M  END
>  <minimizedAffinity>  (1) 
-5.41822338

>  <minimizedRMSD>  (1) 
0.60604012

$$$$
